data_PCOD8280367
_publ_section_title
;
Structure prediction by ZEFSAII (Michael W. Deem and Ramdas Pophale) SiO2 
 PCOD8280367
Probable space group: C M M A
;
_chemical_formula_sum "Si O2"
_cell_formula_units_Z 112
_cell_length_a 14.804172
_cell_length_b 22.579898
_cell_length_c 15.827640
_cell_angle_alpha 90.000000
_cell_angle_beta 90.000000
_cell_angle_gamma 90.000000
_cell_volume 5290.811169
_symmetry_space_group_name_H-M "C M M A"
_symmetry_group_IT_number 67
_symmetry_cell_setting 'orthorhombic'
loop_
_space_group_symop_operation_xyz
x,y,z
-x,1/2-y,z
x,-y,-z
-x,1/2+y,-z
-x,-y,-z
x,1/2+y,-z
-x,y,z
x,1/2-y,z
1/2+x,1/2+y,z
1/2-x,-y,z
1/2+x,1/2-y,-z
1/2-x,y,-z
1/2-x,1/2-y,-z
1/2+x,y,-z
1/2-x,1/2+y,z
1/2+x,-y,z
loop_
_atom_site_type_symbol
_atom_site_label
_atom_site_fract_x
_atom_site_fract_y
_atom_site_fract_z
Si Si1 0.758712 0.183586 0.758791
Si Si2 0.152645 0.442518 0.958307
Si Si3 0.895832 0.399666 0.294244
Si Si4 0.898482 0.525753 0.217665
Si Si5 0.604147 0.622431 0.647619
Si Si6 0.336724 0.684984 0.942535
Si Si7 0.894180 0.936493 0.523941
O O1 0.725348 0.250000 0.751943
O O2 0.666236 0.147712 0.751622
O O3 0.830105 0.172511 0.683355
O O4 0.808078 0.171263 0.846876
O O5 0.165864 0.455284 0.858947
O O6 0.108275 0.375627 0.970432
O O7 0.100066 0.500000 0.000000
O O8 0.250000 0.439036 0.000000
O O9 0.886238 0.457606 0.237927
O O10 0.855589 0.411282 0.388156
O O11 0.000000 0.377780 0.297228
O O12 0.874984 0.561986 0.301869
O O13 0.000000 0.539835 0.187424
O O14 0.500000 0.642263 0.658772
O O15 0.626317 0.610833 0.549462
O O16 0.388489 0.750000 0.947499
O O17 0.250000 0.691927 0.000000
O O18 0.000000 0.946835 0.537774
O O19 0.850210 0.000000 0.500000
#
# Coordination Sequence:
#
# PCOD8280367 Si02
#       7
#    16  16  16  16  16  16  16
#     4  11  24  40  62  85 115 161 207 247 289 354
#     4  10  21  32  55  85 114 152 190 236 296 356
#     4  10  22  38  60  88 121 156 199 251 301 354
#     4  10  20  36  58  89 121 150 191 249 305 357
#     4  10  20  37  62  90 122 151 191 248 302 360
#     4   9  19  37  57  81 112 152 199 242 290 353
#     4   9  16  34  59  87 122 157 192 241 306 366
#
# _framework density 21.168776999999999
#
# number of rings (size 3 to 8) (size 9 to 14) (size 15 to 20)
#    0.000    2.143    2.857    0.000    6.000    2.000 
#    0.000    2.143    0.000    3.857    0.000    4.000 
#    0.000    0.000    0.000    0.000    0.000    0.000 
#
# Total GULP energy -693781.759150 kJ/mol
# GULP energy per Si atom -12388.959985 kJ/mol
# Density = 2.112060 g / cm^3
# Si number density = 21.168777 Si / 1000 Ang^3
#
#
#
# Elastic Constant Matrix: (Units=GPa)
#
#
# Indices 1 2 3 4 5 6 
#
# 1 45.0952 17.9134 14.0176 0.0000 0.0000 0.0000
# 2 17.9134 162.9612 28.1670 0.0000 0.0000 0.0000
# 3 14.0176 28.1670 77.9817 0.0000 0.0000 0.0000
# 4 0.0000 0.0000 0.0000 30.4855 0.0000 0.0000
# 5 0.0000 0.0000 0.0000 0.0000 20.7884 0.0000
# 6 0.0000 0.0000 0.0000 0.0000 0.0000 22.2129
#
#
#
# Elastic Compliance Matrix: (Units=1/GPa)
#
#
# Indices 1 2 3 4 5 6 
#
# 1 0.024099 -0.002027 -0.003600 0.000000 0.000000 0.000000
# 2 -0.002027 0.006716 -0.002061 0.000000 0.000000 0.000000
# 3 -0.003600 -0.002061 0.014215 0.000000 0.000000 0.000000
# 4 0.000000 0.000000 0.000000 0.032802 0.000000 0.000000
# 5 0.000000 0.000000 0.000000 0.000000 0.048104 0.000000
# 6 0.000000 0.000000 0.000000 0.000000 0.000000 0.045019
#
#
# Mechanical properties :
#
#
# Convention : Reuss Voigt Hill
#
# Bulk Modulus (GPa) = 33.72226 45.13711 39.42968
# Shear Modulus (GPa) = 25.48212 29.76003 27.62108
#
# Velocity S-wave (km/s) = 3.47329 3.75353 3.61612
# Velocity P-wave (km/s) = 5.66125 6.33673 6.00849
#
# Compressibility (1/GPa) = 0.02965401
#
# Stress axis : x y z
#
# Youngs Moduli (GPa) = 41.49467 148.90870 70.34743
#
# Poissons Ratio (x) = 0.30182 0.25324
# Poissons Ratio (y) = 0.08411 0.14501
# Poissons Ratio (z) = 0.14938 0.30695
#
# Static dielectric constant tensor:
#      x y z
#    x 3.606780 0.000000 0.000000 
#    y 0.000000 4.457770 0.000000 
#    z 0.000000 0.000000 4.120820 
# 
# 
# High freq. dielectric constant tensor:
#      x y z
#    x 1.792120 0.000000 0.000000 
#    y 0.000000 1.828910 0.000000 
#    z 0.000000 0.000000 1.840400 
# 
# From -- ./inp_files/27590.got.cif
#   From: 2010.03.12/outbox.cif.g09.slc.cpg/sg67_14_cif.got.tgz:27590.got - 2010.04.10 22:41:39.
