data_PCOD8280623
_publ_section_title
;
Structure prediction by ZEFSAII (Michael W. Deem and Ramdas Pophale) SiO2 
 PCOD8280623
Probable space group: C M M A
;
_chemical_formula_sum "Si O2"
_cell_formula_units_Z 48
_cell_length_a 28.431093
_cell_length_b 8.059536
_cell_length_c 8.936007
_cell_angle_alpha 90.000000
_cell_angle_beta 90.000000
_cell_angle_gamma 90.000000
_cell_volume 2047.609311
_symmetry_space_group_name_H-M "C M M A"
_symmetry_group_IT_number 67
_symmetry_cell_setting 'orthorhombic'
loop_
_space_group_symop_operation_xyz
x,y,z
-x,1/2-y,z
x,-y,-z
-x,1/2+y,-z
-x,-y,-z
x,1/2+y,-z
-x,y,z
x,1/2-y,z
1/2+x,1/2+y,z
1/2-x,-y,z
1/2+x,1/2-y,-z
1/2-x,y,-z
1/2-x,1/2-y,-z
1/2+x,y,-z
1/2-x,1/2+y,z
1/2+x,-y,z
loop_
_atom_site_type_symbol
_atom_site_label
_atom_site_fract_x
_atom_site_fract_y
_atom_site_fract_z
Si Si1 0.555016 0.750000 0.966733
Si Si2 0.054893 0.250000 0.316478
Si Si3 0.397570 0.069582 0.277641
Si Si4 0.700302 0.555425 0.329202
O O1 0.500000 0.750000 0.937193
O O2 0.576385 0.586581 0.883347
O O3 0.566910 0.750000 0.140408
O O4 0.079080 0.420420 0.376130
O O5 0.000000 0.250000 0.357168
O O6 0.402935 0.250000 0.362896
O O7 0.342737 0.033385 0.245040
O O8 0.698609 0.500000 0.500000
O O9 0.694019 0.750000 0.314652
O O10 0.750000 0.500000 0.256599
#
# Coordination Sequence:
#
# PCOD8280623 Si02
#       4
#     8   8  16  16
#     4   9  20  36  58  83 116 152 192 235 272 324
#     4  11  20  36  58  85 114 154 196 231 276 326
#     4  10  21  34  55  87 117 145 185 238 279 325
#     4  11  21  38  62  87 111 143 186 232 280 340
#
# _framework density 23.441970999999999
#
# number of rings (size 3 to 8) (size 9 to 14) (size 15 to 20)
#    1.000    0.667    1.667    6.000    0.000    2.667 
#    0.000    0.000    0.000   12.000    0.000    0.000 
#    0.000    0.000    0.000    0.000    0.000    0.000 
#
# Total GULP energy -297399.968826 kJ/mol
# GULP energy per Si atom -12391.665368 kJ/mol
# Density = 2.338862 g / cm^3
# Si number density = 23.441971 Si / 1000 Ang^3
#
#
#
# Elastic Constant Matrix: (Units=GPa)
#
#
# Indices 1 2 3 4 5 6 
#
# 1 206.7161 72.0481 10.6254 0.0000 0.0000 0.0000
# 2 72.0481 223.8255 6.3780 0.0000 0.0000 0.0000
# 3 10.6254 6.3780 15.1564 0.0000 0.0000 0.0000
# 4 0.0000 0.0000 0.0000 19.4244 0.0000 0.0000
# 5 0.0000 0.0000 0.0000 0.0000 9.3324 0.0000
# 6 0.0000 0.0000 0.0000 0.0000 0.0000 36.2223
#
#
#
# Elastic Compliance Matrix: (Units=1/GPa)
#
#
# Indices 1 2 3 4 5 6 
#
# 1 0.005599 -0.001711 -0.003205 0.000000 0.000000 0.000000
# 2 -0.001711 0.005045 -0.000924 0.000000 0.000000 0.000000
# 3 -0.003205 -0.000924 0.068614 0.000000 0.000000 0.000000
# 4 0.000000 0.000000 0.000000 0.051482 0.000000 0.000000
# 5 0.000000 0.000000 0.000000 0.000000 0.107153 0.000000
# 6 0.000000 0.000000 0.000000 0.000000 0.000000 0.027607
#
#
# Mechanical properties :
#
#
# Convention : Reuss Voigt Hill
#
# Bulk Modulus (GPa) = 14.79751 69.31121 42.05436
# Shear Modulus (GPa) = 16.68310 36.77225 26.72768
#
# Velocity S-wave (km/s) = 2.67062 3.96492 3.38029
# Velocity P-wave (km/s) = 3.97941 7.11281 5.76315
#
# Compressibility (1/GPa) = 0.06757895
#
# Stress axis : x y z
#
# Youngs Moduli (GPa) = 178.61690 198.22447 14.57424
#
# Poissons Ratio (x) = 0.33913 0.04671
# Poissons Ratio (y) = 0.30558 0.01346
# Poissons Ratio (z) = 0.57246 0.18307
#
# Static dielectric constant tensor:
#      x y z
#    x 4.643730 0.000000 0.000000 
#    y 0.000000 4.685060 0.000000 
#    z 0.000000 0.000000 3.566160 
# 
# 
# High freq. dielectric constant tensor:
#      x y z
#    x 1.937700 0.000000 0.000000 
#    y 0.000000 1.963560 0.000000 
#    z 0.000000 0.000000 1.875190 
# 
# From -- ./inp_files/22490.got.cif
#   From: 2010.03.12/outbox.cif.g09.slc.cpg/sg67_12_cif.got.tgz:22490.got - 2010.04.10 22:41:39.
