data_PCOD8280001
_publ_section_title
;
Structure prediction by ZEFSAII (Michael W. Deem and Ramdas Pophale) SiO2 
 PCOD8280001
Probable space group: C M M A
;
_chemical_formula_sum "Si O2"
_cell_formula_units_Z 128
_cell_length_a 27.006518
_cell_length_b 23.300340
_cell_length_c 11.107855
_cell_angle_alpha 90.000000
_cell_angle_beta 90.000000
_cell_angle_gamma 90.000000
_cell_volume 6989.740518
_symmetry_space_group_name_H-M "C M M A"
_symmetry_group_IT_number 67
_symmetry_cell_setting 'orthorhombic'
loop_
_space_group_symop_operation_xyz
x,y,z
-x,1/2-y,z
x,-y,-z
-x,1/2+y,-z
-x,-y,-z
x,1/2+y,-z
-x,y,z
x,1/2-y,z
1/2+x,1/2+y,z
1/2-x,-y,z
1/2+x,1/2-y,-z
1/2-x,y,-z
1/2-x,1/2-y,-z
1/2+x,y,-z
1/2-x,1/2+y,z
1/2+x,-y,z
loop_
_atom_site_type_symbol
_atom_site_label
_atom_site_fract_x
_atom_site_fract_y
_atom_site_fract_z
Si Si1 0.730164 0.064197 0.876471
Si Si2 0.444134 0.371299 0.233757
Si Si3 0.138641 0.685884 0.380336
Si Si4 0.621255 0.401838 0.834492
Si Si5 0.256870 0.129588 0.365014
Si Si6 0.942523 0.004580 0.860519
Si Si7 0.056127 0.815671 0.985131
Si Si8 0.657543 0.188003 0.651098
O O1 0.671096 0.070583 0.888110
O O2 0.748614 0.087738 0.747897
O O3 0.750000 0.000000 0.879641
O O4 0.750000 0.095163 0.000000
O O5 0.500000 0.374802 0.285395
O O6 0.407504 0.351595 0.337339
O O7 0.426462 0.433593 0.187867
O O8 0.441852 0.324838 0.127666
O O9 0.137724 0.750000 0.324576
O O10 0.189294 0.655331 0.343567
O O11 0.132206 0.689055 0.522261
O O12 0.586760 0.454342 0.791427
O O13 0.594036 0.360670 0.928866
O O14 0.632305 0.363994 0.718864
O O15 0.250000 0.100607 0.500000
O O16 0.216654 0.180361 0.359389
O O17 0.000000 0.993236 0.840515
O O18 0.927920 0.000000 0.000000
O O19 0.071286 0.750000 0.955817
O O20 0.000000 0.828113 0.938871
O O21 0.648519 0.250000 0.714409
#
# Coordination Sequence:
#
# PCOD8280001 Si02
#       8
#    16  16  16  16  16  16  16  16
#     4  10  24  36  51  81 118 155 188 235 291 339
#     4  10  21  35  53  81 113 143 182 235 281 327
#     4  10  20  35  61  82 105 148 190 226 278 338
#     4  11  21  35  59  80 112 149 185 231 284 336
#     4   9  19  36  59  83 109 146 195 238 273 336
#     4  10  20  35  57  81 105 144 192 231 272 334
#     4  10  20  34  55  84 115 146 186 234 281 337
#     4   9  19  38  57  83 113 143 183 230 279 332
#
# _framework density 18.312553000000001
#
# number of rings (size 3 to 8) (size 9 to 14) (size 15 to 20)
#    0.000    2.125    1.250    1.500    5.250    2.500 
#    0.000    1.875    0.000    5.250    0.000    0.000 
#    0.000    0.000    0.000    0.000    0.000    0.000 
#
# Total GULP energy -793213.803144 kJ/mol
# GULP energy per Si atom -12393.965674 kJ/mol
# Density = 1.827087 g / cm^3
# Si number density = 18.312553 Si / 1000 Ang^3
#
#
#
# Elastic Constant Matrix: (Units=GPa)
#
#
# Indices 1 2 3 4 5 6 
#
# 1 113.6834 70.3149 46.1442 0.0000 0.0000 0.0000
# 2 70.3149 118.8850 44.5915 0.0000 0.0000 0.0000
# 3 46.1442 44.5915 86.9199 0.0000 0.0000 0.0000
# 4 0.0000 0.0000 0.0000 25.3269 0.0000 0.0000
# 5 0.0000 0.0000 0.0000 0.0000 27.7475 0.0000
# 6 0.0000 0.0000 0.0000 0.0000 0.0000 26.3589
#
#
#
# Elastic Compliance Matrix: (Units=1/GPa)
#
#
# Indices 1 2 3 4 5 6 
#
# 1 0.015031 -0.007302 -0.004234 0.000000 0.000000 0.000000
# 2 -0.007302 0.013963 -0.003287 0.000000 0.000000 0.000000
# 3 -0.004234 -0.003287 0.015439 0.000000 0.000000 0.000000
# 4 0.000000 0.000000 0.000000 0.039484 0.000000 0.000000
# 5 0.000000 0.000000 0.000000 0.000000 0.036039 0.000000
# 6 0.000000 0.000000 0.000000 0.000000 0.000000 0.037938
#
#
# Mechanical properties :
#
#
# Convention : Reuss Voigt Hill
#
# Bulk Modulus (GPa) = 67.62353 71.28772 69.45562
# Shear Modulus (GPa) = 25.97821 26.44918 26.21370
#
# Velocity S-wave (km/s) = 3.77052 3.80454 3.78757
# Velocity P-wave (km/s) = 7.48086 7.63625 7.55895
#
# Compressibility (1/GPa) = 0.01478775
#
# Stress axis : x y z
#
# Youngs Moduli (GPa) = 66.52706 71.61616 64.77297
#
# Poissons Ratio (x) = 0.52297 0.27423
# Poissons Ratio (y) = 0.48581 0.21289
# Poissons Ratio (z) = 0.28165 0.23538
#
# Static dielectric constant tensor:
#      x y z
#    x 3.474110 0.000000 0.000000 
#    y 0.000000 3.486380 0.000000 
#    z 0.000000 0.000000 3.413210 
# 
# 
# High freq. dielectric constant tensor:
#      x y z
#    x 1.717850 0.000000 0.000000 
#    y 0.000000 1.715510 0.000000 
#    z 0.000000 0.000000 1.694050 
# 
# From -- ./inp_files/22343.got.cif
#   From: 2010.03.12/outbox.cif.g09.slc.cpg/sg67_12_cif.got.tgz:22343.got - 2010.04.10 22:41:39.
