data_PCOD8280985
_publ_section_title
;
Structure prediction by ZEFSAII (Michael W. Deem and Ramdas Pophale) SiO2 
 PCOD8280985
Probable space group: C M M A
;
_chemical_formula_sum "Si O2"
_cell_formula_units_Z 56
_cell_length_a 22.431605
_cell_length_b 16.902167
_cell_length_c 7.031877
_cell_angle_alpha 90.000000
_cell_angle_beta 90.000000
_cell_angle_gamma 90.000000
_cell_volume 2666.085069
_symmetry_space_group_name_H-M "C M M A"
_symmetry_group_IT_number 67
_symmetry_cell_setting 'orthorhombic'
loop_
_space_group_symop_operation_xyz
x,y,z
-x,1/2-y,z
x,-y,-z
-x,1/2+y,-z
-x,-y,-z
x,1/2+y,-z
-x,y,z
x,1/2-y,z
1/2+x,1/2+y,z
1/2-x,-y,z
1/2+x,1/2-y,-z
1/2-x,y,-z
1/2-x,1/2-y,-z
1/2+x,y,-z
1/2-x,1/2+y,z
1/2+x,-y,z
loop_
_atom_site_type_symbol
_atom_site_label
_atom_site_fract_x
_atom_site_fract_y
_atom_site_fract_z
Si Si1 0.929624 0.622047 0.147902
Si Si2 0.930584 0.250000 0.556728
Si Si3 0.348021 0.000000 0.000000
Si Si4 0.386072 0.250000 0.862037
Si Si5 0.252837 0.750000 0.269990
Si Si6 0.750000 0.379883 0.000000
O O1 0.909675 0.672093 0.330817
O O2 0.892265 0.540134 0.154886
O O3 0.000000 0.603483 0.146868
O O4 0.912905 0.671694 0.958989
O O5 0.901838 0.250000 0.355973
O O6 0.000000 0.250000 0.537907
O O7 0.304376 0.932414 0.084904
O O8 0.314986 0.250000 0.848497
O O9 0.250000 0.750000 0.500000
O O10 0.223404 0.829433 0.180953
#
# Coordination Sequence:
#
# PCOD8280985 Si02
#       6
#    16   8   8   8   8   8
#     4  10  21  38  62  89 118 157 194 236 298 352
#     4   9  20  36  59  89 118 150 196 243 281 343
#     4  11  21  40  62  84 123 159 184 246 296 355
#     4  11  20  38  62  88 117 151 201 249 286 337
#     4  11  24  40  66  88 108 155 206 248 288 339
#     4  10  24  44  60  86 118 152 202 246 294 338
#
# _framework density 21.004580000000001
#
# number of rings (size 3 to 8) (size 9 to 14) (size 15 to 20)
#    0.000    1.714    2.857    2.571    4.000    0.000 
#    0.000    7.143    0.000    5.143    0.000    0.000 
#    0.000    0.000    0.000    0.000    0.000    0.000 
#
# Total GULP energy -346866.613325 kJ/mol
# GULP energy per Si atom -12388.093333 kJ/mol
# Density = 2.095677 g / cm^3
# Si number density = 21.004580 Si / 1000 Ang^3
#
#
#
# Elastic Constant Matrix: (Units=GPa)
#
#
# Indices 1 2 3 4 5 6 
#
# 1 93.5415 36.3093 9.1937 0.0000 0.0000 0.0000
# 2 36.3093 124.8070 51.0432 0.0000 0.0000 0.0000
# 3 9.1937 51.0432 154.9177 0.0000 0.0000 0.0000
# 4 0.0000 0.0000 0.0000 6.0926 0.0000 0.0000
# 5 0.0000 0.0000 0.0000 0.0000 22.8459 0.0000
# 6 0.0000 0.0000 0.0000 0.0000 0.0000 43.1744
#
#
#
# Elastic Compliance Matrix: (Units=1/GPa)
#
#
# Indices 1 2 3 4 5 6 
#
# 1 0.012086 -0.003725 0.000510 0.000000 0.000000 0.000000
# 2 -0.003725 0.010408 -0.003208 0.000000 0.000000 0.000000
# 3 0.000510 -0.003208 0.007482 0.000000 0.000000 0.000000
# 4 0.000000 0.000000 0.000000 0.164133 0.000000 0.000000
# 5 0.000000 0.000000 0.000000 0.000000 0.043771 0.000000
# 6 0.000000 0.000000 0.000000 0.000000 0.000000 0.023162
#
#
# Mechanical properties :
#
#
# Convention : Reuss Voigt Hill
#
# Bulk Modulus (GPa) = 58.37690 62.92871 60.65281
# Shear Modulus (GPa) = 17.88277 32.87059 25.37668
#
# Velocity S-wave (km/s) = 2.92100 3.96020 3.47962
# Velocity P-wave (km/s) = 6.26331 7.13691 6.71434
#
# Compressibility (1/GPa) = 0.01713006
#
# Stress axis : x y z
#
# Youngs Moduli (GPa) = 82.73961 96.07921 133.65670
#
# Poissons Ratio (x) = 0.35787 -0.06816
# Poissons Ratio (y) = 0.30818 0.42881
# Poissons Ratio (z) = -0.04220 0.30825
#
# Static dielectric constant tensor:
#      x y z
#    x 4.289850 0.000000 0.000000 
#    y 0.000000 4.119890 0.000000 
#    z 0.000000 0.000000 3.352790 
# 
# 
# High freq. dielectric constant tensor:
#      x y z
#    x 1.849690 0.000000 0.000000 
#    y 0.000000 1.827590 0.000000 
#    z 0.000000 0.000000 1.785740 
# 
# From -- ./inp_files/3293.got.cif
#   From: 2010.03.12/outbox.cif.g09.slc.cpg/sg67_2_cif.got.tgz:3293.got - 2010.04.10 22:41:39.
