data_PCOD8280891
_publ_section_title
;
Structure prediction by ZEFSAII (Michael W. Deem and Ramdas Pophale) SiO2 
 PCOD8280891
Probable space group: C M M A
;
_chemical_formula_sum "Si O2"
_cell_formula_units_Z 64
_cell_length_a 8.814869
_cell_length_b 27.519148
_cell_length_c 13.732526
_cell_angle_alpha 90.000000
_cell_angle_beta 90.000000
_cell_angle_gamma 90.000000
_cell_volume 3331.204361
_symmetry_space_group_name_H-M "C M M A"
_symmetry_group_IT_number 67
_symmetry_cell_setting 'orthorhombic'
loop_
_space_group_symop_operation_xyz
x,y,z
-x,1/2-y,z
x,-y,-z
-x,1/2+y,-z
-x,-y,-z
x,1/2+y,-z
-x,y,z
x,1/2-y,z
1/2+x,1/2+y,z
1/2-x,-y,z
1/2+x,1/2-y,-z
1/2-x,y,-z
1/2-x,1/2-y,-z
1/2+x,y,-z
1/2-x,1/2+y,z
1/2+x,-y,z
loop_
_atom_site_type_symbol
_atom_site_label
_atom_site_fract_x
_atom_site_fract_y
_atom_site_fract_z
Si Si1 0.678290 0.550633 0.721770
Si Si2 0.319961 0.392874 0.897394
Si Si3 0.678430 0.305756 0.205866
Si Si4 0.174977 0.856799 0.398541
O O1 0.500000 0.545533 0.741791
O O2 0.750000 0.500000 0.688308
O O3 0.758238 0.568669 0.819723
O O4 0.711442 0.588202 0.634415
O O5 0.500000 0.395488 0.901694
O O6 0.268272 0.338101 0.871864
O O7 0.250000 0.408276 0.000000
O O8 0.500000 0.316999 0.194526
O O9 0.717812 0.250000 0.185007
O O10 0.732453 0.319918 0.314737
O O11 0.250000 0.843603 0.500000
O O12 0.000000 0.848753 0.415860
#
# Coordination Sequence:
#
# PCOD8280891 Si02
#       4
#    16  16  16  16
#     4  10  21  38  57  80 109 141 179 222 268 316
#     4  11  22  37  57  81 109 141 178 220 267 319
#     4   9  19  37  57  78 108 144 181 223 269 316
#     4   9  19  34  53  78 109 143 179 220 265 315
#
# _framework density 19.212268999999999
#
# number of rings (size 3 to 8) (size 9 to 14) (size 15 to 20)
#    0.000    2.250    0.000    4.500    0.000    7.500 
#    0.000    5.000    0.000    0.000    0.000    0.000 
#    0.000    0.000    0.000    0.000    0.000    0.000 
#
# Total GULP energy -396852.706944 kJ/mol
# GULP energy per Si atom -12401.647092 kJ/mol
# Density = 1.916854 g / cm^3
# Si number density = 19.212269 Si / 1000 Ang^3
#
#
#
# Elastic Constant Matrix: (Units=GPa)
#
#
# Indices 1 2 3 4 5 6 
#
# 1 84.8353 11.1324 13.1911 0.0000 0.0000 0.0000
# 2 11.1324 49.8177 -28.1867 0.0000 0.0000 0.0000
# 3 13.1911 -28.1867 56.1783 0.0000 0.0000 0.0000
# 4 0.0000 0.0000 0.0000 11.7298 0.0000 0.0000
# 5 0.0000 0.0000 0.0000 0.0000 35.8810 0.0000
# 6 0.0000 0.0000 0.0000 0.0000 0.0000 31.4881
#
#
#
# Elastic Compliance Matrix: (Units=1/GPa)
#
#
# Indices 1 2 3 4 5 6 
#
# 1 0.013716 -0.006825 -0.006645 0.000000 0.000000 0.000000
# 2 -0.006825 0.031426 0.017370 0.000000 0.000000 0.000000
# 3 -0.006645 0.017370 0.028076 0.000000 0.000000 0.000000
# 4 0.000000 0.000000 0.000000 0.085253 0.000000 0.000000
# 5 0.000000 0.000000 0.000000 0.000000 0.027870 0.000000
# 6 0.000000 0.000000 0.000000 0.000000 0.000000 0.031758
#
#
# Mechanical properties :
#
#
# Convention : Reuss Voigt Hill
#
# Bulk Modulus (GPa) = 12.34270 20.34500 16.34385
# Shear Modulus (GPa) = 21.06994 28.79941 24.93467
#
# Velocity S-wave (km/s) = 3.31523 3.87591 3.60648
# Velocity P-wave (km/s) = 4.59267 5.53559 5.08603
#
# Compressibility (1/GPa) = 0.08101953
#
# Stress axis : x y z
#
# Youngs Moduli (GPa) = 72.90572 31.82052 35.61764
#
# Poissons Ratio (x) = 0.21717 0.23668
# Poissons Ratio (y) = 0.49756 -0.61868
# Poissons Ratio (z) = 0.48445 -0.55273
#
# Static dielectric constant tensor:
#      x y z
#    x 3.477750 0.000000 0.000000 
#    y 0.000000 3.542750 0.000000 
#    z 0.000000 0.000000 3.548160 
# 
# 
# High freq. dielectric constant tensor:
#      x y z
#    x 1.748650 0.000000 0.000000 
#    y 0.000000 1.747640 0.000000 
#    z 0.000000 0.000000 1.746310 
# 
# From -- ./inp_files/15792.got.cif
#   From: 2010.03.12/outbox.cif.g09.slc.cpg/sg67_8_cif.got.tgz:15792.got - 2010.04.10 22:41:39.
