data_PCOD8280978
_publ_section_title
;
Structure prediction by ZEFSAII (Michael W. Deem and Ramdas Pophale) SiO2 
 PCOD8280978
Probable space group: C M M A
;
_chemical_formula_sum "Si O2"
_cell_formula_units_Z 52
_cell_length_a 29.704691
_cell_length_b 8.818541
_cell_length_c 9.821822
_cell_angle_alpha 90.000000
_cell_angle_beta 90.000000
_cell_angle_gamma 90.000000
_cell_volume 2572.846265
_symmetry_space_group_name_H-M "C M M A"
_symmetry_group_IT_number 67
_symmetry_cell_setting 'orthorhombic'
loop_
_space_group_symop_operation_xyz
x,y,z
-x,1/2-y,z
x,-y,-z
-x,1/2+y,-z
-x,-y,-z
x,1/2+y,-z
-x,y,z
x,1/2-y,z
1/2+x,1/2+y,z
1/2-x,-y,z
1/2+x,1/2-y,-z
1/2-x,y,-z
1/2-x,1/2-y,-z
1/2+x,y,-z
1/2-x,1/2+y,z
1/2+x,-y,z
loop_
_atom_site_type_symbol
_atom_site_label
_atom_site_fract_x
_atom_site_fract_y
_atom_site_fract_z
Si Si1 0.446977 0.575555 0.359098
Si Si2 0.207143 0.082173 0.239144
Si Si3 0.750000 0.000000 0.500000
Si Si4 0.382561 0.929554 0.852198
O O1 0.431531 0.500000 0.500000
O O2 0.500000 0.560522 0.338166
O O3 0.431251 0.750000 0.359631
O O4 0.424288 0.487157 0.235787
O O5 0.199735 0.250000 0.177021
O O6 0.217619 0.099135 0.401251
O O7 0.250000 0.000000 0.166706
O O8 0.163728 0.979762 0.217418
O O9 0.383970 0.750000 0.862496
O O10 0.387134 0.000000 0.000000
#
# Coordination Sequence:
#
# PCOD8280978 Si02
#       4
#    16  16   4  16
#     4  10  22  42  68  97 128 163 207 259 314 372
#     4  10  21  38  61  89 124 161 207 255 308 368
#     4   8  22  36  64  88 124 160 208 256 310 364
#     4  12  26  43  64  91 127 169 213 260 316 377
#
# _framework density 20.211079999999999
#
# number of rings (size 3 to 8) (size 9 to 14) (size 15 to 20)
#    0.923    0.615    0.000    5.077    2.154    3.077 
#    0.000    3.077    0.000    0.000    0.000    0.000 
#    0.000    0.000    0.000    0.000    0.000    0.000 
#
# Total GULP energy -322325.585802 kJ/mol
# GULP energy per Si atom -12397.137915 kJ/mol
# Density = 2.016508 g / cm^3
# Si number density = 20.211080 Si / 1000 Ang^3
#
#
#
# Elastic Constant Matrix: (Units=GPa)
#
#
# Indices 1 2 3 4 5 6 
#
# 1 72.3271 53.3050 51.9336 0.0000 0.0000 0.0000
# 2 53.3050 202.9549 61.1325 0.0000 0.0000 0.0000
# 3 51.9336 61.1325 134.4936 0.0000 0.0000 0.0000
# 4 0.0000 0.0000 0.0000 33.0772 0.0000 0.0000
# 5 0.0000 0.0000 0.0000 0.0000 -12.0427 0.0000
# 6 0.0000 0.0000 0.0000 0.0000 0.0000 27.1861
#
#
#
# Elastic Compliance Matrix: (Units=1/GPa)
#
#
# Indices 1 2 3 4 5 6 
#
# 1 0.021169 -0.003589 -0.006543 0.000000 0.000000 0.000000
# 2 -0.003589 0.006317 -0.001486 0.000000 0.000000 0.000000
# 3 -0.006543 -0.001486 0.010637 0.000000 0.000000 0.000000
# 4 0.000000 0.000000 0.000000 0.030232 0.000000 0.000000
# 5 0.000000 0.000000 0.000000 0.000000 -0.083038 0.000000
# 6 0.000000 0.000000 0.000000 0.000000 0.000000 0.036784
#
#
# Mechanical properties :
#
#
# Convention : Reuss Voigt Hill
#
# Bulk Modulus (GPa) = 67.16638 82.50196 74.83417
# Shear Modulus (GPa) = 99.40288 25.87107 62.63697
#
# Velocity S-wave (km/s) = 7.02062 3.58165 5.57303
# Velocity P-wave (km/s) = 9.95105 7.61663 8.86105
#
# Compressibility (1/GPa) = 0.01488840
#
# Stress axis : x y z
#
# Youngs Moduli (GPa) = 47.23793 158.29414 94.01109
#
# Poissons Ratio (x) = 0.56815 0.61511
# Poissons Ratio (y) = 0.16955 0.13966
# Poissons Ratio (z) = 0.30908 0.23515
#
# Static dielectric constant tensor:
#      x y z
#    x 3.604780 0.000000 0.000000 
#    y 0.000000 3.776410 0.000000 
#    z 0.000000 0.000000 3.526940 
# 
# 
# High freq. dielectric constant tensor:
#      x y z
#    x 1.790910 0.000000 0.000000 
#    y 0.000000 1.805460 0.000000 
#    z 0.000000 0.000000 1.784750 
# 
# From -- ./inp_files/23323.got.cif
#   From: 2010.03.12/outbox.cif.g09.slc.cpg/sg67_12_cif.got.tgz:23323.got - 2010.04.10 22:41:39.
