data_PCOD8280589
_publ_section_title
;
Structure prediction by ZEFSAII (Michael W. Deem and Ramdas Pophale) SiO2 
 PCOD8280589
Probable space group: C M M A
;
_chemical_formula_sum "Si O2"
_cell_formula_units_Z 72
_cell_length_a 27.117038
_cell_length_b 14.271371
_cell_length_c 9.521726
_cell_angle_alpha 90.000000
_cell_angle_beta 90.000000
_cell_angle_gamma 90.000000
_cell_volume 3684.882346
_symmetry_space_group_name_H-M "C M M A"
_symmetry_group_IT_number 67
_symmetry_cell_setting 'orthorhombic'
loop_
_space_group_symop_operation_xyz
x,y,z
-x,1/2-y,z
x,-y,-z
-x,1/2+y,-z
-x,-y,-z
x,1/2+y,-z
-x,y,z
x,1/2-y,z
1/2+x,1/2+y,z
1/2-x,-y,z
1/2+x,1/2-y,-z
1/2-x,y,-z
1/2-x,1/2-y,-z
1/2+x,y,-z
1/2-x,1/2+y,z
1/2+x,-y,z
loop_
_atom_site_type_symbol
_atom_site_label
_atom_site_fract_x
_atom_site_fract_y
_atom_site_fract_z
Si Si1 0.869425 0.500000 0.000000
Si Si2 0.307250 0.505557 0.722775
Si Si3 0.555971 0.641917 0.926015
Si Si4 0.553336 0.139371 0.389628
Si Si5 0.344573 0.638655 0.491495
O O1 0.835457 0.518707 0.132859
O O2 0.905466 0.588614 0.974056
O O3 0.250000 0.500000 0.757525
O O4 0.315781 0.596212 0.624688
O O5 0.324905 0.409305 0.649390
O O6 0.500000 0.625159 0.978365
O O7 0.570108 0.750000 0.934354
O O8 0.562442 0.601135 0.767805
O O9 0.500000 0.102953 0.447324
O O10 0.551189 0.250000 0.374569
O O11 0.597488 0.110550 0.493579
O O12 0.335843 0.750000 0.485577
#
# Coordination Sequence:
#
# PCOD8280589 Si02
#       5
#     8  16  16  16  16
#     4  12  22  38  60  84 120 156 194 234 290 352
#     4  11  25  40  57  84 114 150 198 250 295 337
#     4   9  18  34  57  86 120 156 191 227 277 347
#     4   8  14  29  56  86 113 144 182 225 278 341
#     4  10  20  40  64  84 111 151 194 239 294 350
#
# _framework density 19.539293000000001
#
# number of rings (size 3 to 8) (size 9 to 14) (size 15 to 20)
#    0.000    2.222    2.222    3.333    0.000    2.667 
#    0.000    4.444    0.000    6.667    0.000    0.000 
#    0.000    0.000    0.000    0.000    0.000    0.000 
#
# Total GULP energy -446254.049215 kJ/mol
# GULP energy per Si atom -12395.945812 kJ/mol
# Density = 1.949482 g / cm^3
# Si number density = 19.539293 Si / 1000 Ang^3
#
#
#
# Elastic Constant Matrix: (Units=GPa)
#
#
# Indices 1 2 3 4 5 6 
#
# 1 141.0228 39.3746 19.3127 0.0000 0.0000 0.0000
# 2 39.3746 99.1257 18.7493 0.0000 0.0000 0.0000
# 3 19.3127 18.7493 46.5360 0.0000 0.0000 0.0000
# 4 0.0000 0.0000 0.0000 13.6604 0.0000 0.0000
# 5 0.0000 0.0000 0.0000 0.0000 29.1897 0.0000
# 6 0.0000 0.0000 0.0000 0.0000 0.0000 25.9540
#
#
#
# Elastic Compliance Matrix: (Units=1/GPa)
#
#
# Indices 1 2 3 4 5 6 
#
# 1 0.008189 -0.002825 -0.002260 0.000000 0.000000 0.000000
# 2 -0.002825 0.011895 -0.003620 0.000000 0.000000 0.000000
# 3 -0.002260 -0.003620 0.023885 0.000000 0.000000 0.000000
# 4 0.000000 0.000000 0.000000 0.073204 0.000000 0.000000
# 5 0.000000 0.000000 0.000000 0.000000 0.034259 0.000000
# 6 0.000000 0.000000 0.000000 0.000000 0.000000 0.038530
#
#
# Mechanical properties :
#
#
# Convention : Reuss Voigt Hill
#
# Bulk Modulus (GPa) = 37.65282 49.06198 43.35740
# Shear Modulus (GPa) = 23.12384 27.71069 25.41726
#
# Velocity S-wave (km/s) = 3.44387 3.76999 3.61061
# Velocity P-wave (km/s) = 5.92670 6.64186 6.29445
#
# Compressibility (1/GPa) = 0.02655843
#
# Stress axis : x y z
#
# Youngs Moduli (GPa) = 122.10771 84.06717 41.86685
#
# Poissons Ratio (x) = 0.23753 0.09463
# Poissons Ratio (y) = 0.34501 0.15156
# Poissons Ratio (z) = 0.27600 0.30432
#
# Static dielectric constant tensor:
#      x y z
#    x 3.955730 0.000000 0.000000 
#    y 0.000000 3.432200 0.000000 
#    z 0.000000 0.000000 3.375090 
# 
# 
# High freq. dielectric constant tensor:
#      x y z
#    x 1.779120 0.000000 0.000000 
#    y 0.000000 1.753390 0.000000 
#    z 0.000000 0.000000 1.731610 
# 
# From -- ./inp_files/8504.got.cif
#   From: 2010.03.12/outbox.cif.g09.slc.cpg/sg67_5_cif.got.tgz:8504.got - 2010.04.10 22:41:39.
