data_PCOD8280438
_publ_section_title
;
Structure prediction by ZEFSAII (Michael W. Deem and Ramdas Pophale) SiO2 
 PCOD8280438
Probable space group: C M M A
;
_chemical_formula_sum "Si O2"
_cell_formula_units_Z 112
_cell_length_a 13.999579
_cell_length_b 26.851412
_cell_length_c 16.107344
_cell_angle_alpha 90.000000
_cell_angle_beta 90.000000
_cell_angle_gamma 90.000000
_cell_volume 6054.886935
_symmetry_space_group_name_H-M "C M M A"
_symmetry_group_IT_number 67
_symmetry_cell_setting 'orthorhombic'
loop_
_space_group_symop_operation_xyz
x,y,z
-x,1/2-y,z
x,-y,-z
-x,1/2+y,-z
-x,-y,-z
x,1/2+y,-z
-x,y,z
x,1/2-y,z
1/2+x,1/2+y,z
1/2-x,-y,z
1/2+x,1/2-y,-z
1/2-x,y,-z
1/2-x,1/2-y,-z
1/2+x,y,-z
1/2-x,1/2+y,z
1/2+x,-y,z
loop_
_atom_site_type_symbol
_atom_site_label
_atom_site_fract_x
_atom_site_fract_y
_atom_site_fract_z
Si Si1 0.256721 0.443138 0.135705
Si Si2 0.257600 0.108697 0.698747
Si Si3 0.612513 0.803519 0.060766
Si Si4 0.389317 0.428491 0.424943
Si Si5 0.889839 0.541989 0.606113
Si Si6 0.612773 0.591454 0.007510
Si Si7 0.110220 0.807031 0.750211
O O1 0.250000 0.500000 0.166084
O O2 0.282767 0.405749 0.210785
O O3 0.155690 0.429310 0.093418
O O4 0.342635 0.437381 0.069851
O O5 0.173434 0.109963 0.629590
O O6 0.332015 0.064681 0.681365
O O7 0.315476 0.160619 0.695937
O O8 0.500000 0.799121 0.062892
O O9 0.654407 0.750000 0.028571
O O10 0.642032 0.849610 0.001767
O O11 0.644898 0.813370 0.155075
O O12 0.500000 0.416207 0.408367
O O13 0.362010 0.484378 0.399230
O O14 0.365326 0.426218 0.522832
O O15 0.000000 0.546870 0.626471
O O16 0.500000 0.582937 0.008976
O O17 0.119693 0.750000 0.721086
O O18 0.000000 0.824934 0.738032
#
# Coordination Sequence:
#
# PCOD8280438 Si02
#       7
#    16  16  16  16  16  16  16
#     4  11  24  35  46  74 106 133 175 216 248 306
#     4  12  20  32  55  79 105 135 175 215 264 316
#     4   8  14  29  54  77  94 119 164 220 267 300
#     4   9  19  34  51  77 113 145 173 208 252 309
#     4   9  18  33  54  80 107 138 176 216 260 304
#     4  10  20  37  53  66  97 142 176 208 258 306
#     4   9  18  33  53  80 108 129 163 223 279 313
#
# _framework density 18.497454999999999
#
# number of rings (size 3 to 8) (size 9 to 14) (size 15 to 20)
#    0.000    2.286    1.429    4.714    0.000    3.429 
#    0.000    2.143    0.000    2.143    0.000    2.000 
#    0.000    0.000    0.000    0.143    0.000    0.000 
#
# Total GULP energy -694061.222226 kJ/mol
# GULP energy per Si atom -12393.950397 kJ/mol
# Density = 1.845535 g / cm^3
# Si number density = 18.497455 Si / 1000 Ang^3
#
#
#
# Elastic Constant Matrix: (Units=GPa)
#
#
# Indices 1 2 3 4 5 6 
#
# 1 75.7036 31.5842 20.2915 0.0000 0.0000 0.0000
# 2 31.5842 78.6958 11.9885 0.0000 0.0000 0.0000
# 3 20.2915 11.9885 49.2376 0.0000 0.0000 0.0000
# 4 0.0000 0.0000 0.0000 24.8862 0.0000 0.0000
# 5 0.0000 0.0000 0.0000 0.0000 20.4738 0.0000
# 6 0.0000 0.0000 0.0000 0.0000 0.0000 27.0098
#
#
#
# Elastic Compliance Matrix: (Units=1/GPa)
#
#
# Indices 1 2 3 4 5 6 
#
# 1 0.017249 -0.006065 -0.005632 0.000000 0.000000 0.000000
# 2 -0.006065 0.015329 -0.001233 0.000000 0.000000 0.000000
# 3 -0.005632 -0.001233 0.022931 0.000000 0.000000 0.000000
# 4 0.000000 0.000000 0.000000 0.040183 0.000000 0.000000
# 5 0.000000 0.000000 0.000000 0.000000 0.048843 0.000000
# 6 0.000000 0.000000 0.000000 0.000000 0.000000 0.037024
#
#
# Mechanical properties :
#
#
# Convention : Reuss Voigt Hill
#
# Bulk Modulus (GPa) = 33.72725 36.81839 35.27282
# Shear Modulus (GPa) = 23.00947 23.79214 23.40080
#
# Velocity S-wave (km/s) = 3.53076 3.59031 3.56066
# Velocity P-wave (km/s) = 5.90718 6.09384 6.00123
#
# Compressibility (1/GPa) = 0.02964962
#
# Stress axis : x y z
#
# Youngs Moduli (GPa) = 57.97318 65.23532 43.60931
#
# Poissons Ratio (x) = 0.39565 0.24561
# Poissons Ratio (y) = 0.35161 0.05377
# Poissons Ratio (z) = 0.32650 0.08043
#
# Static dielectric constant tensor:
#      x y z
#    x 3.330040 0.000000 0.000000 
#    y 0.000000 3.739170 0.000000 
#    z 0.000000 0.000000 3.288250 
# 
# 
# High freq. dielectric constant tensor:
#      x y z
#    x 1.716850 0.000000 0.000000 
#    y 0.000000 1.703510 0.000000 
#    z 0.000000 0.000000 1.698820 
# 
# From -- ./inp_files/27731.got.cif
#   From: 2010.03.12/outbox.cif.g09.slc.cpg/sg67_14_cif.got.tgz:27731.got - 2010.04.10 22:41:39.
