data_PCOD8280573
_publ_section_title
;
Structure prediction by ZEFSAII (Michael W. Deem and Ramdas Pophale) SiO2 
 PCOD8280573
Probable space group: C M M A
;
_chemical_formula_sum "Si O2"
_cell_formula_units_Z 96
_cell_length_a 14.733351
_cell_length_b 14.489262
_cell_length_c 22.403353
_cell_angle_alpha 90.000000
_cell_angle_beta 90.000000
_cell_angle_gamma 90.000000
_cell_volume 4782.564357
_symmetry_space_group_name_H-M "C M M A"
_symmetry_group_IT_number 67
_symmetry_cell_setting 'orthorhombic'
loop_
_space_group_symop_operation_xyz
x,y,z
-x,1/2-y,z
x,-y,-z
-x,1/2+y,-z
-x,-y,-z
x,1/2+y,-z
-x,y,z
x,1/2-y,z
1/2+x,1/2+y,z
1/2-x,-y,z
1/2+x,1/2-y,-z
1/2-x,y,-z
1/2-x,1/2-y,-z
1/2+x,y,-z
1/2-x,1/2+y,z
1/2+x,-y,z
loop_
_atom_site_type_symbol
_atom_site_label
_atom_site_fract_x
_atom_site_fract_y
_atom_site_fract_z
Si Si1 0.856784 0.250000 0.933385
Si Si2 0.393947 0.500000 0.429272
Si Si3 0.898420 0.896378 0.838468
Si Si4 0.398420 0.103622 0.161532
Si Si5 0.750000 0.608884 0.252555
Si Si6 0.143216 0.250000 0.066615
Si Si7 0.250000 0.354386 0.613304
O O1 0.890857 0.340253 0.899404
O O2 0.750000 0.250000 0.936092
O O3 0.898268 0.250000 0.000000
O O4 0.390112 0.500000 0.500000
O O5 0.500000 0.500000 0.407448
O O6 0.341302 0.591284 0.406323
O O7 0.341302 0.408716 0.406323
O O8 0.836743 0.857164 0.785263
O O9 0.890857 0.840253 0.899404
O O10 0.000000 0.892028 0.813635
O O11 0.867906 1.000000 0.854401
O O12 0.500000 0.107972 0.186365
O O13 0.336743 0.142836 0.214737
O O14 0.750000 0.500000 0.264378
O O15 0.750000 0.658569 0.315663
O O16 0.250000 0.250000 0.586006
#
# Coordination Sequence:
#
# PCOD8280573 Si02
#       7
#     8  16  16  16  16   8  16
#     4  11  23  39  61  84 115 157 200 251 310 374
#     4  10  23  45  68  95 135 176 217 265 313 367
#     4  10  22  39  60  85 114 153 198 249 307 365
#     4  10  22  39  60  85 114 153 198 249 307 365
#     4  10  20  39  60  86 126 161 196 252 301 367
#     4  11  23  39  61  84 115 157 200 251 310 374
#     4  11  23  39  65  98 132 172 217 263 318 379
#
# _framework density 20.072914000000001
#
# number of rings (size 3 to 8) (size 9 to 14) (size 15 to 20)
#    0.000    1.667    3.333    1.500    2.333    5.333 
#    0.000    5.000    0.000    0.000    0.000    0.000 
#    0.000    0.000    0.000    0.000    0.000    0.000 
#
# Total GULP energy -595129.517992 kJ/mol
# GULP energy per Si atom -12398.531625 kJ/mol
# Density = 2.002723 g / cm^3
# Si number density = 20.072914 Si / 1000 Ang^3
#
#
#
# Elastic Constant Matrix: (Units=GPa)
#
#
# Indices 1 2 3 4 5 6 
#
# 1 153.2798 47.7087 49.5793 0.0000 0.0000 0.0000
# 2 47.7087 130.2736 41.0021 0.0000 0.0000 0.0000
# 3 49.5793 41.0021 130.2199 0.0000 0.0000 0.0000
# 4 0.0000 0.0000 0.0000 17.7116 0.0000 0.0000
# 5 0.0000 0.0000 0.0000 0.0000 -10.7951 0.0000
# 6 0.0000 0.0000 0.0000 0.0000 0.0000 21.5141
#
#
#
# Elastic Compliance Matrix: (Units=1/GPa)
#
#
# Indices 1 2 3 4 5 6 
#
# 1 0.007960 -0.002177 -0.002345 0.000000 0.000000 0.000000
# 2 -0.002177 0.009116 -0.002041 0.000000 0.000000 0.000000
# 3 -0.002345 -0.002041 0.009215 0.000000 0.000000 0.000000
# 4 0.000000 0.000000 0.000000 0.056460 0.000000 0.000000
# 5 0.000000 0.000000 0.000000 0.000000 -0.092635 0.000000
# 6 0.000000 0.000000 0.000000 0.000000 0.000000 0.046481
#
#
# Mechanical properties :
#
#
# Convention : Reuss Voigt Hill
#
# Bulk Modulus (GPa) = 75.96643 76.70593 76.33618
# Shear Modulus (GPa) = 92.39960 24.05169 58.22565
#
# Velocity S-wave (km/s) = 6.79205 3.46528 5.39166
# Velocity P-wave (km/s) = 9.97179 7.36936 8.76767
#
# Compressibility (1/GPa) = 0.01316371
#
# Stress axis : x y z
#
# Youngs Moduli (GPa) = 125.62483 109.69788 108.51843
#
# Poissons Ratio (x) = 0.23882 0.25450
# Poissons Ratio (y) = 0.27349 0.22153
# Poissons Ratio (z) = 0.29462 0.22394
#
# Static dielectric constant tensor:
#      x y z
#    x 3.939430 0.000000 0.000000 
#    y 0.000000 3.696190 0.000000 
#    z 0.000000 0.000000 3.728280 
# 
# 
# High freq. dielectric constant tensor:
#      x y z
#    x 1.794770 0.000000 0.000000 
#    y 0.000000 1.787380 0.000000 
#    z 0.000000 0.000000 1.778130 
# 
# From -- ./inp_files/38531.got.cif
#   From: 2010.03.12/outbox.cif.g09.slc.cpg/sg67_20_cif.got.tgz:38531.got - 2010.04.10 22:41:39.
