data_PCOD8280905
_publ_section_title
;
Structure prediction by ZEFSAII (Michael W. Deem and Ramdas Pophale) SiO2 
 PCOD8280905
Probable space group: C M M A
;
_chemical_formula_sum "Si O2"
_cell_formula_units_Z 112
_cell_length_a 22.127292
_cell_length_b 14.193323
_cell_length_c 16.678604
_cell_angle_alpha 90.000000
_cell_angle_beta 90.000000
_cell_angle_gamma 90.000000
_cell_volume 5238.079078
_symmetry_space_group_name_H-M "C M M A"
_symmetry_group_IT_number 67
_symmetry_cell_setting 'orthorhombic'
loop_
_space_group_symop_operation_xyz
x,y,z
-x,1/2-y,z
x,-y,-z
-x,1/2+y,-z
-x,-y,-z
x,1/2+y,-z
-x,y,z
x,1/2-y,z
1/2+x,1/2+y,z
1/2-x,-y,z
1/2+x,1/2-y,-z
1/2-x,y,-z
1/2-x,1/2-y,-z
1/2+x,y,-z
1/2-x,1/2+y,z
1/2+x,-y,z
loop_
_atom_site_type_symbol
_atom_site_label
_atom_site_fract_x
_atom_site_fract_y
_atom_site_fract_z
Si Si1 0.430759 0.858917 0.659364
Si Si2 0.338031 0.861165 0.209566
Si Si3 0.165984 0.638668 0.460569
Si Si4 0.070237 0.982386 0.195285
Si Si5 0.284827 0.862075 0.376500
Si Si6 0.190044 0.603140 0.963577
Si Si7 0.568572 0.354273 0.045822
O O1 0.500000 0.881452 0.643603
O O2 0.418892 0.750000 0.678958
O O3 0.397603 0.890329 0.577720
O O4 0.404351 0.915777 0.734525
O O5 0.350740 0.750000 0.212863
O O6 0.304111 0.899666 0.289134
O O7 0.298889 0.890500 0.131911
O O8 0.401612 0.914492 0.201453
O O9 0.174824 0.750000 0.465675
O O10 0.218542 0.599957 0.401149
O O11 0.170537 0.599997 0.552026
O O12 0.085747 0.932965 0.110937
O O13 0.000000 0.996225 0.205784
O O14 0.286317 0.750000 0.371982
O O15 0.189914 0.500000 0.000000
O O16 0.250000 0.655520 0.000000
O O17 0.123337 0.647403 0.981264
O O18 0.500000 0.375301 0.010320
O O19 0.566425 0.250000 0.085297
#
# Coordination Sequence:
#
# PCOD8280905 Si02
#       7
#    16  16  16  16  16  16  16
#     4   9  17  31  55  86 117 152 193 238 292 346
#     4  11  23  40  61  85 115 157 200 243 296 358
#     4   8  14  30  56  84 115 152 194 241 287 339
#     4  10  21  38  58  85 121 155 194 250 299 350
#     4   8  16  32  55  83 115 152 195 239 287 342
#     4  11  24  43  64  91 125 159 198 245 306 368
#     4  10  21  39  65  91 116 155 204 252 305 361
#
# _framework density 21.381882999999998
#
# number of rings (size 3 to 8) (size 9 to 14) (size 15 to 20)
#    0.000    2.429    1.429    1.714    0.000    5.143 
#    0.000    2.857    0.000    6.000    0.000    0.000 
#    0.000    0.000    0.000    0.000    0.000    0.000 
#
# Total GULP energy -693843.887855 kJ/mol
# GULP energy per Si atom -12390.069426 kJ/mol
# Density = 2.133322 g / cm^3
# Si number density = 21.381883 Si / 1000 Ang^3
#
#
#
# Elastic Constant Matrix: (Units=GPa)
#
#
# Indices 1 2 3 4 5 6 
#
# 1 110.8771 24.4218 70.2587 0.0000 0.0000 0.0000
# 2 24.4218 64.7211 28.7321 0.0000 0.0000 0.0000
# 3 70.2587 28.7321 175.4308 0.0000 0.0000 0.0000
# 4 0.0000 0.0000 0.0000 16.9440 0.0000 0.0000
# 5 0.0000 0.0000 0.0000 0.0000 34.2152 0.0000
# 6 0.0000 0.0000 0.0000 0.0000 0.0000 8.9560
#
#
#
# Elastic Compliance Matrix: (Units=1/GPa)
#
#
# Indices 1 2 3 4 5 6 
#
# 1 0.012506 -0.002691 -0.004568 0.000000 0.000000 0.000000
# 2 -0.002691 0.017242 -0.001746 0.000000 0.000000 0.000000
# 3 -0.004568 -0.001746 0.007816 0.000000 0.000000 0.000000
# 4 0.000000 0.000000 0.000000 0.059018 0.000000 0.000000
# 5 0.000000 0.000000 0.000000 0.000000 0.029227 0.000000
# 6 0.000000 0.000000 0.000000 0.000000 0.000000 0.111657
#
#
# Mechanical properties :
#
#
# Convention : Reuss Voigt Hill
#
# Bulk Modulus (GPa) = 51.14266 66.42824 58.78545
# Shear Modulus (GPa) = 19.08446 27.19746 23.14096
#
# Velocity S-wave (km/s) = 2.99080 3.57036 3.29336
# Velocity P-wave (km/s) = 5.99142 6.93770 6.48185
#
# Compressibility (1/GPa) = 0.01955315
#
# Stress axis : x y z
#
# Youngs Moduli (GPa) = 79.95985 57.99946 127.94890
#
# Poissons Ratio (x) = 0.15609 0.58446
# Poissons Ratio (y) = 0.21519 0.22340
# Poissons Ratio (z) = 0.36525 0.10127
#
# Static dielectric constant tensor:
#      x y z
#    x 4.082750 0.000000 0.000000 
#    y 0.000000 3.697080 0.000000 
#    z 0.000000 0.000000 4.143620 
# 
# 
# High freq. dielectric constant tensor:
#      x y z
#    x 1.831580 0.000000 0.000000 
#    y 0.000000 1.833510 0.000000 
#    z 0.000000 0.000000 1.838330 
# 
# From -- ./inp_files/30188.got.cif
#   From: 2010.03.12/outbox.cif.g09.slc.cpg/sg67_16_cif.got.tgz:30188.got - 2010.04.10 22:41:39.
