data_PCOD8280862
_publ_section_title
;
Structure prediction by ZEFSAII (Michael W. Deem and Ramdas Pophale) SiO2 
 PCOD8280862
Probable space group: C M M A
;
_chemical_formula_sum "Si O2"
_cell_formula_units_Z 112
_cell_length_a 24.823156
_cell_length_b 18.054199
_cell_length_c 14.030376
_cell_angle_alpha 90.000000
_cell_angle_beta 90.000000
_cell_angle_gamma 90.000000
_cell_volume 6287.884150
_symmetry_space_group_name_H-M "C M M A"
_symmetry_group_IT_number 67
_symmetry_cell_setting 'orthorhombic'
loop_
_space_group_symop_operation_xyz
x,y,z
-x,1/2-y,z
x,-y,-z
-x,1/2+y,-z
-x,-y,-z
x,1/2+y,-z
-x,y,z
x,1/2-y,z
1/2+x,1/2+y,z
1/2-x,-y,z
1/2+x,1/2-y,-z
1/2-x,y,-z
1/2-x,1/2-y,-z
1/2+x,y,-z
1/2-x,1/2+y,z
1/2+x,-y,z
loop_
_atom_site_type_symbol
_atom_site_label
_atom_site_fract_x
_atom_site_fract_y
_atom_site_fract_z
Si Si1 0.346738 0.077416 0.209425
Si Si2 0.688688 0.664544 0.398621
Si Si3 0.247283 0.834441 0.112337
Si Si4 0.845852 0.593196 0.782264
Si Si5 0.561353 0.069270 0.062998
Si Si6 0.061402 0.333959 0.111394
Si Si7 0.186567 0.164185 0.613655
O O1 0.302497 0.117204 0.145848
O O2 0.404494 0.083014 0.158337
O O3 0.348903 0.114979 0.314034
O O4 0.330078 0.992308 0.217510
O O5 0.673233 0.750000 0.392198
O O6 0.651638 0.618588 0.327368
O O7 0.750286 0.652911 0.365192
O O8 0.676726 0.636589 0.505656
O O9 0.237532 0.750000 0.144581
O O10 0.303016 0.861167 0.156703
O O11 0.250000 0.842325 0.000000
O O12 0.904620 0.609108 0.824918
O O13 0.500000 0.053070 0.094718
O O14 0.565532 0.143119 0.999275
O O15 0.583315 0.000000 0.000000
O O16 0.083068 0.250000 0.121252
O O17 0.000000 0.340123 0.146927
O O18 0.170406 0.250000 0.625601
#
# Coordination Sequence:
#
# PCOD8280862 Si02
#       7
#    16  16  16  16  16  16  16
#     4  12  23  33  55  85 110 145 183 233 284 338
#     4   9  18  35  57  77 106 150 188 228 279 335
#     4  11  24  37  50  73 112 154 187 225 276 341
#     4  12  22  34  54  83 114 146 183 229 285 340
#     4  10  21  40  59  79 111 151 190 229 279 329
#     4  10  21  37  59  84 108 143 194 237 268 323
#     4   9  19  36  56  79 109 146 191 232 275 336
#
# _framework density 17.812031999999999
#
# number of rings (size 3 to 8) (size 9 to 14) (size 15 to 20)
#    0.000    1.571    2.857    3.857    0.000    3.429 
#    0.000    1.429    0.000    0.857    0.000    4.000 
#    0.000    0.000    0.000    0.000    0.000    0.000 
#
# Total GULP energy -694507.754882 kJ/mol
# GULP energy per Si atom -12401.924194 kJ/mol
# Density = 1.777149 g / cm^3
# Si number density = 17.812032 Si / 1000 Ang^3
#
#
#
# Elastic Constant Matrix: (Units=GPa)
#
#
# Indices 1 2 3 4 5 6 
#
# 1 75.4245 37.0698 49.6745 0.0000 0.0000 0.0000
# 2 37.0698 114.3647 53.0785 0.0000 0.0000 0.0000
# 3 49.6745 53.0785 112.7534 0.0000 0.0000 0.0000
# 4 0.0000 0.0000 0.0000 28.8200 0.0000 0.0000
# 5 0.0000 0.0000 0.0000 0.0000 22.7204 0.0000
# 6 0.0000 0.0000 0.0000 0.0000 0.0000 25.0215
#
#
#
# Elastic Compliance Matrix: (Units=1/GPa)
#
#
# Indices 1 2 3 4 5 6 
#
# 1 0.019438 -0.002976 -0.007163 0.000000 0.000000 0.000000
# 2 -0.002976 0.011644 -0.004170 0.000000 0.000000 0.000000
# 3 -0.007163 -0.004170 0.013988 0.000000 0.000000 0.000000
# 4 0.000000 0.000000 0.000000 0.034698 0.000000 0.000000
# 5 0.000000 0.000000 0.000000 0.000000 0.044013 0.000000
# 6 0.000000 0.000000 0.000000 0.000000 0.000000 0.039966
#
#
# Mechanical properties :
#
#
# Convention : Reuss Voigt Hill
#
# Bulk Modulus (GPa) = 60.78393 64.68759 62.73576
# Shear Modulus (GPa) = 25.27173 26.16038 25.71606
#
# Velocity S-wave (km/s) = 3.77078 3.83651 3.80379
# Velocity P-wave (km/s) = 7.29093 7.48470 7.38845
#
# Compressibility (1/GPa) = 0.01645172
#
# Stress axis : x y z
#
# Youngs Moduli (GPa) = 51.44448 85.87978 71.49202
#
# Poissons Ratio (x) = 0.25561 0.51207
# Poissons Ratio (y) = 0.15312 0.29814
# Poissons Ratio (z) = 0.36848 0.35814
#
# Static dielectric constant tensor:
#      x y z
#    x 3.113690 0.000000 0.000000 
#    y 0.000000 3.408740 0.000000 
#    z 0.000000 0.000000 3.380950 
# 
# 
# High freq. dielectric constant tensor:
#      x y z
#    x 1.664280 0.000000 0.000000 
#    y 0.000000 1.699360 0.000000 
#    z 0.000000 0.000000 1.690420 
# 
# From -- ./inp_files/30127.got.cif
#   From: 2010.03.12/outbox.cif.g09.slc.cpg/sg67_16_cif.got.tgz:30127.got - 2010.04.10 22:41:39.
