data_PCOD8280072
_publ_section_title
;
Structure prediction by ZEFSAII (Michael W. Deem and Ramdas Pophale) SiO2 
 PCOD8280072
Probable space group: C M M A
;
_chemical_formula_sum "Si O2"
_cell_formula_units_Z 80
_cell_length_a 7.856845
_cell_length_b 19.238195
_cell_length_c 29.237933
_cell_angle_alpha 90.000000
_cell_angle_beta 90.000000
_cell_angle_gamma 90.000000
_cell_volume 4419.357903
_symmetry_space_group_name_H-M "C M M A"
_symmetry_group_IT_number 67
_symmetry_cell_setting 'orthorhombic'
loop_
_space_group_symop_operation_xyz
x,y,z
-x,1/2-y,z
x,-y,-z
-x,1/2+y,-z
-x,-y,-z
x,1/2+y,-z
-x,y,z
x,1/2-y,z
1/2+x,1/2+y,z
1/2-x,-y,z
1/2+x,1/2-y,-z
1/2-x,y,-z
1/2-x,1/2-y,-z
1/2+x,y,-z
1/2-x,1/2+y,z
1/2+x,-y,z
loop_
_atom_site_type_symbol
_atom_site_label
_atom_site_fract_x
_atom_site_fract_y
_atom_site_fract_z
Si Si1 0.811652 0.667471 0.356348
Si Si2 0.698562 0.329191 0.547913
Si Si3 0.198789 0.921440 0.948915
Si Si4 0.190566 0.330243 0.867751
Si Si5 0.500000 0.833081 0.296512
Si Si6 0.500000 0.832498 0.193961
O O1 0.789075 0.750000 0.359095
O O2 0.787131 0.636219 0.407638
O O3 0.668860 0.637883 0.321910
O O4 0.000000 0.646928 0.338428
O O5 0.500000 0.333893 0.556416
O O6 0.763266 0.250000 0.544499
O O7 0.750000 0.366930 0.500000
O O8 0.299483 0.871480 0.915011
O O9 0.000000 0.910915 0.941510
O O10 0.250000 0.000000 0.938056
O O11 0.250000 0.900426 0.000000
O O12 0.228826 0.250000 0.878773
O O13 0.329683 0.359121 0.831744
O O14 0.000000 0.339490 0.847218
O O15 0.500000 0.750000 0.295954
O O16 0.500000 0.863394 0.245132
O O17 0.500000 0.750000 0.196571
#
# Coordination Sequence:
#
# PCOD8280072 Si02
#       6
#    16  16  16  16   8   8
#     4   9  15  22  31  44  63  86 117 161 210 263
#     4   9  14  19  26  37  55  80 111 150 200 259
#     4  11  21  35  54  78 107 135 167 201 240 291
#     4  10  20  35  53  74 101 131 166 204 244 293
#     4   9  16  26  38  52  71  95 131 174 221 271
#     4   9  18  32  48  65  87 119 152 193 243 283
#
# _framework density 18.102177999999999
#
# number of rings (size 3 to 8) (size 9 to 14) (size 15 to 20)
#    0.000    2.400    2.000    3.000    0.000    3.600 
#    0.000    4.000    0.000    0.000    0.000    0.000 
#    0.000    0.000    0.000    0.000    0.000    0.000 
#
# Total GULP energy -495815.567907 kJ/mol
# GULP energy per Si atom -12395.389198 kJ/mol
# Density = 1.806098 g / cm^3
# Si number density = 18.102178 Si / 1000 Ang^3
#
#
#
# Elastic Constant Matrix: (Units=GPa)
#
#
# Indices 1 2 3 4 5 6 
#
# 1 141.9847 15.4486 71.6545 0.0000 0.0000 0.0000
# 2 15.4486 15.5463 28.9897 0.0000 0.0000 0.0000
# 3 71.6545 28.9897 150.6726 0.0000 0.0000 0.0000
# 4 0.0000 0.0000 0.0000 -0.4047 0.0000 0.0000
# 5 0.0000 0.0000 0.0000 0.0000 29.8612 0.0000
# 6 0.0000 0.0000 0.0000 0.0000 0.0000 12.0915
#
#
#
# Elastic Compliance Matrix: (Units=1/GPa)
#
#
# Indices 1 2 3 4 5 6 
#
# 1 0.009291 -0.001549 -0.004120 0.000000 0.000000 0.000000
# 2 -0.001549 0.100573 -0.018614 0.000000 0.000000 0.000000
# 3 -0.004120 -0.018614 0.012178 0.000000 0.000000 0.000000
# 4 0.000000 0.000000 0.000000 -2.470838 0.000000 0.000000
# 5 0.000000 0.000000 0.000000 0.000000 0.033488 0.000000
# 6 0.000000 0.000000 0.000000 0.000000 0.000000 0.082703
#
#
# Mechanical properties :
#
#
# Convention : Reuss Voigt Hill
#
# Bulk Modulus (GPa) = 13.61000 60.04326 36.82663
# Shear Modulus (GPa) = -2.31530 21.11698 9.40084
#
# Velocity S-wave (km/s) = -1.13216 3.41918 2.28133
# Velocity P-wave (km/s) = 2.41365 6.98776 5.22755
#
# Compressibility (1/GPa) = 0.07347541
#
# Stress axis : x y z
#
# Youngs Moduli (GPa) = 107.63123 9.94299 82.11697
#
# Poissons Ratio (x) = 0.01540 0.33835
# Poissons Ratio (y) = 0.16674 1.52851
# Poissons Ratio (z) = 0.44348 0.18508
#
# Static dielectric constant tensor:
#      x y z
#    x 3.558440 0.000000 0.000000 
#    y 0.000000 2.609210 0.000000 
#    z 0.000000 0.000000 3.568110 
# 
# 
# High freq. dielectric constant tensor:
#      x y z
#    x 1.724990 0.000000 0.000000 
#    y 0.000000 1.609390 0.000000 
#    z 0.000000 0.000000 1.707170 
# 
# From -- ./inp_files/43385.got.cif
#   From: 2010.03.12/outbox.cif.g09.slc.cpg/sg67_22_cif.got.tgz:43385.got - 2010.04.10 22:41:39.
