data_PCOD8280156
_publ_section_title
;
Structure prediction by ZEFSAII (Michael W. Deem and Ramdas Pophale) SiO2 
 PCOD8280156
Probable space group: C M M A
;
_chemical_formula_sum "Si O2"
_cell_formula_units_Z 80
_cell_length_a 8.910634
_cell_length_b 19.131420
_cell_length_c 24.833719
_cell_angle_alpha 90.000000
_cell_angle_beta 90.000000
_cell_angle_gamma 90.000000
_cell_volume 4233.480604
_symmetry_space_group_name_H-M "C M M A"
_symmetry_group_IT_number 67
_symmetry_cell_setting 'orthorhombic'
loop_
_space_group_symop_operation_xyz
x,y,z
-x,1/2-y,z
x,-y,-z
-x,1/2+y,-z
-x,-y,-z
x,1/2+y,-z
-x,y,z
x,1/2-y,z
1/2+x,1/2+y,z
1/2-x,-y,z
1/2+x,1/2-y,-z
1/2-x,y,-z
1/2-x,1/2-y,-z
1/2+x,y,-z
1/2-x,1/2+y,z
1/2+x,-y,z
loop_
_atom_site_type_symbol
_atom_site_label
_atom_site_fract_x
_atom_site_fract_y
_atom_site_fract_z
Si Si1 0.176075 0.428310 0.861547
Si Si2 0.175137 0.928551 0.262749
Si Si3 0.827688 0.167547 0.054521
Si Si4 0.322792 0.072837 0.555947
Si Si5 0.174757 0.830262 0.654900
O O1 0.250000 0.500000 0.882003
O O2 0.215817 0.414999 0.799329
O O3 0.244756 0.364446 0.894313
O O4 0.000000 0.432597 0.871690
O O5 0.234859 0.862727 0.295649
O O6 0.000000 0.936754 0.272183
O O7 0.250000 0.000000 0.283789
O O8 0.810874 0.250000 0.059969
O O9 0.000000 0.143742 0.053549
O O10 0.750000 0.140297 0.000000
O O11 0.500000 0.062631 0.548473
O O12 0.250000 0.097746 0.500000
O O13 0.283053 0.131312 0.599611
O O14 0.250000 0.000000 0.574999
O O15 0.222986 0.750000 0.648716
O O16 0.000000 0.838194 0.667951
#
# Coordination Sequence:
#
# PCOD8280156 Si02
#       5
#    16  16  16  16  16
#     4  10  21  37  57  82 111 141 179 226 272 320
#     4  10  21  37  58  82 108 142 182 224 270 321
#     4  10  21  37  57  81 110 145 183 222 268 322
#     4  10  20  35  56  80 106 139 180 223 268 319
#     4  10  22  38  55  79 112 146 180 222 271 321
#
# _framework density 18.896979999999999
#
# number of rings (size 3 to 8) (size 9 to 14) (size 15 to 20)
#    0.000    2.000    0.000    3.600    0.000    8.800 
#    0.000    6.000    0.000    0.000    0.000    0.000 
#    0.000    0.000    0.000    0.000    0.000    0.000 
#
# Total GULP energy -496215.201158 kJ/mol
# GULP energy per Si atom -12405.380029 kJ/mol
# Density = 1.885397 g / cm^3
# Si number density = 18.896980 Si / 1000 Ang^3
#
#
#
# Elastic Constant Matrix: (Units=GPa)
#
#
# Indices 1 2 3 4 5 6 
#
# 1 106.2662 53.9560 63.4213 0.0000 0.0000 0.0000
# 2 53.9560 108.3278 71.7789 0.0000 0.0000 0.0000
# 3 63.4213 71.7789 107.3660 0.0000 0.0000 0.0000
# 4 0.0000 0.0000 0.0000 52.0510 0.0000 0.0000
# 5 0.0000 0.0000 0.0000 0.0000 36.1884 0.0000
# 6 0.0000 0.0000 0.0000 0.0000 0.0000 33.2377
#
#
#
# Elastic Compliance Matrix: (Units=1/GPa)
#
#
# Indices 1 2 3 4 5 6 
#
# 1 0.015017 -0.002876 -0.006948 0.000000 0.000000 0.000000
# 2 -0.002876 0.017123 -0.009749 0.000000 0.000000 0.000000
# 3 -0.006948 -0.009749 0.019936 0.000000 0.000000 0.000000
# 4 0.000000 0.000000 0.000000 0.019212 0.000000 0.000000
# 5 0.000000 0.000000 0.000000 0.000000 0.027633 0.000000
# 6 0.000000 0.000000 0.000000 0.000000 0.000000 0.030086
#
#
# Mechanical properties :
#
#
# Convention : Reuss Voigt Hill
#
# Bulk Modulus (GPa) = 77.33603 77.80807 77.57205
# Shear Modulus (GPa) = 28.99159 33.14902 31.07030
#
# Velocity S-wave (km/s) = 3.92113 4.19286 4.05927
# Velocity P-wave (km/s) = 7.84310 8.04390 7.94413
#
# Compressibility (1/GPa) = 0.01293058
#
# Stress axis : x y z
#
# Youngs Moduli (GPa) = 66.58998 58.39947 50.16127
#
# Poissons Ratio (x) = 0.16796 0.34852
# Poissons Ratio (y) = 0.19151 0.48902
# Poissons Ratio (z) = 0.46267 0.56933
#
# Static dielectric constant tensor:
#      x y z
#    x 3.592270 0.000000 0.000000 
#    y 0.000000 3.416850 0.000000 
#    z 0.000000 0.000000 3.505300 
# 
# 
# High freq. dielectric constant tensor:
#      x y z
#    x 1.747760 0.000000 0.000000 
#    y 0.000000 1.730520 0.000000 
#    z 0.000000 0.000000 1.741500 
# 
# From -- ./inp_files/43209.got.cif
#   From: 2010.03.12/outbox.cif.g09.slc.cpg/sg67_22_cif.got.tgz:43209.got - 2010.04.10 22:41:39.
