data_PCOD8280328
_publ_section_title
;
Structure prediction by ZEFSAII (Michael W. Deem and Ramdas Pophale) SiO2 
 PCOD8280328
Probable space group: C M M A
;
_chemical_formula_sum "Si O2"
_cell_formula_units_Z 88
_cell_length_a 8.676723
_cell_length_b 24.953420
_cell_length_c 21.827548
_cell_angle_alpha 90.000000
_cell_angle_beta 90.000000
_cell_angle_gamma 90.000000
_cell_volume 4725.967834
_symmetry_space_group_name_H-M "C M M A"
_symmetry_group_IT_number 67
_symmetry_cell_setting 'orthorhombic'
loop_
_space_group_symop_operation_xyz
x,y,z
-x,1/2-y,z
x,-y,-z
-x,1/2+y,-z
-x,-y,-z
x,1/2+y,-z
-x,y,z
x,1/2-y,z
1/2+x,1/2+y,z
1/2-x,-y,z
1/2+x,1/2-y,-z
1/2-x,y,-z
1/2-x,1/2-y,-z
1/2+x,y,-z
1/2-x,1/2+y,z
1/2+x,-y,z
loop_
_atom_site_type_symbol
_atom_site_label
_atom_site_fract_x
_atom_site_fract_y
_atom_site_fract_z
Si Si1 0.182680 0.555615 0.654553
Si Si2 0.317097 0.640075 0.563425
Si Si3 0.179135 0.750000 0.933688
Si Si4 0.180989 0.250000 0.739765
Si Si5 0.817245 0.750000 0.606388
Si Si6 0.681928 0.169083 0.831873
Si Si7 0.320350 0.445837 0.794892
O O1 0.250000 0.500000 0.628433
O O2 0.259748 0.604120 0.619158
O O3 0.234173 0.562306 0.725087
O O4 0.000000 0.557227 0.645996
O O5 0.500000 0.640335 0.561478
O O6 0.250000 0.616593 0.500000
O O7 0.253425 0.699333 0.572378
O O8 0.229422 0.696884 0.895980
O O9 0.000000 0.750000 0.944059
O O10 0.250000 0.750000 0.000000
O O11 0.274843 0.250000 0.677410
O O12 0.226221 0.303140 0.776950
O O13 0.000000 0.250000 0.725639
O O14 0.000000 0.750000 0.598863
O O15 0.500000 0.176525 0.819006
O O16 0.729114 0.106457 0.834112
O O17 0.500000 0.453970 0.797295
O O18 0.250000 0.500000 0.823868
#
# Coordination Sequence:
#
# PCOD8280328 Si02
#       7
#    16  16   8   8   8  16  16
#     4  10  20  36  57  82 108 138 172 214 266 322
#     4  12  25  41  58  78 102 133 175 222 269 324
#     4   9  18  32  52  76 106 143 185 224 263 306
#     4  11  21  32  52  83 109 133 169 218 265 311
#     4  12  24  40  58  77 105 140 173 212 266 327
#     4   9  18  34  53  76 108 146 178 212 262 319
#     4   9  18  32  53  78 106 136 169 208 258 313
#
# _framework density 18.620525000000001
#
# number of rings (size 3 to 8) (size 9 to 14) (size 15 to 20)
#    0.000    1.818    0.000    5.727    0.000    4.727 
#    0.000    1.818    0.000    0.545    0.000    3.818 
#    0.000    0.000    0.000    0.000    0.000    0.000 
#
# Total GULP energy -545663.260749 kJ/mol
# GULP energy per Si atom -12401.437744 kJ/mol
# Density = 1.857814 g / cm^3
# Si number density = 18.620525 Si / 1000 Ang^3
#
#
#
# Elastic Constant Matrix: (Units=GPa)
#
#
# Indices 1 2 3 4 5 6 
#
# 1 91.2387 39.3496 27.7215 0.0000 0.0000 0.0000
# 2 39.3496 156.9739 45.5289 0.0000 0.0000 0.0000
# 3 27.7215 45.5289 85.4832 0.0000 0.0000 0.0000
# 4 0.0000 0.0000 0.0000 -10.7060 0.0000 0.0000
# 5 0.0000 0.0000 0.0000 0.0000 28.4114 0.0000
# 6 0.0000 0.0000 0.0000 0.0000 0.0000 34.2318
#
#
#
# Elastic Compliance Matrix: (Units=1/GPa)
#
#
# Indices 1 2 3 4 5 6 
#
# 1 0.012871 -0.002384 -0.002904 0.000000 0.000000 0.000000
# 2 -0.002384 0.007976 -0.003475 0.000000 0.000000 0.000000
# 3 -0.002904 -0.003475 0.014491 0.000000 0.000000 0.000000
# 4 0.000000 0.000000 0.000000 -0.093406 0.000000 0.000000
# 5 0.000000 0.000000 0.000000 0.000000 0.035197 0.000000
# 6 0.000000 0.000000 0.000000 0.000000 0.000000 0.029213
#
#
# Mechanical properties :
#
#
# Convention : Reuss Voigt Hill
#
# Bulk Modulus (GPa) = 56.14410 62.09954 59.12182
# Shear Modulus (GPa) = 167.75671 25.12716 96.44194
#
# Velocity S-wave (km/s) = 9.50200 3.67745 7.20457
# Velocity P-wave (km/s) = 12.27196 7.17314 10.05125
#
# Compressibility (1/GPa) = 0.01781131
#
# Stress axis : x y z
#
# Youngs Moduli (GPa) = 77.69486 125.37618 69.00947
#
# Poissons Ratio (x) = 0.29891 0.20041
# Poissons Ratio (y) = 0.18523 0.23980
# Poissons Ratio (z) = 0.22564 0.43567
#
# Static dielectric constant tensor:
#      x y z
#    x 3.443860 0.000000 0.000000 
#    y 0.000000 3.678570 0.000000 
#    z 0.000000 0.000000 3.853070 
# 
# 
# High freq. dielectric constant tensor:
#      x y z
#    x 1.728100 0.000000 0.000000 
#    y 0.000000 1.734340 0.000000 
#    z 0.000000 0.000000 1.698750 
# 
# From -- ./inp_files/36974.got.cif
#   From: 2010.03.12/outbox.cif.g09.slc.cpg/sg67_19_cif.got.tgz:36974.got - 2010.04.10 22:41:39.
