data_PCOD8280252
_publ_section_title
;
Structure prediction by ZEFSAII (Michael W. Deem and Ramdas Pophale) SiO2 
 PCOD8280252
Probable space group: C M M A
;
_chemical_formula_sum "Si O2"
_cell_formula_units_Z 96
_cell_length_a 28.516175
_cell_length_b 8.647622
_cell_length_c 20.414366
_cell_angle_alpha 90.000000
_cell_angle_beta 90.000000
_cell_angle_gamma 90.000000
_cell_volume 5034.123501
_symmetry_space_group_name_H-M "C M M A"
_symmetry_group_IT_number 67
_symmetry_cell_setting 'orthorhombic'
loop_
_space_group_symop_operation_xyz
x,y,z
-x,1/2-y,z
x,-y,-z
-x,1/2+y,-z
-x,-y,-z
x,1/2+y,-z
-x,y,z
x,1/2-y,z
1/2+x,1/2+y,z
1/2-x,-y,z
1/2+x,1/2-y,-z
1/2-x,y,-z
1/2-x,1/2-y,-z
1/2+x,y,-z
1/2-x,1/2+y,z
1/2+x,-y,z
loop_
_atom_site_type_symbol
_atom_site_label
_atom_site_fract_x
_atom_site_fract_y
_atom_site_fract_z
Si Si1 0.798982 0.069697 0.120415
Si Si2 0.554786 0.428860 0.569818
Si Si3 0.106397 0.431108 0.690722
Si Si4 0.392308 0.431312 0.067619
Si Si5 0.445569 0.929025 0.186700
Si Si6 0.700720 0.068720 0.727115
O O1 0.798571 0.250000 0.106489
O O2 0.807200 0.031890 0.196537
O O3 0.750000 0.000000 0.095840
O O4 0.840314 0.994099 0.079446
O O5 0.567771 0.500000 0.500000
O O6 0.500000 0.446787 0.584913
O O7 0.570108 0.250000 0.572422
O O8 0.582721 0.528243 0.622361
O O9 0.102045 0.250000 0.704979
O O10 0.081339 0.525069 0.748004
O O11 0.160526 0.481581 0.686693
O O12 0.389690 0.250000 0.061477
O O13 0.427787 0.474652 0.125164
O O14 0.412252 0.500000 0.000000
O O15 0.500000 0.963524 0.197736
O O16 0.435326 0.750000 0.172505
O O17 0.699200 0.250000 0.712355
O O18 0.750000 0.000000 0.703016
#
# Coordination Sequence:
#
# PCOD8280252 Si02
#       6
#    16  16  16  16  16  16
#     4  10  20  36  59  85 116 149 188 236 291 349
#     4  10  21  38  60  88 124 163 202 245 294 346
#     4  12  23  36  60  91 123 158 198 240 289 345
#     4  12  25  41  61  83 113 150 192 239 294 354
#     4  11  24  42  62  85 114 149 193 244 295 346
#     4  10  20  35  58  86 120 154 192 240 291 344
#
# _framework density 19.069855
#
# number of rings (size 3 to 8) (size 9 to 14) (size 15 to 20)
#    0.000    1.167    1.667    5.500    0.000    6.333 
#    0.000    1.667    0.000    0.500    0.000    3.500 
#    0.000    0.000    0.000    0.000    0.000    0.000 
#
# Total GULP energy -595545.163909 kJ/mol
# GULP energy per Si atom -12407.190915 kJ/mol
# Density = 1.902645 g / cm^3
# Si number density = 19.069855 Si / 1000 Ang^3
#
#
#
# Elastic Constant Matrix: (Units=GPa)
#
#
# Indices 1 2 3 4 5 6 
#
# 1 97.7995 36.4760 40.1666 0.0000 0.0000 0.0000
# 2 36.4760 92.0216 18.2620 0.0000 0.0000 0.0000
# 3 40.1666 18.2620 86.1052 0.0000 0.0000 0.0000
# 4 0.0000 0.0000 0.0000 33.3313 0.0000 0.0000
# 5 0.0000 0.0000 0.0000 0.0000 23.1417 0.0000
# 6 0.0000 0.0000 0.0000 0.0000 0.0000 31.3777
#
#
#
# Elastic Compliance Matrix: (Units=1/GPa)
#
#
# Indices 1 2 3 4 5 6 
#
# 1 0.014246 -0.004518 -0.005687 0.000000 0.000000 0.000000
# 2 -0.004518 0.012777 -0.000602 0.000000 0.000000 0.000000
# 3 -0.005687 -0.000602 0.014394 0.000000 0.000000 0.000000
# 4 0.000000 0.000000 0.000000 0.030002 0.000000 0.000000
# 5 0.000000 0.000000 0.000000 0.000000 0.043212 0.000000
# 6 0.000000 0.000000 0.000000 0.000000 0.000000 0.031870
#
#
# Mechanical properties :
#
#
# Convention : Reuss Voigt Hill
#
# Bulk Modulus (GPa) = 50.49898 51.74838 51.12368
# Shear Modulus (GPa) = 28.61759 29.63825 29.12792
#
# Velocity S-wave (km/s) = 3.87805 3.94660 3.91248
# Velocity P-wave (km/s) = 6.82575 6.92551 6.87581
#
# Compressibility (1/GPa) = 0.01980238
#
# Stress axis : x y z
#
# Youngs Moduli (GPa) = 70.19567 78.26262 69.47138
#
# Poissons Ratio (x) = 0.35361 0.39510
# Poissons Ratio (y) = 0.31716 0.04184
# Poissons Ratio (z) = 0.39922 0.04714
#
# Static dielectric constant tensor:
#      x y z
#    x 3.589630 0.000000 0.000000 
#    y 0.000000 3.668030 0.000000 
#    z 0.000000 0.000000 3.362050 
# 
# 
# High freq. dielectric constant tensor:
#      x y z
#    x 1.747610 0.000000 0.000000 
#    y 0.000000 1.761340 0.000000 
#    z 0.000000 0.000000 1.727840 
# 
# From -- ./inp_files/37190.got.cif
#   From: 2010.03.12/outbox.cif.g09.slc.cpg/sg67_19_cif.got.tgz:37190.got - 2010.04.10 22:41:39.
