data_PCOD8280287
_publ_section_title
;
Structure prediction by ZEFSAII (Michael W. Deem and Ramdas Pophale) SiO2 
 PCOD8280287
Probable space group: C M M A
;
_chemical_formula_sum "Si O2"
_cell_formula_units_Z 52
_cell_length_a 14.653190
_cell_length_b 28.150041
_cell_length_c 5.324363
_cell_angle_alpha 90.000000
_cell_angle_beta 90.000000
_cell_angle_gamma 90.000000
_cell_volume 2196.235309
_symmetry_space_group_name_H-M "C M M A"
_symmetry_group_IT_number 67
_symmetry_cell_setting 'orthorhombic'
loop_
_space_group_symop_operation_xyz
x,y,z
-x,1/2-y,z
x,-y,-z
-x,1/2+y,-z
-x,-y,-z
x,1/2+y,-z
-x,y,z
x,1/2-y,z
1/2+x,1/2+y,z
1/2-x,-y,z
1/2+x,1/2-y,-z
1/2-x,y,-z
1/2-x,1/2-y,-z
1/2+x,y,-z
1/2-x,1/2+y,z
1/2+x,-y,z
loop_
_atom_site_type_symbol
_atom_site_label
_atom_site_fract_x
_atom_site_fract_y
_atom_site_fract_z
Si Si1 0.641375 0.303831 0.502874
Si Si2 0.900365 0.455327 0.823324
Si Si3 0.642720 0.854134 0.997326
Si Si4 0.250000 0.000000 0.500000
O O1 0.605437 0.250000 0.510986
O O2 0.750000 0.305329 0.500000
O O3 0.602278 0.328673 0.251389
O O4 0.602275 0.331001 0.748406
O O5 0.884690 0.409163 0.993614
O O6 0.814859 0.462389 0.640250
O O7 0.000000 0.451844 0.686166
O O8 0.900880 0.500000 0.000000
O O9 0.750000 0.847360 0.000000
#
# Coordination Sequence:
#
# PCOD8280287 Si02
#       4
#    16  16  16   4
#     4   9  18  33  58  93 130 169 224 278 333 398
#     4  11  26  44  66  99 137 177 226 283 342 414
#     4  10  20  35  62  93 129 177 219 276 337 401
#     4  12  24  44  72  96 130 180 224 280 342 414
#
# _framework density 23.676880000000001
#
# number of rings (size 3 to 8) (size 9 to 14) (size 15 to 20)
#    0.000    1.846    0.000    3.692   10.769    3.692 
#    0.000    0.000    0.000    5.538    0.000    0.000 
#    0.000    0.000    0.000    0.000    0.000    0.000 
#
# Total GULP energy -322288.038387 kJ/mol
# GULP energy per Si atom -12395.693784 kJ/mol
# Density = 2.362299 g / cm^3
# Si number density = 23.676880 Si / 1000 Ang^3
#
#
#
# Elastic Constant Matrix: (Units=GPa)
#
#
# Indices 1 2 3 4 5 6 
#
# 1 108.3001 12.0116 41.1271 0.0000 0.0000 0.0000
# 2 12.0116 216.1659 105.5512 0.0000 0.0000 0.0000
# 3 41.1271 105.5512 193.2665 0.0000 0.0000 0.0000
# 4 0.0000 0.0000 0.0000 39.3540 0.0000 0.0000
# 5 0.0000 0.0000 0.0000 0.0000 -11.8743 0.0000
# 6 0.0000 0.0000 0.0000 0.0000 0.0000 -189.1891
#
#
#
# Elastic Compliance Matrix: (Units=1/GPa)
#
#
# Indices 1 2 3 4 5 6 
#
# 1 0.010115 0.000667 -0.002517 0.000000 0.000000 0.000000
# 2 0.000667 0.006352 -0.003611 0.000000 0.000000 0.000000
# 3 -0.002517 -0.003611 0.007682 0.000000 0.000000 0.000000
# 4 0.000000 0.000000 0.000000 0.025410 0.000000 0.000000
# 5 0.000000 0.000000 0.000000 0.000000 -0.084215 0.000000
# 6 0.000000 0.000000 0.000000 0.000000 0.000000 -0.005286
#
#
# Mechanical properties :
#
#
# Convention : Reuss Voigt Hill
#
# Bulk Modulus (GPa) = 75.60012 92.79026 84.19519
# Shear Modulus (GPa) = -203.17251 -8.40572 -105.78912
#
# Velocity S-wave (km/s) = -9.27345 -1.88624 -6.69159
# Velocity P-wave (km/s) = 9.09193 5.87635 4.90569
#
# Compressibility (1/GPa) = 0.01322749
#
# Stress axis : x y z
#
# Youngs Moduli (GPa) = 98.85940 157.42299 130.17480
#
# Poissons Ratio (x) = -0.10497 0.32761
# Poissons Ratio (y) = -0.06592 0.47008
# Poissons Ratio (z) = 0.24880 0.56848
#
# Static dielectric constant tensor:
#      x y z
#    x 4.633350 0.000000 0.000000 
#    y 0.000000 4.277910 0.000000 
#    z 0.000000 0.000000 4.532950 
# 
# 
# High freq. dielectric constant tensor:
#      x y z
#    x 1.933020 0.000000 0.000000 
#    y 0.000000 1.949850 0.000000 
#    z 0.000000 0.000000 1.931260 
# 
# From -- ./inp_files/1418.got.cif
#   From: 2010.03.12/outbox.cif.g09.slc.cpg/sg67_1_cif.got.tgz:1418.got - 2010.04.10 22:41:39.
