data_PCOD8280308
_publ_section_title
;
Structure prediction by ZEFSAII (Michael W. Deem and Ramdas Pophale) SiO2 
 PCOD8280308
Probable space group: C M M A
;
_chemical_formula_sum "Si O2"
_cell_formula_units_Z 112
_cell_length_a 21.567647
_cell_length_b 14.681297
_cell_length_c 16.683622
_cell_angle_alpha 90.000000
_cell_angle_beta 90.000000
_cell_angle_gamma 90.000000
_cell_volume 5282.719274
_symmetry_space_group_name_H-M "C M M A"
_symmetry_group_IT_number 67
_symmetry_cell_setting 'orthorhombic'
loop_
_space_group_symop_operation_xyz
x,y,z
-x,1/2-y,z
x,-y,-z
-x,1/2+y,-z
-x,-y,-z
x,1/2+y,-z
-x,y,z
x,1/2-y,z
1/2+x,1/2+y,z
1/2-x,-y,z
1/2+x,1/2-y,-z
1/2-x,y,-z
1/2-x,1/2-y,-z
1/2+x,y,-z
1/2-x,1/2+y,z
1/2+x,-y,z
loop_
_atom_site_type_symbol
_atom_site_label
_atom_site_fract_x
_atom_site_fract_y
_atom_site_fract_z
Si Si1 0.770940 0.148421 0.622291
Si Si2 0.070147 0.649510 0.654935
Si Si3 0.341585 0.901700 0.474730
Si Si4 0.072582 0.021288 0.207749
Si Si5 0.928833 0.357224 0.053910
Si Si6 0.660182 0.144286 0.218741
Si Si7 0.690169 0.145405 0.042409
O O1 0.744062 0.250000 0.635114
O O2 0.715861 0.085655 0.587934
O O3 0.824280 0.153906 0.554549
O O4 0.797540 0.112023 0.706636
O O5 0.074760 0.750000 0.693462
O O6 0.103652 0.650096 0.569509
O O7 0.099836 0.577984 0.717016
O O8 0.000000 0.622203 0.637439
O O9 0.365552 0.000000 0.500000
O O10 0.100980 0.920543 0.209884
O O11 0.000000 0.007685 0.215885
O O12 0.088306 0.080736 0.129771
O O13 0.923049 0.250000 0.075823
O O14 0.878150 0.388973 0.987085
O O15 0.000000 0.376954 0.024172
O O16 0.638698 0.250000 0.229469
O O17 0.699242 0.131933 0.137306
O O18 0.691555 0.250000 0.017554
O O19 0.750000 0.097139 0.000000
#
# Coordination Sequence:
#
# PCOD8280308 Si02
#       7
#    16  16  16  16  16  16  16
#     4  10  20  36  56  79 110 147 189 231 273 331
#     4  10  21  38  60  86 117 152 190 234 286 340
#     4  11  21  35  58  85 112 143 183 231 282 335
#     4  10  21  37  58  85 116 150 192 242 290 340
#     4   9  18  35  60  86 113 151 198 243 288 345
#     4  10  22  39  58  82 114 152 192 236 290 350
#     4   9  19  37  59  85 119 154 189 238 298 353
#
# _framework density 21.201201999999999
#
# number of rings (size 3 to 8) (size 9 to 14) (size 15 to 20)
#    0.000    2.143    0.000    3.857    0.000    4.571 
#    0.000    9.286    0.000    0.857    0.000    0.000 
#    0.000    0.000    0.000    0.000    0.000    0.000 
#
# Total GULP energy -694081.935963 kJ/mol
# GULP energy per Si atom -12394.320285 kJ/mol
# Density = 2.115295 g / cm^3
# Si number density = 21.201202 Si / 1000 Ang^3
#
#
#
# Elastic Constant Matrix: (Units=GPa)
#
#
# Indices 1 2 3 4 5 6 
#
# 1 96.5824 22.2608 68.5630 0.0000 0.0000 0.0000
# 2 22.2608 74.4680 28.4939 0.0000 0.0000 0.0000
# 3 68.5630 28.4939 150.8481 0.0000 0.0000 0.0000
# 4 0.0000 0.0000 0.0000 21.8584 0.0000 0.0000
# 5 0.0000 0.0000 0.0000 0.0000 33.8857 0.0000
# 6 0.0000 0.0000 0.0000 0.0000 0.0000 9.9380
#
#
#
# Elastic Compliance Matrix: (Units=1/GPa)
#
#
# Indices 1 2 3 4 5 6 
#
# 1 0.015585 -0.002100 -0.006687 0.000000 0.000000 0.000000
# 2 -0.002100 0.014758 -0.001833 0.000000 0.000000 0.000000
# 3 -0.006687 -0.001833 0.010015 0.000000 0.000000 0.000000
# 4 0.000000 0.000000 0.000000 0.045749 0.000000 0.000000
# 5 0.000000 0.000000 0.000000 0.000000 0.029511 0.000000
# 6 0.000000 0.000000 0.000000 0.000000 0.000000 0.100623
#
#
# Mechanical properties :
#
#
# Convention : Reuss Voigt Hill
#
# Bulk Modulus (GPa) = 52.30904 62.28154 57.29529
# Shear Modulus (GPa) = 20.50412 26.64182 23.57297
#
# Velocity S-wave (km/s) = 3.11323 3.54873 3.33809
# Velocity P-wave (km/s) = 6.13589 6.79937 6.47614
#
# Compressibility (1/GPa) = 0.01911715
#
# Stress axis : x y z
#
# Youngs Moduli (GPa) = 64.16485 67.76090 99.85301
#
# Poissons Ratio (x) = 0.14231 0.66770
# Poissons Ratio (y) = 0.13476 0.18303
# Poissons Ratio (z) = 0.42906 0.12421
#
# Static dielectric constant tensor:
#      x y z
#    x 3.756550 0.000000 0.000000 
#    y 0.000000 3.756790 0.000000 
#    z 0.000000 0.000000 3.894090 
# 
# 
# High freq. dielectric constant tensor:
#      x y z
#    x 1.815180 0.000000 0.000000 
#    y 0.000000 1.832670 0.000000 
#    z 0.000000 0.000000 1.832710 
# 
# From -- ./inp_files/30149.got.cif
#   From: 2010.03.12/outbox.cif.g09.slc.cpg/sg67_16_cif.got.tgz:30149.got - 2010.04.10 22:41:39.
