data_PCOD8280114
_publ_section_title
;
Structure prediction by ZEFSAII (Michael W. Deem and Ramdas Pophale) SiO2 
 PCOD8280114
Probable space group: C M M A
;
_chemical_formula_sum "Si O2"
_cell_formula_units_Z 96
_cell_length_a 8.806726
_cell_length_b 19.011231
_cell_length_c 30.672182
_cell_angle_alpha 90.000000
_cell_angle_beta 90.000000
_cell_angle_gamma 90.000000
_cell_volume 5135.342286
_symmetry_space_group_name_H-M "C M M A"
_symmetry_group_IT_number 67
_symmetry_cell_setting 'orthorhombic'
loop_
_space_group_symop_operation_xyz
x,y,z
-x,1/2-y,z
x,-y,-z
-x,1/2+y,-z
-x,-y,-z
x,1/2+y,-z
-x,y,z
x,1/2-y,z
1/2+x,1/2+y,z
1/2-x,-y,z
1/2+x,1/2-y,-z
1/2-x,y,-z
1/2-x,1/2-y,-z
1/2+x,y,-z
1/2-x,1/2+y,z
1/2+x,-y,z
loop_
_atom_site_type_symbol
_atom_site_label
_atom_site_fract_x
_atom_site_fract_y
_atom_site_fract_z
Si Si1 0.824253 0.668232 0.873257
Si Si2 0.678439 0.670362 0.369438
Si Si3 0.822142 0.926687 0.954461
Si Si4 0.180534 0.574379 0.710214
Si Si5 0.820350 0.925115 0.198513
Si Si6 0.171433 0.333741 0.543216
O O1 0.783219 0.750000 0.876524
O O2 0.785968 0.633532 0.919603
O O3 0.719197 0.633589 0.836778
O O4 0.000000 0.656339 0.860796
O O5 0.500000 0.666743 0.375765
O O6 0.735032 0.750000 0.362697
O O7 0.731608 0.628278 0.327027
O O8 0.750740 0.636718 0.412965
O O9 0.000000 0.938439 0.960961
O O10 0.750000 0.000000 0.938273
O O11 0.750000 0.902152 0.000000
O O12 0.250000 0.500000 0.696863
O O13 0.250952 0.600538 0.755672
O O14 0.000000 0.568914 0.714982
O O15 0.000000 0.933738 0.202754
O O16 0.750000 0.000000 0.184438
O O17 0.185463 0.250000 0.542796
O O18 0.250000 0.365202 0.500000
O O19 0.000000 0.360067 0.542948
#
# Coordination Sequence:
#
# PCOD8280114 Si02
#       6
#    16  16  16  16  16  16
#     4  10  22  39  57  80 112 146 178 217 269 321
#     4   9  18  32  50  73 100 131 168 208 253 305
#     4  10  20  35  57  82 108 142 182 223 264 310
#     4  10  20  35  55  77 103 137 173 212 260 312
#     4  11  22  37  58  81 105 137 179 222 263 312
#     4   9  16  26  43  68  98 131 166 206 251 299
#
# _framework density 18.693982999999999
#
# number of rings (size 3 to 8) (size 9 to 14) (size 15 to 20)
#    0.000    2.167    0.000    5.000    0.000    7.333 
#    0.000    1.667    0.000    0.500    0.000    3.500 
#    0.000    0.000    0.000    0.000    0.000    0.000 
#
# Total GULP energy -595287.965853 kJ/mol
# GULP energy per Si atom -12401.832622 kJ/mol
# Density = 1.865143 g / cm^3
# Si number density = 18.693983 Si / 1000 Ang^3
#
#
#
# Elastic Constant Matrix: (Units=GPa)
#
#
# Indices 1 2 3 4 5 6 
#
# 1 101.3984 44.3111 69.6334 0.0000 0.0000 0.0000
# 2 44.3111 89.4268 81.7760 0.0000 0.0000 0.0000
# 3 69.6334 81.7760 156.6636 0.0000 0.0000 0.0000
# 4 0.0000 0.0000 0.0000 28.5234 0.0000 0.0000
# 5 0.0000 0.0000 0.0000 0.0000 36.6871 0.0000
# 6 0.0000 0.0000 0.0000 0.0000 0.0000 21.6905
#
#
#
# Elastic Compliance Matrix: (Units=1/GPa)
#
#
# Indices 1 2 3 4 5 6 
#
# 1 0.014474 -0.002466 -0.005146 0.000000 0.000000 0.000000
# 2 -0.002466 0.021815 -0.010291 0.000000 0.000000 0.000000
# 3 -0.005146 -0.010291 0.014042 0.000000 0.000000 0.000000
# 4 0.000000 0.000000 0.000000 0.035059 0.000000 0.000000
# 5 0.000000 0.000000 0.000000 0.000000 0.027258 0.000000
# 6 0.000000 0.000000 0.000000 0.000000 0.000000 0.046103
#
#
# Mechanical properties :
#
#
# Convention : Reuss Voigt Hill
#
# Bulk Modulus (GPa) = 68.84826 82.10333 75.47579
# Shear Modulus (GPa) = 25.07559 27.49809 26.28684
#
# Velocity S-wave (km/s) = 3.66645 3.83947 3.75396
# Velocity P-wave (km/s) = 7.40492 7.97937 7.69751
#
# Compressibility (1/GPa) = 0.01452469
#
# Stress axis : x y z
#
# Youngs Moduli (GPa) = 69.09114 45.84077 71.21471
#
# Poissons Ratio (x) = 0.11304 0.36647
# Poissons Ratio (y) = 0.17038 0.73286
# Poissons Ratio (z) = 0.35554 0.47174
#
# Static dielectric constant tensor:
#      x y z
#    x 3.477050 0.000000 0.000000 
#    y 0.000000 3.217630 0.000000 
#    z 0.000000 0.000000 3.614250 
# 
# 
# High freq. dielectric constant tensor:
#      x y z
#    x 1.734290 0.000000 0.000000 
#    y 0.000000 1.698080 0.000000 
#    z 0.000000 0.000000 1.741180 
# 
# From -- ./inp_files/43458.got.cif
#   From: 2010.03.12/outbox.cif.g09.slc.cpg/sg67_22_cif.got.tgz:43458.got - 2010.04.10 22:41:39.
