data_PCOD8280040
_publ_section_title
;
Structure prediction by ZEFSAII (Michael W. Deem and Ramdas Pophale) SiO2 
 PCOD8280040
Probable space group: C M M A
;
_chemical_formula_sum "Si O2"
_cell_formula_units_Z 88
_cell_length_a 15.492397
_cell_length_b 20.532174
_cell_length_c 12.825245
_cell_angle_alpha 90.000000
_cell_angle_beta 90.000000
_cell_angle_gamma 90.000000
_cell_volume 4079.615411
_symmetry_space_group_name_H-M "C M M A"
_symmetry_group_IT_number 67
_symmetry_cell_setting 'orthorhombic'
loop_
_space_group_symop_operation_xyz
x,y,z
-x,1/2-y,z
x,-y,-z
-x,1/2+y,-z
-x,-y,-z
x,1/2+y,-z
-x,y,z
x,1/2-y,z
1/2+x,1/2+y,z
1/2-x,-y,z
1/2+x,1/2-y,-z
1/2-x,y,-z
1/2-x,1/2-y,-z
1/2+x,y,-z
1/2-x,1/2+y,z
1/2+x,-y,z
loop_
_atom_site_type_symbol
_atom_site_label
_atom_site_fract_x
_atom_site_fract_y
_atom_site_fract_z
Si Si1 0.632934 0.322960 0.586821
Si Si2 0.397335 0.321990 0.943759
Si Si3 0.597603 0.325826 0.174155
Si Si4 0.250000 0.500000 0.680533
Si Si5 0.903099 0.581367 0.764829
Si Si6 0.684291 0.368497 0.377452
O O1 0.594817 0.250000 0.597826
O O2 0.585433 0.371563 0.665233
O O3 0.616656 0.349085 0.468146
O O4 0.734530 0.320484 0.612152
O O5 0.500000 0.318788 0.950398
O O6 0.362840 0.250000 0.910474
O O7 0.367351 0.375796 0.861367
O O8 0.361728 0.339528 0.059578
O O9 0.500000 0.350985 0.176914
O O10 0.602598 0.250000 0.201760
O O11 0.648271 0.365661 0.261095
O O12 0.168199 0.525076 0.749596
O O13 0.283397 0.557529 0.605858
O O14 0.000000 0.552744 0.786835
#
# Coordination Sequence:
#
# PCOD8280040 Si02
#       6
#    16  16  16   8  16  16
#     4  10  20  34  57  85 110 142 181 231 299 352
#     4   8  15  31  56  84 113 143 176 225 293 354
#     4   9  17  31  55  84 111 143 183 231 291 350
#     4  10  24  41  57  80 112 156 207 235 266 332
#     4  10  21  38  59  83 114 150 189 235 283 334
#     4  10  20  36  53  75 113 154 191 236 280 330
#
# _framework density 21.57066
#
# number of rings (size 3 to 8) (size 9 to 14) (size 15 to 20)
#    0.000    2.545    0.000    3.818    0.000    8.364 
#    0.000    6.364    0.000   13.091    0.000    0.000 
#    0.000    0.000    0.000    0.000    0.000    0.000 
#
# Total GULP energy -545332.219434 kJ/mol
# GULP energy per Si atom -12393.914078 kJ/mol
# Density = 2.152156 g / cm^3
# Si number density = 21.570660 Si / 1000 Ang^3
#
#
#
# Elastic Constant Matrix: (Units=GPa)
#
#
# Indices 1 2 3 4 5 6 
#
# 1 65.7170 32.1113 27.6779 0.0000 0.0000 0.0000
# 2 32.1113 99.2495 34.4192 0.0000 0.0000 0.0000
# 3 27.6779 34.4192 122.1029 0.0000 0.0000 0.0000
# 4 0.0000 0.0000 0.0000 13.6774 0.0000 0.0000
# 5 0.0000 0.0000 0.0000 0.0000 28.6636 0.0000
# 6 0.0000 0.0000 0.0000 0.0000 0.0000 22.0875
#
#
#
# Elastic Compliance Matrix: (Units=1/GPa)
#
#
# Indices 1 2 3 4 5 6 
#
# 1 0.018924 -0.005137 -0.002841 0.000000 0.000000 0.000000
# 2 -0.005137 0.012562 -0.002377 0.000000 0.000000 0.000000
# 3 -0.002841 -0.002377 0.009504 0.000000 0.000000 0.000000
# 4 0.000000 0.000000 0.000000 0.073113 0.000000 0.000000
# 5 0.000000 0.000000 0.000000 0.000000 0.034887 0.000000
# 6 0.000000 0.000000 0.000000 0.000000 0.000000 0.045274
#
#
# Mechanical properties :
#
#
# Convention : Reuss Voigt Hill
#
# Bulk Modulus (GPa) = 49.31210 52.83181 51.07196
# Shear Modulus (GPa) = 22.54947 25.74310 24.14629
#
# Velocity S-wave (km/s) = 3.23674 3.45836 3.34938
# Velocity P-wave (km/s) = 6.07281 6.36338 6.21979
#
# Compressibility (1/GPa) = 0.02027900
#
# Stress axis : x y z
#
# Youngs Moduli (GPa) = 52.84388 79.60595 105.22081
#
# Poissons Ratio (x) = 0.40895 0.29898
# Poissons Ratio (y) = 0.27147 0.25006
# Poissons Ratio (z) = 0.15015 0.18919
#
# Static dielectric constant tensor:
#      x y z
#    x 3.682040 0.000000 0.000000 
#    y 0.000000 3.706600 0.000000 
#    z 0.000000 0.000000 4.090160 
# 
# 
# High freq. dielectric constant tensor:
#      x y z
#    x 1.826790 0.000000 0.000000 
#    y 0.000000 1.829050 0.000000 
#    z 0.000000 0.000000 1.852660 
# 
# From -- ./inp_files/19456.got.cif
#   From: 2010.03.12/outbox.cif.g09.slc.cpg/sg67_10_cif.got.tgz:19456.got - 2010.04.10 22:41:39.
