data_PCOD8280539
_publ_section_title
;
Structure prediction by ZEFSAII (Michael W. Deem and Ramdas Pophale) SiO2 
 PCOD8280539
Probable space group: C M M A
;
_chemical_formula_sum "Si O2"
_cell_formula_units_Z 96
_cell_length_a 19.035659
_cell_length_b 18.053549
_cell_length_c 14.806306
_cell_angle_alpha 90.000000
_cell_angle_beta 90.000000
_cell_angle_gamma 90.000000
_cell_volume 5088.352925
_symmetry_space_group_name_H-M "C M M A"
_symmetry_group_IT_number 67
_symmetry_cell_setting 'orthorhombic'
loop_
_space_group_symop_operation_xyz
x,y,z
-x,1/2-y,z
x,-y,-z
-x,1/2+y,-z
-x,-y,-z
x,1/2+y,-z
-x,y,z
x,1/2-y,z
1/2+x,1/2+y,z
1/2-x,-y,z
1/2+x,1/2-y,-z
1/2-x,y,-z
1/2-x,1/2-y,-z
1/2+x,y,-z
1/2-x,1/2+y,z
1/2+x,-y,z
loop_
_atom_site_type_symbol
_atom_site_label
_atom_site_fract_x
_atom_site_fract_y
_atom_site_fract_z
Si Si1 0.678341 0.089973 0.741362
Si Si2 0.419753 0.165355 0.391580
Si Si3 0.422979 0.337225 0.880539
Si Si4 0.660408 0.581106 0.762795
Si Si5 0.582400 0.834895 0.917125
Si Si6 0.319236 0.834800 0.446660
O O1 0.633233 0.140271 0.807073
O O2 0.758721 0.104167 0.766838
O O3 0.666314 0.112856 0.638060
O O4 0.653019 0.006621 0.755201
O O5 0.500000 0.137984 0.395057
O O6 0.415175 0.250000 0.357729
O O7 0.375839 0.115678 0.324071
O O8 0.387573 0.157632 0.491018
O O9 0.500000 0.370881 0.856965
O O10 0.429410 0.250000 0.881315
O O11 0.400439 0.362048 0.981289
O O12 0.624015 0.609504 0.853198
O O13 0.500000 0.841510 0.896171
O O14 0.606898 0.750000 0.901026
O O15 0.308016 0.750000 0.414485
O O16 0.250000 0.862196 0.500000
#
# Coordination Sequence:
#
# PCOD8280539 Si02
#       6
#    16  16  16  16  16  16
#     4  11  24  38  55  84 121 156 190 233 290 350
#     4  10  21  38  61  88 113 142 192 251 294 339
#     4   9  20  39  61  85 113 150 197 245 291 342
#     4  11  23  37  54  85 120 155 190 231 291 349
#     4   9  19  38  63  87 113 149 195 246 294 340
#     4  10  20  38  62  83 109 151 196 238 288 348
#
# _framework density 18.866616
#
# number of rings (size 3 to 8) (size 9 to 14) (size 15 to 20)
#    0.000    2.000    1.667    2.500    0.000    7.333 
#    0.000    7.500    0.000    0.000    0.000    0.000 
#    0.000    0.000    0.000    0.000    0.000    0.000 
#
# Total GULP energy -595298.548837 kJ/mol
# GULP energy per Si atom -12402.053101 kJ/mol
# Density = 1.882367 g / cm^3
# Si number density = 18.866616 Si / 1000 Ang^3
#
#
#
# Elastic Constant Matrix: (Units=GPa)
#
#
# Indices 1 2 3 4 5 6 
#
# 1 87.2506 52.2800 58.8293 0.0000 0.0000 0.0000
# 2 52.2800 48.5675 51.4143 0.0000 0.0000 0.0000
# 3 58.8293 51.4143 131.0780 0.0000 0.0000 0.0000
# 4 0.0000 0.0000 0.0000 -243.3725 0.0000 0.0000
# 5 0.0000 0.0000 0.0000 0.0000 33.9779 0.0000
# 6 0.0000 0.0000 0.0000 0.0000 0.0000 30.0591
#
#
#
# Elastic Compliance Matrix: (Units=1/GPa)
#
#
# Indices 1 2 3 4 5 6 
#
# 1 0.032451 -0.033369 -0.001475 0.000000 0.000000 0.000000
# 2 -0.033369 0.069525 -0.012294 0.000000 0.000000 0.000000
# 3 -0.001475 -0.012294 0.013113 0.000000 0.000000 0.000000
# 4 0.000000 0.000000 0.000000 -0.004109 0.000000 0.000000
# 5 0.000000 0.000000 0.000000 0.000000 0.029431 0.000000
# 6 0.000000 0.000000 0.000000 0.000000 0.000000 0.033268
#
#
# Mechanical properties :
#
#
# Convention : Reuss Voigt Hill
#
# Bulk Modulus (GPa) = 48.05077 65.77149 56.91113
# Shear Modulus (GPa) = 18.18889 -28.90895 -5.36003
#
# Velocity S-wave (km/s) = 3.10833 -3.91868 -1.68736
# Velocity P-wave (km/s) = 6.19728 3.80292 5.14142
#
# Compressibility (1/GPa) = 0.02081132
#
# Stress axis : x y z
#
# Youngs Moduli (GPa) = 30.81586 14.38341 76.25799
#
# Poissons Ratio (x) = 0.47997 0.11251
# Poissons Ratio (y) = 1.02831 0.93750
# Poissons Ratio (z) = 0.04547 0.17683
#
# Static dielectric constant tensor:
#      x y z
#    x 3.636880 0.000000 0.000000 
#    y 0.000000 3.367020 0.000000 
#    z 0.000000 0.000000 3.534850 
# 
# 
# High freq. dielectric constant tensor:
#      x y z
#    x 1.740710 0.000000 0.000000 
#    y 0.000000 1.724270 0.000000 
#    z 0.000000 0.000000 1.740900 
# 
# From -- ./inp_files/29319.got.cif
#   From: 2010.03.12/outbox.cif.g09.slc.cpg/sg67_15_cif.got.tgz:29319.got - 2010.04.10 22:41:39.
