data_PCOD8280913
_publ_section_title
;
Structure prediction by ZEFSAII (Michael W. Deem and Ramdas Pophale) SiO2 
 PCOD8280913
Probable space group: C M M A
;
_chemical_formula_sum "Si O2"
_cell_formula_units_Z 96
_cell_length_a 17.103995
_cell_length_b 14.237195
_cell_length_c 21.239170
_cell_angle_alpha 90.000000
_cell_angle_beta 90.000000
_cell_angle_gamma 90.000000
_cell_volume 5172.012137
_symmetry_space_group_name_H-M "C M M A"
_symmetry_group_IT_number 67
_symmetry_cell_setting 'orthorhombic'
loop_
_space_group_symop_operation_xyz
x,y,z
-x,1/2-y,z
x,-y,-z
-x,1/2+y,-z
-x,-y,-z
x,1/2+y,-z
-x,y,z
x,1/2-y,z
1/2+x,1/2+y,z
1/2-x,-y,z
1/2+x,1/2-y,-z
1/2-x,y,-z
1/2-x,1/2-y,-z
1/2+x,y,-z
1/2-x,1/2+y,z
1/2+x,-y,z
loop_
_atom_site_type_symbol
_atom_site_label
_atom_site_fract_x
_atom_site_fract_y
_atom_site_fract_z
Si Si1 0.908887 0.000000 0.231026
Si Si2 0.341533 0.500000 0.905672
Si Si3 0.907478 0.356574 0.000000
Si Si4 0.157966 1.000000 0.430638
Si Si5 0.657757 0.642246 0.326635
Si Si6 0.657757 0.142246 0.326635
O O1 0.859964 1.000000 0.167523
O O2 0.887115 0.093652 0.269289
O O3 0.000000 0.000000 0.215119
O O4 0.887116 0.906348 0.269289
O O5 0.250000 0.500000 0.917126
O O6 0.376728 0.593165 0.937242
O O7 0.376728 0.406835 0.937242
O O8 0.876840 0.250000 0.000000
O O9 0.000000 0.361398 1.000000
O O10 0.132379 0.907239 0.392035
O O11 0.118086 0.000000 0.500000
O O12 0.250000 0.000000 0.439302
O O13 0.132379 0.092761 0.392035
O O14 0.631989 0.750000 0.330381
O O15 0.750000 0.630297 0.315186
O O16 0.631989 0.250000 0.330381
#
# Coordination Sequence:
#
# PCOD8280913 Si02
#       6
#    16  16  16  16  16  16
#     4  11  22  36  54  75 103 137 175 218 262 310
#     4  11  22  37  58  81 108 140 175 216 259 306
#     4  10  21  38  59  83 112 142 173 211 254 303
#     4   8  14  26  47  77 108 134 165 209 261 313
#     4   9  18  33  52  75 104 136 172 215 261 310
#     4   9  18  33  52  75 104 136 172 215 261 310
#
# _framework density 18.561440999999999
#
# number of rings (size 3 to 8) (size 9 to 14) (size 15 to 20)
#    0.000    2.333    0.000    5.500    0.000    4.000 
#    0.000    3.333    0.000    8.000    0.000    9.333 
#    0.000    0.000    0.000    0.000    0.000    0.000 
#
# Total GULP energy -595219.148042 kJ/mol
# GULP energy per Si atom -12400.398918 kJ/mol
# Density = 1.851919 g / cm^3
# Si number density = 18.561441 Si / 1000 Ang^3
#
#
#
# Elastic Constant Matrix: (Units=GPa)
#
#
# Indices 1 2 3 4 5 6 
#
# 1 59.7646 30.9284 15.1223 0.0000 0.0000 0.0000
# 2 30.9284 179.9807 65.1575 0.0000 0.0000 0.0000
# 3 15.1223 65.1575 141.5392 0.0000 0.0000 0.0000
# 4 0.0000 0.0000 0.0000 29.6946 0.0000 0.0000
# 5 0.0000 0.0000 0.0000 0.0000 -5.6319 0.0000
# 6 0.0000 0.0000 0.0000 0.0000 0.0000 19.4862
#
#
#
# Elastic Compliance Matrix: (Units=1/GPa)
#
#
# Indices 1 2 3 4 5 6 
#
# 1 0.018410 -0.002942 -0.000613 0.000000 0.000000 0.000000
# 2 -0.002942 0.007137 -0.002971 0.000000 0.000000 0.000000
# 3 -0.000613 -0.002971 0.008499 0.000000 0.000000 0.000000
# 4 0.000000 0.000000 0.000000 0.033676 0.000000 0.000000
# 5 0.000000 0.000000 0.000000 0.000000 -0.177561 0.000000
# 6 0.000000 0.000000 0.000000 0.000000 0.000000 0.051318
#
#
# Mechanical properties :
#
#
# Convention : Reuss Voigt Hill
#
# Bulk Modulus (GPa) = 47.63281 67.07787 57.35534
# Shear Modulus (GPa) = -129.96720 26.71487 -51.62616
#
# Velocity S-wave (km/s) = -8.37687 3.79788 -5.27959
# Velocity P-wave (km/s) = 8.23679 7.44638 2.48959
#
# Compressibility (1/GPa) = 0.02099393
#
# Stress axis : x y z
#
# Youngs Moduli (GPa) = 54.31915 140.10718 117.66757
#
# Poissons Ratio (x) = 0.41216 0.07209
# Poissons Ratio (y) = 0.15979 0.34964
# Poissons Ratio (z) = 0.03328 0.41631
#
# Static dielectric constant tensor:
#      x y z
#    x 3.231730 0.000000 0.000000 
#    y 0.000000 3.593320 0.000000 
#    z 0.000000 0.000000 3.557860 
# 
# 
# High freq. dielectric constant tensor:
#      x y z
#    x 1.706680 0.000000 0.000000 
#    y 0.000000 1.724440 0.000000 
#    z 0.000000 0.000000 1.725230 
# 
# From -- ./inp_files/38469.got.cif
#   From: 2010.03.12/outbox.cif.g09.slc.cpg/sg67_20_cif.got.tgz:38469.got - 2010.04.10 22:41:39.
