data_PCOD8280565
_publ_section_title
;
Structure prediction by ZEFSAII (Michael W. Deem and Ramdas Pophale) SiO2 
 PCOD8280565
Probable space group: C M M A
;
_chemical_formula_sum "Si O2"
_cell_formula_units_Z 64
_cell_length_a 15.085011
_cell_length_b 9.639108
_cell_length_c 22.191979
_cell_angle_alpha 90.000000
_cell_angle_beta 90.000000
_cell_angle_gamma 90.000000
_cell_volume 3226.848013
_symmetry_space_group_name_H-M "C M M A"
_symmetry_group_IT_number 67
_symmetry_cell_setting 'orthorhombic'
loop_
_space_group_symop_operation_xyz
x,y,z
-x,1/2-y,z
x,-y,-z
-x,1/2+y,-z
-x,-y,-z
x,1/2+y,-z
-x,y,z
x,1/2-y,z
1/2+x,1/2+y,z
1/2-x,-y,z
1/2+x,1/2-y,-z
1/2-x,y,-z
1/2-x,1/2-y,-z
1/2+x,y,-z
1/2-x,1/2+y,z
1/2+x,-y,z
loop_
_atom_site_type_symbol
_atom_site_label
_atom_site_fract_x
_atom_site_fract_y
_atom_site_fract_z
Si Si1 0.000000 0.091720 0.353703
Si Si2 0.500000 0.406210 0.236847
Si Si3 0.650961 0.981639 0.854690
Si Si4 0.400374 0.750000 0.077473
Si Si5 0.835714 0.082437 0.439133
Si Si6 0.893140 0.750000 0.055654
O O1 0.913510 0.057443 0.392226
O O2 0.000000 0.250000 0.332961
O O3 0.000000 0.004419 0.293638
O O4 0.500000 0.250000 0.260845
O O5 0.411462 0.429000 0.198429
O O6 0.617369 0.124804 0.879147
O O7 0.750000 0.000000 0.828779
O O8 0.649383 0.881216 0.911819
O O9 0.500000 0.750000 0.055433
O O10 0.352867 0.750000 0.012228
O O11 0.819848 0.250000 0.449714
O O12 0.861834 0.000000 0.500000
O O13 0.750000 0.000000 0.413223
O O14 0.000000 0.750000 0.062424
#
# Coordination Sequence:
#
# PCOD8280565 Si02
#       6
#     8   8  16   8  16   8
#     4  10  25  43  65  91 127 169 218 261 301 363
#     4  12  26  47  62  84 122 165 211 260 309 363
#     4  12  24  41  63  89 119 157 203 252 312 376
#     4  11  23  37  67  94 117 159 190 251 318 378
#     4  10  20  38  65 101 138 171 208 255 307 360
#     4  11  21  43  63  88 129 151 194 249 314 386
#
# _framework density 19.833596
#
# number of rings (size 3 to 8) (size 9 to 14) (size 15 to 20)
#    0.000    1.000    3.750    3.375    1.750    8.000 
#    0.000    2.500    0.000    0.000    0.000    0.000 
#    0.000    0.000    0.000    0.000    0.000    0.000 
#
# Total GULP energy -396635.620771 kJ/mol
# GULP energy per Si atom -12394.863149 kJ/mol
# Density = 1.978845 g / cm^3
# Si number density = 19.833596 Si / 1000 Ang^3
#
#
#
# Elastic Constant Matrix: (Units=GPa)
#
#
# Indices 1 2 3 4 5 6 
#
# 1 115.2172 24.9135 48.5666 0.0000 0.0000 0.0000
# 2 24.9135 145.2174 48.3689 0.0000 0.0000 0.0000
# 3 48.5666 48.3689 100.6371 0.0000 0.0000 0.0000
# 4 0.0000 0.0000 0.0000 42.5945 0.0000 0.0000
# 5 0.0000 0.0000 0.0000 0.0000 1.1315 0.0000
# 6 0.0000 0.0000 0.0000 0.0000 0.0000 -138.0200
#
#
#
# Elastic Compliance Matrix: (Units=1/GPa)
#
#
# Indices 1 2 3 4 5 6 
#
# 1 0.010898 -0.000140 -0.005192 0.000000 0.000000 0.000000
# 2 -0.000140 0.008201 -0.003874 0.000000 0.000000 0.000000
# 3 -0.005192 -0.003874 0.014304 0.000000 0.000000 0.000000
# 4 0.000000 0.000000 0.000000 0.023477 0.000000 0.000000
# 5 0.000000 0.000000 0.000000 0.000000 0.883821 0.000000
# 6 0.000000 0.000000 0.000000 0.000000 0.000000 -0.007245
#
#
# Mechanical properties :
#
#
# Convention : Reuss Voigt Hill
#
# Bulk Modulus (GPa) = 66.70724 67.19664 66.95194
# Shear Modulus (GPa) = 5.22540 -2.91062 1.15739
#
# Velocity S-wave (km/s) = 1.62491 -1.21273 0.76473
# Velocity P-wave (km/s) = 6.10139 5.65622 5.88302
#
# Compressibility (1/GPa) = 0.01499088
#
# Stress axis : x y z
#
# Youngs Moduli (GPa) = 91.75917 121.94307 69.91042
#
# Poissons Ratio (x) = 0.01712 0.36296
# Poissons Ratio (y) = 0.01288 0.27081
# Poissons Ratio (z) = 0.47640 0.47237
#
# Static dielectric constant tensor:
#      x y z
#    x 4.107580 0.000000 0.000000 
#    y 0.000000 3.824940 0.000000 
#    z 0.000000 0.000000 3.463220 
# 
# 
# High freq. dielectric constant tensor:
#      x y z
#    x 1.785890 0.000000 0.000000 
#    y 0.000000 1.795540 0.000000 
#    z 0.000000 0.000000 1.761540 
# 
# From -- ./inp_files/40459.got.cif
#   From: 2010.03.12/outbox.cif.g09.slc.cpg/sg67_21_cif.got.tgz:40459.got - 2010.04.10 22:41:39.
