data_PCOD8280316
_publ_section_title
;
Structure prediction by ZEFSAII (Michael W. Deem and Ramdas Pophale) SiO2 
 PCOD8280316
Probable space group: C M M A
;
_chemical_formula_sum "Si O2"
_cell_formula_units_Z 56
_cell_length_a 8.741377
_cell_length_b 26.166678
_cell_length_c 13.443246
_cell_angle_alpha 90.000000
_cell_angle_beta 90.000000
_cell_angle_gamma 90.000000
_cell_volume 3074.911262
_symmetry_space_group_name_H-M "C M M A"
_symmetry_group_IT_number 67
_symmetry_cell_setting 'orthorhombic'
loop_
_space_group_symop_operation_xyz
x,y,z
-x,1/2-y,z
x,-y,-z
-x,1/2+y,-z
-x,-y,-z
x,1/2+y,-z
-x,y,z
x,1/2-y,z
1/2+x,1/2+y,z
1/2-x,-y,z
1/2+x,1/2-y,-z
1/2-x,y,-z
1/2-x,1/2-y,-z
1/2+x,y,-z
1/2-x,1/2+y,z
1/2+x,-y,z
loop_
_atom_site_type_symbol
_atom_site_label
_atom_site_fract_x
_atom_site_fract_y
_atom_site_fract_z
Si Si1 0.172382 0.447498 0.707309
Si Si2 0.319196 0.250000 0.391347
Si Si3 0.327715 0.609236 0.896183
Si Si4 0.819816 0.845797 0.718360
O O1 0.250000 0.500000 0.673801
O O2 0.170664 0.442243 0.828225
O O3 0.267478 0.398891 0.664282
O O4 0.000000 0.446151 0.664879
O O5 0.500000 0.250000 0.399265
O O6 0.250000 0.250000 0.500000
O O7 0.265165 0.299707 0.333550
O O8 0.500000 0.629135 0.914241
O O9 0.232893 0.652463 0.834702
O O10 0.250000 0.596251 0.000000
O O11 0.000000 0.838384 0.710041
#
# Coordination Sequence:
#
# PCOD8280316 Si02
#       4
#    16   8  16  16
#     4   9  18  31  50  77 111 150 189 228 270 316
#     4  12  24  42  65  88 109 134 176 224 276 330
#     4   9  18  31  49  76 111 150 190 228 269 316
#     4  10  20  36  56  81 112 144 182 226 274 323
#
# _framework density 18.211908999999999
#
# number of rings (size 3 to 8) (size 9 to 14) (size 15 to 20)
#    1.714    0.571    0.000    4.714    0.000    0.571 
#    0.000    3.571    0.000    0.857    0.000    6.000 
#    0.000    0.000    0.000    0.000    0.000    0.000 
#
# Total GULP energy -346867.696352 kJ/mol
# GULP energy per Si atom -12388.132013 kJ/mol
# Density = 1.817046 g / cm^3
# Si number density = 18.211909 Si / 1000 Ang^3
#
#
#
# Elastic Constant Matrix: (Units=GPa)
#
#
# Indices 1 2 3 4 5 6 
#
# 1 168.1116 47.4470 11.2061 0.0000 0.0000 0.0000
# 2 47.4470 123.7230 16.3569 0.0000 0.0000 0.0000
# 3 11.2061 16.3569 7.5931 0.0000 0.0000 0.0000
# 4 0.0000 0.0000 0.0000 29.8815 0.0000 0.0000
# 5 0.0000 0.0000 0.0000 0.0000 26.9123 0.0000
# 6 0.0000 0.0000 0.0000 0.0000 0.0000 36.3817
#
#
#
# Elastic Compliance Matrix: (Units=1/GPa)
#
#
# Indices 1 2 3 4 5 6 
#
# 1 0.006876 -0.001811 -0.006246 0.000000 0.000000 0.000000
# 2 -0.001811 0.011778 -0.022699 0.000000 0.000000 0.000000
# 3 -0.006246 -0.022699 0.189815 0.000000 0.000000 0.000000
# 4 0.000000 0.000000 0.000000 0.033465 0.000000 0.000000
# 5 0.000000 0.000000 0.000000 0.000000 0.037158 0.000000
# 6 0.000000 0.000000 0.000000 0.000000 0.000000 0.027486
#
#
# Mechanical properties :
#
#
# Convention : Reuss Voigt Hill
#
# Bulk Modulus (GPa) = 6.80475 49.93863 28.37169
# Shear Modulus (GPa) = 11.98817 33.59630 22.79224
#
# Velocity S-wave (km/s) = 2.56844 4.29971 3.54149
# Velocity P-wave (km/s) = 3.54124 7.22014 5.68642
#
# Compressibility (1/GPa) = 0.14695616
#
# Stress axis : x y z
#
# Youngs Moduli (GPa) = 145.43448 84.90332 5.26827
#
# Poissons Ratio (x) = 0.15377 0.03291
# Poissons Ratio (y) = 0.26340 0.11959
# Poissons Ratio (z) = 0.90842 1.92725
#
# Static dielectric constant tensor:
#      x y z
#    x 3.490970 0.000000 0.000000 
#    y 0.000000 3.114960 0.000000 
#    z 0.000000 0.000000 2.976950 
# 
# 
# High freq. dielectric constant tensor:
#      x y z
#    x 1.729580 0.000000 0.000000 
#    y 0.000000 1.689150 0.000000 
#    z 0.000000 0.000000 1.672100 
# 
# From -- ./inp_files/15721.got.cif
#   From: 2010.03.12/outbox.cif.g09.slc.cpg/sg67_8_cif.got.tgz:15721.got - 2010.04.10 22:41:39.
