data_PCOD8280640
_publ_section_title
;
Structure prediction by ZEFSAII (Michael W. Deem and Ramdas Pophale) SiO2 
 PCOD8280640
Probable space group: C M M A
;
_chemical_formula_sum "Si O2"
_cell_formula_units_Z 96
_cell_length_a 17.466301
_cell_length_b 14.260347
_cell_length_c 21.334498
_cell_angle_alpha 90.000000
_cell_angle_beta 90.000000
_cell_angle_gamma 90.000000
_cell_volume 5313.901035
_symmetry_space_group_name_H-M "C M M A"
_symmetry_group_IT_number 67
_symmetry_cell_setting 'orthorhombic'
loop_
_space_group_symop_operation_xyz
x,y,z
-x,1/2-y,z
x,-y,-z
-x,1/2+y,-z
-x,-y,-z
x,1/2+y,-z
-x,y,z
x,1/2-y,z
1/2+x,1/2+y,z
1/2-x,-y,z
1/2+x,1/2-y,-z
1/2-x,y,-z
1/2-x,1/2-y,-z
1/2+x,y,-z
1/2-x,1/2+y,z
1/2+x,-y,z
loop_
_atom_site_type_symbol
_atom_site_label
_atom_site_fract_x
_atom_site_fract_y
_atom_site_fract_z
Si Si1 0.159306 0.356031 0.828524
Si Si2 0.090572 0.999992 0.593095
Si Si3 0.659224 0.643970 0.171462
Si Si4 0.409960 0.999986 0.737357
Si Si5 0.659372 0.141694 0.499992
Si Si6 0.159454 0.000007 0.930646
O O1 0.129058 0.250000 0.831599
O O2 0.250042 0.360910 0.821356
O O3 0.123460 0.406267 0.768429
O O4 0.132854 0.407913 0.892376
O O5 0.125089 0.906755 0.561812
O O6 0.000000 0.000006 0.583621
O O7 0.114779 0.999967 0.665275
O O8 0.125104 0.093237 0.561831
O O9 0.628977 0.750000 0.168363
O O10 0.623329 0.593764 0.231550
O O11 0.632811 0.592063 0.107611
O O12 0.500000 0.999862 0.745986
O O13 0.634972 0.250000 0.499987
O O14 0.750000 0.128834 0.500000
O O15 0.250000 0.000000 0.937471
O O16 0.121661 0.000000 0.000000
#
# Coordination Sequence:
#
# PCOD8280640 Si02
#       6
#    16  16  16  16  16  16
#     4   9  18  32  50  73 100 130 165 205 249 296
#     4  10  21  36  54  75 100 132 167 204 244 287
#     4   9  18  32  50  73 100 130 165 205 249 296
#     4  10  21  35  51  73 100 131 168 206 244 289
#     4  10  21  36  55  79 104 130 161 199 244 293
#     4   8  14  26  46  73 102 128 158 202 252 297
#
# _framework density 18.065823000000002
#
# number of rings (size 3 to 8) (size 9 to 14) (size 15 to 20)
#    0.000    2.667    0.000    3.500    0.000    6.667 
#    0.000   10.000    0.000    8.000    0.000    9.333 
#    0.000    0.000    0.000    0.000    0.000    0.000 
#
# Total GULP energy -595164.152223 kJ/mol
# GULP energy per Si atom -12399.253171 kJ/mol
# Density = 1.802470 g / cm^3
# Si number density = 18.065823 Si / 1000 Ang^3
#
#
#
# Elastic Constant Matrix: (Units=GPa)
#
#
# Indices 1 2 3 4 5 6 
#
# 1 49.9818 42.5086 44.6749 0.0000 0.0000 0.0000
# 2 42.5086 196.7456 99.2917 0.0000 0.0000 0.0000
# 3 44.6749 99.2917 185.9454 0.0000 0.0000 0.0000
# 4 0.0000 0.0000 0.0000 41.0086 0.0000 0.0000
# 5 0.0000 0.0000 0.0000 0.0000 -16.2484 0.0000
# 6 0.0000 0.0000 0.0000 0.0000 0.0000 11.5937
#
#
#
# Elastic Compliance Matrix: (Units=1/GPa)
#
#
# Indices 1 2 3 4 5 6 
#
# 1 0.027154 -0.003524 -0.004642 0.000000 0.000000 0.000000
# 2 -0.003524 0.007415 -0.003113 0.000000 0.000000 0.000000
# 3 -0.004642 -0.003113 0.008155 0.000000 0.000000 0.000000
# 4 0.000000 0.000000 0.000000 0.024385 0.000000 0.000000
# 5 0.000000 0.000000 0.000000 0.000000 -0.061545 0.000000
# 6 0.000000 0.000000 0.000000 0.000000 0.000000 0.086253
#
#
# Mechanical properties :
#
#
# Convention : Reuss Voigt Hill
#
# Bulk Modulus (GPa) = 49.58799 89.51371 69.55085
# Shear Modulus (GPa) = 41.28877 23.68395 32.48636
#
# Velocity S-wave (km/s) = 4.78584 3.62468 4.24515
# Velocity P-wave (km/s) = 7.61886 8.19597 7.91268
#
# Compressibility (1/GPa) = 0.02016617
#
# Stress axis : x y z
#
# Youngs Moduli (GPa) = 36.82742 134.86059 122.61773
#
# Poissons Ratio (x) = 0.47526 0.56920
# Poissons Ratio (y) = 0.12978 0.38169
# Poissons Ratio (z) = 0.17096 0.41980
#
# Static dielectric constant tensor:
#      x y z
#    x 3.167870 0.000000 0.000000 
#    y 0.000000 3.532690 0.000000 
#    z 0.000000 0.000000 3.521520 
# 
# 
# High freq. dielectric constant tensor:
#      x y z
#    x 1.685910 0.000000 0.000000 
#    y 0.000000 1.704850 0.000000 
#    z 0.000000 0.000000 1.704360 
# 
# From -- ./inp_files/38473.got.cif
#   From: 2010.03.12/outbox.cif.g09.slc.cpg/sg67_20_cif.got.tgz:38473.got - 2010.04.10 22:41:39.
