data_PCOD8280377
_publ_section_title
;
Structure prediction by ZEFSAII (Michael W. Deem and Ramdas Pophale) SiO2 
 PCOD8280377
Probable space group: C M M A
;
_chemical_formula_sum "Si O2"
_cell_formula_units_Z 72
_cell_length_a 8.504256
_cell_length_b 15.191346
_cell_length_c 28.267718
_cell_angle_alpha 90.000000
_cell_angle_beta 90.000000
_cell_angle_gamma 90.000000
_cell_volume 3651.937452
_symmetry_space_group_name_H-M "C M M A"
_symmetry_group_IT_number 67
_symmetry_cell_setting 'orthorhombic'
loop_
_space_group_symop_operation_xyz
x,y,z
-x,1/2-y,z
x,-y,-z
-x,1/2+y,-z
-x,-y,-z
x,1/2+y,-z
-x,y,z
x,1/2-y,z
1/2+x,1/2+y,z
1/2-x,-y,z
1/2+x,1/2-y,-z
1/2-x,y,-z
1/2-x,1/2-y,-z
1/2+x,y,-z
1/2-x,1/2+y,z
1/2+x,-y,z
loop_
_atom_site_type_symbol
_atom_site_label
_atom_site_fract_x
_atom_site_fract_y
_atom_site_fract_z
Si Si1 0.186338 0.596034 0.615857
Si Si2 0.184691 0.250000 0.880583
Si Si3 0.184393 0.906177 0.050656
Si Si4 0.683758 0.250000 0.778309
Si Si5 0.686140 0.750000 0.552515
Si Si6 0.186040 0.595063 0.282380
O O1 0.250000 0.500000 0.602824
O O2 0.251886 0.663049 0.577751
O O3 0.242351 0.625660 0.667725
O O4 0.000000 0.595651 0.614473
O O5 0.233474 0.164442 0.910264
O O6 0.289422 0.250000 0.834035
O O7 0.000000 0.250000 0.867969
O O8 0.000000 0.913323 0.045301
O O9 0.250000 0.000000 0.067188
O O10 0.250000 0.876468 0.000000
O O11 0.500000 0.250000 0.766361
O O12 0.764918 0.163511 0.757475
O O13 0.500000 0.750000 0.552730
O O14 0.750000 0.750000 0.500000
O O15 0.250000 0.500000 0.267087
O O16 0.000000 0.590677 0.287459
#
# Coordination Sequence:
#
# PCOD8280377 Si02
#       6
#    16   8  16   8   8  16
#     4  11  22  40  64  92 121 155 198 245 293 348
#     4  10  23  40  56  80 115 154 190 234 287 344
#     4  10  20  36  59  84 112 145 187 234 284 338
#     4  12  25  40  59  86 119 158 197 240 293 352
#     4  12  25  42  61  88 122 160 200 244 297 352
#     4  11  22  40  64  90 119 154 196 245 293 346
#
# _framework density 19.715564000000001
#
# number of rings (size 3 to 8) (size 9 to 14) (size 15 to 20)
#    0.000    1.111    0.000    9.667    0.000    3.111 
#    0.000    4.444    0.000    0.000    0.000    0.000 
#    0.000    0.000    0.000    0.000    0.000    0.000 
#
# Total GULP energy -446617.961494 kJ/mol
# GULP energy per Si atom -12406.054486 kJ/mol
# Density = 1.967069 g / cm^3
# Si number density = 19.715564 Si / 1000 Ang^3
#
#
#
# Elastic Constant Matrix: (Units=GPa)
#
#
# Indices 1 2 3 4 5 6 
#
# 1 174.7597 61.6923 59.4415 0.0000 0.0000 0.0000
# 2 61.6923 137.8673 93.9897 0.0000 0.0000 0.0000
# 3 59.4415 93.9897 141.3171 0.0000 0.0000 0.0000
# 4 0.0000 0.0000 0.0000 11.6874 0.0000 0.0000
# 5 0.0000 0.0000 0.0000 0.0000 37.0754 0.0000
# 6 0.0000 0.0000 0.0000 0.0000 0.0000 32.0903
#
#
#
# Elastic Compliance Matrix: (Units=1/GPa)
#
#
# Indices 1 2 3 4 5 6 
#
# 1 0.006981 -0.002053 -0.001571 0.000000 0.000000 0.000000
# 2 -0.002053 0.013874 -0.008364 0.000000 0.000000 0.000000
# 3 -0.001571 -0.008364 0.013300 0.000000 0.000000 0.000000
# 4 0.000000 0.000000 0.000000 0.085562 0.000000 0.000000
# 5 0.000000 0.000000 0.000000 0.000000 0.026972 0.000000
# 6 0.000000 0.000000 0.000000 0.000000 0.000000 0.031162
#
#
# Mechanical properties :
#
#
# Convention : Reuss Voigt Hill
#
# Bulk Modulus (GPa) = 98.23960 98.24346 98.24153
# Shear Modulus (GPa) = 24.36397 32.09201 28.22799
#
# Velocity S-wave (km/s) = 3.51917 4.03892 3.78797
# Velocity P-wave (km/s) = 8.15165 8.46694 8.31079
#
# Compressibility (1/GPa) = 0.01017919
#
# Stress axis : x y z
#
# Youngs Moduli (GPa) = 143.24171 72.07649 75.18701
#
# Poissons Ratio (x) = 0.14796 0.11813
# Poissons Ratio (y) = 0.29405 0.62888
# Poissons Ratio (z) = 0.22506 0.60286
#
# Static dielectric constant tensor:
#      x y z
#    x 3.786260 0.000000 0.000000 
#    y 0.000000 1.239950 0.000000 
#    z 0.000000 0.000000 3.586280 
# 
# 
# High freq. dielectric constant tensor:
#      x y z
#    x 1.790580 0.000000 0.000000 
#    y 0.000000 1.784920 0.000000 
#    z 0.000000 0.000000 1.766870 
# 
# From -- ./inp_files/43137.got.cif
#   From: 2010.03.12/outbox.cif.g09.slc.cpg/sg67_22_cif.got.tgz:43137.got - 2010.04.10 22:41:39.
