data_PCOD8280489
_publ_section_title
;
Structure prediction by ZEFSAII (Michael W. Deem and Ramdas Pophale) SiO2 
 PCOD8280489
Probable space group: C M M A
;
_chemical_formula_sum "Si O2"
_cell_formula_units_Z 64
_cell_length_a 17.833212
_cell_length_b 9.735176
_cell_length_c 19.002883
_cell_angle_alpha 90.000000
_cell_angle_beta 90.000000
_cell_angle_gamma 90.000000
_cell_volume 3299.080208
_symmetry_space_group_name_H-M "C M M A"
_symmetry_group_IT_number 67
_symmetry_cell_setting 'orthorhombic'
loop_
_space_group_symop_operation_xyz
x,y,z
-x,1/2-y,z
x,-y,-z
-x,1/2+y,-z
-x,-y,-z
x,1/2+y,-z
-x,y,z
x,1/2-y,z
1/2+x,1/2+y,z
1/2-x,-y,z
1/2+x,1/2-y,-z
1/2-x,y,-z
1/2-x,1/2-y,-z
1/2+x,y,-z
1/2-x,1/2+y,z
1/2+x,-y,z
loop_
_atom_site_type_symbol
_atom_site_label
_atom_site_fract_x
_atom_site_fract_y
_atom_site_fract_z
Si Si1 0.414264 0.250000 0.585566
Si Si2 0.674735 0.915551 0.933508
Si Si3 0.661212 0.498132 0.342841
Si Si4 0.085725 0.908668 0.206816
Si Si5 0.413952 0.750000 0.581342
O O1 0.500000 0.250000 0.611616
O O2 0.369588 0.374641 0.616138
O O3 0.410945 0.250000 0.502056
O O4 0.688575 0.750000 0.948002
O O5 0.616603 0.934203 0.870844
O O6 0.750000 0.000000 0.913850
O O7 0.640525 0.000000 0.000000
O O8 0.750000 0.500000 0.340770
O O9 0.632096 0.497311 0.262714
O O10 0.630263 0.376555 0.388931
O O11 0.093738 0.750000 0.228664
O O12 0.000000 0.957014 0.207834
O O13 0.500000 0.750000 0.608192
#
# Coordination Sequence:
#
# PCOD8280489 Si02
#       5
#     8  16  16  16   8
#     4  11  25  41  61  93 126 155 202 263 313 361
#     4  10  20  37  61  90 122 158 199 247 300 358
#     4  12  24  40  63  92 123 160 207 258 310 365
#     4  10  21  39  63  86 117 163 207 246 298 369
#     4  11  23  43  67  85 118 171 206 241 311 389
#
# _framework density 19.399346999999999
#
# number of rings (size 3 to 8) (size 9 to 14) (size 15 to 20)
#    0.000    1.250    1.250    6.000    0.000    5.500 
#    4.500    0.000    0.000    0.000    0.000    0.000 
#    0.000    0.000    0.000    0.000    0.000    0.000 
#
# Total GULP energy -396643.898159 kJ/mol
# GULP energy per Si atom -12395.121817 kJ/mol
# Density = 1.935519 g / cm^3
# Si number density = 19.399347 Si / 1000 Ang^3
#
#
#
# Elastic Constant Matrix: (Units=GPa)
#
#
# Indices 1 2 3 4 5 6 
#
# 1 180.7056 64.8029 83.1241 0.0000 0.0000 0.0000
# 2 64.8029 138.6756 48.6018 0.0000 0.0000 0.0000
# 3 83.1241 48.6018 114.7527 0.0000 0.0000 0.0000
# 4 0.0000 0.0000 0.0000 53.1436 0.0000 0.0000
# 5 0.0000 0.0000 0.0000 0.0000 43.8591 0.0000
# 6 0.0000 0.0000 0.0000 0.0000 0.0000 6.1779
#
#
#
# Elastic Compliance Matrix: (Units=1/GPa)
#
#
# Indices 1 2 3 4 5 6 
#
# 1 0.008844 -0.002216 -0.005467 0.000000 0.000000 0.000000
# 2 -0.002216 0.009024 -0.002216 0.000000 0.000000 0.000000
# 3 -0.005467 -0.002216 0.013613 0.000000 0.000000 0.000000
# 4 0.000000 0.000000 0.000000 0.018817 0.000000 0.000000
# 5 0.000000 0.000000 0.000000 0.000000 0.022800 0.000000
# 6 0.000000 0.000000 0.000000 0.000000 0.000000 0.161867
#
#
# Mechanical properties :
#
#
# Convention : Reuss Voigt Hill
#
# Bulk Modulus (GPa) = 85.61261 91.91020 88.76141
# Shear Modulus (GPa) = 19.33047 36.47647 27.90347
#
# Velocity S-wave (km/s) = 3.16008 4.34094 3.79670
# Velocity P-wave (km/s) = 7.58567 8.52091 8.06685
#
# Compressibility (1/GPa) = 0.01168052
#
# Stress axis : x y z
#
# Youngs Moduli (GPa) = 113.07475 110.82105 73.45652
#
# Poissons Ratio (x) = 0.24563 0.40162
# Poissons Ratio (y) = 0.25063 0.16280
# Poissons Ratio (z) = 0.61823 0.24560
#
# Static dielectric constant tensor:
#      x y z
#    x 3.684700 0.000000 0.000000 
#    y 0.000000 3.663120 0.000000 
#    z 0.000000 0.000000 3.749400 
# 
# 
# High freq. dielectric constant tensor:
#      x y z
#    x 1.763870 0.000000 0.000000 
#    y 0.000000 1.760660 0.000000 
#    z 0.000000 0.000000 1.774030 
# 
# From -- ./inp_files/34643.got.cif
#   From: 2010.03.12/outbox.cif.g09.slc.cpg/sg67_18_cif.got.tgz:34643.got - 2010.04.10 22:41:39.
