data_PCOD8280819
_publ_section_title
;
Structure prediction by ZEFSAII (Michael W. Deem and Ramdas Pophale) SiO2 
 PCOD8280819
Probable space group: C M M A
;
_chemical_formula_sum "Si O2"
_cell_formula_units_Z 68
_cell_length_a 18.533803
_cell_length_b 9.569899
_cell_length_c 21.297343
_cell_angle_alpha 90.000000
_cell_angle_beta 90.000000
_cell_angle_gamma 90.000000
_cell_volume 3777.437802
_symmetry_space_group_name_H-M "C M M A"
_symmetry_group_IT_number 67
_symmetry_cell_setting 'orthorhombic'
loop_
_space_group_symop_operation_xyz
x,y,z
-x,1/2-y,z
x,-y,-z
-x,1/2+y,-z
-x,-y,-z
x,1/2+y,-z
-x,y,z
x,1/2-y,z
1/2+x,1/2+y,z
1/2-x,-y,z
1/2+x,1/2-y,-z
1/2-x,y,-z
1/2-x,1/2-y,-z
1/2+x,y,-z
1/2-x,1/2+y,z
1/2+x,-y,z
loop_
_atom_site_type_symbol
_atom_site_label
_atom_site_fract_x
_atom_site_fract_y
_atom_site_fract_z
Si Si1 0.250000 0.500000 0.500000
Si Si2 0.190610 0.902250 0.378558
Si Si3 0.082711 0.088251 0.721998
Si Si4 0.175565 0.916191 0.818847
Si Si5 0.917891 0.410571 0.059264
O O1 0.195105 0.413999 0.545206
O O2 0.215775 0.750000 0.358331
O O3 0.111761 0.932322 0.349729
O O4 0.250000 0.000000 0.345334
O O5 0.092232 0.250000 0.743806
O O6 0.000000 0.043074 0.721980
O O7 0.125593 0.981635 0.765358
O O8 0.187421 0.750000 0.807146
O O9 0.135153 0.944229 0.883963
O O10 0.250000 0.000000 0.820431
O O11 0.913099 0.250000 0.039124
O O12 0.000000 0.450115 0.078779
O O13 0.891821 0.500000 0.000000
#
# Coordination Sequence:
#
# PCOD8280819 Si02
#       5
#     4  16  16  16  16
#     4   8  18  32  56  80 106 144 178 220 266 316
#     4   9  18  32  53  78 104 138 178 219 265 318
#     4  10  21  37  56  80 110 144 183 228 277 328
#     4  11  23  38  56  81 112 145 186 231 277 327
#     4   9  19  36  57  80 108 143 182 225 273 326
#
# _framework density 18.001619999999999
#
# number of rings (size 3 to 8) (size 9 to 14) (size 15 to 20)
#    0.706    1.647    0.000    2.471    0.000    6.588 
#    0.000    5.294    0.000    0.000    0.000    0.000 
#    0.000    0.000    0.000    0.000    0.000    0.000 
#
# Total GULP energy -421217.702036 kJ/mol
# GULP energy per Si atom -12388.755942 kJ/mol
# Density = 1.796065 g / cm^3
# Si number density = 18.001620 Si / 1000 Ang^3
#
#
#
# Elastic Constant Matrix: (Units=GPa)
#
#
# Indices 1 2 3 4 5 6 
#
# 1 142.4466 75.2728 76.4480 0.0000 0.0000 0.0000
# 2 75.2728 105.0199 63.3116 0.0000 0.0000 0.0000
# 3 76.4480 63.3116 119.5595 0.0000 0.0000 0.0000
# 4 0.0000 0.0000 0.0000 -9.5072 0.0000 0.0000
# 5 0.0000 0.0000 0.0000 0.0000 30.9674 0.0000
# 6 0.0000 0.0000 0.0000 0.0000 0.0000 21.2926
#
#
#
# Elastic Compliance Matrix: (Units=1/GPa)
#
#
# Indices 1 2 3 4 5 6 
#
# 1 0.013049 -0.006350 -0.004981 0.000000 0.000000 0.000000
# 2 -0.006350 0.017077 -0.004983 0.000000 0.000000 0.000000
# 3 -0.004981 -0.004983 0.014188 0.000000 0.000000 0.000000
# 4 0.000000 0.000000 0.000000 -0.105184 0.000000 0.000000
# 5 0.000000 0.000000 0.000000 0.000000 0.032292 0.000000
# 6 0.000000 0.000000 0.000000 0.000000 0.000000 0.046965
#
#
# Mechanical properties :
#
#
# Convention : Reuss Voigt Hill
#
# Bulk Modulus (GPa) = 85.57233 88.56562 87.06898
# Shear Modulus (GPa) = 91.05858 18.68347 54.87103
#
# Velocity S-wave (km/s) = 7.11993 3.22510 5.52696
# Velocity P-wave (km/s) = 10.73454 7.94820 9.44469
#
# Compressibility (1/GPa) = 0.01168602
#
# Stress axis : x y z
#
# Youngs Moduli (GPa) = 76.63490 58.55763 70.48378
#
# Poissons Ratio (x) = 0.37183 0.35109
# Poissons Ratio (y) = 0.48662 0.35121
# Poissons Ratio (z) = 0.38173 0.29178
#
# Static dielectric constant tensor:
#      x y z
#    x 3.348010 0.000000 0.000000 
#    y 0.000000 3.450020 0.000000 
#    z 0.000000 0.000000 3.343800 
# 
# 
# High freq. dielectric constant tensor:
#      x y z
#    x 1.691410 0.000000 0.000000 
#    y 0.000000 1.705110 0.000000 
#    z 0.000000 0.000000 1.694640 
# 
# From -- ./inp_files/42100.got.cif
#   From: 2010.03.12/outbox.cif.g09.slc.cpg/sg67_22_cif.got.tgz:42100.got - 2010.04.10 22:41:39.
