data_PCOD8280189
_publ_section_title
;
Structure prediction by ZEFSAII (Michael W. Deem and Ramdas Pophale) SiO2 
 PCOD8280189
Probable space group: C M M A
;
_chemical_formula_sum "Si O2"
_cell_formula_units_Z 96
_cell_length_a 28.291782
_cell_length_b 8.675074
_cell_length_c 20.527006
_cell_angle_alpha 90.000000
_cell_angle_beta 90.000000
_cell_angle_gamma 90.000000
_cell_volume 5038.010872
_symmetry_space_group_name_H-M "C M M A"
_symmetry_group_IT_number 67
_symmetry_cell_setting 'orthorhombic'
loop_
_space_group_symop_operation_xyz
x,y,z
-x,1/2-y,z
x,-y,-z
-x,1/2+y,-z
-x,-y,-z
x,1/2+y,-z
-x,y,z
x,1/2-y,z
1/2+x,1/2+y,z
1/2-x,-y,z
1/2+x,1/2-y,-z
1/2-x,y,-z
1/2-x,1/2-y,-z
1/2+x,y,-z
1/2-x,1/2+y,z
1/2+x,-y,z
loop_
_atom_site_type_symbol
_atom_site_label
_atom_site_fract_x
_atom_site_fract_y
_atom_site_fract_z
Si Si1 0.103601 0.569842 0.569227
Si Si2 0.444566 0.928321 0.692121
Si Si3 0.799068 0.431516 0.771478
Si Si4 0.555953 0.073791 0.067261
Si Si5 0.202005 0.429541 0.369145
Si Si6 0.108124 0.430315 0.187296
O O1 0.089858 0.500000 0.500000
O O2 0.091716 0.750000 0.571124
O O3 0.071414 0.483742 0.621438
O O4 0.159109 0.539446 0.581803
O O5 0.500000 0.955373 0.699652
O O6 0.431040 0.750000 0.701731
O O7 0.418328 0.026912 0.746448
O O8 0.795339 0.250000 0.771544
O O9 0.750000 0.500000 0.798246
O O10 0.809954 0.489085 0.698744
O O11 0.841388 0.485540 0.818039
O O12 0.500000 0.061912 0.072764
O O13 0.573073 0.250000 0.071092
O O14 0.577043 0.977490 0.126098
O O15 0.574027 0.000000 0.000000
O O16 0.209682 0.250000 0.355209
O O17 0.250000 0.500000 0.399912
O O18 0.117191 0.250000 0.186865
#
# Coordination Sequence:
#
# PCOD8280189 Si02
#       6
#    16  16  16  16  16  16
#     4  11  24  40  59  81 111 149 192 238 293 354
#     4  11  24  41  61  85 112 146 192 244 296 348
#     4  11  21  35  58  86 118 153 191 239 290 343
#     4  10  21  38  60  89 125 163 202 243 291 344
#     4  10  20  35  56  83 112 146 186 233 288 348
#     4  12  23  37  60  90 122 157 197 239 289 344
#
# _framework density 19.055139
#
# number of rings (size 3 to 8) (size 9 to 14) (size 15 to 20)
#    0.000    1.167    1.667    6.500    0.000    7.000 
#    0.000    1.667    0.000    0.500    0.000    3.500 
#    0.000    0.000    0.000    0.000    0.000    0.000 
#
# Total GULP energy -595469.875060 kJ/mol
# GULP energy per Si atom -12405.622397 kJ/mol
# Density = 1.901177 g / cm^3
# Si number density = 19.055139 Si / 1000 Ang^3
#
#
#
# Elastic Constant Matrix: (Units=GPa)
#
#
# Indices 1 2 3 4 5 6 
#
# 1 59.2444 39.6179 17.2234 0.0000 0.0000 0.0000
# 2 39.6179 135.6353 23.2145 0.0000 0.0000 0.0000
# 3 17.2234 23.2145 81.0550 0.0000 0.0000 0.0000
# 4 0.0000 0.0000 0.0000 33.2038 0.0000 0.0000
# 5 0.0000 0.0000 0.0000 0.0000 18.4588 0.0000
# 6 0.0000 0.0000 0.0000 0.0000 0.0000 25.7849
#
#
#
# Elastic Compliance Matrix: (Units=1/GPa)
#
#
# Indices 1 2 3 4 5 6 
#
# 1 0.021618 -0.005813 -0.002929 0.000000 0.000000 0.000000
# 2 -0.005813 0.009316 -0.001433 0.000000 0.000000 0.000000
# 3 -0.002929 -0.001433 0.013370 0.000000 0.000000 0.000000
# 4 0.000000 0.000000 0.000000 0.030117 0.000000 0.000000
# 5 0.000000 0.000000 0.000000 0.000000 0.054175 0.000000
# 6 0.000000 0.000000 0.000000 0.000000 0.000000 0.038782
#
#
# Mechanical properties :
#
#
# Convention : Reuss Voigt Hill
#
# Bulk Modulus (GPa) = 41.74588 48.44959 45.09773
# Shear Modulus (GPa) = 25.54767 28.54809 27.04788
#
# Velocity S-wave (km/s) = 3.66556 3.87484 3.77165
# Velocity P-wave (km/s) = 6.31432 6.74539 6.53341
#
# Compressibility (1/GPa) = 0.02395446
#
# Stress axis : x y z
#
# Youngs Moduli (GPa) = 46.25763 107.34302 74.79429
#
# Poissons Ratio (x) = 0.62400 0.21905
# Poissons Ratio (y) = 0.26890 0.10717
# Poissons Ratio (z) = 0.13547 0.15381
#
# Static dielectric constant tensor:
#      x y z
#    x 3.636760 0.000000 0.000000 
#    y 0.000000 3.702710 0.000000 
#    z 0.000000 0.000000 3.309640 
# 
# 
# High freq. dielectric constant tensor:
#      x y z
#    x 1.747730 0.000000 0.000000 
#    y 0.000000 1.763200 0.000000 
#    z 0.000000 0.000000 1.723290 
# 
# From -- ./inp_files/39882.got.cif
#   From: 2010.03.12/outbox.cif.g09.slc.cpg/sg67_20_cif.got.tgz:39882.got - 2010.04.10 22:41:39.
