data_PCOD8280522
_publ_section_title
;
Structure prediction by ZEFSAII (Michael W. Deem and Ramdas Pophale) SiO2 
 PCOD8280522
Probable space group: C M M A
;
_chemical_formula_sum "Si O2"
_cell_formula_units_Z 80
_cell_length_a 14.693551
_cell_length_b 23.921724
_cell_length_c 11.418073
_cell_angle_alpha 90.000000
_cell_angle_beta 90.000000
_cell_angle_gamma 90.000000
_cell_volume 4013.396387
_symmetry_space_group_name_H-M "C M M A"
_symmetry_group_IT_number 67
_symmetry_cell_setting 'orthorhombic'
loop_
_space_group_symop_operation_xyz
x,y,z
-x,1/2-y,z
x,-y,-z
-x,1/2+y,-z
-x,-y,-z
x,1/2+y,-z
-x,y,z
x,1/2-y,z
1/2+x,1/2+y,z
1/2-x,-y,z
1/2+x,1/2-y,-z
1/2-x,y,-z
1/2-x,1/2-y,-z
1/2+x,y,-z
1/2-x,1/2+y,z
1/2+x,-y,z
loop_
_atom_site_type_symbol
_atom_site_label
_atom_site_fract_x
_atom_site_fract_y
_atom_site_fract_z
Si Si1 0.500000 0.884733 0.808530
Si Si2 0.500000 0.014912 0.768214
Si Si3 0.703022 0.133833 0.873730
Si Si4 0.661005 0.687428 0.714475
Si Si5 0.250000 0.636755 0.500000
Si Si6 0.185589 0.550345 0.678926
Si Si7 0.500000 0.119780 0.921168
O O1 0.411530 0.859514 0.747924
O O2 0.500000 0.951100 0.805445
O O3 0.500000 0.868628 0.942668
O O4 0.584651 0.027001 0.685253
O O5 0.500000 0.054359 0.884020
O O6 0.752463 0.183134 0.801896
O O7 0.718269 0.075591 0.803907
O O8 0.594373 0.147906 0.875788
O O9 0.750000 0.126691 0.000000
O O10 0.620855 0.750000 0.725117
O O11 0.688114 0.676485 0.580285
O O12 0.185961 0.598387 0.580930
O O13 0.250000 0.500000 0.641008
#
# Coordination Sequence:
#
# PCOD8280522 Si02
#       7
#     8   8  16  16   8  16   8
#     4  12  22  39  59  94 126 156 204 256 295 368
#     4  10  21  36  60  88 125 167 193 230 306 370
#     4  10  20  38  59  88 126 160 196 248 300 360
#     4  11  24  42  64  87 118 162 211 261 312 349
#     4  10  22  42  62  82 122 156 208 258 302 364
#     4  10  21  36  58  90 122 160 201 240 296 367
#     4  10  21  37  59  92 131 161 198 234 298 374
#
# _framework density 19.933240999999999
#
# number of rings (size 3 to 8) (size 9 to 14) (size 15 to 20)
#    0.000    1.600    2.000    3.600    0.000    1.600 
#    0.000    4.500    0.000    0.000    0.000    0.000 
#    0.000    0.000    0.000    0.000    0.000    0.000 
#
# Total GULP energy -495918.826934 kJ/mol
# GULP energy per Si atom -12397.970673 kJ/mol
# Density = 1.988787 g / cm^3
# Si number density = 19.933241 Si / 1000 Ang^3
#
#
#
# Elastic Constant Matrix: (Units=GPa)
#
#
# Indices 1 2 3 4 5 6 
#
# 1 121.2397 19.5784 37.5609 0.0000 0.0000 0.0000
# 2 19.5784 62.2099 25.2269 0.0000 0.0000 0.0000
# 3 37.5609 25.2269 115.1014 0.0000 0.0000 0.0000
# 4 0.0000 0.0000 0.0000 17.3632 0.0000 0.0000
# 5 0.0000 0.0000 0.0000 0.0000 118.3520 0.0000
# 6 0.0000 0.0000 0.0000 0.0000 0.0000 11.9751
#
#
#
# Elastic Compliance Matrix: (Units=1/GPa)
#
#
# Indices 1 2 3 4 5 6 
#
# 1 0.009371 -0.001876 -0.002647 0.000000 0.000000 0.000000
# 2 -0.001876 0.018018 -0.003337 0.000000 0.000000 0.000000
# 3 -0.002647 -0.003337 0.010283 0.000000 0.000000 0.000000
# 4 0.000000 0.000000 0.000000 0.057593 0.000000 0.000000
# 5 0.000000 0.000000 0.000000 0.000000 0.008449 0.000000
# 6 0.000000 0.000000 0.000000 0.000000 0.000000 0.083507
#
#
# Mechanical properties :
#
#
# Convention : Reuss Voigt Hill
#
# Bulk Modulus (GPa) = 45.55197 51.47593 48.51395
# Shear Modulus (GPa) = 23.78025 43.95037 33.86531
#
# Velocity S-wave (km/s) = 3.45772 4.70071 4.12629
# Velocity P-wave (km/s) = 6.23242 7.43925 6.86241
#
# Compressibility (1/GPa) = 0.02195295
#
# Stress axis : x y z
#
# Youngs Moduli (GPa) = 106.71133 55.49963 97.24679
#
# Poissons Ratio (x) = 0.10411 0.25740
# Poissons Ratio (y) = 0.20018 0.32450
# Poissons Ratio (z) = 0.28246 0.18520
#
# Static dielectric constant tensor:
#      x y z
#    x 3.776750 0.000000 0.000000 
#    y 0.000000 3.437830 0.000000 
#    z 0.000000 0.000000 3.736750 
# 
# 
# High freq. dielectric constant tensor:
#      x y z
#    x 1.784410 0.000000 0.000000 
#    y 0.000000 1.763090 0.000000 
#    z 0.000000 0.000000 1.784490 
# 
# From -- ./inp_files/19419.got.cif
#   From: 2010.03.12/outbox.cif.g09.slc.cpg/sg67_10_cif.got.tgz:19419.got - 2010.04.10 22:41:39.
