data_PCOD8280546
_publ_section_title
;
Structure prediction by ZEFSAII (Michael W. Deem and Ramdas Pophale) SiO2 
 PCOD8280546
Probable space group: C M M A
;
_chemical_formula_sum "Si O2"
_cell_formula_units_Z 96
_cell_length_a 14.488103
_cell_length_b 15.606623
_cell_length_c 20.270530
_cell_angle_alpha 90.000000
_cell_angle_beta 90.000000
_cell_angle_gamma 90.000000
_cell_volume 4583.376866
_symmetry_space_group_name_H-M "C M M A"
_symmetry_group_IT_number 67
_symmetry_cell_setting 'orthorhombic'
loop_
_space_group_symop_operation_xyz
x,y,z
-x,1/2-y,z
x,-y,-z
-x,1/2+y,-z
-x,-y,-z
x,1/2+y,-z
-x,y,z
x,1/2-y,z
1/2+x,1/2+y,z
1/2-x,-y,z
1/2+x,1/2-y,-z
1/2-x,y,-z
1/2-x,1/2-y,-z
1/2+x,y,-z
1/2-x,1/2+y,z
1/2+x,-y,z
loop_
_atom_site_type_symbol
_atom_site_label
_atom_site_fract_x
_atom_site_fract_y
_atom_site_fract_z
Si Si1 0.757321 0.902611 0.395473
Si Si2 0.900585 0.750000 0.904444
Si Si3 0.253021 0.846014 0.747989
Si Si4 0.105426 0.350274 0.494597
Si Si5 0.392782 0.416965 0.833853
Si Si6 0.892906 0.891388 0.143881
Si Si7 0.843786 0.750000 0.041414
O O1 0.774458 0.849282 0.329421
O O2 0.844926 0.894813 0.443697
O O3 0.662126 0.871219 0.428573
O O4 0.750000 0.000000 0.374098
O O5 0.853839 0.839488 0.880660
O O6 0.000000 0.750000 0.869999
O O7 0.918465 0.750000 0.983145
O O8 0.221243 0.750000 0.766027
O O9 0.169557 0.910649 0.767875
O O10 0.346410 0.868477 0.786790
O O11 0.107425 0.250000 0.507610
O O12 0.000000 0.383742 0.487868
O O13 0.500000 0.408481 0.814350
O O14 0.376493 0.507546 0.870831
O O15 0.850360 0.835567 0.084887
O O16 0.000000 0.868481 0.150620
O O17 0.750000 0.750000 0.000000
#
# Coordination Sequence:
#
# PCOD8280546 Si02
#       7
#    16   8  16  16  16  16   8
#     4  11  23  38  60  91 125 162 208 263 315 377
#     4  10  20  38  62  88 120 158 204 251 309 371
#     4  12  23  40  65  90 125 168 214 262 320 380
#     4  10  21  40  63  88 122 163 208 258 315 378
#     4  10  22  41  65  93 128 168 213 269 321 378
#     4  11  24  43  65  93 131 169 214 266 318 380
#     4  12  24  40  64  92 124 168 209 255 313 374
#
# _framework density 20.945256000000001
#
# number of rings (size 3 to 8) (size 9 to 14) (size 15 to 20)
#    0.000    1.167    1.667    6.250    0.000    3.333 
#    0.000    3.333    0.000    0.000    0.000    0.000 
#    0.000    0.000    0.000    0.000    0.000    0.000 
#
# Total GULP energy -595071.513483 kJ/mol
# GULP energy per Si atom -12397.323198 kJ/mol
# Density = 2.089758 g / cm^3
# Si number density = 20.945256 Si / 1000 Ang^3
#
#
#
# Elastic Constant Matrix: (Units=GPa)
#
#
# Indices 1 2 3 4 5 6 
#
# 1 143.5287 35.2660 55.8602 0.0000 0.0000 0.0000
# 2 35.2660 135.9609 43.7563 0.0000 0.0000 0.0000
# 3 55.8602 43.7563 142.3085 0.0000 0.0000 0.0000
# 4 0.0000 0.0000 0.0000 30.7841 0.0000 0.0000
# 5 0.0000 0.0000 0.0000 0.0000 101.6371 0.0000
# 6 0.0000 0.0000 0.0000 0.0000 0.0000 28.0741
#
#
#
# Elastic Compliance Matrix: (Units=1/GPa)
#
#
# Indices 1 2 3 4 5 6 
#
# 1 0.008408 -0.001242 -0.002919 0.000000 0.000000 0.000000
# 2 -0.001242 0.008346 -0.002079 0.000000 0.000000 0.000000
# 3 -0.002919 -0.002079 0.008812 0.000000 0.000000 0.000000
# 4 0.000000 0.000000 0.000000 0.032484 0.000000 0.000000
# 5 0.000000 0.000000 0.000000 0.000000 0.009839 0.000000
# 6 0.000000 0.000000 0.000000 0.000000 0.000000 0.035620
#
#
# Mechanical properties :
#
#
# Convention : Reuss Voigt Hill
#
# Bulk Modulus (GPa) = 76.40661 76.84034 76.62348
# Shear Modulus (GPa) = 41.54530 51.22677 46.38604
#
# Velocity S-wave (km/s) = 4.45850 4.95081 4.71109
# Velocity P-wave (km/s) = 7.94120 8.33347 8.13970
#
# Compressibility (1/GPa) = 0.01308787
#
# Stress axis : x y z
#
# Youngs Moduli (GPa) = 118.93060 119.81565 113.48335
#
# Poissons Ratio (x) = 0.14877 0.33123
# Poissons Ratio (y) = 0.14767 0.23592
# Poissons Ratio (z) = 0.34712 0.24908
#
# Static dielectric constant tensor:
#      x y z
#    x 3.723610 0.000000 0.000000 
#    y 0.000000 4.077990 0.000000 
#    z 0.000000 0.000000 3.806900 
# 
# 
# High freq. dielectric constant tensor:
#      x y z
#    x 1.828740 0.000000 0.000000 
#    y 0.000000 1.839980 0.000000 
#    z 0.000000 0.000000 1.806370 
# 
# From -- ./inp_files/38552.got.cif
#   From: 2010.03.12/outbox.cif.g09.slc.cpg/sg67_20_cif.got.tgz:38552.got - 2010.04.10 22:41:39.
