data_PCOD8280293
_publ_section_title
;
Structure prediction by ZEFSAII (Michael W. Deem and Ramdas Pophale) SiO2 
 PCOD8280293
Probable space group: C M M A
;
_chemical_formula_sum "Si O2"
_cell_formula_units_Z 120
_cell_length_a 29.670704
_cell_length_b 9.093056
_cell_length_c 25.562615
_cell_angle_alpha 90.000000
_cell_angle_beta 90.000000
_cell_angle_gamma 90.000000
_cell_volume 6896.726375
_symmetry_space_group_name_H-M "C M M A"
_symmetry_group_IT_number 67
_symmetry_cell_setting 'orthorhombic'
loop_
_space_group_symop_operation_xyz
x,y,z
-x,1/2-y,z
x,-y,-z
-x,1/2+y,-z
-x,-y,-z
x,1/2+y,-z
-x,y,z
x,1/2-y,z
1/2+x,1/2+y,z
1/2-x,-y,z
1/2+x,1/2-y,-z
1/2-x,y,-z
1/2-x,1/2-y,-z
1/2+x,y,-z
1/2-x,1/2+y,z
1/2+x,-y,z
loop_
_atom_site_type_symbol
_atom_site_label
_atom_site_fract_x
_atom_site_fract_y
_atom_site_fract_z
Si Si1 0.297502 0.579140 0.336314
Si Si2 0.797926 0.921486 0.548097
Si Si3 0.948290 0.085055 0.783172
Si Si4 0.080179 0.916386 0.100174
Si Si5 0.364389 0.076963 0.753322
Si Si6 0.500000 0.920437 0.053866
Si Si7 0.205904 0.417154 0.162028
Si Si8 0.834655 0.422300 0.053218
O O1 0.287639 0.750000 0.327018
O O2 0.250000 0.500000 0.327782
O O3 0.319042 0.553043 0.394286
O O4 0.334306 0.520593 0.295189
O O5 0.792935 0.750000 0.535414
O O6 0.825548 0.000000 0.500000
O O7 0.750000 0.000000 0.550036
O O8 0.951146 0.250000 0.761039
O O9 0.921544 0.086174 0.837710
O O10 0.000000 0.021821 0.786365
O O11 0.914722 0.990344 0.747017
O O12 0.072236 0.750000 0.078551
O O13 0.042865 0.032722 0.085800
O O14 0.124388 0.981058 0.074031
O O15 0.371577 0.250000 0.752268
O O16 0.338691 0.027299 0.807008
O O17 0.500000 0.750000 0.043747
O O18 0.500000 0.000000 0.000000
O O19 0.213735 0.250000 0.178116
O O20 0.250000 0.500000 0.182123
O O21 0.202051 0.434686 0.099250
O O22 0.847023 0.250000 0.043319
O O23 0.816610 0.500000 0.000000
#
# Coordination Sequence:
#
# PCOD8280293 Si02
#       8
#    16  16  16  16  16   8  16  16
#     4   9  18  30  47  72 105 140 178 216 251 291
#     4   9  15  24  39  63  96 138 178 215 250 285
#     4  10  21  37  56  78 101 126 159 198 244 300
#     4  11  21  37  56  75  98 124 154 193 240 295
#     4  10  20  36  54  76 103 131 166 208 248 296
#     4  12  24  36  52  74 100 126 152 188 235 292
#     4  10  22  37  55  76  99 126 164 203 244 296
#     4  11  23  39  55  75  97 124 159 199 244 297
#
# _framework density 17.399559
#
# number of rings (size 3 to 8) (size 9 to 14) (size 15 to 20)
#    0.000    1.867    2.000    3.000    0.000    3.733 
#    0.000    1.333    0.000    0.000    0.000    0.000 
#    0.000    0.533    0.000    1.200    0.000    2.400 
#
# Total GULP energy -743370.951395 kJ/mol
# GULP energy per Si atom -12389.515857 kJ/mol
# Density = 1.735996 g / cm^3
# Si number density = 17.399559 Si / 1000 Ang^3
#
#
#
# Elastic Constant Matrix: (Units=GPa)
#
#
# Indices 1 2 3 4 5 6 
#
# 1 84.8790 39.5345 29.3873 0.0000 0.0000 0.0000
# 2 39.5345 95.1159 36.8302 0.0000 0.0000 0.0000
# 3 29.3873 36.8302 102.5240 0.0000 0.0000 0.0000
# 4 0.0000 0.0000 0.0000 22.3136 0.0000 0.0000
# 5 0.0000 0.0000 0.0000 0.0000 14.5270 0.0000
# 6 0.0000 0.0000 0.0000 0.0000 0.0000 27.7900
#
#
#
# Elastic Compliance Matrix: (Units=1/GPa)
#
#
# Indices 1 2 3 4 5 6 
#
# 1 0.015106 -0.005346 -0.002410 0.000000 0.000000 0.000000
# 2 -0.005346 0.014104 -0.003534 0.000000 0.000000 0.000000
# 3 -0.002410 -0.003534 0.011714 0.000000 0.000000 0.000000
# 4 0.000000 0.000000 0.000000 0.044816 0.000000 0.000000
# 5 0.000000 0.000000 0.000000 0.000000 0.068837 0.000000
# 6 0.000000 0.000000 0.000000 0.000000 0.000000 0.035984
#
#
# Mechanical properties :
#
#
# Convention : Reuss Voigt Hill
#
# Bulk Modulus (GPa) = 54.51166 54.89143 54.70155
# Shear Modulus (GPa) = 22.80453 24.71057 23.75755
#
# Velocity S-wave (km/s) = 3.62420 3.77262 3.69916
# Velocity P-wave (km/s) = 6.99360 7.11287 7.05349
#
# Compressibility (1/GPa) = 0.01834470
#
# Stress axis : x y z
#
# Youngs Moduli (GPa) = 66.20093 70.90236 85.36691
#
# Poissons Ratio (x) = 0.37901 0.20569
# Poissons Ratio (y) = 0.35388 0.30172
# Poissons Ratio (z) = 0.15951 0.25060
#
# Static dielectric constant tensor:
#      x y z
#    x 3.607460 0.000000 0.000000 
#    y 0.000000 3.306450 0.000000 
#    z 0.000000 0.000000 3.823480 
# 
# 
# High freq. dielectric constant tensor:
#      x y z
#    x 1.642740 0.000000 0.000000 
#    y 0.000000 1.680820 0.000000 
#    z 0.000000 0.000000 1.662660 
# 
# From -- ./inp_files/45039.got.cif
#   From: 2010.03.12/outbox.cif.g09.slc.cpg/sg67_23_cif.got.tgz:45039.got - 2010.04.10 22:41:39.
