data_PCOD8280292
_publ_section_title
;
Structure prediction by ZEFSAII (Michael W. Deem and Ramdas Pophale) SiO2 
 PCOD8280292
Probable space group: C M M A
;
_chemical_formula_sum "Si O2"
_cell_formula_units_Z 88
_cell_length_a 26.590526
_cell_length_b 9.559997
_cell_length_c 19.300075
_cell_angle_alpha 90.000000
_cell_angle_beta 90.000000
_cell_angle_gamma 90.000000
_cell_volume 4906.182297
_symmetry_space_group_name_H-M "C M M A"
_symmetry_group_IT_number 67
_symmetry_cell_setting 'orthorhombic'
loop_
_space_group_symop_operation_xyz
x,y,z
-x,1/2-y,z
x,-y,-z
-x,1/2+y,-z
-x,-y,-z
x,1/2+y,-z
-x,y,z
x,1/2-y,z
1/2+x,1/2+y,z
1/2-x,-y,z
1/2+x,1/2-y,-z
1/2-x,y,-z
1/2-x,1/2-y,-z
1/2+x,y,-z
1/2-x,1/2+y,z
1/2+x,-y,z
loop_
_atom_site_type_symbol
_atom_site_label
_atom_site_fract_x
_atom_site_fract_y
_atom_site_fract_z
Si Si1 0.442099 0.593815 0.060903
Si Si2 0.500000 0.416373 0.429415
Si Si3 0.792734 0.097385 0.814171
Si Si4 0.094468 0.084873 0.817542
Si Si5 0.094872 0.584425 0.338976
Si Si6 0.204997 0.906104 0.350552
O O1 0.500000 0.614307 0.042578
O O2 0.417310 0.750000 0.064841
O O3 0.438953 0.510886 0.133193
O O4 0.416462 0.500000 0.000000
O O5 0.500000 0.250000 0.442372
O O6 0.500000 0.500000 0.500000
O O7 0.450370 0.464929 0.388001
O O8 0.781260 0.250000 0.843910
O O9 0.847982 0.050257 0.837441
O O10 0.789950 0.099566 0.731599
O O11 0.750000 0.000000 0.846996
O O12 0.082142 0.250000 0.826964
O O13 0.083333 0.034112 0.739102
O O14 0.099711 0.750000 0.336197
O O15 0.149268 0.529344 0.367325
O O16 0.210668 0.750000 0.381783
O O17 0.250000 0.000000 0.382743
#
# Coordination Sequence:
#
# PCOD8280292 Si02
#       6
#    16   8  16  16  16  16
#     4  10  21  35  49  68  95 128 162 198 243 293
#     4  10  20  36  54  72  97 134 169 200 241 290
#     4   8  14  24  40  65  96 124 153 188 233 284
#     4   9  17  30  50  75  97 123 161 203 239 284
#     4   8  16  30  50  74  98 128 167 201 240 295
#     4   8  13  24  42  67  96 123 154 196 239 286
#
# _framework density 17.936554000000001
#
# number of rings (size 3 to 8) (size 9 to 14) (size 15 to 20)
#    0.000    3.273    0.000    2.727    1.273    1.818 
#    0.000    4.545    0.000    1.091    0.000    7.636 
#    0.000    0.000    0.000    0.000    0.000    0.000 
#
# Total GULP energy -545196.280157 kJ/mol
# GULP energy per Si atom -12390.824549 kJ/mol
# Density = 1.789573 g / cm^3
# Si number density = 17.936554 Si / 1000 Ang^3
#
#
#
# Elastic Constant Matrix: (Units=GPa)
#
#
# Indices 1 2 3 4 5 6 
#
# 1 102.5271 42.4928 42.8448 0.0000 0.0000 0.0000
# 2 42.4928 81.8211 41.9765 0.0000 0.0000 0.0000
# 3 42.8448 41.9765 78.4242 0.0000 0.0000 0.0000
# 4 0.0000 0.0000 0.0000 20.1811 0.0000 0.0000
# 5 0.0000 0.0000 0.0000 0.0000 3.7314 0.0000
# 6 0.0000 0.0000 0.0000 0.0000 0.0000 28.3247
#
#
#
# Elastic Compliance Matrix: (Units=1/GPa)
#
#
# Indices 1 2 3 4 5 6 
#
# 1 0.013760 -0.004535 -0.005090 0.000000 0.000000 0.000000
# 2 -0.004535 0.018343 -0.007341 0.000000 0.000000 0.000000
# 3 -0.005090 -0.007341 0.019461 0.000000 0.000000 0.000000
# 4 0.000000 0.000000 0.000000 0.049551 0.000000 0.000000
# 5 0.000000 0.000000 0.000000 0.000000 0.267996 0.000000
# 6 0.000000 0.000000 0.000000 0.000000 0.000000 0.035305
#
#
# Mechanical properties :
#
#
# Convention : Reuss Voigt Hill
#
# Bulk Modulus (GPa) = 56.71196 57.48898 57.10047
# Shear Modulus (GPa) = 11.25555 19.47799 15.36677
#
# Velocity S-wave (km/s) = 2.50775 3.29893 2.93017
# Velocity P-wave (km/s) = 6.33023 6.82872 6.58420
#
# Compressibility (1/GPa) = 0.01763296
#
# Stress axis : x y z
#
# Youngs Moduli (GPa) = 72.67388 54.51747 51.38457
#
# Poissons Ratio (x) = 0.24722 0.26156
# Poissons Ratio (y) = 0.32956 0.37719
# Poissons Ratio (z) = 0.36993 0.40019
#
# Static dielectric constant tensor:
#      x y z
#    x 3.603260 0.000000 0.000000 
#    y 0.000000 3.416630 0.000000 
#    z 0.000000 0.000000 2.922800 
# 
# 
# High freq. dielectric constant tensor:
#      x y z
#    x 1.696200 0.000000 0.000000 
#    y 0.000000 1.677240 0.000000 
#    z 0.000000 0.000000 1.652050 
# 
# From -- ./inp_files/36141.got.cif
#   From: 2010.03.12/outbox.cif.g09.slc.cpg/sg67_19_cif.got.tgz:36141.got - 2010.04.10 22:41:39.
