data_PCOD8280392
_publ_section_title
;
Structure prediction by ZEFSAII (Michael W. Deem and Ramdas Pophale) SiO2 
 PCOD8280392
Probable space group: C M M A
;
_chemical_formula_sum "Si O2"
_cell_formula_units_Z 72
_cell_length_a 16.473877
_cell_length_b 8.802784
_cell_length_c 24.452674
_cell_angle_alpha 90.000000
_cell_angle_beta 90.000000
_cell_angle_gamma 90.000000
_cell_volume 3546.028505
_symmetry_space_group_name_H-M "C M M A"
_symmetry_group_IT_number 67
_symmetry_cell_setting 'orthorhombic'
loop_
_space_group_symop_operation_xyz
x,y,z
-x,1/2-y,z
x,-y,-z
-x,1/2+y,-z
-x,-y,-z
x,1/2+y,-z
-x,y,z
x,1/2-y,z
1/2+x,1/2+y,z
1/2-x,-y,z
1/2+x,1/2-y,-z
1/2-x,y,-z
1/2-x,1/2-y,-z
1/2+x,y,-z
1/2-x,1/2+y,z
1/2+x,-y,z
loop_
_atom_site_type_symbol
_atom_site_label
_atom_site_fract_x
_atom_site_fract_y
_atom_site_fract_z
Si Si1 0.335664 0.071209 0.620188
Si Si2 0.500000 0.430777 0.559554
Si Si3 0.907765 0.583966 0.156749
Si Si4 0.333948 0.929328 0.254445
Si Si5 0.837968 0.429022 0.053412
O O1 0.326059 0.250000 0.613051
O O2 0.416455 0.012232 0.588673
O O3 0.350529 0.024083 0.682949
O O4 0.250000 0.000000 0.598562
O O5 0.500000 0.250000 0.557516
O O6 0.500000 0.500000 0.500000
O O7 0.863044 0.750000 0.155243
O O8 0.900967 0.504215 0.215871
O O9 0.879022 0.469846 0.110247
O O10 0.000000 0.615725 0.145419
O O11 0.333567 0.750000 0.247159
O O12 0.250000 0.000000 0.233769
O O13 0.834742 0.250000 0.046688
O O14 0.750000 0.500000 0.055147
O O15 0.883776 0.500000 0.000000
#
# Coordination Sequence:
#
# PCOD8280392 Si02
#       5
#    16   8  16  16  16
#     4   9  20  38  61  87 120 158 201 249 301 358
#     4  10  22  40  60  88 122 162 203 248 299 354
#     4  11  24  39  55  81 116 150 187 234 285 342
#     4  10  20  36  60  85 113 149 190 237 289 347
#     4  11  22  39  62  84 109 144 188 235 284 342
#
# _framework density 20.304406
#
# number of rings (size 3 to 8) (size 9 to 14) (size 15 to 20)
#    0.000    1.778    0.000    4.667    1.556    4.444 
#    0.000    2.222    0.000    0.000    0.000    0.000 
#    0.000    0.000    0.000    0.000    0.000    0.000 
#
# Total GULP energy -446236.147304 kJ/mol
# GULP energy per Si atom -12395.448536 kJ/mol
# Density = 2.025819 g / cm^3
# Si number density = 20.304406 Si / 1000 Ang^3
#
#
#
# Elastic Constant Matrix: (Units=GPa)
#
#
# Indices 1 2 3 4 5 6 
#
# 1 112.7598 38.6778 60.0603 0.0000 0.0000 0.0000
# 2 38.6778 121.8531 49.2870 0.0000 0.0000 0.0000
# 3 60.0603 49.2870 125.4725 0.0000 0.0000 0.0000
# 4 0.0000 0.0000 0.0000 38.5729 0.0000 0.0000
# 5 0.0000 0.0000 0.0000 0.0000 -45.1008 0.0000
# 6 0.0000 0.0000 0.0000 0.0000 0.0000 22.3970
#
#
#
# Elastic Compliance Matrix: (Units=1/GPa)
#
#
# Indices 1 2 3 4 5 6 
#
# 1 0.012226 -0.001800 -0.005146 0.000000 0.000000 0.000000
# 2 -0.001800 0.010022 -0.003075 0.000000 0.000000 0.000000
# 3 -0.005146 -0.003075 0.011641 0.000000 0.000000 0.000000
# 4 0.000000 0.000000 0.000000 0.025925 0.000000 0.000000
# 5 0.000000 0.000000 0.000000 0.000000 -0.022173 0.000000
# 6 0.000000 0.000000 0.000000 0.000000 0.000000 0.044649
#
#
# Mechanical properties :
#
#
# Convention : Reuss Voigt Hill
#
# Bulk Modulus (GPa) = 72.21109 72.90395 72.55752
# Shear Modulus (GPa) = 46.75208 17.31116 32.03162
#
# Velocity S-wave (km/s) = 4.80370 2.92307 3.97617
# Velocity P-wave (km/s) = 8.14916 6.88301 7.54270
#
# Compressibility (1/GPa) = 0.01384829
#
# Stress axis : x y z
#
# Youngs Moduli (GPa) = 81.79010 99.78377 85.90394
#
# Poissons Ratio (x) = 0.17957 0.44203
# Poissons Ratio (y) = 0.14719 0.26417
# Poissons Ratio (z) = 0.42086 0.30686
#
# Static dielectric constant tensor:
#      x y z
#    x 3.708560 0.000000 0.000000 
#    y 0.000000 3.528500 0.000000 
#    z 0.000000 0.000000 4.128030 
# 
# 
# High freq. dielectric constant tensor:
#      x y z
#    x 1.785430 0.000000 0.000000 
#    y 0.000000 1.801150 0.000000 
#    z 0.000000 0.000000 1.799360 
# 
# From -- ./inp_files/40480.got.cif
#   From: 2010.03.12/outbox.cif.g09.slc.cpg/sg67_21_cif.got.tgz:40480.got - 2010.04.10 22:41:39.
