data_PCOD8280246
_publ_section_title
;
Structure prediction by ZEFSAII (Michael W. Deem and Ramdas Pophale) SiO2 
 PCOD8280246
Probable space group: C M M A
;
_chemical_formula_sum "Si O2"
_cell_formula_units_Z 96
_cell_length_a 20.998533
_cell_length_b 20.276165
_cell_length_c 9.749908
_cell_angle_alpha 90.000000
_cell_angle_beta 90.000000
_cell_angle_gamma 90.000000
_cell_volume 4151.215598
_symmetry_space_group_name_H-M "C M M A"
_symmetry_group_IT_number 67
_symmetry_cell_setting 'orthorhombic'
loop_
_space_group_symop_operation_xyz
x,y,z
-x,1/2-y,z
x,-y,-z
-x,1/2+y,-z
-x,-y,-z
x,1/2+y,-z
-x,y,z
x,1/2-y,z
1/2+x,1/2+y,z
1/2-x,-y,z
1/2+x,1/2-y,-z
1/2-x,y,-z
1/2-x,1/2-y,-z
1/2+x,y,-z
1/2-x,1/2+y,z
1/2+x,-y,z
loop_
_atom_site_type_symbol
_atom_site_label
_atom_site_fract_x
_atom_site_fract_y
_atom_site_fract_z
Si Si1 0.734302 0.903288 0.654155
Si Si2 0.850925 0.020600 0.277893
Si Si3 0.878604 0.825046 0.314717
Si Si4 0.426583 0.627245 0.404768
Si Si5 0.925497 0.678175 0.891431
Si Si6 0.927240 0.076143 0.892172
O O1 0.750000 0.882637 0.500000
O O2 0.795786 0.923100 0.747720
O O3 0.695215 0.842886 0.723479
O O4 0.683915 0.963009 0.639437
O O5 0.904799 0.052022 0.375561
O O6 0.884686 0.989566 0.140676
O O7 0.893403 0.750000 0.275004
O O8 0.887363 0.837201 0.476415
O O9 0.926815 0.872770 0.234433
O O10 0.500000 0.626949 0.445484
O O11 0.412162 0.668853 0.268321
O O12 0.897208 0.750000 0.935181
O O13 0.000000 0.677871 0.923453
O O14 0.897084 0.616330 0.977891
O O15 0.000000 0.052786 0.916679
#
# Coordination Sequence:
#
# PCOD8280246 Si02
#       6
#    16  16  16  16  16  16
#     4  10  20  38  60  81 112 156 198 247 298 353
#     4  10  20  35  58  85 114 149 198 250 295 352
#     4  11  23  37  58  90 119 151 201 255 297 347
#     4  11  22  35  57  90 126 159 193 246 305 358
#     4   9  19  37  57  80 120 170 203 228 286 367
#     4  10  21  36  60  89 119 159 196 241 300 360
#
# _framework density 23.125755999999999
#
# number of rings (size 3 to 8) (size 9 to 14) (size 15 to 20)
#    0.000    1.833    1.667    3.000    2.333    3.667 
#    0.000    5.000    0.000   17.000    0.000   11.667 
#    0.000    0.000    0.000    0.000    0.000    0.000 
#
# Total GULP energy -594801.774781 kJ/mol
# GULP energy per Si atom -12391.703641 kJ/mol
# Density = 2.307312 g / cm^3
# Si number density = 23.125756 Si / 1000 Ang^3
#
#
#
# Elastic Constant Matrix: (Units=GPa)
#
#
# Indices 1 2 3 4 5 6 
#
# 1 96.0694 34.1850 17.4343 0.0000 0.0000 0.0000
# 2 34.1850 117.4441 19.6083 0.0000 0.0000 0.0000
# 3 17.4343 19.6083 67.7249 0.0000 0.0000 0.0000
# 4 0.0000 0.0000 0.0000 28.0387 0.0000 0.0000
# 5 0.0000 0.0000 0.0000 0.0000 8.1887 0.0000
# 6 0.0000 0.0000 0.0000 0.0000 0.0000 13.7533
#
#
#
# Elastic Compliance Matrix: (Units=1/GPa)
#
#
# Indices 1 2 3 4 5 6 
#
# 1 0.011907 -0.003104 -0.002166 0.000000 0.000000 0.000000
# 2 -0.003104 0.009756 -0.002026 0.000000 0.000000 0.000000
# 3 -0.002166 -0.002026 0.015910 0.000000 0.000000 0.000000
# 4 0.000000 0.000000 0.000000 0.035665 0.000000 0.000000
# 5 0.000000 0.000000 0.000000 0.000000 0.122119 0.000000
# 6 0.000000 0.000000 0.000000 0.000000 0.000000 0.072710
#
#
# Mechanical properties :
#
#
# Convention : Reuss Voigt Hill
#
# Bulk Modulus (GPa) = 43.51483 47.07707 45.29595
# Shear Modulus (GPa) = 17.22241 23.99687 20.60964
#
# Velocity S-wave (km/s) = 2.73193 3.22478 2.98853
# Velocity P-wave (km/s) = 5.36738 5.85378 5.61585
#
# Compressibility (1/GPa) = 0.02298067
#
# Stress axis : x y z
#
# Youngs Moduli (GPa) = 83.98528 102.49669 62.85425
#
# Poissons Ratio (x) = 0.31816 0.13617
# Poissons Ratio (y) = 0.26070 0.12732
# Poissons Ratio (z) = 0.18195 0.20763
#
# Static dielectric constant tensor:
#      x y z
#    x 4.340890 0.000000 0.000000 
#    y 0.000000 4.346690 0.000000 
#    z 0.000000 0.000000 3.925010 
# 
# 
# High freq. dielectric constant tensor:
#      x y z
#    x 1.900010 0.000000 0.000000 
#    y 0.000000 1.914980 0.000000 
#    z 0.000000 0.000000 1.897170 
# 
# From -- ./inp_files/21920.got.cif
#   From: 2010.03.12/outbox.cif.g09.slc.cpg/sg67_11_cif.got.tgz:21920.got - 2010.04.10 22:41:39.
