data_PCOD8280215
_publ_section_title
;
Structure prediction by ZEFSAII (Michael W. Deem and Ramdas Pophale) SiO2 
 PCOD8280215
Probable space group: C M M A
;
_chemical_formula_sum "Si O2"
_cell_formula_units_Z 88
_cell_length_a 10.167597
_cell_length_b 26.092932
_cell_length_c 17.715775
_cell_angle_alpha 90.000000
_cell_angle_beta 90.000000
_cell_angle_gamma 90.000000
_cell_volume 4700.037929
_symmetry_space_group_name_H-M "C M M A"
_symmetry_group_IT_number 67
_symmetry_cell_setting 'orthorhombic'
loop_
_space_group_symop_operation_xyz
x,y,z
-x,1/2-y,z
x,-y,-z
-x,1/2+y,-z
-x,-y,-z
x,1/2+y,-z
-x,y,z
x,1/2-y,z
1/2+x,1/2+y,z
1/2-x,-y,z
1/2+x,1/2-y,-z
1/2-x,y,-z
1/2-x,1/2-y,-z
1/2+x,y,-z
1/2-x,1/2+y,z
1/2+x,-y,z
loop_
_atom_site_type_symbol
_atom_site_label
_atom_site_fract_x
_atom_site_fract_y
_atom_site_fract_z
Si Si1 0.847508 0.638351 0.071386
Si Si2 0.500000 0.143270 0.420617
Si Si3 0.000000 0.947049 0.312844
Si Si4 0.500000 0.062943 0.709929
Si Si5 0.261166 0.191650 0.335520
Si Si6 0.000000 0.845091 0.597091
Si Si7 0.262532 0.599986 0.774317
Si Si8 0.356453 0.750000 0.937344
O O1 0.795667 0.601512 0.137044
O O2 0.840572 0.696305 0.107137
O O3 0.000000 0.625281 0.049454
O O4 0.750000 0.631889 0.000000
O O5 0.500000 0.084584 0.391030
O O6 0.373511 0.173518 0.392088
O O7 0.500000 0.141214 0.509822
O O8 0.128131 0.933741 0.265523
O O9 0.000000 0.007331 0.328848
O O10 0.500000 0.101088 0.639885
O O11 0.624807 0.071330 0.763779
O O12 0.285953 0.250000 0.309813
O O13 0.125759 0.188345 0.381181
O O14 0.258510 0.157095 0.260450
O O15 0.500000 0.750000 0.976727
O O16 0.250000 0.750000 0.000000
#
# Coordination Sequence:
#
# PCOD8280215 Si02
#       8
#    16   8   8   8  16   8  16   8
#     4  10  20  35  57  83 116 150 186 231 278 327
#     4  10  21  35  56  86 111 141 193 236 274 336
#     4  10  20  40  60  82 106 140 191 240 289 336
#     4  10  22  38  60  80 108 148 185 236 295 332
#     4  10  21  35  54  81 116 156 189 221 270 330
#     4  10  21  37  54  82 117 145 187 234 276 336
#     4  10  21  37  57  84 110 146 192 231 275 338
#     4   8  16  30  48  76 108 144 177 211 262 318
#
# _framework density 18.723253
#
# number of rings (size 3 to 8) (size 9 to 14) (size 15 to 20)
#    0.000    2.182    0.909    1.636    2.545    2.545 
#    0.000    0.000    0.000    9.818    0.000    0.000 
#    0.000    0.000    0.000    0.000    0.000    0.000 
#
# Total GULP energy -545397.026885 kJ/mol
# GULP energy per Si atom -12395.386975 kJ/mol
# Density = 1.868064 g / cm^3
# Si number density = 18.723253 Si / 1000 Ang^3
#
#
#
# Elastic Constant Matrix: (Units=GPa)
#
#
# Indices 1 2 3 4 5 6 
#
# 1 144.8391 25.2662 33.8171 0.0000 0.0000 0.0000
# 2 25.2662 103.4917 15.2892 0.0000 0.0000 0.0000
# 3 33.8171 15.2892 87.1459 0.0000 0.0000 0.0000
# 4 0.0000 0.0000 0.0000 13.6558 0.0000 0.0000
# 5 0.0000 0.0000 0.0000 0.0000 26.8136 0.0000
# 6 0.0000 0.0000 0.0000 0.0000 0.0000 9.6971
#
#
#
# Elastic Compliance Matrix: (Units=1/GPa)
#
#
# Indices 1 2 3 4 5 6 
#
# 1 0.007812 -0.001498 -0.002769 0.000000 0.000000 0.000000
# 2 -0.001498 0.010207 -0.001209 0.000000 0.000000 0.000000
# 3 -0.002769 -0.001209 0.012762 0.000000 0.000000 0.000000
# 4 0.000000 0.000000 0.000000 0.073229 0.000000 0.000000
# 5 0.000000 0.000000 0.000000 0.000000 0.037295 0.000000
# 6 0.000000 0.000000 0.000000 0.000000 0.000000 0.103123
#
#
# Mechanical properties :
#
#
# Convention : Reuss Voigt Hill
#
# Bulk Modulus (GPa) = 50.43315 53.80239 52.11777
# Shear Modulus (GPa) = 19.08478 27.44027 23.26252
#
# Velocity S-wave (km/s) = 3.19613 3.83243 3.52865
# Velocity P-wave (km/s) = 6.37298 6.95567 6.67069
#
# Compressibility (1/GPa) = 0.01982823
#
# Stress axis : x y z
#
# Youngs Moduli (GPa) = 128.00860 97.97161 78.36044
#
# Poissons Ratio (x) = 0.14678 0.21695
# Poissons Ratio (y) = 0.19178 0.09477
# Poissons Ratio (z) = 0.35440 0.11849
#
# Static dielectric constant tensor:
#      x y z
#    x 3.749630 0.000000 0.000000 
#    y 0.000000 3.541060 0.000000 
#    z 0.000000 0.000000 3.120620 
# 
# 
# High freq. dielectric constant tensor:
#      x y z
#    x 1.752350 0.000000 0.000000 
#    y 0.000000 1.720430 0.000000 
#    z 0.000000 0.000000 1.703500 
# 
# From -- ./inp_files/26325.got.cif
#   From: 2010.03.12/outbox.cif.g09.slc.cpg/sg67_14_cif.got.tgz:26325.got - 2010.04.10 22:41:39.
