data_PCOD8280821
_publ_section_title
;
Structure prediction by ZEFSAII (Michael W. Deem and Ramdas Pophale) SiO2 
 PCOD8280821
Probable space group: C M M A
;
_chemical_formula_sum "Si O2"
_cell_formula_units_Z 96
_cell_length_a 15.298633
_cell_length_b 14.585844
_cell_length_c 21.118021
_cell_angle_alpha 90.000000
_cell_angle_beta 90.000000
_cell_angle_gamma 90.000000
_cell_volume 4712.348577
_symmetry_space_group_name_H-M "C M M A"
_symmetry_group_IT_number 67
_symmetry_cell_setting 'orthorhombic'
loop_
_space_group_symop_operation_xyz
x,y,z
-x,1/2-y,z
x,-y,-z
-x,1/2+y,-z
-x,-y,-z
x,1/2+y,-z
-x,y,z
x,1/2-y,z
1/2+x,1/2+y,z
1/2-x,-y,z
1/2+x,1/2-y,-z
1/2-x,y,-z
1/2-x,1/2-y,-z
1/2+x,y,-z
1/2-x,1/2+y,z
1/2+x,-y,z
loop_
_atom_site_type_symbol
_atom_site_label
_atom_site_fract_x
_atom_site_fract_y
_atom_site_fract_z
Si Si1 0.103982 0.352769 0.494650
Si Si2 0.854778 0.355393 0.843483
Si Si3 0.157705 0.644628 0.833759
Si Si4 0.000000 0.358520 0.938994
Si Si5 0.396230 0.992199 0.598203
Si Si6 0.500000 0.858561 0.079592
Si Si7 0.602375 0.501072 0.740035
O O1 0.144069 0.250000 0.491445
O O2 0.135286 0.412524 0.434102
O O3 0.137875 0.404650 0.558013
O O4 0.000000 0.347214 0.495551
O O5 0.876855 0.250000 0.829241
O O6 0.753862 0.368621 0.863587
O O7 0.913979 0.392374 0.901337
O O8 0.877273 0.407788 0.779251
O O9 0.139416 0.750000 0.816002
O O10 0.151453 0.586072 0.769911
O O11 0.086700 0.607234 0.884007
O O12 0.000000 0.250000 0.945510
O O13 0.000000 0.402177 0.009299
O O14 0.500000 0.989608 0.598664
O O15 0.359545 0.985982 0.669435
O O16 0.500000 0.750000 0.075295
O O17 0.500000 0.479887 0.738993
#
# Coordination Sequence:
#
# PCOD8280821 Si02
#       7
#    16  16  16   8  16   8  16
#     4   8  13  25  42  65 103 140 174 222 272 321
#     4  10  21  37  56  80 112 148 187 231 279 333
#     4  10  21  37  56  80 112 148 187 231 279 333
#     4   9  18  35  59  85 112 143 183 231 282 335
#     4   8  16  26  41  70 102 139 182 220 269 326
#     4   9  18  35  59  85 112 143 183 231 282 335
#     4  11  20  33  54  78 111 150 188 232 278 330
#
# _framework density 20.372007
#
# number of rings (size 3 to 8) (size 9 to 14) (size 15 to 20)
#    0.000    2.667    1.667    1.500    0.000    2.000 
#    0.000    8.333    0.000    2.000    0.000    9.333 
#    0.000   16.000    0.000    0.000    0.000    0.000 
#
# Total GULP energy -595048.319680 kJ/mol
# GULP energy per Si atom -12396.839993 kJ/mol
# Density = 2.032564 g / cm^3
# Si number density = 20.372007 Si / 1000 Ang^3
#
#
#
# Elastic Constant Matrix: (Units=GPa)
#
#
# Indices 1 2 3 4 5 6 
#
# 1 76.0738 1.4595 27.6637 0.0000 0.0000 0.0000
# 2 1.4595 103.9078 46.9534 0.0000 0.0000 0.0000
# 3 27.6637 46.9534 173.4406 0.0000 0.0000 0.0000
# 4 0.0000 0.0000 0.0000 2.1813 0.0000 0.0000
# 5 0.0000 0.0000 0.0000 0.0000 2.9373 0.0000
# 6 0.0000 0.0000 0.0000 0.0000 0.0000 15.1072
#
#
#
# Elastic Compliance Matrix: (Units=1/GPa)
#
#
# Indices 1 2 3 4 5 6 
#
# 1 0.014033 0.000928 -0.002489 0.000000 0.000000 0.000000
# 2 0.000928 0.011027 -0.003133 0.000000 0.000000 0.000000
# 3 -0.002489 -0.003133 0.007011 0.000000 0.000000 0.000000
# 4 0.000000 0.000000 0.000000 0.458453 0.000000 0.000000
# 5 0.000000 0.000000 0.000000 0.000000 0.340450 0.000000
# 6 0.000000 0.000000 0.000000 0.000000 0.000000 0.066194
#
#
# Mechanical properties :
#
#
# Convention : Reuss Voigt Hill
#
# Bulk Modulus (GPa) = 44.09018 56.17506 50.13262
# Shear Modulus (GPa) = 5.46976 22.53485 14.00231
#
# Velocity S-wave (km/s) = 1.64036 3.32952 2.62454
# Velocity P-wave (km/s) = 5.02764 6.51271 5.81776
#
# Compressibility (1/GPa) = 0.02268079
#
# Stress axis : x y z
#
# Youngs Moduli (GPa) = 71.26278 90.68937 142.63514
#
# Poissons Ratio (x) = -0.08414 0.35507
# Poissons Ratio (y) = -0.06612 0.44689
# Poissons Ratio (z) = 0.17740 0.28414
#
# Static dielectric constant tensor:
#      x y z
#    x 3.578550 0.000000 0.000000 
#    y 0.000000 3.761430 0.000000 
#    z 0.000000 0.000000 3.922190 
# 
# 
# High freq. dielectric constant tensor:
#      x y z
#    x 1.783600 0.000000 0.000000 
#    y 0.000000 1.796640 0.000000 
#    z 0.000000 0.000000 1.786440 
# 
# From -- ./inp_files/38545.got.cif
#   From: 2010.03.12/outbox.cif.g09.slc.cpg/sg67_20_cif.got.tgz:38545.got - 2010.04.10 22:41:39.
