data_PCOD8280238
_publ_section_title
;
Structure prediction by ZEFSAII (Michael W. Deem and Ramdas Pophale) SiO2 
 PCOD8280238
Probable space group: C M M A
;
_chemical_formula_sum "Si O2"
_cell_formula_units_Z 112
_cell_length_a 27.778749
_cell_length_b 13.636300
_cell_length_c 15.631837
_cell_angle_alpha 90.000000
_cell_angle_beta 90.000000
_cell_angle_gamma 90.000000
_cell_volume 5921.329773
_symmetry_space_group_name_H-M "C M M A"
_symmetry_group_IT_number 67
_symmetry_cell_setting 'orthorhombic'
loop_
_space_group_symop_operation_xyz
x,y,z
-x,1/2-y,z
x,-y,-z
-x,1/2+y,-z
-x,-y,-z
x,1/2+y,-z
-x,y,z
x,1/2-y,z
1/2+x,1/2+y,z
1/2-x,-y,z
1/2+x,1/2-y,-z
1/2-x,y,-z
1/2-x,1/2-y,-z
1/2+x,y,-z
1/2-x,1/2+y,z
1/2+x,-y,z
loop_
_atom_site_type_symbol
_atom_site_label
_atom_site_fract_x
_atom_site_fract_y
_atom_site_fract_z
Si Si1 0.943927 0.136744 0.206499
Si Si2 0.051789 0.864885 0.602247
Si Si3 0.182391 0.136829 0.799563
Si Si4 0.650081 0.363732 0.533108
Si Si5 0.726034 0.138215 0.913495
Si Si6 0.305209 0.025337 0.374735
Si Si7 0.630847 0.015853 0.901858
O O1 0.927535 0.250000 0.196241
O O2 0.934709 0.096188 0.302858
O O3 0.913570 0.069172 0.142700
O O4 0.000000 0.125700 0.182614
O O5 0.045888 0.750000 0.614893
O O6 0.092586 0.886400 0.530888
O O7 0.000000 0.908726 0.571654
O O8 0.168738 0.250000 0.783930
O O9 0.235877 0.127425 0.837417
O O10 0.181426 0.077225 0.712287
O O11 0.141728 0.091011 0.861286
O O12 0.661688 0.250000 0.544979
O O13 0.676404 0.402897 0.449484
O O14 0.668751 0.420085 0.617626
O O15 0.710212 0.250000 0.928715
O O16 0.679282 0.078006 0.888474
O O17 0.750000 0.096099 0.000000
O O18 0.250000 0.000000 0.386387
O O19 0.617022 0.000000 0.000000
#
# Coordination Sequence:
#
# PCOD8280238 Si02
#       7
#    16  16  16  16  16  16  16
#     4   9  19  36  57  84 116 146 184 238 294 347
#     4   8  15  31  56  83 109 136 172 227 288 338
#     4  11  24  39  56  81 117 158 196 238 290 346
#     4  10  20  35  58  84 111 144 188 239 289 345
#     4  10  20  36  56  81 113 146 186 234 288 344
#     4  11  23  38  54  78 115 156 195 234 281 340
#     4  12  22  33  58  83 112 148 194 241 290 347
#
# _framework density 18.914670999999998
#
# number of rings (size 3 to 8) (size 9 to 14) (size 15 to 20)
#    0.000    1.857    1.429    4.714    0.000    2.571 
#    0.000    5.000    0.000    1.286    0.000    0.000 
#    0.000    0.000    0.000    0.000    0.000    0.000 
#
# Total GULP energy -694192.005023 kJ/mol
# GULP energy per Si atom -12396.285804 kJ/mol
# Density = 1.887162 g / cm^3
# Si number density = 18.914671 Si / 1000 Ang^3
#
#
#
# Elastic Constant Matrix: (Units=GPa)
#
#
# Indices 1 2 3 4 5 6 
#
# 1 82.5356 36.3294 29.6177 0.0000 0.0000 0.0000
# 2 36.3294 106.2363 40.4519 0.0000 0.0000 0.0000
# 3 29.6177 40.4519 101.4812 0.0000 0.0000 0.0000
# 4 0.0000 0.0000 0.0000 25.2826 0.0000 0.0000
# 5 0.0000 0.0000 0.0000 0.0000 22.5709 0.0000
# 6 0.0000 0.0000 0.0000 0.0000 0.0000 21.4229
#
#
#
# Elastic Compliance Matrix: (Units=1/GPa)
#
#
# Indices 1 2 3 4 5 6 
#
# 1 0.014877 -0.004049 -0.002728 0.000000 0.000000 0.000000
# 2 -0.004049 0.012199 -0.003681 0.000000 0.000000 0.000000
# 3 -0.002728 -0.003681 0.012118 0.000000 0.000000 0.000000
# 4 0.000000 0.000000 0.000000 0.039553 0.000000 0.000000
# 5 0.000000 0.000000 0.000000 0.000000 0.044305 0.000000
# 6 0.000000 0.000000 0.000000 0.000000 0.000000 0.046679
#
#
# Mechanical properties :
#
#
# Convention : Reuss Voigt Hill
#
# Bulk Modulus (GPa) = 54.71052 55.89457 55.30255
# Shear Modulus (GPa) = 25.41437 26.11221 25.76329
#
# Velocity S-wave (km/s) = 3.66954 3.71958 3.69464
# Velocity P-wave (km/s) = 6.85140 6.93268 6.89216
#
# Compressibility (1/GPa) = 0.01827802
#
# Stress axis : x y z
#
# Youngs Moduli (GPa) = 67.21769 81.97270 82.52459
#
# Poissons Ratio (x) = 0.33188 0.22513
# Poissons Ratio (y) = 0.27214 0.30379
# Poissons Ratio (z) = 0.18337 0.30175
#
# Static dielectric constant tensor:
#      x y z
#    x 3.623200 0.000000 0.000000 
#    y 0.000000 3.599480 0.000000 
#    z 0.000000 0.000000 3.453520 
# 
# 
# High freq. dielectric constant tensor:
#      x y z
#    x 1.731230 0.000000 0.000000 
#    y 0.000000 1.735800 0.000000 
#    z 0.000000 0.000000 1.731710 
# 
# From -- ./inp_files/30818.got.cif
#   From: 2010.03.12/outbox.cif.g09.slc.cpg/sg67_16_cif.got.tgz:30818.got - 2010.04.10 22:41:39.
