data_PCOD8280398
_publ_section_title
;
Structure prediction by ZEFSAII (Michael W. Deem and Ramdas Pophale) SiO2 
 PCOD8280398
Probable space group: C M M A
;
_chemical_formula_sum "Si O2"
_cell_formula_units_Z 112
_cell_length_a 16.405985
_cell_length_b 22.730519
_cell_length_c 14.460697
_cell_angle_alpha 90.000000
_cell_angle_beta 90.000000
_cell_angle_gamma 90.000000
_cell_volume 5392.633290
_symmetry_space_group_name_H-M "C M M A"
_symmetry_group_IT_number 67
_symmetry_cell_setting 'orthorhombic'
loop_
_space_group_symop_operation_xyz
x,y,z
-x,1/2-y,z
x,-y,-z
-x,1/2+y,-z
-x,-y,-z
x,1/2+y,-z
-x,y,z
x,1/2-y,z
1/2+x,1/2+y,z
1/2-x,-y,z
1/2+x,1/2-y,-z
1/2-x,y,-z
1/2-x,1/2-y,-z
1/2+x,y,-z
1/2-x,1/2+y,z
1/2+x,-y,z
loop_
_atom_site_type_symbol
_atom_site_label
_atom_site_fract_x
_atom_site_fract_y
_atom_site_fract_z
Si Si1 0.593154 0.817490 0.547099
Si Si2 0.664837 0.602820 0.694258
Si Si3 0.403298 0.055459 0.124613
Si Si4 0.094844 0.186055 0.189004
Si Si5 0.096662 0.074121 0.083128
Si Si6 0.344946 0.867683 0.363820
Si Si7 0.091649 0.505860 0.608255
O O1 0.500000 0.824830 0.513522
O O2 0.615905 0.750000 0.565728
O O3 0.603310 0.852782 0.642760
O O4 0.652910 0.843630 0.468552
O O5 0.643653 0.597640 0.803022
O O6 0.754178 0.626804 0.674703
O O7 0.656107 0.537415 0.654213
O O8 0.500000 0.062270 0.139177
O O9 0.376556 0.986546 0.134285
O O10 0.375003 0.076170 0.023203
O O11 0.131789 0.250000 0.159489
O O12 0.135598 0.131107 0.134118
O O13 0.108503 0.178204 0.298423
O O14 0.000000 0.186878 0.166927
O O15 0.000000 0.075968 0.086055
O O16 0.391491 0.929054 0.357039
O O17 0.103098 0.500000 0.500000
O O18 0.000000 0.488443 0.638570
#
# Coordination Sequence:
#
# PCOD8280398 Si02
#       7
#    16  16  16  16  16  16  16
#     4  11  24  42  61  80 108 154 208 250 286 341
#     4  12  24  37  58  88 121 152 190 240 297 354
#     4   9  17  34  61  89 120 155 192 237 293 353
#     4  10  20  36  60  87 114 150 199 248 290 342
#     4   8  16  33  60  91 116 148 196 244 287 342
#     4  12  24  37  57  85 121 154 190 237 299 358
#     4  11  22  37  59  83 112 150 192 235 284 337
#
# _framework density 20.769074
#
# number of rings (size 3 to 8) (size 9 to 14) (size 15 to 20)
#    0.000    1.571    1.429    5.571    0.000    4.571 
#    0.000    1.429    0.000    5.143    0.000    0.000 
#    0.000    0.000    0.000    0.000    0.000    0.000 
#
# Total GULP energy -694331.864140 kJ/mol
# GULP energy per Si atom -12398.783288 kJ/mol
# Density = 2.072180 g / cm^3
# Si number density = 20.769074 Si / 1000 Ang^3
#
#
#
# Elastic Constant Matrix: (Units=GPa)
#
#
# Indices 1 2 3 4 5 6 
#
# 1 42.7152 13.6507 30.0447 0.0000 0.0000 0.0000
# 2 13.6507 143.7411 61.8405 0.0000 0.0000 0.0000
# 3 30.0447 61.8405 113.4346 0.0000 0.0000 0.0000
# 4 0.0000 0.0000 0.0000 28.5966 0.0000 0.0000
# 5 0.0000 0.0000 0.0000 0.0000 23.3868 0.0000
# 6 0.0000 0.0000 0.0000 0.0000 0.0000 23.0382
#
#
#
# Elastic Compliance Matrix: (Units=1/GPa)
#
#
# Indices 1 2 3 4 5 6 
#
# 1 0.028827 0.000715 -0.008025 0.000000 0.000000 0.000000
# 2 0.000715 0.009106 -0.005154 0.000000 0.000000 0.000000
# 3 -0.008025 -0.005154 0.013751 0.000000 0.000000 0.000000
# 4 0.000000 0.000000 0.000000 0.034969 0.000000 0.000000
# 5 0.000000 0.000000 0.000000 0.000000 0.042759 0.000000
# 6 0.000000 0.000000 0.000000 0.000000 0.000000 0.043406
#
#
# Mechanical properties :
#
#
# Convention : Reuss Voigt Hill
#
# Bulk Modulus (GPa) = 37.37421 56.77362 47.07392
# Shear Modulus (GPa) = 24.19373 27.96133 26.07753
#
# Velocity S-wave (km/s) = 3.41675 3.67317 3.54728
# Velocity P-wave (km/s) = 5.79653 6.73681 6.28428
#
# Compressibility (1/GPa) = 0.02675642
#
# Stress axis : x y z
#
# Youngs Moduli (GPa) = 34.68978 109.81365 72.72285
#
# Poissons Ratio (x) = -0.07851 0.58360
# Poissons Ratio (y) = -0.02480 0.37480
# Poissons Ratio (z) = 0.27838 0.56596
#
# Static dielectric constant tensor:
#      x y z
#    x 3.485870 0.000000 0.000000 
#    y 0.000000 4.102460 0.000000 
#    z 0.000000 0.000000 3.864570 
# 
# 
# High freq. dielectric constant tensor:
#      x y z
#    x 1.787590 0.000000 0.000000 
#    y 0.000000 1.815220 0.000000 
#    z 0.000000 0.000000 1.812540 
# 
# From -- ./inp_files/27468.got.cif
#   From: 2010.03.12/outbox.cif.g09.slc.cpg/sg67_14_cif.got.tgz:27468.got - 2010.04.10 22:41:39.
