data_PCOD8280100
_publ_section_title
;
Structure prediction by ZEFSAII (Michael W. Deem and Ramdas Pophale) SiO2 
 PCOD8280100
Probable space group: C M M A
;
_chemical_formula_sum "Si O2"
_cell_formula_units_Z 104
_cell_length_a 8.815581
_cell_length_b 26.460474
_cell_length_c 22.851361
_cell_angle_alpha 90.000000
_cell_angle_beta 90.000000
_cell_angle_gamma 90.000000
_cell_volume 5330.410198
_symmetry_space_group_name_H-M "C M M A"
_symmetry_group_IT_number 67
_symmetry_cell_setting 'orthorhombic'
loop_
_space_group_symop_operation_xyz
x,y,z
-x,1/2-y,z
x,-y,-z
-x,1/2+y,-z
-x,-y,-z
x,1/2+y,-z
-x,y,z
x,1/2-y,z
1/2+x,1/2+y,z
1/2-x,-y,z
1/2+x,1/2-y,-z
1/2-x,y,-z
1/2-x,1/2-y,-z
1/2+x,y,-z
1/2-x,1/2+y,z
1/2+x,-y,z
loop_
_atom_site_type_symbol
_atom_site_label
_atom_site_fract_x
_atom_site_fract_y
_atom_site_fract_z
Si Si1 0.175337 0.194393 0.132394
Si Si2 0.322328 0.649072 0.761097
Si Si3 0.320447 0.947932 0.563156
Si Si4 0.320216 0.598844 0.062597
Si Si5 0.820687 0.345069 0.628772
Si Si6 0.678767 0.550239 0.829384
Si Si7 0.319740 0.250000 0.563824
O O1 0.207277 0.250000 0.106503
O O2 0.253637 0.190674 0.195637
O O3 0.236360 0.153932 0.085339
O O4 0.000000 0.184251 0.143719
O O5 0.500000 0.656356 0.761983
O O6 0.261894 0.656297 0.695512
O O7 0.275348 0.594002 0.784386
O O8 0.500000 0.954809 0.557616
O O9 0.250000 0.937064 0.500000
O O10 0.278205 0.900200 0.603549
O O11 0.250000 0.000000 0.589459
O O12 0.500000 0.594799 0.058374
O O13 0.256599 0.557743 0.107546
O O14 0.250000 0.587854 0.000000
O O15 0.733782 0.300717 0.595808
O O16 0.000000 0.335299 0.623620
O O17 0.500000 0.545714 0.837830
O O18 0.750000 0.500000 0.801456
O O19 0.500000 0.250000 0.559767
O O20 0.250000 0.250000 0.500000
#
# Coordination Sequence:
#
# PCOD8280100 Si02
#       7
#    16  16  16  16  16  16   8
#     4   9  19  35  54  77 108 142 178 224 275 324
#     4   9  20  37  56  80 110 144 182 224 271 325
#     4  10  20  35  57  82 111 146 184 229 280 334
#     4  10  20  35  54  78 109 143 181 229 278 330
#     4  10  22  40  60  85 118 154 192 237 287 342
#     4  10  20  36  57  81 110 146 186 227 277 333
#     4  12  26  42  62  88 118 156 197 242 293 346
#
# _framework density 19.510694999999998
#
# number of rings (size 3 to 8) (size 9 to 14) (size 15 to 20)
#    0.000    2.154    0.000    3.000    1.077    5.846 
#    0.000    1.538    0.000    0.000    0.000    0.000 
#    0.000    0.000    0.000    0.000    0.000    0.000 
#
# Total GULP energy -644812.526010 kJ/mol
# GULP energy per Si atom -12400.240885 kJ/mol
# Density = 1.946629 g / cm^3
# Si number density = 19.510695 Si / 1000 Ang^3
#
#
#
# Elastic Constant Matrix: (Units=GPa)
#
#
# Indices 1 2 3 4 5 6 
#
# 1 68.0493 38.0765 38.3408 0.0000 0.0000 0.0000
# 2 38.0765 98.2204 25.2574 0.0000 0.0000 0.0000
# 3 38.3408 25.2574 99.2075 0.0000 0.0000 0.0000
# 4 0.0000 0.0000 0.0000 17.3978 0.0000 0.0000
# 5 0.0000 0.0000 0.0000 0.0000 27.8685 0.0000
# 6 0.0000 0.0000 0.0000 0.0000 0.0000 34.2557
#
#
#
# Elastic Compliance Matrix: (Units=1/GPa)
#
#
# Indices 1 2 3 4 5 6 
#
# 1 0.022473 -0.006933 -0.006920 0.000000 0.000000 0.000000
# 2 -0.006933 0.013033 -0.000639 0.000000 0.000000 0.000000
# 3 -0.006920 -0.000639 0.012917 0.000000 0.000000 0.000000
# 4 0.000000 0.000000 0.000000 0.057478 0.000000 0.000000
# 5 0.000000 0.000000 0.000000 0.000000 0.035883 0.000000
# 6 0.000000 0.000000 0.000000 0.000000 0.000000 0.029192
#
#
# Mechanical properties :
#
#
# Convention : Reuss Voigt Hill
#
# Bulk Modulus (GPa) = 51.44058 52.09184 51.76621
# Shear Modulus (GPa) = 24.22008 26.82456 25.52232
#
# Velocity S-wave (km/s) = 3.52714 3.71194 3.62072
# Velocity P-wave (km/s) = 6.55821 6.71777 6.63847
#
# Compressibility (1/GPa) = 0.01943990
#
# Stress axis : x y z
#
# Youngs Moduli (GPa) = 44.49711 76.72858 77.41710
#
# Poissons Ratio (x) = 0.53192 0.53575
# Poissons Ratio (y) = 0.30848 0.04946
# Poissons Ratio (z) = 0.30793 0.04902
#
# Static dielectric constant tensor:
#      x y z
#    x 3.550290 0.000000 0.000000 
#    y 0.000000 3.811960 0.000000 
#    z 0.000000 0.000000 3.659010 
# 
# 
# High freq. dielectric constant tensor:
#      x y z
#    x 1.760770 0.000000 0.000000 
#    y 0.000000 1.772570 0.000000 
#    z 0.000000 0.000000 1.755160 
# 
# From -- ./inp_files/37332.got.cif
#   From: 2010.03.12/outbox.cif.g09.slc.cpg/sg67_19_cif.got.tgz:37332.got - 2010.04.10 22:41:39.
