data_PCOD8280658
_publ_section_title
;
Structure prediction by ZEFSAII (Michael W. Deem and Ramdas Pophale) SiO2 
 PCOD8280658
Probable space group: C M M A
;
_chemical_formula_sum "Si O2"
_cell_formula_units_Z 112
_cell_length_a 18.232667
_cell_length_b 14.359379
_cell_length_c 23.171445
_cell_angle_alpha 90.000000
_cell_angle_beta 90.000000
_cell_angle_gamma 90.000000
_cell_volume 6066.510817
_symmetry_space_group_name_H-M "C M M A"
_symmetry_group_IT_number 67
_symmetry_cell_setting 'orthorhombic'
loop_
_space_group_symop_operation_xyz
x,y,z
-x,1/2-y,z
x,-y,-z
-x,1/2+y,-z
-x,-y,-z
x,1/2+y,-z
-x,y,z
x,1/2-y,z
1/2+x,1/2+y,z
1/2-x,-y,z
1/2+x,1/2-y,-z
1/2-x,y,-z
1/2-x,1/2-y,-z
1/2+x,y,-z
1/2-x,1/2+y,z
1/2+x,-y,z
loop_
_atom_site_type_symbol
_atom_site_label
_atom_site_fract_x
_atom_site_fract_y
_atom_site_fract_z
Si Si1 0.827877 0.856511 0.358645
Si Si2 0.341278 0.358406 0.060540
Si Si3 0.842429 0.142792 0.353923
Si Si4 0.666354 0.995875 0.741721
Si Si5 0.825748 0.141709 0.070079
Si Si6 0.584907 0.003506 0.432543
Si Si7 0.914472 0.499476 0.140949
O O1 0.853947 0.750000 0.354701
O O2 0.742013 0.864402 0.372815
O O3 0.845491 0.905933 0.298244
O O4 0.871078 0.907600 0.409410
O O5 0.353866 0.250000 0.071382
O O6 0.258807 0.388336 0.077039
O O7 0.398278 0.412675 0.100187
O O8 0.354891 0.383916 0.993673
O O9 0.867703 0.250000 0.347088
O O10 0.889443 0.093241 0.403680
O O11 0.854159 0.090028 0.293040
O O12 0.611943 0.981380 0.794546
O O13 0.750000 0.000000 0.764085
O O14 0.833822 0.250000 0.081672
O O15 0.873807 0.091367 0.117659
O O16 0.500000 0.018340 0.418197
O O17 0.600298 0.000000 0.500000
O O18 0.000000 0.479429 0.141430
#
# Coordination Sequence:
#
# PCOD8280658 Si02
#       7
#    16  16  16  16  16  16  16
#     4   9  19  37  60  82 103 134 179 227 270 307
#     4   9  19  37  59  79 100 133 178 221 260 309
#     4   9  19  37  60  82 103 134 179 227 270 307
#     4   9  19  36  55  76 104 138 178 221 262 310
#     4   9  19  37  59  79 100 133 178 221 260 309
#     4  10  21  35  52  80 117 150 178 209 251 311
#     4  12  24  34  50  80 113 141 170 210 265 322
#
# _framework density 18.462012999999999
#
# number of rings (size 3 to 8) (size 9 to 14) (size 15 to 20)
#    0.000    2.429    0.000    3.857    0.000    8.571 
#    0.000    7.143    0.000    0.000    0.000    0.000 
#    0.000    0.000    0.000    0.000    0.000    0.000 
#
# Total GULP energy -694511.970302 kJ/mol
# GULP energy per Si atom -12401.999470 kJ/mol
# Density = 1.841999 g / cm^3
# Si number density = 18.462013 Si / 1000 Ang^3
#
#
#
# Elastic Constant Matrix: (Units=GPa)
#
#
# Indices 1 2 3 4 5 6 
#
# 1 55.0444 8.9036 26.5274 0.0000 0.0000 0.0000
# 2 8.9036 100.0775 20.3871 0.0000 0.0000 0.0000
# 3 26.5274 20.3871 75.2731 0.0000 0.0000 0.0000
# 4 0.0000 0.0000 0.0000 467.0657 0.0000 0.0000
# 5 0.0000 0.0000 0.0000 0.0000 11.5023 0.0000
# 6 0.0000 0.0000 0.0000 0.0000 0.0000 13.6867
#
#
#
# Elastic Compliance Matrix: (Units=1/GPa)
#
#
# Indices 1 2 3 4 5 6 
#
# 1 0.021899 -0.000398 -0.007610 0.000000 0.000000 0.000000
# 2 -0.000398 0.010583 -0.002726 0.000000 0.000000 0.000000
# 3 -0.007610 -0.002726 0.016705 0.000000 0.000000 0.000000
# 4 0.000000 0.000000 0.000000 0.002141 0.000000 0.000000
# 5 0.000000 0.000000 0.000000 0.000000 0.086939 0.000000
# 6 0.000000 0.000000 0.000000 0.000000 0.000000 0.073064
#
#
# Mechanical properties :
#
#
# Convention : Reuss Voigt Hill
#
# Bulk Modulus (GPa) = 36.07591 38.00346 37.03969
# Shear Modulus (GPa) = 20.65794 110.08940 65.37367
#
# Velocity S-wave (km/s) = 3.34869 7.73044 5.95707
# Velocity P-wave (km/s) = 5.87662 10.01543 8.21108
#
# Compressibility (1/GPa) = 0.02771933
#
# Stress axis : x y z
#
# Youngs Moduli (GPa) = 45.66450 94.49110 59.86214
#
# Poissons Ratio (x) = 0.03762 0.45553
# Poissons Ratio (y) = 0.01818 0.16319
# Poissons Ratio (z) = 0.34749 0.25759
#
# Static dielectric constant tensor:
#      x y z
#    x 3.303010 0.000000 0.000000 
#    y 0.000000 3.543470 0.000000 
#    z 0.000000 0.000000 3.294680 
# 
# 
# High freq. dielectric constant tensor:
#      x y z
#    x 1.706330 0.000000 0.000000 
#    y 0.000000 1.725720 0.000000 
#    z 0.000000 0.000000 1.713250 
# 
# From -- ./inp_files/41951.got.cif
#   From: 2010.03.12/outbox.cif.g09.slc.cpg/sg67_21_cif.got.tgz:41951.got - 2010.04.10 22:41:39.
