data_PCOD8280187
_publ_section_title
;
Structure prediction by ZEFSAII (Michael W. Deem and Ramdas Pophale) SiO2 
 PCOD8280187
Probable space group: C M M A
;
_chemical_formula_sum "Si O2"
_cell_formula_units_Z 56
_cell_length_a 8.520811
_cell_length_b 25.388384
_cell_length_c 14.316684
_cell_angle_alpha 90.000000
_cell_angle_beta 90.000000
_cell_angle_gamma 90.000000
_cell_volume 3097.122833
_symmetry_space_group_name_H-M "C M M A"
_symmetry_group_IT_number 67
_symmetry_cell_setting 'orthorhombic'
loop_
_space_group_symop_operation_xyz
x,y,z
-x,1/2-y,z
x,-y,-z
-x,1/2+y,-z
-x,-y,-z
x,1/2+y,-z
-x,y,z
x,1/2-y,z
1/2+x,1/2+y,z
1/2-x,-y,z
1/2+x,1/2-y,-z
1/2-x,y,-z
1/2-x,1/2-y,-z
1/2+x,y,-z
1/2-x,1/2+y,z
1/2+x,-y,z
loop_
_atom_site_type_symbol
_atom_site_label
_atom_site_fract_x
_atom_site_fract_y
_atom_site_fract_z
Si Si1 0.683275 0.188488 0.900897
Si Si2 0.814874 0.750000 0.603445
Si Si3 0.814116 0.557398 0.599803
Si Si4 0.815650 0.651151 0.286306
O O1 0.500000 0.175786 0.894769
O O2 0.717266 0.250000 0.885391
O O3 0.775810 0.156162 0.822669
O O4 0.750000 0.169618 0.000000
O O5 0.750000 0.750000 0.500000
O O6 0.759700 0.698503 0.656744
O O7 0.000000 0.750000 0.600151
O O8 0.750000 0.500000 0.624890
O O9 0.750000 0.577071 0.500000
O O10 0.756341 0.596439 0.679692
O O11 0.000000 0.555865 0.595508
O O12 0.000000 0.651620 0.302543
#
# Coordination Sequence:
#
# PCOD8280187 Si02
#       4
#    16   8  16  16
#     4  10  20  35  56  82 114 149 188 232 280 334
#     4  12  24  38  53  78 113 150 186 228 280 338
#     4  11  22  39  60  84 113 148 192 237 281 332
#     4  12  23  37  57  83 114 150 188 231 282 336
#
# _framework density 18.081298
#
# number of rings (size 3 to 8) (size 9 to 14) (size 15 to 20)
#    0.000    0.857    1.429    9.000    0.000    1.143 
#    0.000    0.000    0.000    0.857    0.000    6.000 
#    0.000    0.000    0.000    0.000    0.000    0.000 
#
# Total GULP energy -347390.892050 kJ/mol
# GULP energy per Si atom -12406.817573 kJ/mol
# Density = 1.804014 g / cm^3
# Si number density = 18.081298 Si / 1000 Ang^3
#
#
#
# Elastic Constant Matrix: (Units=GPa)
#
#
# Indices 1 2 3 4 5 6 
#
# 1 177.0501 51.8161 56.6788 0.0000 0.0000 0.0000
# 2 51.8161 91.6597 64.6673 0.0000 0.0000 0.0000
# 3 56.6788 64.6673 138.7176 0.0000 0.0000 0.0000
# 4 0.0000 0.0000 0.0000 15.4635 0.0000 0.0000
# 5 0.0000 0.0000 0.0000 0.0000 36.9967 0.0000
# 6 0.0000 0.0000 0.0000 0.0000 0.0000 30.2894
#
#
#
# Elastic Compliance Matrix: (Units=1/GPa)
#
#
# Indices 1 2 3 4 5 6 
#
# 1 0.006973 -0.002879 -0.001507 0.000000 0.000000 0.000000
# 2 -0.002879 0.017445 -0.006956 0.000000 0.000000 0.000000
# 3 -0.001507 -0.006956 0.011068 0.000000 0.000000 0.000000
# 4 0.000000 0.000000 0.000000 0.064668 0.000000 0.000000
# 5 0.000000 0.000000 0.000000 0.000000 0.027029 0.000000
# 6 0.000000 0.000000 0.000000 0.000000 0.000000 0.033015
#
#
# Mechanical properties :
#
#
# Convention : Reuss Voigt Hill
#
# Bulk Modulus (GPa) = 78.11613 83.75020 80.93317
# Shear Modulus (GPa) = 26.71657 32.16760 29.44208
#
# Velocity S-wave (km/s) = 3.84810 4.22246 4.03962
# Velocity P-wave (km/s) = 7.93980 8.37803 8.16186
#
# Compressibility (1/GPa) = 0.01280145
#
# Stress axis : x y z
#
# Youngs Moduli (GPa) = 143.40878 57.32290 90.35364
#
# Poissons Ratio (x) = 0.16501 0.13618
# Poissons Ratio (y) = 0.41282 0.62853
# Poissons Ratio (z) = 0.21614 0.39876
#
# Static dielectric constant tensor:
#      x y z
#    x 3.624140 0.000000 0.000000 
#    y 0.000000 3.168480 0.000000 
#    z 0.000000 0.000000 3.500150 
# 
# 
# High freq. dielectric constant tensor:
#      x y z
#    x 1.728290 0.000000 0.000000 
#    y 0.000000 1.684610 0.000000 
#    z 0.000000 0.000000 1.706810 
# 
# From -- ./inp_files/15537.got.cif
#   From: 2010.03.12/outbox.cif.g09.slc.cpg/sg67_8_cif.got.tgz:15537.got - 2010.04.10 22:41:39.
