data_PCOD8280743
_publ_section_title
;
Structure prediction by ZEFSAII (Michael W. Deem and Ramdas Pophale) SiO2 
 PCOD8280743
Probable space group: C M M A
;
_chemical_formula_sum "Si O2"
_cell_formula_units_Z 80
_cell_length_a 26.097337
_cell_length_b 28.206878
_cell_length_c 5.012363
_cell_angle_alpha 90.000000
_cell_angle_beta 90.000000
_cell_angle_gamma 90.000000
_cell_volume 3689.722710
_symmetry_space_group_name_H-M "C M M A"
_symmetry_group_IT_number 67
_symmetry_cell_setting 'orthorhombic'
loop_
_space_group_symop_operation_xyz
x,y,z
-x,1/2-y,z
x,-y,-z
-x,1/2+y,-z
-x,-y,-z
x,1/2+y,-z
-x,y,z
x,1/2-y,z
1/2+x,1/2+y,z
1/2-x,-y,z
1/2+x,1/2-y,-z
1/2-x,y,-z
1/2-x,1/2-y,-z
1/2+x,y,-z
1/2-x,1/2+y,z
1/2+x,-y,z
loop_
_atom_site_type_symbol
_atom_site_label
_atom_site_fract_x
_atom_site_fract_y
_atom_site_fract_z
Si Si1 0.699094 0.195424 0.662957
Si Si2 0.443416 0.645434 0.031934
Si Si3 0.309059 0.551949 0.559913
Si Si4 0.661481 0.107125 0.933670
Si Si5 0.411209 0.697358 0.538312
O O1 0.703820 0.250000 0.769935
O O2 0.750000 0.180591 0.500000
O O3 0.689394 0.159347 0.914712
O O4 0.650381 0.190012 0.466089
O O5 0.500000 0.623079 0.987291
O O6 0.397953 0.608287 0.974493
O O7 0.439536 0.662623 0.334942
O O8 0.433410 0.689081 0.832372
O O9 0.332883 0.500000 0.500000
O O10 0.250000 0.550543 0.500000
O O11 0.337735 0.588272 0.367969
O O12 0.312304 0.570351 0.864393
O O13 0.425473 0.750000 0.450460
#
# Coordination Sequence:
#
# PCOD8280743 Si02
#       5
#    16  16  16  16  16
#     4   9  19  37  60  90 131 172 206 241 290 362
#     4  11  23  38  57  82 114 156 202 250 302 348
#     4  11  24  42  67  96 122 151 193 248 308 365
#     4  11  22  40  64  90 123 161 201 247 301 358
#     4  10  21  36  55  82 115 156 208 255 293 340
#
# _framework density 21.681846
#
# number of rings (size 3 to 8) (size 9 to 14) (size 15 to 20)
#    0.000    1.600    0.000    5.400    0.000    6.400 
#    0.000    4.000    0.000   34.200    0.000    0.000 
#    0.000    0.000    0.000    0.000    0.000    0.000 
#
# Total GULP energy -495821.088307 kJ/mol
# GULP energy per Si atom -12395.527208 kJ/mol
# Density = 2.163250 g / cm^3
# Si number density = 21.681846 Si / 1000 Ang^3
#
#
#
# Elastic Constant Matrix: (Units=GPa)
#
#
# Indices 1 2 3 4 5 6 
#
# 1 130.9228 30.4585 25.1957 0.0000 0.0000 0.0000
# 2 30.4585 111.4048 32.0635 0.0000 0.0000 0.0000
# 3 25.1957 32.0635 90.2089 0.0000 0.0000 0.0000
# 4 0.0000 0.0000 0.0000 21.6295 0.0000 0.0000
# 5 0.0000 0.0000 0.0000 0.0000 24.8724 0.0000
# 6 0.0000 0.0000 0.0000 0.0000 0.0000 11.5578
#
#
#
# Elastic Compliance Matrix: (Units=1/GPa)
#
#
# Indices 1 2 3 4 5 6 
#
# 1 0.008385 -0.001803 -0.001701 0.000000 0.000000 0.000000
# 2 -0.001803 0.010387 -0.003188 0.000000 0.000000 0.000000
# 3 -0.001701 -0.003188 0.012694 0.000000 0.000000 0.000000
# 4 0.000000 0.000000 0.000000 0.046233 0.000000 0.000000
# 5 0.000000 0.000000 0.000000 0.000000 0.040205 0.000000
# 6 0.000000 0.000000 0.000000 0.000000 0.000000 0.086522
#
#
# Mechanical properties :
#
#
# Convention : Reuss Voigt Hill
#
# Bulk Modulus (GPa) = 55.30709 56.44134 55.87421
# Shear Modulus (GPa) = 22.33768 27.93321 25.13544
#
# Velocity S-wave (km/s) = 3.21323 3.59321 3.40852
# Velocity P-wave (km/s) = 6.27139 6.58051 6.42781
#
# Compressibility (1/GPa) = 0.01808086
#
# Stress axis : x y z
#
# Youngs Moduli (GPa) = 119.26218 96.27599 78.77896
#
# Poissons Ratio (x) = 0.17357 0.13401
# Poissons Ratio (y) = 0.21501 0.25117
# Poissons Ratio (z) = 0.20288 0.30696
#
# Static dielectric constant tensor:
#      x y z
#    x 4.041250 0.000000 0.000000 
#    y 0.000000 4.116730 0.000000 
#    z 0.000000 0.000000 3.999610 
# 
# 
# High freq. dielectric constant tensor:
#      x y z
#    x 1.848030 0.000000 0.000000 
#    y 0.000000 1.827670 0.000000 
#    z 0.000000 0.000000 1.855000 
# 
# From -- ./inp_files/3536.got.cif
#   From: 2010.03.12/outbox.cif.g09.slc.cpg/sg67_2_cif.got.tgz:3536.got - 2010.04.10 22:41:39.
