data_PCOD8280384
_publ_section_title
;
Structure prediction by ZEFSAII (Michael W. Deem and Ramdas Pophale) SiO2 
 PCOD8280384
Probable space group: C M M A
;
_chemical_formula_sum "Si O2"
_cell_formula_units_Z 72
_cell_length_a 16.008245
_cell_length_b 8.873775
_cell_length_c 25.003196
_cell_angle_alpha 90.000000
_cell_angle_beta 90.000000
_cell_angle_gamma 90.000000
_cell_volume 3551.793110
_symmetry_space_group_name_H-M "C M M A"
_symmetry_group_IT_number 67
_symmetry_cell_setting 'orthorhombic'
loop_
_space_group_symop_operation_xyz
x,y,z
-x,1/2-y,z
x,-y,-z
-x,1/2+y,-z
-x,-y,-z
x,1/2+y,-z
-x,y,z
x,1/2-y,z
1/2+x,1/2+y,z
1/2-x,-y,z
1/2+x,1/2-y,-z
1/2-x,y,-z
1/2-x,1/2-y,-z
1/2+x,y,-z
1/2-x,1/2+y,z
1/2+x,-y,z
loop_
_atom_site_type_symbol
_atom_site_label
_atom_site_fract_x
_atom_site_fract_y
_atom_site_fract_z
Si Si1 0.500000 0.428535 0.442209
Si Si2 0.160001 0.572859 0.947572
Si Si3 0.335877 0.428318 0.377984
Si Si4 0.592940 0.428911 0.268356
Si Si5 0.902798 0.084540 0.847118
O O1 0.500000 0.250000 0.446721
O O2 0.500000 0.500000 0.500000
O O3 0.416149 0.483316 0.411834
O O4 0.165638 0.750000 0.955880
O O5 0.250000 0.500000 0.941564
O O6 0.110799 0.536413 0.893608
O O7 0.115330 0.500000 0.000000
O O8 0.327038 0.250000 0.381459
O O9 0.250000 0.500000 0.400363
O O10 0.348917 0.485855 0.316797
O O11 0.500000 0.498386 0.275647
O O12 0.585827 0.250000 0.271106
O O13 0.632805 0.474400 0.210245
O O14 0.864597 0.250000 0.862372
O O15 0.000000 0.105164 0.837528
#
# Coordination Sequence:
#
# PCOD8280384 Si02
#       5
#     8  16  16  16  16
#     4  10  22  40  62  84 116 158 197 238 287 340
#     4  11  22  37  55  73 100 137 180 228 279 334
#     4  10  20  36  59  87 116 152 196 239 286 341
#     4   8  14  30  56  80 107 145 185 223 272 335
#     4   9  18  33  55  82 109 140 178 220 269 330
#
# _framework density 20.271450000000002
#
# number of rings (size 3 to 8) (size 9 to 14) (size 15 to 20)
#    0.000    2.444    1.111    4.000    0.000    3.111 
#    0.000    5.556    0.000    1.333    0.000    0.000 
#    0.000    0.000    0.000    0.000    0.000    0.000 
#
# Total GULP energy -446121.588076 kJ/mol
# GULP energy per Si atom -12392.266335 kJ/mol
# Density = 2.022531 g / cm^3
# Si number density = 20.271450 Si / 1000 Ang^3
#
#
#
# Elastic Constant Matrix: (Units=GPa)
#
#
# Indices 1 2 3 4 5 6 
#
# 1 101.2349 28.0429 58.1427 0.0000 0.0000 0.0000
# 2 28.0429 77.0588 46.0653 0.0000 0.0000 0.0000
# 3 58.1427 46.0653 169.4223 0.0000 0.0000 0.0000
# 4 0.0000 0.0000 0.0000 27.9701 0.0000 0.0000
# 5 0.0000 0.0000 0.0000 0.0000 18.3658 0.0000
# 6 0.0000 0.0000 0.0000 0.0000 0.0000 24.1045
#
#
#
# Elastic Compliance Matrix: (Units=1/GPa)
#
#
# Indices 1 2 3 4 5 6 
#
# 1 0.012664 -0.002401 -0.003693 0.000000 0.000000 0.000000
# 2 -0.002401 0.015951 -0.003513 0.000000 0.000000 0.000000
# 3 -0.003693 -0.003513 0.008125 0.000000 0.000000 0.000000
# 4 0.000000 0.000000 0.000000 0.035752 0.000000 0.000000
# 5 0.000000 0.000000 0.000000 0.000000 0.054449 0.000000
# 6 0.000000 0.000000 0.000000 0.000000 0.000000 0.041486
#
#
# Mechanical properties :
#
#
# Convention : Reuss Voigt Hill
#
# Bulk Modulus (GPa) = 57.05899 68.02420 62.54160
# Shear Modulus (GPa) = 25.84190 28.45243 27.14716
#
# Velocity S-wave (km/s) = 3.57430 3.75049 3.66345
# Velocity P-wave (km/s) = 6.72627 7.23771 6.98667
#
# Compressibility (1/GPa) = 0.01752572
#
# Stress axis : x y z
#
# Youngs Moduli (GPa) = 78.96202 62.69237 123.07532
#
# Poissons Ratio (x) = 0.15052 0.45456
# Poissons Ratio (y) = 0.18958 0.43237
# Poissons Ratio (z) = 0.29164 0.22024
#
# Static dielectric constant tensor:
#      x y z
#    x 3.548920 0.000000 0.000000 
#    y 0.000000 3.376420 0.000000 
#    z 0.000000 0.000000 4.335870 
# 
# 
# High freq. dielectric constant tensor:
#      x y z
#    x 1.775230 0.000000 0.000000 
#    y 0.000000 1.757250 0.000000 
#    z 0.000000 0.000000 1.808080 
# 
# From -- ./inp_files/42125.got.cif
#   From: 2010.03.12/outbox.cif.g09.slc.cpg/sg67_22_cif.got.tgz:42125.got - 2010.04.10 22:41:39.
