data_PCOD8280703
_publ_section_title
;
Structure prediction by ZEFSAII (Michael W. Deem and Ramdas Pophale) SiO2 
 PCOD8280703
Probable space group: C M M A
;
_chemical_formula_sum "Si O2"
_cell_formula_units_Z 80
_cell_length_a 19.714192
_cell_length_b 9.103392
_cell_length_c 24.862469
_cell_angle_alpha 90.000000
_cell_angle_beta 90.000000
_cell_angle_gamma 90.000000
_cell_volume 4461.968303
_symmetry_space_group_name_H-M "C M M A"
_symmetry_group_IT_number 67
_symmetry_cell_setting 'orthorhombic'
loop_
_space_group_symop_operation_xyz
x,y,z
-x,1/2-y,z
x,-y,-z
-x,1/2+y,-z
-x,-y,-z
x,1/2+y,-z
-x,y,z
x,1/2-y,z
1/2+x,1/2+y,z
1/2-x,-y,z
1/2+x,1/2-y,-z
1/2-x,y,-z
1/2-x,1/2-y,-z
1/2+x,y,-z
1/2-x,1/2+y,z
1/2+x,-y,z
loop_
_atom_site_type_symbol
_atom_site_label
_atom_site_fract_x
_atom_site_fract_y
_atom_site_fract_z
Si Si1 0.578776 0.421830 0.331249
Si Si2 0.181131 0.421450 0.131138
Si Si3 0.317721 0.580447 0.257045
Si Si4 0.419400 0.912055 0.549997
Si Si5 0.920652 0.420988 0.945038
O O1 0.500000 0.451013 0.320672
O O2 0.595616 0.250000 0.325189
O O3 0.618292 0.514888 0.287511
O O4 0.599442 0.477601 0.391333
O O5 0.184390 0.250000 0.115634
O O6 0.250000 0.500000 0.111633
O O7 0.170132 0.444888 0.194189
O O8 0.117945 0.499868 0.103244
O O9 0.309921 0.750000 0.271556
O O10 0.250000 0.500000 0.276891
O O11 0.500000 0.906468 0.544913
O O12 0.388725 0.750000 0.545624
O O13 0.387158 0.000000 0.500000
O O14 0.900584 0.250000 0.948381
O O15 0.000000 0.441337 0.933720
O O16 0.898939 0.500000 0.000000
#
# Coordination Sequence:
#
# PCOD8280703 Si02
#       5
#    16  16  16  16  16
#     4   9  18  32  50  74 104 135 168 208 253 302
#     4  10  21  37  56  78 104 134 172 215 255 300
#     4  10  21  36  54  75 101 135 172 211 256 304
#     4   8  14  25  42  66  96 129 163 201 247 296
#     4  10  21  37  57  81 109 140 172 207 251 301
#
# _framework density 17.929307999999999
#
# number of rings (size 3 to 8) (size 9 to 14) (size 15 to 20)
#    0.000    2.600    0.000    3.000    0.000    6.000 
#    0.000    8.000    0.000    0.600    0.000    4.200 
#    0.000    0.000    0.000    0.000    0.000    0.000 
#
# Total GULP energy -495955.563370 kJ/mol
# GULP energy per Si atom -12398.889084 kJ/mol
# Density = 1.788850 g / cm^3
# Si number density = 17.929308 Si / 1000 Ang^3
#
#
#
# Elastic Constant Matrix: (Units=GPa)
#
#
# Indices 1 2 3 4 5 6 
#
# 1 67.7801 58.4491 52.8093 0.0000 0.0000 0.0000
# 2 58.4491 127.7576 65.3776 0.0000 0.0000 0.0000
# 3 52.8093 65.3776 81.2363 0.0000 0.0000 0.0000
# 4 0.0000 0.0000 0.0000 37.3637 0.0000 0.0000
# 5 0.0000 0.0000 0.0000 0.0000 5.0183 0.0000
# 6 0.0000 0.0000 0.0000 0.0000 0.0000 32.1234
#
#
#
# Elastic Compliance Matrix: (Units=1/GPa)
#
#
# Indices 1 2 3 4 5 6 
#
# 1 0.033261 -0.007060 -0.015941 0.000000 0.000000 0.000000
# 2 -0.007060 0.014806 -0.007327 0.000000 0.000000 0.000000
# 3 -0.015941 -0.007327 0.028569 0.000000 0.000000 0.000000
# 4 0.000000 0.000000 0.000000 0.026764 0.000000 0.000000
# 5 0.000000 0.000000 0.000000 0.000000 0.199271 0.000000
# 6 0.000000 0.000000 0.000000 0.000000 0.000000 0.031130
#
#
# Mechanical properties :
#
#
# Convention : Reuss Voigt Hill
#
# Bulk Modulus (GPa) = 62.56899 70.00512 66.28705
# Shear Modulus (GPa) = 12.50682 21.57693 17.04187
#
# Velocity S-wave (km/s) = 2.64401 3.47283 3.08637
# Velocity P-wave (km/s) = 6.65540 7.43038 7.05354
#
# Compressibility (1/GPa) = 0.01598236
#
# Stress axis : x y z
#
# Youngs Moduli (GPa) = 30.06511 67.53837 35.00341
#
# Poissons Ratio (x) = 0.47680 0.55798
# Poissons Ratio (y) = 0.21225 0.25646
# Poissons Ratio (z) = 0.47926 0.49483
#
# Static dielectric constant tensor:
#      x y z
#    x 3.067400 0.000000 0.000000 
#    y 0.000000 3.508830 0.000000 
#    z 0.000000 0.000000 3.395240 
# 
# 
# High freq. dielectric constant tensor:
#      x y z
#    x 1.670380 0.000000 0.000000 
#    y 0.000000 1.702760 0.000000 
#    z 0.000000 0.000000 1.700080 
# 
# From -- ./inp_files/43279.got.cif
#   From: 2010.03.12/outbox.cif.g09.slc.cpg/sg67_22_cif.got.tgz:43279.got - 2010.04.10 22:41:39.
