data_PCOD8280134
_publ_section_title
;
Structure prediction by ZEFSAII (Michael W. Deem and Ramdas Pophale) SiO2 
 PCOD8280134
Probable space group: C M M A
;
_chemical_formula_sum "Si O2"
_cell_formula_units_Z 80
_cell_length_a 17.442310
_cell_length_b 9.679536
_cell_length_c 24.329741
_cell_angle_alpha 90.000000
_cell_angle_beta 90.000000
_cell_angle_gamma 90.000000
_cell_volume 4107.674538
_symmetry_space_group_name_H-M "C M M A"
_symmetry_group_IT_number 67
_symmetry_cell_setting 'orthorhombic'
loop_
_space_group_symop_operation_xyz
x,y,z
-x,1/2-y,z
x,-y,-z
-x,1/2+y,-z
-x,-y,-z
x,1/2+y,-z
-x,y,z
x,1/2-y,z
1/2+x,1/2+y,z
1/2-x,-y,z
1/2+x,1/2-y,-z
1/2-x,y,-z
1/2-x,1/2-y,-z
1/2+x,y,-z
1/2-x,1/2+y,z
1/2+x,-y,z
loop_
_atom_site_type_symbol
_atom_site_label
_atom_site_fract_x
_atom_site_fract_y
_atom_site_fract_z
Si Si1 0.590355 0.905104 0.663459
Si Si2 0.175490 0.250000 0.927885
Si Si3 0.411295 0.000041 0.879239
Si Si4 0.354414 0.250000 0.945572
Si Si5 0.908924 0.903026 0.759411
Si Si6 0.328938 0.917395 0.550673
O O1 0.500000 0.921805 0.660587
O O2 0.614691 0.750000 0.678644
O O3 0.621603 0.947335 0.604289
O O4 0.625597 0.000770 0.711397
O O5 0.145768 0.380475 0.895406
O O6 0.266928 0.250000 0.925862
O O7 0.141717 0.250000 0.988954
O O8 0.500000 0.951988 0.879072
O O9 0.400747 0.119688 0.923569
O O10 0.383328 0.046202 0.819178
O O11 0.875948 0.750000 0.749786
O O12 0.000000 0.902651 0.756641
O O13 0.319172 0.750000 0.540222
O O14 0.369874 0.000000 0.500000
O O15 0.250000 0.000000 0.559133
#
# Coordination Sequence:
#
# PCOD8280134 Si02
#       6
#    16   8  16   8  16  16
#     4   9  19  35  57  83 111 144 184 229 276 330
#     4  11  25  39  59  85 117 153 190 229 300 351
#     4  11  22  38  62  89 113 146 196 244 284 341
#     4  11  23  43  59  79 119 159 184 233 292 359
#     4   9  18  34  56  82 111 143 180 227 282 330
#     4  10  20  35  55  79 111 150 188 229 277 325
#
# _framework density 19.475739999999998
#
# number of rings (size 3 to 8) (size 9 to 14) (size 15 to 20)
#    0.000    2.000    1.000    3.000    1.400    6.000 
#    0.000    2.000    0.000    0.000    0.000    0.000 
#    0.000    0.000    0.000    0.000    0.000    0.000 
#
# Total GULP energy -495837.324515 kJ/mol
# GULP energy per Si atom -12395.933113 kJ/mol
# Density = 1.943141 g / cm^3
# Si number density = 19.475740 Si / 1000 Ang^3
#
#
#
# Elastic Constant Matrix: (Units=GPa)
#
#
# Indices 1 2 3 4 5 6 
#
# 1 24.8286 20.1012 27.4154 0.0000 0.0000 0.0000
# 2 20.1012 143.2483 75.7171 0.0000 0.0000 0.0000
# 3 27.4154 75.7171 156.8711 0.0000 0.0000 0.0000
# 4 0.0000 0.0000 0.0000 43.9949 0.0000 0.0000
# 5 0.0000 0.0000 0.0000 0.0000 19.1520 0.0000
# 6 0.0000 0.0000 0.0000 0.0000 0.0000 29.1122
#
#
#
# Elastic Compliance Matrix: (Units=1/GPa)
#
#
# Indices 1 2 3 4 5 6 
#
# 1 0.051033 -0.003285 -0.007333 0.000000 0.000000 0.000000
# 2 -0.003285 0.009583 -0.004051 0.000000 0.000000 0.000000
# 3 -0.007333 -0.004051 0.009612 0.000000 0.000000 0.000000
# 4 0.000000 0.000000 0.000000 0.022730 0.000000 0.000000
# 5 0.000000 0.000000 0.000000 0.000000 0.052214 0.000000
# 6 0.000000 0.000000 0.000000 0.000000 0.000000 0.034350
#
#
# Mechanical properties :
#
#
# Convention : Reuss Voigt Hill
#
# Bulk Modulus (GPa) = 24.45665 63.49060 43.97362
# Shear Modulus (GPa) = 22.47286 31.89944 27.18615
#
# Velocity S-wave (km/s) = 3.40058 4.05150 3.74023
# Velocity P-wave (km/s) = 5.29182 7.38626 6.42496
#
# Compressibility (1/GPa) = 0.04088868
#
# Stress axis : x y z
#
# Youngs Moduli (GPa) = 19.59519 104.34739 104.03916
#
# Poissons Ratio (x) = 0.34279 0.76293
# Poissons Ratio (y) = 0.06437 0.42151
# Poissons Ratio (z) = 0.14369 0.42276
#
# Static dielectric constant tensor:
#      x y z
#    x 3.278080 0.000000 0.000000 
#    y 0.000000 3.785170 0.000000 
#    z 0.000000 0.000000 3.922210 
# 
# 
# High freq. dielectric constant tensor:
#      x y z
#    x 1.732740 0.000000 0.000000 
#    y 0.000000 1.772270 0.000000 
#    z 0.000000 0.000000 1.774590 
# 
# From -- ./inp_files/44455.got.cif
#   From: 2010.03.12/outbox.cif.g09.slc.cpg/sg67_23_cif.got.tgz:44455.got - 2010.04.10 22:41:39.
