data_PCOD8280721
_publ_section_title
;
Structure prediction by ZEFSAII (Michael W. Deem and Ramdas Pophale) SiO2 
 PCOD8280721
Probable space group: C M M A
;
_chemical_formula_sum "Si O2"
_cell_formula_units_Z 112
_cell_length_a 18.664456
_cell_length_b 23.295357
_cell_length_c 13.857969
_cell_angle_alpha 90.000000
_cell_angle_beta 90.000000
_cell_angle_gamma 90.000000
_cell_volume 6025.377928
_symmetry_space_group_name_H-M "C M M A"
_symmetry_group_IT_number 67
_symmetry_cell_setting 'orthorhombic'
loop_
_space_group_symop_operation_xyz
x,y,z
-x,1/2-y,z
x,-y,-z
-x,1/2+y,-z
-x,-y,-z
x,1/2+y,-z
-x,y,z
x,1/2-y,z
1/2+x,1/2+y,z
1/2-x,-y,z
1/2+x,1/2-y,-z
1/2-x,y,-z
1/2-x,1/2-y,-z
1/2+x,y,-z
1/2-x,1/2+y,z
1/2+x,-y,z
loop_
_atom_site_type_symbol
_atom_site_label
_atom_site_fract_x
_atom_site_fract_y
_atom_site_fract_z
Si Si1 0.917991 0.684289 0.985655
Si Si2 0.651367 0.683496 0.212379
Si Si3 0.081389 0.901033 0.649392
Si Si4 0.081994 0.528528 0.314932
Si Si5 0.823919 0.591726 0.465922
Si Si6 0.200931 0.184265 0.691540
Si Si7 0.417588 0.631879 0.815114
O O1 0.907217 0.750000 0.021023
O O2 0.862903 0.669656 0.899973
O O3 0.000000 0.675274 0.950794
O O4 0.899122 0.640535 0.072379
O O5 0.636825 0.750000 0.233252
O O6 0.594000 0.648535 0.273748
O O7 0.731927 0.665353 0.241438
O O8 0.130127 0.889060 0.557260
O O9 0.000000 0.899237 0.613485
O O10 0.098088 0.961637 0.703063
O O11 0.132053 0.546509 0.403352
O O12 0.098616 0.566086 0.218630
O O13 0.000000 0.538540 0.346984
O O14 0.750000 0.562042 0.500000
O O15 0.802130 0.648093 0.406054
O O16 0.207810 0.250000 0.660407
O O17 0.128827 0.175464 0.752094
O O18 0.500000 0.648307 0.796147
#
# Coordination Sequence:
#
# PCOD8280721 Si02
#       7
#    16  16  16  16  16  16  16
#     4   9  17  31  55  83 109 143 186 226 266 323
#     4  10  21  37  54  78 113 146 181 226 273 323
#     4  11  22  37  56  79 107 144 185 226 274 325
#     4   9  20  37  56  79 109 139 177 230 275 320
#     4  11  21  36  54  81 105 141 182 225 271 325
#     4  10  21  36  54  79 111 145 180 225 275 324
#     4   9  18  35  56  81 111 142 178 225 276 324
#
# _framework density 18.588045999999999
#
# number of rings (size 3 to 8) (size 9 to 14) (size 15 to 20)
#    0.000    2.143    1.429    1.714    0.000    6.000 
#    0.000    2.857    0.000    3.429    0.000    2.000 
#    0.000    0.000    0.000    0.000    0.000    0.000 
#
# Total GULP energy -694402.454117 kJ/mol
# GULP energy per Si atom -12400.043824 kJ/mol
# Density = 1.854574 g / cm^3
# Si number density = 18.588046 Si / 1000 Ang^3
#
#
#
# Elastic Constant Matrix: (Units=GPa)
#
#
# Indices 1 2 3 4 5 6 
#
# 1 94.0136 46.8764 56.7991 0.0000 0.0000 0.0000
# 2 46.8764 81.8027 60.6243 0.0000 0.0000 0.0000
# 3 56.7991 60.6243 122.6603 0.0000 0.0000 0.0000
# 4 0.0000 0.0000 0.0000 23.1195 0.0000 0.0000
# 5 0.0000 0.0000 0.0000 0.0000 35.0841 0.0000
# 6 0.0000 0.0000 0.0000 0.0000 0.0000 21.9395
#
#
#
# Elastic Compliance Matrix: (Units=1/GPa)
#
#
# Indices 1 2 3 4 5 6 
#
# 1 0.016423 -0.005957 -0.004660 0.000000 0.000000 0.000000
# 2 -0.005957 0.021451 -0.007844 0.000000 0.000000 0.000000
# 3 -0.004660 -0.007844 0.014187 0.000000 0.000000 0.000000
# 4 0.000000 0.000000 0.000000 0.043254 0.000000 0.000000
# 5 0.000000 0.000000 0.000000 0.000000 0.028503 0.000000
# 6 0.000000 0.000000 0.000000 0.000000 0.000000 0.045580
#
#
# Mechanical properties :
#
#
# Convention : Reuss Voigt Hill
#
# Bulk Modulus (GPa) = 66.05502 69.67513 67.86508
# Shear Modulus (GPa) = 23.65564 24.97374 24.31469
#
# Velocity S-wave (km/s) = 3.57126 3.66941 3.62067
# Velocity P-wave (km/s) = 7.25387 7.45104 7.35311
#
# Compressibility (1/GPa) = 0.01513889
#
# Stress axis : x y z
#
# Youngs Moduli (GPa) = 60.89144 46.61762 70.48520
#
# Poissons Ratio (x) = 0.27770 0.32849
# Poissons Ratio (y) = 0.36273 0.55286
# Poissons Ratio (z) = 0.28378 0.36565
#
# Static dielectric constant tensor:
#      x y z
#    x 3.579220 0.000000 0.000000 
#    y 0.000000 3.372150 0.000000 
#    z 0.000000 0.000000 3.393550 
# 
# 
# High freq. dielectric constant tensor:
#      x y z
#    x 1.732130 0.000000 0.000000 
#    y 0.000000 1.712940 0.000000 
#    z 0.000000 0.000000 1.713670 
# 
# From -- ./inp_files/21120.got.cif
#   From: 2010.03.12/outbox.cif.g09.slc.cpg/sg67_11_cif.got.tgz:21120.got - 2010.04.10 22:41:39.
