data_PCOD8280442
_publ_section_title
;
Structure prediction by ZEFSAII (Michael W. Deem and Ramdas Pophale) SiO2 
 PCOD8280442
Probable space group: C M M A
;
_chemical_formula_sum "Si O2"
_cell_formula_units_Z 104
_cell_length_a 9.722306
_cell_length_b 26.973440
_cell_length_c 22.479365
_cell_angle_alpha 90.000000
_cell_angle_beta 90.000000
_cell_angle_gamma 90.000000
_cell_volume 5895.079439
_symmetry_space_group_name_H-M "C M M A"
_symmetry_group_IT_number 67
_symmetry_cell_setting 'orthorhombic'
loop_
_space_group_symop_operation_xyz
x,y,z
-x,1/2-y,z
x,-y,-z
-x,1/2+y,-z
-x,-y,-z
x,1/2+y,-z
-x,y,z
x,1/2-y,z
1/2+x,1/2+y,z
1/2-x,-y,z
1/2+x,1/2-y,-z
1/2-x,y,-z
1/2-x,1/2-y,-z
1/2+x,y,-z
1/2-x,1/2+y,z
1/2+x,-y,z
loop_
_atom_site_type_symbol
_atom_site_label
_atom_site_fract_x
_atom_site_fract_y
_atom_site_fract_z
Si Si1 0.840516 0.653207 0.215824
Si Si2 0.156661 0.809029 0.554827
Si Si3 0.156957 0.692988 0.890770
Si Si4 0.156776 0.456534 0.793819
Si Si5 0.250000 0.869827 0.000000
Si Si6 0.152960 0.307532 0.658777
Si Si7 0.650776 0.041499 0.070234
O O1 0.751275 0.669413 0.159835
O O2 0.812867 0.596423 0.236105
O O3 0.799456 0.685457 0.273136
O O4 0.000000 0.660323 0.197561
O O5 0.148592 0.750000 0.555261
O O6 0.250000 0.827752 0.500000
O O7 0.232624 0.829959 0.614152
O O8 0.000000 0.830238 0.551061
O O9 0.200256 0.750000 0.900739
O O10 0.170431 0.664588 0.953337
O O11 0.000000 0.688748 0.869235
O O12 0.250000 0.500000 0.765491
O O13 0.196066 0.447639 0.862514
O O14 0.000000 0.473225 0.785104
O O15 0.352373 0.906501 0.964836
O O16 0.141517 0.250000 0.644603
O O17 0.000000 0.331434 0.649026
O O18 0.500000 0.017765 0.067877
O O19 0.750000 0.000000 0.041909
#
# Coordination Sequence:
#
# PCOD8280442 Si02
#       7
#    16  16  16  16   8  16  16
#     4  10  20  37  57  75  98 131 168 204 246 299
#     4   9  16  26  42  66  99 137 173 209 245 280
#     4  11  25  40  54  74  97 124 162 208 253 297
#     4   9  18  34  53  75  97 122 155 195 245 302
#     4  12  22  38  56  72  94 126 162 200 248 306
#     4   9  17  29  47  71  98 132 172 207 240 281
#     4  10  21  36  54  76  98 120 150 192 245 306
#
# _framework density 17.641832000000001
#
# number of rings (size 3 to 8) (size 9 to 14) (size 15 to 20)
#    0.000    2.154    1.538    1.846    0.000    6.462 
#    0.000    1.538    0.000    0.000    0.000    0.000 
#    0.000    0.615    0.000    7.077    0.000    2.462 
#
# Total GULP energy -644534.543248 kJ/mol
# GULP energy per Si atom -12394.895062 kJ/mol
# Density = 1.760168 g / cm^3
# Si number density = 17.641832 Si / 1000 Ang^3
#
#
#
# Elastic Constant Matrix: (Units=GPa)
#
#
# Indices 1 2 3 4 5 6 
#
# 1 110.6957 37.6346 45.8397 0.0000 0.0000 0.0000
# 2 37.6346 74.6762 14.1778 0.0000 0.0000 0.0000
# 3 45.8397 14.1778 69.1343 0.0000 0.0000 0.0000
# 4 0.0000 0.0000 0.0000 6.1801 0.0000 0.0000
# 5 0.0000 0.0000 0.0000 0.0000 43.9323 0.0000
# 6 0.0000 0.0000 0.0000 0.0000 0.0000 22.8179
#
#
#
# Elastic Compliance Matrix: (Units=1/GPa)
#
#
# Indices 1 2 3 4 5 6 
#
# 1 0.014452 -0.005685 -0.008417 0.000000 0.000000 0.000000
# 2 -0.005685 0.016170 0.000454 0.000000 0.000000 0.000000
# 3 -0.008417 0.000454 0.019952 0.000000 0.000000 0.000000
# 4 0.000000 0.000000 0.000000 0.161811 0.000000 0.000000
# 5 0.000000 0.000000 0.000000 0.000000 0.022762 0.000000
# 6 0.000000 0.000000 0.000000 0.000000 0.000000 0.043825
#
#
# Mechanical properties :
#
#
# Convention : Reuss Voigt Hill
#
# Bulk Modulus (GPa) = 42.95936 49.97892 46.46914
# Shear Modulus (GPa) = 15.92209 25.04300 20.48255
#
# Velocity S-wave (km/s) = 3.00746 3.77174 3.41107
# Velocity P-wave (km/s) = 6.03850 6.88181 6.47390
#
# Compressibility (1/GPa) = 0.02327782
#
# Stress axis : x y z
#
# Youngs Moduli (GPa) = 69.19431 61.84163 50.11983
#
# Poissons Ratio (x) = 0.35160 0.42183
# Poissons Ratio (y) = 0.39340 -0.02273
# Poissons Ratio (z) = 0.58238 -0.02805
#
# Static dielectric constant tensor:
#      x y z
#    x 3.406170 0.000000 0.000000 
#    y 0.000000 3.201120 0.000000 
#    z 0.000000 0.000000 3.165200 
# 
# 
# High freq. dielectric constant tensor:
#      x y z
#    x 1.687990 0.000000 0.000000 
#    y 0.000000 1.652270 0.000000 
#    z 0.000000 0.000000 1.665520 
# 
# From -- ./inp_files/41002.got.cif
#   From: 2010.03.12/outbox.cif.g09.slc.cpg/sg67_21_cif.got.tgz:41002.got - 2010.04.10 22:41:39.
