data_PCOD8280695
_publ_section_title
;
Structure prediction by ZEFSAII (Michael W. Deem and Ramdas Pophale) SiO2 
 PCOD8280695
Probable space group: C M M A
;
_chemical_formula_sum "Si O2"
_cell_formula_units_Z 104
_cell_length_a 9.148878
_cell_length_b 25.879392
_cell_length_c 23.094793
_cell_angle_alpha 90.000000
_cell_angle_beta 90.000000
_cell_angle_gamma 90.000000
_cell_volume 5468.094095
_symmetry_space_group_name_H-M "C M M A"
_symmetry_group_IT_number 67
_symmetry_cell_setting 'orthorhombic'
loop_
_space_group_symop_operation_xyz
x,y,z
-x,1/2-y,z
x,-y,-z
-x,1/2+y,-z
-x,-y,-z
x,1/2+y,-z
-x,y,z
x,1/2-y,z
1/2+x,1/2+y,z
1/2-x,-y,z
1/2+x,1/2-y,-z
1/2-x,y,-z
1/2-x,1/2-y,-z
1/2+x,y,-z
1/2-x,1/2+y,z
1/2+x,-y,z
loop_
_atom_site_type_symbol
_atom_site_label
_atom_site_fract_x
_atom_site_fract_y
_atom_site_fract_z
Si Si1 0.329397 0.158636 0.058096
Si Si2 0.332203 0.308524 0.828591
Si Si3 0.172599 0.553524 0.347269
Si Si4 0.332020 0.250000 0.440824
Si Si5 0.333599 0.549858 0.891650
Si Si6 0.328474 0.138000 0.438772
Si Si7 0.327573 0.398149 0.225891
O O1 0.500000 0.173576 0.055941
O O2 0.255652 0.187677 0.111501
O O3 0.308397 0.097072 0.064547
O O4 0.250000 0.177464 0.000000
O O5 0.500000 0.325524 0.838794
O O6 0.323292 0.250000 0.805811
O O7 0.258401 0.344094 0.779402
O O8 0.250000 0.500000 0.361769
O O9 0.228216 0.595259 0.393941
O O10 0.220560 0.573413 0.284243
O O11 0.000000 0.545330 0.350294
O O12 0.500000 0.250000 0.457242
O O13 0.250000 0.250000 0.500000
O O14 0.294150 0.195061 0.409896
O O15 0.500000 0.533187 0.888493
O O16 0.250000 0.500000 0.915197
O O17 0.279176 0.565744 0.827552
O O18 0.500000 0.131310 0.449671
O O19 0.250000 0.130144 0.500000
O O20 0.500000 0.385934 0.223957
#
# Coordination Sequence:
#
# PCOD8280695 Si02
#       7
#    16  16  16   8  16  16  16
#     4  10  21  36  53  76 106 139 177 217 260 314
#     4  10  21  37  57  80 106 136 172 215 265 320
#     4  10  21  36  54  80 111 144 184 226 271 328
#     4   8  14  28  50  72  98 132 172 220 265 310
#     4   9  18  31  49  72  98 130 169 211 256 308
#     4   9  18  33  53  78 108 142 184 227 273 327
#     4   9  19  36  54  76 104 135 176 218 262 319
#
# _framework density 19.019424999999998
#
# number of rings (size 3 to 8) (size 9 to 14) (size 15 to 20)
#    0.000    2.615    0.000    2.308    0.000    6.462 
#    1.385    3.077    0.000    0.000    0.000    0.000 
#    0.000    0.000    0.000    0.000    0.000    0.000 
#
# Total GULP energy -644619.292225 kJ/mol
# GULP energy per Si atom -12396.524850 kJ/mol
# Density = 1.897614 g / cm^3
# Si number density = 19.019425 Si / 1000 Ang^3
#
#
#
# Elastic Constant Matrix: (Units=GPa)
#
#
# Indices 1 2 3 4 5 6 
#
# 1 63.9515 42.8237 20.3505 0.0000 0.0000 0.0000
# 2 42.8237 126.1707 33.9716 0.0000 0.0000 0.0000
# 3 20.3505 33.9716 72.7198 0.0000 0.0000 0.0000
# 4 0.0000 0.0000 0.0000 19.0246 0.0000 0.0000
# 5 0.0000 0.0000 0.0000 0.0000 26.1475 0.0000
# 6 0.0000 0.0000 0.0000 0.0000 0.0000 33.3779
#
#
#
# Elastic Compliance Matrix: (Units=1/GPa)
#
#
# Indices 1 2 3 4 5 6 
#
# 1 0.020750 -0.006268 -0.002879 0.000000 0.000000 0.000000
# 2 -0.006268 0.010959 -0.003366 0.000000 0.000000 0.000000
# 3 -0.002879 -0.003366 0.016129 0.000000 0.000000 0.000000
# 4 0.000000 0.000000 0.000000 0.052564 0.000000 0.000000
# 5 0.000000 0.000000 0.000000 0.000000 0.038245 0.000000
# 6 0.000000 0.000000 0.000000 0.000000 0.000000 0.029960
#
#
# Mechanical properties :
#
#
# Convention : Reuss Voigt Hill
#
# Bulk Modulus (GPa) = 43.83240 50.79263 47.31251
# Shear Modulus (GPa) = 24.84647 26.75641 25.80144
#
# Velocity S-wave (km/s) = 3.61830 3.75479 3.68718
# Velocity P-wave (km/s) = 6.36807 6.74993 6.56178
#
# Compressibility (1/GPa) = 0.02281418
#
# Stress axis : x y z
#
# Youngs Moduli (GPa) = 48.19297 91.24677 61.99862
#
# Poissons Ratio (x) = 0.57190 0.17849
# Poissons Ratio (y) = 0.30205 0.20867
# Poissons Ratio (z) = 0.13874 0.30711
#
# Static dielectric constant tensor:
#      x y z
#    x 3.445210 0.000000 0.000000 
#    y 0.000000 3.741550 0.000000 
#    z 0.000000 0.000000 3.277880 
# 
# 
# High freq. dielectric constant tensor:
#      x y z
#    x 1.738170 0.000000 0.000000 
#    y 0.000000 1.749580 0.000000 
#    z 0.000000 0.000000 1.717640 
# 
# From -- ./inp_files/41038.got.cif
#   From: 2010.03.12/outbox.cif.g09.slc.cpg/sg67_21_cif.got.tgz:41038.got - 2010.04.10 22:41:39.
