data_PCOD8280400
_publ_section_title
;
Structure prediction by ZEFSAII (Michael W. Deem and Ramdas Pophale) SiO2 
 PCOD8280400
Probable space group: C M M A
;
_chemical_formula_sum "Si O2"
_cell_formula_units_Z 96
_cell_length_a 18.941266
_cell_length_b 21.551580
_cell_length_c 12.290430
_cell_angle_alpha 90.000000
_cell_angle_beta 90.000000
_cell_angle_gamma 90.000000
_cell_volume 5017.128167
_symmetry_space_group_name_H-M "C M M A"
_symmetry_group_IT_number 67
_symmetry_cell_setting 'orthorhombic'
loop_
_space_group_symop_operation_xyz
x,y,z
-x,1/2-y,z
x,-y,-z
-x,1/2+y,-z
-x,-y,-z
x,1/2+y,-z
-x,y,z
x,1/2-y,z
1/2+x,1/2+y,z
1/2-x,-y,z
1/2+x,1/2-y,-z
1/2-x,y,-z
1/2-x,1/2-y,-z
1/2+x,y,-z
1/2-x,1/2+y,z
1/2+x,-y,z
loop_
_atom_site_type_symbol
_atom_site_label
_atom_site_fract_x
_atom_site_fract_y
_atom_site_fract_z
Si Si1 0.917529 0.614066 0.631375
Si Si2 0.833256 0.996501 0.374053
Si Si3 0.673726 0.372957 0.245351
Si Si4 0.174198 0.821576 0.787288
Si Si5 0.579300 0.181031 0.414678
Si Si6 0.332730 0.681079 0.978831
O O1 0.874700 0.554637 0.676663
O O2 0.888748 0.671561 0.701466
O O3 0.900619 0.630128 0.505922
O O4 0.000000 0.603993 0.650667
O O5 0.853058 0.936955 0.300716
O O6 0.858078 0.000000 0.500000
O O7 0.750000 0.000000 0.366713
O O8 0.758044 0.362597 0.249872
O O9 0.634350 0.320821 0.315862
O O10 0.648501 0.366475 0.119216
O O11 0.198944 0.750000 0.794309
O O12 0.139571 0.842513 0.903591
O O13 0.500000 0.167580 0.372103
O O14 0.583351 0.250000 0.465887
O O15 0.361698 0.750000 0.949050
O O16 0.250000 0.684773 0.000000
#
# Coordination Sequence:
#
# PCOD8280400 Si02
#       6
#    16  16  16  16  16  16
#     4  11  23  39  57  81 115 156 195 230 281 345
#     4  11  22  38  56  81 114 150 192 239 278 328
#     4  11  19  35  61  83 114 149 191 242 289 335
#     4  10  20  36  60  88 117 150 188 237 293 345
#     4  10  21  35  53  83 119 150 187 236 289 347
#     4   8  16  32  56  87 115 144 187 236 289 343
#
# _framework density 19.134452
#
# number of rings (size 3 to 8) (size 9 to 14) (size 15 to 20)
#    0.000    1.833    3.333    3.000    0.000    2.667 
#    0.000    3.333    0.000    2.000    0.000    0.000 
#    0.000    0.000    0.000    0.000    0.000    0.000 
#
# Total GULP energy -594688.143563 kJ/mol
# GULP energy per Si atom -12389.336324 kJ/mol
# Density = 1.909090 g / cm^3
# Si number density = 19.134452 Si / 1000 Ang^3
#
#
#
# Elastic Constant Matrix: (Units=GPa)
#
#
# Indices 1 2 3 4 5 6 
#
# 1 68.1068 30.0572 52.1897 0.0000 0.0000 0.0000
# 2 30.0572 88.8586 46.9436 0.0000 0.0000 0.0000
# 3 52.1897 46.9436 132.3000 0.0000 0.0000 0.0000
# 4 0.0000 0.0000 0.0000 28.6034 0.0000 0.0000
# 5 0.0000 0.0000 0.0000 0.0000 16.9194 0.0000
# 6 0.0000 0.0000 0.0000 0.0000 0.0000 22.0607
#
#
#
# Elastic Compliance Matrix: (Units=1/GPa)
#
#
# Indices 1 2 3 4 5 6 
#
# 1 0.021894 -0.003499 -0.007395 0.000000 0.000000 0.000000
# 2 -0.003499 0.014409 -0.003733 0.000000 0.000000 0.000000
# 3 -0.007395 -0.003733 0.011800 0.000000 0.000000 0.000000
# 4 0.000000 0.000000 0.000000 0.034961 0.000000 0.000000
# 5 0.000000 0.000000 0.000000 0.000000 0.059104 0.000000
# 6 0.000000 0.000000 0.000000 0.000000 0.000000 0.045330
#
#
# Mechanical properties :
#
#
# Convention : Reuss Voigt Hill
#
# Bulk Modulus (GPa) = 53.05026 60.84961 56.94993
# Shear Modulus (GPa) = 22.41810 24.18836 23.30323
#
# Velocity S-wave (km/s) = 3.42659 3.55931 3.49358
# Velocity P-wave (km/s) = 6.59095 6.98296 6.78978
#
# Compressibility (1/GPa) = 0.01885005
#
# Stress axis : x y z
#
# Youngs Moduli (GPa) = 45.67487 69.39973 84.74413
#
# Poissons Ratio (x) = 0.24283 0.62670
# Poissons Ratio (y) = 0.15982 0.31631
# Poissons Ratio (z) = 0.33777 0.25904
#
# Static dielectric constant tensor:
#      x y z
#    x 3.200180 0.000000 0.000000 
#    y 0.000000 3.410280 0.000000 
#    z 0.000000 0.000000 4.062900 
# 
# 
# High freq. dielectric constant tensor:
#      x y z
#    x 1.718770 0.000000 0.000000 
#    y 0.000000 1.736040 0.000000 
#    z 0.000000 0.000000 1.745630 
# 
# From -- ./inp_files/20850.got.cif
#   From: 2010.03.12/outbox.cif.g09.slc.cpg/sg67_11_cif.got.tgz:20850.got - 2010.04.10 22:41:39.
