data_PCOD8280216
_publ_section_title
;
Structure prediction by ZEFSAII (Michael W. Deem and Ramdas Pophale) SiO2 
 PCOD8280216
Probable space group: C M M A
;
_chemical_formula_sum "Si O2"
_cell_formula_units_Z 80
_cell_length_a 9.208401
_cell_length_b 26.590945
_cell_length_c 16.337848
_cell_angle_alpha 90.000000
_cell_angle_beta 90.000000
_cell_angle_gamma 90.000000
_cell_volume 4000.486842
_symmetry_space_group_name_H-M "C M M A"
_symmetry_group_IT_number 67
_symmetry_cell_setting 'orthorhombic'
loop_
_space_group_symop_operation_xyz
x,y,z
-x,1/2-y,z
x,-y,-z
-x,1/2+y,-z
-x,-y,-z
x,1/2+y,-z
-x,y,z
x,1/2-y,z
1/2+x,1/2+y,z
1/2-x,-y,z
1/2+x,1/2-y,-z
1/2-x,y,-z
1/2-x,1/2-y,-z
1/2+x,y,-z
1/2-x,1/2+y,z
1/2+x,-y,z
loop_
_atom_site_type_symbol
_atom_site_label
_atom_site_fract_x
_atom_site_fract_y
_atom_site_fract_z
Si Si1 0.660748 0.807095 0.358162
Si Si2 0.000000 0.190096 0.868496
Si Si3 0.000000 0.190479 0.055768
Si Si4 0.330586 0.049219 0.733866
Si Si5 0.207582 0.848883 0.814027
Si Si6 0.174512 0.900041 0.416957
O O1 0.500000 0.815323 0.397685
O O2 0.713366 0.750000 0.369752
O O3 0.640022 0.819532 0.262482
O O4 0.779939 0.842110 0.401347
O O5 0.126317 0.165030 0.817311
O O6 0.000000 0.250000 0.861226
O O7 0.000000 0.172292 0.962394
O O8 0.141160 0.169173 0.100398
O O9 0.000000 0.250000 0.060199
O O10 0.500000 0.039064 0.712996
O O11 0.318196 0.091641 0.803719
O O12 0.242273 0.065579 0.653505
O O13 0.250000 0.000000 0.768754
O O14 0.250000 0.919022 0.500000
O O15 0.000000 0.905108 0.420378
#
# Coordination Sequence:
#
# PCOD8280216 Si02
#       6
#    16   8   8  16  16  16
#     4  10  20  35  57  83 118 167 213 251 299 359
#     4  11  24  34  57  95 130 165 205 245 297 363
#     4  11  20  38  61  89 126 169 203 243 303 361
#     4  11  24  43  68  92 116 157 207 256 310 361
#     4  11  21  38  59  88 126 161 205 257 300 358
#     4  11  23  40  61  89 125 157 197 250 303 364
#
# _framework density 19.997565000000002
#
# number of rings (size 3 to 8) (size 9 to 14) (size 15 to 20)
#    0.000    1.200    2.000    6.000    7.000    2.800 
#    0.000    2.000    0.000    3.600    0.000    0.000 
#    0.000    0.000    0.000    0.000    0.000    0.000 
#
# Total GULP energy -495973.294464 kJ/mol
# GULP energy per Si atom -12399.332362 kJ/mol
# Density = 1.995205 g / cm^3
# Si number density = 19.997565 Si / 1000 Ang^3
#
#
#
# Elastic Constant Matrix: (Units=GPa)
#
#
# Indices 1 2 3 4 5 6 
#
# 1 170.0856 41.1328 19.9553 0.0000 0.0000 0.0000
# 2 41.1328 98.1417 16.1833 0.0000 0.0000 0.0000
# 3 19.9553 16.1833 56.9963 0.0000 0.0000 0.0000
# 4 0.0000 0.0000 0.0000 12.3001 0.0000 0.0000
# 5 0.0000 0.0000 0.0000 0.0000 51.7445 0.0000
# 6 0.0000 0.0000 0.0000 0.0000 0.0000 35.4317
#
#
#
# Elastic Compliance Matrix: (Units=1/GPa)
#
#
# Indices 1 2 3 4 5 6 
#
# 1 0.006682 -0.002533 -0.001620 0.000000 0.000000 0.000000
# 2 -0.002533 0.011650 -0.002421 0.000000 0.000000 0.000000
# 3 -0.001620 -0.002421 0.018800 0.000000 0.000000 0.000000
# 4 0.000000 0.000000 0.000000 0.081300 0.000000 0.000000
# 5 0.000000 0.000000 0.000000 0.000000 0.019326 0.000000
# 6 0.000000 0.000000 0.000000 0.000000 0.000000 0.028223
#
#
# Mechanical properties :
#
#
# Convention : Reuss Voigt Hill
#
# Bulk Modulus (GPa) = 41.69624 53.30739 47.50181
# Shear Modulus (GPa) = 26.72011 36.42540 31.57275
#
# Velocity S-wave (km/s) = 3.65933 4.27252 3.97776
# Velocity P-wave (km/s) = 6.22496 7.14521 6.70091
#
# Compressibility (1/GPa) = 0.02398298
#
# Stress axis : x y z
#
# Youngs Moduli (GPa) = 149.65223 85.83417 53.19250
#
# Poissons Ratio (x) = 0.21746 0.08618
# Poissons Ratio (y) = 0.37914 0.12878
# Poissons Ratio (z) = 0.24247 0.20780
#
# Static dielectric constant tensor:
#      x y z
#    x 3.750010 0.000000 0.000000 
#    y 0.000000 3.675740 0.000000 
#    z 0.000000 0.000000 3.527520 
# 
# 
# High freq. dielectric constant tensor:
#      x y z
#    x 1.800880 0.000000 0.000000 
#    y 0.000000 1.773970 0.000000 
#    z 0.000000 0.000000 1.766620 
# 
# From -- ./inp_files/32188.got.cif
#   From: 2010.03.12/outbox.cif.g09.slc.cpg/sg67_17_cif.got.tgz:32188.got - 2010.04.10 22:41:39.
