data_PCOD8280234
_publ_section_title
;
Structure prediction by ZEFSAII (Michael W. Deem and Ramdas Pophale) SiO2 
 PCOD8280234
Probable space group: C M M A
;
_chemical_formula_sum "Si O2"
_cell_formula_units_Z 120
_cell_length_a 8.888264
_cell_length_b 26.174357
_cell_length_c 27.158787
_cell_angle_alpha 90.000000
_cell_angle_beta 90.000000
_cell_angle_gamma 90.000000
_cell_volume 6318.345004
_symmetry_space_group_name_H-M "C M M A"
_symmetry_group_IT_number 67
_symmetry_cell_setting 'orthorhombic'
loop_
_space_group_symop_operation_xyz
x,y,z
-x,1/2-y,z
x,-y,-z
-x,1/2+y,-z
-x,-y,-z
x,1/2+y,-z
-x,y,z
x,1/2-y,z
1/2+x,1/2+y,z
1/2-x,-y,z
1/2+x,1/2-y,-z
1/2-x,y,-z
1/2-x,1/2-y,-z
1/2+x,y,-z
1/2-x,1/2+y,z
1/2+x,-y,z
loop_
_atom_site_type_symbol
_atom_site_label
_atom_site_fract_x
_atom_site_fract_y
_atom_site_fract_z
Si Si1 0.174516 0.906500 0.049672
Si Si2 0.822371 0.051934 0.846458
Si Si3 0.826470 0.156093 0.606494
Si Si4 0.673016 0.193405 0.101310
Si Si5 0.321849 0.552359 0.552752
Si Si6 0.675935 0.850245 0.193088
Si Si7 0.177506 0.750000 0.553109
Si Si8 0.170484 0.308789 0.713132
O O1 0.229066 0.938611 0.096978
O O2 0.219387 0.847239 0.059447
O O3 0.000000 0.913447 0.041264
O O4 0.250000 0.926945 0.000000
O O5 0.762852 0.096399 0.811398
O O6 0.000000 0.049317 0.841916
O O7 0.750000 0.000000 0.827233
O O8 0.781430 0.099502 0.588406
O O9 0.725076 0.198754 0.581130
O O10 0.798951 0.157158 0.665000
O O11 0.000000 0.168427 0.593881
O O12 0.500000 0.183137 0.117007
O O13 0.695572 0.250000 0.079344
O O14 0.773552 0.187992 0.149886
O O15 0.500000 0.545041 0.547181
O O16 0.250000 0.500000 0.574424
O O17 0.250000 0.564602 0.500000
O O18 0.500000 0.860331 0.188924
O O19 0.713087 0.825165 0.245168
O O20 0.250000 0.750000 0.500000
O O21 0.000000 0.750000 0.547629
O O22 0.198425 0.250000 0.698804
O O23 0.000000 0.316725 0.732359
#
# Coordination Sequence:
#
# PCOD8280234 Si02
#       8
#    16  16  16  16  16  16   8  16
#     4   9  19  33  50  75 107 141 177 218 265 327
#     4  10  21  39  60  81 106 138 179 224 275 330
#     4  10  21  39  59  83 114 152 195 237 286 345
#     4   9  18  34  53  73 102 142 185 224 270 325
#     4  10  20  35  58  83 111 146 190 236 280 330
#     4  11  22  35  54  82 111 139 179 228 273 324
#     4  12  24  36  56  84 118 156 192 238 289 344
#     4  10  20  37  60  81 111 153 187 223 278 338
#
# _framework density 18.992314
#
# number of rings (size 3 to 8) (size 9 to 14) (size 15 to 20)
#    0.000    2.000    0.667    4.600    0.000    8.000 
#    0.000    2.000    0.000    1.600    0.000    0.000 
#    0.000    0.000    0.000    0.000    0.000    0.000 
#
# Total GULP energy -744090.577644 kJ/mol
# GULP energy per Si atom -12401.509627 kJ/mol
# Density = 1.894909 g / cm^3
# Si number density = 18.992314 Si / 1000 Ang^3
#
#
#
# Elastic Constant Matrix: (Units=GPa)
#
#
# Indices 1 2 3 4 5 6 
#
# 1 88.1858 31.7463 26.1452 0.0000 0.0000 0.0000
# 2 31.7463 101.7230 18.5375 0.0000 0.0000 0.0000
# 3 26.1452 18.5375 70.4664 0.0000 0.0000 0.0000
# 4 0.0000 0.0000 0.0000 17.2321 0.0000 0.0000
# 5 0.0000 0.0000 0.0000 0.0000 25.7622 0.0000
# 6 0.0000 0.0000 0.0000 0.0000 0.0000 29.2881
#
#
#
# Elastic Compliance Matrix: (Units=1/GPa)
#
#
# Indices 1 2 3 4 5 6 
#
# 1 0.013870 -0.003561 -0.004209 0.000000 0.000000 0.000000
# 2 -0.003561 0.011240 -0.001636 0.000000 0.000000 0.000000
# 3 -0.004209 -0.001636 0.016183 0.000000 0.000000 0.000000
# 4 0.000000 0.000000 0.000000 0.058031 0.000000 0.000000
# 5 0.000000 0.000000 0.000000 0.000000 0.038816 0.000000
# 6 0.000000 0.000000 0.000000 0.000000 0.000000 0.034144
#
#
# Mechanical properties :
#
#
# Convention : Reuss Voigt Hill
#
# Bulk Modulus (GPa) = 44.48263 45.91478 45.19870
# Shear Modulus (GPa) = 25.17749 26.71959 25.94854
#
# Velocity S-wave (km/s) = 3.64492 3.75489 3.70031
# Velocity P-wave (km/s) = 6.41764 6.55948 6.48895
#
# Compressibility (1/GPa) = 0.02248069
#
# Stress axis : x y z
#
# Youngs Moduli (GPa) = 72.09943 88.96681 61.79272
#
# Poissons Ratio (x) = 0.31685 0.26010
# Poissons Ratio (y) = 0.25678 0.10106
# Poissons Ratio (z) = 0.30348 0.14551
#
# Static dielectric constant tensor:
#      x y z
#    x 3.463810 0.000000 0.000000 
#    y 0.000000 3.620930 0.000000 
#    z 0.000000 0.000000 3.335760 
# 
# 
# High freq. dielectric constant tensor:
#      x y z
#    x 1.738060 0.000000 0.000000 
#    y 0.000000 1.744840 0.000000 
#    z 0.000000 0.000000 1.723880 
# 
# From -- ./inp_files/43885.got.cif
#   From: 2010.03.12/outbox.cif.g09.slc.cpg/sg67_22_cif.got.tgz:43885.got - 2010.04.10 22:41:39.
