data_PCOD8280024
_publ_section_title
;
Structure prediction by ZEFSAII (Michael W. Deem and Ramdas Pophale) SiO2 
 PCOD8280024
Probable space group: C M M A
;
_chemical_formula_sum "Si O2"
_cell_formula_units_Z 64
_cell_length_a 17.909459
_cell_length_b 14.409825
_cell_length_c 11.276444
_cell_angle_alpha 90.000000
_cell_angle_beta 90.000000
_cell_angle_gamma 90.000000
_cell_volume 2910.136373
_symmetry_space_group_name_H-M "C M M A"
_symmetry_group_IT_number 67
_symmetry_cell_setting 'orthorhombic'
loop_
_space_group_symop_operation_xyz
x,y,z
-x,1/2-y,z
x,-y,-z
-x,1/2+y,-z
-x,-y,-z
x,1/2+y,-z
-x,y,z
x,1/2-y,z
1/2+x,1/2+y,z
1/2-x,-y,z
1/2+x,1/2-y,-z
1/2-x,y,-z
1/2-x,1/2-y,-z
1/2+x,y,-z
1/2-x,1/2+y,z
1/2+x,-y,z
loop_
_atom_site_type_symbol
_atom_site_label
_atom_site_fract_x
_atom_site_fract_y
_atom_site_fract_z
Si Si1 0.915449 0.354148 0.530033
Si Si2 0.228305 0.894198 0.125909
Si Si3 0.084448 0.546539 0.230959
Si Si4 0.140572 0.148036 0.279306
O O1 0.906213 0.250000 0.581607
O O2 0.898285 0.428229 0.632476
O O3 0.859397 0.370816 0.420428
O O4 0.000000 0.369046 0.482391
O O5 0.139135 0.890761 0.149278
O O6 0.273974 0.846655 0.232868
O O7 0.250000 0.000000 0.122542
O O8 0.250000 0.846558 0.000000
O O9 0.097174 0.435770 0.213159
O O10 0.000000 0.572095 0.194817
O O11 0.103439 0.250000 0.255107
#
# Coordination Sequence:
#
# PCOD8280024 Si02
#       4
#    16  16  16  16
#     4   9  18  33  54  84 120 151 183 228 281 337
#     4   9  20  39  56  77 110 149 194 236 277 326
#     4  10  20  36  60  85 112 148 188 232 281 334
#     4  10  20  34  56  85 117 151 184 225 280 337
#
# _framework density 21.992097000000001
#
# number of rings (size 3 to 8) (size 9 to 14) (size 15 to 20)
#    0.000    2.500    0.000    1.500    0.000    6.000 
#    0.000   17.500    0.000    0.000    0.000    0.000 
#    0.000    0.000    0.000    0.000    0.000    0.000 
#
# Total GULP energy -396531.577248 kJ/mol
# GULP energy per Si atom -12391.611789 kJ/mol
# Density = 2.194204 g / cm^3
# Si number density = 21.992097 Si / 1000 Ang^3
#
#
#
# Elastic Constant Matrix: (Units=GPa)
#
#
# Indices 1 2 3 4 5 6 
#
# 1 152.2417 29.2194 84.6017 0.0000 0.0000 0.0000
# 2 29.2194 89.1449 30.3348 0.0000 0.0000 0.0000
# 3 84.6017 30.3348 114.1625 0.0000 0.0000 0.0000
# 4 0.0000 0.0000 0.0000 -11.7806 0.0000 0.0000
# 5 0.0000 0.0000 0.0000 0.0000 30.8396 0.0000
# 6 0.0000 0.0000 0.0000 0.0000 0.0000 12.1432
#
#
#
# Elastic Compliance Matrix: (Units=1/GPa)
#
#
# Indices 1 2 3 4 5 6 
#
# 1 0.011238 -0.000934 -0.008080 0.000000 0.000000 0.000000
# 2 -0.000934 0.012410 -0.002605 0.000000 0.000000 0.000000
# 3 -0.008080 -0.002605 0.015439 0.000000 0.000000 0.000000
# 4 0.000000 0.000000 0.000000 -0.084886 0.000000 0.000000
# 5 0.000000 0.000000 0.000000 0.000000 0.032426 0.000000
# 6 0.000000 0.000000 0.000000 0.000000 0.000000 0.082351
#
#
# Mechanical properties :
#
#
# Convention : Reuss Voigt Hill
#
# Bulk Modulus (GPa) = 63.09503 71.54011 67.31757
# Shear Modulus (GPa) = 51.28230 20.33334 35.80782
#
# Velocity S-wave (km/s) = 4.83416 3.04398 4.03949
# Velocity P-wave (km/s) = 7.74022 6.70485 7.24106
#
# Compressibility (1/GPa) = 0.01584911
#
# Stress axis : x y z
#
# Youngs Moduli (GPa) = 88.98637 80.57722 64.76981
#
# Poissons Ratio (x) = 0.07526 0.52332
# Poissons Ratio (y) = 0.08312 0.16876
# Poissons Ratio (z) = 0.71898 0.20994
#
# Static dielectric constant tensor:
#      x y z
#    x 4.044190 0.000000 0.000000 
#    y 0.000000 4.076680 0.000000 
#    z 0.000000 0.000000 4.094060 
# 
# 
# High freq. dielectric constant tensor:
#      x y z
#    x 1.844330 0.000000 0.000000 
#    y 0.000000 1.871690 0.000000 
#    z 0.000000 0.000000 1.838160 
# 
# From -- ./inp_files/17489.got.cif
#   From: 2010.03.12/outbox.cif.g09.slc.cpg/sg67_9_cif.got.tgz:17489.got - 2010.04.10 22:41:39.
