data_PCOD8280333
_publ_section_title
;
Structure prediction by ZEFSAII (Michael W. Deem and Ramdas Pophale) SiO2 
 PCOD8280333
Probable space group: C M M A
;
_chemical_formula_sum "Si O2"
_cell_formula_units_Z 80
_cell_length_a 17.016783
_cell_length_b 26.379603
_cell_length_c 8.815164
_cell_angle_alpha 90.000000
_cell_angle_beta 90.000000
_cell_angle_gamma 90.000000
_cell_volume 3957.091682
_symmetry_space_group_name_H-M "C M M A"
_symmetry_group_IT_number 67
_symmetry_cell_setting 'orthorhombic'
loop_
_space_group_symop_operation_xyz
x,y,z
-x,1/2-y,z
x,-y,-z
-x,1/2+y,-z
-x,-y,-z
x,1/2+y,-z
-x,y,z
x,1/2-y,z
1/2+x,1/2+y,z
1/2-x,-y,z
1/2+x,1/2-y,-z
1/2-x,y,-z
1/2-x,1/2-y,-z
1/2+x,y,-z
1/2-x,1/2+y,z
1/2+x,-y,z
loop_
_atom_site_type_symbol
_atom_site_label
_atom_site_fract_x
_atom_site_fract_y
_atom_site_fract_z
Si Si1 0.908360 0.548236 0.915143
Si Si2 0.166266 0.649743 0.424816
Si Si3 0.908334 0.750000 0.378519
Si Si4 0.093213 0.447849 0.423713
Si Si5 0.838367 0.250000 0.943515
Si Si6 0.835548 0.641371 0.065249
O O1 0.872408 0.553533 0.747172
O O2 0.000000 0.538344 0.897796
O O3 0.869413 0.500000 0.000000
O O4 0.895176 0.598301 0.013977
O O5 0.250000 0.659182 0.500000
O O6 0.111900 0.698387 0.470061
O O7 0.128136 0.599047 0.487144
O O8 0.172209 0.643059 0.245155
O O9 0.848510 0.750000 0.237261
O O10 0.000000 0.750000 0.330619
O O11 0.121853 0.500000 0.500000
O O12 0.000000 0.443340 0.428249
O O13 0.871943 0.304656 0.998953
O O14 0.750000 0.250000 0.000000
O O15 0.750000 0.629446 0.000000
#
# Coordination Sequence:
#
# PCOD8280333 Si02
#       6
#    16  16   8  16   8  16
#     4  10  21  37  57  82 112 147 189 238 291 344
#     4  11  22  37  59  86 119 156 195 243 299 355
#     4  10  21  37  60  89 119 156 202 246 293 359
#     4  10  21  38  59  84 116 153 195 244 298 358
#     4   8  18  35  56  83 116 152 188 238 296 349
#     4  10  20  36  57  82 112 148 189 233 282 343
#
# _framework density 20.216867000000001
#
# number of rings (size 3 to 8) (size 9 to 14) (size 15 to 20)
#    0.000    2.000    0.000    3.300    0.000    6.400 
#    0.000    7.000    0.000    2.400    0.000    1.400 
#    0.000    0.000    0.000    0.000    0.000    0.000 
#
# Total GULP energy -495673.230345 kJ/mol
# GULP energy per Si atom -12391.830759 kJ/mol
# Density = 2.017085 g / cm^3
# Si number density = 20.216867 Si / 1000 Ang^3
#
#
#
# Elastic Constant Matrix: (Units=GPa)
#
#
# Indices 1 2 3 4 5 6 
#
# 1 52.3636 45.2897 37.7099 0.0000 0.0000 0.0000
# 2 45.2897 208.8015 64.5876 0.0000 0.0000 0.0000
# 3 37.7099 64.5876 117.7838 0.0000 0.0000 0.0000
# 4 0.0000 0.0000 0.0000 31.6249 0.0000 0.0000
# 5 0.0000 0.0000 0.0000 0.0000 30.0149 0.0000
# 6 0.0000 0.0000 0.0000 0.0000 0.0000 12.1631
#
#
#
# Elastic Compliance Matrix: (Units=1/GPa)
#
#
# Indices 1 2 3 4 5 6 
#
# 1 0.027176 -0.003858 -0.006585 0.000000 0.000000 0.000000
# 2 -0.003858 0.006315 -0.002228 0.000000 0.000000 0.000000
# 3 -0.006585 -0.002228 0.011820 0.000000 0.000000 0.000000
# 4 0.000000 0.000000 0.000000 0.031621 0.000000 0.000000
# 5 0.000000 0.000000 0.000000 0.000000 0.033317 0.000000
# 6 0.000000 0.000000 0.000000 0.000000 0.000000 0.082216
#
#
# Mechanical properties :
#
#
# Convention : Reuss Voigt Hill
#
# Bulk Modulus (GPa) = 50.07581 74.90260 62.48920
# Shear Modulus (GPa) = 22.27538 30.18471 26.23004
#
# Velocity S-wave (km/s) = 3.32297 3.86819 3.60590
# Velocity P-wave (km/s) = 6.28856 7.55516 6.95077
#
# Compressibility (1/GPa) = 0.01996972
#
# Stress axis : x y z
#
# Youngs Moduli (GPa) = 36.79684 158.35076 84.60067
#
# Poissons Ratio (x) = 0.61085 0.55714
# Poissons Ratio (y) = 0.14195 0.18848
# Poissons Ratio (z) = 0.24233 0.35279
#
# Static dielectric constant tensor:
#      x y z
#    x 3.411920 0.000000 0.000000 
#    y 0.000000 4.270580 0.000000 
#    z 0.000000 0.000000 3.809410 
# 
# 
# High freq. dielectric constant tensor:
#      x y z
#    x 1.764160 0.000000 0.000000 
#    y 0.000000 1.823170 0.000000 
#    z 0.000000 0.000000 1.785220 
# 
# From -- ./inp_files/10000.got.cif
#   From: 2010.03.12/outbox.cif.g09.slc.cpg/sg67_5_cif.got.tgz:10000.got - 2010.04.10 22:41:39.
