data_PCOD8280449
_publ_section_title
;
Structure prediction by ZEFSAII (Michael W. Deem and Ramdas Pophale) SiO2 
 PCOD8280449
Probable space group: C M M A
;
_chemical_formula_sum "Si O2"
_cell_formula_units_Z 80
_cell_length_a 26.025175
_cell_length_b 13.827748
_cell_length_c 11.078751
_cell_angle_alpha 90.000000
_cell_angle_beta 90.000000
_cell_angle_gamma 90.000000
_cell_volume 3986.905265
_symmetry_space_group_name_H-M "C M M A"
_symmetry_group_IT_number 67
_symmetry_cell_setting 'orthorhombic'
loop_
_space_group_symop_operation_xyz
x,y,z
-x,1/2-y,z
x,-y,-z
-x,1/2+y,-z
-x,-y,-z
x,1/2+y,-z
-x,y,z
x,1/2-y,z
1/2+x,1/2+y,z
1/2-x,-y,z
1/2+x,1/2-y,-z
1/2-x,y,-z
1/2-x,1/2-y,-z
1/2+x,y,-z
1/2-x,1/2+y,z
1/2+x,-y,z
loop_
_atom_site_type_symbol
_atom_site_label
_atom_site_fract_x
_atom_site_fract_y
_atom_site_fract_z
Si Si1 0.942905 0.020987 0.695187
Si Si2 0.200090 0.637502 0.424220
Si Si3 0.410233 0.859564 0.482385
Si Si4 0.692071 0.142063 0.958510
Si Si5 0.160746 0.036413 0.813836
O O1 0.935641 0.114563 0.610428
O O2 0.899994 0.022625 0.797104
O O3 0.000000 0.022563 0.752307
O O4 0.935773 0.923235 0.619983
O O5 0.205442 0.750000 0.387211
O O6 0.250000 0.602516 0.500000
O O7 0.151140 0.620994 0.511268
O O8 0.192119 0.576188 0.301728
O O9 0.422827 0.750000 0.450666
O O10 0.675795 0.250000 0.916463
O O11 0.684967 0.067679 0.848011
O O12 0.750000 0.138740 0.000000
O O13 0.660328 0.111216 0.075891
#
# Coordination Sequence:
#
# PCOD8280449 Si02
#       5
#    16  16  16  16  16
#     4  10  21  35  52  77 107 142 185 230 274 321
#     4   9  18  32  54  87 122 151 180 220 272 332
#     4   9  18  33  52  76 110 150 186 218 260 326
#     4  10  22  40  61  83 107 140 182 226 274 334
#     4  10  20  37  59  81 109 145 184 229 277 329
#
# _framework density 20.06569
#
# number of rings (size 3 to 8) (size 9 to 14) (size 15 to 20)
#    0.000    2.400    0.000    3.000    0.000    6.400 
#    0.000   13.000    0.000    1.800    0.000    0.000 
#    0.000    0.000    0.000    0.000    0.000    0.000 
#
# Total GULP energy -495916.078194 kJ/mol
# GULP energy per Si atom -12397.901955 kJ/mol
# Density = 2.002002 g / cm^3
# Si number density = 20.065690 Si / 1000 Ang^3
#
#
#
# Elastic Constant Matrix: (Units=GPa)
#
#
# Indices 1 2 3 4 5 6 
#
# 1 123.9676 51.6867 36.1716 0.0000 0.0000 0.0000
# 2 51.6867 108.2369 34.7162 0.0000 0.0000 0.0000
# 3 36.1716 34.7162 70.0184 0.0000 0.0000 0.0000
# 4 0.0000 0.0000 0.0000 16.5415 0.0000 0.0000
# 5 0.0000 0.0000 0.0000 0.0000 21.4751 0.0000
# 6 0.0000 0.0000 0.0000 0.0000 0.0000 20.4137
#
#
#
# Elastic Compliance Matrix: (Units=1/GPa)
#
#
# Indices 1 2 3 4 5 6 
#
# 1 0.010780 -0.003997 -0.003587 0.000000 0.000000 0.000000
# 2 -0.003997 0.012468 -0.004117 0.000000 0.000000 0.000000
# 3 -0.003587 -0.004117 0.018176 0.000000 0.000000 0.000000
# 4 0.000000 0.000000 0.000000 0.060454 0.000000 0.000000
# 5 0.000000 0.000000 0.000000 0.000000 0.046566 0.000000
# 6 0.000000 0.000000 0.000000 0.000000 0.000000 0.048987
#
#
# Mechanical properties :
#
#
# Convention : Reuss Voigt Hill
#
# Bulk Modulus (GPa) = 55.48783 60.81911 58.15347
# Shear Modulus (GPa) = 22.04190 23.66260 22.85225
#
# Velocity S-wave (km/s) = 3.31794 3.43776 3.37838
# Velocity P-wave (km/s) = 6.51087 6.79215 6.65300
#
# Compressibility (1/GPa) = 0.01802197
#
# Stress axis : x y z
#
# Youngs Moduli (GPa) = 92.76574 80.20339 55.01682
#
# Poissons Ratio (x) = 0.32059 0.19734
# Poissons Ratio (y) = 0.37081 0.22650
# Poissons Ratio (z) = 0.33275 0.33020
#
# Static dielectric constant tensor:
#      x y z
#    x 3.747970 0.000000 0.000000 
#    y 0.000000 3.964570 0.000000 
#    z 0.000000 0.000000 3.465010 
# 
# 
# High freq. dielectric constant tensor:
#      x y z
#    x 1.781240 0.000000 0.000000 
#    y 0.000000 1.796900 0.000000 
#    z 0.000000 0.000000 1.755580 
# 
# From -- ./inp_files/22748.got.cif
#   From: 2010.03.12/outbox.cif.g09.slc.cpg/sg67_12_cif.got.tgz:22748.got - 2010.04.10 22:41:39.
