data_PCOD8280922
_publ_section_title
;
Structure prediction by ZEFSAII (Michael W. Deem and Ramdas Pophale) SiO2 
 PCOD8280922
Probable space group: C M M A
;
_chemical_formula_sum "Si O2"
_cell_formula_units_Z 72
_cell_length_a 10.011749
_cell_length_b 14.992396
_cell_length_c 24.449686
_cell_angle_alpha 90.000000
_cell_angle_beta 90.000000
_cell_angle_gamma 90.000000
_cell_volume 3669.900452
_symmetry_space_group_name_H-M "C M M A"
_symmetry_group_IT_number 67
_symmetry_cell_setting 'orthorhombic'
loop_
_space_group_symop_operation_xyz
x,y,z
-x,1/2-y,z
x,-y,-z
-x,1/2+y,-z
-x,-y,-z
x,1/2+y,-z
-x,y,z
x,1/2-y,z
1/2+x,1/2+y,z
1/2-x,-y,z
1/2+x,1/2-y,-z
1/2-x,y,-z
1/2-x,1/2-y,-z
1/2+x,y,-z
1/2-x,1/2+y,z
1/2+x,-y,z
loop_
_atom_site_type_symbol
_atom_site_label
_atom_site_fract_x
_atom_site_fract_y
_atom_site_fract_z
Si Si1 0.153559 0.422264 0.877045
Si Si2 0.350466 0.143777 0.544710
Si Si3 0.152056 0.854471 0.242141
Si Si4 0.649665 0.356079 0.666318
Si Si5 0.346676 0.250000 0.051145
O O1 0.250000 0.500000 0.898696
O O2 0.187338 0.403055 0.814069
O O3 0.184558 0.335642 0.912430
O O4 0.000000 0.452178 0.883937
O O5 0.500000 0.111950 0.530164
O O6 0.343392 0.250000 0.543198
O O7 0.250000 0.101785 0.500000
O O8 0.310486 0.110213 0.605537
O O9 0.177418 0.750000 0.233296
O O10 0.246915 0.895142 0.289377
O O11 0.000000 0.872379 0.260000
O O12 0.500000 0.388287 0.681331
O O13 0.655794 0.250000 0.667107
O O14 0.500000 0.250000 0.031035
O O15 0.250000 0.250000 0.000000
#
# Coordination Sequence:
#
# PCOD8280922 Si02
#       5
#    16  16  16  16   8
#     4  10  21  38  59  84 115 149 185 228 274 321
#     4   8  13  20  29  44  73 113 156 204 257 309
#     4   9  16  29  49  70  96 133 173 214 264 319
#     4   8  14  23  35  56  86 120 161 212 265 314
#     4  10  22  42  64  86 118 154 187 226 271 318
#
# _framework density 19.619062
#
# number of rings (size 3 to 8) (size 9 to 14) (size 15 to 20)
#    0.000    3.111    1.111    1.333    0.000    3.111 
#    0.000    6.667    0.000    0.000    0.000    0.000 
#    0.000    0.889    0.000    9.778    0.000   16.000 
#
# Total GULP energy -446294.671736 kJ/mol
# GULP energy per Si atom -12397.074215 kJ/mol
# Density = 1.957441 g / cm^3
# Si number density = 19.619062 Si / 1000 Ang^3
#
#
#
# Elastic Constant Matrix: (Units=GPa)
#
#
# Indices 1 2 3 4 5 6 
#
# 1 137.4182 52.7714 101.3397 0.0000 0.0000 0.0000
# 2 52.7714 60.6785 40.5657 0.0000 0.0000 0.0000
# 3 101.3397 40.5657 135.4610 0.0000 0.0000 0.0000
# 4 0.0000 0.0000 0.0000 -7.4957 0.0000 0.0000
# 5 0.0000 0.0000 0.0000 0.0000 45.4515 0.0000
# 6 0.0000 0.0000 0.0000 0.0000 0.0000 20.1336
#
#
#
# Elastic Compliance Matrix: (Units=1/GPa)
#
#
# Indices 1 2 3 4 5 6 
#
# 1 0.019515 -0.009017 -0.011899 0.000000 0.000000 0.000000
# 2 -0.009017 0.024772 -0.000673 0.000000 0.000000 0.000000
# 3 -0.011899 -0.000673 0.016485 0.000000 0.000000 0.000000
# 4 0.000000 0.000000 0.000000 -0.133410 0.000000 0.000000
# 5 0.000000 0.000000 0.000000 0.000000 0.022001 0.000000
# 6 0.000000 0.000000 0.000000 0.000000 0.000000 0.049668
#
#
# Mechanical properties :
#
#
# Convention : Reuss Voigt Hill
#
# Bulk Modulus (GPa) = 56.83435 80.32346 68.57891
# Shear Modulus (GPa) = 104.00944 20.87662 62.44303
#
# Velocity S-wave (km/s) = 7.28900 3.26559 5.64773
# Velocity P-wave (km/s) = 9.99356 7.43298 8.80683
#
# Compressibility (1/GPa) = 0.01759499
#
# Stress axis : x y z
#
# Youngs Moduli (GPa) = 51.24390 40.36845 60.66027
#
# Poissons Ratio (x) = 0.36399 0.72178
# Poissons Ratio (y) = 0.46206 0.04081
# Poissons Ratio (z) = 0.60974 0.02716
#
# Static dielectric constant tensor:
#      x y z
#    x 3.721510 0.000000 0.000000 
#    y 0.000000 77.788380 0.000000 
#    z 0.000000 0.000000 3.758430 
# 
# 
# High freq. dielectric constant tensor:
#      x y z
#    x 1.764180 0.000000 0.000000 
#    y 0.000000 1.733380 0.000000 
#    z 0.000000 0.000000 1.764990 
# 
# From -- ./inp_files/42107.got.cif
#   From: 2010.03.12/outbox.cif.g09.slc.cpg/sg67_22_cif.got.tgz:42107.got - 2010.04.10 22:41:39.
