data_PCOD8280871
_publ_section_title
;
Structure prediction by ZEFSAII (Michael W. Deem and Ramdas Pophale) SiO2 
 PCOD8280871
Probable space group: C M M A
;
_chemical_formula_sum "Si O2"
_cell_formula_units_Z 88
_cell_length_a 21.734216
_cell_length_b 8.545107
_cell_length_c 24.230643
_cell_angle_alpha 90.000000
_cell_angle_beta 90.000000
_cell_angle_gamma 90.000000
_cell_volume 4500.144126
_symmetry_space_group_name_H-M "C M M A"
_symmetry_group_IT_number 67
_symmetry_cell_setting 'orthorhombic'
loop_
_space_group_symop_operation_xyz
x,y,z
-x,1/2-y,z
x,-y,-z
-x,1/2+y,-z
-x,-y,-z
x,1/2+y,-z
-x,y,z
x,1/2-y,z
1/2+x,1/2+y,z
1/2-x,-y,z
1/2+x,1/2-y,-z
1/2-x,y,-z
1/2-x,1/2-y,-z
1/2+x,y,-z
1/2-x,1/2+y,z
1/2+x,-y,z
loop_
_atom_site_type_symbol
_atom_site_label
_atom_site_fract_x
_atom_site_fract_y
_atom_site_fract_z
Si Si1 0.928470 0.924923 0.243065
Si Si2 0.816447 0.436146 0.445547
Si Si3 0.397459 0.567320 0.637899
Si Si4 0.929179 0.067843 0.128119
Si Si5 0.314782 0.934851 0.938964
Si Si6 0.000000 0.068645 0.439333
O O1 0.904101 0.750000 0.228775
O O2 0.897821 0.992899 0.298798
O O3 0.000000 0.918710 0.256041
O O4 0.913718 0.038679 0.192239
O O5 0.854582 0.500000 0.500000
O O6 0.821991 0.250000 0.440500
O O7 0.750000 0.500000 0.456761
O O8 0.832452 0.523551 0.388186
O O9 0.413628 0.750000 0.637790
O O10 0.441775 0.476560 0.596763
O O11 0.924247 0.250000 0.114914
O O12 0.000000 0.009575 0.114965
O O13 0.876905 0.979906 0.093484
O O14 0.309435 0.750000 0.940346
O O15 0.250000 0.000000 0.913194
O O16 0.322736 0.000000 0.000000
O O17 0.000000 0.250000 0.448838
O O18 0.000000 0.000000 0.500000
#
# Coordination Sequence:
#
# PCOD8280871 Si02
#       6
#    16  16  16  16  16   8
#     4   9  18  35  57  81 111 150 190 232 283 337
#     4  11  22  38  57  78 102 136 177 224 277 338
#     4  11  21  37  57  80 109 142 179 226 278 336
#     4  10  21  37  59  89 123 159 202 250 295 349
#     4  11  22  39  63  90 124 163 203 248 300 359
#     4  12  24  36  52  78 110 142 179 224 277 336
#
# _framework density 19.554929000000001
#
# number of rings (size 3 to 8) (size 9 to 14) (size 15 to 20)
#    0.000    1.455    0.909    6.818    0.000    2.909 
#    0.000    0.909    0.000    4.364    0.000    0.000 
#    0.000    0.000    0.000    0.000    0.000    0.000 
#
# Total GULP energy -545194.700825 kJ/mol
# GULP energy per Si atom -12390.788655 kJ/mol
# Density = 1.951042 g / cm^3
# Si number density = 19.554929 Si / 1000 Ang^3
#
#
#
# Elastic Constant Matrix: (Units=GPa)
#
#
# Indices 1 2 3 4 5 6 
#
# 1 98.7695 37.2386 63.0706 0.0000 0.0000 0.0000
# 2 37.2386 122.0033 46.3532 0.0000 0.0000 0.0000
# 3 63.0706 46.3532 117.3909 0.0000 0.0000 0.0000
# 4 0.0000 0.0000 0.0000 32.9441 0.0000 0.0000
# 5 0.0000 0.0000 0.0000 0.0000 83.7621 0.0000
# 6 0.0000 0.0000 0.0000 0.0000 0.0000 32.3573
#
#
#
# Elastic Compliance Matrix: (Units=1/GPa)
#
#
# Indices 1 2 3 4 5 6 
#
# 1 0.015769 -0.001876 -0.007731 0.000000 0.000000 0.000000
# 2 -0.001876 0.009866 -0.002888 0.000000 0.000000 0.000000
# 3 -0.007731 -0.002888 0.013813 0.000000 0.000000 0.000000
# 4 0.000000 0.000000 0.000000 0.030354 0.000000 0.000000
# 5 0.000000 0.000000 0.000000 0.000000 0.011939 0.000000
# 6 0.000000 0.000000 0.000000 0.000000 0.000000 0.030905
#
#
# Mechanical properties :
#
#
# Convention : Reuss Voigt Hill
#
# Bulk Modulus (GPa) = 69.16819 70.16537 69.66678
# Shear Modulus (GPa) = 35.09868 42.57943 38.83906
#
# Velocity S-wave (km/s) = 4.24119 4.67135 4.46146
# Velocity P-wave (km/s) = 7.70919 8.06563 7.88943
#
# Compressibility (1/GPa) = 0.01445751
#
# Stress axis : x y z
#
# Youngs Moduli (GPa) = 63.41645 101.35543 72.39635
#
# Poissons Ratio (x) = 0.19010 0.55973
# Poissons Ratio (y) = 0.11894 0.20909
# Poissons Ratio (z) = 0.49030 0.29273
#
# Static dielectric constant tensor:
#      x y z
#    x 4.005290 0.000000 0.000000 
#    y 0.000000 3.597240 0.000000 
#    z 0.000000 0.000000 3.671290 
# 
# 
# High freq. dielectric constant tensor:
#      x y z
#    x 1.754470 0.000000 0.000000 
#    y 0.000000 1.768820 0.000000 
#    z 0.000000 0.000000 1.765050 
# 
# From -- ./inp_files/39577.got.cif
#   From: 2010.03.12/outbox.cif.g09.slc.cpg/sg67_20_cif.got.tgz:39577.got - 2010.04.10 22:41:39.
