data_PCOD8280668
_publ_section_title
;
Structure prediction by ZEFSAII (Michael W. Deem and Ramdas Pophale) SiO2 
 PCOD8280668
Probable space group: C M M A
;
_chemical_formula_sum "Si O2"
_cell_formula_units_Z 112
_cell_length_a 14.368225
_cell_length_b 20.648798
_cell_length_c 18.262552
_cell_angle_alpha 90.000000
_cell_angle_beta 90.000000
_cell_angle_gamma 90.000000
_cell_volume 5418.254015
_symmetry_space_group_name_H-M "C M M A"
_symmetry_group_IT_number 67
_symmetry_cell_setting 'orthorhombic'
loop_
_space_group_symop_operation_xyz
x,y,z
-x,1/2-y,z
x,-y,-z
-x,1/2+y,-z
-x,-y,-z
x,1/2+y,-z
-x,y,z
x,1/2-y,z
1/2+x,1/2+y,z
1/2-x,-y,z
1/2+x,1/2-y,-z
1/2-x,y,-z
1/2-x,1/2-y,-z
1/2+x,y,-z
1/2-x,1/2+y,z
1/2+x,-y,z
loop_
_atom_site_type_symbol
_atom_site_label
_atom_site_fract_x
_atom_site_fract_y
_atom_site_fract_z
Si Si1 0.742742 0.397653 0.917246
Si Si2 0.110342 0.178480 0.523907
Si Si3 0.109911 0.004298 0.865884
Si Si4 0.898657 0.673657 0.314054
Si Si5 0.110960 0.553512 0.555813
Si Si6 0.391676 0.936877 0.281753
Si Si7 0.226820 0.175194 0.222008
O O1 0.838901 0.430366 0.890077
O O2 0.655015 0.446316 0.913167
O O3 0.724925 0.336005 0.865358
O O4 0.750000 0.372464 0.000000
O O5 0.152336 0.250000 0.505425
O O6 0.138279 0.154316 0.605364
O O7 0.148686 0.124987 0.467077
O O8 0.000000 0.183231 0.520584
O O9 0.131919 0.990656 0.779865
O O10 0.000000 0.008636 0.882270
O O11 0.911227 0.750000 0.312292
O O12 0.826573 0.651145 0.252513
O O13 0.000000 0.641061 0.297681
O O14 0.152475 0.500000 0.500000
O O15 0.144251 0.538469 0.638882
O O16 0.000000 0.552697 0.550317
O O17 0.500000 0.923582 0.285383
O O18 0.350409 0.867169 0.261989
O O19 0.206828 0.250000 0.239499
#
# Coordination Sequence:
#
# PCOD8280668 Si02
#       7
#    16  16  16  16  16  16  16
#     4  10  21  35  54  82 108 132 170 216 265 326
#     4   8  14  26  46  71  98 132 174 216 259 309
#     4   9  18  35  58  80 104 136 175 220 266 314
#     4   8  15  30  51  73  98 131 175 223 262 300
#     4   9  17  29  47  74 107 139 173 220 276 321
#     4   9  19  35  54  78 107 141 183 221 256 313
#     4  10  21  36  54  77 107 142 178 217 261 315
#
# _framework density 20.670864999999999
#
# number of rings (size 3 to 8) (size 9 to 14) (size 15 to 20)
#    0.000    3.000    0.000    1.714    0.000    4.000 
#    0.000    5.000    0.000    3.429    0.000    4.000 
#    0.000    0.000    0.000    0.000    0.000    0.000 
#
# Total GULP energy -694106.789600 kJ/mol
# GULP energy per Si atom -12394.764100 kJ/mol
# Density = 2.062382 g / cm^3
# Si number density = 20.670865 Si / 1000 Ang^3
#
#
#
# Elastic Constant Matrix: (Units=GPa)
#
#
# Indices 1 2 3 4 5 6 
#
# 1 67.5691 13.8880 27.7651 0.0000 0.0000 0.0000
# 2 13.8880 69.3547 36.5482 0.0000 0.0000 0.0000
# 3 27.7651 36.5482 152.8652 0.0000 0.0000 0.0000
# 4 0.0000 0.0000 0.0000 21.5240 0.0000 0.0000
# 5 0.0000 0.0000 0.0000 0.0000 16.5358 0.0000
# 6 0.0000 0.0000 0.0000 0.0000 0.0000 12.8331
#
#
#
# Elastic Compliance Matrix: (Units=1/GPa)
#
#
# Indices 1 2 3 4 5 6 
#
# 1 0.016218 -0.001940 -0.002482 0.000000 0.000000 0.000000
# 2 -0.001940 0.016729 -0.003647 0.000000 0.000000 0.000000
# 3 -0.002482 -0.003647 0.007865 0.000000 0.000000 0.000000
# 4 0.000000 0.000000 0.000000 0.046460 0.000000 0.000000
# 5 0.000000 0.000000 0.000000 0.000000 0.060475 0.000000
# 6 0.000000 0.000000 0.000000 0.000000 0.000000 0.077924
#
#
# Mechanical properties :
#
#
# Convention : Reuss Voigt Hill
#
# Bulk Modulus (GPa) = 40.52888 49.57683 45.05285
# Shear Modulus (GPa) = 19.99736 24.28442 22.14089
#
# Velocity S-wave (km/s) = 3.11371 3.43127 3.27634
# Velocity P-wave (km/s) = 5.70756 6.30350 6.01292
#
# Compressibility (1/GPa) = 0.02467377
#
# Stress axis : x y z
#
# Youngs Moduli (GPa) = 61.65902 59.77589 127.15244
#
# Poissons Ratio (x) = 0.11595 0.31559
# Poissons Ratio (y) = 0.11960 0.46378
# Poissons Ratio (z) = 0.15304 0.21803
#
# Static dielectric constant tensor:
#      x y z
#    x 4.144340 0.000000 0.000000 
#    y 0.000000 3.555800 0.000000 
#    z 0.000000 0.000000 3.953760 
# 
# 
# High freq. dielectric constant tensor:
#      x y z
#    x 1.800270 0.000000 0.000000 
#    y 0.000000 1.786490 0.000000 
#    z 0.000000 0.000000 1.807540 
# 
# From -- ./inp_files/27523.got.cif
#   From: 2010.03.12/outbox.cif.g09.slc.cpg/sg67_14_cif.got.tgz:27523.got - 2010.04.10 22:41:39.
