data_PCOD8280624
_publ_section_title
;
Structure prediction by ZEFSAII (Michael W. Deem and Ramdas Pophale) SiO2 
 PCOD8280624
Probable space group: C M M A
;
_chemical_formula_sum "Si O2"
_cell_formula_units_Z 96
_cell_length_a 13.997450
_cell_length_b 14.404260
_cell_length_c 22.636692
_cell_angle_alpha 90.000000
_cell_angle_beta 90.000000
_cell_angle_gamma 90.000000
_cell_volume 4564.075694
_symmetry_space_group_name_H-M "C M M A"
_symmetry_group_IT_number 67
_symmetry_cell_setting 'orthorhombic'
loop_
_space_group_symop_operation_xyz
x,y,z
-x,1/2-y,z
x,-y,-z
-x,1/2+y,-z
-x,-y,-z
x,1/2+y,-z
-x,y,z
x,1/2-y,z
1/2+x,1/2+y,z
1/2-x,-y,z
1/2+x,1/2-y,-z
1/2-x,y,-z
1/2-x,1/2-y,-z
1/2+x,y,-z
1/2-x,1/2+y,z
1/2+x,-y,z
loop_
_atom_site_type_symbol
_atom_site_label
_atom_site_fract_x
_atom_site_fract_y
_atom_site_fract_z
Si Si1 0.223715 0.860728 0.724071
Si Si2 0.266629 0.852665 0.408227
Si Si3 0.898449 0.602784 0.487283
Si Si4 0.887358 0.974206 0.089197
Si Si5 0.113039 0.024547 0.776497
Si Si6 0.613645 0.353257 0.982255
O O1 0.214013 0.750000 0.736705
O O2 0.201453 0.888051 0.655942
O O3 0.145290 0.919269 0.760736
O O4 0.330429 0.897615 0.738904
O O5 0.226192 0.750000 0.400291
O O6 0.175326 0.907286 0.433050
O O7 0.352991 0.850079 0.454885
O O8 0.927349 0.500000 0.500000
O O9 0.000000 0.653799 0.471949
O O10 0.855939 0.956131 0.156045
O O11 0.000000 0.980646 0.084583
O O12 0.852104 0.890716 0.046623
O O13 0.846707 0.074184 0.066917
O O14 0.000000 0.035568 0.765630
O O15 0.500000 0.348493 0.979750
O O16 0.656566 0.250000 0.971808
#
# Coordination Sequence:
#
# PCOD8280624 Si02
#       6
#    16  16  16  16  16  16
#     4  10  24  42  60  86 119 158 204 249 293 347
#     4  10  21  38  57  78 113 151 183 230 285 340
#     4  10  21  34  57  89 114 142 181 227 282 345
#     4   8  15  28  46  77 112 143 188 236 286 349
#     4  10  22  39  62  86 116 159 202 250 298 346
#     4   8  13  23  44  75 111 145 178 229 293 350
#
# _framework density 21.033830999999999
#
# number of rings (size 3 to 8) (size 9 to 14) (size 15 to 20)
#    0.000    2.667    0.000    3.000    4.667    4.667 
#    0.000    6.667    0.000    8.000    0.000    9.333 
#    0.000    0.000    0.000    0.000    0.000    0.000 
#
# Total GULP energy -594645.687019 kJ/mol
# GULP energy per Si atom -12388.451813 kJ/mol
# Density = 2.098596 g / cm^3
# Si number density = 21.033831 Si / 1000 Ang^3
#
#
#
# Elastic Constant Matrix: (Units=GPa)
#
#
# Indices 1 2 3 4 5 6 
#
# 1 74.2213 -19.2946 -9.1903 0.0000 0.0000 0.0000
# 2 -19.2946 96.9094 4.4388 0.0000 0.0000 0.0000
# 3 -9.1903 4.4388 84.7499 0.0000 0.0000 0.0000
# 4 0.0000 0.0000 0.0000 25.9969 0.0000 0.0000
# 5 0.0000 0.0000 0.0000 0.0000 -28.5892 0.0000
# 6 0.0000 0.0000 0.0000 0.0000 0.0000 65.4625
#
#
#
# Elastic Compliance Matrix: (Units=1/GPa)
#
#
# Indices 1 2 3 4 5 6 
#
# 1 0.014375 0.002797 0.001412 0.000000 0.000000 0.000000
# 2 0.002797 0.010888 -0.000267 0.000000 0.000000 0.000000
# 3 0.001412 -0.000267 0.011967 0.000000 0.000000 0.000000
# 4 0.000000 0.000000 0.000000 0.038466 0.000000 0.000000
# 5 0.000000 0.000000 0.000000 0.000000 -0.034978 0.000000
# 6 0.000000 0.000000 0.000000 0.000000 0.000000 0.015276
#
#
# Mechanical properties :
#
#
# Convention : Reuss Voigt Hill
#
# Bulk Modulus (GPa) = 22.16525 23.08762 22.62644
# Shear Modulus (GPa) = 79.18078 31.23582 55.20830
#
# Velocity S-wave (km/s) = 6.14217 3.85779 5.12878
# Velocity P-wave (km/s) = 7.80144 5.55370 6.77148
#
# Compressibility (1/GPa) = 0.04511566
#
# Stress axis : x y z
#
# Youngs Moduli (GPa) = 69.56372 91.84338 83.56616
#
# Poissons Ratio (x) = -0.25692 -0.11802
# Poissons Ratio (y) = -0.19460 0.02231
# Poissons Ratio (z) = -0.09825 0.02451
#
# Static dielectric constant tensor:
#      x y z
#    x 3.638510 0.000000 0.000000 
#    y 0.000000 3.991460 0.000000 
#    z 0.000000 0.000000 4.244630 
# 
# 
# High freq. dielectric constant tensor:
#      x y z
#    x 1.822290 0.000000 0.000000 
#    y 0.000000 1.826240 0.000000 
#    z 0.000000 0.000000 1.817700 
# 
# From -- ./inp_files/38370.got.cif
#   From: 2010.03.12/outbox.cif.g09.slc.cpg/sg67_20_cif.got.tgz:38370.got - 2010.04.10 22:41:39.
