data_PCOD8280508
_publ_section_title
;
Structure prediction by ZEFSAII (Michael W. Deem and Ramdas Pophale) SiO2 
 PCOD8280508
Probable space group: C M M A
;
_chemical_formula_sum "Si O2"
_cell_formula_units_Z 96
_cell_length_a 27.001857
_cell_length_b 19.280423
_cell_length_c 9.048899
_cell_angle_alpha 90.000000
_cell_angle_beta 90.000000
_cell_angle_gamma 90.000000
_cell_volume 4710.922195
_symmetry_space_group_name_H-M "C M M A"
_symmetry_group_IT_number 67
_symmetry_cell_setting 'orthorhombic'
loop_
_space_group_symop_operation_xyz
x,y,z
-x,1/2-y,z
x,-y,-z
-x,1/2+y,-z
-x,-y,-z
x,1/2+y,-z
-x,y,z
x,1/2-y,z
1/2+x,1/2+y,z
1/2-x,-y,z
1/2+x,1/2-y,-z
1/2-x,y,-z
1/2-x,1/2-y,-z
1/2+x,y,-z
1/2-x,1/2+y,z
1/2+x,-y,z
loop_
_atom_site_type_symbol
_atom_site_label
_atom_site_fract_x
_atom_site_fract_y
_atom_site_fract_z
Si Si1 0.400854 0.169680 0.944894
Si Si2 0.799894 0.170323 0.585108
Si Si3 0.943941 0.672099 0.634308
Si Si4 0.556100 0.556688 0.880255
Si Si5 0.298326 0.170155 0.068851
Si Si6 0.392471 0.073460 0.427543
O O1 0.406434 0.250000 0.985278
O O2 0.407264 0.156176 0.770637
O O3 0.443049 0.130705 0.037926
O O4 0.348220 0.137800 0.999332
O O5 0.813585 0.250000 0.544442
O O6 0.750000 0.147882 0.500000
O O7 0.792734 0.161163 0.757988
O O8 0.844208 0.119860 0.541031
O O9 0.934249 0.750000 0.573207
O O10 0.936747 0.615803 0.505573
O O11 0.000000 0.665506 0.692733
O O12 0.500000 0.540509 0.827409
O O13 0.593350 0.559386 0.741910
O O14 0.574454 0.500000 0.000000
O O15 0.299204 0.250000 0.019992
O O16 0.250000 0.133035 0.000000
O O17 0.382696 0.000000 0.500000
#
# Coordination Sequence:
#
# PCOD8280508 Si02
#       6
#    16  16  16  16  16  16
#     4  10  20  37  63  92 124 156 202 259 309 369
#     4  10  22  41  66  93 123 160 205 255 314 378
#     4  10  22  39  61  93 129 166 209 257 314 376
#     4  11  24  42  63  87 121 166 214 259 313 376
#     4   9  18  34  60  93 120 150 195 247 305 367
#     4  12  25  41  63  89 127 166 211 259 315 379
#
# _framework density 20.378174999999999
#
# number of rings (size 3 to 8) (size 9 to 14) (size 15 to 20)
#    0.000    1.667    1.667    2.500    2.333    4.667 
#    0.000    0.000    0.000    0.500    0.000    0.000 
#    0.000    0.000    0.000    0.000    0.000    0.000 
#
# Total GULP energy -595133.642484 kJ/mol
# GULP energy per Si atom -12398.617552 kJ/mol
# Density = 2.033179 g / cm^3
# Si number density = 20.378175 Si / 1000 Ang^3
#
#
#
# Elastic Constant Matrix: (Units=GPa)
#
#
# Indices 1 2 3 4 5 6 
#
# 1 111.9530 48.2416 52.5212 0.0000 0.0000 0.0000
# 2 48.2416 105.6164 58.1146 0.0000 0.0000 0.0000
# 3 52.5212 58.1146 111.6594 0.0000 0.0000 0.0000
# 4 0.0000 0.0000 0.0000 34.2310 0.0000 0.0000
# 5 0.0000 0.0000 0.0000 0.0000 39.8570 0.0000
# 6 0.0000 0.0000 0.0000 0.0000 0.0000 19.9149
#
#
#
# Elastic Compliance Matrix: (Units=1/GPa)
#
#
# Indices 1 2 3 4 5 6 
#
# 1 0.012278 -0.003406 -0.004003 0.000000 0.000000 0.000000
# 2 -0.003406 0.014213 -0.005795 0.000000 0.000000 0.000000
# 3 -0.004003 -0.005795 0.013855 0.000000 0.000000 0.000000
# 4 0.000000 0.000000 0.000000 0.029213 0.000000 0.000000
# 5 0.000000 0.000000 0.000000 0.000000 0.025090 0.000000
# 6 0.000000 0.000000 0.000000 0.000000 0.000000 0.050214
#
#
# Mechanical properties :
#
#
# Convention : Reuss Voigt Hill
#
# Bulk Modulus (GPa) = 71.74559 71.88705 71.81632
# Shear Modulus (GPa) = 28.42297 30.15734 29.29016
#
# Velocity S-wave (km/s) = 3.73872 3.85110 3.79533
# Velocity P-wave (km/s) = 7.34308 7.42480 7.38406
#
# Compressibility (1/GPa) = 0.01393814
#
# Stress axis : x y z
#
# Youngs Moduli (GPa) = 81.44963 70.36042 72.17789
#
# Poissons Ratio (x) = 0.23962 0.28889
# Poissons Ratio (y) = 0.27738 0.41829
# Poissons Ratio (z) = 0.32600 0.40775
#
# Static dielectric constant tensor:
#      x y z
#    x 3.861420 0.000000 0.000000 
#    y 0.000000 3.634380 0.000000 
#    z 0.000000 0.000000 3.653450 
# 
# 
# High freq. dielectric constant tensor:
#      x y z
#    x 1.799990 0.000000 0.000000 
#    y 0.000000 1.781300 0.000000 
#    z 0.000000 0.000000 1.800560 
# 
# From -- ./inp_files/13713.got.cif
#   From: 2010.03.12/outbox.cif.g09.slc.cpg/sg67_7_cif.got.tgz:13713.got - 2010.04.10 22:41:39.
