data_PCOD8280334
_publ_section_title
;
Structure prediction by ZEFSAII (Michael W. Deem and Ramdas Pophale) SiO2 
 PCOD8280334
Probable space group: C M M A
;
_chemical_formula_sum "Si O2"
_cell_formula_units_Z 96
_cell_length_a 8.599630
_cell_length_b 25.708589
_cell_length_c 23.409733
_cell_angle_alpha 90.000000
_cell_angle_beta 90.000000
_cell_angle_gamma 90.000000
_cell_volume 5175.525679
_symmetry_space_group_name_H-M "C M M A"
_symmetry_group_IT_number 67
_symmetry_cell_setting 'orthorhombic'
loop_
_space_group_symop_operation_xyz
x,y,z
-x,1/2-y,z
x,-y,-z
-x,1/2+y,-z
-x,-y,-z
x,1/2+y,-z
-x,y,z
x,1/2-y,z
1/2+x,1/2+y,z
1/2-x,-y,z
1/2+x,1/2-y,-z
1/2-x,y,-z
1/2-x,1/2-y,-z
1/2+x,y,-z
1/2-x,1/2+y,z
1/2+x,-y,z
loop_
_atom_site_type_symbol
_atom_site_label
_atom_site_fract_x
_atom_site_fract_y
_atom_site_fract_z
Si Si1 0.182145 0.750000 0.370506
Si Si2 0.816910 0.845384 0.179646
Si Si3 0.682110 0.808506 0.942166
Si Si4 0.818299 0.250000 0.247371
Si Si5 0.815404 0.444681 0.239279
Si Si6 0.315741 0.346252 0.562687
Si Si7 0.817103 0.554179 0.630103
O O1 0.214312 0.750000 0.303647
O O2 0.258225 0.699469 0.397408
O O3 0.000000 0.750000 0.382904
O O4 0.771501 0.842652 0.112784
O O5 0.720728 0.801488 0.212261
O O6 0.767746 0.901710 0.201134
O O7 0.000000 0.835616 0.189093
O O8 0.500000 0.806207 0.949089
O O9 0.749218 0.750000 0.934062
O O10 0.750000 0.834165 0.000000
O O11 0.000000 0.250000 0.263526
O O12 0.750000 0.500000 0.218419
O O13 0.764789 0.435011 0.304874
O O14 0.000000 0.442273 0.231296
O O15 0.500000 0.345205 0.560350
O O16 0.250000 0.338853 0.500000
O O17 0.253041 0.400033 0.589768
O O18 0.750000 0.500000 0.606988
O O19 0.000000 0.550668 0.626580
#
# Coordination Sequence:
#
# PCOD8280334 Si02
#       7
#     8  16  16   8  16  16  16
#     4  12  25  41  60  81 108 146 185 228 280 332
#     4  11  21  36  56  83 117 150 187 234 280 330
#     4   9  18  33  52  77 112 150 188 229 275 328
#     4  12  24  37  56  85 116 148 183 226 279 338
#     4  10  20  36  57  83 111 147 189 232 283 337
#     4  11  23  40  59  82 111 145 184 227 272 329
#     4   9  20  37  58  81 109 140 177 225 276 327
#
# _framework density 18.548839999999998
#
# number of rings (size 3 to 8) (size 9 to 14) (size 15 to 20)
#    0.000    1.667    0.833    4.250    0.000    5.000 
#    0.000    1.667    0.000    0.500    0.000    3.500 
#    0.000    0.000    0.000    0.000    0.000    0.000 
#
# Total GULP energy -595346.326454 kJ/mol
# GULP energy per Si atom -12403.048468 kJ/mol
# Density = 1.850662 g / cm^3
# Si number density = 18.548840 Si / 1000 Ang^3
#
#
#
# Elastic Constant Matrix: (Units=GPa)
#
#
# Indices 1 2 3 4 5 6 
#
# 1 50.3315 22.8708 19.9072 0.0000 0.0000 0.0000
# 2 22.8708 112.0735 45.4097 0.0000 0.0000 0.0000
# 3 19.9072 45.4097 105.7222 0.0000 0.0000 0.0000
# 4 0.0000 0.0000 0.0000 74.3346 0.0000 0.0000
# 5 0.0000 0.0000 0.0000 0.0000 28.2643 0.0000
# 6 0.0000 0.0000 0.0000 0.0000 0.0000 17.4495
#
#
#
# Elastic Compliance Matrix: (Units=1/GPa)
#
#
# Indices 1 2 3 4 5 6 
#
# 1 0.022539 -0.003487 -0.002746 0.000000 0.000000 0.000000
# 2 -0.003487 0.011342 -0.004215 0.000000 0.000000 0.000000
# 3 -0.002746 -0.004215 0.011786 0.000000 0.000000 0.000000
# 4 0.000000 0.000000 0.000000 0.013453 0.000000 0.000000
# 5 0.000000 0.000000 0.000000 0.000000 0.035380 0.000000
# 6 0.000000 0.000000 0.000000 0.000000 0.000000 0.057308
#
#
# Mechanical properties :
#
#
# Convention : Reuss Voigt Hill
#
# Bulk Modulus (GPa) = 40.36991 49.38918 44.87955
# Shear Modulus (GPa) = 27.63009 36.00565 31.81787
#
# Velocity S-wave (km/s) = 3.86370 4.41060 4.14618
# Velocity P-wave (km/s) = 6.45876 7.25412 6.86796
#
# Compressibility (1/GPa) = 0.02477092
#
# Stress axis : x y z
#
# Youngs Moduli (GPa) = 44.36770 88.16691 84.84380
#
# Poissons Ratio (x) = 0.30741 0.23302
# Poissons Ratio (y) = 0.15470 0.35763
# Poissons Ratio (z) = 0.12185 0.37163
#
# Static dielectric constant tensor:
#      x y z
#    x 3.443400 0.000000 0.000000 
#    y 0.000000 3.773620 0.000000 
#    z 0.000000 0.000000 3.575210 
# 
# 
# High freq. dielectric constant tensor:
#      x y z
#    x 1.727000 0.000000 0.000000 
#    y 0.000000 1.717340 0.000000 
#    z 0.000000 0.000000 1.721770 
# 
# From -- ./inp_files/40856.got.cif
#   From: 2010.03.12/outbox.cif.g09.slc.cpg/sg67_21_cif.got.tgz:40856.got - 2010.04.10 22:41:39.
