data_PCOD8280023
_publ_section_title
;
Structure prediction by ZEFSAII (Michael W. Deem and Ramdas Pophale) SiO2 
 PCOD8280023
Probable space group: C M M A
;
_chemical_formula_sum "Si O2"
_cell_formula_units_Z 80
_cell_length_a 9.341093
_cell_length_b 18.471935
_cell_length_c 24.192441
_cell_angle_alpha 90.000000
_cell_angle_beta 90.000000
_cell_angle_gamma 90.000000
_cell_volume 4174.358827
_symmetry_space_group_name_H-M "C M M A"
_symmetry_group_IT_number 67
_symmetry_cell_setting 'orthorhombic'
loop_
_space_group_symop_operation_xyz
x,y,z
-x,1/2-y,z
x,-y,-z
-x,1/2+y,-z
-x,-y,-z
x,1/2+y,-z
-x,y,z
x,1/2-y,z
1/2+x,1/2+y,z
1/2-x,-y,z
1/2+x,1/2-y,-z
1/2-x,y,-z
1/2-x,1/2-y,-z
1/2+x,y,-z
1/2-x,1/2+y,z
1/2+x,-y,z
loop_
_atom_site_type_symbol
_atom_site_label
_atom_site_fract_x
_atom_site_fract_y
_atom_site_fract_z
Si Si1 0.227064 0.084768 0.620438
Si Si2 0.165895 0.166917 0.052819
Si Si3 0.000000 0.664270 0.582059
Si Si4 0.000000 0.580111 0.472366
Si Si5 0.336631 0.073903 0.261265
Si Si6 0.671419 0.576885 0.160219
O O1 0.367704 0.131335 0.614335
O O2 0.135486 0.096082 0.565571
O O3 0.158696 0.112570 0.678449
O O4 0.250000 0.000000 0.624929
O O5 0.207719 0.250000 0.063547
O O6 0.211091 0.123211 0.106846
O O7 0.000000 0.157534 0.039584
O O8 0.250000 0.135585 0.000000
O O9 0.000000 0.750000 0.586044
O O10 0.000000 0.641041 0.518578
O O11 0.000000 0.500000 0.500000
O O12 0.500000 0.061023 0.241431
O O13 0.246016 0.116487 0.213650
O O14 0.250000 0.000000 0.268616
O O15 0.500000 0.569671 0.168157
O O16 0.750000 0.500000 0.153403
#
# Coordination Sequence:
#
# PCOD8280023 Si02
#       6
#    16  16   8   8  16  16
#     4  11  22  39  65  91 120 156 207 251 294 367
#     4   9  19  36  57  82 111 149 196 243 291 347
#     4  12  28  42  62  94 128 158 193 251 321 365
#     4  12  22  40  64  98 120 156 207 257 298 369
#     4  10  20  34  57  89 118 151 196 249 295 342
#     4  10  20  34  56  84 120 154 193 242 293 351
#
# _framework density 19.164619999999999
#
# number of rings (size 3 to 8) (size 9 to 14) (size 15 to 20)
#    0.000    1.600    3.000    3.000    5.600    3.600 
#    0.000    3.000    0.000    1.200    0.000    0.000 
#    0.000    0.000    0.000    0.000    0.000    0.000 
#
# Total GULP energy -495620.253628 kJ/mol
# GULP energy per Si atom -12390.506341 kJ/mol
# Density = 1.912100 g / cm^3
# Si number density = 19.164620 Si / 1000 Ang^3
#
#
#
# Elastic Constant Matrix: (Units=GPa)
#
#
# Indices 1 2 3 4 5 6 
#
# 1 136.0479 40.6016 67.5649 0.0000 0.0000 0.0000
# 2 40.6016 81.2172 45.7161 0.0000 0.0000 0.0000
# 3 67.5649 45.7161 175.6777 0.0000 0.0000 0.0000
# 4 0.0000 0.0000 0.0000 28.2675 0.0000 0.0000
# 5 0.0000 0.0000 0.0000 0.0000 51.3182 0.0000
# 6 0.0000 0.0000 0.0000 0.0000 0.0000 18.7506
#
#
#
# Elastic Compliance Matrix: (Units=1/GPa)
#
#
# Indices 1 2 3 4 5 6 
#
# 1 0.009764 -0.003242 -0.002911 0.000000 0.000000 0.000000
# 2 -0.003242 0.015502 -0.002787 0.000000 0.000000 0.000000
# 3 -0.002911 -0.002787 0.007537 0.000000 0.000000 0.000000
# 4 0.000000 0.000000 0.000000 0.035376 0.000000 0.000000
# 5 0.000000 0.000000 0.000000 0.000000 0.019486 0.000000
# 6 0.000000 0.000000 0.000000 0.000000 0.000000 0.053331
#
#
# Mechanical properties :
#
#
# Convention : Reuss Voigt Hill
#
# Bulk Modulus (GPa) = 67.01621 77.85644 72.43632
# Shear Modulus (GPa) = 30.51511 35.60461 33.05986
#
# Velocity S-wave (km/s) = 3.99465 4.31493 4.15787
# Velocity P-wave (km/s) = 7.50472 8.09556 7.80574
#
# Compressibility (1/GPa) = 0.01492176
#
# Stress axis : x y z
#
# Youngs Moduli (GPa) = 102.41868 64.50613 132.67430
#
# Poissons Ratio (x) = 0.20915 0.38627
# Poissons Ratio (y) = 0.33207 0.36979
# Poissons Ratio (z) = 0.29818 0.17979
#
# Static dielectric constant tensor:
#      x y z
#    x 3.670640 0.000000 0.000000 
#    y 0.000000 3.118610 0.000000 
#    z 0.000000 0.000000 4.618110 
# 
# 
# High freq. dielectric constant tensor:
#      x y z
#    x 1.760560 0.000000 0.000000 
#    y 0.000000 1.695520 0.000000 
#    z 0.000000 0.000000 1.774810 
# 
# From -- ./inp_files/43347.got.cif
#   From: 2010.03.12/outbox.cif.g09.slc.cpg/sg67_22_cif.got.tgz:43347.got - 2010.04.10 22:41:39.
