data_PCOD8280025
_publ_section_title
;
Structure prediction by ZEFSAII (Michael W. Deem and Ramdas Pophale) SiO2 
 PCOD8280025
Probable space group: C M M A
;
_chemical_formula_sum "Si O2"
_cell_formula_units_Z 96
_cell_length_a 13.644498
_cell_length_b 17.407924
_cell_length_c 20.765057
_cell_angle_alpha 90.000000
_cell_angle_beta 90.000000
_cell_angle_gamma 90.000000
_cell_volume 4932.165847
_symmetry_space_group_name_H-M "C M M A"
_symmetry_group_IT_number 67
_symmetry_cell_setting 'orthorhombic'
loop_
_space_group_symop_operation_xyz
x,y,z
-x,1/2-y,z
x,-y,-z
-x,1/2+y,-z
-x,-y,-z
x,1/2+y,-z
-x,y,z
x,1/2-y,z
1/2+x,1/2+y,z
1/2-x,-y,z
1/2+x,1/2-y,-z
1/2-x,y,-z
1/2-x,1/2-y,-z
1/2+x,y,-z
1/2-x,1/2+y,z
1/2+x,-y,z
loop_
_atom_site_type_symbol
_atom_site_label
_atom_site_fract_x
_atom_site_fract_y
_atom_site_fract_z
Si Si1 0.612472 0.412816 0.520360
Si Si2 0.883501 0.836448 0.042551
Si Si3 0.113375 0.839447 0.276162
Si Si4 0.893348 0.660544 0.899368
Si Si5 0.718094 0.413190 0.157525
Si Si6 0.220437 0.339622 0.593128
O O1 0.633891 0.500000 0.500000
O O2 0.500000 0.400637 0.540537
O O3 0.681143 0.389576 0.580800
O O4 0.639109 0.357485 0.460948
O O5 0.846171 0.750000 0.060405
O O6 0.842940 0.898297 0.092610
O O7 0.000000 0.837524 0.044435
O O8 0.849225 0.859375 0.970271
O O9 0.125807 0.750000 0.259257
O O10 0.152265 0.889556 0.217522
O O11 0.175742 0.862980 0.338459
O O12 0.000000 0.859533 0.288898
O O13 0.908895 0.750000 0.893840
O O14 0.819295 0.634130 0.844044
O O15 0.000000 0.620717 0.889381
O O16 0.750000 0.500000 0.163150
O O17 0.246976 0.250000 0.590454
#
# Coordination Sequence:
#
# PCOD8280025 Si02
#       6
#    16  16  16  16  16  16
#     4  10  20  34  56  86 121 156 181 208 259 326
#     4   9  18  35  59  81 101 134 181 227 269 318
#     4  10  22  41  62  80 102 140 190 237 276 318
#     4   9  19  36  56  77 104 140 180 221 268 326
#     4  12  24  34  51  80 111 141 175 221 277 334
#     4  10  20  35  58  85 111 141 185 238 275 303
#
# _framework density 19.464065999999999
#
# number of rings (size 3 to 8) (size 9 to 14) (size 15 to 20)
#    0.000    2.000    0.000    6.000    0.000    8.667 
#    0.000    2.500    0.000    1.000    0.000    0.000 
#    0.000    0.000    0.000    0.000    0.000    0.000 
#
# Total GULP energy -595178.715321 kJ/mol
# GULP energy per Si atom -12399.556569 kJ/mol
# Density = 1.941977 g / cm^3
# Si number density = 19.464066 Si / 1000 Ang^3
#
#
#
# Elastic Constant Matrix: (Units=GPa)
#
#
# Indices 1 2 3 4 5 6 
#
# 1 120.7066 54.4238 56.4328 0.0000 0.0000 0.0000
# 2 54.4238 75.8509 44.3029 0.0000 0.0000 0.0000
# 3 56.4328 44.3029 85.3489 0.0000 0.0000 0.0000
# 4 0.0000 0.0000 0.0000 13.1296 0.0000 0.0000
# 5 0.0000 0.0000 0.0000 0.0000 36.0669 0.0000
# 6 0.0000 0.0000 0.0000 0.0000 0.0000 26.5234
#
#
#
# Elastic Compliance Matrix: (Units=1/GPa)
#
#
# Indices 1 2 3 4 5 6 
#
# 1 0.013997 -0.006655 -0.005800 0.000000 0.000000 0.000000
# 2 -0.006655 0.022084 -0.007063 0.000000 0.000000 0.000000
# 3 -0.005800 -0.007063 0.019218 0.000000 0.000000 0.000000
# 4 0.000000 0.000000 0.000000 0.076164 0.000000 0.000000
# 5 0.000000 0.000000 0.000000 0.000000 0.027726 0.000000
# 6 0.000000 0.000000 0.000000 0.000000 0.000000 0.037702
#
#
# Mechanical properties :
#
#
# Convention : Reuss Voigt Hill
#
# Bulk Modulus (GPa) = 61.49197 65.80282 63.64739
# Shear Modulus (GPa) = 20.71682 23.59378 22.15530
#
# Velocity S-wave (km/s) = 3.26600 3.48540 3.37748
# Velocity P-wave (km/s) = 6.77373 7.07659 6.92682
#
# Compressibility (1/GPa) = 0.01626229
#
# Stress axis : x y z
#
# Youngs Moduli (GPa) = 71.44421 45.28093 52.03442
#
# Poissons Ratio (x) = 0.30135 0.30181
# Poissons Ratio (y) = 0.47547 0.36753
# Poissons Ratio (z) = 0.41439 0.31983
#
# Static dielectric constant tensor:
#      x y z
#    x 3.461390 0.000000 0.000000 
#    y 0.000000 3.422440 0.000000 
#    z 0.000000 0.000000 3.465270 
# 
# 
# High freq. dielectric constant tensor:
#      x y z
#    x 1.778230 0.000000 0.000000 
#    y 0.000000 1.745810 0.000000 
#    z 0.000000 0.000000 1.739130 
# 
# From -- ./inp_files/38397.got.cif
#   From: 2010.03.12/outbox.cif.g09.slc.cpg/sg67_20_cif.got.tgz:38397.got - 2010.04.10 22:41:39.
