data_PCOD8280033
_publ_section_title
;
Structure prediction by ZEFSAII (Michael W. Deem and Ramdas Pophale) SiO2 
 PCOD8280033
Probable space group: C M M A
;
_chemical_formula_sum "Si O2"
_cell_formula_units_Z 64
_cell_length_a 17.724514
_cell_length_b 10.061994
_cell_length_c 17.245768
_cell_angle_alpha 90.000000
_cell_angle_beta 90.000000
_cell_angle_gamma 90.000000
_cell_volume 3075.678447
_symmetry_space_group_name_H-M "C M M A"
_symmetry_group_IT_number 67
_symmetry_cell_setting 'orthorhombic'
loop_
_space_group_symop_operation_xyz
x,y,z
-x,1/2-y,z
x,-y,-z
-x,1/2+y,-z
-x,-y,-z
x,1/2+y,-z
-x,y,z
x,1/2-y,z
1/2+x,1/2+y,z
1/2-x,-y,z
1/2+x,1/2-y,-z
1/2-x,y,-z
1/2-x,1/2-y,-z
1/2+x,y,-z
1/2-x,1/2+y,z
1/2+x,-y,z
loop_
_atom_site_type_symbol
_atom_site_label
_atom_site_fract_x
_atom_site_fract_y
_atom_site_fract_z
Si Si1 0.910386 0.250000 0.561717
Si Si2 0.410740 0.526876 0.677224
Si Si3 0.588503 0.250000 0.891292
Si Si4 0.664072 0.018312 0.166642
Si Si5 0.589770 0.250000 0.611734
Si Si6 0.169740 0.250000 0.955603
O O1 0.882056 0.120157 0.607574
O O2 0.875927 0.250000 0.475239
O O3 0.000000 0.250000 0.556265
O O4 0.500000 0.533757 0.684350
O O5 0.377300 0.578256 0.758353
O O6 0.381765 0.378411 0.658602
O O7 0.500000 0.250000 0.872348
O O8 0.626139 0.379247 0.854565
O O9 0.601845 0.250000 0.983215
O O10 0.659449 0.118321 0.094806
O O11 0.750000 0.000000 0.190384
O O12 0.500000 0.250000 0.605930
O O13 0.250000 0.250000 0.000000
#
# Coordination Sequence:
#
# PCOD8280033 Si02
#       6
#     8  16   8  16   8   8
#     4   9  17  31  54  84 117 160 209 258 316 376
#     4  10  20  34  56  88 122 157 209 266 314 375
#     4  12  27  44  69 101 129 164 219 279 330 385
#     4  12  24  42  67  91 130 174 213 266 331 404
#     4   9  17  32  56  85 121 161 203 261 322 374
#     4  12  25  45  67  94 125 169 218 264 328 398
#
# _framework density 20.808418
#
# number of rings (size 3 to 8) (size 9 to 14) (size 15 to 20)
#    0.000    1.250    2.500    3.750    0.000    7.000 
#    0.000    0.000    0.000    4.500    0.000    0.000 
#    0.000    0.000    0.000    0.000    0.000    0.000 
#
# Total GULP energy -396874.613237 kJ/mol
# GULP energy per Si atom -12402.331664 kJ/mol
# Density = 2.076106 g / cm^3
# Si number density = 20.808418 Si / 1000 Ang^3
#
#
#
# Elastic Constant Matrix: (Units=GPa)
#
#
# Indices 1 2 3 4 5 6 
#
# 1 79.7748 43.0000 35.4111 0.0000 0.0000 0.0000
# 2 43.0000 117.5262 33.3731 0.0000 0.0000 0.0000
# 3 35.4111 33.3731 137.7537 0.0000 0.0000 0.0000
# 4 0.0000 0.0000 0.0000 30.7474 0.0000 0.0000
# 5 0.0000 0.0000 0.0000 0.0000 -2.5196 0.0000
# 6 0.0000 0.0000 0.0000 0.0000 0.0000 20.8343
#
#
#
# Elastic Compliance Matrix: (Units=1/GPa)
#
#
# Indices 1 2 3 4 5 6 
#
# 1 0.016710 -0.005255 -0.003022 0.000000 0.000000 0.000000
# 2 -0.005255 0.010790 -0.001263 0.000000 0.000000 0.000000
# 3 -0.003022 -0.001263 0.008342 0.000000 0.000000 0.000000
# 4 0.000000 0.000000 0.000000 0.032523 0.000000 0.000000
# 5 0.000000 0.000000 0.000000 0.000000 -0.396894 0.000000
# 6 0.000000 0.000000 0.000000 0.000000 0.000000 0.047998
#
#
# Mechanical properties :
#
#
# Convention : Reuss Voigt Hill
#
# Bulk Modulus (GPa) = 59.66387 62.06922 60.86654
# Shear Modulus (GPa) = -19.54170 24.69714 2.57772
#
# Velocity S-wave (km/s) = -3.06784 3.44885 1.11422
# Velocity P-wave (km/s) = 4.02323 6.76410 5.56505
#
# Compressibility (1/GPa) = 0.01676056
#
# Stress axis : x y z
#
# Youngs Moduli (GPa) = 59.84595 92.67613 119.87203
#
# Poissons Ratio (x) = 0.48705 0.36227
# Poissons Ratio (y) = 0.31452 0.15142
# Poissons Ratio (z) = 0.18086 0.11706
#
# Static dielectric constant tensor:
#      x y z
#    x 3.500560 0.000000 0.000000 
#    y 0.000000 3.991330 0.000000 
#    z 0.000000 0.000000 4.031230 
# 
# 
# High freq. dielectric constant tensor:
#      x y z
#    x 1.778860 0.000000 0.000000 
#    y 0.000000 1.830690 0.000000 
#    z 0.000000 0.000000 1.835110 
# 
# From -- ./inp_files/34684.got.cif
#   From: 2010.03.12/outbox.cif.g09.slc.cpg/sg67_18_cif.got.tgz:34684.got - 2010.04.10 22:41:39.
