data_PCOD8280990
_publ_section_title
;
Structure prediction by ZEFSAII (Michael W. Deem and Ramdas Pophale) SiO2 
 PCOD8280990
Probable space group: C M M A
;
_chemical_formula_sum "Si O2"
_cell_formula_units_Z 96
_cell_length_a 21.292215
_cell_length_b 24.158062
_cell_length_c 8.881483
_cell_angle_alpha 90.000000
_cell_angle_beta 90.000000
_cell_angle_gamma 90.000000
_cell_volume 4568.445236
_symmetry_space_group_name_H-M "C M M A"
_symmetry_group_IT_number 67
_symmetry_cell_setting 'orthorhombic'
loop_
_space_group_symop_operation_xyz
x,y,z
-x,1/2-y,z
x,-y,-z
-x,1/2+y,-z
-x,-y,-z
x,1/2+y,-z
-x,y,z
x,1/2-y,z
1/2+x,1/2+y,z
1/2-x,-y,z
1/2+x,1/2-y,-z
1/2-x,y,-z
1/2-x,1/2-y,-z
1/2+x,y,-z
1/2-x,1/2+y,z
1/2+x,-y,z
loop_
_atom_site_type_symbol
_atom_site_label
_atom_site_fract_x
_atom_site_fract_y
_atom_site_fract_z
Si Si1 0.569445 0.893519 0.873248
Si Si2 0.882189 0.515368 0.329151
Si Si3 0.269229 0.906807 0.672373
Si Si4 0.072486 0.186480 0.358988
Si Si5 0.137970 0.405610 0.171466
Si Si6 0.867272 0.186538 0.681716
O O1 0.500000 0.895023 0.947009
O O2 0.572003 0.937620 0.736208
O O3 0.580259 0.832650 0.802131
O O4 0.624447 0.906846 0.993137
O O5 0.898724 0.500000 0.500000
O O6 0.810844 0.537709 0.310511
O O7 0.894575 0.459880 0.237066
O O8 0.250000 0.903474 0.500000
O O9 0.211534 0.907973 0.788710
O O10 0.306476 0.850909 0.710604
O O11 0.079160 0.250000 0.308031
O O12 0.106010 0.149650 0.234103
O O13 0.107041 0.176045 0.515537
O O14 0.000000 0.169541 0.375708
O O15 0.849367 0.250000 0.710037
#
# Coordination Sequence:
#
# PCOD8280990 Si02
#       6
#    16  16  16  16  16  16
#     4  11  26  44  61  92 133 173 219 268 327 389
#     4  11  23  40  66  95 126 170 219 268 322 389
#     4  11  21  40  67  98 130 159 211 267 324 390
#     4  10  21  38  62  93 124 164 222 273 318 383
#     4  12  23  39  65  93 131 171 209 265 332 391
#     4  10  22  41  66  93 124 170 217 267 327 385
#
# _framework density 21.013714
#
# number of rings (size 3 to 8) (size 9 to 14) (size 15 to 20)
#    0.000    1.167    3.333    3.000    0.000    7.667 
#    0.000    4.167    0.000    0.000    0.000    0.000 
#    0.000    0.000    0.000    0.000    0.000    0.000 
#
# Total GULP energy -595206.152196 kJ/mol
# GULP energy per Si atom -12400.128171 kJ/mol
# Density = 2.096589 g / cm^3
# Si number density = 21.013714 Si / 1000 Ang^3
#
#
#
# Elastic Constant Matrix: (Units=GPa)
#
#
# Indices 1 2 3 4 5 6 
#
# 1 84.2687 6.7526 27.6171 0.0000 0.0000 0.0000
# 2 6.7526 99.1308 45.9864 0.0000 0.0000 0.0000
# 3 27.6171 45.9864 106.5580 0.0000 0.0000 0.0000
# 4 0.0000 0.0000 0.0000 23.9314 0.0000 0.0000
# 5 0.0000 0.0000 0.0000 0.0000 30.0496 0.0000
# 6 0.0000 0.0000 0.0000 0.0000 0.0000 24.3311
#
#
#
# Elastic Compliance Matrix: (Units=1/GPa)
#
#
# Indices 1 2 3 4 5 6 
#
# 1 0.013025 0.000849 -0.003742 0.000000 0.000000 0.000000
# 2 0.000849 0.012668 -0.005687 0.000000 0.000000 0.000000
# 3 -0.003742 -0.005687 0.012809 0.000000 0.000000 0.000000
# 4 0.000000 0.000000 0.000000 0.041786 0.000000 0.000000
# 5 0.000000 0.000000 0.000000 0.000000 0.033278 0.000000
# 6 0.000000 0.000000 0.000000 0.000000 0.000000 0.041100
#
#
# Mechanical properties :
#
#
# Convention : Reuss Voigt Hill
#
# Bulk Modulus (GPa) = 46.85782 50.07444 48.46613
# Shear Modulus (GPa) = 27.94225 29.63585 28.78905
#
# Velocity S-wave (km/s) = 3.65048 3.75948 3.70538
# Velocity P-wave (km/s) = 6.33365 6.53652 6.43588
#
# Compressibility (1/GPa) = 0.02134115
#
# Stress axis : x y z
#
# Youngs Moduli (GPa) = 76.77444 78.93874 78.07193
#
# Poissons Ratio (x) = -0.06699 0.29215
# Poissons Ratio (y) = -0.06516 0.44400
# Poissons Ratio (z) = 0.28729 0.44893
#
# Static dielectric constant tensor:
#      x y z
#    x 3.895830 0.000000 0.000000 
#    y 0.000000 3.945080 0.000000 
#    z 0.000000 0.000000 3.752400 
# 
# 
# High freq. dielectric constant tensor:
#      x y z
#    x 1.820690 0.000000 0.000000 
#    y 0.000000 1.835510 0.000000 
#    z 0.000000 0.000000 1.820090 
# 
# From -- ./inp_files/11510.got.cif
#   From: 2010.03.12/outbox.cif.g09.slc.cpg/sg67_6_cif.got.tgz:11510.got - 2010.04.10 22:41:39.
