data_PCOD8280936
_publ_section_title
;
Structure prediction by ZEFSAII (Michael W. Deem and Ramdas Pophale) SiO2 
 PCOD8280936
Probable space group: C M M A
;
_chemical_formula_sum "Si O2"
_cell_formula_units_Z 96
_cell_length_a 8.771210
_cell_length_b 19.187995
_cell_length_c 31.167869
_cell_angle_alpha 90.000000
_cell_angle_beta 90.000000
_cell_angle_gamma 90.000000
_cell_volume 5245.612620
_symmetry_space_group_name_H-M "C M M A"
_symmetry_group_IT_number 67
_symmetry_cell_setting 'orthorhombic'
loop_
_space_group_symop_operation_xyz
x,y,z
-x,1/2-y,z
x,-y,-z
-x,1/2+y,-z
-x,-y,-z
x,1/2+y,-z
-x,y,z
x,1/2-y,z
1/2+x,1/2+y,z
1/2-x,-y,z
1/2+x,1/2-y,-z
1/2-x,y,-z
1/2-x,1/2-y,-z
1/2+x,y,-z
1/2-x,1/2+y,z
1/2+x,-y,z
loop_
_atom_site_type_symbol
_atom_site_label
_atom_site_fract_x
_atom_site_fract_y
_atom_site_fract_z
Si Si1 0.821620 0.670100 0.453892
Si Si2 0.320990 0.075247 0.865152
Si Si3 0.181430 0.076607 0.380831
Si Si4 0.181283 0.327617 0.208968
Si Si5 0.677758 0.924078 0.041032
Si Si6 0.819075 0.828124 0.695928
O O1 0.793131 0.750000 0.439629
O O2 0.750000 0.656066 0.500000
O O3 0.736623 0.618713 0.421936
O O4 0.000000 0.652453 0.455211
O O5 0.500000 0.066809 0.858711
O O6 0.248642 0.123354 0.827979
O O7 0.286939 0.109736 0.912206
O O8 0.250000 0.000000 0.860507
O O9 0.244185 0.117197 0.338789
O O10 0.000000 0.071751 0.381330
O O11 0.250000 0.000000 0.380909
O O12 0.243782 0.250000 0.200878
O O13 0.233027 0.352799 0.256466
O O14 0.000000 0.327606 0.206014
O O15 0.500000 0.930075 0.032907
O O16 0.750000 0.000000 0.042086
O O17 0.750000 0.882431 0.000000
O O18 0.755946 0.750000 0.686423
O O19 0.000000 0.825603 0.693528
#
# Coordination Sequence:
#
# PCOD8280936 Si02
#       6
#    16  16  16  16  16  16
#     4  10  21  38  60  84 108 136 172 211 250 294
#     4   9  17  27  42  66  91 116 148 189 235 279
#     4  11  22  35  52  77 109 140 171 207 250 297
#     4   8  14  27  47  69  92 120 157 197 234 278
#     4   9  15  23  36  56  82 111 145 183 225 272
#     4   8  15  29  50  73  95 124 163 203 241 284
#
# _framework density 18.301009000000001
#
# number of rings (size 3 to 8) (size 9 to 14) (size 15 to 20)
#    0.000    2.833    0.000    3.500    0.000    3.333 
#    0.000    1.667    0.000    2.000    0.000    4.667 
#    0.000    0.000    0.000    0.000    0.000    4.500 
#
# Total GULP energy -594786.440352 kJ/mol
# GULP energy per Si atom -12391.384174 kJ/mol
# Density = 1.825935 g / cm^3
# Si number density = 18.301009 Si / 1000 Ang^3
#
#
#
# Elastic Constant Matrix: (Units=GPa)
#
#
# Indices 1 2 3 4 5 6 
#
# 1 55.1688 31.8821 44.1102 0.0000 0.0000 0.0000
# 2 31.8821 103.9457 92.2508 0.0000 0.0000 0.0000
# 3 44.1102 92.2508 174.9838 0.0000 0.0000 0.0000
# 4 0.0000 0.0000 0.0000 25.7160 0.0000 0.0000
# 5 0.0000 0.0000 0.0000 0.0000 6.3255 0.0000
# 6 0.0000 0.0000 0.0000 0.0000 0.0000 12.4357
#
#
#
# Elastic Compliance Matrix: (Units=1/GPa)
#
#
# Indices 1 2 3 4 5 6 
#
# 1 0.023417 -0.003653 -0.003977 0.000000 0.000000 0.000000
# 2 -0.003653 0.018649 -0.008911 0.000000 0.000000 0.000000
# 3 -0.003977 -0.008911 0.011415 0.000000 0.000000 0.000000
# 4 0.000000 0.000000 0.000000 0.038886 0.000000 0.000000
# 5 0.000000 0.000000 0.000000 0.000000 0.158091 0.000000
# 6 0.000000 0.000000 0.000000 0.000000 0.000000 0.080414
#
#
# Mechanical properties :
#
#
# Convention : Reuss Voigt Hill
#
# Bulk Modulus (GPa) = 49.02051 74.50939 61.76495
# Shear Modulus (GPa) = 13.48600 19.95245 16.71923
#
# Velocity S-wave (km/s) = 2.71753 3.30546 3.02581
# Velocity P-wave (km/s) = 6.05727 7.44108 6.78455
#
# Compressibility (1/GPa) = 0.02039962
#
# Stress axis : x y z
#
# Youngs Moduli (GPa) = 42.70372 53.62168 87.60167
#
# Poissons Ratio (x) = 0.19586 0.34843
# Poissons Ratio (y) = 0.15598 0.78062
# Poissons Ratio (z) = 0.16985 0.47782
#
# Static dielectric constant tensor:
#      x y z
#    x 3.141560 0.000000 0.000000 
#    y 0.000000 3.302810 0.000000 
#    z 0.000000 0.000000 4.180610 
# 
# 
# High freq. dielectric constant tensor:
#      x y z
#    x 1.684350 0.000000 0.000000 
#    y 0.000000 1.680680 0.000000 
#    z 0.000000 0.000000 1.734900 
# 
# From -- ./inp_files/43477.got.cif
#   From: 2010.03.12/outbox.cif.g09.slc.cpg/sg67_22_cif.got.tgz:43477.got - 2010.04.10 22:41:39.
