data_PCOD8280174
_publ_section_title
;
Structure prediction by ZEFSAII (Michael W. Deem and Ramdas Pophale) SiO2 
 PCOD8280174
Probable space group: C M M A
;
_chemical_formula_sum "Si O2"
_cell_formula_units_Z 80
_cell_length_a 8.761393
_cell_length_b 18.330439
_cell_length_c 25.385653
_cell_angle_alpha 90.000000
_cell_angle_beta 90.000000
_cell_angle_gamma 90.000000
_cell_volume 4076.940440
_symmetry_space_group_name_H-M "C M M A"
_symmetry_group_IT_number 67
_symmetry_cell_setting 'orthorhombic'
loop_
_space_group_symop_operation_xyz
x,y,z
-x,1/2-y,z
x,-y,-z
-x,1/2+y,-z
-x,-y,-z
x,1/2+y,-z
-x,y,z
x,1/2-y,z
1/2+x,1/2+y,z
1/2-x,-y,z
1/2+x,1/2-y,-z
1/2-x,y,-z
1/2-x,1/2-y,-z
1/2+x,y,-z
1/2-x,1/2+y,z
1/2+x,-y,z
loop_
_atom_site_type_symbol
_atom_site_label
_atom_site_fract_x
_atom_site_fract_y
_atom_site_fract_z
Si Si1 0.180482 0.423319 0.943941
Si Si2 0.821190 0.076987 0.554636
Si Si3 0.322474 0.166090 0.343327
Si Si4 0.679245 0.420739 0.750674
Si Si5 0.677313 0.665221 0.146415
O O1 0.250000 0.500000 0.924292
O O2 0.222736 0.360771 0.902763
O O3 0.000000 0.431086 0.949210
O O4 0.250000 0.400809 0.000000
O O5 0.750000 0.105264 0.500000
O O6 0.783177 0.136532 0.598771
O O7 0.000000 0.065843 0.546826
O O8 0.750000 0.000000 0.571983
O O9 0.500000 0.155575 0.330260
O O10 0.272940 0.250000 0.341206
O O11 0.225899 0.121978 0.301293
O O12 0.500000 0.429527 0.750890
O O13 0.750000 0.500000 0.751517
O O14 0.735319 0.376458 0.801725
O O15 0.500000 0.649369 0.134774
O O16 0.708343 0.750000 0.155771
#
# Coordination Sequence:
#
# PCOD8280174 Si02
#       5
#    16  16  16  16  16
#     4  11  22  38  61  87 116 152 194 237 283 335
#     4  10  20  35  56  81 110 146 188 233 280 332
#     4  10  22  39  58  83 116 150 186 233 286 338
#     4  11  23  39  61  87 114 149 191 234 282 336
#     4  10  22  40  60  85 118 151 187 234 284 336
#
# _framework density 19.622557
#
# number of rings (size 3 to 8) (size 9 to 14) (size 15 to 20)
#    0.000    1.600    0.000    6.000    0.000    8.800 
#    0.000    0.000    0.000    0.000    0.000    0.000 
#    0.000    0.000    0.000    0.000    0.000    0.000 
#
# Total GULP energy -496226.536894 kJ/mol
# GULP energy per Si atom -12405.663422 kJ/mol
# Density = 1.957789 g / cm^3
# Si number density = 19.622557 Si / 1000 Ang^3
#
#
#
# Elastic Constant Matrix: (Units=GPa)
#
#
# Indices 1 2 3 4 5 6 
#
# 1 100.4339 52.8505 58.2449 0.0000 0.0000 0.0000
# 2 52.8505 143.9641 81.1514 0.0000 0.0000 0.0000
# 3 58.2449 81.1514 129.8981 0.0000 0.0000 0.0000
# 4 0.0000 0.0000 0.0000 34.1385 0.0000 0.0000
# 5 0.0000 0.0000 0.0000 0.0000 19.8486 0.0000
# 6 0.0000 0.0000 0.0000 0.0000 0.0000 -23.6669
#
#
#
# Elastic Compliance Matrix: (Units=1/GPa)
#
#
# Indices 1 2 3 4 5 6 
#
# 1 0.014003 -0.002472 -0.004735 0.000000 0.000000 0.000000
# 2 -0.002472 0.011158 -0.005863 0.000000 0.000000 0.000000
# 3 -0.004735 -0.005863 0.013484 0.000000 0.000000 0.000000
# 4 0.000000 0.000000 0.000000 0.029292 0.000000 0.000000
# 5 0.000000 0.000000 0.000000 0.000000 0.050381 0.000000
# 6 0.000000 0.000000 0.000000 0.000000 0.000000 -0.042253
#
#
# Mechanical properties :
#
#
# Convention : Reuss Voigt Hill
#
# Bulk Modulus (GPa) = 79.95367 84.30996 82.13182
# Shear Modulus (GPa) = 47.00408 18.20065 32.60237
#
# Velocity S-wave (km/s) = 4.89960 3.04885 4.08054
# Velocity P-wave (km/s) = 8.53478 7.44669 8.00923
#
# Compressibility (1/GPa) = 0.01250724
#
# Stress axis : x y z
#
# Youngs Moduli (GPa) = 71.41153 89.61932 74.16254
#
# Poissons Ratio (x) = 0.22152 0.35114
# Poissons Ratio (y) = 0.17652 0.43479
# Poissons Ratio (z) = 0.33811 0.52540
#
# Static dielectric constant tensor:
#      x y z
#    x 3.730780 0.000000 0.000000 
#    y 0.000000 3.594270 0.000000 
#    z 0.000000 0.000000 3.702900 
# 
# 
# High freq. dielectric constant tensor:
#      x y z
#    x 1.770030 0.000000 0.000000 
#    y 0.000000 1.769350 0.000000 
#    z 0.000000 0.000000 1.778330 
# 
# From -- ./inp_files/43251.got.cif
#   From: 2010.03.12/outbox.cif.g09.slc.cpg/sg67_22_cif.got.tgz:43251.got - 2010.04.10 22:41:39.
