data_PCOD8280993
_publ_section_title
;
Structure prediction by ZEFSAII (Michael W. Deem and Ramdas Pophale) SiO2 
 PCOD8280993
Probable space group: C M M A
;
_chemical_formula_sum "Si O2"
_cell_formula_units_Z 88
_cell_length_a 23.162977
_cell_length_b 15.736096
_cell_length_c 10.663160
_cell_angle_alpha 90.000000
_cell_angle_beta 90.000000
_cell_angle_gamma 90.000000
_cell_volume 3886.666688
_symmetry_space_group_name_H-M "C M M A"
_symmetry_group_IT_number 67
_symmetry_cell_setting 'orthorhombic'
loop_
_space_group_symop_operation_xyz
x,y,z
-x,1/2-y,z
x,-y,-z
-x,1/2+y,-z
-x,-y,-z
x,1/2+y,-z
-x,y,z
x,1/2-y,z
1/2+x,1/2+y,z
1/2-x,-y,z
1/2+x,1/2-y,-z
1/2-x,y,-z
1/2-x,1/2-y,-z
1/2+x,y,-z
1/2-x,1/2+y,z
1/2+x,-y,z
loop_
_atom_site_type_symbol
_atom_site_label
_atom_site_fract_x
_atom_site_fract_y
_atom_site_fract_z
Si Si1 0.353086 0.000000 0.000000
Si Si2 0.886056 0.345559 0.595566
Si Si3 0.565695 0.393521 0.669196
Si Si4 0.172053 0.844611 0.832841
Si Si5 0.762788 0.597702 0.360480
Si Si6 0.937846 0.932434 0.197837
O O1 0.391207 0.941813 0.909891
O O2 0.317466 0.074044 0.926382
O O3 0.872094 0.250000 0.558037
O O4 0.909917 0.389952 0.471195
O O5 0.830649 0.390781 0.657873
O O6 0.930137 0.350225 0.712771
O O7 0.500000 0.354984 0.677313
O O8 0.609227 0.347705 0.766223
O O9 0.564616 0.491565 0.702779
O O10 0.175778 0.750000 0.897349
O O11 0.223955 0.847247 0.733033
O O12 0.750000 0.500000 0.337888
O O13 0.750000 0.629379 0.500000
O O14 0.000000 0.926666 0.130449
#
# Coordination Sequence:
#
# PCOD8280993 Si02
#       6
#     8  16  16  16  16  16
#     4  10  23  44  67  92 130 172 234 278 318 384
#     4  12  24  37  60  97 133 163 208 273 340 402
#     4  10  21  38  62  94 133 173 216 269 329 396
#     4  11  23  42  68  98 134 178 224 274 331 393
#     4  11  23  40  67  95 130 170 216 269 335 406
#     4  10  22  41  64  88 124 176 225 268 321 385
#
# _framework density 22.641508999999999
#
# number of rings (size 3 to 8) (size 9 to 14) (size 15 to 20)
#    0.000    1.273    1.818    4.636    2.545    6.182 
#    0.000    4.091    0.000    5.455    0.000    0.000 
#    0.000    0.000    0.000    0.000    0.000    0.000 
#
# Total GULP energy -545266.976039 kJ/mol
# GULP energy per Si atom -12392.431274 kJ/mol
# Density = 2.258998 g / cm^3
# Si number density = 22.641509 Si / 1000 Ang^3
#
#
#
# Elastic Constant Matrix: (Units=GPa)
#
#
# Indices 1 2 3 4 5 6 
#
# 1 106.3160 30.3386 23.0519 0.0000 0.0000 0.0000
# 2 30.3386 87.3944 33.6254 0.0000 0.0000 0.0000
# 3 23.0519 33.6254 96.1480 0.0000 0.0000 0.0000
# 4 0.0000 0.0000 0.0000 22.0408 0.0000 0.0000
# 5 0.0000 0.0000 0.0000 0.0000 16.0503 0.0000
# 6 0.0000 0.0000 0.0000 0.0000 0.0000 -104.7488
#
#
#
# Elastic Compliance Matrix: (Units=1/GPa)
#
#
# Indices 1 2 3 4 5 6 
#
# 1 0.010613 -0.003126 -0.001451 0.000000 0.000000 0.000000
# 2 -0.003126 0.014142 -0.004196 0.000000 0.000000 0.000000
# 3 -0.001451 -0.004196 0.012216 0.000000 0.000000 0.000000
# 4 0.000000 0.000000 0.000000 0.045370 0.000000 0.000000
# 5 0.000000 0.000000 0.000000 0.000000 0.062304 0.000000
# 6 0.000000 0.000000 0.000000 0.000000 0.000000 -0.009547
#
#
# Mechanical properties :
#
#
# Convention : Reuss Voigt Hill
#
# Bulk Modulus (GPa) = 51.48281 51.54335 51.51308
# Shear Modulus (GPa) = 31.42277 0.19129 15.80703
#
# Velocity S-wave (km/s) = 3.72941 0.29098 2.64511
# Velocity P-wave (km/s) = 6.42902 4.78825 5.66831
#
# Compressibility (1/GPa) = 0.01942396
#
# Stress axis : x y z
#
# Youngs Moduli (GPa) = 94.22795 70.71104 81.85867
#
# Poissons Ratio (x) = 0.22102 0.11880
# Poissons Ratio (y) = 0.29453 0.34351
# Poissons Ratio (z) = 0.13675 0.29673
#
# Static dielectric constant tensor:
#      x y z
#    x 4.382770 0.000000 0.000000 
#    y 0.000000 3.939080 0.000000 
#    z 0.000000 0.000000 3.998860 
# 
# 
# High freq. dielectric constant tensor:
#      x y z
#    x 1.901910 0.000000 0.000000 
#    y 0.000000 1.885440 0.000000 
#    z 0.000000 0.000000 1.884520 
# 
# From -- ./inp_files/21763.got.cif
#   From: 2010.03.12/outbox.cif.g09.slc.cpg/sg67_11_cif.got.tgz:21763.got - 2010.04.10 22:41:39.
