data_PCOD8280764
_publ_section_title
;
Structure prediction by ZEFSAII (Michael W. Deem and Ramdas Pophale) SiO2 
 PCOD8280764
Probable space group: C M M A
;
_chemical_formula_sum "Si O2"
_cell_formula_units_Z 80
_cell_length_a 28.493253
_cell_length_b 18.674979
_cell_length_c 7.547061
_cell_angle_alpha 90.000000
_cell_angle_beta 90.000000
_cell_angle_gamma 90.000000
_cell_volume 4015.873432
_symmetry_space_group_name_H-M "C M M A"
_symmetry_group_IT_number 67
_symmetry_cell_setting 'orthorhombic'
loop_
_space_group_symop_operation_xyz
x,y,z
-x,1/2-y,z
x,-y,-z
-x,1/2+y,-z
-x,-y,-z
x,1/2+y,-z
-x,y,z
x,1/2-y,z
1/2+x,1/2+y,z
1/2-x,-y,z
1/2+x,1/2-y,-z
1/2-x,y,-z
1/2-x,1/2-y,-z
1/2+x,y,-z
1/2-x,1/2+y,z
1/2+x,-y,z
loop_
_atom_site_type_symbol
_atom_site_label
_atom_site_fract_x
_atom_site_fract_y
_atom_site_fract_z
Si Si1 0.298803 0.055927 0.848477
Si Si2 0.878464 0.833132 0.899757
Si Si3 0.877510 0.666568 0.302847
Si Si4 0.552107 0.165238 0.597874
Si Si5 0.713114 0.925711 0.650847
O O1 0.332561 0.123586 0.842601
O O2 0.243550 0.081244 0.839842
O O3 0.304524 0.009509 0.660548
O O4 0.313986 0.000000 0.000000
O O5 0.866276 0.750000 0.869861
O O6 0.922140 0.857569 0.779328
O O7 0.892774 0.849156 0.101745
O O8 0.869358 0.750000 0.337578
O O9 0.918582 0.636450 0.429204
O O10 0.828811 0.629674 0.350813
O O11 0.500000 0.130891 0.595386
O O12 0.547868 0.250000 0.586616
O O13 0.750000 0.904509 0.500000
#
# Coordination Sequence:
#
# PCOD8280764 Si02
#       5
#    16  16  16  16  16
#     4  11  21  36  55  79 115 151 194 234 276 336
#     4  10  21  37  60  86 112 150 194 238 294 341
#     4  10  21  36  56  87 118 148 191 243 292 340
#     4   9  19  37  60  86 115 146 189 243 294 350
#     4  11  22  35  55  81 112 157 200 231 280 347
#
# _framework density 19.920945
#
# number of rings (size 3 to 8) (size 9 to 14) (size 15 to 20)
#    0.000    1.800    2.000    3.600    0.000    2.000 
#    0.000    6.000    0.000    4.800    0.000    0.000 
#    0.000    0.000    0.000    0.000    0.000    0.000 
#
# Total GULP energy -495696.461978 kJ/mol
# GULP energy per Si atom -12392.411549 kJ/mol
# Density = 1.987560 g / cm^3
# Si number density = 19.920945 Si / 1000 Ang^3
#
#
#
# Elastic Constant Matrix: (Units=GPa)
#
#
# Indices 1 2 3 4 5 6 
#
# 1 172.0256 62.6919 76.5420 0.0000 0.0000 0.0000
# 2 62.6919 55.3256 36.5971 0.0000 0.0000 0.0000
# 3 76.5420 36.5971 111.8075 0.0000 0.0000 0.0000
# 4 0.0000 0.0000 0.0000 20.5899 0.0000 0.0000
# 5 0.0000 0.0000 0.0000 0.0000 29.4485 0.0000
# 6 0.0000 0.0000 0.0000 0.0000 0.0000 2.8037
#
#
#
# Elastic Compliance Matrix: (Units=1/GPa)
#
#
# Indices 1 2 3 4 5 6 
#
# 1 0.011502 -0.009987 -0.004605 0.000000 0.000000 0.000000
# 2 -0.009987 0.031742 -0.003553 0.000000 0.000000 0.000000
# 3 -0.004605 -0.003553 0.013259 0.000000 0.000000 0.000000
# 4 0.000000 0.000000 0.000000 0.048568 0.000000 0.000000
# 5 0.000000 0.000000 0.000000 0.000000 0.033958 0.000000
# 6 0.000000 0.000000 0.000000 0.000000 0.000000 0.356667
#
#
# Mechanical properties :
#
#
# Convention : Reuss Voigt Hill
#
# Bulk Modulus (GPa) = 49.47262 76.75788 63.11525
# Shear Modulus (GPa) = 9.28123 21.45693 15.36908
#
# Velocity S-wave (km/s) = 2.16082 3.28549 2.78061
# Velocity P-wave (km/s) = 5.57798 7.28062 6.48542
#
# Compressibility (1/GPa) = 0.02021320
#
# Stress axis : x y z
#
# Youngs Moduli (GPa) = 86.94470 31.50448 75.41863
#
# Poissons Ratio (x) = 0.31463 0.34730
# Poissons Ratio (y) = 0.86830 0.26795
# Poissons Ratio (z) = 0.40037 0.11193
#
# Static dielectric constant tensor:
#      x y z
#    x 3.691290 0.000000 0.000000 
#    y 0.000000 3.378540 0.000000 
#    z 0.000000 0.000000 4.491010 
# 
# 
# High freq. dielectric constant tensor:
#      x y z
#    x 1.762460 0.000000 0.000000 
#    y 0.000000 1.744080 0.000000 
#    z 0.000000 0.000000 1.810760 
# 
# From -- ./inp_files/13509.got.cif
#   From: 2010.03.12/outbox.cif.g09.slc.cpg/sg67_7_cif.got.tgz:13509.got - 2010.04.10 22:41:39.
