data_PCOD8280885
_publ_section_title
;
Structure prediction by ZEFSAII (Michael W. Deem and Ramdas Pophale) SiO2 
 PCOD8280885
Probable space group: C M M A
;
_chemical_formula_sum "Si O2"
_cell_formula_units_Z 96
_cell_length_a 17.807210
_cell_length_b 14.426779
_cell_length_c 18.063415
_cell_angle_alpha 90.000000
_cell_angle_beta 90.000000
_cell_angle_gamma 90.000000
_cell_volume 4640.503656
_symmetry_space_group_name_H-M "C M M A"
_symmetry_group_IT_number 67
_symmetry_cell_setting 'orthorhombic'
loop_
_space_group_symop_operation_xyz
x,y,z
-x,1/2-y,z
x,-y,-z
-x,1/2+y,-z
-x,-y,-z
x,1/2+y,-z
-x,y,z
x,1/2-y,z
1/2+x,1/2+y,z
1/2-x,-y,z
1/2+x,1/2-y,-z
1/2-x,y,-z
1/2-x,1/2-y,-z
1/2+x,y,-z
1/2-x,1/2+y,z
1/2+x,-y,z
loop_
_atom_site_type_symbol
_atom_site_label
_atom_site_fract_x
_atom_site_fract_y
_atom_site_fract_z
Si Si1 0.664562 0.491884 0.587365
Si Si2 0.585087 0.148035 0.327750
Si Si3 0.412257 0.856588 0.307435
Si Si4 0.784315 0.143416 0.076406
Si Si5 0.141144 0.147254 0.830188
Si Si6 0.915807 0.452939 0.153186
O O1 0.659479 0.500000 0.500000
O O2 0.750000 0.500000 0.614732
O O3 0.613538 0.576585 0.612687
O O4 0.631893 0.396544 0.621402
O O5 0.500000 0.122139 0.302277
O O6 0.586029 0.250000 0.364290
O O7 0.641190 0.146831 0.258317
O O8 0.500000 0.862359 0.325144
O O9 0.387472 0.750000 0.293562
O O10 0.392194 0.918623 0.235401
O O11 0.806095 0.250000 0.067113
O O12 0.725501 0.126782 0.142688
O O13 0.860730 0.089758 0.092641
O O14 0.750000 0.104600 0.000000
O O15 0.114583 0.250000 0.859234
O O16 0.086861 0.064435 0.855998
O O17 0.000000 0.419089 0.135497
#
# Coordination Sequence:
#
# PCOD8280885 Si02
#       6
#    16  16  16  16  16  16
#     4  11  25  41  60  90 125 162 203 251 311 372
#     4  10  21  39  63  90 120 159 210 259 306 362
#     4  10  22  40  63  91 122 160 206 255 308 366
#     4  10  23  43  65  92 127 168 210 252 307 371
#     4  10  21  37  62  93 124 163 208 256 306 364
#     4  11  22  38  64  95 127 163 208 261 310 365
#
# _framework density 20.68741
#
# number of rings (size 3 to 8) (size 9 to 14) (size 15 to 20)
#    0.000    1.667    1.667    2.000    2.333    6.000 
#    0.000    5.833    0.000    6.000    0.000    0.000 
#    0.000    0.000    0.000    0.000    0.000    0.000 
#
# Total GULP energy -595137.296528 kJ/mol
# GULP energy per Si atom -12398.693678 kJ/mol
# Density = 2.064032 g / cm^3
# Si number density = 20.687410 Si / 1000 Ang^3
#
#
#
# Elastic Constant Matrix: (Units=GPa)
#
#
# Indices 1 2 3 4 5 6 
#
# 1 110.7718 60.4761 59.2784 0.0000 0.0000 0.0000
# 2 60.4761 139.4701 45.3641 0.0000 0.0000 0.0000
# 3 59.2784 45.3641 83.5774 0.0000 0.0000 0.0000
# 4 0.0000 0.0000 0.0000 28.8885 0.0000 0.0000
# 5 0.0000 0.0000 0.0000 0.0000 31.2225 0.0000
# 6 0.0000 0.0000 0.0000 0.0000 0.0000 29.2356
#
#
#
# Elastic Compliance Matrix: (Units=1/GPa)
#
#
# Indices 1 2 3 4 5 6 
#
# 1 0.016193 -0.003990 -0.009319 0.000000 0.000000 0.000000
# 2 -0.003990 0.009691 -0.002430 0.000000 0.000000 0.000000
# 3 -0.009319 -0.002430 0.019894 0.000000 0.000000 0.000000
# 4 0.000000 0.000000 0.000000 0.034616 0.000000 0.000000
# 5 0.000000 0.000000 0.000000 0.000000 0.032028 0.000000
# 6 0.000000 0.000000 0.000000 0.000000 0.000000 0.034205
#
#
# Mechanical properties :
#
#
# Convention : Reuss Voigt Hill
#
# Bulk Modulus (GPa) = 69.93662 73.78405 71.86034
# Shear Modulus (GPa) = 27.34162 29.11604 28.22883
#
# Velocity S-wave (km/s) = 3.63940 3.75564 3.69798
# Velocity P-wave (km/s) = 7.17914 7.38580 7.28320
#
# Compressibility (1/GPa) = 0.01429866
#
# Stress axis : x y z
#
# Youngs Moduli (GPa) = 61.75381 103.19353 50.26741
#
# Poissons Ratio (x) = 0.41178 0.46846
# Poissons Ratio (y) = 0.24642 0.12213
# Poissons Ratio (z) = 0.57551 0.25072
#
# Static dielectric constant tensor:
#      x y z
#    x 3.719710 0.000000 0.000000 
#    y 0.000000 4.058270 0.000000 
#    z 0.000000 0.000000 3.564500 
# 
# 
# High freq. dielectric constant tensor:
#      x y z
#    x 1.807040 0.000000 0.000000 
#    y 0.000000 1.828230 0.000000 
#    z 0.000000 0.000000 1.788690 
# 
# From -- ./inp_files/38454.got.cif
#   From: 2010.03.12/outbox.cif.g09.slc.cpg/sg67_20_cif.got.tgz:38454.got - 2010.04.10 22:41:39.
