data_PCOD8280604
_publ_section_title
;
Structure prediction by ZEFSAII (Michael W. Deem and Ramdas Pophale) SiO2 
 PCOD8280604
Probable space group: C M M A
;
_chemical_formula_sum "Si O2"
_cell_formula_units_Z 80
_cell_length_a 27.229235
_cell_length_b 8.839730
_cell_length_c 17.980053
_cell_angle_alpha 90.000000
_cell_angle_beta 90.000000
_cell_angle_gamma 90.000000
_cell_volume 4327.782314
_symmetry_space_group_name_H-M "C M M A"
_symmetry_group_IT_number 67
_symmetry_cell_setting 'orthorhombic'
loop_
_space_group_symop_operation_xyz
x,y,z
-x,1/2-y,z
x,-y,-z
-x,1/2+y,-z
-x,-y,-z
x,1/2+y,-z
-x,y,z
x,1/2-y,z
1/2+x,1/2+y,z
1/2-x,-y,z
1/2+x,1/2-y,-z
1/2-x,y,-z
1/2-x,1/2-y,-z
1/2+x,y,-z
1/2-x,1/2+y,z
1/2+x,-y,z
loop_
_atom_site_type_symbol
_atom_site_label
_atom_site_fract_x
_atom_site_fract_y
_atom_site_fract_z
Si Si1 0.000000 0.931069 0.417243
Si Si2 0.405103 0.431916 0.656862
Si Si3 0.696802 0.431037 0.922840
Si Si4 0.750000 0.500000 0.306304
Si Si5 0.844259 0.422510 0.782768
Si Si6 0.313987 0.088982 0.568396
O O1 0.000000 0.750000 0.423343
O O2 0.000000 0.000000 0.500000
O O3 0.045551 0.988970 0.369219
O O4 0.410398 0.250000 0.661652
O O5 0.387356 0.496596 0.736209
O O6 0.364436 0.485428 0.597055
O O7 0.700300 0.250000 0.927086
O O8 0.750000 0.500000 0.905111
O O9 0.659467 0.481940 0.858611
O O10 0.676829 0.500000 0.000000
O O11 0.790878 0.581942 0.256764
O O12 0.722931 0.615127 0.362435
O O13 0.859608 0.250000 0.799370
O O14 0.327010 0.250000 0.534247
O O15 0.290206 0.000000 0.500000
#
# Coordination Sequence:
#
# PCOD8280604 Si02
#       6
#     8  16  16   8  16  16
#     4  12  24  40  62  86 111 142 183 234 294 346
#     4  10  22  39  57  79 107 139 180 228 283 338
#     4  11  21  34  53  79 112 150 191 231 274 325
#     4  10  21  32  49  68 102 140 184 218 267 314
#     4  11  21  35  55  79 110 146 186 228 275 328
#     4  10  21  34  48  69  96 132 175 220 265 318
#
# _framework density 18.485216999999999
#
# number of rings (size 3 to 8) (size 9 to 14) (size 15 to 20)
#    0.000    1.400    1.000    6.000    0.000    8.800 
#    0.000    0.000    0.000    0.000    0.000    0.700 
#    0.000    0.000    0.000    0.000    0.000    0.000 
#
# Total GULP energy -495702.003446 kJ/mol
# GULP energy per Si atom -12392.550086 kJ/mol
# Density = 1.844314 g / cm^3
# Si number density = 18.485217 Si / 1000 Ang^3
#
#
#
# Elastic Constant Matrix: (Units=GPa)
#
#
# Indices 1 2 3 4 5 6 
#
# 1 104.4291 38.6907 52.2757 0.0000 0.0000 0.0000
# 2 38.6907 149.6378 62.9818 0.0000 0.0000 0.0000
# 3 52.2757 62.9818 143.6531 0.0000 0.0000 0.0000
# 4 0.0000 0.0000 0.0000 30.3180 0.0000 0.0000
# 5 0.0000 0.0000 0.0000 0.0000 22.9828 0.0000
# 6 0.0000 0.0000 0.0000 0.0000 0.0000 19.9946
#
#
#
# Elastic Compliance Matrix: (Units=1/GPa)
#
#
# Indices 1 2 3 4 5 6 
#
# 1 0.011995 -0.001550 -0.003685 0.000000 0.000000 0.000000
# 2 -0.001550 0.008395 -0.003117 0.000000 0.000000 0.000000
# 3 -0.003685 -0.003117 0.009669 0.000000 0.000000 0.000000
# 4 0.000000 0.000000 0.000000 0.032984 0.000000 0.000000
# 5 0.000000 0.000000 0.000000 0.000000 0.043511 0.000000
# 6 0.000000 0.000000 0.000000 0.000000 0.000000 0.050013
#
#
# Mechanical properties :
#
#
# Convention : Reuss Voigt Hill
#
# Bulk Modulus (GPa) = 74.88023 78.40181 76.64102
# Shear Modulus (GPa) = 28.13361 30.91053 29.52207
#
# Velocity S-wave (km/s) = 3.90545 4.09366 4.00066
# Velocity P-wave (km/s) = 7.80595 8.05291 7.93039
#
# Compressibility (1/GPa) = 0.01335466
#
# Stress axis : x y z
#
# Youngs Moduli (GPa) = 83.36749 119.11221 103.42608
#
# Poissons Ratio (x) = 0.18467 0.38116
# Poissons Ratio (y) = 0.12925 0.32234
# Poissons Ratio (z) = 0.30724 0.37123
#
# Static dielectric constant tensor:
#      x y z
#    x 3.238010 0.000000 0.000000 
#    y 0.000000 3.455190 0.000000 
#    z 0.000000 0.000000 3.536660 
# 
# 
# High freq. dielectric constant tensor:
#      x y z
#    x 1.685590 0.000000 0.000000 
#    y 0.000000 1.731500 0.000000 
#    z 0.000000 0.000000 1.718360 
# 
# From -- ./inp_files/35812.got.cif
#   From: 2010.03.12/outbox.cif.g09.slc.cpg/sg67_18_cif.got.tgz:35812.got - 2010.04.10 22:41:39.
