data_PCOD8280740
_publ_section_title
;
Structure prediction by ZEFSAII (Michael W. Deem and Ramdas Pophale) SiO2 
 PCOD8280740
Probable space group: C M M A
;
_chemical_formula_sum "Si O2"
_cell_formula_units_Z 88
_cell_length_a 8.898043
_cell_length_b 16.070742
_cell_length_c 29.450713
_cell_angle_alpha 90.000000
_cell_angle_beta 90.000000
_cell_angle_gamma 90.000000
_cell_volume 4211.397574
_symmetry_space_group_name_H-M "C M M A"
_symmetry_group_IT_number 67
_symmetry_cell_setting 'orthorhombic'
loop_
_space_group_symop_operation_xyz
x,y,z
-x,1/2-y,z
x,-y,-z
-x,1/2+y,-z
-x,-y,-z
x,1/2+y,-z
-x,y,z
x,1/2-y,z
1/2+x,1/2+y,z
1/2-x,-y,z
1/2+x,1/2-y,-z
1/2-x,y,-z
1/2-x,1/2-y,-z
1/2+x,y,-z
1/2-x,1/2+y,z
1/2+x,-y,z
loop_
_atom_site_type_symbol
_atom_site_label
_atom_site_fract_x
_atom_site_fract_y
_atom_site_fract_z
Si Si1 0.164182 0.154591 0.042480
Si Si2 0.325052 0.413336 0.226901
Si Si3 0.323058 0.088047 0.125672
Si Si4 0.668034 0.156997 0.691364
Si Si5 0.318693 0.750000 0.549607
Si Si6 0.321386 0.912195 0.403448
O O1 0.140556 0.250000 0.030072
O O2 0.258123 0.151365 0.088991
O O3 0.000000 0.112050 0.048354
O O4 0.250000 0.110966 0.000000
O O5 0.500000 0.427662 0.229078
O O6 0.250000 0.500000 0.239144
O O7 0.278539 0.381679 0.176542
O O8 0.276955 0.348628 0.265366
O O9 0.500000 0.081674 0.120020
O O10 0.250000 0.000000 0.114968
O O11 0.500000 0.138423 0.708745
O O12 0.681288 0.250000 0.671499
O O13 0.709838 0.094879 0.650533
O O14 0.500000 0.750000 0.549229
O O15 0.250000 0.750000 0.500000
O O16 0.260209 0.834554 0.572945
O O17 0.500000 0.910082 0.414117
O O18 0.250000 0.000000 0.420162
#
# Coordination Sequence:
#
# PCOD8280740 Si02
#       6
#    16  16  16  16   8  16
#     4  10  21  37  57  80 106 138 178 225 281 345
#     4  10  21  36  55  81 113 152 195 242 294 355
#     4  10  21  37  56  79 110 145 186 236 289 345
#     4  10  21  38  60  88 124 164 206 257 309 363
#     4  12  26  46  72 102 136 178 222 276 333 388
#     4  11  23  43  68  99 136 176 223 274 329 390
#
# _framework density 20.895676000000002
#
# number of rings (size 3 to 8) (size 9 to 14) (size 15 to 20)
#    0.000    1.636    0.909    3.545    0.000    8.000 
#    0.000    7.273    0.000    0.000    0.000    0.000 
#    0.000    0.000    0.000    0.000    0.000    0.000 
#
# Total GULP energy -545492.908142 kJ/mol
# GULP energy per Si atom -12397.566094 kJ/mol
# Density = 2.084812 g / cm^3
# Si number density = 20.895676 Si / 1000 Ang^3
#
#
#
# Elastic Constant Matrix: (Units=GPa)
#
#
# Indices 1 2 3 4 5 6 
#
# 1 125.7491 46.0120 61.7937 0.0000 0.0000 0.0000
# 2 46.0120 92.8764 43.1725 0.0000 0.0000 0.0000
# 3 61.7937 43.1725 120.7506 0.0000 0.0000 0.0000
# 4 0.0000 0.0000 0.0000 21.6909 0.0000 0.0000
# 5 0.0000 0.0000 0.0000 0.0000 36.5404 0.0000
# 6 0.0000 0.0000 0.0000 0.0000 0.0000 34.3604
#
#
#
# Elastic Compliance Matrix: (Units=1/GPa)
#
#
# Indices 1 2 3 4 5 6 
#
# 1 0.011529 -0.003561 -0.004627 0.000000 0.000000 0.000000
# 2 -0.003561 0.014013 -0.003188 0.000000 0.000000 0.000000
# 3 -0.004627 -0.003188 0.011789 0.000000 0.000000 0.000000
# 4 0.000000 0.000000 0.000000 0.046102 0.000000 0.000000
# 5 0.000000 0.000000 0.000000 0.000000 0.027367 0.000000
# 6 0.000000 0.000000 0.000000 0.000000 0.000000 0.029103
#
#
# Mechanical properties :
#
#
# Convention : Reuss Voigt Hill
#
# Bulk Modulus (GPa) = 68.58740 71.25916 69.92328
# Shear Modulus (GPa) = 29.84823 31.07819 30.46321
#
# Velocity S-wave (km/s) = 3.78357 3.86074 3.82235
# Velocity P-wave (km/s) = 7.20987 7.35188 7.28122
#
# Compressibility (1/GPa) = 0.01457994
#
# Stress axis : x y z
#
# Youngs Moduli (GPa) = 86.73883 71.36277 84.82468
#
# Poissons Ratio (x) = 0.25411 0.39246
# Poissons Ratio (y) = 0.30886 0.27041
# Poissons Ratio (z) = 0.40132 0.22749
#
# Static dielectric constant tensor:
#      x y z
#    x 4.084100 0.000000 0.000000 
#    y 0.000000 3.515260 0.000000 
#    z 0.000000 0.000000 3.874840 
# 
# 
# High freq. dielectric constant tensor:
#      x y z
#    x 1.830980 0.000000 0.000000 
#    y 0.000000 1.804480 0.000000 
#    z 0.000000 0.000000 1.824890 
# 
# From -- ./inp_files/45239.got.cif
#   From: 2010.03.12/outbox.cif.g09.slc.cpg/sg67_23_cif.got.tgz:45239.got - 2010.04.10 22:41:39.
