data_PCOD8280893
_publ_section_title
;
Structure prediction by ZEFSAII (Michael W. Deem and Ramdas Pophale) SiO2 
 PCOD8280893
Probable space group: C M M A
;
_chemical_formula_sum "Si O2"
_cell_formula_units_Z 80
_cell_length_a 9.746219
_cell_length_b 17.567877
_cell_length_c 25.816809
_cell_angle_alpha 90.000000
_cell_angle_beta 90.000000
_cell_angle_gamma 90.000000
_cell_volume 4420.363760
_symmetry_space_group_name_H-M "C M M A"
_symmetry_group_IT_number 67
_symmetry_cell_setting 'orthorhombic'
loop_
_space_group_symop_operation_xyz
x,y,z
-x,1/2-y,z
x,-y,-z
-x,1/2+y,-z
-x,-y,-z
x,1/2+y,-z
-x,y,z
x,1/2-y,z
1/2+x,1/2+y,z
1/2-x,-y,z
1/2+x,1/2-y,-z
1/2-x,y,-z
1/2-x,1/2-y,-z
1/2+x,y,-z
1/2-x,1/2+y,z
1/2+x,-y,z
loop_
_atom_site_type_symbol
_atom_site_label
_atom_site_fract_x
_atom_site_fract_y
_atom_site_fract_z
Si Si1 0.211536 0.840507 0.883577
Si Si2 0.500000 0.341026 0.083079
Si Si3 0.778022 0.586345 0.612911
Si Si4 0.000000 0.081698 0.473846
Si Si5 0.000000 0.840553 0.801073
Si Si6 0.500000 0.661370 0.578849
Si Si7 0.000000 0.659662 0.967098
Si Si8 0.500000 0.840701 0.315970
O O1 0.209946 0.750000 0.882694
O O2 0.366993 0.871596 0.885946
O O3 0.135129 0.870440 0.831795
O O4 0.133806 0.868259 0.935518
O O5 0.500000 0.250000 0.080678
O O6 0.500000 0.374984 0.024798
O O7 0.750000 0.500000 0.629578
O O8 0.862823 0.590520 0.559631
O O9 0.633169 0.626788 0.605966
O O10 0.862449 0.627847 0.657791
O O11 0.000000 0.146285 0.517450
O O12 0.000000 0.000000 0.500000
O O13 0.000000 0.871568 0.742796
O O14 0.000000 0.750000 0.800026
O O15 0.500000 0.750000 0.588984
O O16 0.000000 0.750000 0.971204
O O17 0.500000 0.750000 0.320077
#
# Coordination Sequence:
#
# PCOD8280893 Si02
#       8
#    16   8  16   8   8   8   8   8
#     4   8  13  20  31  48  73 108 154 197 243 300
#     4   9  13  16  26  47  74 104 147 202 245 285
#     4  11  22  38  59  79 109 143 177 211 259 317
#     4  11  21  37  59  80 108 149 177 195 244 318
#     4   8  15  29  44  57  78 116 161 207 252 300
#     4  12  24  35  55  87 116 139 175 222 255 293
#     4   8  12  17  25  41  70 109 150 194 237 289
#     4  10  21  38  58  76 101 137 181 224 265 309
#
# _framework density 18.098057000000001
#
# number of rings (size 3 to 8) (size 9 to 14) (size 15 to 20)
#    0.000    2.400    2.000    3.600    0.000    5.600 
#    0.000    1.000    0.000    3.600    0.000    0.000 
#    0.000    0.000    0.000    0.000    0.000   48.000 
#
# Total GULP energy -495844.849037 kJ/mol
# GULP energy per Si atom -12396.121226 kJ/mol
# Density = 1.805687 g / cm^3
# Si number density = 18.098057 Si / 1000 Ang^3
#
#
#
# Elastic Constant Matrix: (Units=GPa)
#
#
# Indices 1 2 3 4 5 6 
#
# 1 189.8232 39.6588 86.9387 0.0000 0.0000 0.0000
# 2 39.6588 72.1065 30.8292 0.0000 0.0000 0.0000
# 3 86.9387 30.8292 149.2826 0.0000 0.0000 0.0000
# 4 0.0000 0.0000 0.0000 5.6416 0.0000 0.0000
# 5 0.0000 0.0000 0.0000 0.0000 13.0234 0.0000
# 6 0.0000 0.0000 0.0000 0.0000 0.0000 18.1792
#
#
#
# Elastic Compliance Matrix: (Units=1/GPa)
#
#
# Indices 1 2 3 4 5 6 
#
# 1 0.007574 -0.002501 -0.003895 0.000000 0.000000 0.000000
# 2 -0.002501 0.016037 -0.001856 0.000000 0.000000 0.000000
# 3 -0.003895 -0.001856 0.009350 0.000000 0.000000 0.000000
# 4 0.000000 0.000000 0.000000 0.177255 0.000000 0.000000
# 5 0.000000 0.000000 0.000000 0.000000 0.076785 0.000000
# 6 0.000000 0.000000 0.000000 0.000000 0.000000 0.055008
#
#
# Mechanical properties :
#
#
# Convention : Reuss Voigt Hill
#
# Bulk Modulus (GPa) = 60.75475 80.67396 70.71436
# Shear Modulus (GPa) = 13.73637 24.28789 19.01213
#
# Velocity S-wave (km/s) = 2.75798 3.66733 3.24467
# Velocity P-wave (km/s) = 6.61699 7.91234 7.29348
#
# Compressibility (1/GPa) = 0.01645962
#
# Stress axis : x y z
#
# Youngs Moduli (GPa) = 132.02620 62.35534 106.95131
#
# Poissons Ratio (x) = 0.15593 0.41654
# Poissons Ratio (y) = 0.33016 0.19845
# Poissons Ratio (z) = 0.51419 0.11570
#
# Static dielectric constant tensor:
#      x y z
#    x 3.692980 0.000000 0.000000 
#    y 0.000000 3.020170 0.000000 
#    z 0.000000 0.000000 3.514960 
# 
# 
# High freq. dielectric constant tensor:
#      x y z
#    x 1.719510 0.000000 0.000000 
#    y 0.000000 1.650660 0.000000 
#    z 0.000000 0.000000 1.690600 
# 
# From -- ./inp_files/40635.got.cif
#   From: 2010.03.12/outbox.cif.g09.slc.cpg/sg67_21_cif.got.tgz:40635.got - 2010.04.10 22:41:39.
