data_PCOD8280890
_publ_section_title
;
Structure prediction by ZEFSAII (Michael W. Deem and Ramdas Pophale) SiO2 
 PCOD8280890
Probable space group: C M M A
;
_chemical_formula_sum "Si O2"
_cell_formula_units_Z 72
_cell_length_a 15.624292
_cell_length_b 8.840282
_cell_length_c 25.277642
_cell_angle_alpha 90.000000
_cell_angle_beta 90.000000
_cell_angle_gamma 90.000000
_cell_volume 3491.427470
_symmetry_space_group_name_H-M "C M M A"
_symmetry_group_IT_number 67
_symmetry_cell_setting 'orthorhombic'
loop_
_space_group_symop_operation_xyz
x,y,z
-x,1/2-y,z
x,-y,-z
-x,1/2+y,-z
-x,-y,-z
x,1/2+y,-z
-x,y,z
x,1/2-y,z
1/2+x,1/2+y,z
1/2-x,-y,z
1/2+x,1/2-y,-z
1/2-x,y,-z
1/2-x,1/2-y,-z
1/2+x,y,-z
1/2-x,1/2+y,z
1/2+x,-y,z
loop_
_atom_site_type_symbol
_atom_site_label
_atom_site_fract_x
_atom_site_fract_y
_atom_site_fract_z
Si Si1 0.598497 0.416367 0.550255
Si Si2 0.000000 0.930318 0.942514
Si Si3 0.342140 0.073349 0.755718
Si Si4 0.157592 0.926285 0.872895
Si Si5 0.156317 0.070934 0.653240
O O1 0.642739 0.500000 0.500000
O O2 0.500000 0.392254 0.536845
O O3 0.641341 0.250000 0.558430
O O4 0.604718 0.518840 0.602168
O O5 0.914284 0.989044 0.912935
O O6 0.000000 0.750000 0.944858
O O7 0.000000 0.000000 0.000000
O O8 0.336539 0.250000 0.742686
O O9 0.381494 0.043981 0.813904
O O10 0.250000 0.000000 0.758089
O O11 0.391095 0.991442 0.706819
O O12 0.172823 0.750000 0.881436
O O13 0.250000 0.000000 0.883440
O O14 0.160398 0.250000 0.655333
O O15 0.250000 0.000000 0.649601
#
# Coordination Sequence:
#
# PCOD8280890 Si02
#       5
#    16   8  16  16  16
#     4  10  21  38  57  76 102 138 179 223 274 331
#     4  10  22  40  58  84 118 154 193 240 285 338
#     4   9  16  30  52  78 106 140 178 220 272 329
#     4   9  19  36  59  83 114 152 194 236 288 344
#     4  11  21  34  54  80 111 141 177 224 273 328
#
# _framework density 20.621938
#
# number of rings (size 3 to 8) (size 9 to 14) (size 15 to 20)
#    0.000    2.222    0.000    4.667    0.000    4.000 
#    2.000    4.444    0.000    0.000    0.000    0.000 
#    0.000    0.000    0.000    0.000    0.000    0.000 
#
# Total GULP energy -446092.169696 kJ/mol
# GULP energy per Si atom -12391.449158 kJ/mol
# Density = 2.057500 g / cm^3
# Si number density = 20.621938 Si / 1000 Ang^3
#
#
#
# Elastic Constant Matrix: (Units=GPa)
#
#
# Indices 1 2 3 4 5 6 
#
# 1 66.7269 31.2596 51.6015 0.0000 0.0000 0.0000
# 2 31.2596 143.2957 74.8853 0.0000 0.0000 0.0000
# 3 51.6015 74.8853 195.9194 0.0000 0.0000 0.0000
# 4 0.0000 0.0000 0.0000 36.4265 0.0000 0.0000
# 5 0.0000 0.0000 0.0000 0.0000 31.6108 0.0000
# 6 0.0000 0.0000 0.0000 0.0000 0.0000 21.4201
#
#
#
# Elastic Compliance Matrix: (Units=1/GPa)
#
#
# Indices 1 2 3 4 5 6 
#
# 1 0.019240 -0.001936 -0.004328 0.000000 0.000000 0.000000
# 2 -0.001936 0.008915 -0.002898 0.000000 0.000000 0.000000
# 3 -0.004328 -0.002898 0.007352 0.000000 0.000000 0.000000
# 4 0.000000 0.000000 0.000000 0.027453 0.000000 0.000000
# 5 0.000000 0.000000 0.000000 0.000000 0.031635 0.000000
# 6 0.000000 0.000000 0.000000 0.000000 0.000000 0.046685
#
#
# Mechanical properties :
#
#
# Convention : Reuss Voigt Hill
#
# Bulk Modulus (GPa) = 58.19143 80.15941 69.17542
# Shear Modulus (GPa) = 30.24269 34.43786 32.34027
#
# Velocity S-wave (km/s) = 3.83368 4.09095 3.96440
# Velocity P-wave (km/s) = 6.91922 7.82750 7.38734
#
# Compressibility (1/GPa) = 0.01718466
#
# Stress axis : x y z
#
# Youngs Moduli (GPa) = 51.97551 112.16810 136.02549
#
# Poissons Ratio (x) = 0.21711 0.58866
# Poissons Ratio (y) = 0.10060 0.39418
# Poissons Ratio (z) = 0.22493 0.32504
#
# Static dielectric constant tensor:
#      x y z
#    x 3.408420 0.000000 0.000000 
#    y 0.000000 3.898140 0.000000 
#    z 0.000000 0.000000 4.739100 
# 
# 
# High freq. dielectric constant tensor:
#      x y z
#    x 1.770220 0.000000 0.000000 
#    y 0.000000 1.813760 0.000000 
#    z 0.000000 0.000000 1.825210 
# 
# From -- ./inp_files/40528.got.cif
#   From: 2010.03.12/outbox.cif.g09.slc.cpg/sg67_21_cif.got.tgz:40528.got - 2010.04.10 22:41:39.
