data_PCOD8280254
_publ_section_title
;
Structure prediction by ZEFSAII (Michael W. Deem and Ramdas Pophale) SiO2 
 PCOD8280254
Probable space group: C M M A
;
_chemical_formula_sum "Si O2"
_cell_formula_units_Z 88
_cell_length_a 15.956819
_cell_length_b 9.106958
_cell_length_c 30.020138
_cell_angle_alpha 90.000000
_cell_angle_beta 90.000000
_cell_angle_gamma 90.000000
_cell_volume 4362.468829
_symmetry_space_group_name_H-M "C M M A"
_symmetry_group_IT_number 67
_symmetry_cell_setting 'orthorhombic'
loop_
_space_group_symop_operation_xyz
x,y,z
-x,1/2-y,z
x,-y,-z
-x,1/2+y,-z
-x,-y,-z
x,1/2+y,-z
-x,y,z
x,1/2-y,z
1/2+x,1/2+y,z
1/2-x,-y,z
1/2+x,1/2-y,-z
1/2-x,y,-z
1/2-x,1/2-y,-z
1/2+x,y,-z
1/2-x,1/2+y,z
1/2+x,-y,z
loop_
_atom_site_type_symbol
_atom_site_label
_atom_site_fract_x
_atom_site_fract_y
_atom_site_fract_z
Si Si1 0.903402 0.911146 0.228023
Si Si2 0.900940 0.585630 0.042104
Si Si3 0.835485 0.924622 0.397626
Si Si4 0.900601 0.918857 0.687376
Si Si5 0.500000 0.577257 0.547035
Si Si6 0.163698 0.576153 0.135248
O O1 0.860195 0.750000 0.233575
O O2 0.893007 0.968735 0.177470
O O3 0.000000 0.892922 0.238118
O O4 0.868175 0.026562 0.264116
O O5 0.866007 0.750000 0.038859
O O6 0.874146 0.513030 0.089089
O O7 0.000000 0.582885 0.039658
O O8 0.861788 0.500000 0.000000
O O9 0.823633 0.750000 0.397113
O O10 0.915611 0.971823 0.427247
O O11 0.750000 0.000000 0.416316
O O12 0.852125 0.982007 0.348059
O O13 0.874086 0.750000 0.681498
O O14 0.000000 0.938434 0.681397
O O15 0.500000 0.750000 0.539761
O O16 0.500000 0.500000 0.500000
O O17 0.172668 0.750000 0.131405
O O18 0.250000 0.500000 0.144977
#
# Coordination Sequence:
#
# PCOD8280254 Si02
#       6
#    16  16  16  16   8  16
#     4   9  18  34  56  78 104 145 191 233 278 333
#     4   9  18  34  55  76  97 125 167 215 262 319
#     4  11  23  41  64  94 127 166 211 257 307 365
#     4  10  20  35  58  88 120 156 197 245 298 353
#     4  10  24  44  68  94 128 168 210 258 311 364
#     4  10  21  35  51  73 103 138 174 217 270 328
#
# _framework density 20.172063999999999
#
# number of rings (size 3 to 8) (size 9 to 14) (size 15 to 20)
#    0.000    2.182    0.909    1.636    0.000    7.273 
#    0.000    5.455    0.000    5.455    0.000    0.000 
#    0.000    0.000    0.000    0.000    0.000    0.000 
#
# Total GULP energy -545436.489330 kJ/mol
# GULP energy per Si atom -12396.283848 kJ/mol
# Density = 2.012615 g / cm^3
# Si number density = 20.172064 Si / 1000 Ang^3
#
#
#
# Elastic Constant Matrix: (Units=GPa)
#
#
# Indices 1 2 3 4 5 6 
#
# 1 74.4188 40.0902 45.7403 0.0000 0.0000 0.0000
# 2 40.0902 71.4620 55.5582 0.0000 0.0000 0.0000
# 3 45.7403 55.5582 155.6466 0.0000 0.0000 0.0000
# 4 0.0000 0.0000 0.0000 36.1883 0.0000 0.0000
# 5 0.0000 0.0000 0.0000 0.0000 14.5110 0.0000
# 6 0.0000 0.0000 0.0000 0.0000 0.0000 29.1568
#
#
#
# Elastic Compliance Matrix: (Units=1/GPa)
#
#
# Indices 1 2 3 4 5 6 
#
# 1 0.019984 -0.009198 -0.002590 0.000000 0.000000 0.000000
# 2 -0.009198 0.023602 -0.005722 0.000000 0.000000 0.000000
# 3 -0.002590 -0.005722 0.009228 0.000000 0.000000 0.000000
# 4 0.000000 0.000000 0.000000 0.027633 0.000000 0.000000
# 5 0.000000 0.000000 0.000000 0.000000 0.068913 0.000000
# 6 0.000000 0.000000 0.000000 0.000000 0.000000 0.034297
#
#
# Mechanical properties :
#
#
# Convention : Reuss Voigt Hill
#
# Bulk Modulus (GPa) = 56.19291 64.92276 60.55783
# Shear Modulus (GPa) = 22.26102 26.64713 24.45407
#
# Velocity S-wave (km/s) = 3.32559 3.63849 3.48555
# Velocity P-wave (km/s) = 6.53172 7.06441 6.80328
#
# Compressibility (1/GPa) = 0.01779584
#
# Stress axis : x y z
#
# Youngs Moduli (GPa) = 50.03981 42.36969 108.36360
#
# Poissons Ratio (x) = 0.38971 0.28062
# Poissons Ratio (y) = 0.46026 0.62002
# Poissons Ratio (z) = 0.12958 0.24243
#
# Static dielectric constant tensor:
#      x y z
#    x 3.585960 0.000000 0.000000 
#    y 0.000000 4.267580 0.000000 
#    z 0.000000 0.000000 3.878870 
# 
# 
# High freq. dielectric constant tensor:
#      x y z
#    x 1.775690 0.000000 0.000000 
#    y 0.000000 1.779820 0.000000 
#    z 0.000000 0.000000 1.797770 
# 
# From -- ./inp_files/45223.got.cif
#   From: 2010.03.12/outbox.cif.g09.slc.cpg/sg67_23_cif.got.tgz:45223.got - 2010.04.10 22:41:39.
