data_PCOD8280002
_publ_section_title
;
Structure prediction by ZEFSAII (Michael W. Deem and Ramdas Pophale) SiO2 
 PCOD8280002
Probable space group: C M M A
;
_chemical_formula_sum "Si O2"
_cell_formula_units_Z 88
_cell_length_a 9.343839
_cell_length_b 16.071454
_cell_length_c 29.808037
_cell_angle_alpha 90.000000
_cell_angle_beta 90.000000
_cell_angle_gamma 90.000000
_cell_volume 4476.245453
_symmetry_space_group_name_H-M "C M M A"
_symmetry_group_IT_number 67
_symmetry_cell_setting 'orthorhombic'
loop_
_space_group_symop_operation_xyz
x,y,z
-x,1/2-y,z
x,-y,-z
-x,1/2+y,-z
-x,-y,-z
x,1/2+y,-z
-x,y,z
x,1/2-y,z
1/2+x,1/2+y,z
1/2-x,-y,z
1/2+x,1/2-y,-z
1/2-x,y,-z
1/2-x,1/2-y,-z
1/2+x,y,-z
1/2-x,1/2+y,z
1/2+x,-y,z
loop_
_atom_site_type_symbol
_atom_site_label
_atom_site_fract_x
_atom_site_fract_y
_atom_site_fract_z
Si Si1 0.334986 0.583564 0.729153
Si Si2 0.335102 0.844435 0.821894
Si Si3 0.832695 0.750000 0.953864
Si Si4 0.332398 0.415330 0.368795
Si Si5 0.670058 0.582229 0.099911
Si Si6 0.343300 0.346512 0.460552
O O1 0.500000 0.558121 0.729941
O O2 0.250000 0.500000 0.738043
O O3 0.299633 0.647655 0.769010
O O4 0.296172 0.624116 0.680369
O O5 0.500000 0.868982 0.831837
O O6 0.304991 0.750000 0.836132
O O7 0.230566 0.904263 0.849932
O O8 0.789829 0.665294 0.927891
O O9 0.000000 0.750000 0.963957
O O10 0.750000 0.750000 0.000000
O O11 0.500000 0.432755 0.372135
O O12 0.250000 0.500000 0.374243
O O13 0.280247 0.357957 0.410189
O O14 0.500000 0.566815 0.101061
O O15 0.750000 0.500000 0.079643
O O16 0.500000 0.387821 0.463431
O O17 0.354245 0.250000 0.470660
O O18 0.250000 0.389238 0.500000
#
# Coordination Sequence:
#
# PCOD8280002 Si02
#       6
#    16  16   8  16  16  16
#     4   9  18  32  49  72 102 136 175 218 265 322
#     4  10  20  34  55  84 115 150 192 237 284 336
#     4  10  24  44  66  92 126 162 202 250 299 348
#     4   9  18  32  49  69  96 129 165 209 260 313
#     4  11  23  41  63  91 124 162 203 246 297 351
#     4   9  18  32  49  68  90 120 158 201 253 310
#
# _framework density 19.659334000000001
#
# number of rings (size 3 to 8) (size 9 to 14) (size 15 to 20)
#    0.000    2.364    0.909    1.091    0.000    5.818 
#    0.000    7.273    0.000    0.000    0.000    7.636 
#    0.000    0.000    0.000    0.000    0.000    0.000 
#
# Total GULP energy -545235.887542 kJ/mol
# GULP energy per Si atom -12391.724717 kJ/mol
# Density = 1.961459 g / cm^3
# Si number density = 19.659334 Si / 1000 Ang^3
#
#
#
# Elastic Constant Matrix: (Units=GPa)
#
#
# Indices 1 2 3 4 5 6 
#
# 1 62.6874 40.5263 53.2954 0.0000 0.0000 0.0000
# 2 40.5263 85.3120 47.2567 0.0000 0.0000 0.0000
# 3 53.2954 47.2567 137.1718 0.0000 0.0000 0.0000
# 4 0.0000 0.0000 0.0000 28.0162 0.0000 0.0000
# 5 0.0000 0.0000 0.0000 0.0000 33.2256 0.0000
# 6 0.0000 0.0000 0.0000 0.0000 0.0000 27.2286
#
#
#
# Elastic Compliance Matrix: (Units=1/GPa)
#
#
# Indices 1 2 3 4 5 6 
#
# 1 0.028683 -0.009210 -0.007971 0.000000 0.000000 0.000000
# 2 -0.009210 0.017443 -0.002431 0.000000 0.000000 0.000000
# 3 -0.007971 -0.002431 0.011225 0.000000 0.000000 0.000000
# 4 0.000000 0.000000 0.000000 0.035694 0.000000 0.000000
# 5 0.000000 0.000000 0.000000 0.000000 0.030097 0.000000
# 6 0.000000 0.000000 0.000000 0.000000 0.000000 0.036726
#
#
# Mechanical properties :
#
#
# Convention : Reuss Voigt Hill
#
# Bulk Modulus (GPa) = 55.16755 63.03644 59.10199
# Shear Modulus (GPa) = 24.37409 27.30026 25.83717
#
# Velocity S-wave (km/s) = 3.52493 3.73052 3.62918
# Velocity P-wave (km/s) = 6.68502 7.11967 6.90577
#
# Compressibility (1/GPa) = 0.01812660
#
# Stress axis : x y z
#
# Youngs Moduli (GPa) = 34.86331 57.32827 89.08870
#
# Poissons Ratio (x) = 0.52800 0.71017
# Poissons Ratio (y) = 0.32109 0.21657
# Poissons Ratio (z) = 0.27791 0.13936
#
# Static dielectric constant tensor:
#      x y z
#    x 3.660570 0.000000 0.000000 
#    y 0.000000 3.833470 0.000000 
#    z 0.000000 0.000000 3.890440 
# 
# 
# High freq. dielectric constant tensor:
#      x y z
#    x 1.759180 0.000000 0.000000 
#    y 0.000000 1.747870 0.000000 
#    z 0.000000 0.000000 1.779180 
# 
# From -- ./inp_files/45237.got.cif
#   From: 2010.03.12/outbox.cif.g09.slc.cpg/sg67_23_cif.got.tgz:45237.got - 2010.04.10 22:41:39.
