data_PCOD8280639
_publ_section_title
;
Structure prediction by ZEFSAII (Michael W. Deem and Ramdas Pophale) SiO2 
 PCOD8280639
Probable space group: C M M A
;
_chemical_formula_sum "Si O2"
_cell_formula_units_Z 80
_cell_length_a 9.188023
_cell_length_b 18.432496
_cell_length_c 25.892370
_cell_angle_alpha 90.000000
_cell_angle_beta 90.000000
_cell_angle_gamma 90.000000
_cell_volume 4385.085104
_symmetry_space_group_name_H-M "C M M A"
_symmetry_group_IT_number 67
_symmetry_cell_setting 'orthorhombic'
loop_
_space_group_symop_operation_xyz
x,y,z
-x,1/2-y,z
x,-y,-z
-x,1/2+y,-z
-x,-y,-z
x,1/2+y,-z
-x,y,z
x,1/2-y,z
1/2+x,1/2+y,z
1/2-x,-y,z
1/2+x,1/2-y,-z
1/2-x,y,-z
1/2-x,1/2-y,-z
1/2+x,y,-z
1/2-x,1/2+y,z
1/2+x,-y,z
loop_
_atom_site_type_symbol
_atom_site_label
_atom_site_fract_x
_atom_site_fract_y
_atom_site_fract_z
Si Si1 0.335161 0.836527 0.550092
Si Si2 0.670581 0.166806 0.051122
Si Si3 0.664433 0.163615 0.649594
Si Si4 0.830959 0.166052 0.750458
Si Si5 0.671609 0.076100 0.149648
O O1 0.500000 0.866283 0.549203
O O2 0.335685 0.750000 0.550421
O O3 0.250000 0.865857 0.500000
O O4 0.253801 0.866984 0.600766
O O5 0.500000 0.158409 0.042201
O O6 0.713482 0.250000 0.062310
O O7 0.724727 0.119615 0.099335
O O8 0.750000 0.137532 0.000000
O O9 0.500000 0.133680 0.647224
O O10 0.665870 0.250000 0.648164
O O11 0.739797 0.135988 0.702007
O O12 0.796712 0.250000 0.761610
O O13 0.781327 0.121692 0.800406
O O14 0.000000 0.154841 0.737545
O O15 0.500000 0.063853 0.148405
O O16 0.750000 0.000000 0.151263
#
# Coordination Sequence:
#
# PCOD8280639 Si02
#       5
#    16  16  16  16  16
#     4   9  15  22  33  51  79 116 154 191 234 285
#     4   9  18  34  55  77 100 128 163 200 237 280
#     4   9  16  25  38  59  86 115 150 193 239 286
#     4   9  17  31  50  68  88 120 161 200 238 283
#     4  10  21  35  51  72  99 129 160 197 241 288
#
# _framework density 18.243659000000001
#
# number of rings (size 3 to 8) (size 9 to 14) (size 15 to 20)
#    0.000    2.800    0.000    1.800    0.000    9.200 
#    0.000    2.000    0.000    6.000    0.000    0.000 
#    0.000    0.800    0.000    8.400    0.000   12.600 
#
# Total GULP energy -496027.037331 kJ/mol
# GULP energy per Si atom -12400.675933 kJ/mol
# Density = 1.820214 g / cm^3
# Si number density = 18.243659 Si / 1000 Ang^3
#
#
#
# Elastic Constant Matrix: (Units=GPa)
#
#
# Indices 1 2 3 4 5 6 
#
# 1 105.0486 34.8819 91.0673 0.0000 0.0000 0.0000
# 2 34.8819 55.5015 59.5132 0.0000 0.0000 0.0000
# 3 91.0673 59.5132 207.3502 0.0000 0.0000 0.0000
# 4 0.0000 0.0000 0.0000 1.4771 0.0000 0.0000
# 5 0.0000 0.0000 0.0000 0.0000 38.1379 0.0000
# 6 0.0000 0.0000 0.0000 0.0000 0.0000 20.3481
#
#
#
# Elastic Compliance Matrix: (Units=1/GPa)
#
#
# Indices 1 2 3 4 5 6 
#
# 1 0.015857 -0.003609 -0.005929 0.000000 0.000000 0.000000
# 2 -0.003609 0.026849 -0.006121 0.000000 0.000000 0.000000
# 3 -0.005929 -0.006121 0.009184 0.000000 0.000000 0.000000
# 4 0.000000 0.000000 0.000000 0.677015 0.000000 0.000000
# 5 0.000000 0.000000 0.000000 0.000000 0.026221 0.000000
# 6 0.000000 0.000000 0.000000 0.000000 0.000000 0.049145
#
#
# Mechanical properties :
#
#
# Convention : Reuss Voigt Hill
#
# Bulk Modulus (GPa) = 48.60834 82.09167 65.35001
# Shear Modulus (GPa) = 5.93510 24.15513 15.04512
#
# Velocity S-wave (km/s) = 1.80563 3.64267 2.87483
# Velocity P-wave (km/s) = 5.57215 7.92383 6.84967
#
# Compressibility (1/GPa) = 0.02057260
#
# Stress axis : x y z
#
# Youngs Moduli (GPa) = 63.06217 37.24485 108.89094
#
# Poissons Ratio (x) = 0.13441 0.64558
# Poissons Ratio (y) = 0.22759 0.66655
# Poissons Ratio (z) = 0.37387 0.22798
#
# Static dielectric constant tensor:
#      x y z
#    x 3.414340 0.000000 0.000000 
#    y 0.000000 2.866210 0.000000 
#    z 0.000000 0.000000 3.613940 
# 
# 
# High freq. dielectric constant tensor:
#      x y z
#    x 1.709060 0.000000 0.000000 
#    y 0.000000 1.652200 0.000000 
#    z 0.000000 0.000000 1.725850 
# 
# From -- ./inp_files/43234.got.cif
#   From: 2010.03.12/outbox.cif.g09.slc.cpg/sg67_22_cif.got.tgz:43234.got - 2010.04.10 22:41:39.
