data_PCOD8280358
_publ_section_title
;
Structure prediction by ZEFSAII (Michael W. Deem and Ramdas Pophale) SiO2 
 PCOD8280358
Probable space group: C M M A
;
_chemical_formula_sum "Si O2"
_cell_formula_units_Z 96
_cell_length_a 17.840784
_cell_length_b 13.709620
_cell_length_c 20.331387
_cell_angle_alpha 90.000000
_cell_angle_beta 90.000000
_cell_angle_gamma 90.000000
_cell_volume 4972.861452
_symmetry_space_group_name_H-M "C M M A"
_symmetry_group_IT_number 67
_symmetry_cell_setting 'orthorhombic'
loop_
_space_group_symop_operation_xyz
x,y,z
-x,1/2-y,z
x,-y,-z
-x,1/2+y,-z
-x,-y,-z
x,1/2+y,-z
-x,y,z
x,1/2-y,z
1/2+x,1/2+y,z
1/2-x,-y,z
1/2+x,1/2-y,-z
1/2-x,y,-z
1/2-x,1/2-y,-z
1/2+x,y,-z
1/2-x,1/2+y,z
1/2+x,-y,z
loop_
_atom_site_type_symbol
_atom_site_label
_atom_site_fract_x
_atom_site_fract_y
_atom_site_fract_z
Si Si1 0.338544 0.857061 0.011635
Si Si2 0.587816 0.360139 0.600529
Si Si3 0.167086 0.027580 0.662615
Si Si4 0.411052 0.136497 0.223385
Si Si5 0.167947 0.358418 0.529076
Si Si6 0.838151 0.484674 0.890972
O O1 0.373767 0.750000 0.015494
O O2 0.366823 0.910197 0.946626
O O3 0.250000 0.855716 0.000000
O O4 0.363208 0.910086 0.079716
O O5 0.500000 0.366496 0.606227
O O6 0.617577 0.250000 0.612012
O O7 0.621504 0.426416 0.658802
O O8 0.611796 0.395474 0.527747
O O9 0.127333 0.107823 0.708137
O O10 0.166726 0.069635 0.589736
O O11 0.250000 0.000000 0.688123
O O12 0.500000 0.125203 0.228652
O O13 0.390145 0.250000 0.205989
O O14 0.379525 0.054929 0.173243
O O15 0.144810 0.250000 0.552502
O O16 0.250000 0.358636 0.500000
O O17 0.750000 0.500000 0.877166
#
# Coordination Sequence:
#
# PCOD8280358 Si02
#       6
#    16  16  16  16  16  16
#     4   8  14  27  54  90 122 149 185 236 288 334
#     4  10  22  38  57  83 114 146 179 225 290 353
#     4  12  23  37  61  85 109 144 192 241 288 346
#     4  11  25  42  57  78 114 158 199 240 290 348
#     4  10  20  36  58  86 115 140 176 229 289 349
#     4   9  17  33  57  86 116 151 194 240 283 332
#
# _framework density 19.304781999999999
#
# number of rings (size 3 to 8) (size 9 to 14) (size 15 to 20)
#    0.000    2.000    1.667    3.500    0.000    3.333 
#    0.000    4.167    0.000    2.500    0.000    0.000 
#    0.000    0.000    0.000    0.000    0.000    0.000 
#
# Total GULP energy -594737.130931 kJ/mol
# GULP energy per Si atom -12390.356894 kJ/mol
# Density = 1.926084 g / cm^3
# Si number density = 19.304782 Si / 1000 Ang^3
#
#
#
# Elastic Constant Matrix: (Units=GPa)
#
#
# Indices 1 2 3 4 5 6 
#
# 1 75.4329 37.7763 28.8441 0.0000 0.0000 0.0000
# 2 37.7763 125.7852 44.1836 0.0000 0.0000 0.0000
# 3 28.8441 44.1836 70.5426 0.0000 0.0000 0.0000
# 4 0.0000 0.0000 0.0000 26.5662 0.0000 0.0000
# 5 0.0000 0.0000 0.0000 0.0000 14.0061 0.0000
# 6 0.0000 0.0000 0.0000 0.0000 0.0000 24.8540
#
#
#
# Elastic Compliance Matrix: (Units=1/GPa)
#
#
# Indices 1 2 3 4 5 6 
#
# 1 0.016756 -0.003366 -0.004743 0.000000 0.000000 0.000000
# 2 -0.003366 0.010869 -0.005431 0.000000 0.000000 0.000000
# 3 -0.004743 -0.005431 0.019517 0.000000 0.000000 0.000000
# 4 0.000000 0.000000 0.000000 0.037642 0.000000 0.000000
# 5 0.000000 0.000000 0.000000 0.000000 0.071398 0.000000
# 6 0.000000 0.000000 0.000000 0.000000 0.000000 0.040235
#
#
# Mechanical properties :
#
#
# Convention : Reuss Voigt Hill
#
# Bulk Modulus (GPa) = 49.84756 54.81872 52.33314
# Shear Modulus (GPa) = 21.72175 23.81571 22.76873
#
# Velocity S-wave (km/s) = 3.35804 3.51617 3.43802
# Velocity P-wave (km/s) = 6.39630 6.70393 6.55192
#
# Compressibility (1/GPa) = 0.02006116
#
# Stress axis : x y z
#
# Youngs Moduli (GPa) = 59.67916 92.00669 51.23758
#
# Poissons Ratio (x) = 0.30972 0.24302
# Poissons Ratio (y) = 0.20090 0.27828
# Poissons Ratio (z) = 0.28306 0.49970
#
# Static dielectric constant tensor:
#      x y z
#    x 3.337040 0.000000 0.000000 
#    y 0.000000 4.139610 0.000000 
#    z 0.000000 0.000000 3.500520 
# 
# 
# High freq. dielectric constant tensor:
#      x y z
#    x 1.730650 0.000000 0.000000 
#    y 0.000000 1.769860 0.000000 
#    z 0.000000 0.000000 1.734880 
# 
# From -- ./inp_files/38464.got.cif
#   From: 2010.03.12/outbox.cif.g09.slc.cpg/sg67_20_cif.got.tgz:38464.got - 2010.04.10 22:41:39.
