data_PCOD8280937
_publ_section_title
;
Structure prediction by ZEFSAII (Michael W. Deem and Ramdas Pophale) SiO2 
 PCOD8280937
Probable space group: C M M A
;
_chemical_formula_sum "Si O2"
_cell_formula_units_Z 88
_cell_length_a 16.667993
_cell_length_b 8.952183
_cell_length_c 29.780040
_cell_angle_alpha 90.000000
_cell_angle_beta 90.000000
_cell_angle_gamma 90.000000
_cell_volume 4443.626393
_symmetry_space_group_name_H-M "C M M A"
_symmetry_group_IT_number 67
_symmetry_cell_setting 'orthorhombic'
loop_
_space_group_symop_operation_xyz
x,y,z
-x,1/2-y,z
x,-y,-z
-x,1/2+y,-z
-x,-y,-z
x,1/2+y,-z
-x,y,z
x,1/2-y,z
1/2+x,1/2+y,z
1/2-x,-y,z
1/2+x,1/2-y,-z
1/2-x,y,-z
1/2-x,1/2-y,-z
1/2+x,y,-z
1/2-x,1/2+y,z
1/2+x,-y,z
loop_
_atom_site_type_symbol
_atom_site_label
_atom_site_fract_x
_atom_site_fract_y
_atom_site_fract_z
Si Si1 0.664091 0.073464 0.901621
Si Si2 0.587179 0.072603 0.711942
Si Si3 0.831448 0.074346 0.199772
Si Si4 0.593111 0.584597 0.542666
Si Si5 0.832617 0.927319 0.622669
Si Si6 0.500000 0.927597 0.048321
O O1 0.675924 0.250000 0.907057
O O2 0.643888 0.025428 0.850474
O O3 0.583933 0.019384 0.928208
O O4 0.750000 0.000000 0.917327
O O5 0.500000 0.008186 0.700165
O O6 0.586698 0.250000 0.711650
O O7 0.607059 0.016964 0.762391
O O8 0.646829 0.015573 0.673141
O O9 0.820461 0.250000 0.201328
O O10 0.750000 0.000000 0.214581
O O11 0.633151 0.500000 0.500000
O O12 0.500000 0.603906 0.533189
O O13 0.632257 0.750000 0.547797
O O14 0.602374 0.487164 0.587644
O O15 0.829060 0.750000 0.620275
O O16 0.750000 0.000000 0.607720
O O17 0.500000 0.750000 0.045346
O O18 0.500000 0.000000 0.000000
#
# Coordination Sequence:
#
# PCOD8280937 Si02
#       6
#    16  16  16  16  16   8
#     4   9  19  35  56  82 112 147 188 235 286 340
#     4   9  18  31  51  79 106 137 177 218 263 316
#     4   9  17  31  53  78 106 139 176 220 267 321
#     4  10  21  38  60  84 108 136 172 216 267 321
#     4  11  22  36  54  77 108 143 179 220 263 315
#     4  10  22  38  56  82 112 148 192 238 287 340
#
# _framework density 19.803646000000001
#
# number of rings (size 3 to 8) (size 9 to 14) (size 15 to 20)
#    0.000    2.364    0.000    2.182    1.273    3.273 
#    0.000    4.545    0.000    2.727    0.000    0.000 
#    0.000    0.000    0.000    0.000    0.000    0.000 
#
# Total GULP energy -545231.809114 kJ/mol
# GULP energy per Si atom -12391.632025 kJ/mol
# Density = 1.975857 g / cm^3
# Si number density = 19.803646 Si / 1000 Ang^3
#
#
#
# Elastic Constant Matrix: (Units=GPa)
#
#
# Indices 1 2 3 4 5 6 
#
# 1 103.5720 30.2328 55.0954 0.0000 0.0000 0.0000
# 2 30.2328 56.6439 37.9835 0.0000 0.0000 0.0000
# 3 55.0954 37.9835 135.6297 0.0000 0.0000 0.0000
# 4 0.0000 0.0000 0.0000 26.2796 0.0000 0.0000
# 5 0.0000 0.0000 0.0000 0.0000 23.9870 0.0000
# 6 0.0000 0.0000 0.0000 0.0000 0.0000 27.5486
#
#
#
# Elastic Compliance Matrix: (Units=1/GPa)
#
#
# Indices 1 2 3 4 5 6 
#
# 1 0.013084 -0.004210 -0.004136 0.000000 0.000000 0.000000
# 2 -0.004210 0.023091 -0.004756 0.000000 0.000000 0.000000
# 3 -0.004136 -0.004756 0.010385 0.000000 0.000000 0.000000
# 4 0.000000 0.000000 0.000000 0.038052 0.000000 0.000000
# 5 0.000000 0.000000 0.000000 0.000000 0.041689 0.000000
# 6 0.000000 0.000000 0.000000 0.000000 0.000000 0.036299
#
#
# Mechanical properties :
#
#
# Convention : Reuss Voigt Hill
#
# Bulk Modulus (GPa) = 49.12760 60.27433 54.70097
# Shear Modulus (GPa) = 25.56355 27.06531 26.31443
#
# Velocity S-wave (km/s) = 3.59674 3.70088 3.64918
# Velocity P-wave (km/s) = 6.48921 6.98313 6.74070
#
# Compressibility (1/GPa) = 0.02035516
#
# Stress axis : x y z
#
# Youngs Moduli (GPa) = 76.42810 43.30755 96.29083
#
# Poissons Ratio (x) = 0.18232 0.39826
# Poissons Ratio (y) = 0.32176 0.45800
# Poissons Ratio (z) = 0.31611 0.20599
#
# Static dielectric constant tensor:
#      x y z
#    x 3.613310 0.000000 0.000000 
#    y 0.000000 3.532980 0.000000 
#    z 0.000000 0.000000 3.795810 
# 
# 
# High freq. dielectric constant tensor:
#      x y z
#    x 1.769330 0.000000 0.000000 
#    y 0.000000 1.750780 0.000000 
#    z 0.000000 0.000000 1.782080 
# 
# From -- ./inp_files/45761.got.cif
#   From: 2010.03.12/outbox.cif.g09.slc.cpg/sg67_23_cif.got.tgz:45761.got - 2010.04.10 22:41:39.
