data_PCOD8280113
_publ_section_title
;
Structure prediction by ZEFSAII (Michael W. Deem and Ramdas Pophale) SiO2 
 PCOD8280113
Probable space group: C M M A
;
_chemical_formula_sum "Si O2"
_cell_formula_units_Z 96
_cell_length_a 19.592283
_cell_length_b 9.208096
_cell_length_c 30.603503
_cell_angle_alpha 90.000000
_cell_angle_beta 90.000000
_cell_angle_gamma 90.000000
_cell_volume 5521.105223
_symmetry_space_group_name_H-M "C M M A"
_symmetry_group_IT_number 67
_symmetry_cell_setting 'orthorhombic'
loop_
_space_group_symop_operation_xyz
x,y,z
-x,1/2-y,z
x,-y,-z
-x,1/2+y,-z
-x,-y,-z
x,1/2+y,-z
-x,y,z
x,1/2-y,z
1/2+x,1/2+y,z
1/2-x,-y,z
1/2+x,1/2-y,-z
1/2-x,y,-z
1/2-x,1/2-y,-z
1/2+x,y,-z
1/2-x,1/2+y,z
1/2+x,-y,z
loop_
_atom_site_type_symbol
_atom_site_label
_atom_site_fract_x
_atom_site_fract_y
_atom_site_fract_z
Si Si1 0.420003 0.419160 0.044433
Si Si2 0.319994 0.921756 0.107918
Si Si3 0.418852 0.913622 0.635926
Si Si4 0.682602 0.918105 0.208769
Si Si5 0.577352 0.079213 0.719446
Si Si6 0.418829 0.086433 0.459403
O O1 0.500000 0.434354 0.053771
O O2 0.398280 0.250000 0.041763
O O3 0.381845 0.502114 0.083069
O O4 0.399270 0.500000 0.000000
O O5 0.315863 0.750000 0.097299
O O6 0.335376 0.951277 0.158649
O O7 0.250000 0.000000 0.093530
O O8 0.500000 0.916407 0.637043
O O9 0.391994 0.750000 0.642424
O O10 0.394809 0.974104 0.588246
O O11 0.390150 0.011063 0.675425
O O12 0.697169 0.750000 0.216091
O O13 0.620023 0.972537 0.238506
O O14 0.750000 0.000000 0.224118
O O15 0.500000 0.025380 0.727178
O O16 0.580248 0.250000 0.713315
O O17 0.500000 0.078636 0.462067
O O18 0.393088 0.250000 0.464071
O O19 0.385677 0.000000 0.500000
#
# Coordination Sequence:
#
# PCOD8280113 Si02
#       6
#    16  16  16  16  16  16
#     4  10  21  37  56  79 107 136 167 203 242 286
#     4  10  20  35  55  77 102 132 166 204 246 290
#     4   8  14  24  36  53  80 112 145 183 226 270
#     4   9  19  34  51  71  96 126 158 195 237 280
#     4   9  17  29  45  66  91 119 153 191 230 274
#     4   8  13  20  30  46  71 104 141 178 217 264
#
# _framework density 17.387823000000001
#
# number of rings (size 3 to 8) (size 9 to 14) (size 15 to 20)
#    0.000    3.000    0.000    2.000    0.000    4.000 
#    0.000    6.667    0.000    2.000    0.000    0.000 
#    0.000    0.667    0.000    7.333    0.000   12.000 
#
# Total GULP energy -594946.966666 kJ/mol
# GULP energy per Si atom -12394.728472 kJ/mol
# Density = 1.734825 g / cm^3
# Si number density = 17.387823 Si / 1000 Ang^3
#
#
#
# Elastic Constant Matrix: (Units=GPa)
#
#
# Indices 1 2 3 4 5 6 
#
# 1 55.5869 38.7397 58.5490 0.0000 0.0000 0.0000
# 2 38.7397 80.9063 62.0362 0.0000 0.0000 0.0000
# 3 58.5490 62.0362 131.5559 0.0000 0.0000 0.0000
# 4 0.0000 0.0000 0.0000 34.3840 0.0000 0.0000
# 5 0.0000 0.0000 0.0000 0.0000 4.7227 0.0000
# 6 0.0000 0.0000 0.0000 0.0000 0.0000 22.4820
#
#
#
# Elastic Compliance Matrix: (Units=1/GPa)
#
#
# Indices 1 2 3 4 5 6 
#
# 1 0.036858 -0.007942 -0.012658 0.000000 0.000000 0.000000
# 2 -0.007942 0.021072 -0.006402 0.000000 0.000000 0.000000
# 3 -0.012658 -0.006402 0.016254 0.000000 0.000000 0.000000
# 4 0.000000 0.000000 0.000000 0.029083 0.000000 0.000000
# 5 0.000000 0.000000 0.000000 0.000000 0.211742 0.000000
# 6 0.000000 0.000000 0.000000 0.000000 0.000000 0.044480
#
#
# Mechanical properties :
#
#
# Convention : Reuss Voigt Hill
#
# Bulk Modulus (GPa) = 49.55806 65.18876 57.37341
# Shear Modulus (GPa) = 11.89856 19.56604 15.73230
#
# Velocity S-wave (km/s) = 2.61876 3.35815 3.01123
# Velocity P-wave (km/s) = 6.14063 7.25318 6.71997
#
# Compressibility (1/GPa) = 0.02017835
#
# Stress axis : x y z
#
# Youngs Moduli (GPa) = 27.13117 47.45732 61.52446
#
# Poissons Ratio (x) = 0.37693 0.77880
# Poissons Ratio (y) = 0.21549 0.39386
# Poissons Ratio (z) = 0.34344 0.30381
#
# Static dielectric constant tensor:
#      x y z
#    x 2.923830 0.000000 0.000000 
#    y 0.000000 3.332060 0.000000 
#    z 0.000000 0.000000 3.608700 
# 
# 
# High freq. dielectric constant tensor:
#      x y z
#    x 1.626320 0.000000 0.000000 
#    y 0.000000 1.673250 0.000000 
#    z 0.000000 0.000000 1.685960 
# 
# From -- ./inp_files/43430.got.cif
#   From: 2010.03.12/outbox.cif.g09.slc.cpg/sg67_22_cif.got.tgz:43430.got - 2010.04.10 22:41:39.
