data_PCOD8280618
_publ_section_title
;
Structure prediction by ZEFSAII (Michael W. Deem and Ramdas Pophale) SiO2 
 PCOD8280618
Probable space group: C M M A
;
_chemical_formula_sum "Si O2"
_cell_formula_units_Z 96
_cell_length_a 14.436998
_cell_length_b 14.124804
_cell_length_c 24.263134
_cell_angle_alpha 90.000000
_cell_angle_beta 90.000000
_cell_angle_gamma 90.000000
_cell_volume 4947.732634
_symmetry_space_group_name_H-M "C M M A"
_symmetry_group_IT_number 67
_symmetry_cell_setting 'orthorhombic'
loop_
_space_group_symop_operation_xyz
x,y,z
-x,1/2-y,z
x,-y,-z
-x,1/2+y,-z
-x,-y,-z
x,1/2+y,-z
-x,y,z
x,1/2-y,z
1/2+x,1/2+y,z
1/2-x,-y,z
1/2+x,1/2-y,-z
1/2-x,y,-z
1/2-x,1/2-y,-z
1/2+x,y,-z
1/2-x,1/2+y,z
1/2+x,-y,z
loop_
_atom_site_type_symbol
_atom_site_label
_atom_site_fract_x
_atom_site_fract_y
_atom_site_fract_z
Si Si1 0.353308 0.649363 0.507524
Si Si2 0.758829 0.858556 0.240819
Si Si3 0.889022 0.487435 0.289350
Si Si4 0.396760 0.010294 0.586464
Si Si5 0.748497 0.141561 0.110974
Si Si6 0.393613 0.002709 0.065295
O O1 0.406509 0.750000 0.518886
O O2 0.250000 0.679479 0.500000
O O3 0.395236 0.602044 0.452677
O O4 0.346298 0.578265 0.558907
O O5 0.764587 0.750000 0.260196
O O6 0.658703 0.900830 0.257249
O O7 0.765886 0.868682 0.175716
O O8 0.844964 0.913999 0.268409
O O9 0.858219 0.470086 0.352765
O O10 0.000000 0.486626 0.279962
O O11 0.500000 0.973824 0.593000
O O12 0.759427 0.250000 0.092520
O O13 0.655988 0.099500 0.083532
O O14 0.840464 0.086622 0.091561
O O15 0.500000 0.001629 0.085935
O O16 0.388185 0.000000 0.000000
#
# Coordination Sequence:
#
# PCOD8280618 Si02
#       6
#    16  16  16  16  16  16
#     4  10  21  34  53  79 104 136 173 211 262 325
#     4  10  23  39  59  85 113 148 192 237 282 333
#     4  10  22  39  60  84 112 147 186 234 287 336
#     4  10  21  36  54  76 104 137 173 216 267 326
#     4  10  21  38  58  83 114 153 194 234 281 332
#     4  10  21  36  57  87 119 152 191 233 279 332
#
# _framework density 19.402826999999998
#
# number of rings (size 3 to 8) (size 9 to 14) (size 15 to 20)
#    0.000    2.000    0.000    5.000    4.667    8.000 
#    0.000    8.333    0.000    0.000    0.000    0.000 
#    0.000    0.000    0.000    0.000    0.000    0.000 
#
# Total GULP energy -594883.836043 kJ/mol
# GULP energy per Si atom -12393.413251 kJ/mol
# Density = 1.935867 g / cm^3
# Si number density = 19.402827 Si / 1000 Ang^3
#
#
#
# Elastic Constant Matrix: (Units=GPa)
#
#
# Indices 1 2 3 4 5 6 
#
# 1 128.2296 37.3676 28.2536 0.0000 0.0000 0.0000
# 2 37.3676 144.5398 33.2727 0.0000 0.0000 0.0000
# 3 28.2536 33.2727 85.0804 0.0000 0.0000 0.0000
# 4 0.0000 0.0000 0.0000 10.5938 0.0000 0.0000
# 5 0.0000 0.0000 0.0000 0.0000 24.8564 0.0000
# 6 0.0000 0.0000 0.0000 0.0000 0.0000 19.9030
#
#
#
# Elastic Compliance Matrix: (Units=1/GPa)
#
#
# Indices 1 2 3 4 5 6 
#
# 1 0.008804 -0.001762 -0.002235 0.000000 0.000000 0.000000
# 2 -0.001762 0.007955 -0.002526 0.000000 0.000000 0.000000
# 3 -0.002235 -0.002526 0.013484 0.000000 0.000000 0.000000
# 4 0.000000 0.000000 0.000000 0.094395 0.000000 0.000000
# 5 0.000000 0.000000 0.000000 0.000000 0.040231 0.000000
# 6 0.000000 0.000000 0.000000 0.000000 0.000000 0.050244
#
#
# Mechanical properties :
#
#
# Convention : Reuss Voigt Hill
#
# Bulk Modulus (GPa) = 58.14591 61.73752 59.94172
# Shear Modulus (GPa) = 21.37750 28.33437 24.85594
#
# Velocity S-wave (km/s) = 3.32290 3.82556 3.58305
# Velocity P-wave (km/s) = 6.68992 7.16946 6.93383
#
# Compressibility (1/GPa) = 0.01719811
#
# Stress axis : x y z
#
# Youngs Moduli (GPa) = 113.58093 125.69964 74.16399
#
# Poissons Ratio (x) = 0.22145 0.16574
# Poissons Ratio (y) = 0.20010 0.18735
# Poissons Ratio (z) = 0.25383 0.31754
#
# Static dielectric constant tensor:
#      x y z
#    x 3.667780 0.000000 0.000000 
#    y 0.000000 3.774240 0.000000 
#    z 0.000000 0.000000 3.961130 
# 
# 
# High freq. dielectric constant tensor:
#      x y z
#    x 1.761480 0.000000 0.000000 
#    y 0.000000 1.760650 0.000000 
#    z 0.000000 0.000000 1.762120 
# 
# From -- ./inp_files/38372.got.cif
#   From: 2010.03.12/outbox.cif.g09.slc.cpg/sg67_20_cif.got.tgz:38372.got - 2010.04.10 22:41:39.
