data_PCOD8280362
_publ_section_title
;
Structure prediction by ZEFSAII (Michael W. Deem and Ramdas Pophale) SiO2 
 PCOD8280362
Probable space group: C M M A
;
_chemical_formula_sum "Si O2"
_cell_formula_units_Z 104
_cell_length_a 8.996988
_cell_length_b 19.722405
_cell_length_c 29.026857
_cell_angle_alpha 90.000000
_cell_angle_beta 90.000000
_cell_angle_gamma 90.000000
_cell_volume 5150.590559
_symmetry_space_group_name_H-M "C M M A"
_symmetry_group_IT_number 67
_symmetry_cell_setting 'orthorhombic'
loop_
_space_group_symop_operation_xyz
x,y,z
-x,1/2-y,z
x,-y,-z
-x,1/2+y,-z
-x,-y,-z
x,1/2+y,-z
-x,y,z
x,1/2-y,z
1/2+x,1/2+y,z
1/2-x,-y,z
1/2+x,1/2-y,-z
1/2-x,y,-z
1/2-x,1/2-y,-z
1/2+x,y,-z
1/2-x,1/2+y,z
1/2+x,-y,z
loop_
_atom_site_type_symbol
_atom_site_label
_atom_site_fract_x
_atom_site_fract_y
_atom_site_fract_z
Si Si1 0.671561 0.069164 0.221319
Si Si2 0.326318 0.436271 0.638807
Si Si3 0.173879 0.171985 0.286480
Si Si4 0.333348 0.750000 0.546429
Si Si5 0.326971 0.170819 0.952793
Si Si6 0.674443 0.603665 0.549882
Si Si7 0.672405 0.930885 0.886714
O O1 0.500000 0.063083 0.234948
O O2 0.740576 0.135295 0.245187
O O3 0.694945 0.079989 0.167325
O O4 0.750000 0.000000 0.237922
O O5 0.500000 0.448788 0.634673
O O6 0.250000 0.500000 0.665557
O O7 0.290135 0.366955 0.665863
O O8 0.255760 0.440730 0.587821
O O9 0.227816 0.250000 0.291127
O O10 0.000000 0.168696 0.275167
O O11 0.500000 0.750000 0.529500
O O12 0.250000 0.750000 0.500000
O O13 0.298278 0.820581 0.571681
O O14 0.500000 0.152384 0.955477
O O15 0.300953 0.250000 0.943869
O O16 0.250826 0.132251 0.910790
O O17 0.250000 0.147364 0.000000
O O18 0.500000 0.585916 0.545773
O O19 0.750000 0.592860 0.500000
O O20 0.500000 0.933997 0.900436
O O21 0.750000 0.000000 0.903417
#
# Coordination Sequence:
#
# PCOD8280362 Si02
#       7
#    16  16  16   8  16  16  16
#     4  10  21  38  62  90 120 156 195 240 293 351
#     4  11  24  41  61  85 116 153 192 234 284 339
#     4  10  23  42  63  89 120 153 191 238 290 345
#     4   8  16  30  50  78 110 142 176 216 264 318
#     4  10  21  37  57  82 115 157 203 250 302 356
#     4  10  20  36  58  86 117 150 189 231 279 333
#     4  10  21  37  58  86 119 154 197 246 296 351
#
# _framework density 20.191859000000001
#
# number of rings (size 3 to 8) (size 9 to 14) (size 15 to 20)
#    0.000    2.000    0.000    2.769    1.077    7.385 
#    0.000    6.154    0.000    0.000    0.000    0.000 
#    0.000    0.000    0.000    0.000    0.000    0.000 
#
# Total GULP energy -644604.923112 kJ/mol
# GULP energy per Si atom -12396.248521 kJ/mol
# Density = 2.014590 g / cm^3
# Si number density = 20.191859 Si / 1000 Ang^3
#
#
#
# Elastic Constant Matrix: (Units=GPa)
#
#
# Indices 1 2 3 4 5 6 
#
# 1 129.3687 71.3692 60.9292 0.0000 0.0000 0.0000
# 2 71.3692 143.7188 55.4615 0.0000 0.0000 0.0000
# 3 60.9292 55.4615 81.9769 0.0000 0.0000 0.0000
# 4 0.0000 0.0000 0.0000 24.8976 0.0000 0.0000
# 5 0.0000 0.0000 0.0000 0.0000 34.0538 0.0000
# 6 0.0000 0.0000 0.0000 0.0000 0.0000 37.1531
#
#
#
# Elastic Compliance Matrix: (Units=1/GPa)
#
#
# Indices 1 2 3 4 5 6 
#
# 1 0.013241 -0.003759 -0.007298 0.000000 0.000000 0.000000
# 2 -0.003759 0.010484 -0.004299 0.000000 0.000000 0.000000
# 3 -0.007298 -0.004299 0.020531 0.000000 0.000000 0.000000
# 4 0.000000 0.000000 0.000000 0.040164 0.000000 0.000000
# 5 0.000000 0.000000 0.000000 0.000000 0.029365 0.000000
# 6 0.000000 0.000000 0.000000 0.000000 0.000000 0.026916
#
#
# Mechanical properties :
#
#
# Convention : Reuss Voigt Hill
#
# Bulk Modulus (GPa) = 73.83409 81.17603 77.50506
# Shear Modulus (GPa) = 28.42083 30.37455 29.39769
#
# Velocity S-wave (km/s) = 3.75579 3.88273 3.81979
# Velocity P-wave (km/s) = 7.44672 7.77113 7.61065
#
# Compressibility (1/GPa) = 0.01354388
#
# Stress axis : x y z
#
# Youngs Moduli (GPa) = 75.52479 95.38710 48.70617
#
# Poissons Ratio (x) = 0.35854 0.35546
# Poissons Ratio (y) = 0.28389 0.20938
# Poissons Ratio (z) = 0.55119 0.41006
#
# Static dielectric constant tensor:
#      x y z
#    x 3.773390 0.000000 0.000000 
#    y 0.000000 4.058310 0.000000 
#    z 0.000000 0.000000 3.477410 
# 
# 
# High freq. dielectric constant tensor:
#      x y z
#    x 1.799720 0.000000 0.000000 
#    y 0.000000 1.802390 0.000000 
#    z 0.000000 0.000000 1.779120 
# 
# From -- ./inp_files/43590.got.cif
#   From: 2010.03.12/outbox.cif.g09.slc.cpg/sg67_22_cif.got.tgz:43590.got - 2010.04.10 22:41:39.
