data_PCOD8280594
_publ_section_title
;
Structure prediction by ZEFSAII (Michael W. Deem and Ramdas Pophale) SiO2 
 PCOD8280594
Probable space group: C M M A
;
_chemical_formula_sum "Si O2"
_cell_formula_units_Z 72
_cell_length_a 17.165761
_cell_length_b 22.746391
_cell_length_c 8.523100
_cell_angle_alpha 90.000000
_cell_angle_beta 90.000000
_cell_angle_gamma 90.000000
_cell_volume 3327.922053
_symmetry_space_group_name_H-M "C M M A"
_symmetry_group_IT_number 67
_symmetry_cell_setting 'orthorhombic'
loop_
_space_group_symop_operation_xyz
x,y,z
-x,1/2-y,z
x,-y,-z
-x,1/2+y,-z
-x,-y,-z
x,1/2+y,-z
-x,y,z
x,1/2-y,z
1/2+x,1/2+y,z
1/2-x,-y,z
1/2+x,1/2-y,-z
1/2-x,y,-z
1/2-x,1/2-y,-z
1/2+x,y,-z
1/2-x,1/2+y,z
1/2+x,-y,z
loop_
_atom_site_type_symbol
_atom_site_label
_atom_site_fract_x
_atom_site_fract_y
_atom_site_fract_z
Si Si1 0.091149 0.022855 0.173445
Si Si2 0.648671 0.915617 0.659580
Si Si3 0.500000 0.750000 0.013027
Si Si4 0.818975 0.121714 0.306402
Si Si5 0.500000 0.750000 0.512876
Si Si6 0.000000 0.151773 0.760304
Si Si7 0.630449 0.250000 0.734459
O O1 0.123197 0.089439 0.185112
O O2 0.000000 0.022655 0.209629
O O3 0.135939 0.985134 0.308659
O O4 0.109983 0.000000 0.000000
O O5 0.731480 0.897895 0.731039
O O6 0.649389 0.896488 0.478379
O O7 0.577956 0.886973 0.757969
O O8 0.500000 0.690540 0.915020
O O9 0.578850 0.750000 0.110822
O O10 0.817422 0.191563 0.275557
O O11 0.500000 0.690846 0.607897
O O12 0.577909 0.750000 0.416898
#
# Coordination Sequence:
#
# PCOD8280594 Si02
#       7
#    16  16   4  16   4   8   8
#     4  11  26  44  71 100 136 179 224 277 340 405
#     4  11  24  44  70 101 133 173 231 281 337 396
#     4  10  28  40  66  98 144 176 240 262 332 406
#     4  11  26  43  70 102 139 173 228 279 338 398
#     4  10  20  40  68  92 130 182 220 258 336 388
#     4  11  22  44  66  98 133 185 221 281 326 402
#     4  11  24  43  66 102 137 179 216 279 328 406
#
# _framework density 21.635121000000002
#
# number of rings (size 3 to 8) (size 9 to 14) (size 15 to 20)
#    0.000    1.111    3.333    1.333    7.778    8.000 
#    0.000    1.111    0.000    0.000    0.000    0.000 
#    0.000    0.000    0.000    0.000    0.000    0.000 
#
# Total GULP energy -446415.835491 kJ/mol
# GULP energy per Si atom -12400.439875 kJ/mol
# Density = 2.158588 g / cm^3
# Si number density = 21.635121 Si / 1000 Ang^3
#
#
#
# Elastic Constant Matrix: (Units=GPa)
#
#
# Indices 1 2 3 4 5 6 
#
# 1 139.0475 56.1938 43.6525 0.0000 0.0000 0.0000
# 2 56.1938 154.5043 36.0753 0.0000 0.0000 0.0000
# 3 43.6525 36.0753 80.9714 0.0000 0.0000 0.0000
# 4 0.0000 0.0000 0.0000 41.0281 0.0000 0.0000
# 5 0.0000 0.0000 0.0000 0.0000 26.2574 0.0000
# 6 0.0000 0.0000 0.0000 0.0000 0.0000 28.9741
#
#
#
# Elastic Compliance Matrix: (Units=1/GPa)
#
#
# Indices 1 2 3 4 5 6 
#
# 1 0.009455 -0.002510 -0.003979 0.000000 0.000000 0.000000
# 2 -0.002510 0.007890 -0.002162 0.000000 0.000000 0.000000
# 3 -0.003979 -0.002162 0.015459 0.000000 0.000000 0.000000
# 4 0.000000 0.000000 0.000000 0.024374 0.000000 0.000000
# 5 0.000000 0.000000 0.000000 0.000000 0.038085 0.000000
# 6 0.000000 0.000000 0.000000 0.000000 0.000000 0.034514
#
#
# Mechanical properties :
#
#
# Convention : Reuss Voigt Hill
#
# Bulk Modulus (GPa) = 64.51015 71.81847 68.16431
# Shear Modulus (GPa) = 32.84177 35.15870 34.00024
#
# Velocity S-wave (km/s) = 3.90036 4.03560 3.96855
# Velocity P-wave (km/s) = 7.08278 7.41499 7.25079
#
# Compressibility (1/GPa) = 0.01550144
#
# Stress axis : x y z
#
# Youngs Moduli (GPa) = 105.76032 126.74286 64.68892
#
# Poissons Ratio (x) = 0.31810 0.25741
# Poissons Ratio (y) = 0.26544 0.13987
# Poissons Ratio (z) = 0.42085 0.27404
#
# Static dielectric constant tensor:
#      x y z
#    x 3.866250 0.000000 0.000000 
#    y 0.000000 4.162830 0.000000 
#    z 0.000000 0.000000 3.768450 
# 
# 
# High freq. dielectric constant tensor:
#      x y z
#    x 1.855900 0.000000 0.000000 
#    y 0.000000 1.865550 0.000000 
#    z 0.000000 0.000000 1.845360 
# 
# From -- ./inp_files/9788.got.cif
#   From: 2010.03.12/outbox.cif.g09.slc.cpg/sg67_5_cif.got.tgz:9788.got - 2010.04.10 22:41:39.
