data_PCOD8280532
_publ_section_title
;
Structure prediction by ZEFSAII (Michael W. Deem and Ramdas Pophale) SiO2 
 PCOD8280532
Probable space group: C M M A
;
_chemical_formula_sum "Si O2"
_cell_formula_units_Z 68
_cell_length_a 18.323289
_cell_length_b 13.903987
_cell_length_c 15.102503
_cell_angle_alpha 90.000000
_cell_angle_beta 90.000000
_cell_angle_gamma 90.000000
_cell_volume 3847.615939
_symmetry_space_group_name_H-M "C M M A"
_symmetry_group_IT_number 67
_symmetry_cell_setting 'orthorhombic'
loop_
_space_group_symop_operation_xyz
x,y,z
-x,1/2-y,z
x,-y,-z
-x,1/2+y,-z
-x,-y,-z
x,1/2+y,-z
-x,y,z
x,1/2-y,z
1/2+x,1/2+y,z
1/2-x,-y,z
1/2+x,1/2-y,-z
1/2-x,y,-z
1/2-x,1/2-y,-z
1/2+x,y,-z
1/2-x,1/2+y,z
1/2+x,-y,z
loop_
_atom_site_type_symbol
_atom_site_label
_atom_site_fract_x
_atom_site_fract_y
_atom_site_fract_z
Si Si1 0.250000 0.000000 0.000000
Si Si2 0.694180 0.076120 0.697889
Si Si3 0.182547 0.250000 0.434204
Si Si4 0.413366 0.085069 0.273328
Si Si5 0.295544 0.641180 0.856401
Si Si6 0.085063 0.750000 0.405311
O O1 0.200914 0.069520 0.939504
O O2 0.681699 0.158682 0.628165
O O3 0.729213 0.113378 0.789989
O O4 0.750000 0.000000 0.654747
O O5 0.616600 0.023331 0.713868
O O6 0.250000 0.250000 0.500000
O O7 0.111010 0.250000 0.493979
O O8 0.500000 0.082363 0.258938
O O9 0.374692 0.132282 0.188585
O O10 0.389044 0.153046 0.355430
O O11 0.283376 0.750000 0.889097
O O12 0.000000 0.750000 0.408590
#
# Coordination Sequence:
#
# PCOD8280532 Si02
#       6
#     4  16   8  16  16   8
#     4  12  22  36  62  94 118 136 184 252 284 342
#     4  10  21  36  57  81 117 151 193 236 292 343
#     4  12  22  34  56  84 115 151 200 249 277 330
#     4  10  20  38  61  82 114 157 194 232 285 349
#     4  11  20  37  61  88 112 147 189 233 294 343
#     4  10  22  36  56  84 113 152 200 238 277 332
#
# _framework density 17.673282
#
# number of rings (size 3 to 8) (size 9 to 14) (size 15 to 20)
#    0.000    1.412    5.882    3.176    0.000    4.235 
#    0.000    2.941    0.000    0.000    0.000    0.000 
#    0.000    0.000    0.000    0.000    0.000    0.000 
#
# Total GULP energy -421467.540057 kJ/mol
# GULP energy per Si atom -12396.104119 kJ/mol
# Density = 1.763306 g / cm^3
# Si number density = 17.673282 Si / 1000 Ang^3
#
#
#
# Elastic Constant Matrix: (Units=GPa)
#
#
# Indices 1 2 3 4 5 6 
#
# 1 78.6734 47.0529 37.1205 0.0000 0.0000 0.0000
# 2 47.0529 154.5706 67.5011 0.0000 0.0000 0.0000
# 3 37.1205 67.5011 115.4795 0.0000 0.0000 0.0000
# 4 0.0000 0.0000 0.0000 81.2002 0.0000 0.0000
# 5 0.0000 0.0000 0.0000 0.0000 18.6247 0.0000
# 6 0.0000 0.0000 0.0000 0.0000 0.0000 22.9855
#
#
#
# Elastic Compliance Matrix: (Units=1/GPa)
#
#
# Indices 1 2 3 4 5 6 
#
# 1 0.016351 -0.003602 -0.003151 0.000000 0.000000 0.000000
# 2 -0.003602 0.009480 -0.004384 0.000000 0.000000 0.000000
# 3 -0.003151 -0.004384 0.012235 0.000000 0.000000 0.000000
# 4 0.000000 0.000000 0.000000 0.012315 0.000000 0.000000
# 5 0.000000 0.000000 0.000000 0.000000 0.053692 0.000000
# 6 0.000000 0.000000 0.000000 0.000000 0.000000 0.043506
#
#
# Mechanical properties :
#
#
# Convention : Reuss Voigt Hill
#
# Bulk Modulus (GPa) = 63.31483 72.45251 67.88367
# Shear Modulus (GPa) = 28.55235 37.69869 33.12552
#
# Velocity S-wave (km/s) = 4.02377 4.62355 4.33405
# Velocity P-wave (km/s) = 7.58225 8.34191 7.97114
#
# Compressibility (1/GPa) = 0.01579409
#
# Stress axis : x y z
#
# Youngs Moduli (GPa) = 61.15654 105.48201 81.73370
#
# Poissons Ratio (x) = 0.37990 0.25754
# Poissons Ratio (y) = 0.22026 0.35830
# Poissons Ratio (z) = 0.19270 0.46241
#
# Static dielectric constant tensor:
#      x y z
#    x 3.261430 0.000000 0.000000 
#    y 0.000000 6.502350 0.000000 
#    z 0.000000 0.000000 -1.220110 
# 
# 
# High freq. dielectric constant tensor:
#      x y z
#    x 1.669450 0.000000 0.000000 
#    y 0.000000 1.705510 0.000000 
#    z 0.000000 0.000000 1.673440 
# 
# From -- ./inp_files/20440.got.cif
#   From: 2010.03.12/outbox.cif.g09.slc.cpg/sg67_11_cif.got.tgz:20440.got - 2010.04.10 22:41:39.
