data_PCOD8280165
_publ_section_title
;
Structure prediction by ZEFSAII (Michael W. Deem and Ramdas Pophale) SiO2 
 PCOD8280165
Probable space group: C M M A
;
_chemical_formula_sum "Si O2"
_cell_formula_units_Z 96
_cell_length_a 8.509210
_cell_length_b 23.803674
_cell_length_c 25.518027
_cell_angle_alpha 90.000000
_cell_angle_beta 90.000000
_cell_angle_gamma 90.000000
_cell_volume 5168.688129
_symmetry_space_group_name_H-M "C M M A"
_symmetry_group_IT_number 67
_symmetry_cell_setting 'orthorhombic'
loop_
_space_group_symop_operation_xyz
x,y,z
-x,1/2-y,z
x,-y,-z
-x,1/2+y,-z
-x,-y,-z
x,1/2+y,-z
-x,y,z
x,1/2-y,z
1/2+x,1/2+y,z
1/2-x,-y,z
1/2+x,1/2-y,-z
1/2-x,y,-z
1/2-x,1/2-y,-z
1/2+x,y,-z
1/2-x,1/2+y,z
1/2+x,-y,z
loop_
_atom_site_type_symbol
_atom_site_label
_atom_site_fract_x
_atom_site_fract_y
_atom_site_fract_z
Si Si1 0.187702 0.371992 0.155943
Si Si2 0.685886 0.062062 0.255436
Si Si3 0.180136 0.750000 0.281446
Si Si4 0.815622 0.855693 0.663681
Si Si5 0.683259 0.686896 0.446129
Si Si6 0.819898 0.250000 0.171914
Si Si7 0.185316 0.061847 0.054037
O O1 0.268536 0.399609 0.206148
O O2 0.251952 0.308043 0.149505
O O3 0.243942 0.402243 0.103215
O O4 0.000000 0.374694 0.164037
O O5 0.500000 0.060387 0.261549
O O6 0.761948 0.086564 0.308813
O O7 0.750000 0.000000 0.245566
O O8 0.212270 0.694652 0.314273
O O9 0.300435 0.750000 0.233842
O O10 0.000000 0.750000 0.262034
O O11 0.777460 0.855883 0.601496
O O12 0.000000 0.845058 0.674042
O O13 0.500000 0.692455 0.452856
O O14 0.752487 0.750000 0.435697
O O15 0.750000 0.661088 0.500000
O O16 0.000000 0.250000 0.156345
O O17 0.000000 0.059725 0.050906
O O18 0.250000 0.000000 0.062069
O O19 0.250000 0.088602 0.000000
#
# Coordination Sequence:
#
# PCOD8280165 Si02
#       7
#    16  16   8  16  16   8  16
#     4  10  21  37  58  83 112 148 185 224 276 334
#     4  12  25  39  57  83 112 144 185 231 279 331
#     4  12  22  32  51  84 113 146 190 228 271 327
#     4  11  21  37  57  79 113 152 185 225 280 332
#     4   9  18  32  51  78 110 146 183 222 271 325
#     4  10  20  36  57  78 112 154 184 218 272 335
#     4  10  20  35  56  81 107 141 186 232 280 329
#
# _framework density 18.573378000000002
#
# number of rings (size 3 to 8) (size 9 to 14) (size 15 to 20)
#    0.000    1.500    2.500    4.250    0.000    4.000 
#    0.000    0.417    0.000    0.500    0.000    3.500 
#    0.000    0.000    0.000    0.000    0.000    0.000 
#
# Total GULP energy -595082.254375 kJ/mol
# GULP energy per Si atom -12397.546966 kJ/mol
# Density = 1.853110 g / cm^3
# Si number density = 18.573378 Si / 1000 Ang^3
#
#
#
# Elastic Constant Matrix: (Units=GPa)
#
#
# Indices 1 2 3 4 5 6 
#
# 1 59.0934 22.7057 33.0685 0.0000 0.0000 0.0000
# 2 22.7057 107.8896 58.7867 0.0000 0.0000 0.0000
# 3 33.0685 58.7867 150.5314 0.0000 0.0000 0.0000
# 4 0.0000 0.0000 0.0000 31.4147 0.0000 0.0000
# 5 0.0000 0.0000 0.0000 0.0000 27.8389 0.0000
# 6 0.0000 0.0000 0.0000 0.0000 0.0000 22.6356
#
#
#
# Elastic Compliance Matrix: (Units=1/GPa)
#
#
# Indices 1 2 3 4 5 6 
#
# 1 0.019724 -0.002274 -0.003445 0.000000 0.000000 0.000000
# 2 -0.002274 0.012036 -0.004201 0.000000 0.000000 0.000000
# 3 -0.003445 -0.004201 0.009040 0.000000 0.000000 0.000000
# 4 0.000000 0.000000 0.000000 0.031832 0.000000 0.000000
# 5 0.000000 0.000000 0.000000 0.000000 0.035921 0.000000
# 6 0.000000 0.000000 0.000000 0.000000 0.000000 0.044178
#
#
# Mechanical properties :
#
#
# Convention : Reuss Voigt Hill
#
# Bulk Modulus (GPa) = 47.70745 60.73738 54.22242
# Shear Modulus (GPa) = 27.84607 29.90808 28.87708
#
# Velocity S-wave (km/s) = 3.87621 4.01717 3.94732
# Velocity P-wave (km/s) = 6.76573 7.36812 7.07334
#
# Compressibility (1/GPa) = 0.02096109
#
# Stress axis : x y z
#
# Youngs Moduli (GPa) = 50.70016 83.08193 110.61341
#
# Poissons Ratio (x) = 0.18892 0.38105
# Poissons Ratio (y) = 0.11529 0.46469
# Poissons Ratio (z) = 0.17466 0.34903
#
# Static dielectric constant tensor:
#      x y z
#    x 3.391050 0.000000 0.000000 
#    y 0.000000 3.079040 0.000000 
#    z 0.000000 0.000000 3.714070 
# 
# 
# High freq. dielectric constant tensor:
#      x y z
#    x 1.722230 0.000000 0.000000 
#    y 0.000000 1.705090 0.000000 
#    z 0.000000 0.000000 1.723590 
# 
# From -- ./inp_files/43683.got.cif
#   From: 2010.03.12/outbox.cif.g09.slc.cpg/sg67_22_cif.got.tgz:43683.got - 2010.04.10 22:41:39.
