data_PCOD8280052
_publ_section_title
;
Structure prediction by ZEFSAII (Michael W. Deem and Ramdas Pophale) SiO2 
 PCOD8280052
Probable space group: C M M A
;
_chemical_formula_sum "Si O2"
_cell_formula_units_Z 96
_cell_length_a 25.059080
_cell_length_b 20.361366
_cell_length_c 9.033784
_cell_angle_alpha 90.000000
_cell_angle_beta 90.000000
_cell_angle_gamma 90.000000
_cell_volume 4609.371746
_symmetry_space_group_name_H-M "C M M A"
_symmetry_group_IT_number 67
_symmetry_cell_setting 'orthorhombic'
loop_
_space_group_symop_operation_xyz
x,y,z
-x,1/2-y,z
x,-y,-z
-x,1/2+y,-z
-x,-y,-z
x,1/2+y,-z
-x,y,z
x,1/2-y,z
1/2+x,1/2+y,z
1/2-x,-y,z
1/2+x,1/2-y,-z
1/2-x,y,-z
1/2-x,1/2-y,-z
1/2+x,y,-z
1/2-x,1/2+y,z
1/2+x,-y,z
loop_
_atom_site_type_symbol
_atom_site_label
_atom_site_fract_x
_atom_site_fract_y
_atom_site_fract_z
Si Si1 0.296815 0.542798 0.297837
Si Si2 0.560242 0.864140 0.479785
Si Si3 0.339068 0.175443 0.045938
Si Si4 0.340124 0.177793 0.696677
Si Si5 0.612874 0.500000 0.500000
Si Si6 0.250000 0.082974 0.000000
Si Si7 0.557404 0.675743 0.803778
O O1 0.250000 0.500000 0.374575
O O2 0.300109 0.619037 0.354979
O O3 0.351482 0.507768 0.349824
O O4 0.285745 0.540867 0.118356
O O5 0.500000 0.860602 0.416053
O O6 0.600121 0.833175 0.361199
O O7 0.565873 0.822432 0.628497
O O8 0.574662 0.938485 0.521555
O O9 0.329145 0.250000 0.104421
O O10 0.344920 0.174392 0.871415
O O11 0.289349 0.129973 0.095913
O O12 0.392249 0.142298 0.115401
O O13 0.318931 0.250000 0.646165
O O14 0.500000 0.641340 0.842075
O O15 0.555374 0.750000 0.862184
#
# Coordination Sequence:
#
# PCOD8280052 Si02
#       7
#    16  16  16  16   8   8  16
#     4  10  21  37  56  82 112 151 191 238 286 343
#     4  10  20  35  58  83 110 147 190 234 286 344
#     4   9  18  33  54  82 116 147 182 232 291 349
#     4   9  19  36  58  85 114 145 185 236 285 340
#     4  10  22  38  58  76 112 148 188 242 288 346
#     4  10  20  34  58  84 107 146 197 240 287 344
#     4   9  18  32  51  78 111 146 183 225 280 345
#
# _framework density 20.827134999999998
#
# number of rings (size 3 to 8) (size 9 to 14) (size 15 to 20)
#    0.000    2.500    0.000    1.500    2.333    2.333 
#    0.000    1.667    0.000    3.000    0.000    8.167 
#    0.000    0.000    0.000    0.000    0.000    0.000 
#
# Total GULP energy -594639.933124 kJ/mol
# GULP energy per Si atom -12388.331940 kJ/mol
# Density = 2.077973 g / cm^3
# Si number density = 20.827135 Si / 1000 Ang^3
#
#
#
# Elastic Constant Matrix: (Units=GPa)
#
#
# Indices 1 2 3 4 5 6 
#
# 1 121.5804 36.6018 29.8787 0.0000 0.0000 0.0000
# 2 36.6018 98.9383 15.1183 0.0000 0.0000 0.0000
# 3 29.8787 15.1183 45.3882 0.0000 0.0000 0.0000
# 4 0.0000 0.0000 0.0000 16.4362 0.0000 0.0000
# 5 0.0000 0.0000 0.0000 0.0000 31.1997 0.0000
# 6 0.0000 0.0000 0.0000 0.0000 0.0000 21.6267
#
#
#
# Elastic Compliance Matrix: (Units=1/GPa)
#
#
# Indices 1 2 3 4 5 6 
#
# 1 0.010599 -0.003008 -0.005975 0.000000 0.000000 0.000000
# 2 -0.003008 0.011503 -0.001851 0.000000 0.000000 0.000000
# 3 -0.005975 -0.001851 0.026582 0.000000 0.000000 0.000000
# 4 0.000000 0.000000 0.000000 0.060841 0.000000 0.000000
# 5 0.000000 0.000000 0.000000 0.000000 0.032052 0.000000
# 6 0.000000 0.000000 0.000000 0.000000 0.000000 0.046239
#
#
# Mechanical properties :
#
#
# Convention : Reuss Voigt Hill
#
# Bulk Modulus (GPa) = 37.01652 47.67826 42.34739
# Shear Modulus (GPa) = 22.88426 26.13973 24.51199
#
# Velocity S-wave (km/s) = 3.31837 3.54655 3.43436
# Velocity P-wave (km/s) = 5.70034 6.30181 6.00861
#
# Compressibility (1/GPa) = 0.02701496
#
# Stress axis : x y z
#
# Youngs Moduli (GPa) = 94.34841 86.93376 37.61903
#
# Poissons Ratio (x) = 0.26150 0.22479
# Poissons Ratio (y) = 0.28380 0.06965
# Poissons Ratio (z) = 0.56376 0.16095
#
# Static dielectric constant tensor:
#      x y z
#    x 4.049940 0.000000 0.000000 
#    y 0.000000 4.279500 0.000000 
#    z 0.000000 0.000000 3.464850 
# 
# 
# High freq. dielectric constant tensor:
#      x y z
#    x 1.816640 0.000000 0.000000 
#    y 0.000000 1.817820 0.000000 
#    z 0.000000 0.000000 1.791100 
# 
# From -- ./inp_files/12700.got.cif
#   From: 2010.03.12/outbox.cif.g09.slc.cpg/sg67_7_cif.got.tgz:12700.got - 2010.04.10 22:41:39.
