data_PCOD8280373
_publ_section_title
;
Structure prediction by ZEFSAII (Michael W. Deem and Ramdas Pophale) SiO2 
 PCOD8280373
Probable space group: C M M A
;
_chemical_formula_sum "Si O2"
_cell_formula_units_Z 112
_cell_length_a 14.295481
_cell_length_b 27.480599
_cell_length_c 14.211916
_cell_angle_alpha 90.000000
_cell_angle_beta 90.000000
_cell_angle_gamma 90.000000
_cell_volume 5583.128190
_symmetry_space_group_name_H-M "C M M A"
_symmetry_group_IT_number 67
_symmetry_cell_setting 'orthorhombic'
loop_
_space_group_symop_operation_xyz
x,y,z
-x,1/2-y,z
x,-y,-z
-x,1/2+y,-z
-x,-y,-z
x,1/2+y,-z
-x,y,z
x,1/2-y,z
1/2+x,1/2+y,z
1/2-x,-y,z
1/2+x,1/2-y,-z
1/2-x,y,-z
1/2-x,1/2-y,-z
1/2+x,y,-z
1/2-x,1/2+y,z
1/2+x,-y,z
loop_
_atom_site_type_symbol
_atom_site_label
_atom_site_fract_x
_atom_site_fract_y
_atom_site_fract_z
Si Si1 0.610987 0.433607 0.266940
Si Si2 0.238825 0.884800 0.608068
Si Si3 0.609871 0.385488 0.864584
Si Si4 0.601811 0.802519 0.842715
Si Si5 0.605186 0.100068 0.066551
Si Si6 0.291756 0.693851 0.250352
Si Si7 0.892586 0.955649 0.694261
O O1 0.500000 0.422515 0.271652
O O2 0.663741 0.398322 0.339902
O O3 0.651197 0.423824 0.160373
O O4 0.635671 0.488551 0.293316
O O5 0.250000 0.871528 0.500000
O O6 0.190377 0.836989 0.654527
O O7 0.169349 0.931231 0.613003
O O8 0.500000 0.375062 0.876017
O O9 0.657621 0.334314 0.835740
O O10 0.630841 0.427490 0.790078
O O11 0.651956 0.407386 0.963380
O O12 0.500000 0.808309 0.792354
O O13 0.610854 0.750000 0.892658
O O14 0.610338 0.841767 0.924457
O O15 0.680310 0.807711 0.763509
O O16 0.500000 0.079322 0.062597
O O17 0.327869 0.750000 0.258614
O O18 0.000000 0.950492 0.664764
#
# Coordination Sequence:
#
# PCOD8280373 Si02
#       7
#    16  16  16  16  16  16  16
#     4  10  20  36  59  83 110 143 183 227 273 328
#     4  11  23  39  59  81 108 141 182 235 287 332
#     4   9  19  35  54  79 114 150 184 221 263 318
#     4   9  17  31  51  75 106 140 177 224 270 312
#     4   9  17  31  53  81 111 144 180 221 267 318
#     4  10  21  37  57  81 108 144 184 225 275 330
#     4   9  20  38  56  80 113 147 182 223 272 328
#
# _framework density 20.060438999999999
#
# number of rings (size 3 to 8) (size 9 to 14) (size 15 to 20)
#    0.000    2.429    1.429    0.429    0.000    4.000 
#    0.000    7.143    0.000    1.714    0.000    4.000 
#    0.000    0.000    0.000    0.000    0.000    0.000 
#
# Total GULP energy -693839.775385 kJ/mol
# GULP energy per Si atom -12389.995989 kJ/mol
# Density = 2.001478 g / cm^3
# Si number density = 20.060439 Si / 1000 Ang^3
#
#
#
# Elastic Constant Matrix: (Units=GPa)
#
#
# Indices 1 2 3 4 5 6 
#
# 1 46.1690 10.4253 16.6850 0.0000 0.0000 0.0000
# 2 10.4253 72.6652 9.3439 0.0000 0.0000 0.0000
# 3 16.6850 9.3439 108.4979 0.0000 0.0000 0.0000
# 4 0.0000 0.0000 0.0000 15.1992 0.0000 0.0000
# 5 0.0000 0.0000 0.0000 0.0000 23.9287 0.0000
# 6 0.0000 0.0000 0.0000 0.0000 0.0000 25.2170
#
#
#
# Elastic Compliance Matrix: (Units=1/GPa)
#
#
# Indices 1 2 3 4 5 6 
#
# 1 0.023541 -0.002945 -0.003367 0.000000 0.000000 0.000000
# 2 -0.002945 0.014284 -0.000777 0.000000 0.000000 0.000000
# 3 -0.003367 -0.000777 0.009801 0.000000 0.000000 0.000000
# 4 0.000000 0.000000 0.000000 0.065793 0.000000 0.000000
# 5 0.000000 0.000000 0.000000 0.000000 0.041791 0.000000
# 6 0.000000 0.000000 0.000000 0.000000 0.000000 0.039656
#
#
# Mechanical properties :
#
#
# Convention : Reuss Voigt Hill
#
# Bulk Modulus (GPa) = 29.89562 33.36005 31.62784
# Shear Modulus (GPa) = 22.70734 25.59418 24.15076
#
# Velocity S-wave (km/s) = 3.36809 3.57578 3.47349
# Velocity P-wave (km/s) = 5.48275 5.80639 5.64689
#
# Compressibility (1/GPa) = 0.03344972
#
# Stress axis : x y z
#
# Youngs Moduli (GPa) = 42.47890 70.00762 102.02591
#
# Poissons Ratio (x) = 0.20614 0.34348
# Poissons Ratio (y) = 0.12508 0.07931
# Poissons Ratio (z) = 0.14301 0.05442
#
# Static dielectric constant tensor:
#      x y z
#    x 3.723500 0.000000 0.000000 
#    y 0.000000 3.816560 0.000000 
#    z 0.000000 0.000000 3.412850 
# 
# 
# High freq. dielectric constant tensor:
#      x y z
#    x 1.784430 0.000000 0.000000 
#    y 0.000000 1.786430 0.000000 
#    z 0.000000 0.000000 1.753000 
# 
# From -- ./inp_files/27710.got.cif
#   From: 2010.03.12/outbox.cif.g09.slc.cpg/sg67_14_cif.got.tgz:27710.got - 2010.04.10 22:41:39.
