data_PCOD8280301
_publ_section_title
;
Structure prediction by ZEFSAII (Michael W. Deem and Ramdas Pophale) SiO2 
 PCOD8280301
Probable space group: C M M A
;
_chemical_formula_sum "Si O2"
_cell_formula_units_Z 80
_cell_length_a 26.498338
_cell_length_b 14.215280
_cell_length_c 11.680318
_cell_angle_alpha 90.000000
_cell_angle_beta 90.000000
_cell_angle_gamma 90.000000
_cell_volume 4399.757301
_symmetry_space_group_name_H-M "C M M A"
_symmetry_group_IT_number 67
_symmetry_cell_setting 'orthorhombic'
loop_
_space_group_symop_operation_xyz
x,y,z
-x,1/2-y,z
x,-y,-z
-x,1/2+y,-z
-x,-y,-z
x,1/2+y,-z
-x,y,z
x,1/2-y,z
1/2+x,1/2+y,z
1/2-x,-y,z
1/2+x,1/2-y,-z
1/2-x,y,-z
1/2-x,1/2-y,-z
1/2+x,y,-z
1/2-x,1/2+y,z
1/2+x,-y,z
loop_
_atom_site_type_symbol
_atom_site_label
_atom_site_fract_x
_atom_site_fract_y
_atom_site_fract_z
Si Si1 0.693143 0.859318 0.991708
Si Si2 0.364132 0.897898 0.207821
Si Si3 0.440900 0.250000 0.864617
Si Si4 0.198044 0.750000 0.653745
Si Si5 0.366440 0.108264 0.232734
Si Si6 0.058703 0.250000 0.865689
Si Si7 0.814440 0.750000 0.386024
O O1 0.688360 0.750000 0.026521
O O2 0.660075 0.916814 0.083117
O O3 0.750000 0.895239 0.000000
O O4 0.675397 0.877266 0.863990
O O5 0.416515 0.841786 0.193838
O O6 0.324493 0.843259 0.287846
O O7 0.376689 0.999355 0.261739
O O8 0.500000 0.250000 0.838593
O O9 0.428939 0.250000 0.999577
O O10 0.183884 0.750000 0.521583
O O11 0.258326 0.750000 0.667441
O O12 0.418256 0.156543 0.191288
O O13 0.344404 0.157257 0.345812
O O14 0.000000 0.250000 0.840240
#
# Coordination Sequence:
#
# PCOD8280301 Si02
#       7
#    16  16   8   8  16   8   8
#     4  11  19  31  51  77 111 146 177 212 264 328
#     4  11  21  35  55  81 110 142 181 224 271 323
#     4  10  20  36  55  79 114 147 176 219 275 331
#     4  10  22  39  56  78 111 149 187 225 265 313
#     4  11  21  35  55  81 110 142 181 224 271 323
#     4  10  20  36  55  79 114 147 176 219 275 331
#     4  10  22  39  56  78 111 149 187 225 265 313
#
# _framework density 18.182822000000002
#
# number of rings (size 3 to 8) (size 9 to 14) (size 15 to 20)
#    0.000    1.400    6.000    1.800    0.000    5.600 
#    0.000    4.000    0.000    9.600    0.000   11.200 
#    0.000    0.000    0.000    0.000    0.000    0.000 
#
# Total GULP energy -496127.399102 kJ/mol
# GULP energy per Si atom -12403.184978 kJ/mol
# Density = 1.814144 g / cm^3
# Si number density = 18.182822 Si / 1000 Ang^3
#
#
#
# Elastic Constant Matrix: (Units=GPa)
#
#
# Indices 1 2 3 4 5 6 
#
# 1 114.8900 41.0679 29.7400 0.0000 0.0000 0.0000
# 2 41.0679 146.5921 23.8561 0.0000 0.0000 0.0000
# 3 29.7400 23.8561 69.4791 0.0000 0.0000 0.0000
# 4 0.0000 0.0000 0.0000 12.7431 0.0000 0.0000
# 5 0.0000 0.0000 0.0000 0.0000 22.3642 0.0000
# 6 0.0000 0.0000 0.0000 0.0000 0.0000 0.8962
#
#
#
# Elastic Compliance Matrix: (Units=1/GPa)
#
#
# Indices 1 2 3 4 5 6 
#
# 1 0.010495 -0.002340 -0.003689 0.000000 0.000000 0.000000
# 2 -0.002340 0.007747 -0.001658 0.000000 0.000000 0.000000
# 3 -0.003689 -0.001658 0.016541 0.000000 0.000000 0.000000
# 4 0.000000 0.000000 0.000000 0.078474 0.000000 0.000000
# 5 0.000000 0.000000 0.000000 0.000000 0.044714 0.000000
# 6 0.000000 0.000000 0.000000 0.000000 0.000000 1.115823
#
#
# Mechanical properties :
#
#
# Convention : Reuss Voigt Hill
#
# Bulk Modulus (GPa) = 51.52254 57.80990 54.66622
# Shear Modulus (GPa) = 3.85910 22.95384 13.40647
#
# Velocity S-wave (km/s) = 1.45842 3.55687 2.71830
# Velocity P-wave (km/s) = 5.58868 6.98077 6.32315
#
# Compressibility (1/GPa) = 0.01940898
#
# Stress axis : x y z
#
# Youngs Moduli (GPa) = 95.28053 129.08105 60.45471
#
# Poissons Ratio (x) = 0.30204 0.22302
# Poissons Ratio (y) = 0.22295 0.10026
# Poissons Ratio (z) = 0.35149 0.21407
#
# Static dielectric constant tensor:
#      x y z
#    x 3.293560 0.000000 0.000000 
#    y 0.000000 3.504240 0.000000 
#    z 0.000000 0.000000 3.142150 
# 
# 
# High freq. dielectric constant tensor:
#      x y z
#    x 1.699920 0.000000 0.000000 
#    y 0.000000 1.709330 0.000000 
#    z 0.000000 0.000000 1.685760 
# 
# From -- ./inp_files/18292.got.cif
#   From: 2010.03.12/outbox.cif.g09.slc.cpg/sg67_10_cif.got.tgz:18292.got - 2010.04.10 22:41:39.
