data_PCOD8280227
_publ_section_title
;
Structure prediction by ZEFSAII (Michael W. Deem and Ramdas Pophale) SiO2 
 PCOD8280227
Probable space group: C M M A
;
_chemical_formula_sum "Si O2"
_cell_formula_units_Z 80
_cell_length_a 13.950631
_cell_length_b 12.753828
_cell_length_c 20.788718
_cell_angle_alpha 90.000000
_cell_angle_beta 90.000000
_cell_angle_gamma 90.000000
_cell_volume 3698.810786
_symmetry_space_group_name_H-M "C M M A"
_symmetry_group_IT_number 67
_symmetry_cell_setting 'orthorhombic'
loop_
_space_group_symop_operation_xyz
x,y,z
-x,1/2-y,z
x,-y,-z
-x,1/2+y,-z
-x,-y,-z
x,1/2+y,-z
-x,y,z
x,1/2-y,z
1/2+x,1/2+y,z
1/2-x,-y,z
1/2+x,1/2-y,-z
1/2-x,y,-z
1/2-x,1/2-y,-z
1/2+x,y,-z
1/2-x,1/2+y,z
1/2+x,-y,z
loop_
_atom_site_type_symbol
_atom_site_label
_atom_site_fract_x
_atom_site_fract_y
_atom_site_fract_z
Si Si1 0.299582 0.624858 0.595586
Si Si2 0.106587 0.624806 0.534467
Si Si3 0.390162 0.131084 0.274210
Si Si4 0.775310 0.865362 0.929371
Si Si5 0.610466 0.954144 0.862084
O O1 0.303562 0.750000 0.593726
O O2 0.189893 0.584039 0.583651
O O3 0.369585 0.583130 0.538053
O O4 0.331363 0.585231 0.665564
O O5 0.111626 0.750000 0.534010
O O6 0.000000 0.587014 0.554988
O O7 0.500000 0.132967 0.295536
O O8 0.358037 0.250000 0.255621
O O9 0.375159 0.051434 0.214766
O O10 0.820543 0.750000 0.932942
O O11 0.673647 0.861358 0.892377
O O12 0.850908 0.936572 0.890976
O O13 0.750000 0.909197 0.000000
O O14 0.500000 0.938545 0.881427
#
# Coordination Sequence:
#
# PCOD8280227 Si02
#       5
#    16  16  16  16  16
#     4   8  13  20  32  54  88 133 182 233 286 335
#     4   8  12  18  30  51  83 127 181 235 285 340
#     4   9  16  26  43  69 102 142 188 235 283 336
#     4  10  22  39  59  86 119 152 185 226 281 339
#     4  10  20  35  57  85 116 151 192 235 276 327
#
# _framework density 21.628574
#
# number of rings (size 3 to 8) (size 9 to 14) (size 15 to 20)
#    0.000    3.000    0.000    3.600    0.000    5.600 
#    0.000    2.000    0.000    4.800    0.000    5.600 
#    0.000   12.800    0.000   91.600    0.000  192.000 
#
# Total GULP energy -495759.982976 kJ/mol
# GULP energy per Si atom -12393.999574 kJ/mol
# Density = 2.157935 g / cm^3
# Si number density = 21.628574 Si / 1000 Ang^3
#
#
#
# Elastic Constant Matrix: (Units=GPa)
#
#
# Indices 1 2 3 4 5 6 
#
# 1 143.1236 1.3509 70.1089 0.0000 0.0000 0.0000
# 2 1.3509 54.5069 25.6713 0.0000 0.0000 0.0000
# 3 70.1089 25.6713 153.8580 0.0000 0.0000 0.0000
# 4 0.0000 0.0000 0.0000 29.2687 0.0000 0.0000
# 5 0.0000 0.0000 0.0000 0.0000 33.8519 0.0000
# 6 0.0000 0.0000 0.0000 0.0000 0.0000 20.3823
#
#
#
# Elastic Compliance Matrix: (Units=1/GPa)
#
#
# Indices 1 2 3 4 5 6 
#
# 1 0.009171 0.001889 -0.004494 0.000000 0.000000 0.000000
# 2 0.001889 0.020300 -0.004248 0.000000 0.000000 0.000000
# 3 -0.004494 -0.004248 0.009256 0.000000 0.000000 0.000000
# 4 0.000000 0.000000 0.000000 0.034166 0.000000 0.000000
# 5 0.000000 0.000000 0.000000 0.000000 0.029540 0.000000
# 6 0.000000 0.000000 0.000000 0.000000 0.000000 0.049062
#
#
# Mechanical properties :
#
#
# Convention : Reuss Voigt Hill
#
# Bulk Modulus (GPa) = 39.96587 60.63894 50.30240
# Shear Modulus (GPa) = 28.81158 33.65774 31.23466
#
# Velocity S-wave (km/s) = 3.65376 3.94911 3.80431
# Velocity P-wave (km/s) = 6.02647 6.99223 6.52724
#
# Compressibility (1/GPa) = 0.02502135
#
# Stress axis : x y z
#
# Youngs Moduli (GPa) = 109.04527 49.26069 108.03737
#
# Poissons Ratio (x) = -0.09307 0.48552
# Poissons Ratio (y) = -0.20602 0.45894
# Poissons Ratio (z) = 0.49005 0.20926
#
# Static dielectric constant tensor:
#      x y z
#    x 3.999630 0.000000 0.000000 
#    y 0.000000 3.878400 0.000000 
#    z 0.000000 0.000000 3.907290 
# 
# 
# High freq. dielectric constant tensor:
#      x y z
#    x 1.844400 0.000000 0.000000 
#    y 0.000000 1.864980 0.000000 
#    z 0.000000 0.000000 1.840680 
# 
# From -- ./inp_files/38287.got.cif
#   From: 2010.03.12/outbox.cif.g09.slc.cpg/sg67_20_cif.got.tgz:38287.got - 2010.04.10 22:41:39.
