data_PCOD8280650
_publ_section_title
;
Structure prediction by ZEFSAII (Michael W. Deem and Ramdas Pophale) SiO2 
 PCOD8280650
Probable space group: C M M A
;
_chemical_formula_sum "Si O2"
_cell_formula_units_Z 112
_cell_length_a 25.301555
_cell_length_b 14.480506
_cell_length_c 17.731696
_cell_angle_alpha 90.000000
_cell_angle_beta 90.000000
_cell_angle_gamma 90.000000
_cell_volume 6496.526705
_symmetry_space_group_name_H-M "C M M A"
_symmetry_group_IT_number 67
_symmetry_cell_setting 'orthorhombic'
loop_
_space_group_symop_operation_xyz
x,y,z
-x,1/2-y,z
x,-y,-z
-x,1/2+y,-z
-x,-y,-z
x,1/2+y,-z
-x,y,z
x,1/2-y,z
1/2+x,1/2+y,z
1/2-x,-y,z
1/2+x,1/2-y,-z
1/2-x,y,-z
1/2-x,1/2-y,-z
1/2+x,y,-z
1/2-x,1/2+y,z
1/2+x,-y,z
loop_
_atom_site_type_symbol
_atom_site_label
_atom_site_fract_x
_atom_site_fract_y
_atom_site_fract_z
Si Si1 0.709824 0.854596 0.168438
Si Si2 0.157286 0.894060 0.987342
Si Si3 0.828626 0.648073 0.153685
Si Si4 0.381431 0.976280 0.221205
Si Si5 0.062308 0.147216 0.505292
Si Si6 0.937485 0.993938 0.621511
Si Si7 0.440155 0.855766 0.105052
O O1 0.703064 0.750000 0.196898
O O2 0.770338 0.886790 0.177485
O O3 0.673315 0.919443 0.220236
O O4 0.693519 0.858563 0.080692
O O5 0.169581 0.840219 0.063506
O O6 0.095841 0.878616 0.966941
O O7 0.170300 0.000000 0.000000
O O8 0.840159 0.750000 0.187615
O O9 0.872083 0.576437 0.183633
O O10 0.425712 0.921630 0.174694
O O11 0.402051 0.990168 0.304782
O O12 0.088122 0.250000 0.507844
O O13 0.079732 0.086955 0.577480
O O14 0.000000 0.155953 0.507198
O O15 0.078226 0.095076 0.428404
O O16 0.000000 0.994422 0.640317
O O17 0.500000 0.874544 0.080315
O O18 0.431761 0.750000 0.131346
#
# Coordination Sequence:
#
# PCOD8280650 Si02
#       7
#    16  16  16  16  16  16  16
#     4  10  21  35  52  72  96 126 167 220 269 303
#     4  11  19  33  54  74  92 125 171 219 262 305
#     4  11  22  35  50  71  98 130 168 214 265 311
#     4  11  20  33  50  75 103 134 164 203 246 302
#     4   8  15  30  52  76 102 132 163 195 231 273
#     4   9  18  31  49  77 108 134 162 193 230 283
#     4  10  21  36  51  69  97 133 171 210 251 295
#
# _framework density 17.239981
#
# number of rings (size 3 to 8) (size 9 to 14) (size 15 to 20)
#    0.000    2.000    2.857    4.714    0.000    3.714 
#    0.000    1.429    0.000    2.143    0.000    8.000 
#    0.000   13.714    0.000    0.000    0.000    0.000 
#
# Total GULP energy -694252.747281 kJ/mol
# GULP energy per Si atom -12397.370487 kJ/mol
# Density = 1.720074 g / cm^3
# Si number density = 17.239981 Si / 1000 Ang^3
#
#
#
# Elastic Constant Matrix: (Units=GPa)
#
#
# Indices 1 2 3 4 5 6 
#
# 1 50.6640 27.7296 30.9422 0.0000 0.0000 0.0000
# 2 27.7296 116.2982 40.7765 0.0000 0.0000 0.0000
# 3 30.9422 40.7765 97.1565 0.0000 0.0000 0.0000
# 4 0.0000 0.0000 0.0000 8.7371 0.0000 0.0000
# 5 0.0000 0.0000 0.0000 0.0000 17.3781 0.0000
# 6 0.0000 0.0000 0.0000 0.0000 0.0000 22.7192
#
#
#
# Elastic Compliance Matrix: (Units=1/GPa)
#
#
# Indices 1 2 3 4 5 6 
#
# 1 0.025895 -0.003849 -0.006631 0.000000 0.000000 0.000000
# 2 -0.003849 0.010654 -0.003246 0.000000 0.000000 0.000000
# 3 -0.006631 -0.003246 0.013767 0.000000 0.000000 0.000000
# 4 0.000000 0.000000 0.000000 0.114454 0.000000 0.000000
# 5 0.000000 0.000000 0.000000 0.000000 0.057544 0.000000
# 6 0.000000 0.000000 0.000000 0.000000 0.000000 0.044016
#
#
# Mechanical properties :
#
#
# Convention : Reuss Voigt Hill
#
# Bulk Modulus (GPa) = 43.73817 51.44615 47.59216
# Shear Modulus (GPa) = 16.58911 20.74492 18.66701
#
# Velocity S-wave (km/s) = 3.10537 3.47263 3.29412
# Velocity P-wave (km/s) = 6.18733 6.78121 6.49107
#
# Compressibility (1/GPa) = 0.02286332
#
# Stress axis : x y z
#
# Youngs Moduli (GPa) = 38.61806 93.85809 72.63813
#
# Poissons Ratio (x) = 0.36127 0.48169
# Poissons Ratio (y) = 0.14864 0.23577
# Poissons Ratio (z) = 0.25609 0.30464
#
# Static dielectric constant tensor:
#      x y z
#    x 3.083840 0.000000 0.000000 
#    y 0.000000 3.671730 0.000000 
#    z 0.000000 0.000000 2.959420 
# 
# 
# High freq. dielectric constant tensor:
#      x y z
#    x 1.646000 0.000000 0.000000 
#    y 0.000000 1.688420 0.000000 
#    z 0.000000 0.000000 1.633690 
# 
# From -- ./inp_files/30792.got.cif
#   From: 2010.03.12/outbox.cif.g09.slc.cpg/sg67_16_cif.got.tgz:30792.got - 2010.04.10 22:41:39.
