data_PCOD8280233
_publ_section_title
;
Structure prediction by ZEFSAII (Michael W. Deem and Ramdas Pophale) SiO2 
 PCOD8280233
Probable space group: C M M A
;
_chemical_formula_sum "Si O2"
_cell_formula_units_Z 96
_cell_length_a 17.836455
_cell_length_b 14.015689
_cell_length_c 21.137113
_cell_angle_alpha 90.000000
_cell_angle_beta 90.000000
_cell_angle_gamma 90.000000
_cell_volume 5284.071236
_symmetry_space_group_name_H-M "C M M A"
_symmetry_group_IT_number 67
_symmetry_cell_setting 'orthorhombic'
loop_
_space_group_symop_operation_xyz
x,y,z
-x,1/2-y,z
x,-y,-z
-x,1/2+y,-z
-x,-y,-z
x,1/2+y,-z
-x,y,z
x,1/2-y,z
1/2+x,1/2+y,z
1/2-x,-y,z
1/2+x,1/2-y,-z
1/2-x,y,-z
1/2-x,1/2-y,-z
1/2+x,y,-z
1/2-x,1/2+y,z
1/2+x,-y,z
loop_
_atom_site_type_symbol
_atom_site_label
_atom_site_fract_x
_atom_site_fract_y
_atom_site_fract_z
Si Si1 0.840228 0.250000 0.559851
Si Si2 0.583424 0.444020 0.440533
Si Si3 0.912955 0.861994 0.801003
Si Si4 0.088492 0.361622 0.977533
Si Si5 0.583030 0.899347 0.342104
Si Si6 0.661697 0.975934 0.090000
Si Si7 0.321301 0.750000 0.411416
O O1 0.881703 0.344989 0.579011
O O2 0.766215 0.250000 0.602434
O O3 0.830904 0.250000 0.485505
O O4 0.623489 0.500000 0.500000
O O5 0.500000 0.422928 0.464934
O O6 0.584460 0.497268 0.373417
O O7 0.892238 0.750000 0.806043
O O8 0.895324 0.901217 0.731211
O O9 0.859151 0.925467 0.844468
O O10 0.000000 0.877204 0.819645
O O11 0.106413 0.250000 0.965958
O O12 0.114789 0.424891 0.917276
O O13 0.000000 0.376353 0.990712
O O14 0.137566 0.400719 0.035903
O O15 0.500000 0.853062 0.348797
O O16 0.643155 0.842478 0.381581
O O17 0.750000 0.000000 0.086658
#
# Coordination Sequence:
#
# PCOD8280233 Si02
#       7
#     8  16  16  16  16  16   8
#     4  11  23  35  51  83 117 147 172 222 299 354
#     4  10  20  35  58  81 104 140 186 233 275 331
#     4  10  20  37  62  84 107 143 192 244 281 322
#     4  10  20  36  61  87 114 152 194 235 276 324
#     4  10  20  37  60  83 104 141 193 241 281 326
#     4  11  22  35  54  87 121 151 183 227 286 341
#     4  11  21  35  53  85 115 143 179 225 293 351
#
# _framework density 18.167808000000001
#
# number of rings (size 3 to 8) (size 9 to 14) (size 15 to 20)
#    0.000    1.667    2.500    4.000    0.000    4.667 
#    3.000    0.000    1.833    0.000    0.000    0.000 
#    0.000    0.000    0.000    0.000    0.000    0.000 
#
# Total GULP energy -594926.705249 kJ/mol
# GULP energy per Si atom -12394.306359 kJ/mol
# Density = 1.812646 g / cm^3
# Si number density = 18.167808 Si / 1000 Ang^3
#
#
#
# Elastic Constant Matrix: (Units=GPa)
#
#
# Indices 1 2 3 4 5 6 
#
# 1 117.9585 67.1761 52.9518 0.0000 0.0000 0.0000
# 2 67.1761 142.9334 55.5889 0.0000 0.0000 0.0000
# 3 52.9518 55.5889 103.5539 0.0000 0.0000 0.0000
# 4 0.0000 0.0000 0.0000 28.6348 0.0000 0.0000
# 5 0.0000 0.0000 0.0000 0.0000 22.9475 0.0000
# 6 0.0000 0.0000 0.0000 0.0000 0.0000 28.7902
#
#
#
# Elastic Compliance Matrix: (Units=1/GPa)
#
#
# Indices 1 2 3 4 5 6 
#
# 1 0.012886 -0.004415 -0.004219 0.000000 0.000000 0.000000
# 2 -0.004415 0.010355 -0.003301 0.000000 0.000000 0.000000
# 3 -0.004219 -0.003301 0.013586 0.000000 0.000000 0.000000
# 4 0.000000 0.000000 0.000000 0.034923 0.000000 0.000000
# 5 0.000000 0.000000 0.000000 0.000000 0.043578 0.000000
# 6 0.000000 0.000000 0.000000 0.000000 0.000000 0.034734
#
#
# Mechanical properties :
#
#
# Convention : Reuss Voigt Hill
#
# Bulk Modulus (GPa) = 77.18031 79.54215 78.36123
# Shear Modulus (GPa) = 28.05029 28.65643 28.35336
#
# Velocity S-wave (km/s) = 3.93358 3.97586 3.95478
# Velocity P-wave (km/s) = 7.95015 8.05938 8.00495
#
# Compressibility (1/GPa) = 0.01295667
#
# Stress axis : x y z
#
# Youngs Moduli (GPa) = 77.60397 96.56976 73.60426
#
# Poissons Ratio (x) = 0.42639 0.31053
# Poissons Ratio (y) = 0.34265 0.24297
# Poissons Ratio (z) = 0.32741 0.31878
#
# Static dielectric constant tensor:
#      x y z
#    x 3.469910 0.000000 0.000000 
#    y 0.000000 3.466710 0.000000 
#    z 0.000000 0.000000 3.330070 
# 
# 
# High freq. dielectric constant tensor:
#      x y z
#    x 1.700410 0.000000 0.000000 
#    y 0.000000 1.710450 0.000000 
#    z 0.000000 0.000000 1.691830 
# 
# From -- ./inp_files/38511.got.cif
#   From: 2010.03.12/outbox.cif.g09.slc.cpg/sg67_20_cif.got.tgz:38511.got - 2010.04.10 22:41:39.
