data_PCOD8280517
_publ_section_title
;
Structure prediction by ZEFSAII (Michael W. Deem and Ramdas Pophale) SiO2 
 PCOD8280517
Probable space group: C M M A
;
_chemical_formula_sum "Si O2"
_cell_formula_units_Z 96
_cell_length_a 18.657492
_cell_length_b 28.533555
_cell_length_c 9.521379
_cell_angle_alpha 90.000000
_cell_angle_beta 90.000000
_cell_angle_gamma 90.000000
_cell_volume 5068.844877
_symmetry_space_group_name_H-M "C M M A"
_symmetry_group_IT_number 67
_symmetry_cell_setting 'orthorhombic'
loop_
_space_group_symop_operation_xyz
x,y,z
-x,1/2-y,z
x,-y,-z
-x,1/2+y,-z
-x,-y,-z
x,1/2+y,-z
-x,y,z
x,1/2-y,z
1/2+x,1/2+y,z
1/2-x,-y,z
1/2+x,1/2-y,-z
1/2-x,y,-z
1/2-x,1/2-y,-z
1/2+x,y,-z
1/2-x,1/2+y,z
1/2+x,-y,z
loop_
_atom_site_type_symbol
_atom_site_label
_atom_site_fract_x
_atom_site_fract_y
_atom_site_fract_z
Si Si1 0.580014 0.462153 0.608714
Si Si2 0.829773 0.875797 0.542160
Si Si3 0.917663 0.120679 0.735962
Si Si4 0.199349 0.803951 0.785354
Si Si5 0.419894 0.525653 0.869495
Si Si6 0.646776 0.303919 0.088923
O O1 0.611320 0.500000 0.500000
O O2 0.500000 0.446264 0.559795
O O3 0.633271 0.418851 0.620115
O O4 0.576807 0.484566 0.759047
O O5 0.750000 0.890220 0.500000
O O6 0.874808 0.863648 0.402792
O O7 0.828297 0.832733 0.651319
O O8 0.883805 0.072936 0.805241
O O9 0.914164 0.162611 0.848466
O O10 0.000000 0.111487 0.694125
O O11 0.194721 0.750000 0.740076
O O12 0.279955 0.816967 0.830174
O O13 0.150666 0.813457 0.922254
O O14 0.500000 0.540456 0.918275
O O15 0.378977 0.500000 0.000000
O O16 0.626560 0.250000 0.116554
#
# Coordination Sequence:
#
# PCOD8280517 Si02
#       6
#    16  16  16  16  16  16
#     4  10  20  38  58  78 114 156 189 230 293 356
#     4  12  23  36  57  90 119 154 197 243 289 352
#     4  11  22  38  59  88 122 156 198 246 297 350
#     4   9  20  39  62  85 114 153 196 239 295 363
#     4   9  19  36  57  81 109 151 198 234 282 353
#     4   9  19  39  62  85 114 152 195 243 299 358
#
# _framework density 18.939226999999999
#
# number of rings (size 3 to 8) (size 9 to 14) (size 15 to 20)
#    0.000    2.000    3.333    1.500    2.333    1.667 
#    0.000    0.833    0.000    4.500    0.000    0.000 
#    0.000    0.000    0.000    0.000    0.000    0.000 
#
# Total GULP energy -594951.682666 kJ/mol
# GULP energy per Si atom -12394.826722 kJ/mol
# Density = 1.889612 g / cm^3
# Si number density = 18.939227 Si / 1000 Ang^3
#
#
#
# Elastic Constant Matrix: (Units=GPa)
#
#
# Indices 1 2 3 4 5 6 
#
# 1 62.0595 40.3921 32.8284 0.0000 0.0000 0.0000
# 2 40.3921 120.4273 67.1768 0.0000 0.0000 0.0000
# 3 32.8284 67.1768 124.9774 0.0000 0.0000 0.0000
# 4 0.0000 0.0000 0.0000 41.7266 0.0000 0.0000
# 5 0.0000 0.0000 0.0000 0.0000 47.6545 0.0000
# 6 0.0000 0.0000 0.0000 0.0000 0.0000 20.2458
#
#
#
# Elastic Compliance Matrix: (Units=1/GPa)
#
#
# Indices 1 2 3 4 5 6 
#
# 1 0.021142 -0.005703 -0.002488 0.000000 0.000000 0.000000
# 2 -0.005703 0.013398 -0.005704 0.000000 0.000000 0.000000
# 3 -0.002488 -0.005704 0.011721 0.000000 0.000000 0.000000
# 4 0.000000 0.000000 0.000000 0.023966 0.000000 0.000000
# 5 0.000000 0.000000 0.000000 0.000000 0.020984 0.000000
# 6 0.000000 0.000000 0.000000 0.000000 0.000000 0.049393
#
#
# Mechanical properties :
#
#
# Convention : Reuss Voigt Hill
#
# Bulk Modulus (GPa) = 54.13837 65.36207 59.75022
# Shear Modulus (GPa) = 28.64512 33.06318 30.85415
#
# Velocity S-wave (km/s) = 3.89327 4.18275 4.04061
# Velocity P-wave (km/s) = 6.98981 7.61010 7.30654
#
# Compressibility (1/GPa) = 0.01847119
#
# Stress axis : x y z
#
# Youngs Moduli (GPa) = 47.30009 74.63643 85.31923
#
# Poissons Ratio (x) = 0.42567 0.21226
# Poissons Ratio (y) = 0.26977 0.48663
# Poissons Ratio (z) = 0.11767 0.42570
#
# Static dielectric constant tensor:
#      x y z
#    x 3.309770 0.000000 0.000000 
#    y 0.000000 3.466520 0.000000 
#    z 0.000000 0.000000 3.570120 
# 
# 
# High freq. dielectric constant tensor:
#      x y z
#    x 1.701470 0.000000 0.000000 
#    y 0.000000 1.739140 0.000000 
#    z 0.000000 0.000000 1.749920 
# 
# From -- ./inp_files/11430.got.cif
#   From: 2010.03.12/outbox.cif.g09.slc.cpg/sg67_6_cif.got.tgz:11430.got - 2010.04.10 22:41:39.
