data_PCOD8280471
_publ_section_title
;
Structure prediction by ZEFSAII (Michael W. Deem and Ramdas Pophale) SiO2 
 PCOD8280471
Probable space group: C M M A
;
_chemical_formula_sum "Si O2"
_cell_formula_units_Z 96
_cell_length_a 14.922079
_cell_length_b 20.743582
_cell_length_c 14.226714
_cell_angle_alpha 90.000000
_cell_angle_beta 90.000000
_cell_angle_gamma 90.000000
_cell_volume 4403.699626
_symmetry_space_group_name_H-M "C M M A"
_symmetry_group_IT_number 67
_symmetry_cell_setting 'orthorhombic'
loop_
_space_group_symop_operation_xyz
x,y,z
-x,1/2-y,z
x,-y,-z
-x,1/2+y,-z
-x,-y,-z
x,1/2+y,-z
-x,y,z
x,1/2-y,z
1/2+x,1/2+y,z
1/2-x,-y,z
1/2+x,1/2-y,-z
1/2-x,y,-z
1/2-x,1/2-y,-z
1/2+x,y,-z
1/2-x,1/2+y,z
1/2+x,-y,z
loop_
_atom_site_type_symbol
_atom_site_label
_atom_site_fract_x
_atom_site_fract_y
_atom_site_fract_z
Si Si1 0.893637 0.600310 0.258760
Si Si2 0.649545 0.564924 0.538943
Si Si3 0.777001 0.175125 0.248672
Si Si4 0.399968 0.823160 0.414867
Si Si5 0.399316 0.556923 0.941037
Si Si6 0.342856 0.321691 0.949082
O O1 0.863481 0.559126 0.348964
O O2 0.829551 0.663129 0.257996
O O3 0.862664 0.561581 0.165407
O O4 0.000000 0.618411 0.258615
O O5 0.602516 0.500000 0.500000
O O6 0.750000 0.566856 0.500000
O O7 0.601467 0.630655 0.505772
O O8 0.793311 0.250000 0.245338
O O9 0.830842 0.147485 0.338580
O O10 0.823069 0.148127 0.153868
O O11 0.500000 0.823509 0.371919
O O12 0.373601 0.750000 0.445329
O O13 0.500000 0.533718 0.928905
O O14 0.348185 0.500000 0.000000
O O15 0.399756 0.625988 0.993575
O O16 0.389639 0.250000 0.946062
O O17 0.250000 0.312371 0.000000
#
# Coordination Sequence:
#
# PCOD8280471 Si02
#       6
#    16  16  16  16  16  16
#     4  11  23  41  64  92 126 168 216 263 320 383
#     4  11  24  43  67  95 126 168 213 262 323 383
#     4  10  21  39  63  94 130 166 213 267 314 377
#     4  10  22  41  65  93 127 168 212 260 318 379
#     4  10  23  42  62  92 130 167 211 263 317 376
#     4  10  20  37  60  88 123 164 207 252 312 375
#
# _framework density 21.799852999999999
#
# number of rings (size 3 to 8) (size 9 to 14) (size 15 to 20)
#    0.000    1.667    3.333    0.500    0.000    5.333 
#    0.000    5.000    0.000    0.000    0.000    0.000 
#    0.000    0.000    0.000    0.000    0.000    0.000 
#
# Total GULP energy -594692.179234 kJ/mol
# GULP energy per Si atom -12389.420401 kJ/mol
# Density = 2.175024 g / cm^3
# Si number density = 21.799853 Si / 1000 Ang^3
#
#
#
# Elastic Constant Matrix: (Units=GPa)
#
#
# Indices 1 2 3 4 5 6 
#
# 1 86.2794 18.8975 31.5258 0.0000 0.0000 0.0000
# 2 18.8975 110.2530 66.2069 0.0000 0.0000 0.0000
# 3 31.5258 66.2069 173.9443 0.0000 0.0000 0.0000
# 4 0.0000 0.0000 0.0000 40.9683 0.0000 0.0000
# 5 0.0000 0.0000 0.0000 0.0000 27.7892 0.0000
# 6 0.0000 0.0000 0.0000 0.0000 0.0000 9.8720
#
#
#
# Elastic Compliance Matrix: (Units=1/GPa)
#
#
# Indices 1 2 3 4 5 6 
#
# 1 0.012499 -0.001014 -0.001879 0.000000 0.000000 0.000000
# 2 -0.001014 0.011840 -0.004323 0.000000 0.000000 0.000000
# 3 -0.001879 -0.004323 0.007735 0.000000 0.000000 0.000000
# 4 0.000000 0.000000 0.000000 0.024409 0.000000 0.000000
# 5 0.000000 0.000000 0.000000 0.000000 0.035985 0.000000
# 6 0.000000 0.000000 0.000000 0.000000 0.000000 0.101297
#
#
# Mechanical properties :
#
#
# Convention : Reuss Voigt Hill
#
# Bulk Modulus (GPa) = 56.68368 67.08188 61.88278
# Shear Modulus (GPa) = 23.35608 32.64901 28.00255
#
# Velocity S-wave (km/s) = 3.27676 3.87417 3.58792
# Velocity P-wave (km/s) = 6.35409 7.13098 6.75371
#
# Compressibility (1/GPa) = 0.01764176
#
# Stress axis : x y z
#
# Youngs Moduli (GPa) = 80.00620 84.46265 129.28413
#
# Poissons Ratio (x) = 0.08562 0.24299
# Poissons Ratio (y) = 0.08110 0.55885
# Poissons Ratio (z) = 0.15037 0.36510
#
# Static dielectric constant tensor:
#      x y z
#    x 3.764460 0.000000 0.000000 
#    y 0.000000 4.146750 0.000000 
#    z 0.000000 0.000000 4.584370 
# 
# 
# High freq. dielectric constant tensor:
#      x y z
#    x 1.845080 0.000000 0.000000 
#    y 0.000000 1.844200 0.000000 
#    z 0.000000 0.000000 1.869920 
# 
# From -- ./inp_files/27209.got.cif
#   From: 2010.03.12/outbox.cif.g09.slc.cpg/sg67_14_cif.got.tgz:27209.got - 2010.04.10 22:41:39.
