data_PCOD8280586
_publ_section_title
;
Structure prediction by ZEFSAII (Michael W. Deem and Ramdas Pophale) SiO2 
 PCOD8280586
Probable space group: C M M A
;
_chemical_formula_sum "Si O2"
_cell_formula_units_Z 28
_cell_length_a 8.946517
_cell_length_b 18.933881
_cell_length_c 6.674433
_cell_angle_alpha 90.000000
_cell_angle_beta 90.000000
_cell_angle_gamma 90.000000
_cell_volume 1130.597479
_symmetry_space_group_name_H-M "C M M A"
_symmetry_group_IT_number 67
_symmetry_cell_setting 'orthorhombic'
loop_
_space_group_symop_operation_xyz
x,y,z
-x,1/2-y,z
x,-y,-z
-x,1/2+y,-z
-x,-y,-z
x,1/2+y,-z
-x,y,z
x,1/2-y,z
1/2+x,1/2+y,z
1/2-x,-y,z
1/2+x,1/2-y,-z
1/2-x,y,-z
1/2-x,1/2-y,-z
1/2+x,y,-z
1/2-x,1/2+y,z
1/2+x,-y,z
loop_
_atom_site_type_symbol
_atom_site_label
_atom_site_fract_x
_atom_site_fract_y
_atom_site_fract_z
Si Si1 0.250000 0.000000 0.500000
Si Si2 0.822171 0.250000 0.780773
Si Si3 0.666944 0.614418 0.204346
O O1 0.349553 0.049056 0.643827
O O2 0.757233 0.321916 0.683560
O O3 0.000000 0.250000 0.772110
O O4 0.750000 0.250000 0.000000
O O5 0.500000 0.639916 0.147558
O O6 0.750000 0.590999 0.000000
#
# Coordination Sequence:
#
# PCOD8280586 Si02
#       3
#     4   8  16
#     4  12  28  42  64  96 134 178 218 262 322 388
#     4  10  20  39  68  97 127 167 215 268 324 381
#     4  11  24  44  69  97 131 171 217 269 324 384
#
# _framework density 24.765666
#
# number of rings (size 3 to 8) (size 9 to 14) (size 15 to 20)
#    0.000    1.143    0.000    9.429    0.000   12.571 
#    0.000    0.000    0.000    0.000    0.000    0.000 
#    0.000    0.000    0.000    0.000    0.000    0.000 
#
# Total GULP energy -173488.864917 kJ/mol
# GULP energy per Si atom -12392.061780 kJ/mol
# Density = 2.470930 g / cm^3
# Si number density = 24.765666 Si / 1000 Ang^3
#
#
#
# Elastic Constant Matrix: (Units=GPa)
#
#
# Indices 1 2 3 4 5 6 
#
# 1 251.8340 68.7488 47.6514 0.0000 0.0000 0.0000
# 2 68.7488 185.5686 61.3211 0.0000 0.0000 0.0000
# 3 47.6514 61.3211 107.0263 0.0000 0.0000 0.0000
# 4 0.0000 0.0000 0.0000 -56.5331 0.0000 0.0000
# 5 0.0000 0.0000 0.0000 0.0000 14.4264 0.0000
# 6 0.0000 0.0000 0.0000 0.0000 0.0000 95.2638
#
#
#
# Elastic Compliance Matrix: (Units=1/GPa)
#
#
# Indices 1 2 3 4 5 6 
#
# 1 0.004562 -0.001257 -0.001311 0.000000 0.000000 0.000000
# 2 -0.001257 0.006994 -0.003447 0.000000 0.000000 0.000000
# 3 -0.001311 -0.003447 0.011902 0.000000 0.000000 0.000000
# 4 0.000000 0.000000 0.000000 -0.017689 0.000000 0.000000
# 5 0.000000 0.000000 0.000000 0.000000 0.069317 0.000000
# 6 0.000000 0.000000 0.000000 0.000000 0.000000 0.010497
#
#
# Mechanical properties :
#
#
# Convention : Reuss Voigt Hill
#
# Bulk Modulus (GPa) = 87.50871 99.98574 93.74722
# Shear Modulus (GPa) = 49.29804 35.07859 42.18832
#
# Velocity S-wave (km/s) = 4.46643 3.76762 4.13183
# Velocity P-wave (km/s) = 7.87465 7.70629 7.79093
#
# Compressibility (1/GPa) = 0.01142743
#
# Stress axis : x y z
#
# Youngs Moduli (GPa) = 219.19898 142.98556 84.01641
#
# Poissons Ratio (x) = 0.17972 0.11015
# Poissons Ratio (y) = 0.27551 0.28964
# Poissons Ratio (z) = 0.28737 0.49294
#
# Static dielectric constant tensor:
#      x y z
#    x 4.156910 0.000000 0.000000 
#    y 0.000000 5.670760 0.000000 
#    z 0.000000 0.000000 4.248900 
# 
# 
# High freq. dielectric constant tensor:
#      x y z
#    x 1.981500 0.000000 0.000000 
#    y 0.000000 2.002600 0.000000 
#    z 0.000000 0.000000 1.983730 
# 
# From -- ./inp_files/5207.got.cif
#   From: 2010.03.12/outbox.cif.g09.slc.cpg/sg67_3_cif.got.tgz:5207.got - 2010.04.10 22:41:39.
