data_PCOD8280582
_publ_section_title
;
Structure prediction by ZEFSAII (Michael W. Deem and Ramdas Pophale) SiO2 
 PCOD8280582
Probable space group: C M M A
;
_chemical_formula_sum "Si O2"
_cell_formula_units_Z 100
_cell_length_a 20.771137
_cell_length_b 28.536595
_cell_length_c 7.470186
_cell_angle_alpha 90.000000
_cell_angle_beta 90.000000
_cell_angle_gamma 90.000000
_cell_volume 4427.859555
_symmetry_space_group_name_H-M "C M M A"
_symmetry_group_IT_number 67
_symmetry_cell_setting 'orthorhombic'
loop_
_space_group_symop_operation_xyz
x,y,z
-x,1/2-y,z
x,-y,-z
-x,1/2+y,-z
-x,-y,-z
x,1/2+y,-z
-x,y,z
x,1/2-y,z
1/2+x,1/2+y,z
1/2-x,-y,z
1/2+x,1/2-y,-z
1/2-x,y,-z
1/2-x,1/2-y,-z
1/2+x,y,-z
1/2-x,1/2+y,z
1/2+x,-y,z
loop_
_atom_site_type_symbol
_atom_site_label
_atom_site_fract_x
_atom_site_fract_y
_atom_site_fract_z
Si Si1 0.575116 0.040509 0.248628
Si Si2 0.130107 0.952205 0.853353
Si Si3 0.124072 0.862872 0.308217
Si Si4 0.750000 0.000000 0.000000
Si Si5 0.071538 0.638034 0.919773
Si Si6 0.381917 0.302256 0.633946
Si Si7 0.758122 0.803140 0.209701
O O1 0.500000 0.047137 0.294000
O O2 0.617809 0.080933 0.346312
O O3 0.599094 0.987345 0.297044
O O4 0.589370 0.044386 0.037695
O O5 0.121114 0.897239 0.811621
O O6 0.204966 0.966230 0.879641
O O7 0.093209 0.835846 0.475235
O O8 0.196340 0.843662 0.287868
O O9 0.086095 0.851846 0.126318
O O10 0.078011 0.686576 0.813689
O O11 0.000000 0.617313 0.906277
O O12 0.398350 0.250000 0.574141
O O13 0.306798 0.307945 0.678381
O O14 0.786102 0.750000 0.235952
O O15 0.750000 0.813251 0.000000
#
# Coordination Sequence:
#
# PCOD8280582 Si02
#       7
#    16  16  16   4  16  16  16
#     4   9  17  32  56  85 119 162 206 245 298 364
#     4   9  17  33  56  87 124 161 203 258 306 362
#     4  11  21  37  63  93 123 159 203 259 319 383
#     4   8  16  28  54  96 124 152 200 248 312 376
#     4  11  24  41  63  90 123 171 222 258 307 376
#     4  11  25  42  62  91 126 162 208 270 328 379
#     4  10  20  39  65  90 119 160 208 260 319 383
#
# _framework density 22.584275000000002
#
# number of rings (size 3 to 8) (size 9 to 14) (size 15 to 20)
#    0.000    2.080    1.600    4.320    0.000    7.360 
#    1.440    0.800    0.000    6.240    0.000   12.320 
#    0.000    0.000    0.000    0.000    0.000    0.000 
#
# Total GULP energy -619494.371157 kJ/mol
# GULP energy per Si atom -12389.887423 kJ/mol
# Density = 2.253287 g / cm^3
# Si number density = 22.584275 Si / 1000 Ang^3
#
#
#
# Elastic Constant Matrix: (Units=GPa)
#
#
# Indices 1 2 3 4 5 6 
#
# 1 113.9400 46.0188 14.2055 0.0000 0.0000 0.0000
# 2 46.0188 132.2773 50.5143 0.0000 0.0000 0.0000
# 3 14.2055 50.5143 65.9335 0.0000 0.0000 0.0000
# 4 0.0000 0.0000 0.0000 35.2869 0.0000 0.0000
# 5 0.0000 0.0000 0.0000 0.0000 10.0699 0.0000
# 6 0.0000 0.0000 0.0000 0.0000 0.0000 26.8986
#
#
#
# Elastic Compliance Matrix: (Units=1/GPa)
#
#
# Indices 1 2 3 4 5 6 
#
# 1 0.010237 -0.003844 0.000739 0.000000 0.000000 0.000000
# 2 -0.003844 0.012130 -0.008465 0.000000 0.000000 0.000000
# 3 0.000739 -0.008465 0.021493 0.000000 0.000000 0.000000
# 4 0.000000 0.000000 0.000000 0.028339 0.000000 0.000000
# 5 0.000000 0.000000 0.000000 0.000000 0.099306 0.000000
# 6 0.000000 0.000000 0.000000 0.000000 0.000000 0.037177
#
#
# Mechanical properties :
#
#
# Convention : Reuss Voigt Hill
#
# Bulk Modulus (GPa) = 48.26103 59.29200 53.77652
# Shear Modulus (GPa) = 20.94449 27.87855 24.41152
#
# Velocity S-wave (km/s) = 3.04862 3.51725 3.29128
# Velocity P-wave (km/s) = 5.81445 6.54258 6.18923
#
# Compressibility (1/GPa) = 0.02072065
#
# Stress axis : x y z
#
# Youngs Moduli (GPa) = 97.68695 82.44258 46.52716
#
# Poissons Ratio (x) = 0.31688 -0.03439
# Poissons Ratio (y) = 0.37547 0.39385
# Poissons Ratio (z) = -0.07221 0.69787
#
# Static dielectric constant tensor:
#      x y z
#    x 3.873400 0.000000 0.000000 
#    y 0.000000 5.312470 0.000000 
#    z 0.000000 0.000000 3.865680 
# 
# 
# High freq. dielectric constant tensor:
#      x y z
#    x 1.872790 0.000000 0.000000 
#    y 0.000000 1.905570 0.000000 
#    z 0.000000 0.000000 1.869390 
# 
# From -- ./inp_files/11702.got.cif
#   From: 2010.03.12/outbox.cif.g09.slc.cpg/sg67_6_cif.got.tgz:11702.got - 2010.04.10 22:41:39.
