data_PCOD8280530
_publ_section_title
;
Structure prediction by ZEFSAII (Michael W. Deem and Ramdas Pophale) SiO2 
 PCOD8280530
Probable space group: C M M A
;
_chemical_formula_sum "Si O2"
_cell_formula_units_Z 60
_cell_length_a 13.719303
_cell_length_b 19.449461
_cell_length_c 10.652430
_cell_angle_alpha 90.000000
_cell_angle_beta 90.000000
_cell_angle_gamma 90.000000
_cell_volume 2842.420372
_symmetry_space_group_name_H-M "C M M A"
_symmetry_group_IT_number 67
_symmetry_cell_setting 'orthorhombic'
loop_
_space_group_symop_operation_xyz
x,y,z
-x,1/2-y,z
x,-y,-z
-x,1/2+y,-z
-x,-y,-z
x,1/2+y,-z
-x,y,z
x,1/2-y,z
1/2+x,1/2+y,z
1/2-x,-y,z
1/2+x,1/2-y,-z
1/2-x,y,-z
1/2-x,1/2-y,-z
1/2+x,y,-z
1/2-x,1/2+y,z
1/2+x,-y,z
loop_
_atom_site_type_symbol
_atom_site_label
_atom_site_fract_x
_atom_site_fract_y
_atom_site_fract_z
Si Si1 0.211478 0.577424 0.628282
Si Si2 0.000000 0.518530 0.139280
Si Si3 0.860114 0.250000 0.969788
Si Si4 0.500000 0.250000 0.804160
Si Si5 0.315532 0.610866 0.874226
Si Si6 0.500000 0.603619 0.316592
O O1 0.250000 0.500000 0.639238
O O2 0.250000 0.612322 0.500000
O O3 0.242898 0.618071 0.755112
O O4 0.095731 0.582474 0.606575
O O5 0.897478 0.556118 0.167580
O O6 0.000000 0.442894 0.194415
O O7 0.000000 0.500000 0.000000
O O8 0.879985 0.180371 0.892164
O O9 0.750000 0.250000 0.000000
O O10 0.908301 0.250000 0.104813
O O11 0.500000 0.315995 0.715500
O O12 0.250000 0.592935 0.000000
#
# Coordination Sequence:
#
# PCOD8280530 Si02
#       6
#    16   8   8   4  16   8
#     4  11  25  44  68 100 135 178 224 284 344 397
#     4  12  22  34  62  95 126 168 220 285 324 391
#     4  10  20  38  60  91 138 179 213 263 333 399
#     4  12  24  44  66 104 142 184 214 276 352 406
#     4  11  23  39  63  97 133 175 228 277 338 397
#     4  12  24  44  68  96 133 180 225 269 342 406
#
# _framework density 21.10877
#
# number of rings (size 3 to 8) (size 9 to 14) (size 15 to 20)
#    0.000    0.800    2.667    7.200    0.000    3.200 
#    0.000    2.667    0.000    0.000    0.000    0.000 
#    0.000    0.000    0.000    0.000    0.000    0.000 
#
# Total GULP energy -371646.688987 kJ/mol
# GULP energy per Si atom -12388.222966 kJ/mol
# Density = 2.106073 g / cm^3
# Si number density = 21.108770 Si / 1000 Ang^3
#
#
#
# Elastic Constant Matrix: (Units=GPa)
#
#
# Indices 1 2 3 4 5 6 
#
# 1 164.1440 29.0216 48.6844 0.0000 0.0000 0.0000
# 2 29.0216 118.2071 14.1698 0.0000 0.0000 0.0000
# 3 48.6844 14.1698 134.5772 0.0000 0.0000 0.0000
# 4 0.0000 0.0000 0.0000 11.8308 0.0000 0.0000
# 5 0.0000 0.0000 0.0000 0.0000 28.1544 0.0000
# 6 0.0000 0.0000 0.0000 0.0000 0.0000 21.7627
#
#
#
# Elastic Compliance Matrix: (Units=1/GPa)
#
#
# Indices 1 2 3 4 5 6 
#
# 1 0.007060 -0.001445 -0.002402 0.000000 0.000000 0.000000
# 2 -0.001445 0.008864 -0.000410 0.000000 0.000000 0.000000
# 3 -0.002402 -0.000410 0.008343 0.000000 0.000000 0.000000
# 4 0.000000 0.000000 0.000000 0.084525 0.000000 0.000000
# 5 0.000000 0.000000 0.000000 0.000000 0.035518 0.000000
# 6 0.000000 0.000000 0.000000 0.000000 0.000000 0.045950
#
#
# Mechanical properties :
#
#
# Convention : Reuss Voigt Hill
#
# Bulk Modulus (GPa) = 63.48667 66.74219 65.11443
# Shear Modulus (GPa) = 24.50668 34.01977 29.26323
#
# Velocity S-wave (km/s) = 3.41100 4.01888 3.72735
# Velocity P-wave (km/s) = 6.75681 7.29535 7.03124
#
# Compressibility (1/GPa) = 0.01575134
#
# Stress axis : x y z
#
# Youngs Moduli (GPa) = 141.63981 112.81840 119.86409
#
# Poissons Ratio (x) = 0.16307 0.28790
# Poissons Ratio (y) = 0.20473 0.04919
# Poissons Ratio (z) = 0.34020 0.04630
#
# Static dielectric constant tensor:
#      x y z
#    x 4.239830 0.000000 0.000000 
#    y 0.000000 3.054130 0.000000 
#    z 0.000000 0.000000 3.983700 
# 
# 
# High freq. dielectric constant tensor:
#      x y z
#    x 1.852170 0.000000 0.000000 
#    y 0.000000 1.821080 0.000000 
#    z 0.000000 0.000000 1.813350 
# 
# From -- ./inp_files/16390.got.cif
#   From: 2010.03.12/outbox.cif.g09.slc.cpg/sg67_9_cif.got.tgz:16390.got - 2010.04.10 22:41:39.
