data_PCOD8280832
_publ_section_title
;
Structure prediction by ZEFSAII (Michael W. Deem and Ramdas Pophale) SiO2 
 PCOD8280832
Probable space group: C M M A
;
_chemical_formula_sum "Si O2"
_cell_formula_units_Z 96
_cell_length_a 15.013036
_cell_length_b 14.920157
_cell_length_c 21.072921
_cell_angle_alpha 90.000000
_cell_angle_beta 90.000000
_cell_angle_gamma 90.000000
_cell_volume 4720.268012
_symmetry_space_group_name_H-M "C M M A"
_symmetry_group_IT_number 67
_symmetry_cell_setting 'orthorhombic'
loop_
_space_group_symop_operation_xyz
x,y,z
-x,1/2-y,z
x,-y,-z
-x,1/2+y,-z
-x,-y,-z
x,1/2+y,-z
-x,y,z
x,1/2-y,z
1/2+x,1/2+y,z
1/2-x,-y,z
1/2+x,1/2-y,-z
1/2-x,y,-z
1/2-x,1/2-y,-z
1/2+x,y,-z
1/2-x,1/2+y,z
1/2+x,-y,z
loop_
_atom_site_type_symbol
_atom_site_label
_atom_site_fract_x
_atom_site_fract_y
_atom_site_fract_z
Si Si1 0.398989 0.350496 0.832788
Si Si2 0.605683 0.648205 0.500000
Si Si3 0.606023 0.000000 0.403206
Si Si4 0.250000 0.394250 0.071596
Si Si5 0.105309 1.000000 0.262140
Si Si6 0.398989 0.649504 0.832788
O O1 0.500000 0.377866 0.851673
O O2 0.395425 0.250000 0.806163
O O3 0.338802 0.358311 0.895004
O O4 0.361817 0.413032 0.776517
O O5 0.500000 0.655222 0.500000
O O6 0.645913 0.750000 0.500000
O O7 0.638334 0.590946 0.561278
O O8 0.638334 0.590946 0.438722
O O9 0.500000 1.000000 0.402081
O O10 0.647595 0.000000 0.332445
O O11 0.250000 0.500000 0.073390
O O12 0.338802 0.358311 0.104996
O O13 0.250000 0.357383 0.000000
O O14 0.138183 0.913032 0.223483
O O15 0.000000 1.000000 0.269102
O O16 0.500000 0.622134 0.851673
O O17 0.395425 0.750000 0.806163
#
# Coordination Sequence:
#
# PCOD8280832 Si02
#       6
#    16  16  16  16  16  16
#     4  10  21  37  57  81 110 144 182 227 276 325
#     4   8  13  21  34  57  91 130 173 218 262 310
#     4   8  14  23  37  59  91 133 175 217 264 312
#     4  11  23  39  61  84 109 145 182 222 275 329
#     4   9  17  31  48  70 103 140 182 226 270 324
#     4  10  21  37  57  81 110 144 182 227 276 325
#
# _framework density 20.337828999999999
#
# number of rings (size 3 to 8) (size 9 to 14) (size 15 to 20)
#    0.000    2.667    1.667    1.500    0.000    3.333 
#    0.000   10.000    0.000    0.000    0.000    0.000 
#    0.000   10.667    0.000   20.000    0.000   51.333 
#
# Total GULP energy -594969.002749 kJ/mol
# GULP energy per Si atom -12395.187557 kJ/mol
# Density = 2.029154 g / cm^3
# Si number density = 20.337829 Si / 1000 Ang^3
#
#
#
# Elastic Constant Matrix: (Units=GPa)
#
#
# Indices 1 2 3 4 5 6 
#
# 1 65.4059 21.4993 42.1751 0.0000 0.0000 0.0000
# 2 21.4993 170.4654 82.1184 0.0000 0.0000 0.0000
# 3 42.1751 82.1184 194.0161 0.0000 0.0000 0.0000
# 4 0.0000 0.0000 0.0000 5.7436 0.0000 0.0000
# 5 0.0000 0.0000 0.0000 0.0000 -5.7499 0.0000
# 6 0.0000 0.0000 0.0000 0.0000 0.0000 12.3012
#
#
#
# Elastic Compliance Matrix: (Units=1/GPa)
#
#
# Indices 1 2 3 4 5 6 
#
# 1 0.017813 -0.000479 -0.003669 0.000000 0.000000 0.000000
# 2 -0.000479 0.007382 -0.003020 0.000000 0.000000 0.000000
# 3 -0.003669 -0.003020 0.007230 0.000000 0.000000 0.000000
# 4 0.000000 0.000000 0.000000 0.174108 0.000000 0.000000
# 5 0.000000 0.000000 0.000000 0.000000 -0.173915 0.000000
# 6 0.000000 0.000000 0.000000 0.000000 0.000000 0.081293
#
#
# Mechanical properties :
#
#
# Convention : Reuss Voigt Hill
#
# Bulk Modulus (GPa) = 55.28692 80.16366 67.72529
# Shear Modulus (GPa) = 37.23675 21.39860 29.31767
#
# Velocity S-wave (km/s) = 4.28356 3.24722 3.80087
# Velocity P-wave (km/s) = 7.19086 7.31853 7.25497
#
# Compressibility (1/GPa) = 0.01808746
#
# Stress axis : x y z
#
# Youngs Moduli (GPa) = 56.13976 135.47162 138.30892
#
# Poissons Ratio (x) = 0.06487 0.50751
# Poissons Ratio (y) = 0.02688 0.41772
# Poissons Ratio (z) = 0.20600 0.40915
#
# Static dielectric constant tensor:
#      x y z
#    x 3.284040 0.000000 0.000000 
#    y 0.000000 3.972070 0.000000 
#    z 0.000000 0.000000 3.933740 
# 
# 
# High freq. dielectric constant tensor:
#      x y z
#    x 1.772750 0.000000 0.000000 
#    y 0.000000 1.806510 0.000000 
#    z 0.000000 0.000000 1.783230 
# 
# From -- ./inp_files/38433.got.cif
#   From: 2010.03.12/outbox.cif.g09.slc.cpg/sg67_20_cif.got.tgz:38433.got - 2010.04.10 22:41:39.
