data_PCOD8280006
_publ_section_title
;
Structure prediction by ZEFSAII (Michael W. Deem and Ramdas Pophale) SiO2 
 PCOD8280006
Probable space group: C M M A
;
_chemical_formula_sum "Si O2"
_cell_formula_units_Z 104
_cell_length_a 25.075426
_cell_length_b 19.900698
_cell_length_c 10.747148
_cell_angle_alpha 90.000000
_cell_angle_beta 90.000000
_cell_angle_gamma 90.000000
_cell_volume 5363.025460
_symmetry_space_group_name_H-M "C M M A"
_symmetry_group_IT_number 67
_symmetry_cell_setting 'orthorhombic'
loop_
_space_group_symop_operation_xyz
x,y,z
-x,1/2-y,z
x,-y,-z
-x,1/2+y,-z
-x,-y,-z
x,1/2+y,-z
-x,y,z
x,1/2-y,z
1/2+x,1/2+y,z
1/2-x,-y,z
1/2+x,1/2-y,-z
1/2-x,y,-z
1/2-x,1/2-y,-z
1/2+x,y,-z
1/2-x,1/2+y,z
1/2+x,-y,z
loop_
_atom_site_type_symbol
_atom_site_label
_atom_site_fract_x
_atom_site_fract_y
_atom_site_fract_z
Si Si1 0.148185 0.330764 0.689847
Si Si2 0.374097 0.000000 0.000000
Si Si3 0.938078 0.614341 0.133049
Si Si4 0.811579 0.576388 0.521986
Si Si5 0.256201 0.672572 0.865014
Si Si6 0.342547 0.099321 0.796039
Si Si7 0.059271 0.825911 0.873650
O O1 0.150208 0.250000 0.666950
O O2 0.092058 0.353413 0.748797
O O3 0.154488 0.370223 0.559216
O O4 0.195423 0.357125 0.782317
O O5 0.412036 0.955512 0.911217
O O6 0.336769 0.044025 0.907067
O O7 0.000000 0.602553 0.168939
O O8 0.931848 0.667719 0.021521
O O9 0.824581 0.500000 0.500000
O O10 0.750000 0.595407 0.500000
O O11 0.829924 0.571750 0.662898
O O12 0.269402 0.750000 0.880643
O O13 0.198672 0.661077 0.805968
O O14 0.250000 0.637641 0.000000
O O15 0.402406 0.126509 0.796084
O O16 0.070382 0.750000 0.834749
O O17 0.000000 0.848826 0.837489
#
# Coordination Sequence:
#
# PCOD8280006 Si02
#       7
#    16   8  16  16  16  16  16
#     4  11  23  39  60  90 122 159 214 262 308 381
#     4  10  21  36  61  92 120 156 210 260 310 382
#     4  10  20  37  60  88 123 161 200 254 317 371
#     4  11  24  43  61  81 119 165 208 250 308 375
#     4  10  20  34  55  85 119 149 187 248 312 365
#     4  11  21  38  59  85 114 157 194 248 305 363
#     4   9  18  33  57  88 118 149 189 241 303 364
#
# _framework density 19.392039
#
# number of rings (size 3 to 8) (size 9 to 14) (size 15 to 20)
#    0.000    1.692    1.538    3.923    0.000    4.308 
#    0.000    1.538    0.000    1.846    0.000    0.000 
#    0.000    0.000    0.000    0.000    0.000    0.000 
#
# Total GULP energy -644364.746432 kJ/mol
# GULP energy per Si atom -12391.629739 kJ/mol
# Density = 1.934790 g / cm^3
# Si number density = 19.392039 Si / 1000 Ang^3
#
#
#
# Elastic Constant Matrix: (Units=GPa)
#
#
# Indices 1 2 3 4 5 6 
#
# 1 95.2882 42.1412 43.3583 0.0000 0.0000 0.0000
# 2 42.1412 76.0036 36.1076 0.0000 0.0000 0.0000
# 3 43.3583 36.1076 104.1012 0.0000 0.0000 0.0000
# 4 0.0000 0.0000 0.0000 36.0145 0.0000 0.0000
# 5 0.0000 0.0000 0.0000 0.0000 22.7682 0.0000
# 6 0.0000 0.0000 0.0000 0.0000 0.0000 17.5492
#
#
#
# Elastic Compliance Matrix: (Units=1/GPa)
#
#
# Indices 1 2 3 4 5 6 
#
# 1 0.015230 -0.006503 -0.004088 0.000000 0.000000 0.000000
# 2 -0.006503 0.018529 -0.003719 0.000000 0.000000 0.000000
# 3 -0.004088 -0.003719 0.012599 0.000000 0.000000 0.000000
# 4 0.000000 0.000000 0.000000 0.027767 0.000000 0.000000
# 5 0.000000 0.000000 0.000000 0.000000 0.043921 0.000000
# 6 0.000000 0.000000 0.000000 0.000000 0.000000 0.056983
#
#
# Mechanical properties :
#
#
# Convention : Reuss Voigt Hill
#
# Bulk Modulus (GPa) = 56.37034 57.62301 56.99667
# Shear Modulus (GPa) = 23.85951 25.51878 24.68914
#
# Velocity S-wave (km/s) = 3.51148 3.63153 3.57201
# Velocity P-wave (km/s) = 6.75074 6.88210 6.81674
#
# Compressibility (1/GPa) = 0.01773983
#
# Stress axis : x y z
#
# Youngs Moduli (GPa) = 65.65820 53.96853 79.37439
#
# Poissons Ratio (x) = 0.35093 0.32449
# Poissons Ratio (y) = 0.42694 0.29516
# Poissons Ratio (z) = 0.26841 0.20069
#
# Static dielectric constant tensor:
#      x y z
#    x 4.018900 0.000000 0.000000 
#    y 0.000000 3.511620 0.000000 
#    z 0.000000 0.000000 3.465860 
# 
# 
# High freq. dielectric constant tensor:
#      x y z
#    x 1.754570 0.000000 0.000000 
#    y 0.000000 1.759250 0.000000 
#    z 0.000000 0.000000 1.740890 
# 
# From -- ./inp_files/13821.got.cif
#   From: 2010.03.12/outbox.cif.g09.slc.cpg/sg67_7_cif.got.tgz:13821.got - 2010.04.10 22:41:39.
