data_PCOD8280255
_publ_section_title
;
Structure prediction by ZEFSAII (Michael W. Deem and Ramdas Pophale) SiO2 
 PCOD8280255
Probable space group: C M M A
;
_chemical_formula_sum "Si O2"
_cell_formula_units_Z 112
_cell_length_a 14.303399
_cell_length_b 21.251774
_cell_length_c 17.182893
_cell_angle_alpha 90.000000
_cell_angle_beta 90.000000
_cell_angle_gamma 90.000000
_cell_volume 5223.128712
_symmetry_space_group_name_H-M "C M M A"
_symmetry_group_IT_number 67
_symmetry_cell_setting 'orthorhombic'
loop_
_space_group_symop_operation_xyz
x,y,z
-x,1/2-y,z
x,-y,-z
-x,1/2+y,-z
-x,-y,-z
x,1/2+y,-z
-x,y,z
x,1/2-y,z
1/2+x,1/2+y,z
1/2-x,-y,z
1/2+x,1/2-y,-z
1/2-x,y,-z
1/2-x,1/2-y,-z
1/2+x,y,-z
1/2-x,1/2+y,z
1/2+x,-y,z
loop_
_atom_site_type_symbol
_atom_site_label
_atom_site_fract_x
_atom_site_fract_y
_atom_site_fract_z
Si Si1 0.108408 0.319366 0.916862
Si Si2 0.890114 0.932071 0.976000
Si Si3 0.152758 0.055838 0.544600
Si Si4 0.297075 0.854723 0.764359
Si Si5 0.604159 0.818338 0.609134
Si Si6 0.606791 0.528749 0.714203
Si Si7 0.605163 0.100697 0.800840
O O1 0.120394 0.250000 0.956567
O O2 0.161686 0.314959 0.834987
O O3 0.000000 0.333274 0.900329
O O4 0.151057 0.374608 0.971786
O O5 0.865054 0.919337 0.887035
O O6 0.000000 0.934258 0.988811
O O7 0.846814 0.000000 0.000000
O O8 0.250000 0.060779 0.500000
O O9 0.110265 0.126409 0.544011
O O10 0.162423 0.032920 0.633232
O O11 0.094014 0.000000 0.500000
O O12 0.325067 0.827259 0.680650
O O13 0.338495 0.925546 0.773751
O O14 0.183712 0.851684 0.769178
O O15 0.500000 0.819093 0.644044
O O16 0.625210 0.750000 0.570191
O O17 0.500000 0.552525 0.702442
O O18 0.607770 0.459071 0.745377
O O19 0.500000 0.130473 0.799423
#
# Coordination Sequence:
#
# PCOD8280255 Si02
#       7
#    16  16  16  16  16  16  16
#     4  10  20  35  58  89 121 154 199 258 318 368
#     4   9  18  35  57  83 119 161 204 254 312 369
#     4  10  22  35  61  94 129 158 193 239 299 366
#     4  11  20  33  60  86 120 161 207 260 309 360
#     4  10  22  41  65  93 126 165 208 253 307 368
#     4  10  21  37  59  89 123 160 203 253 305 359
#     4  10  22  37  55  82 119 165 212 258 307 367
#
# _framework density 21.443086999999998
#
# number of rings (size 3 to 8) (size 9 to 14) (size 15 to 20)
#    0.000    2.000    0.000    4.286    8.000    5.429 
#    0.000    2.857    0.000    3.429    0.000    0.000 
#    0.000    0.000    0.000    0.000    0.000    0.000 
#
# Total GULP energy -693874.632460 kJ/mol
# GULP energy per Si atom -12390.618437 kJ/mol
# Density = 2.139428 g / cm^3
# Si number density = 21.443087 Si / 1000 Ang^3
#
#
#
# Elastic Constant Matrix: (Units=GPa)
#
#
# Indices 1 2 3 4 5 6 
#
# 1 118.5736 32.0509 35.6609 0.0000 0.0000 0.0000
# 2 32.0509 164.6234 52.7896 0.0000 0.0000 0.0000
# 3 35.6609 52.7896 91.0463 0.0000 0.0000 0.0000
# 4 0.0000 0.0000 0.0000 30.8364 0.0000 0.0000
# 5 0.0000 0.0000 0.0000 0.0000 29.9595 0.0000
# 6 0.0000 0.0000 0.0000 0.0000 0.0000 14.9274
#
#
#
# Elastic Compliance Matrix: (Units=1/GPa)
#
#
# Indices 1 2 3 4 5 6 
#
# 1 0.009649 -0.000819 -0.003304 0.000000 0.000000 0.000000
# 2 -0.000819 0.007531 -0.004046 0.000000 0.000000 0.000000
# 3 -0.003304 -0.004046 0.014624 0.000000 0.000000 0.000000
# 4 0.000000 0.000000 0.000000 0.032429 0.000000 0.000000
# 5 0.000000 0.000000 0.000000 0.000000 0.033378 0.000000
# 6 0.000000 0.000000 0.000000 0.000000 0.000000 0.066991
#
#
# Mechanical properties :
#
#
# Convention : Reuss Voigt Hill
#
# Bulk Modulus (GPa) = 64.66190 68.36067 66.51129
# Shear Modulus (GPa) = 26.86789 32.06078 29.46434
#
# Velocity S-wave (km/s) = 3.54359 3.87092 3.71087
# Velocity P-wave (km/s) = 6.85298 7.20611 7.03176
#
# Compressibility (1/GPa) = 0.01546506
#
# Stress axis : x y z
#
# Youngs Moduli (GPa) = 103.64059 132.77862 68.38269
#
# Poissons Ratio (x) = 0.10873 0.22596
# Poissons Ratio (y) = 0.08487 0.27668
# Poissons Ratio (z) = 0.34247 0.53722
#
# Static dielectric constant tensor:
#      x y z
#    x 3.938530 0.000000 0.000000 
#    y 0.000000 4.334010 0.000000 
#    z 0.000000 0.000000 3.669650 
# 
# 
# High freq. dielectric constant tensor:
#      x y z
#    x 1.836080 0.000000 0.000000 
#    y 0.000000 1.841080 0.000000 
#    z 0.000000 0.000000 1.822320 
# 
# From -- ./inp_files/27498.got.cif
#   From: 2010.03.12/outbox.cif.g09.slc.cpg/sg67_14_cif.got.tgz:27498.got - 2010.04.10 22:41:39.
