data_PCOD8280602
_publ_section_title
;
Structure prediction by ZEFSAII (Michael W. Deem and Ramdas Pophale) SiO2 
 PCOD8280602
Probable space group: C M M A
;
_chemical_formula_sum "Si O2"
_cell_formula_units_Z 88
_cell_length_a 10.145991
_cell_length_b 32.282478
_cell_length_c 16.335008
_cell_angle_alpha 90.000000
_cell_angle_beta 90.000000
_cell_angle_gamma 90.000000
_cell_volume 5350.331460
_symmetry_space_group_name_H-M "C M M A"
_symmetry_group_IT_number 67
_symmetry_cell_setting 'orthorhombic'
loop_
_space_group_symop_operation_xyz
x,y,z
-x,1/2-y,z
x,-y,-z
-x,1/2+y,-z
-x,-y,-z
x,1/2+y,-z
-x,y,z
x,1/2-y,z
1/2+x,1/2+y,z
1/2-x,-y,z
1/2+x,1/2-y,-z
1/2-x,y,-z
1/2-x,1/2-y,-z
1/2+x,y,-z
1/2-x,1/2+y,z
1/2+x,-y,z
loop_
_atom_site_type_symbol
_atom_site_label
_atom_site_fract_x
_atom_site_fract_y
_atom_site_fract_z
Si Si1 0.652168 0.202520 0.926587
Si Si2 0.151398 0.628863 0.816252
Si Si3 0.750000 0.500000 0.802986
Si Si4 0.235522 0.571766 0.310868
Si Si5 0.500000 0.555923 0.580817
Si Si6 0.143914 0.944583 0.932763
Si Si7 0.500000 0.457880 0.604242
O O1 0.500000 0.194534 0.953844
O O2 0.674040 0.250000 0.900725
O O3 0.686806 0.175217 0.846172
O O4 0.750000 0.190214 0.000000
O O5 0.242667 0.614411 0.740105
O O6 0.177046 0.600127 0.895261
O O7 0.000000 0.625551 0.787539
O O8 0.819467 0.464525 0.748351
O O9 0.859444 0.521824 0.859700
O O10 0.128497 0.578493 0.381749
O O11 0.372487 0.556437 0.347426
O O12 0.500000 0.507173 0.597383
O O13 0.500000 0.563940 0.484206
O O14 0.000000 0.944522 0.974492
O O15 0.250000 0.957096 0.000000
#
# Coordination Sequence:
#
# PCOD8280602 Si02
#       7
#    16  16   8  16   8  16   8
#     4   9  17  31  52  76 102 131 165 202 243 292
#     4   9  18  33  51  67  96 131 158 197 242 290
#     4  10  21  30  47  60  86 124 158 194 237 278
#     4  11  20  34  50  69  98 126 160 197 245 288
#     4  11  22  32  52  76  95 122 167 205 236 299
#     4  10  21  34  45  61  85 121 163 201 237 274
#     4  11  20  36  52  70  97 130 159 199 250 293
#
# _framework density 16.447579000000001
#
# number of rings (size 3 to 8) (size 9 to 14) (size 15 to 20)
#    0.000    2.000    2.727    1.364    2.545    2.909 
#    6.545    0.000    0.000    0.000    0.000    0.000 
#    0.000    4.364    0.000    0.000    0.000    0.000 
#
# Total GULP energy -545467.631249 kJ/mol
# GULP energy per Si atom -12396.991619 kJ/mol
# Density = 1.641014 g / cm^3
# Si number density = 16.447579 Si / 1000 Ang^3
#
#
#
# Elastic Constant Matrix: (Units=GPa)
#
#
# Indices 1 2 3 4 5 6 
#
# 1 86.2017 24.4087 41.0629 0.0000 0.0000 0.0000
# 2 24.4087 76.3614 37.6877 0.0000 0.0000 0.0000
# 3 41.0629 37.6877 86.1880 0.0000 0.0000 0.0000
# 4 0.0000 0.0000 0.0000 23.4494 0.0000 0.0000
# 5 0.0000 0.0000 0.0000 0.0000 9.4961 0.0000
# 6 0.0000 0.0000 0.0000 0.0000 0.0000 16.3328
#
#
#
# Elastic Compliance Matrix: (Units=1/GPa)
#
#
# Indices 1 2 3 4 5 6 
#
# 1 0.015165 -0.001634 -0.006510 0.000000 0.000000 0.000000
# 2 -0.001634 0.016876 -0.006601 0.000000 0.000000 0.000000
# 3 -0.006510 -0.006601 0.017591 0.000000 0.000000 0.000000
# 4 0.000000 0.000000 0.000000 0.042645 0.000000 0.000000
# 5 0.000000 0.000000 0.000000 0.000000 0.105307 0.000000
# 6 0.000000 0.000000 0.000000 0.000000 0.000000 0.061226
#
#
# Mechanical properties :
#
#
# Convention : Reuss Voigt Hill
#
# Bulk Modulus (GPa) = 49.65128 50.56329 50.10728
# Shear Modulus (GPa) = 16.94839 19.56179 18.25509
#
# Velocity S-wave (km/s) = 3.21354 3.45242 3.33512
# Velocity P-wave (km/s) = 6.63493 6.83382 6.73511
#
# Compressibility (1/GPa) = 0.02014047
#
# Stress axis : x y z
#
# Youngs Moduli (GPa) = 65.94257 59.25669 56.84840
#
# Poissons Ratio (x) = 0.09684 0.37011
# Poissons Ratio (y) = 0.10776 0.37524
# Poissons Ratio (z) = 0.42931 0.39114
#
# Static dielectric constant tensor:
#      x y z
#    x 3.070900 0.000000 0.000000 
#    y 0.000000 3.018530 0.000000 
#    z 0.000000 0.000000 3.116490 
# 
# 
# High freq. dielectric constant tensor:
#      x y z
#    x 1.632660 0.000000 0.000000 
#    y 0.000000 1.604150 0.000000 
#    z 0.000000 0.000000 1.623630 
# 
# From -- ./inp_files/26376.got.cif
#   From: 2010.03.12/outbox.cif.g09.slc.cpg/sg67_14_cif.got.tgz:26376.got - 2010.04.10 22:41:39.
