data_PCOD8280966
_publ_section_title
;
Structure prediction by ZEFSAII (Michael W. Deem and Ramdas Pophale) SiO2 
 PCOD8280966
Probable space group: C M M A
;
_chemical_formula_sum "Si O2"
_cell_formula_units_Z 88
_cell_length_a 9.335195
_cell_length_b 31.550604
_cell_length_c 16.652622
_cell_angle_alpha 90.000000
_cell_angle_beta 90.000000
_cell_angle_gamma 90.000000
_cell_volume 4904.714088
_symmetry_space_group_name_H-M "C M M A"
_symmetry_group_IT_number 67
_symmetry_cell_setting 'orthorhombic'
loop_
_space_group_symop_operation_xyz
x,y,z
-x,1/2-y,z
x,-y,-z
-x,1/2+y,-z
-x,-y,-z
x,1/2+y,-z
-x,y,z
x,1/2-y,z
1/2+x,1/2+y,z
1/2-x,-y,z
1/2+x,1/2-y,-z
1/2-x,y,-z
1/2-x,1/2-y,-z
1/2+x,y,-z
1/2-x,1/2+y,z
1/2+x,-y,z
loop_
_atom_site_type_symbol
_atom_site_label
_atom_site_fract_x
_atom_site_fract_y
_atom_site_fract_z
Si Si1 0.000000 0.456304 0.888351
Si Si2 0.500000 0.055121 0.931985
Si Si3 0.838935 0.562169 0.426123
Si Si4 0.829049 0.632126 0.667451
Si Si5 0.218017 0.572175 0.807655
Si Si6 0.332969 0.200565 0.418161
Si Si7 0.250000 0.500000 0.300639
O O1 0.875439 0.441383 0.830845
O O2 0.000000 0.505341 0.912149
O O3 0.000000 0.432828 0.974485
O O4 0.636308 0.076994 0.891420
O O5 0.750000 0.542304 0.500000
O O6 0.744288 0.601831 0.397904
O O7 0.856264 0.527282 0.356260
O O8 0.000000 0.576101 0.450947
O O9 0.793682 0.615685 0.757559
O O10 0.750635 0.677237 0.654783
O O11 0.000000 0.635250 0.654297
O O12 0.156992 0.533132 0.753286
O O13 0.500000 0.186545 0.424276
O O14 0.321780 0.250000 0.399059
O O15 0.250000 0.188963 0.500000
#
# Coordination Sequence:
#
# PCOD8280966 Si02
#       7
#     8   8  16  16  16  16   8
#     4  11  22  34  58  78 107 148 183 231 278 331
#     4  11  20  38  54  80 109 142 189 227 276 337
#     4  11  24  38  52  70  97 137 186 232 274 318
#     4  11  23  36  56  79 110 146 179 226 269 320
#     4  11  22  35  53  78 108 141 183 224 273 325
#     4  10  21  38  61  87 116 147 181 220 268 326
#     4  10  23  32  51  68 100 136 182 228 275 314
#
# _framework density 17.941922000000002
#
# number of rings (size 3 to 8) (size 9 to 14) (size 15 to 20)
#    0.000    1.273    2.727    3.000    7.636    4.727 
#    0.000    0.000    0.000    0.000    0.000    0.000 
#    0.000    4.364    0.000    0.000    0.000    0.000 
#
# Total GULP energy -545301.293456 kJ/mol
# GULP energy per Si atom -12393.211215 kJ/mol
# Density = 1.790109 g / cm^3
# Si number density = 17.941922 Si / 1000 Ang^3
#
#
#
# Elastic Constant Matrix: (Units=GPa)
#
#
# Indices 1 2 3 4 5 6 
#
# 1 150.5813 38.0120 41.4686 0.0000 0.0000 0.0000
# 2 38.0120 71.2627 36.4711 0.0000 0.0000 0.0000
# 3 41.4686 36.4711 96.3510 0.0000 0.0000 0.0000
# 4 0.0000 0.0000 0.0000 24.3512 0.0000 0.0000
# 5 0.0000 0.0000 0.0000 0.0000 -313.9931 0.0000
# 6 0.0000 0.0000 0.0000 0.0000 0.0000 23.3260
#
#
#
# Elastic Compliance Matrix: (Units=1/GPa)
#
#
# Indices 1 2 3 4 5 6 
#
# 1 0.008060 -0.003130 -0.002284 0.000000 0.000000 0.000000
# 2 -0.003130 0.018620 -0.005701 0.000000 0.000000 0.000000
# 3 -0.002284 -0.005701 0.013520 0.000000 0.000000 0.000000
# 4 0.000000 0.000000 0.000000 0.041066 0.000000 0.000000
# 5 0.000000 0.000000 0.000000 0.000000 -0.003185 0.000000
# 6 0.000000 0.000000 0.000000 0.000000 0.000000 0.042871
#
#
# Mechanical properties :
#
#
# Convention : Reuss Voigt Hill
#
# Bulk Modulus (GPa) = 55.65077 61.12206 58.38641
# Shear Modulus (GPa) = 33.51842 -39.78031 -3.13094
#
# Velocity S-wave (km/s) = 4.32691 -4.71379 -1.32243
# Velocity P-wave (km/s) = 7.48648 2.12465 5.50280
#
# Compressibility (1/GPa) = 0.01796920
#
# Stress axis : x y z
#
# Youngs Moduli (GPa) = 124.06686 53.70593 73.96639
#
# Poissons Ratio (x) = 0.16812 0.16895
# Poissons Ratio (y) = 0.38838 0.42167
# Poissons Ratio (z) = 0.28338 0.30617
#
# Static dielectric constant tensor:
#      x y z
#    x 3.359600 0.000000 0.000000 
#    y 0.000000 3.133100 0.000000 
#    z 0.000000 0.000000 3.445680 
# 
# 
# High freq. dielectric constant tensor:
#      x y z
#    x 1.710090 0.000000 0.000000 
#    y 0.000000 1.656170 0.000000 
#    z 0.000000 0.000000 1.690390 
# 
# From -- ./inp_files/32493.got.cif
#   From: 2010.03.12/outbox.cif.g09.slc.cpg/sg67_17_cif.got.tgz:32493.got - 2010.04.10 22:41:39.
