data_PCOD8280942
_publ_section_title
;
Structure prediction by ZEFSAII (Michael W. Deem and Ramdas Pophale) SiO2 
 PCOD8280942
Probable space group: C M M A
;
_chemical_formula_sum "Si O2"
_cell_formula_units_Z 80
_cell_length_a 18.079747
_cell_length_b 9.039601
_cell_length_c 26.061842
_cell_angle_alpha 90.000000
_cell_angle_beta 90.000000
_cell_angle_gamma 90.000000
_cell_volume 4259.383242
_symmetry_space_group_name_H-M "C M M A"
_symmetry_group_IT_number 67
_symmetry_cell_setting 'orthorhombic'
loop_
_space_group_symop_operation_xyz
x,y,z
-x,1/2-y,z
x,-y,-z
-x,1/2+y,-z
-x,-y,-z
x,1/2+y,-z
-x,y,z
x,1/2-y,z
1/2+x,1/2+y,z
1/2-x,-y,z
1/2+x,1/2-y,-z
1/2-x,y,-z
1/2-x,1/2-y,-z
1/2+x,y,-z
1/2-x,1/2+y,z
1/2+x,-y,z
loop_
_atom_site_type_symbol
_atom_site_label
_atom_site_fract_x
_atom_site_fract_y
_atom_site_fract_z
Si Si1 0.087749 0.080884 0.051192
Si Si2 0.588265 0.415556 0.549808
Si Si3 0.417715 0.925884 0.760079
Si Si4 0.411934 0.585482 0.648030
Si Si5 0.671214 0.926536 0.858324
O O1 0.117318 0.250000 0.052317
O O2 0.000000 0.078677 0.053402
O O3 0.116574 0.987049 0.098755
O O4 0.116878 0.000000 0.000000
O O5 0.619136 0.500000 0.500000
O O6 0.500000 0.420812 0.550381
O O7 0.618317 0.250000 0.546716
O O8 0.620384 0.486130 0.602122
O O9 0.500000 0.989370 0.771914
O O10 0.422584 0.750000 0.758652
O O11 0.389391 0.980835 0.703961
O O12 0.360930 0.979341 0.803480
O O13 0.500000 0.591524 0.645332
O O14 0.379410 0.750000 0.640797
O O15 0.676802 0.750000 0.862444
O O16 0.750000 0.000000 0.866342
#
# Coordination Sequence:
#
# PCOD8280942 Si02
#       5
#    16  16  16  16  16
#     4  10  21  38  60  85 110 136 169 208 250 298
#     4   9  15  21  30  48  77 113 149 185 230 283
#     4   8  15  29  50  72  93 124 166 207 248 297
#     4   8  13  23  39  58  80 109 149 194 237 284
#     4  11  22  36  54  77 107 140 174 211 253 300
#
# _framework density 18.782063000000001
#
# number of rings (size 3 to 8) (size 9 to 14) (size 15 to 20)
#    0.000    2.800    0.000    3.600    0.000    4.800 
#    0.000    4.000    0.000    4.800    0.000    0.000 
#    0.000    0.800    0.000    9.200    0.000   11.200 
#
# Total GULP energy -495826.703118 kJ/mol
# GULP energy per Si atom -12395.667578 kJ/mol
# Density = 1.873931 g / cm^3
# Si number density = 18.782063 Si / 1000 Ang^3
#
#
#
# Elastic Constant Matrix: (Units=GPa)
#
#
# Indices 1 2 3 4 5 6 
#
# 1 13.5977 15.4523 14.4234 0.0000 0.0000 0.0000
# 2 15.4523 112.2600 67.1033 0.0000 0.0000 0.0000
# 3 14.4234 67.1033 168.6796 0.0000 0.0000 0.0000
# 4 0.0000 0.0000 0.0000 32.9446 0.0000 0.0000
# 5 0.0000 0.0000 0.0000 0.0000 0.8045 0.0000
# 6 0.0000 0.0000 0.0000 0.0000 0.0000 15.1800
#
#
#
# Elastic Compliance Matrix: (Units=1/GPa)
#
#
# Indices 1 2 3 4 5 6 
#
# 1 0.088798 -0.010082 -0.003582 0.000000 0.000000 0.000000
# 2 -0.010082 0.012832 -0.004243 0.000000 0.000000 0.000000
# 3 -0.003582 -0.004243 0.007922 0.000000 0.000000 0.000000
# 4 0.000000 0.000000 0.000000 0.030354 0.000000 0.000000
# 5 0.000000 0.000000 0.000000 0.000000 1.242985 0.000000
# 6 0.000000 0.000000 0.000000 0.000000 0.000000 0.065876
#
#
# Mechanical properties :
#
#
# Convention : Reuss Voigt Hill
#
# Bulk Modulus (GPa) = 13.56123 54.27726 33.91925
# Shear Modulus (GPa) = 3.31310 22.95638 13.13474
#
# Velocity S-wave (km/s) = 1.32959 3.49986 2.64734
# Velocity P-wave (km/s) = 3.09726 6.73003 5.23862
#
# Compressibility (1/GPa) = 0.07373963
#
# Stress axis : x y z
#
# Youngs Moduli (GPa) = 11.26145 77.93277 126.22325
#
# Poissons Ratio (x) = 0.78568 0.45218
# Poissons Ratio (y) = 0.11353 0.53551
# Poissons Ratio (z) = 0.04034 0.33063
#
# Static dielectric constant tensor:
#      x y z
#    x 2.929050 0.000000 0.000000 
#    y 0.000000 3.470610 0.000000 
#    z 0.000000 0.000000 3.904310 
# 
# 
# High freq. dielectric constant tensor:
#      x y z
#    x 1.672300 0.000000 0.000000 
#    y 0.000000 1.718850 0.000000 
#    z 0.000000 0.000000 1.752760 
# 
# From -- ./inp_files/43244.got.cif
#   From: 2010.03.12/outbox.cif.g09.slc.cpg/sg67_22_cif.got.tgz:43244.got - 2010.04.10 22:41:39.
