data_PCOD8280356
_publ_section_title
;
Structure prediction by ZEFSAII (Michael W. Deem and Ramdas Pophale) SiO2 
 PCOD8280356
Probable space group: C M M A
;
_chemical_formula_sum "Si O2"
_cell_formula_units_Z 64
_cell_length_a 18.295150
_cell_length_b 9.627827
_cell_length_c 19.048896
_cell_angle_alpha 90.000000
_cell_angle_beta 90.000000
_cell_angle_gamma 90.000000
_cell_volume 3355.320909
_symmetry_space_group_name_H-M "C M M A"
_symmetry_group_IT_number 67
_symmetry_cell_setting 'orthorhombic'
loop_
_space_group_symop_operation_xyz
x,y,z
-x,1/2-y,z
x,-y,-z
-x,1/2+y,-z
-x,-y,-z
x,1/2+y,-z
-x,y,z
x,1/2-y,z
1/2+x,1/2+y,z
1/2-x,-y,z
1/2+x,1/2-y,-z
1/2-x,y,-z
1/2-x,1/2-y,-z
1/2+x,y,-z
1/2-x,1/2+y,z
1/2+x,-y,z
loop_
_atom_site_type_symbol
_atom_site_label
_atom_site_fract_x
_atom_site_fract_y
_atom_site_fract_z
Si Si1 0.344704 0.250000 0.579311
Si Si2 0.674313 0.918414 0.935399
Si Si3 0.584623 0.491481 0.351293
Si Si4 0.082454 0.908086 0.200166
Si Si5 0.323580 0.750000 0.586081
O O1 0.393700 0.373216 0.607442
O O2 0.339288 0.250000 0.496112
O O3 0.261855 0.250000 0.607411
O O4 0.681840 0.750000 0.948034
O O5 0.632346 0.952129 0.864273
O O6 0.750000 0.000000 0.927409
O O7 0.633967 0.000000 0.000000
O O8 0.500000 0.451448 0.366092
O O9 0.597201 0.506271 0.267381
O O10 0.640456 0.381930 0.380560
O O11 0.097973 0.750000 0.224180
O O12 0.000000 0.924283 0.173317
#
# Coordination Sequence:
#
# PCOD8280356 Si02
#       5
#     8  16  16  16   8
#     4  11  25  39  57  89 124 145 196 253 305 336
#     4  10  20  36  58  85 117 150 189 233 278 335
#     4  11  22  40  62  86 117 155 200 244 293 354
#     4   9  19  38  60  82 112 151 192 233 282 343
#     4  11  23  41  61  83 116 163 192 241 297 370
#
# _framework density 19.074183000000001
#
# number of rings (size 3 to 8) (size 9 to 14) (size 15 to 20)
#    0.000    1.750    1.250    3.750    0.000    7.500 
#    4.500    0.000    0.000    0.000    0.000    0.000 
#    0.000    0.000    0.000    0.000    0.000    0.000 
#
# Total GULP energy -396517.448537 kJ/mol
# GULP energy per Si atom -12391.170267 kJ/mol
# Density = 1.903077 g / cm^3
# Si number density = 19.074183 Si / 1000 Ang^3
#
#
#
# Elastic Constant Matrix: (Units=GPa)
#
#
# Indices 1 2 3 4 5 6 
#
# 1 79.6305 7.3876 44.9799 0.0000 0.0000 0.0000
# 2 7.3876 66.4242 15.0200 0.0000 0.0000 0.0000
# 3 44.9799 15.0200 97.8627 0.0000 0.0000 0.0000
# 4 0.0000 0.0000 0.0000 117.1835 0.0000 0.0000
# 5 0.0000 0.0000 0.0000 0.0000 57.9842 0.0000
# 6 0.0000 0.0000 0.0000 0.0000 0.0000 30.1692
#
#
#
# Elastic Compliance Matrix: (Units=1/GPa)
#
#
# Indices 1 2 3 4 5 6 
#
# 1 0.016963 -0.000128 -0.007777 0.000000 0.000000 0.000000
# 2 -0.000128 0.015597 -0.002335 0.000000 0.000000 0.000000
# 3 -0.007777 -0.002335 0.014151 0.000000 0.000000 0.000000
# 4 0.000000 0.000000 0.000000 0.008534 0.000000 0.000000
# 5 0.000000 0.000000 0.000000 0.000000 0.017246 0.000000
# 6 0.000000 0.000000 0.000000 0.000000 0.000000 0.033146
#
#
# Mechanical properties :
#
#
# Convention : Reuss Voigt Hill
#
# Bulk Modulus (GPa) = 38.12256 42.07694 40.09975
# Shear Modulus (GPa) = 37.07541 52.83604 44.95572
#
# Velocity S-wave (km/s) = 4.41358 5.26882 4.86005
# Velocity P-wave (km/s) = 6.78253 7.68905 7.24997
#
# Compressibility (1/GPa) = 0.02623119
#
# Stress axis : x y z
#
# Youngs Moduli (GPa) = 58.95305 64.11493 70.66560
#
# Poissons Ratio (x) = 0.00821 0.54955
# Poissons Ratio (y) = 0.00755 0.16500
# Poissons Ratio (z) = 0.45846 0.14971
#
# Static dielectric constant tensor:
#      x y z
#    x 3.579140 0.000000 0.000000 
#    y 0.000000 2.616750 0.000000 
#    z 0.000000 0.000000 3.837540 
# 
# 
# High freq. dielectric constant tensor:
#      x y z
#    x 1.745710 0.000000 0.000000 
#    y 0.000000 1.739610 0.000000 
#    z 0.000000 0.000000 1.756080 
# 
# From -- ./inp_files/34644.got.cif
#   From: 2010.03.12/outbox.cif.g09.slc.cpg/sg67_18_cif.got.tgz:34644.got - 2010.04.10 22:41:39.
