data_PCOD8280678
_publ_section_title
;
Structure prediction by ZEFSAII (Michael W. Deem and Ramdas Pophale) SiO2 
 PCOD8280678
Probable space group: C M M A
;
_chemical_formula_sum "Si O2"
_cell_formula_units_Z 96
_cell_length_a 20.826558
_cell_length_b 14.658490
_cell_length_c 16.302175
_cell_angle_alpha 90.000000
_cell_angle_beta 90.000000
_cell_angle_gamma 90.000000
_cell_volume 4976.824039
_symmetry_space_group_name_H-M "C M M A"
_symmetry_group_IT_number 67
_symmetry_cell_setting 'orthorhombic'
loop_
_space_group_symop_operation_xyz
x,y,z
-x,1/2-y,z
x,-y,-z
-x,1/2+y,-z
-x,-y,-z
x,1/2+y,-z
-x,y,z
x,1/2-y,z
1/2+x,1/2+y,z
1/2-x,-y,z
1/2+x,1/2-y,-z
1/2-x,y,-z
1/2-x,1/2-y,-z
1/2+x,y,-z
1/2-x,1/2+y,z
1/2+x,-y,z
loop_
_atom_site_type_symbol
_atom_site_label
_atom_site_fract_x
_atom_site_fract_y
_atom_site_fract_z
Si Si1 0.238984 0.143255 0.857134
Si Si2 0.926753 0.352102 0.387704
Si Si3 0.680475 0.894299 0.517256
Si Si4 0.574530 0.989474 0.246951
Si Si5 0.663090 0.647403 0.705090
Si Si6 0.648867 0.008898 0.907903
O O1 0.241950 0.250000 0.883698
O O2 0.229665 0.133612 0.757592
O O3 0.299088 0.088975 0.893684
O O4 0.176385 0.092629 0.892602
O O5 0.927032 0.250000 0.352197
O O6 0.878499 0.353855 0.465025
O O7 0.901008 0.415875 0.314092
O O8 0.000000 0.379146 0.415138
O O9 0.750000 0.848886 0.500000
O O10 0.671707 0.876204 0.611698
O O11 0.682759 0.000000 0.500000
O O12 0.500000 0.000700 0.256012
O O13 0.606120 0.086108 0.262073
O O14 0.592128 0.961681 0.153887
O O15 0.638954 0.750000 0.716414
O O16 0.622243 0.000000 0.000000
#
# Coordination Sequence:
#
# PCOD8280678 Si02
#       6
#    16  16  16  16  16  16
#     4   9  19  35  58  84 117 151 184 227 281 345
#     4  10  22  40  60  82 113 159 207 242 283 345
#     4  11  23  36  59  89 122 155 191 246 294 335
#     4  10  22  40  59  79 111 150 191 241 287 335
#     4  10  21  37  57  85 113 149 193 230 282 343
#     4  10  21  35  57  87 114 143 186 234 287 352
#
# _framework density 19.289411000000001
#
# number of rings (size 3 to 8) (size 9 to 14) (size 15 to 20)
#    0.000    2.000    1.667    1.500    2.333    6.333 
#    0.000    0.000    0.000    0.000    0.000    4.667 
#    0.000    0.000    0.000    0.000    0.000    0.000 
#
# Total GULP energy -594668.855419 kJ/mol
# GULP energy per Si atom -12388.934488 kJ/mol
# Density = 1.924551 g / cm^3
# Si number density = 19.289411 Si / 1000 Ang^3
#
#
#
# Elastic Constant Matrix: (Units=GPa)
#
#
# Indices 1 2 3 4 5 6 
#
# 1 70.4472 16.5714 33.0572 0.0000 0.0000 0.0000
# 2 16.5714 111.1707 26.0252 0.0000 0.0000 0.0000
# 3 33.0572 26.0252 147.1790 0.0000 0.0000 0.0000
# 4 0.0000 0.0000 0.0000 20.8746 0.0000 0.0000
# 5 0.0000 0.0000 0.0000 0.0000 26.9668 0.0000
# 6 0.0000 0.0000 0.0000 0.0000 0.0000 -79.6303
#
#
#
# Elastic Compliance Matrix: (Units=1/GPa)
#
#
# Indices 1 2 3 4 5 6 
#
# 1 0.016144 -0.001625 -0.003339 0.000000 0.000000 0.000000
# 2 -0.001625 0.009547 -0.001323 0.000000 0.000000 0.000000
# 3 -0.003339 -0.001323 0.007778 0.000000 0.000000 0.000000
# 4 0.000000 0.000000 0.000000 0.047905 0.000000 0.000000
# 5 0.000000 0.000000 0.000000 0.000000 0.037083 0.000000
# 6 0.000000 0.000000 0.000000 0.000000 0.000000 -0.012558
#
#
# Mechanical properties :
#
#
# Convention : Reuss Voigt Hill
#
# Bulk Modulus (GPa) = 47.85650 53.34495 50.60073
# Shear Modulus (GPa) = 39.86033 10.51843 25.18938
#
# Velocity S-wave (km/s) = 4.55074 2.33769 3.61760
# Velocity P-wave (km/s) = 7.24402 5.91620 6.61352
#
# Compressibility (1/GPa) = 0.02089580
#
# Stress axis : x y z
#
# Youngs Moduli (GPa) = 61.94281 104.74326 128.56239
#
# Poissons Ratio (x) = 0.17019 0.42923
# Poissons Ratio (y) = 0.10065 0.17012
# Poissons Ratio (z) = 0.20681 0.13860
#
# Static dielectric constant tensor:
#      x y z
#    x 3.537160 0.000000 0.000000 
#    y 0.000000 3.642890 0.000000 
#    z 0.000000 0.000000 3.811460 
# 
# 
# High freq. dielectric constant tensor:
#      x y z
#    x 1.730850 0.000000 0.000000 
#    y 0.000000 1.761070 0.000000 
#    z 0.000000 0.000000 1.757120 
# 
# From -- ./inp_files/27180.got.cif
#   From: 2010.03.12/outbox.cif.g09.slc.cpg/sg67_14_cif.got.tgz:27180.got - 2010.04.10 22:41:39.
