data_PCOD8280550
_publ_section_title
;
Structure prediction by ZEFSAII (Michael W. Deem and Ramdas Pophale) SiO2 
 PCOD8280550
Probable space group: C M M A
;
_chemical_formula_sum "Si O2"
_cell_formula_units_Z 96
_cell_length_a 15.891099
_cell_length_b 19.262148
_cell_length_c 14.898068
_cell_angle_alpha 90.000000
_cell_angle_beta 90.000000
_cell_angle_gamma 90.000000
_cell_volume 4560.249463
_symmetry_space_group_name_H-M "C M M A"
_symmetry_group_IT_number 67
_symmetry_cell_setting 'orthorhombic'
loop_
_space_group_symop_operation_xyz
x,y,z
-x,1/2-y,z
x,-y,-z
-x,1/2+y,-z
-x,-y,-z
x,1/2+y,-z
-x,y,z
x,1/2-y,z
1/2+x,1/2+y,z
1/2-x,-y,z
1/2+x,1/2-y,-z
1/2-x,y,-z
1/2-x,1/2-y,-z
1/2+x,y,-z
1/2-x,1/2+y,z
1/2+x,-y,z
loop_
_atom_site_type_symbol
_atom_site_label
_atom_site_fract_x
_atom_site_fract_y
_atom_site_fract_z
Si Si1 0.344725 0.172079 0.493558
Si Si2 0.303696 0.935993 0.239868
Si Si3 0.657436 0.076306 0.960678
Si Si4 0.500000 0.327173 0.002157
Si Si5 0.000000 0.174294 0.792464
Si Si6 0.905326 0.955577 0.582867
Si Si7 0.164143 0.670697 0.290088
O O1 0.351429 0.250000 0.532067
O O2 0.250000 0.144021 0.500000
O O3 0.404517 0.125088 0.554736
O O4 0.370849 0.167310 0.390700
O O5 0.350598 0.917520 0.147654
O O6 0.360349 0.964600 0.321633
O O7 0.249455 0.871364 0.275168
O O8 0.250000 0.000000 0.206613
O O9 0.585465 0.130437 0.986298
O O10 0.750000 0.098519 0.000000
O O11 0.635148 0.000000 0.000000
O O12 0.500000 0.250000 0.954117
O O13 0.500000 0.311294 0.104968
O O14 0.912996 0.135870 0.765360
O O15 0.000000 0.250000 0.742437
O O16 0.000000 0.981390 0.597562
O O17 0.864087 0.000000 0.500000
O O18 0.183841 0.750000 0.261113
#
# Coordination Sequence:
#
# PCOD8280550 Si02
#       7
#    16  16  16   8   8  16  16
#     4  10  20  38  62  89 127 173 215 259 315 378
#     4  12  24  42  70  93 127 173 220 268 326 393
#     4  11  24  47  70 101 135 178 227 276 339 411
#     4  11  25  45  71 102 136 174 218 285 352 404
#     4   9  20  37  61  96 128 159 209 264 316 374
#     4  11  26  43  60  94 133 171 217 267 323 383
#     4  10  21  38  63  97 130 168 217 265 318 383
#
# _framework density 21.051480000000002
#
# number of rings (size 3 to 8) (size 9 to 14) (size 15 to 20)
#    0.000    1.333    3.333    2.250    2.333    1.333 
#    1.500    0.000    0.000    0.000    0.000    0.000 
#    0.000    0.000    0.000    0.000    0.000    0.000 
#
# Total GULP energy -594804.758811 kJ/mol
# GULP energy per Si atom -12391.765809 kJ/mol
# Density = 2.100357 g / cm^3
# Si number density = 21.051480 Si / 1000 Ang^3
#
#
#
# Elastic Constant Matrix: (Units=GPa)
#
#
# Indices 1 2 3 4 5 6 
#
# 1 106.3538 46.2227 38.3830 0.0000 0.0000 0.0000
# 2 46.2227 93.0090 17.3442 0.0000 0.0000 0.0000
# 3 38.3830 17.3442 120.5250 0.0000 0.0000 0.0000
# 4 0.0000 0.0000 0.0000 21.7876 0.0000 0.0000
# 5 0.0000 0.0000 0.0000 0.0000 29.3821 0.0000
# 6 0.0000 0.0000 0.0000 0.0000 0.0000 27.5923
#
#
#
# Elastic Compliance Matrix: (Units=1/GPa)
#
#
# Indices 1 2 3 4 5 6 
#
# 1 0.013187 -0.005930 -0.003346 0.000000 0.000000 0.000000
# 2 -0.005930 0.013714 -0.000085 0.000000 0.000000 0.000000
# 3 -0.003346 -0.000085 0.009375 0.000000 0.000000 0.000000
# 4 0.000000 0.000000 0.000000 0.045898 0.000000 0.000000
# 5 0.000000 0.000000 0.000000 0.000000 0.034034 0.000000
# 6 0.000000 0.000000 0.000000 0.000000 0.000000 0.036242
#
#
# Mechanical properties :
#
#
# Convention : Reuss Voigt Hill
#
# Bulk Modulus (GPa) = 56.96627 58.19861 57.58244
# Shear Modulus (GPa) = 28.24461 30.28159 29.26310
#
# Velocity S-wave (km/s) = 3.66689 3.79681 3.73241
# Velocity P-wave (km/s) = 6.71173 6.85032 6.78138
#
# Compressibility (1/GPa) = 0.01755425
#
# Stress axis : x y z
#
# Youngs Moduli (GPa) = 75.82980 72.91587 106.66666
#
# Poissons Ratio (x) = 0.43237 0.35695
# Poissons Ratio (y) = 0.44965 0.00908
# Poissons Ratio (z) = 0.25376 0.00621
#
# Static dielectric constant tensor:
#      x y z
#    x -77.563320 0.000000 0.000000 
#    y 0.000000 3.874850 0.000000 
#    z 0.000000 0.000000 3.842840 
# 
# 
# High freq. dielectric constant tensor:
#      x y z
#    x 1.818750 0.000000 0.000000 
#    y 0.000000 1.823950 0.000000 
#    z 0.000000 0.000000 1.829560 
# 
# From -- ./inp_files/27285.got.cif
#   From: 2010.03.12/outbox.cif.g09.slc.cpg/sg67_14_cif.got.tgz:27285.got - 2010.04.10 22:41:39.
