data_PCOD8280979
_publ_section_title
;
Structure prediction by ZEFSAII (Michael W. Deem and Ramdas Pophale) SiO2 
 PCOD8280979
Probable space group: C M M A
;
_chemical_formula_sum "Si O2"
_cell_formula_units_Z 48
_cell_length_a 14.957201
_cell_length_b 13.837027
_cell_length_c 10.274877
_cell_angle_alpha 90.000000
_cell_angle_beta 90.000000
_cell_angle_gamma 90.000000
_cell_volume 2126.521363
_symmetry_space_group_name_H-M "C M M A"
_symmetry_group_IT_number 67
_symmetry_cell_setting 'orthorhombic'
loop_
_space_group_symop_operation_xyz
x,y,z
-x,1/2-y,z
x,-y,-z
-x,1/2+y,-z
-x,-y,-z
x,1/2+y,-z
-x,y,z
x,1/2-y,z
1/2+x,1/2+y,z
1/2-x,-y,z
1/2+x,1/2-y,-z
1/2-x,y,-z
1/2-x,1/2-y,-z
1/2+x,y,-z
1/2-x,1/2+y,z
1/2+x,-y,z
loop_
_atom_site_type_symbol
_atom_site_label
_atom_site_fract_x
_atom_site_fract_y
_atom_site_fract_z
Si Si1 0.392962 0.750000 0.962253
Si Si2 0.600460 0.553316 0.377790
Si Si3 0.106991 0.750000 0.737066
Si Si4 0.847857 0.454387 0.872124
O O1 0.500000 0.750000 0.946964
O O2 0.347790 0.839631 0.888467
O O3 0.362496 0.750000 0.112778
O O4 0.649668 0.500000 0.500000
O O5 0.500000 0.577603 0.421872
O O6 0.646639 0.654893 0.335766
O O7 0.597062 0.480944 0.255891
O O8 0.000000 0.750000 0.734443
O O9 0.750000 0.500000 0.857618
O O10 0.895496 0.500000 0.000000
#
# Coordination Sequence:
#
# PCOD8280979 Si02
#       4
#     8  16   8  16
#     4  11  22  39  69  99 128 170 226 273 319 385
#     4  10  21  38  61  89 125 169 222 274 324 387
#     4   9  18  34  60  90 121 162 209 273 330 369
#     4  11  24  39  61  95 130 172 211 268 327 389
#
# _framework density 22.572074000000001
#
# number of rings (size 3 to 8) (size 9 to 14) (size 15 to 20)
#    0.000    1.667    3.333    1.000    0.000    7.333 
#    0.000    3.333    0.000    4.000    0.000    0.000 
#    0.000    0.000    0.000    0.000    0.000    0.000 
#
# Total GULP energy -297510.179572 kJ/mol
# GULP energy per Si atom -12396.257482 kJ/mol
# Density = 2.252070 g / cm^3
# Si number density = 22.572074 Si / 1000 Ang^3
#
#
#
# Elastic Constant Matrix: (Units=GPa)
#
#
# Indices 1 2 3 4 5 6 
#
# 1 51.0316 19.6641 -0.0658 0.0000 0.0000 0.0000
# 2 19.6641 238.7483 89.7229 0.0000 0.0000 0.0000
# 3 -0.0658 89.7229 170.2664 0.0000 0.0000 0.0000
# 4 0.0000 0.0000 0.0000 41.6935 0.0000 0.0000
# 5 0.0000 0.0000 0.0000 0.0000 11.9833 0.0000
# 6 0.0000 0.0000 0.0000 0.0000 0.0000 19.0889
#
#
#
# Elastic Compliance Matrix: (Units=1/GPa)
#
#
# Indices 1 2 3 4 5 6 
#
# 1 0.020406 -0.002099 0.001114 0.000000 0.000000 0.000000
# 2 -0.002099 0.005439 -0.002867 0.000000 0.000000 0.000000
# 3 0.001114 -0.002867 0.007384 0.000000 0.000000 0.000000
# 4 0.000000 0.000000 0.000000 0.023985 0.000000 0.000000
# 5 0.000000 0.000000 0.000000 0.000000 0.083449 0.000000
# 6 0.000000 0.000000 0.000000 0.000000 0.000000 0.052387
#
#
# Mechanical properties :
#
#
# Convention : Reuss Voigt Hill
#
# Bulk Modulus (GPa) = 39.17715 75.40982 57.29348
# Shear Modulus (GPa) = 23.89351 37.93482 30.91417
#
# Velocity S-wave (km/s) = 3.25706 4.10397 3.70479
# Velocity P-wave (km/s) = 5.61593 7.47915 6.61349
#
# Compressibility (1/GPa) = 0.02552508
#
# Stress axis : x y z
#
# Youngs Moduli (GPa) = 49.00488 183.86433 135.42305
#
# Poissons Ratio (x) = 0.38601 -0.15089
# Poissons Ratio (y) = 0.10288 0.38823
# Poissons Ratio (z) = -0.05460 0.52711
#
# Static dielectric constant tensor:
#      x y z
#    x 3.549150 0.000000 0.000000 
#    y 0.000000 4.362880 0.000000 
#    z 0.000000 0.000000 4.304340 
# 
# 
# High freq. dielectric constant tensor:
#      x y z
#    x 1.853970 0.000000 0.000000 
#    y 0.000000 1.903250 0.000000 
#    z 0.000000 0.000000 1.888540 
# 
# From -- ./inp_files/7378.got.cif
#   From: 2010.03.12/outbox.cif.g09.slc.cpg/sg67_4_cif.got.tgz:7378.got - 2010.04.10 22:41:39.
