data_PCOD8280776
_publ_section_title
;
Structure prediction by ZEFSAII (Michael W. Deem and Ramdas Pophale) SiO2 
 PCOD8280776
Probable space group: C M M A
;
_chemical_formula_sum "Si O2"
_cell_formula_units_Z 104
_cell_length_a 24.145715
_cell_length_b 8.889382
_cell_length_c 24.526493
_cell_angle_alpha 90.000000
_cell_angle_beta 90.000000
_cell_angle_gamma 90.000000
_cell_volume 5264.378336
_symmetry_space_group_name_H-M "C M M A"
_symmetry_group_IT_number 67
_symmetry_cell_setting 'orthorhombic'
loop_
_space_group_symop_operation_xyz
x,y,z
-x,1/2-y,z
x,-y,-z
-x,1/2+y,-z
-x,-y,-z
x,1/2+y,-z
-x,y,z
x,1/2-y,z
1/2+x,1/2+y,z
1/2-x,-y,z
1/2+x,1/2-y,-z
1/2-x,y,-z
1/2-x,1/2-y,-z
1/2+x,y,-z
1/2-x,1/2+y,z
1/2+x,-y,z
loop_
_atom_site_type_symbol
_atom_site_label
_atom_site_fract_x
_atom_site_fract_y
_atom_site_fract_z
Si Si1 0.500000 0.574501 0.204206
Si Si2 0.609358 0.078915 0.375368
Si Si3 0.500000 0.427836 0.915172
Si Si4 0.000000 0.574695 0.440224
Si Si5 0.810510 0.572504 0.154457
Si Si6 0.878509 0.070429 0.055303
Si Si7 0.104448 0.580840 0.247343
Si Si8 0.191411 0.425304 0.446858
O O1 0.500000 0.750000 0.197308
O O2 0.500000 0.498406 0.144771
O O3 0.445296 0.530200 0.235780
O O4 0.622842 0.250000 0.393277
O O5 0.551592 0.027648 0.402276
O O6 0.614418 0.064498 0.311006
O O7 0.654398 0.960218 0.395083
O O8 0.500000 0.250000 0.911514
O O9 0.443241 0.480949 0.943868
O O10 0.000000 0.500000 0.500000
O O11 0.000000 0.750000 0.452119
O O12 0.804940 0.750000 0.143372
O O13 0.750000 0.500000 0.157259
O O14 0.845937 0.497355 0.106374
O O15 0.841204 0.538736 0.211963
O O16 0.871612 0.250000 0.055741
O O17 0.853014 0.000000 0.000000
O O18 0.085911 0.750000 0.232640
O O19 0.162737 0.500000 0.500000
O O20 0.198767 0.250000 0.456051
O O21 0.250000 0.500000 0.436762
#
# Coordination Sequence:
#
# PCOD8280776 Si02
#       8
#     8  16   8   8  16  16  16  16
#     4  11  20  35  61  90 119 154 196 240 290 345
#     4  10  21  39  60  86 120 158 199 247 299 355
#     4   9  19  35  59  90 124 156 189 238 293 344
#     4  10  21  36  58  84 120 163 200 241 294 351
#     4  11  24  42  63  88 117 158 204 250 304 365
#     4  11  22  40  63  92 127 160 199 247 301 359
#     4  10  22  40  62  88 120 157 200 248 302 360
#     4  11  22  38  60  86 115 151 195 244 298 354
#
# _framework density 19.755417999999999
#
# number of rings (size 3 to 8) (size 9 to 14) (size 15 to 20)
#    0.000    1.538    1.538    4.154    0.000    5.231 
#    0.000    5.000    0.000    0.000    0.000    0.000 
#    0.000    0.000    0.000    0.000    0.000    0.000 
#
# Total GULP energy -644685.498705 kJ/mol
# GULP energy per Si atom -12397.798052 kJ/mol
# Density = 1.971045 g / cm^3
# Si number density = 19.755418 Si / 1000 Ang^3
#
#
#
# Elastic Constant Matrix: (Units=GPa)
#
#
# Indices 1 2 3 4 5 6 
#
# 1 120.2958 58.8084 67.5959 0.0000 0.0000 0.0000
# 2 58.8084 111.0670 56.1372 0.0000 0.0000 0.0000
# 3 67.5959 56.1372 141.5171 0.0000 0.0000 0.0000
# 4 0.0000 0.0000 0.0000 31.7551 0.0000 0.0000
# 5 0.0000 0.0000 0.0000 0.0000 7.1040 0.0000
# 6 0.0000 0.0000 0.0000 0.0000 0.0000 10.1788
#
#
#
# Elastic Compliance Matrix: (Units=1/GPa)
#
#
# Indices 1 2 3 4 5 6 
#
# 1 0.013075 -0.004711 -0.004377 0.000000 0.000000 0.000000
# 2 -0.004711 0.012959 -0.002890 0.000000 0.000000 0.000000
# 3 -0.004377 -0.002890 0.010303 0.000000 0.000000 0.000000
# 4 0.000000 0.000000 0.000000 0.031491 0.000000 0.000000
# 5 0.000000 0.000000 0.000000 0.000000 0.140766 0.000000
# 6 0.000000 0.000000 0.000000 0.000000 0.000000 0.098244
#
#
# Mechanical properties :
#
#
# Convention : Reuss Voigt Hill
#
# Bulk Modulus (GPa) = 80.76588 81.99587 81.38088
# Shear Modulus (GPa) = 14.92888 22.49679 18.71283
#
# Velocity S-wave (km/s) = 2.75195 3.37822 3.08104
# Velocity P-wave (km/s) = 7.14628 7.53738 7.34443
#
# Compressibility (1/GPa) = 0.01238147
#
# Stress axis : x y z
#
# Youngs Moduli (GPa) = 76.48078 77.16725 97.05620
#
# Poissons Ratio (x) = 0.36354 0.42478
# Poissons Ratio (y) = 0.36030 0.28052
# Poissons Ratio (z) = 0.33473 0.22304
#
# Static dielectric constant tensor:
#      x y z
#    x 3.567770 0.000000 0.000000 
#    y 0.000000 3.592750 0.000000 
#    z 0.000000 0.000000 3.766200 
# 
# 
# High freq. dielectric constant tensor:
#      x y z
#    x 1.771680 0.000000 0.000000 
#    y 0.000000 1.768970 0.000000 
#    z 0.000000 0.000000 1.783210 
# 
# From -- ./inp_files/44733.got.cif
#   From: 2010.03.12/outbox.cif.g09.slc.cpg/sg67_23_cif.got.tgz:44733.got - 2010.04.10 22:41:39.
