data_PCOD8280949
_publ_section_title
;
Structure prediction by ZEFSAII (Michael W. Deem and Ramdas Pophale) SiO2 
 PCOD8280949
Probable space group: C M M A
;
_chemical_formula_sum "Si O2"
_cell_formula_units_Z 68
_cell_length_a 28.977744
_cell_length_b 8.886059
_cell_length_c 14.447981
_cell_angle_alpha 90.000000
_cell_angle_beta 90.000000
_cell_angle_gamma 90.000000
_cell_volume 3720.325386
_symmetry_space_group_name_H-M "C M M A"
_symmetry_group_IT_number 67
_symmetry_cell_setting 'orthorhombic'
loop_
_space_group_symop_operation_xyz
x,y,z
-x,1/2-y,z
x,-y,-z
-x,1/2+y,-z
-x,-y,-z
x,1/2+y,-z
-x,y,z
x,1/2-y,z
1/2+x,1/2+y,z
1/2-x,-y,z
1/2+x,1/2-y,-z
1/2-x,y,-z
1/2-x,1/2-y,-z
1/2+x,y,-z
1/2-x,1/2+y,z
1/2+x,-y,z
loop_
_atom_site_type_symbol
_atom_site_label
_atom_site_fract_x
_atom_site_fract_y
_atom_site_fract_z
Si Si1 0.126846 0.070207 0.284048
Si Si2 0.054253 0.575157 0.403149
Si Si3 0.205476 0.428829 0.600199
Si Si4 0.250000 0.500000 0.000000
Si Si5 0.340743 0.415518 0.913917
O O1 0.131656 0.250000 0.293250
O O2 0.142249 0.011755 0.182218
O O3 0.076292 0.013662 0.315330
O O4 0.159295 0.980628 0.352436
O O5 0.070216 0.500000 0.500000
O O6 0.069275 0.750000 0.404005
O O7 0.000000 0.557463 0.389811
O O8 0.204439 0.500000 0.500000
O O9 0.209243 0.250000 0.596444
O O10 0.250000 0.500000 0.653153
O O11 0.284589 0.409677 0.930354
O O12 0.361050 0.250000 0.914983
O O13 0.364679 0.500000 0.000000
#
# Coordination Sequence:
#
# PCOD8280949 Si02
#       5
#    16  16  16   4  16
#     4  11  22  36  54  82 112 143 183 225 278 334
#     4  10  21  38  60  86 113 145 184 229 282 335
#     4  11  22  36  51  72 104 144 183 223 268 320
#     4   8  18  36  54  76 106 140 186 228 278 316
#     4   9  20  34  53  78 107 141 180 226 273 322
#
# _framework density 18.27797
#
# number of rings (size 3 to 8) (size 9 to 14) (size 15 to 20)
#    0.706    1.176    0.000    5.294    1.647    3.294 
#    0.000    0.000    0.000    0.706    0.000    0.000 
#    0.000    0.000    0.000    0.000    0.000    0.000 
#
# Total GULP energy -421196.375249 kJ/mol
# GULP energy per Si atom -12388.128684 kJ/mol
# Density = 1.823637 g / cm^3
# Si number density = 18.277970 Si / 1000 Ang^3
#
#
#
# Elastic Constant Matrix: (Units=GPa)
#
#
# Indices 1 2 3 4 5 6 
#
# 1 65.1398 34.0820 50.7606 0.0000 0.0000 0.0000
# 2 34.0820 127.5159 47.5960 0.0000 0.0000 0.0000
# 3 50.7606 47.5960 116.8774 0.0000 0.0000 0.0000
# 4 0.0000 0.0000 0.0000 27.6222 0.0000 0.0000
# 5 0.0000 0.0000 0.0000 0.0000 17.0250 0.0000
# 6 0.0000 0.0000 0.0000 0.0000 0.0000 32.0244
#
#
#
# Elastic Compliance Matrix: (Units=1/GPa)
#
#
# Indices 1 2 3 4 5 6 
#
# 1 0.024137 -0.002993 -0.009264 0.000000 0.000000 0.000000
# 2 -0.002993 0.009619 -0.002617 0.000000 0.000000 0.000000
# 3 -0.009264 -0.002617 0.013645 0.000000 0.000000 0.000000
# 4 0.000000 0.000000 0.000000 0.036203 0.000000 0.000000
# 5 0.000000 0.000000 0.000000 0.000000 0.058737 0.000000
# 6 0.000000 0.000000 0.000000 0.000000 0.000000 0.031226
#
#
# Mechanical properties :
#
#
# Convention : Reuss Voigt Hill
#
# Bulk Modulus (GPa) = 56.64996 63.82335 60.23666
# Shear Modulus (GPa) = 23.90069 27.14063 25.52066
#
# Velocity S-wave (km/s) = 3.62003 3.85760 3.74070
# Velocity P-wave (km/s) = 6.96661 7.40509 7.18920
#
# Compressibility (1/GPa) = 0.01765226
#
# Stress axis : x y z
#
# Youngs Moduli (GPa) = 41.43101 103.96006 73.28698
#
# Poissons Ratio (x) = 0.31120 0.67890
# Poissons Ratio (y) = 0.12402 0.19180
# Poissons Ratio (z) = 0.38380 0.27208
#
# Static dielectric constant tensor:
#      x y z
#    x 4.106380 0.000000 0.000000 
#    y 0.000000 3.335370 0.000000 
#    z 0.000000 0.000000 3.430590 
# 
# 
# High freq. dielectric constant tensor:
#      x y z
#    x 1.694150 0.000000 0.000000 
#    y 0.000000 1.718860 0.000000 
#    z 0.000000 0.000000 1.698280 
# 
# From -- ./inp_files/30474.got.cif
#   From: 2010.03.12/outbox.cif.g09.slc.cpg/sg67_16_cif.got.tgz:30474.got - 2010.04.10 22:41:39.
