data_PCOD8280288
_publ_section_title
;
Structure prediction by ZEFSAII (Michael W. Deem and Ramdas Pophale) SiO2 
 PCOD8280288
Probable space group: C M M A
;
_chemical_formula_sum "Si O2"
_cell_formula_units_Z 72
_cell_length_a 25.835787
_cell_length_b 15.478740
_cell_length_c 8.732528
_cell_angle_alpha 90.000000
_cell_angle_beta 90.000000
_cell_angle_gamma 90.000000
_cell_volume 3492.185362
_symmetry_space_group_name_H-M "C M M A"
_symmetry_group_IT_number 67
_symmetry_cell_setting 'orthorhombic'
loop_
_space_group_symop_operation_xyz
x,y,z
-x,1/2-y,z
x,-y,-z
-x,1/2+y,-z
-x,-y,-z
x,1/2+y,-z
-x,y,z
x,1/2-y,z
1/2+x,1/2+y,z
1/2-x,-y,z
1/2+x,1/2-y,-z
1/2-x,y,-z
1/2-x,1/2-y,-z
1/2+x,y,-z
1/2-x,1/2+y,z
1/2+x,-y,z
loop_
_atom_site_type_symbol
_atom_site_label
_atom_site_fract_x
_atom_site_fract_y
_atom_site_fract_z
Si Si1 0.439926 0.586195 0.913120
Si Si2 0.289181 0.750000 0.225319
Si Si3 0.386601 0.750000 0.406381
Si Si4 0.269719 0.908279 0.671545
Si Si5 0.390373 0.750000 0.066443
Si Si6 0.113064 0.584670 0.397837
O O1 0.500000 0.605502 0.940400
O O2 0.429590 0.573855 0.733408
O O3 0.422053 0.500000 0.000000
O O4 0.407252 0.665701 0.975969
O O5 0.324203 0.750000 0.381189
O O6 0.253649 0.834646 0.219792
O O7 0.327544 0.750000 0.078571
O O8 0.414447 0.750000 0.239225
O O9 0.403642 0.665534 0.498756
O O10 0.250000 0.894762 0.500000
O O11 0.331404 0.901606 0.680380
O O12 0.250000 0.000000 0.735874
O O13 0.114427 0.500000 0.500000
#
# Coordination Sequence:
#
# PCOD8280288 Si02
#       6
#    16   8   8  16   8  16
#     4  11  26  46  67  89 127 177 219 273 341 395
#     4  10  20  35  63  94 127 170 211 244 311 388
#     4  10  20  35  65  94 121 167 207 273 305 375
#     4  11  18  32  58  95 133 168 201 255 322 385
#     4  10  22  45  69  91 131 172 215 265 327 403
#     4  12  22  38  66  97 129 165 222 270 317 383
#
# _framework density 20.617460999999999
#
# number of rings (size 3 to 8) (size 9 to 14) (size 15 to 20)
#    0.667    0.444    4.444    3.333    3.111    0.444 
#    0.000    4.444    0.000    0.000    0.000    0.000 
#    0.000    0.000    0.000    0.000    0.000    0.000 
#
# Total GULP energy -446499.853420 kJ/mol
# GULP energy per Si atom -12402.773706 kJ/mol
# Density = 2.057054 g / cm^3
# Si number density = 20.617461 Si / 1000 Ang^3
#
#
#
# Elastic Constant Matrix: (Units=GPa)
#
#
# Indices 1 2 3 4 5 6 
#
# 1 55.7682 56.8610 32.7952 0.0000 0.0000 0.0000
# 2 56.8610 172.2761 46.1287 0.0000 0.0000 0.0000
# 3 32.7952 46.1287 86.0893 0.0000 0.0000 0.0000
# 4 0.0000 0.0000 0.0000 22.3731 0.0000 0.0000
# 5 0.0000 0.0000 0.0000 0.0000 34.2325 0.0000
# 6 0.0000 0.0000 0.0000 0.0000 0.0000 9.6272
#
#
#
# Elastic Compliance Matrix: (Units=1/GPa)
#
#
# Indices 1 2 3 4 5 6 
#
# 1 0.030475 -0.008114 -0.007261 0.000000 0.000000 0.000000
# 2 -0.008114 0.008937 -0.001698 0.000000 0.000000 0.000000
# 3 -0.007261 -0.001698 0.015292 0.000000 0.000000 0.000000
# 4 0.000000 0.000000 0.000000 0.044697 0.000000 0.000000
# 5 0.000000 0.000000 0.000000 0.000000 0.029212 0.000000
# 6 0.000000 0.000000 0.000000 0.000000 0.000000 0.103873
#
#
# Mechanical properties :
#
#
# Convention : Reuss Voigt Hill
#
# Bulk Modulus (GPa) = 48.64495 65.07815 56.86155
# Shear Modulus (GPa) = 18.28261 25.13646 21.70954
#
# Velocity S-wave (km/s) = 2.98107 3.49547 3.24847
# Velocity P-wave (km/s) = 5.95771 6.92273 6.45827
#
# Compressibility (1/GPa) = 0.02055712
#
# Stress axis : x y z
#
# Youngs Moduli (GPa) = 32.81422 111.88983 65.39464
#
# Poissons Ratio (x) = 0.90788 0.47486
# Poissons Ratio (y) = 0.26626 0.11103
# Poissons Ratio (z) = 0.23828 0.18997
#
# Static dielectric constant tensor:
#      x y z
#    x 3.657060 0.000000 0.000000 
#    y 0.000000 6.403090 0.000000 
#    z 0.000000 0.000000 3.498540 
# 
# 
# High freq. dielectric constant tensor:
#      x y z
#    x 1.792950 0.000000 0.000000 
#    y 0.000000 1.825950 0.000000 
#    z 0.000000 0.000000 1.791290 
# 
# From -- ./inp_files/13376.got.cif
#   From: 2010.03.12/outbox.cif.g09.slc.cpg/sg67_7_cif.got.tgz:13376.got - 2010.04.10 22:41:39.
