data_PCOD8280701
_publ_section_title
;
Structure prediction by ZEFSAII (Michael W. Deem and Ramdas Pophale) SiO2 
 PCOD8280701
Probable space group: C M M A
;
_chemical_formula_sum "Si O2"
_cell_formula_units_Z 88
_cell_length_a 21.784086
_cell_length_b 9.412270
_cell_length_c 22.997497
_cell_angle_alpha 90.000000
_cell_angle_beta 90.000000
_cell_angle_gamma 90.000000
_cell_volume 4715.353871
_symmetry_space_group_name_H-M "C M M A"
_symmetry_group_IT_number 67
_symmetry_cell_setting 'orthorhombic'
loop_
_space_group_symop_operation_xyz
x,y,z
-x,1/2-y,z
x,-y,-z
-x,1/2+y,-z
-x,-y,-z
x,1/2+y,-z
-x,y,z
x,1/2-y,z
1/2+x,1/2+y,z
1/2-x,-y,z
1/2+x,1/2-y,-z
1/2-x,y,-z
1/2-x,1/2-y,-z
1/2+x,y,-z
1/2-x,1/2+y,z
1/2+x,-y,z
loop_
_atom_site_type_symbol
_atom_site_label
_atom_site_fract_x
_atom_site_fract_y
_atom_site_fract_z
Si Si1 0.369479 0.588069 0.283035
Si Si2 0.325813 0.591149 0.550637
Si Si3 0.927107 0.088939 0.945563
Si Si4 0.929601 0.415796 0.397965
Si Si5 0.571818 0.915756 0.167271
Si Si6 0.250000 0.000000 0.654787
O O1 0.386683 0.750000 0.274113
O O2 0.414014 0.527936 0.333160
O O3 0.387594 0.520099 0.220941
O O4 0.298239 0.574929 0.302108
O O5 0.291688 0.500000 0.500000
O O6 0.337506 0.750000 0.527903
O O7 0.390403 0.510798 0.558510
O O8 0.286496 0.603274 0.610442
O O9 0.900789 0.250000 0.946103
O O10 0.000000 0.093769 0.949566
O O11 0.906328 0.008189 0.887399
O O12 0.900388 0.000000 0.000000
O O13 0.910983 0.250000 0.404073
O O14 0.000000 0.442007 0.412528
O O15 0.500000 0.938582 0.181311
O O16 0.585030 0.750000 0.153799
#
# Coordination Sequence:
#
# PCOD8280701 Si02
#       6
#    16  16  16  16  16   8
#     4   9  17  31  51  73  97 128 165 202 242 291
#     4  11  23  37  55  77 100 128 162 203 250 298
#     4   9  16  26  41  64  97 134 168 201 237 279
#     4   9  18  34  55  77 102 132 164 199 242 295
#     4   9  16  27  46  72 100 130 163 197 236 285
#     4  10  21  36  54  74  99 126 162 206 250 292
#
# _framework density 18.662438999999999
#
# number of rings (size 3 to 8) (size 9 to 14) (size 15 to 20)
#    0.000    2.545    0.000    2.455    0.000    8.000 
#    0.000    4.545    0.000    4.364    0.000    0.636 
#    0.000    4.364    0.000    0.000    0.000    0.000 
#
# Total GULP energy -545182.610176 kJ/mol
# GULP energy per Si atom -12390.513868 kJ/mol
# Density = 1.861996 g / cm^3
# Si number density = 18.662439 Si / 1000 Ang^3
#
#
#
# Elastic Constant Matrix: (Units=GPa)
#
#
# Indices 1 2 3 4 5 6 
#
# 1 79.6702 30.0827 40.0195 0.0000 0.0000 0.0000
# 2 30.0827 112.9587 55.4269 0.0000 0.0000 0.0000
# 3 40.0195 55.4269 140.6538 0.0000 0.0000 0.0000
# 4 0.0000 0.0000 0.0000 27.1742 0.0000 0.0000
# 5 0.0000 0.0000 0.0000 0.0000 17.4518 0.0000
# 6 0.0000 0.0000 0.0000 0.0000 0.0000 9.5126
#
#
#
# Elastic Compliance Matrix: (Units=1/GPa)
#
#
# Indices 1 2 3 4 5 6 
#
# 1 0.015143 -0.002379 -0.003371 0.000000 0.000000 0.000000
# 2 -0.002379 0.011349 -0.003795 0.000000 0.000000 0.000000
# 3 -0.003371 -0.003795 0.009564 0.000000 0.000000 0.000000
# 4 0.000000 0.000000 0.000000 0.036800 0.000000 0.000000
# 5 0.000000 0.000000 0.000000 0.000000 0.057301 0.000000
# 6 0.000000 0.000000 0.000000 0.000000 0.000000 0.105124
#
#
# Mechanical properties :
#
#
# Convention : Reuss Voigt Hill
#
# Bulk Modulus (GPa) = 58.94193 64.92676 61.93434
# Shear Modulus (GPa) = 19.22883 24.67795 21.95339
#
# Velocity S-wave (km/s) = 3.21339 3.64033 3.43350
# Velocity P-wave (km/s) = 6.73940 7.24810 6.99838
#
# Compressibility (1/GPa) = 0.01696585
#
# Stress axis : x y z
#
# Youngs Moduli (GPa) = 66.03548 88.11690 104.55362
#
# Poissons Ratio (x) = 0.20960 0.35248
# Poissons Ratio (y) = 0.15708 0.39681
# Poissons Ratio (z) = 0.22263 0.33443
#
# Static dielectric constant tensor:
#      x y z
#    x 3.152220 0.000000 0.000000 
#    y 0.000000 3.296640 0.000000 
#    z 0.000000 0.000000 3.690920 
# 
# 
# High freq. dielectric constant tensor:
#      x y z
#    x 1.694410 0.000000 0.000000 
#    y 0.000000 1.707680 0.000000 
#    z 0.000000 0.000000 1.730880 
# 
# From -- ./inp_files/42365.got.cif
#   From: 2010.03.12/outbox.cif.g09.slc.cpg/sg67_22_cif.got.tgz:42365.got - 2010.04.10 22:41:39.
