data_PCOD8280370
_publ_section_title
;
Structure prediction by ZEFSAII (Michael W. Deem and Ramdas Pophale) SiO2 
 PCOD8280370
Probable space group: C M M A
;
_chemical_formula_sum "Si O2"
_cell_formula_units_Z 80
_cell_length_a 14.810062
_cell_length_b 22.759403
_cell_length_c 11.637810
_cell_angle_alpha 90.000000
_cell_angle_beta 90.000000
_cell_angle_gamma 90.000000
_cell_volume 3922.735314
_symmetry_space_group_name_H-M "C M M A"
_symmetry_group_IT_number 67
_symmetry_cell_setting 'orthorhombic'
loop_
_space_group_symop_operation_xyz
x,y,z
-x,1/2-y,z
x,-y,-z
-x,1/2+y,-z
-x,-y,-z
x,1/2+y,-z
-x,y,z
x,1/2-y,z
1/2+x,1/2+y,z
1/2-x,-y,z
1/2+x,1/2-y,-z
1/2-x,y,-z
1/2-x,1/2-y,-z
1/2+x,y,-z
1/2-x,1/2+y,z
1/2+x,-y,z
loop_
_atom_site_type_symbol
_atom_site_label
_atom_site_fract_x
_atom_site_fract_y
_atom_site_fract_z
Si Si1 0.601749 0.871676 0.229297
Si Si2 0.746522 0.932185 0.635764
Si Si3 0.897278 0.635394 0.214600
Si Si4 0.098940 0.750000 0.851820
Si Si5 0.337479 0.750000 0.912651
Si Si6 0.352297 0.568915 0.001884
O O1 0.500000 0.865906 0.277416
O O2 0.661686 0.901821 0.324967
O O3 0.647129 0.808512 0.196600
O O4 0.597164 0.910002 0.114801
O O5 0.750000 0.928717 0.500000
O O6 0.659840 0.897211 0.685219
O O7 0.750000 0.000000 0.678568
O O8 0.845974 0.694063 0.171328
O O9 0.000000 0.648848 0.258214
O O10 0.905711 0.591409 0.108321
O O11 0.000000 0.750000 0.798607
O O12 0.085062 0.750000 0.990619
O O13 0.250000 0.750000 0.000000
O O14 0.353039 0.500000 0.000000
O O15 0.250000 0.593526 0.000000
#
# Coordination Sequence:
#
# PCOD8280370 Si02
#       6
#    16  16  16   8   8  16
#     4  11  22  39  64  93 125 163 210 258 315 387
#     4  11  26  47  66  87 121 168 222 275 327 384
#     4  12  24  40  64  97 132 167 214 267 324 388
#     4  10  20  36  58  91 129 163 196 238 302 381
#     4  12  22  38  64  95 137 177 204 248 314 389
#     4  11  21  35  57  90 133 169 202 253 320 392
#
# _framework density 20.393934000000002
#
# number of rings (size 3 to 8) (size 9 to 14) (size 15 to 20)
#    0.000    0.800    4.000    4.500    0.000    4.800 
#    0.000    4.000    0.000    2.400    0.000    0.000 
#    0.000    0.000    0.000    0.000    0.000    0.000 
#
# Total GULP energy -495762.647350 kJ/mol
# GULP energy per Si atom -12394.066184 kJ/mol
# Density = 2.034752 g / cm^3
# Si number density = 20.393934 Si / 1000 Ang^3
#
#
#
# Elastic Constant Matrix: (Units=GPa)
#
#
# Indices 1 2 3 4 5 6 
#
# 1 129.3933 49.5148 32.4346 0.0000 0.0000 0.0000
# 2 49.5148 145.3255 53.2786 0.0000 0.0000 0.0000
# 3 32.4346 53.2786 87.0449 0.0000 0.0000 0.0000
# 4 0.0000 0.0000 0.0000 54.8022 0.0000 0.0000
# 5 0.0000 0.0000 0.0000 0.0000 34.8698 0.0000
# 6 0.0000 0.0000 0.0000 0.0000 0.0000 26.8960
#
#
#
# Elastic Compliance Matrix: (Units=1/GPa)
#
#
# Indices 1 2 3 4 5 6 
#
# 1 0.009132 -0.002403 -0.001932 0.000000 0.000000 0.000000
# 2 -0.002403 0.009504 -0.004922 0.000000 0.000000 0.000000
# 3 -0.001932 -0.004922 0.015221 0.000000 0.000000 0.000000
# 4 0.000000 0.000000 0.000000 0.018247 0.000000 0.000000
# 5 0.000000 0.000000 0.000000 0.000000 0.028678 0.000000
# 6 0.000000 0.000000 0.000000 0.000000 0.000000 0.037180
#
#
# Mechanical properties :
#
#
# Convention : Reuss Voigt Hill
#
# Bulk Modulus (GPa) = 65.17503 70.24664 67.71084
# Shear Modulus (GPa) = 35.31274 38.41599 36.86437
#
# Velocity S-wave (km/s) = 4.16568 4.34487 4.25622
# Velocity P-wave (km/s) = 7.42729 7.72594 7.57809
#
# Compressibility (1/GPa) = 0.01534330
#
# Stress axis : x y z
#
# Youngs Moduli (GPa) = 109.50163 105.21437 65.69946
#
# Poissons Ratio (x) = 0.25286 0.12692
# Poissons Ratio (y) = 0.26316 0.32337
# Poissons Ratio (z) = 0.21154 0.51786
#
# Static dielectric constant tensor:
#      x y z
#    x 3.996640 0.000000 0.000000 
#    y 0.000000 4.054890 0.000000 
#    z 0.000000 0.000000 3.428570 
# 
# 
# High freq. dielectric constant tensor:
#      x y z
#    x 1.810760 0.000000 0.000000 
#    y 0.000000 1.817810 0.000000 
#    z 0.000000 0.000000 1.761790 
# 
# From -- ./inp_files/18011.got.cif
#   From: 2010.03.12/outbox.cif.g09.slc.cpg/sg67_10_cif.got.tgz:18011.got - 2010.04.10 22:41:39.
