data_PCOD8280180
_publ_section_title
;
Structure prediction by ZEFSAII (Michael W. Deem and Ramdas Pophale) SiO2 
 PCOD8280180
Probable space group: C M M A
;
_chemical_formula_sum "Si O2"
_cell_formula_units_Z 96
_cell_length_a 14.565667
_cell_length_b 20.116360
_cell_length_c 15.527760
_cell_angle_alpha 90.000000
_cell_angle_beta 90.000000
_cell_angle_gamma 90.000000
_cell_volume 4549.761023
_symmetry_space_group_name_H-M "C M M A"
_symmetry_group_IT_number 67
_symmetry_cell_setting 'orthorhombic'
loop_
_space_group_symop_operation_xyz
x,y,z
-x,1/2-y,z
x,-y,-z
-x,1/2+y,-z
-x,-y,-z
x,1/2+y,-z
-x,y,z
x,1/2-y,z
1/2+x,1/2+y,z
1/2-x,-y,z
1/2+x,1/2-y,-z
1/2-x,y,-z
1/2-x,1/2-y,-z
1/2+x,y,-z
1/2-x,1/2+y,z
1/2+x,-y,z
loop_
_atom_site_type_symbol
_atom_site_label
_atom_site_fract_x
_atom_site_fract_y
_atom_site_fract_z
Si Si1 0.850404 0.468698 0.584678
Si Si2 0.897146 0.121828 0.150630
Si Si3 0.607909 0.676842 0.630580
Si Si4 0.400694 0.979797 0.772173
Si Si5 0.705427 0.853353 0.801412
Si Si6 0.898555 0.176149 0.970279
O O1 0.899895 0.500000 0.500000
O O2 0.750000 0.500000 0.587775
O O3 0.849574 0.386866 0.579794
O O4 0.901607 0.494117 0.669710
O O5 0.815899 0.158386 0.204221
O O6 0.000000 0.149967 0.172693
O O7 0.890154 0.045020 0.172281
O O8 0.876001 0.126823 0.048876
O O9 0.500000 0.663429 0.642676
O O10 0.623675 0.750000 0.585467
O O11 0.655006 0.683979 0.724071
O O12 0.500000 0.947133 0.793913
O O13 0.317165 0.931635 0.795793
O O14 0.673827 0.827446 0.893764
O O15 0.894715 0.250000 0.009970
O O16 0.000000 0.160332 0.933321
#
# Coordination Sequence:
#
# PCOD8280180 Si02
#       6
#    16  16  16  16  16  16
#     4  10  20  36  59  88 119 153 192 232 283 349
#     4  10  22  36  50  73 109 149 186 227 275 333
#     4  10  21  37  60  91 122 151 189 243 301 347
#     4  10  20  35  56  82 110 141 181 230 283 337
#     4  11  19  33  57  81 108 143 186 233 285 338
#     4  10  21  36  53  75 103 137 183 234 280 331
#
# _framework density 21.100009
#
# number of rings (size 3 to 8) (size 9 to 14) (size 15 to 20)
#    0.000    1.833    0.000    6.500    0.000    5.333 
#    0.000    5.833    0.000    1.000    0.000    2.333 
#    0.000    0.000    0.000    0.000    0.000    0.000 
#
# Total GULP energy -594646.811682 kJ/mol
# GULP energy per Si atom -12388.475243 kJ/mol
# Density = 2.105198 g / cm^3
# Si number density = 21.100009 Si / 1000 Ang^3
#
#
#
# Elastic Constant Matrix: (Units=GPa)
#
#
# Indices 1 2 3 4 5 6 
#
# 1 145.5583 30.3599 15.7773 0.0000 0.0000 0.0000
# 2 30.3599 136.1723 60.3212 0.0000 0.0000 0.0000
# 3 15.7773 60.3212 92.1868 0.0000 0.0000 0.0000
# 4 0.0000 0.0000 0.0000 20.8932 0.0000 0.0000
# 5 0.0000 0.0000 0.0000 0.0000 17.4372 0.0000
# 6 0.0000 0.0000 0.0000 0.0000 0.0000 3.2523
#
#
#
# Elastic Compliance Matrix: (Units=1/GPa)
#
#
# Indices 1 2 3 4 5 6 
#
# 1 0.007209 -0.001494 -0.000256 0.000000 0.000000 0.000000
# 2 -0.001494 0.010651 -0.006713 0.000000 0.000000 0.000000
# 3 -0.000256 -0.006713 0.015284 0.000000 0.000000 0.000000
# 4 0.000000 0.000000 0.000000 0.047863 0.000000 0.000000
# 5 0.000000 0.000000 0.000000 0.000000 0.057349 0.000000
# 6 0.000000 0.000000 0.000000 0.000000 0.000000 0.307471
#
#
# Mechanical properties :
#
#
# Convention : Reuss Voigt Hill
#
# Bulk Modulus (GPa) = 61.66345 65.20378 63.43362
# Shear Modulus (GPa) = 10.68012 26.14715 18.41363
#
# Velocity S-wave (km/s) = 2.25225 3.52405 2.95733
# Velocity P-wave (km/s) = 6.00428 6.89405 6.46449
#
# Compressibility (1/GPa) = 0.01621706
#
# Stress axis : x y z
#
# Youngs Moduli (GPa) = 138.70673 93.89185 65.42691
#
# Poissons Ratio (x) = 0.14025 0.01678
# Poissons Ratio (y) = 0.20720 0.43924
# Poissons Ratio (z) = 0.03557 0.63033
#
# Static dielectric constant tensor:
#      x y z
#    x 4.142640 0.000000 0.000000 
#    y 0.000000 3.926130 0.000000 
#    z 0.000000 0.000000 3.926740 
# 
# 
# High freq. dielectric constant tensor:
#      x y z
#    x 1.839970 0.000000 0.000000 
#    y 0.000000 1.822570 0.000000 
#    z 0.000000 0.000000 1.801280 
# 
# From -- ./inp_files/27154.got.cif
#   From: 2010.03.12/outbox.cif.g09.slc.cpg/sg67_14_cif.got.tgz:27154.got - 2010.04.10 22:41:39.
