data_PCOD8280596
_publ_section_title
;
Structure prediction by ZEFSAII (Michael W. Deem and Ramdas Pophale) SiO2 
 PCOD8280596
Probable space group: C M M A
;
_chemical_formula_sum "Si O2"
_cell_formula_units_Z 72
_cell_length_a 9.691756
_cell_length_b 14.712974
_cell_length_c 25.483818
_cell_angle_alpha 90.000000
_cell_angle_beta 90.000000
_cell_angle_gamma 90.000000
_cell_volume 3633.853663
_symmetry_space_group_name_H-M "C M M A"
_symmetry_group_IT_number 67
_symmetry_cell_setting 'orthorhombic'
loop_
_space_group_symop_operation_xyz
x,y,z
-x,1/2-y,z
x,-y,-z
-x,1/2+y,-z
-x,-y,-z
x,1/2+y,-z
-x,y,z
x,1/2-y,z
1/2+x,1/2+y,z
1/2-x,-y,z
1/2+x,1/2-y,-z
1/2-x,y,-z
1/2-x,1/2-y,-z
1/2+x,y,-z
1/2-x,1/2+y,z
1/2+x,-y,z
loop_
_atom_site_type_symbol
_atom_site_label
_atom_site_fract_x
_atom_site_fract_y
_atom_site_fract_z
Si Si1 0.500000 0.750000 0.305982
Si Si2 0.000000 0.105897 0.800320
Si Si3 0.500000 0.395445 0.785157
Si Si4 0.500000 0.750000 0.714357
Si Si5 0.274187 0.750000 0.630230
Si Si6 0.838046 0.250000 0.052272
Si Si7 0.261902 0.105445 0.863996
Si Si8 0.332757 0.091549 0.449229
O O1 0.500000 0.659080 0.269872
O O2 0.621111 0.750000 0.348157
O O3 0.878284 0.136080 0.838068
O O4 0.000000 0.159390 0.747236
O O5 0.000000 0.003680 0.778061
O O6 0.630747 0.368251 0.819103
O O7 0.362805 0.750000 0.681761
O O8 0.311619 0.838932 0.597482
O O9 0.797932 0.340533 0.083666
O O10 0.000000 0.250000 0.038841
O O11 0.750000 0.250000 0.000000
O O12 0.250000 0.000000 0.879538
O O13 0.500000 0.076911 0.459109
O O14 0.250000 0.130270 0.500000
O O15 0.250000 0.000000 0.433727
#
# Coordination Sequence:
#
# PCOD8280596 Si02
#       8
#     4   8   8   4   8   8  16  16
#     4  12  26  36  65  96 131 176 216 258 320 378
#     4  10  22  36  70  89 125 163 219 258 307 368
#     4  10  20  42  62  95 121 169 217 262 307 362
#     4  12  22  42  55  94 131 174 194 264 316 376
#     4  12  27  41  63  95 140 171 210 258 327 383
#     4  12  26  42  63  93 131 165 203 260 323 383
#     4  10  21  41  67  94 122 165 213 263 309 371
#     4  11  24  45  72  97 125 167 217 268 318 382
#
# _framework density 19.813676999999998
#
# number of rings (size 3 to 8) (size 9 to 14) (size 15 to 20)
#    0.000    1.111    2.222    4.333    4.667    2.222 
#    0.000    1.111    0.000    0.000    0.000    0.000 
#    0.000    0.000    0.000    0.000    0.000    0.000 
#
# Total GULP energy -446155.576776 kJ/mol
# GULP energy per Si atom -12393.210466 kJ/mol
# Density = 1.976858 g / cm^3
# Si number density = 19.813677 Si / 1000 Ang^3
#
#
#
# Elastic Constant Matrix: (Units=GPa)
#
#
# Indices 1 2 3 4 5 6 
#
# 1 203.3563 51.3192 75.9854 0.0000 0.0000 0.0000
# 2 51.3192 91.3554 64.4572 0.0000 0.0000 0.0000
# 3 75.9854 64.4572 132.6392 0.0000 0.0000 0.0000
# 4 0.0000 0.0000 0.0000 66.7048 0.0000 0.0000
# 5 0.0000 0.0000 0.0000 0.0000 62.6786 0.0000
# 6 0.0000 0.0000 0.0000 0.0000 0.0000 29.8702
#
#
#
# Elastic Compliance Matrix: (Units=1/GPa)
#
#
# Indices 1 2 3 4 5 6 
#
# 1 0.006395 -0.001533 -0.002918 0.000000 0.000000 0.000000
# 2 -0.001533 0.017025 -0.007395 0.000000 0.000000 0.000000
# 3 -0.002918 -0.007395 0.012805 0.000000 0.000000 0.000000
# 4 0.000000 0.000000 0.000000 0.014991 0.000000 0.000000
# 5 0.000000 0.000000 0.000000 0.000000 0.015954 0.000000
# 6 0.000000 0.000000 0.000000 0.000000 0.000000 0.033478
#
#
# Mechanical properties :
#
#
# Convention : Reuss Voigt Hill
#
# Bulk Modulus (GPa) = 79.79951 90.09717 84.94834
# Shear Modulus (GPa) = 38.90437 47.55665 43.23051
#
# Velocity S-wave (km/s) = 4.43596 4.90449 4.67610
# Velocity P-wave (km/s) = 8.16084 8.81153 8.49242
#
# Compressibility (1/GPa) = 0.01253140
#
# Stress axis : x y z
#
# Youngs Moduli (GPa) = 156.37530 58.73560 78.09509
#
# Poissons Ratio (x) = 0.09006 0.22791
# Poissons Ratio (y) = 0.23976 0.57754
# Poissons Ratio (z) = 0.45636 0.43437
#
# Static dielectric constant tensor:
#      x y z
#    x 4.013050 0.000000 0.000000 
#    y 0.000000 3.844670 0.000000 
#    z 0.000000 0.000000 3.531380 
# 
# 
# High freq. dielectric constant tensor:
#      x y z
#    x 1.800990 0.000000 0.000000 
#    y 0.000000 1.784800 0.000000 
#    z 0.000000 0.000000 1.769160 
# 
# From -- ./inp_files/43182.got.cif
#   From: 2010.03.12/outbox.cif.g09.slc.cpg/sg67_22_cif.got.tgz:43182.got - 2010.04.10 22:41:39.
