data_PCOD8280498
_publ_section_title
;
Structure prediction by ZEFSAII (Michael W. Deem and Ramdas Pophale) SiO2 
 PCOD8280498
Probable space group: C M M A
;
_chemical_formula_sum "Si O2"
_cell_formula_units_Z 72
_cell_length_a 8.667438
_cell_length_b 16.117365
_cell_length_c 24.526352
_cell_angle_alpha 90.000000
_cell_angle_beta 90.000000
_cell_angle_gamma 90.000000
_cell_volume 3426.239691
_symmetry_space_group_name_H-M "C M M A"
_symmetry_group_IT_number 67
_symmetry_cell_setting 'orthorhombic'
loop_
_space_group_symop_operation_xyz
x,y,z
-x,1/2-y,z
x,-y,-z
-x,1/2+y,-z
-x,-y,-z
x,1/2+y,-z
-x,y,z
x,1/2-y,z
1/2+x,1/2+y,z
1/2-x,-y,z
1/2+x,1/2-y,-z
1/2-x,y,-z
1/2-x,1/2-y,-z
1/2+x,y,-z
1/2-x,1/2+y,z
1/2+x,-y,z
loop_
_atom_site_type_symbol
_atom_site_label
_atom_site_fract_x
_atom_site_fract_y
_atom_site_fract_z
Si Si1 0.816225 0.750000 0.439905
Si Si2 0.182022 0.344751 0.945172
Si Si3 0.181183 0.412080 0.381667
Si Si4 0.822918 0.844352 0.279963
Si Si5 0.319023 0.086286 0.167296
O O1 0.750000 0.750000 0.500000
O O2 0.759950 0.834335 0.411337
O O3 0.000000 0.750000 0.440121
O O4 0.236055 0.250000 0.943270
O O5 0.253223 0.385931 0.890660
O O6 0.000000 0.353499 0.946549
O O7 0.250000 0.387369 0.000000
O O8 0.250000 0.500000 0.402677
O O9 0.215358 0.402681 0.317057
O O10 0.000000 0.411190 0.393242
O O11 0.799423 0.750000 0.298735
O O12 0.777259 0.850782 0.216182
O O13 0.000000 0.872456 0.288517
O O14 0.500000 0.079371 0.159527
O O15 0.250000 0.000000 0.185794
#
# Coordination Sequence:
#
# PCOD8280498 Si02
#       5
#     8  16  16  16  16
#     4  12  26  48  74 104 140 180 225 274 325 382
#     4   9  18  34  54  74  99 135 184 237 294 361
#     4  12  25  43  68 101 138 179 224 273 327 386
#     4  10  20  37  62  89 121 162 207 257 318 381
#     4  10  21  35  52  78 111 149 192 242 300 368
#
# _framework density 21.014289999999999
#
# number of rings (size 3 to 8) (size 9 to 14) (size 15 to 20)
#    0.000    1.556    1.111    4.333    0.000    7.111 
#    0.000    4.444    0.000    4.000    0.000    0.000 
#    0.000    0.000    0.000    0.000    0.000    0.000 
#
# Total GULP energy -446361.711733 kJ/mol
# GULP energy per Si atom -12398.936437 kJ/mol
# Density = 2.096646 g / cm^3
# Si number density = 21.014290 Si / 1000 Ang^3
#
#
#
# Elastic Constant Matrix: (Units=GPa)
#
#
# Indices 1 2 3 4 5 6 
#
# 1 98.6981 50.1292 46.4479 0.0000 0.0000 0.0000
# 2 50.1292 122.6422 48.5553 0.0000 0.0000 0.0000
# 3 46.4479 48.5553 129.5081 0.0000 0.0000 0.0000
# 4 0.0000 0.0000 0.0000 23.9901 0.0000 0.0000
# 5 0.0000 0.0000 0.0000 0.0000 35.8517 0.0000
# 6 0.0000 0.0000 0.0000 0.0000 0.0000 32.1769
#
#
#
# Elastic Compliance Matrix: (Units=1/GPa)
#
#
# Indices 1 2 3 4 5 6 
#
# 1 0.013929 -0.004363 -0.003360 0.000000 0.000000 0.000000
# 2 -0.004363 0.010942 -0.002537 0.000000 0.000000 0.000000
# 3 -0.003360 -0.002537 0.009878 0.000000 0.000000 0.000000
# 4 0.000000 0.000000 0.000000 0.041684 0.000000 0.000000
# 5 0.000000 0.000000 0.000000 0.000000 0.027893 0.000000
# 6 0.000000 0.000000 0.000000 0.000000 0.000000 0.031078
#
#
# Mechanical properties :
#
#
# Convention : Reuss Voigt Hill
#
# Bulk Modulus (GPa) = 70.28475 71.23483 70.75979
# Shear Modulus (GPa) = 31.12021 32.11814 31.61918
#
# Velocity S-wave (km/s) = 3.85243 3.91371 3.88319
# Velocity P-wave (km/s) = 7.30117 7.37528 7.33832
#
# Compressibility (1/GPa) = 0.01422784
#
# Stress axis : x y z
#
# Youngs Moduli (GPa) = 71.79172 91.39206 101.23658
#
# Poissons Ratio (x) = 0.39877 0.34013
# Poissons Ratio (y) = 0.31325 0.25688
# Poissons Ratio (z) = 0.24121 0.23190
#
# Static dielectric constant tensor:
#      x y z
#    x 3.639440 0.000000 0.000000 
#    y 0.000000 3.843200 0.000000 
#    z 0.000000 0.000000 3.882010 
# 
# 
# High freq. dielectric constant tensor:
#      x y z
#    x 1.807760 0.000000 0.000000 
#    y 0.000000 1.823630 0.000000 
#    z 0.000000 0.000000 1.838380 
# 
# From -- ./inp_files/42124.got.cif
#   From: 2010.03.12/outbox.cif.g09.slc.cpg/sg67_22_cif.got.tgz:42124.got - 2010.04.10 22:41:39.
