data_PCOD8280058
_publ_section_title
;
Structure prediction by ZEFSAII (Michael W. Deem and Ramdas Pophale) SiO2 
 PCOD8280058
Probable space group: C M M A
;
_chemical_formula_sum "Si O2"
_cell_formula_units_Z 128
_cell_length_a 18.177115
_cell_length_b 24.966733
_cell_length_c 17.226235
_cell_angle_alpha 90.000000
_cell_angle_beta 90.000000
_cell_angle_gamma 90.000000
_cell_volume 7817.664694
_symmetry_space_group_name_H-M "C M M A"
_symmetry_group_IT_number 67
_symmetry_cell_setting 'orthorhombic'
loop_
_space_group_symop_operation_xyz
x,y,z
-x,1/2-y,z
x,-y,-z
-x,1/2+y,-z
-x,-y,-z
x,1/2+y,-z
-x,y,z
x,1/2-y,z
1/2+x,1/2+y,z
1/2-x,-y,z
1/2+x,1/2-y,-z
1/2-x,y,-z
1/2-x,1/2-y,-z
1/2+x,y,-z
1/2-x,1/2+y,z
1/2+x,-y,z
loop_
_atom_site_type_symbol
_atom_site_label
_atom_site_fract_x
_atom_site_fract_y
_atom_site_fract_z
Si Si1 0.150828 0.094186 0.675611
Si Si2 0.083712 0.189002 0.589691
Si Si3 0.321083 0.903508 0.331402
Si Si4 0.681323 0.188977 0.551701
Si Si5 0.831050 0.563956 0.998185
Si Si6 0.333176 0.561906 0.167257
Si Si7 0.915189 0.504859 0.590088
Si Si8 0.158693 0.442135 0.837333
O O1 0.135146 0.153509 0.644665
O O2 0.236157 0.078603 0.666605
O O3 0.129668 0.094568 0.767026
O O4 0.102317 0.051717 0.629385
O O5 0.092717 0.250000 0.618246
O O6 0.108258 0.183866 0.500233
O O7 0.000000 0.169222 0.595077
O O8 0.330375 0.845770 0.371062
O O9 0.350579 0.900660 0.241959
O O10 0.365872 0.947684 0.377503
O O11 0.695885 0.250000 0.578277
O O12 0.750000 0.168077 0.500000
O O13 0.868121 0.582721 0.915655
O O14 0.825298 0.500000 0.000000
O O15 0.750000 0.589864 0.000000
O O16 0.873558 0.579250 0.079066
O O17 0.246304 0.558673 0.154410
O O18 0.365896 0.502773 0.183648
O O19 0.896825 0.500000 0.500000
O O20 0.000000 0.519306 0.604650
#
# Coordination Sequence:
#
# PCOD8280058 Si02
#       8
#    16  16  16  16  16  16  16  16
#     4  11  19  31  49  71  96 122 158 199 235 280
#     4  10  21  36  53  71  93 123 160 201 241 280
#     4  11  20  30  49  72  92 122 158 201 239 281
#     4  10  20  35  51  69  91 120 162 205 242 276
#     4   7  10  18  35  57  89 122 148 182 225 269
#     4   8  13  23  37  63  94 119 152 189 227 277
#     4  11  24  35  43  61  95 132 161 189 233 292
#     4   8  13  22  38  64  92 121 152 187 225 277
#
# _framework density 16.373176000000001
#
# number of rings (size 3 to 8) (size 9 to 14) (size 15 to 20)
#    0.000    2.500    2.500    3.000    0.000    2.000 
#    0.000    0.000    0.000    0.000    0.000    3.500 
#    0.000    5.000    0.000    3.375    0.000    0.875 
#
# Total GULP energy -792899.410611 kJ/mol
# GULP energy per Si atom -12389.053291 kJ/mol
# Density = 1.633591 g / cm^3
# Si number density = 16.373176 Si / 1000 Ang^3
#
#
#
# Elastic Constant Matrix: (Units=GPa)
#
#
# Indices 1 2 3 4 5 6 
#
# 1 49.0028 16.7267 32.8926 0.0000 0.0000 0.0000
# 2 16.7267 65.6967 57.9961 0.0000 0.0000 0.0000
# 3 32.8926 57.9961 169.4795 0.0000 0.0000 0.0000
# 4 0.0000 0.0000 0.0000 16.8020 0.0000 0.0000
# 5 0.0000 0.0000 0.0000 0.0000 4.4529 0.0000
# 6 0.0000 0.0000 0.0000 0.0000 0.0000 16.8253
#
#
#
# Elastic Compliance Matrix: (Units=1/GPa)
#
#
# Indices 1 2 3 4 5 6 
#
# 1 0.023829 -0.002843 -0.003652 0.000000 0.000000 0.000000
# 2 -0.002843 0.022149 -0.007028 0.000000 0.000000 0.000000
# 3 -0.003652 -0.007028 0.009014 0.000000 0.000000 0.000000
# 4 0.000000 0.000000 0.000000 0.059517 0.000000 0.000000
# 5 0.000000 0.000000 0.000000 0.000000 0.224571 0.000000
# 6 0.000000 0.000000 0.000000 0.000000 0.000000 0.059434
#
#
# Mechanical properties :
#
#
# Convention : Reuss Voigt Hill
#
# Bulk Modulus (GPa) = 35.78232 55.48998 45.63615
# Shear Modulus (GPa) = 11.49754 19.38694 15.44224
#
# Velocity S-wave (km/s) = 2.65281 3.44476 3.07439
# Velocity P-wave (km/s) = 5.59329 7.05593 6.36675
#
# Compressibility (1/GPa) = 0.02794676
#
# Stress axis : x y z
#
# Youngs Moduli (GPa) = 41.96627 45.14804 110.93794
#
# Poissons Ratio (x) = 0.12836 0.40512
# Poissons Ratio (y) = 0.11932 0.77964
# Poissons Ratio (z) = 0.15325 0.31729
#
# Static dielectric constant tensor:
#      x y z
#    x 2.837560 0.000000 0.000000 
#    y 0.000000 2.820310 0.000000 
#    z 0.000000 0.000000 3.628260 
# 
# 
# High freq. dielectric constant tensor:
#      x y z
#    x 1.598170 0.000000 0.000000 
#    y 0.000000 1.589120 0.000000 
#    z 0.000000 0.000000 1.646130 
# 
# From -- ./inp_files/34590.got.cif
#   From: 2010.03.12/outbox.cif.g09.slc.cpg/sg67_18_cif.got.tgz:34590.got - 2010.04.10 22:41:39.
