data_PCOD8280625
_publ_section_title
;
Structure prediction by ZEFSAII (Michael W. Deem and Ramdas Pophale) SiO2 
 PCOD8280625
Probable space group: C M M A
;
_chemical_formula_sum "Si O2"
_cell_formula_units_Z 96
_cell_length_a 14.447473
_cell_length_b 14.323938
_cell_length_c 22.195147
_cell_angle_alpha 90.000000
_cell_angle_beta 90.000000
_cell_angle_gamma 90.000000
_cell_volume 4593.168204
_symmetry_space_group_name_H-M "C M M A"
_symmetry_group_IT_number 67
_symmetry_cell_setting 'orthorhombic'
loop_
_space_group_symop_operation_xyz
x,y,z
-x,1/2-y,z
x,-y,-z
-x,1/2+y,-z
-x,-y,-z
x,1/2+y,-z
-x,y,z
x,1/2-y,z
1/2+x,1/2+y,z
1/2-x,-y,z
1/2+x,1/2-y,-z
1/2-x,y,-z
1/2-x,1/2-y,-z
1/2+x,y,-z
1/2-x,1/2+y,z
1/2+x,-y,z
loop_
_atom_site_type_symbol
_atom_site_label
_atom_site_fract_x
_atom_site_fract_y
_atom_site_fract_z
Si Si1 0.268770 0.861699 0.727609
Si Si2 0.238443 0.853831 0.407711
Si Si3 0.900193 0.603477 0.510218
Si Si4 0.851392 0.010735 0.097371
Si Si5 0.103505 0.981106 0.773029
Si Si6 0.605828 0.354717 0.006165
O O1 0.277268 0.750000 0.739055
O O2 0.286624 0.891827 0.658160
O O3 0.166558 0.897573 0.746356
O O4 0.348865 0.917199 0.763389
O O5 0.274996 0.750000 0.400167
O O6 0.149958 0.853599 0.451759
O O7 0.328353 0.904894 0.434378
O O8 0.930467 0.500000 0.500000
O O9 0.000000 0.655855 0.522616
O O10 0.912963 0.034281 0.155288
O O11 0.750000 0.000000 0.124834
O O12 0.885823 0.915120 0.066730
O O13 0.843022 0.094807 0.049093
O O14 0.000000 0.978175 0.743963
O O15 0.500000 0.349879 0.986689
O O16 0.645883 0.250000 0.016122
#
# Coordination Sequence:
#
# PCOD8280625 Si02
#       6
#    16  16  16  16  16  16
#     4  10  24  44  64  92 125 164 216 265 313 371
#     4  10  21  38  59  82 119 159 193 246 303 360
#     4  10  21  34  57  91 120 152 193 239 298 367
#     4  11  21  39  60  86 123 160 204 252 304 368
#     4  11  24  43  67  91 123 169 214 265 318 368
#     4  10  21  36  59  91 124 158 197 247 306 368
#
# _framework density 20.900607000000001
#
# number of rings (size 3 to 8) (size 9 to 14) (size 15 to 20)
#    0.000    1.667    1.667    5.000    4.667    6.000 
#    0.000    3.333    0.000    0.000    0.000    0.000 
#    0.000    0.000    0.000    0.000    0.000    0.000 
#
# Total GULP energy -594757.730881 kJ/mol
# GULP energy per Si atom -12390.786060 kJ/mol
# Density = 2.085304 g / cm^3
# Si number density = 20.900607 Si / 1000 Ang^3
#
#
#
# Elastic Constant Matrix: (Units=GPa)
#
#
# Indices 1 2 3 4 5 6 
#
# 1 129.0608 2.5080 6.1894 0.0000 0.0000 0.0000
# 2 2.5080 109.8673 13.3962 0.0000 0.0000 0.0000
# 3 6.1894 13.3962 99.9159 0.0000 0.0000 0.0000
# 4 0.0000 0.0000 0.0000 18.1296 0.0000 0.0000
# 5 0.0000 0.0000 0.0000 0.0000 16.6123 0.0000
# 6 0.0000 0.0000 0.0000 0.0000 0.0000 26.4164
#
#
#
# Elastic Compliance Matrix: (Units=1/GPa)
#
#
# Indices 1 2 3 4 5 6 
#
# 1 0.007773 -0.000121 -0.000465 0.000000 0.000000 0.000000
# 2 -0.000121 0.009255 -0.001233 0.000000 0.000000 0.000000
# 3 -0.000465 -0.001233 0.010203 0.000000 0.000000 0.000000
# 4 0.000000 0.000000 0.000000 0.055158 0.000000 0.000000
# 5 0.000000 0.000000 0.000000 0.000000 0.060196 0.000000
# 6 0.000000 0.000000 0.000000 0.000000 0.000000 0.037855
#
#
# Mechanical properties :
#
#
# Convention : Reuss Voigt Hill
#
# Bulk Modulus (GPa) = 42.38768 42.55903 42.47335
# Shear Modulus (GPa) = 26.04937 33.34837 29.69887
#
# Velocity S-wave (km/s) = 3.53419 3.99879 3.77365
# Velocity P-wave (km/s) = 6.08101 6.45966 6.27319
#
# Compressibility (1/GPa) = 0.02359176
#
# Stress axis : x y z
#
# Youngs Moduli (GPa) = 128.65136 108.04933 98.01420
#
# Poissons Ratio (x) = 0.01304 0.04561
# Poissons Ratio (y) = 0.01553 0.12089
# Poissons Ratio (z) = 0.05986 0.13327
#
# Static dielectric constant tensor:
#      x y z
#    x 3.795310 0.000000 0.000000 
#    y 0.000000 3.926020 0.000000 
#    z 0.000000 0.000000 3.953660 
# 
# 
# High freq. dielectric constant tensor:
#      x y z
#    x 1.828280 0.000000 0.000000 
#    y 0.000000 1.817380 0.000000 
#    z 0.000000 0.000000 1.811970 
# 
# From -- ./inp_files/38369.got.cif
#   From: 2010.03.12/outbox.cif.g09.slc.cpg/sg67_20_cif.got.tgz:38369.got - 2010.04.10 22:41:39.
