data_PCOD8280718
_publ_section_title
;
Structure prediction by ZEFSAII (Michael W. Deem and Ramdas Pophale) SiO2 
 PCOD8280718
Probable space group: C M M A
;
_chemical_formula_sum "Si O2"
_cell_formula_units_Z 104
_cell_length_a 9.127297
_cell_length_b 28.273473
_cell_length_c 20.507215
_cell_angle_alpha 90.000000
_cell_angle_beta 90.000000
_cell_angle_gamma 90.000000
_cell_volume 5292.099804
_symmetry_space_group_name_H-M "C M M A"
_symmetry_group_IT_number 67
_symmetry_cell_setting 'orthorhombic'
loop_
_space_group_symop_operation_xyz
x,y,z
-x,1/2-y,z
x,-y,-z
-x,1/2+y,-z
-x,-y,-z
x,1/2+y,-z
-x,y,z
x,1/2-y,z
1/2+x,1/2+y,z
1/2-x,-y,z
1/2+x,1/2-y,-z
1/2-x,y,-z
1/2-x,1/2-y,-z
1/2+x,y,-z
1/2-x,1/2+y,z
1/2+x,-y,z
loop_
_atom_site_type_symbol
_atom_site_label
_atom_site_fract_x
_atom_site_fract_y
_atom_site_fract_z
Si Si1 0.168153 0.953207 0.244573
Si Si2 0.823974 0.450526 0.606267
Si Si3 0.835534 0.305890 0.298255
Si Si4 0.328027 0.355236 0.183562
Si Si5 0.750000 0.379599 0.500000
Si Si6 0.844919 0.302423 0.580141
Si Si7 0.328660 0.304284 0.932250
O O1 0.209558 0.938345 0.318524
O O2 0.205506 0.910560 0.195808
O O3 0.000000 0.966937 0.242519
O O4 0.250000 0.000000 0.220615
O O5 0.750000 0.500000 0.587726
O O6 0.732169 0.412887 0.563178
O O7 0.000000 0.450017 0.590808
O O8 0.833611 0.250000 0.290336
O O9 0.726245 0.326303 0.245244
O O10 0.779305 0.320402 0.369955
O O11 0.000000 0.325840 0.288533
O O12 0.500000 0.345901 0.173584
O O13 0.240127 0.339425 0.120125
O O14 0.871314 0.340331 0.521284
O O15 0.807060 0.250000 0.552868
O O16 0.000000 0.300411 0.618287
O O17 0.500000 0.315209 0.939619
O O18 0.302701 0.250000 0.910370
O O19 0.250000 0.314799 0.000000
#
# Coordination Sequence:
#
# PCOD8280718 Si02
#       7
#    16  16  16  16   8  16  16
#     4   9  20  39  60  82 109 141 180 228 281 336
#     4  10  22  39  57  78 105 136 174 223 279 338
#     4  10  21  36  54  79 110 143 183 230 277 328
#     4  11  21  34  57  87 117 151 190 230 276 329
#     4  12  22  34  56  78 102 136 178 224 276 338
#     4  10  22  39  56  75 103 140 181 226 277 333
#     4  10  21  37  57  85 123 163 200 235 272 318
#
# _framework density 19.651935000000002
#
# number of rings (size 3 to 8) (size 9 to 14) (size 15 to 20)
#    0.000    1.846    0.000    3.692    0.000    9.231 
#    0.000    4.615    0.000    0.462    0.000    3.231 
#    0.000    0.000    0.000    0.000    0.000    0.000 
#
# Total GULP energy -644193.836375 kJ/mol
# GULP energy per Si atom -12388.343007 kJ/mol
# Density = 1.960721 g / cm^3
# Si number density = 19.651935 Si / 1000 Ang^3
#
#
#
# Elastic Constant Matrix: (Units=GPa)
#
#
# Indices 1 2 3 4 5 6 
#
# 1 105.6835 58.6181 65.6100 0.0000 0.0000 0.0000
# 2 58.6181 128.6047 78.8046 0.0000 0.0000 0.0000
# 3 65.6100 78.8046 104.9561 0.0000 0.0000 0.0000
# 4 0.0000 0.0000 0.0000 35.3966 0.0000 0.0000
# 5 0.0000 0.0000 0.0000 0.0000 23.7045 0.0000
# 6 0.0000 0.0000 0.0000 0.0000 0.0000 35.8093
#
#
#
# Elastic Compliance Matrix: (Units=1/GPa)
#
#
# Indices 1 2 3 4 5 6 
#
# 1 0.015771 -0.002125 -0.008263 0.000000 0.000000 0.000000
# 2 -0.002125 0.014688 -0.009700 0.000000 0.000000 0.000000
# 3 -0.008263 -0.009700 0.021976 0.000000 0.000000 0.000000
# 4 0.000000 0.000000 0.000000 0.028251 0.000000 0.000000
# 5 0.000000 0.000000 0.000000 0.000000 0.042186 0.000000
# 6 0.000000 0.000000 0.000000 0.000000 0.000000 0.027926
#
#
# Mechanical properties :
#
#
# Convention : Reuss Voigt Hill
#
# Bulk Modulus (GPa) = 81.57231 82.81218 82.19224
# Shear Modulus (GPa) = 25.63306 28.06286 26.84796
#
# Velocity S-wave (km/s) = 3.61550 3.78298 3.70019
# Velocity P-wave (km/s) = 7.68295 7.83021 7.75693
#
# Compressibility (1/GPa) = 0.01225906
#
# Stress axis : x y z
#
# Youngs Moduli (GPa) = 63.40881 68.08203 45.50359
#
# Poissons Ratio (x) = 0.14467 0.37600
# Poissons Ratio (y) = 0.13474 0.44139
# Poissons Ratio (z) = 0.52395 0.66040
#
# Static dielectric constant tensor:
#      x y z
#    x 3.437230 0.000000 0.000000 
#    y 0.000000 3.747470 0.000000 
#    z 0.000000 0.000000 3.522280 
# 
# 
# High freq. dielectric constant tensor:
#      x y z
#    x 1.772260 0.000000 0.000000 
#    y 0.000000 1.771640 0.000000 
#    z 0.000000 0.000000 1.745030 
# 
# From -- ./inp_files/37304.got.cif
#   From: 2010.03.12/outbox.cif.g09.slc.cpg/sg67_19_cif.got.tgz:37304.got - 2010.04.10 22:41:39.
