data_PCOD8280020
_publ_section_title
;
Structure prediction by ZEFSAII (Michael W. Deem and Ramdas Pophale) SiO2 
 PCOD8280020
Probable space group: C M M A
;
_chemical_formula_sum "Si O2"
_cell_formula_units_Z 80
_cell_length_a 23.745349
_cell_length_b 8.761547
_cell_length_c 20.399717
_cell_angle_alpha 90.000000
_cell_angle_beta 90.000000
_cell_angle_gamma 90.000000
_cell_volume 4244.079345
_symmetry_space_group_name_H-M "C M M A"
_symmetry_group_IT_number 67
_symmetry_cell_setting 'orthorhombic'
loop_
_space_group_symop_operation_xyz
x,y,z
-x,1/2-y,z
x,-y,-z
-x,1/2+y,-z
-x,-y,-z
x,1/2+y,-z
-x,y,z
x,1/2-y,z
1/2+x,1/2+y,z
1/2-x,-y,z
1/2+x,1/2-y,-z
1/2-x,y,-z
1/2-x,1/2-y,-z
1/2+x,y,-z
1/2-x,1/2+y,z
1/2+x,-y,z
loop_
_atom_site_type_symbol
_atom_site_label
_atom_site_fract_x
_atom_site_fract_y
_atom_site_fract_z
Si Si1 0.190668 0.570834 0.068520
Si Si2 0.500000 0.431756 0.385643
Si Si3 0.810959 0.570521 0.689234
Si Si4 0.000000 0.430444 0.763155
Si Si5 0.385741 0.069042 0.566854
Si Si6 0.379498 0.429017 0.193905
O O1 0.199395 0.750000 0.059804
O O2 0.250000 0.500000 0.091403
O O3 0.142854 0.532154 0.121554
O O4 0.170308 0.500000 0.000000
O O5 0.500000 0.250000 0.388603
O O6 0.500000 0.493732 0.310955
O O7 0.553512 0.496039 0.423015
O O8 0.804897 0.750000 0.692317
O O9 0.750000 0.500000 0.684493
O O10 0.845699 0.516852 0.625938
O O11 0.841597 0.516056 0.754347
O O12 0.944045 0.487980 0.800865
O O13 0.000000 0.250000 0.761033
O O14 0.390850 0.250000 0.561984
O O15 0.359922 0.000000 0.500000
O O16 0.375145 0.250000 0.209312
#
# Coordination Sequence:
#
# PCOD8280020 Si02
#       6
#    16   8  16   8  16  16
#     4  10  20  34  56  83 115 150 188 231 274 327
#     4  11  20  36  63  86 111 148 186 232 282 334
#     4  11  24  39  58  83 112 146 186 234 283 338
#     4   9  18  34  59  86 112 146 184 225 278 333
#     4  11  24  40  58  83 114 147 187 234 284 338
#     4  10  20  37  60  86 114 148 189 231 277 333
#
# _framework density 18.849788
#
# number of rings (size 3 to 8) (size 9 to 14) (size 15 to 20)
#    0.000    1.600    2.000    3.600    0.000    6.000 
#    0.000    3.000    0.000    0.000    0.000    0.000 
#    0.000    0.000    0.000    0.000    0.000    0.000 
#
# Total GULP energy -496132.369789 kJ/mol
# GULP energy per Si atom -12403.309245 kJ/mol
# Density = 1.880688 g / cm^3
# Si number density = 18.849788 Si / 1000 Ang^3
#
#
#
# Elastic Constant Matrix: (Units=GPa)
#
#
# Indices 1 2 3 4 5 6 
#
# 1 124.3076 36.9887 57.3085 0.0000 0.0000 0.0000
# 2 36.9887 66.6940 43.4372 0.0000 0.0000 0.0000
# 3 57.3085 43.4372 126.4831 0.0000 0.0000 0.0000
# 4 0.0000 0.0000 0.0000 27.4829 0.0000 0.0000
# 5 0.0000 0.0000 0.0000 0.0000 31.1187 0.0000
# 6 0.0000 0.0000 0.0000 0.0000 0.0000 49.6109
#
#
#
# Elastic Compliance Matrix: (Units=1/GPa)
#
#
# Indices 1 2 3 4 5 6 
#
# 1 0.010804 -0.003612 -0.003655 0.000000 0.000000 0.000000
# 2 -0.003612 0.020521 -0.005411 0.000000 0.000000 0.000000
# 3 -0.003655 -0.005411 0.011421 0.000000 0.000000 0.000000
# 4 0.000000 0.000000 0.000000 0.036386 0.000000 0.000000
# 5 0.000000 0.000000 0.000000 0.000000 0.032135 0.000000
# 6 0.000000 0.000000 0.000000 0.000000 0.000000 0.020157
#
#
# Mechanical properties :
#
#
# Convention : Reuss Voigt Hill
#
# Bulk Modulus (GPa) = 57.50255 65.88375 61.69315
# Shear Modulus (GPa) = 30.75486 33.62586 32.19036
#
# Velocity S-wave (km/s) = 4.04366 4.22819 4.13695
# Velocity P-wave (km/s) = 7.23695 7.67233 7.45782
#
# Compressibility (1/GPa) = 0.01739053
#
# Stress axis : x y z
#
# Youngs Moduli (GPa) = 92.55603 48.73062 87.56173
#
# Poissons Ratio (x) = 0.17600 0.32004
# Poissons Ratio (y) = 0.33428 0.47380
# Poissons Ratio (z) = 0.33829 0.26368
#
# Static dielectric constant tensor:
#      x y z
#    x 3.746630 0.000000 0.000000 
#    y 0.000000 3.447230 0.000000 
#    z 0.000000 0.000000 3.628660 
# 
# 
# High freq. dielectric constant tensor:
#      x y z
#    x 1.735220 0.000000 0.000000 
#    y 0.000000 1.732910 0.000000 
#    z 0.000000 0.000000 1.740900 
# 
# From -- ./inp_files/39534.got.cif
#   From: 2010.03.12/outbox.cif.g09.slc.cpg/sg67_20_cif.got.tgz:39534.got - 2010.04.10 22:41:39.
