data_PCOD8280765
_publ_section_title
;
Structure prediction by ZEFSAII (Michael W. Deem and Ramdas Pophale) SiO2 
 PCOD8280765
Probable space group: C M M A
;
_chemical_formula_sum "Si O2"
_cell_formula_units_Z 112
_cell_length_a 21.390573
_cell_length_b 23.944530
_cell_length_c 11.472030
_cell_angle_alpha 90.000000
_cell_angle_beta 90.000000
_cell_angle_gamma 90.000000
_cell_volume 5875.827118
_symmetry_space_group_name_H-M "C M M A"
_symmetry_group_IT_number 67
_symmetry_cell_setting 'orthorhombic'
loop_
_space_group_symop_operation_xyz
x,y,z
-x,1/2-y,z
x,-y,-z
-x,1/2+y,-z
-x,-y,-z
x,1/2+y,-z
-x,y,z
x,1/2-y,z
1/2+x,1/2+y,z
1/2-x,-y,z
1/2+x,1/2-y,-z
1/2-x,y,-z
1/2-x,1/2-y,-z
1/2+x,y,-z
1/2-x,1/2+y,z
1/2+x,-y,z
loop_
_atom_site_type_symbol
_atom_site_label
_atom_site_fract_x
_atom_site_fract_y
_atom_site_fract_z
Si Si1 0.072418 0.686008 0.894635
Si Si2 0.117021 0.018015 0.866045
Si Si3 0.368720 0.591221 0.254353
Si Si4 0.930467 0.616756 0.267683
Si Si5 0.572749 0.434925 0.512001
Si Si6 0.737509 0.584512 0.869792
Si Si7 0.847094 0.813684 0.123697
O O1 0.080365 0.750000 0.854190
O O2 0.100736 0.647348 0.794650
O O3 0.000000 0.671618 0.917303
O O4 0.110138 0.674225 0.012082
O O5 0.070999 0.068787 0.833105
O O6 0.185591 0.040525 0.825293
O O7 0.096370 0.963746 0.793721
O O8 0.112729 0.000000 0.000000
O O9 0.380592 0.592031 0.392631
O O10 0.296307 0.585125 0.216878
O O11 0.907623 0.592690 0.390496
O O12 0.887211 0.669446 0.236884
O O13 0.000000 0.640055 0.277059
O O14 0.585883 0.500000 0.500000
O O15 0.500000 0.423488 0.543870
O O16 0.714125 0.648259 0.879858
O O17 0.750000 0.563147 0.000000
O O18 0.825057 0.750000 0.132798
#
# Coordination Sequence:
#
# PCOD8280765 Si02
#       7
#    16  16  16  16  16  16  16
#     4  10  21  36  56  87 121 149 190 246 296 350
#     4  11  21  33  54  85 120 151 188 238 296 354
#     4  12  21  35  60  83 116 161 195 232 295 345
#     4  10  21  38  58  84 117 150 193 245 295 353
#     4  10  21  39  60  84 116 156 199 240 287 351
#     4  11  21  36  55  85 119 154 191 236 285 349
#     4  10  21  38  60  85 114 151 196 242 294 350
#
# _framework density 19.061146000000001
#
# number of rings (size 3 to 8) (size 9 to 14) (size 15 to 20)
#    0.000    1.429    4.286    2.143    0.000    2.571 
#    0.000    3.571    0.000    1.714    0.000    0.000 
#    0.000    0.000    0.000    0.000    0.000    0.000 
#
# Total GULP energy -694274.217578 kJ/mol
# GULP energy per Si atom -12397.753885 kJ/mol
# Density = 1.901776 g / cm^3
# Si number density = 19.061146 Si / 1000 Ang^3
#
#
#
# Elastic Constant Matrix: (Units=GPa)
#
#
# Indices 1 2 3 4 5 6 
#
# 1 61.7779 12.7582 32.5467 0.0000 0.0000 0.0000
# 2 12.7582 90.4591 34.5233 0.0000 0.0000 0.0000
# 3 32.5467 34.5233 107.6290 0.0000 0.0000 0.0000
# 4 0.0000 0.0000 0.0000 27.9738 0.0000 0.0000
# 5 0.0000 0.0000 0.0000 0.0000 14.5663 0.0000
# 6 0.0000 0.0000 0.0000 0.0000 0.0000 5.9730
#
#
#
# Elastic Compliance Matrix: (Units=1/GPa)
#
#
# Indices 1 2 3 4 5 6 
#
# 1 0.019280 -0.000563 -0.005649 0.000000 0.000000 0.000000
# 2 -0.000563 0.012613 -0.003876 0.000000 0.000000 0.000000
# 3 -0.005649 -0.003876 0.012243 0.000000 0.000000 0.000000
# 4 0.000000 0.000000 0.000000 0.035748 0.000000 0.000000
# 5 0.000000 0.000000 0.000000 0.000000 0.068652 0.000000
# 6 0.000000 0.000000 0.000000 0.000000 0.000000 0.167421
#
#
# Mechanical properties :
#
#
# Convention : Reuss Voigt Hill
#
# Bulk Modulus (GPa) = 41.73741 46.61359 44.17550
# Shear Modulus (GPa) = 14.52986 21.70513 18.11750
#
# Velocity S-wave (km/s) = 2.76393 3.37814 3.08635
# Velocity P-wave (km/s) = 5.66832 6.30267 5.99389
#
# Compressibility (1/GPa) = 0.02395932
#
# Stress axis : x y z
#
# Youngs Moduli (GPa) = 51.86815 79.28188 81.68131
#
# Poissons Ratio (x) = 0.04464 0.46146
# Poissons Ratio (y) = 0.02920 0.31656
# Poissons Ratio (z) = 0.29303 0.30726
#
# Static dielectric constant tensor:
#      x y z
#    x 3.518160 0.000000 0.000000 
#    y 0.000000 3.557690 0.000000 
#    z 0.000000 0.000000 3.445420 
# 
# 
# High freq. dielectric constant tensor:
#      x y z
#    x 1.738040 0.000000 0.000000 
#    y 0.000000 1.746060 0.000000 
#    z 0.000000 0.000000 1.724160 
# 
# From -- ./inp_files/21099.got.cif
#   From: 2010.03.12/outbox.cif.g09.slc.cpg/sg67_11_cif.got.tgz:21099.got - 2010.04.10 22:41:39.
