data_PCOD8280925
_publ_section_title
;
Structure prediction by ZEFSAII (Michael W. Deem and Ramdas Pophale) SiO2 
 PCOD8280925
Probable space group: C M M A
;
_chemical_formula_sum "Si O2"
_cell_formula_units_Z 64
_cell_length_a 27.382483
_cell_length_b 9.533177
_cell_length_c 13.304124
_cell_angle_alpha 90.000000
_cell_angle_beta 90.000000
_cell_angle_gamma 90.000000
_cell_volume 3472.935897
_symmetry_space_group_name_H-M "C M M A"
_symmetry_group_IT_number 67
_symmetry_cell_setting 'orthorhombic'
loop_
_space_group_symop_operation_xyz
x,y,z
-x,1/2-y,z
x,-y,-z
-x,1/2+y,-z
-x,-y,-z
x,1/2+y,-z
-x,y,z
x,1/2-y,z
1/2+x,1/2+y,z
1/2-x,-y,z
1/2+x,1/2-y,-z
1/2-x,y,-z
1/2-x,1/2-y,-z
1/2+x,y,-z
1/2-x,1/2+y,z
1/2+x,-y,z
loop_
_atom_site_type_symbol
_atom_site_label
_atom_site_fract_x
_atom_site_fract_y
_atom_site_fract_z
Si Si1 0.395073 0.533007 0.709264
Si Si2 0.299439 0.579677 0.601154
Si Si3 0.443270 0.250000 0.663185
Si Si4 0.944473 0.750000 0.426711
Si Si5 0.945096 0.594476 0.089481
O O1 0.337202 0.548297 0.691152
O O2 0.414729 0.377126 0.712109
O O3 0.420349 0.611250 0.616561
O O4 0.408755 0.598283 0.816116
O O5 0.318000 0.500000 0.500000
O O6 0.292984 0.750000 0.584928
O O7 0.250000 0.500000 0.633539
O O8 0.500000 0.250000 0.694813
O O9 0.437399 0.250000 0.544567
O O10 0.000000 0.750000 0.392418
O O11 0.947617 0.750000 0.045176
O O12 0.000000 0.544255 0.121038
O O13 0.923601 0.500000 0.000000
#
# Coordination Sequence:
#
# PCOD8280925 Si02
#       5
#    16  16   8   8  16
#     4  12  23  37  59  83 117 159 197 241 296 350
#     4  11  23  39  61  87 117 155 200 248 298 351
#     4  11  24  34  52  86 122 157 196 232 280 359
#     4  11  20  36  54  80 118 157 190 228 282 353
#     4  10  21  38  59  84 115 152 197 246 294 349
#
# _framework density 18.428211999999998
#
# number of rings (size 3 to 8) (size 9 to 14) (size 15 to 20)
#    0.000    1.000    2.500    6.000    5.250    2.000 
#    0.000    0.000    0.000    0.750    0.000    3.500 
#    0.000    0.000    0.000    0.000    0.000    0.000 
#
# Total GULP energy -396705.553676 kJ/mol
# GULP energy per Si atom -12397.048552 kJ/mol
# Density = 1.838627 g / cm^3
# Si number density = 18.428212 Si / 1000 Ang^3
#
#
#
# Elastic Constant Matrix: (Units=GPa)
#
#
# Indices 1 2 3 4 5 6 
#
# 1 102.2427 32.6137 48.4526 0.0000 0.0000 0.0000
# 2 32.6137 141.8764 24.7933 0.0000 0.0000 0.0000
# 3 48.4526 24.7933 64.8944 0.0000 0.0000 0.0000
# 4 0.0000 0.0000 0.0000 24.6991 0.0000 0.0000
# 5 0.0000 0.0000 0.0000 0.0000 28.6437 0.0000
# 6 0.0000 0.0000 0.0000 0.0000 0.0000 32.2296
#
#
#
# Elastic Compliance Matrix: (Units=1/GPa)
#
#
# Indices 1 2 3 4 5 6 
#
# 1 0.015488 -0.001650 -0.010934 0.000000 0.000000 0.000000
# 2 -0.001650 0.007728 -0.001721 0.000000 0.000000 0.000000
# 3 -0.010934 -0.001721 0.024231 0.000000 0.000000 0.000000
# 4 0.000000 0.000000 0.000000 0.040487 0.000000 0.000000
# 5 0.000000 0.000000 0.000000 0.000000 0.034912 0.000000
# 6 0.000000 0.000000 0.000000 0.000000 0.000000 0.031027
#
#
# Mechanical properties :
#
#
# Convention : Reuss Voigt Hill
#
# Bulk Modulus (GPa) = 53.08294 57.85920 55.47107
# Shear Modulus (GPa) = 26.48827 30.65808 28.57317
#
# Velocity S-wave (km/s) = 3.79539 4.08321 3.94193
# Velocity P-wave (km/s) = 6.93357 7.32771 7.13336
#
# Compressibility (1/GPa) = 0.01883844
#
# Stress axis : x y z
#
# Youngs Moduli (GPa) = 64.56420 129.39379 41.26964
#
# Poissons Ratio (x) = 0.21345 0.45124
# Poissons Ratio (y) = 0.10651 0.07102
# Poissons Ratio (z) = 0.70595 0.22268
#
# Static dielectric constant tensor:
#      x y z
#    x 3.433300 0.000000 0.000000 
#    y 0.000000 3.650840 0.000000 
#    z 0.000000 0.000000 3.126670 
# 
# 
# High freq. dielectric constant tensor:
#      x y z
#    x 1.701800 0.000000 0.000000 
#    y 0.000000 1.740310 0.000000 
#    z 0.000000 0.000000 1.690240 
# 
# From -- ./inp_files/23408.got.cif
#   From: 2010.03.12/outbox.cif.g09.slc.cpg/sg67_12_cif.got.tgz:23408.got - 2010.04.10 22:41:39.
