data_PCOD8280900
_publ_section_title
;
Structure prediction by ZEFSAII (Michael W. Deem and Ramdas Pophale) SiO2 
 PCOD8280900
Probable space group: C M M A
;
_chemical_formula_sum "Si O2"
_cell_formula_units_Z 72
_cell_length_a 19.788318
_cell_length_b 8.721979
_cell_length_c 24.250977
_cell_angle_alpha 90.000000
_cell_angle_beta 90.000000
_cell_angle_gamma 90.000000
_cell_volume 4185.556004
_symmetry_space_group_name_H-M "C M M A"
_symmetry_group_IT_number 67
_symmetry_cell_setting 'orthorhombic'
loop_
_space_group_symop_operation_xyz
x,y,z
-x,1/2-y,z
x,-y,-z
-x,1/2+y,-z
-x,-y,-z
x,1/2+y,-z
-x,y,z
x,1/2-y,z
1/2+x,1/2+y,z
1/2-x,-y,z
1/2+x,1/2-y,-z
1/2-x,y,-z
1/2-x,1/2-y,-z
1/2+x,y,-z
1/2-x,1/2+y,z
1/2+x,-y,z
loop_
_atom_site_type_symbol
_atom_site_label
_atom_site_fract_x
_atom_site_fract_y
_atom_site_fract_z
Si Si1 0.421247 0.428442 0.058245
Si Si2 0.924951 0.577073 0.661956
Si Si3 0.319908 0.429172 0.262855
Si Si4 0.178040 0.431713 0.145743
Si Si5 0.000000 0.573130 0.559155
O O1 0.500000 0.455645 0.070356
O O2 0.402531 0.250000 0.058066
O O3 0.380165 0.515120 0.104969
O O4 0.400242 0.500000 0.000000
O O5 0.896006 0.750000 0.668402
O O6 0.876243 0.456059 0.690834
O O7 0.000000 0.569330 0.689313
O O8 0.933522 0.533102 0.596625
O O9 0.310928 0.250000 0.251820
O O10 0.250000 0.500000 0.284646
O O11 0.342065 0.510151 0.206342
O O12 0.183176 0.250000 0.145880
O O13 0.250000 0.500000 0.126970
O O14 0.000000 0.500000 0.500000
O O15 0.000000 0.750000 0.546944
#
# Coordination Sequence:
#
# PCOD8280900 Si02
#       5
#    16  16  16  16   8
#     4  10  21  38  58  80 106 135 171 214 261 313
#     4   8  17  33  51  75 105 138 173 212 255 303
#     4  11  21  34  53  76 105 139 174 215 262 313
#     4  11  22  37  56  77 104 137 174 215 261 313
#     4   8  16  30  52  78 108 140 173 214 257 302
#
# _framework density 17.202017000000001
#
# number of rings (size 3 to 8) (size 9 to 14) (size 15 to 20)
#    0.667    1.556    0.000    6.000    0.000    4.000 
#    0.000    2.222    0.000    0.667    0.000    4.667 
#    0.000    0.000    0.000    0.000    0.000    0.000 
#
# Total GULP energy -446201.973709 kJ/mol
# GULP energy per Si atom -12394.499270 kJ/mol
# Density = 1.716286 g / cm^3
# Si number density = 17.202017 Si / 1000 Ang^3
#
#
#
# Elastic Constant Matrix: (Units=GPa)
#
#
# Indices 1 2 3 4 5 6 
#
# 1 75.5934 48.1282 65.4911 0.0000 0.0000 0.0000
# 2 48.1282 138.6990 59.8213 0.0000 0.0000 0.0000
# 3 65.4911 59.8213 112.6206 0.0000 0.0000 0.0000
# 4 0.0000 0.0000 0.0000 34.5226 0.0000 0.0000
# 5 0.0000 0.0000 0.0000 0.0000 2.0212 0.0000
# 6 0.0000 0.0000 0.0000 0.0000 0.0000 29.0401
#
#
#
# Elastic Compliance Matrix: (Units=1/GPa)
#
#
# Indices 1 2 3 4 5 6 
#
# 1 0.027898 -0.003481 -0.014374 0.000000 0.000000 0.000000
# 2 -0.003481 0.009787 -0.003174 0.000000 0.000000 0.000000
# 3 -0.014374 -0.003174 0.018925 0.000000 0.000000 0.000000
# 4 0.000000 0.000000 0.000000 0.028967 0.000000 0.000000
# 5 0.000000 0.000000 0.000000 0.000000 0.494765 0.000000
# 6 0.000000 0.000000 0.000000 0.000000 0.000000 0.034435
#
#
# Mechanical properties :
#
#
# Convention : Reuss Voigt Hill
#
# Bulk Modulus (GPa) = 68.72699 74.86603 71.79651
# Shear Modulus (GPa) = 7.55645 23.34825 15.45235
#
# Velocity S-wave (km/s) = 2.09817 3.68815 3.00040
# Velocity P-wave (km/s) = 6.77564 7.85829 7.33696
#
# Compressibility (1/GPa) = 0.01455032
#
# Stress axis : x y z
#
# Youngs Moduli (GPa) = 35.84439 102.17839 52.84147
#
# Poissons Ratio (x) = 0.35567 0.75957
# Poissons Ratio (y) = 0.12477 0.16773
# Poissons Ratio (z) = 0.51524 0.32434
#
# Static dielectric constant tensor:
#      x y z
#    x 2.927830 0.000000 0.000000 
#    y 0.000000 3.270450 0.000000 
#    z 0.000000 0.000000 2.781970 
# 
# 
# High freq. dielectric constant tensor:
#      x y z
#    x 1.653320 0.000000 0.000000 
#    y 0.000000 1.678420 0.000000 
#    z 0.000000 0.000000 1.654850 
# 
# From -- ./inp_files/39230.got.cif
#   From: 2010.03.12/outbox.cif.g09.slc.cpg/sg67_20_cif.got.tgz:39230.got - 2010.04.10 22:41:39.
