data_PCOD8280622
_publ_section_title
;
Structure prediction by ZEFSAII (Michael W. Deem and Ramdas Pophale) SiO2 
 PCOD8280622
Probable space group: C M M A
;
_chemical_formula_sum "Si O2"
_cell_formula_units_Z 60
_cell_length_a 25.549183
_cell_length_b 5.286739
_cell_length_c 24.631758
_cell_angle_alpha 90.000000
_cell_angle_beta 90.000000
_cell_angle_gamma 90.000000
_cell_volume 3327.057422
_symmetry_space_group_name_H-M "C M M A"
_symmetry_group_IT_number 67
_symmetry_cell_setting 'orthorhombic'
loop_
_space_group_symop_operation_xyz
x,y,z
-x,1/2-y,z
x,-y,-z
-x,1/2+y,-z
-x,-y,-z
x,1/2+y,-z
-x,y,z
x,1/2-y,z
1/2+x,1/2+y,z
1/2-x,-y,z
1/2+x,1/2-y,-z
1/2-x,y,-z
1/2-x,1/2-y,-z
1/2+x,y,-z
1/2-x,1/2+y,z
1/2+x,-y,z
loop_
_atom_site_type_symbol
_atom_site_label
_atom_site_fract_x
_atom_site_fract_y
_atom_site_fract_z
Si Si1 0.062477 0.750000 0.969615
Si Si2 0.062295 0.750000 0.216708
Si Si3 0.696346 0.750000 0.462679
Si Si4 0.391082 0.750000 0.667449
Si Si5 0.561480 0.250000 0.848162
Si Si6 0.000000 0.250000 0.467053
Si Si7 0.594906 0.250000 0.609827
Si Si8 0.228493 0.250000 0.636175
O O1 0.085761 0.750000 0.908585
O O2 0.000000 0.750000 0.969092
O O3 0.083492 0.500000 0.000000
O O4 0.100451 0.750000 0.268414
O O5 0.078835 0.502417 0.183130
O O6 0.000000 0.750000 0.231614
O O7 0.692236 0.500000 0.500000
O O8 0.652614 0.750000 0.416136
O O9 0.751164 0.750000 0.427578
O O10 0.417580 0.495562 0.645722
O O11 0.333011 0.750000 0.643245
O O12 0.500000 0.250000 0.854561
O O13 0.000000 0.500000 0.500000
O O14 0.053872 0.250000 0.436851
O O15 0.250000 0.500000 0.666165
#
# Coordination Sequence:
#
# PCOD8280622 Si02
#       8
#     8   8   8   8   8   4   8   8
#     4   9  15  23  40  66 101 141 177 220 265 301
#     4  10  21  34  55  73  98 140 184 230 260 294
#     4  12  24  40  60  84 104 130 157 199 260 323
#     4  12  24  42  57  83 104 134 178 218 272 312
#     4   9  17  31  46  73 103 136 188 230 258 298
#     4  12  26  46  60  82 110 140 170 206 266 314
#     4  12  25  42  61  81 108 136 170 216 250 330
#     4  12  23  43  57  85 109 129 160 212 262 335
#
# _framework density 18.033953
#
# number of rings (size 3 to 8) (size 9 to 14) (size 15 to 20)
#    0.000    1.067    2.667    4.800    1.867    4.800 
#    0.000    0.000    0.000    0.000    0.000    0.000 
#    0.000    0.000    0.000    0.000    0.000   46.667 
#
# Total GULP energy -371723.966822 kJ/mol
# GULP energy per Si atom -12390.798894 kJ/mol
# Density = 1.799291 g / cm^3
# Si number density = 18.033953 Si / 1000 Ang^3
#
#
#
# Elastic Constant Matrix: (Units=GPa)
#
#
# Indices 1 2 3 4 5 6 
#
# 1 19.7257 35.4192 23.9329 0.0000 0.0000 0.0000
# 2 35.4192 204.3179 90.9049 0.0000 0.0000 0.0000
# 3 23.9329 90.9049 139.2449 0.0000 0.0000 0.0000
# 4 0.0000 0.0000 0.0000 22.5840 0.0000 0.0000
# 5 0.0000 0.0000 0.0000 0.0000 17.4098 0.0000
# 6 0.0000 0.0000 0.0000 0.0000 0.0000 20.4211
#
#
#
# Elastic Compliance Matrix: (Units=1/GPa)
#
#
# Indices 1 2 3 4 5 6 
#
# 1 0.077463 -0.010577 -0.006409 0.000000 0.000000 0.000000
# 2 -0.010577 0.008342 -0.003628 0.000000 0.000000 0.000000
# 3 -0.006409 -0.003628 0.010652 0.000000 0.000000 0.000000
# 4 0.000000 0.000000 0.000000 0.044279 0.000000 0.000000
# 5 0.000000 0.000000 0.000000 0.000000 0.057439 0.000000
# 6 0.000000 0.000000 0.000000 0.000000 0.000000 0.048969
#
#
# Mechanical properties :
#
#
# Convention : Reuss Voigt Hill
#
# Bulk Modulus (GPa) = 18.10645 73.75583 45.93114
# Shear Modulus (GPa) = 16.29819 26.28506 21.29163
#
# Velocity S-wave (km/s) = 3.00951 3.82191 3.43977
# Velocity P-wave (km/s) = 4.70512 7.77580 6.42655
#
# Compressibility (1/GPa) = 0.05522893
#
# Stress axis : x y z
#
# Youngs Moduli (GPa) = 12.90931 119.87333 93.88123
#
# Poissons Ratio (x) = 1.26791 0.60168
# Poissons Ratio (y) = 0.13654 0.34061
# Poissons Ratio (z) = 0.08274 0.43492
#
# Static dielectric constant tensor:
#      x y z
#    x 3.075760 0.000000 0.000000 
#    y 0.000000 4.175930 0.000000 
#    z 0.000000 0.000000 3.314280 
# 
# 
# High freq. dielectric constant tensor:
#      x y z
#    x 1.650780 0.000000 0.000000 
#    y 0.000000 1.744560 0.000000 
#    z 0.000000 0.000000 1.681490 
# 
# From -- ./inp_files/39467.got.cif
#   From: 2010.03.12/outbox.cif.g09.slc.cpg/sg67_20_cif.got.tgz:39467.got - 2010.04.10 22:41:39.
