data_PCOD8280105
_publ_section_title
;
Structure prediction by ZEFSAII (Michael W. Deem and Ramdas Pophale) SiO2 
 PCOD8280105
Probable space group: C M M A
;
_chemical_formula_sum "Si O2"
_cell_formula_units_Z 96
_cell_length_a 8.683773
_cell_length_b 28.843387
_cell_length_c 20.714339
_cell_angle_alpha 90.000000
_cell_angle_beta 90.000000
_cell_angle_gamma 90.000000
_cell_volume 5188.308584
_symmetry_space_group_name_H-M "C M M A"
_symmetry_group_IT_number 67
_symmetry_cell_setting 'orthorhombic'
loop_
_space_group_symop_operation_xyz
x,y,z
-x,1/2-y,z
x,-y,-z
-x,1/2+y,-z
-x,-y,-z
x,1/2+y,-z
-x,y,z
x,1/2-y,z
1/2+x,1/2+y,z
1/2-x,-y,z
1/2+x,1/2-y,-z
1/2-x,y,-z
1/2-x,1/2-y,-z
1/2+x,y,-z
1/2-x,1/2+y,z
1/2+x,-y,z
loop_
_atom_site_type_symbol
_atom_site_label
_atom_site_fract_x
_atom_site_fract_y
_atom_site_fract_z
Si Si1 0.181208 0.608062 0.311369
Si Si2 0.316652 0.050517 0.433085
Si Si3 0.182789 0.300353 0.123035
Si Si4 0.316541 0.449446 0.188069
Si Si5 0.316740 0.603993 0.067992
Si Si6 0.679909 0.801756 0.268628
O O1 0.243759 0.583042 0.375411
O O2 0.242848 0.582465 0.247080
O O3 0.236203 0.661154 0.313798
O O4 0.000000 0.606479 0.311416
O O5 0.500000 0.047896 0.436906
O O6 0.250000 0.070755 0.500000
O O7 0.250000 0.000000 0.419501
O O8 0.241133 0.250000 0.096160
O O9 0.242599 0.343098 0.079957
O O10 0.244291 0.306947 0.195805
O O11 0.000000 0.300149 0.125077
O O12 0.500000 0.451303 0.183717
O O13 0.250000 0.500000 0.200706
O O14 0.248910 0.429858 0.121887
O O15 0.500000 0.600851 0.067946
O O16 0.250000 0.587057 0.000000
O O17 0.500000 0.812198 0.270180
O O18 0.715537 0.750000 0.294617
#
# Coordination Sequence:
#
# PCOD8280105 Si02
#       6
#    16  16  16  16  16  16
#     4  10  21  35  55  83 114 142 175 220 269 315
#     4  10  20  35  54  81 114 149 183 220 264 316
#     4   8  15  30  52  77 105 136 171 213 261 314
#     4  11  23  39  57  79 105 135 176 222 268 320
#     4  11  22  37  56  77 105 141 177 220 269 320
#     4   9  17  31  54  82 109 140 179 219 262 316
#
# _framework density 18.503139000000001
#
# number of rings (size 3 to 8) (size 9 to 14) (size 15 to 20)
#    0.000    2.167    1.667    3.500    0.000    3.000 
#    0.000    1.667    0.000    2.000    0.000    0.000 
#    0.000    0.000    0.000    0.000    0.000    0.000 
#
# Total GULP energy -595133.363020 kJ/mol
# GULP energy per Si atom -12398.611730 kJ/mol
# Density = 1.846103 g / cm^3
# Si number density = 18.503139 Si / 1000 Ang^3
#
#
#
# Elastic Constant Matrix: (Units=GPa)
#
#
# Indices 1 2 3 4 5 6 
#
# 1 47.1295 25.1854 30.1869 0.0000 0.0000 0.0000
# 2 25.1854 111.7802 59.7124 0.0000 0.0000 0.0000
# 3 30.1869 59.7124 129.5512 0.0000 0.0000 0.0000
# 4 0.0000 0.0000 0.0000 33.9014 0.0000 0.0000
# 5 0.0000 0.0000 0.0000 0.0000 24.1457 0.0000
# 6 0.0000 0.0000 0.0000 0.0000 0.0000 28.8479
#
#
#
# Elastic Compliance Matrix: (Units=1/GPa)
#
#
# Indices 1 2 3 4 5 6 
#
# 1 0.025915 -0.003467 -0.004441 0.000000 0.000000 0.000000
# 2 -0.003467 0.012332 -0.004876 0.000000 0.000000 0.000000
# 3 -0.004441 -0.004876 0.011001 0.000000 0.000000 0.000000
# 4 0.000000 0.000000 0.000000 0.029497 0.000000 0.000000
# 5 0.000000 0.000000 0.000000 0.000000 0.041415 0.000000
# 6 0.000000 0.000000 0.000000 0.000000 0.000000 0.034665
#
#
# Mechanical properties :
#
#
# Convention : Reuss Voigt Hill
#
# Bulk Modulus (GPa) = 42.22794 57.62557 49.92676
# Shear Modulus (GPa) = 26.55527 28.93741 27.74634
#
# Velocity S-wave (km/s) = 3.79248 3.95893 3.87660
# Velocity P-wave (km/s) = 6.48451 7.21864 6.86140
#
# Compressibility (1/GPa) = 0.02368100
#
# Stress axis : x y z
#
# Youngs Moduli (GPa) = 38.58770 81.08904 90.89904
#
# Poissons Ratio (x) = 0.28112 0.40364
# Poissons Ratio (y) = 0.13378 0.44325
# Poissons Ratio (z) = 0.17135 0.39541
#
# Static dielectric constant tensor:
#      x y z
#    x 3.200320 0.000000 0.000000 
#    y 0.000000 3.702880 0.000000 
#    z 0.000000 0.000000 3.483520 
# 
# 
# High freq. dielectric constant tensor:
#      x y z
#    x 1.706060 0.000000 0.000000 
#    y 0.000000 1.724950 0.000000 
#    z 0.000000 0.000000 1.704550 
# 
# From -- ./inp_files/37149.got.cif
#   From: 2010.03.12/outbox.cif.g09.slc.cpg/sg67_19_cif.got.tgz:37149.got - 2010.04.10 22:41:39.
