data_PCOD8280193
_publ_section_title
;
Structure prediction by ZEFSAII (Michael W. Deem and Ramdas Pophale) SiO2 
 PCOD8280193
Probable space group: C M M A
;
_chemical_formula_sum "Si O2"
_cell_formula_units_Z 112
_cell_length_a 33.488450
_cell_length_b 15.670428
_cell_length_c 11.602926
_cell_angle_alpha 90.000000
_cell_angle_beta 90.000000
_cell_angle_gamma 90.000000
_cell_volume 6088.964298
_symmetry_space_group_name_H-M "C M M A"
_symmetry_group_IT_number 67
_symmetry_cell_setting 'orthorhombic'
loop_
_space_group_symop_operation_xyz
x,y,z
-x,1/2-y,z
x,-y,-z
-x,1/2+y,-z
-x,-y,-z
x,1/2+y,-z
-x,y,z
x,1/2-y,z
1/2+x,1/2+y,z
1/2-x,-y,z
1/2+x,1/2-y,-z
1/2-x,y,-z
1/2-x,1/2-y,-z
1/2+x,y,-z
1/2-x,1/2+y,z
1/2+x,-y,z
loop_
_atom_site_type_symbol
_atom_site_label
_atom_site_fract_x
_atom_site_fract_y
_atom_site_fract_z
Si Si1 0.204780 0.348680 0.491226
Si Si2 0.602894 0.152939 0.872172
Si Si3 0.176692 0.417531 0.258763
Si Si4 0.828054 0.885962 0.260761
Si Si5 0.749363 0.152887 0.870850
Si Si6 0.405381 0.656094 0.863196
Si Si7 0.544416 0.495722 0.863592
O O1 0.207090 0.250000 0.456207
O O2 0.250000 0.385415 0.500000
O O3 0.179643 0.397253 0.393955
O O4 0.181096 0.362449 0.608364
O O5 0.587974 0.250000 0.851649
O O6 0.644296 0.140935 0.804832
O O7 0.569831 0.086872 0.823687
O O8 0.610147 0.134960 0.007637
O O9 0.164299 0.514555 0.242426
O O10 0.220169 0.404788 0.204265
O O11 0.793210 0.851140 0.180588
O O12 0.868169 0.839172 0.222774
O O13 0.733660 0.250000 0.868952
O O14 0.750000 0.116626 0.000000
O O15 0.426104 0.750000 0.861228
O O16 0.436083 0.584053 0.819131
O O17 0.500000 0.487569 0.810193
O O18 0.541512 0.500000 0.000000
#
# Coordination Sequence:
#
# PCOD8280193 Si02
#       7
#    16  16  16  16  16  16  16
#     4  11  23  39  57  75 102 143 190 238 283 325
#     4  10  20  35  56  83 116 151 186 227 276 330
#     4  12  23  36  55  78 108 145 188 233 279 325
#     4  12  23  36  55  78 108 145 188 233 279 325
#     4  11  23  36  51  74 105 145 189 228 274 329
#     4  10  20  35  56  83 116 151 186 227 276 330
#     4   9  18  34  56  84 117 148 180 222 275 337
#
# _framework density 18.393933000000001
#
# number of rings (size 3 to 8) (size 9 to 14) (size 15 to 20)
#    0.000    1.286    2.857    4.286    0.000    5.714 
#    0.000    2.857    0.000    0.000    0.000    2.000 
#    0.000    3.429    0.000    0.000    0.000    0.000 
#
# Total GULP energy -694600.600235 kJ/mol
# GULP energy per Si atom -12403.582147 kJ/mol
# Density = 1.835207 g / cm^3
# Si number density = 18.393933 Si / 1000 Ang^3
#
#
#
# Elastic Constant Matrix: (Units=GPa)
#
#
# Indices 1 2 3 4 5 6 
#
# 1 105.7596 31.9833 26.6064 0.0000 0.0000 0.0000
# 2 31.9833 111.5039 12.4580 0.0000 0.0000 0.0000
# 3 26.6064 12.4580 91.4069 0.0000 0.0000 0.0000
# 4 0.0000 0.0000 0.0000 24.0009 0.0000 0.0000
# 5 0.0000 0.0000 0.0000 0.0000 5.9713 0.0000
# 6 0.0000 0.0000 0.0000 0.0000 0.0000 40.8677
#
#
#
# Elastic Compliance Matrix: (Units=1/GPa)
#
#
# Indices 1 2 3 4 5 6 
#
# 1 0.011026 -0.002848 -0.002821 0.000000 0.000000 0.000000
# 2 -0.002848 0.009842 -0.000513 0.000000 0.000000 0.000000
# 3 -0.002821 -0.000513 0.011831 0.000000 0.000000 0.000000
# 4 0.000000 0.000000 0.000000 0.041665 0.000000 0.000000
# 5 0.000000 0.000000 0.000000 0.000000 0.167467 0.000000
# 6 0.000000 0.000000 0.000000 0.000000 0.000000 0.024469
#
#
# Mechanical properties :
#
#
# Convention : Reuss Voigt Hill
#
# Bulk Modulus (GPa) = 49.17184 50.08509 49.62847
# Shear Modulus (GPa) = 17.51659 30.00948 23.76303
#
# Velocity S-wave (km/s) = 3.08929 4.04355 3.59819
# Velocity P-wave (km/s) = 6.28614 7.00633 6.65598
#
# Compressibility (1/GPa) = 0.02033684
#
# Stress axis : x y z
#
# Youngs Moduli (GPa) = 90.69192 101.60186 84.52227
#
# Poissons Ratio (x) = 0.28931 0.23847
# Poissons Ratio (y) = 0.25825 0.04332
# Poissons Ratio (z) = 0.25588 0.05208
#
# Static dielectric constant tensor:
#      x y z
#    x 3.306330 0.000000 0.000000 
#    y 0.000000 3.600680 0.000000 
#    z 0.000000 0.000000 3.211250 
# 
# 
# High freq. dielectric constant tensor:
#      x y z
#    x 1.692240 0.000000 0.000000 
#    y 0.000000 1.734520 0.000000 
#    z 0.000000 0.000000 1.690040 
# 
# From -- ./inp_files/18650.got.cif
#   From: 2010.03.12/outbox.cif.g09.slc.cpg/sg67_10_cif.got.tgz:18650.got - 2010.04.10 22:41:39.
