data_PCOD8280808
_publ_section_title
;
Structure prediction by ZEFSAII (Michael W. Deem and Ramdas Pophale) SiO2 
 PCOD8280808
Probable space group: C M M A
;
_chemical_formula_sum "Si O2"
_cell_formula_units_Z 96
_cell_length_a 23.577416
_cell_length_b 8.835111
_cell_length_c 25.918526
_cell_angle_alpha 90.000000
_cell_angle_beta 90.000000
_cell_angle_gamma 90.000000
_cell_volume 5399.064499
_symmetry_space_group_name_H-M "C M M A"
_symmetry_group_IT_number 67
_symmetry_cell_setting 'orthorhombic'
loop_
_space_group_symop_operation_xyz
x,y,z
-x,1/2-y,z
x,-y,-z
-x,1/2+y,-z
-x,-y,-z
x,1/2+y,-z
-x,y,z
x,1/2-y,z
1/2+x,1/2+y,z
1/2-x,-y,z
1/2+x,1/2-y,-z
1/2-x,y,-z
1/2-x,1/2-y,-z
1/2+x,y,-z
1/2-x,1/2+y,z
1/2+x,-y,z
loop_
_atom_site_type_symbol
_atom_site_label
_atom_site_fract_x
_atom_site_fract_y
_atom_site_fract_z
Si Si1 0.000000 0.428903 0.714412
Si Si2 0.189386 0.928792 0.645552
Si Si3 0.119247 0.569541 0.445379
Si Si4 0.688530 0.426388 0.951046
Si Si5 0.689087 0.426659 0.837894
Si Si6 0.000000 0.070656 0.598454
Si Si7 0.386091 0.072521 0.744194
O O1 0.000000 0.496099 0.656287
O O2 0.945229 0.486126 0.744452
O O3 0.000000 0.250000 0.713186
O O4 0.194955 0.750000 0.636782
O O5 0.149096 0.968820 0.693314
O O6 0.250000 0.000000 0.657991
O O7 0.164375 0.006913 0.594988
O O8 0.136093 0.500000 0.500000
O O9 0.122874 0.750000 0.447025
O O10 0.056004 0.512085 0.430834
O O11 0.693750 0.250000 0.961478
O O12 0.750000 0.500000 0.949666
O O13 0.661389 0.459639 0.894632
O O14 0.654423 0.500000 0.000000
O O15 0.698864 0.250000 0.829844
O O16 0.750000 0.500000 0.830799
O O17 0.646984 0.489311 0.794348
O O18 0.000000 0.250000 0.600802
O O19 0.397954 0.250000 0.747919
#
# Coordination Sequence:
#
# PCOD8280808 Si02
#       7
#     8  16  16  16  16   8  16
#     4  11  21  36  58  82 104 133 170 209 258 305
#     4  11  23  38  57  80 105 138 173 208 253 305
#     4  11  22  39  59  82 109 136 169 210 254 304
#     4   9  15  24  40  64  97 136 174 212 252 297
#     4   9  18  31  48  73 106 141 176 213 256 304
#     4   9  19  36  58  82 107 132 162 206 255 301
#     4  10  21  37  55  78 106 136 172 212 257 308
#
# _framework density 17.780857999999998
#
# number of rings (size 3 to 8) (size 9 to 14) (size 15 to 20)
#    0.000    2.000    1.667    3.000    0.000    2.333 
#    0.000    2.917    0.000    0.000    0.000    0.583 
#    0.000    0.000    0.000    0.000    0.000    0.000 
#
# Total GULP energy -595108.566754 kJ/mol
# GULP energy per Si atom -12398.095141 kJ/mol
# Density = 1.774039 g / cm^3
# Si number density = 17.780858 Si / 1000 Ang^3
#
#
#
# Elastic Constant Matrix: (Units=GPa)
#
#
# Indices 1 2 3 4 5 6 
#
# 1 103.1854 41.1924 54.9715 0.0000 0.0000 0.0000
# 2 41.1924 71.6634 51.1514 0.0000 0.0000 0.0000
# 3 54.9715 51.1514 162.1555 0.0000 0.0000 0.0000
# 4 0.0000 0.0000 0.0000 24.3816 0.0000 0.0000
# 5 0.0000 0.0000 0.0000 0.0000 13.8685 0.0000
# 6 0.0000 0.0000 0.0000 0.0000 0.0000 25.0216
#
#
#
# Elastic Compliance Matrix: (Units=1/GPa)
#
#
# Indices 1 2 3 4 5 6 
#
# 1 0.013458 -0.005781 -0.002739 0.000000 0.000000 0.000000
# 2 -0.005781 0.020492 -0.004504 0.000000 0.000000 0.000000
# 3 -0.002739 -0.004504 0.008516 0.000000 0.000000 0.000000
# 4 0.000000 0.000000 0.000000 0.041015 0.000000 0.000000
# 5 0.000000 0.000000 0.000000 0.000000 0.072106 0.000000
# 6 0.000000 0.000000 0.000000 0.000000 0.000000 0.039966
#
#
# Mechanical properties :
#
#
# Convention : Reuss Voigt Hill
#
# Bulk Modulus (GPa) = 60.90760 70.18165 65.54462
# Shear Modulus (GPa) = 22.01929 25.30026 23.65978
#
# Velocity S-wave (km/s) = 3.52287 3.77622 3.65174
# Velocity P-wave (km/s) = 7.13277 7.65305 7.39748
#
# Compressibility (1/GPa) = 0.01641831
#
# Stress axis : x y z
#
# Youngs Moduli (GPa) = 74.30432 48.79920 117.42191
#
# Poissons Ratio (x) = 0.28210 0.32160
# Poissons Ratio (y) = 0.42955 0.52892
# Poissons Ratio (z) = 0.20351 0.21981
#
# Static dielectric constant tensor:
#      x y z
#    x 3.124400 0.000000 0.000000 
#    y 0.000000 3.273080 0.000000 
#    z 0.000000 0.000000 4.034800 
# 
# 
# High freq. dielectric constant tensor:
#      x y z
#    x 1.658670 0.000000 0.000000 
#    y 0.000000 1.690270 0.000000 
#    z 0.000000 0.000000 1.704480 
# 
# From -- ./inp_files/42570.got.cif
#   From: 2010.03.12/outbox.cif.g09.slc.cpg/sg67_22_cif.got.tgz:42570.got - 2010.04.10 22:41:39.
