data_PCOD8280084
_publ_section_title
;
Structure prediction by ZEFSAII (Michael W. Deem and Ramdas Pophale) SiO2 
 PCOD8280084
Probable space group: C M M A
;
_chemical_formula_sum "Si O2"
_cell_formula_units_Z 96
_cell_length_a 8.829558
_cell_length_b 19.389251
_cell_length_c 30.872990
_cell_angle_alpha 90.000000
_cell_angle_beta 90.000000
_cell_angle_gamma 90.000000
_cell_volume 5285.410081
_symmetry_space_group_name_H-M "C M M A"
_symmetry_group_IT_number 67
_symmetry_cell_setting 'orthorhombic'
loop_
_space_group_symop_operation_xyz
x,y,z
-x,1/2-y,z
x,-y,-z
-x,1/2+y,-z
-x,-y,-z
x,1/2+y,-z
-x,y,z
x,1/2-y,z
1/2+x,1/2+y,z
1/2-x,-y,z
1/2+x,1/2-y,-z
1/2-x,y,-z
1/2-x,1/2-y,-z
1/2+x,y,-z
1/2-x,1/2+y,z
1/2+x,-y,z
loop_
_atom_site_type_symbol
_atom_site_label
_atom_site_fract_x
_atom_site_fract_y
_atom_site_fract_z
Si Si1 0.329486 0.167877 0.871155
Si Si2 0.829668 0.667752 0.043040
Si Si3 0.177609 0.671900 0.215679
Si Si4 0.319850 0.927733 0.707272
Si Si5 0.180675 0.073353 0.384222
Si Si6 0.675300 0.830934 0.545286
O O1 0.500000 0.140995 0.871738
O O2 0.319126 0.250000 0.871734
O O3 0.249050 0.137702 0.913888
O O4 0.251786 0.139818 0.827481
O O5 0.821788 0.750000 0.043197
O O6 0.000000 0.640661 0.042751
O O7 0.750000 0.638410 0.000000
O O8 0.233541 0.750000 0.223764
O O9 0.227266 0.628186 0.257142
O O10 0.000000 0.669216 0.208261
O O11 0.500000 0.934206 0.701511
O O12 0.245549 0.904159 0.662286
O O13 0.250000 0.000000 0.722492
O O14 0.231424 0.131094 0.417717
O O15 0.000000 0.067929 0.382447
O O16 0.250000 0.000000 0.398374
O O17 0.500000 0.853826 0.545475
O O18 0.691746 0.750000 0.553844
O O19 0.750000 0.852230 0.500000
#
# Coordination Sequence:
#
# PCOD8280084 Si02
#       6
#    16  16  16  16  16  16
#     4   9  16  25  38  58  85 116 151 193 240 288
#     4   9  15  22  33  50  76 112 152 191 233 284
#     4   9  18  32  49  69  94 126 163 201 244 295
#     4  10  20  35  54  75 101 133 168 208 255 302
#     4  11  22  37  57  80 107 138 175 215 257 304
#     4  10  21  38  59  83 112 143 175 212 255 302
#
# _framework density 18.163207
#
# number of rings (size 3 to 8) (size 9 to 14) (size 15 to 20)
#    0.000    2.333    0.000    4.500    0.000    7.333 
#    0.000    3.333    0.000    0.000    0.000    0.000 
#    0.000    0.667    0.000    7.000    0.000   10.500 
#
# Total GULP energy -595220.022928 kJ/mol
# GULP energy per Si atom -12400.417144 kJ/mol
# Density = 1.812187 g / cm^3
# Si number density = 18.163207 Si / 1000 Ang^3
#
#
#
# Elastic Constant Matrix: (Units=GPa)
#
#
# Indices 1 2 3 4 5 6 
#
# 1 126.9446 37.3864 81.2601 0.0000 0.0000 0.0000
# 2 37.3864 46.5034 63.0534 0.0000 0.0000 0.0000
# 3 81.2601 63.0534 164.7882 0.0000 0.0000 0.0000
# 4 0.0000 0.0000 0.0000 -4.2981 0.0000 0.0000
# 5 0.0000 0.0000 0.0000 0.0000 38.7556 0.0000
# 6 0.0000 0.0000 0.0000 0.0000 0.0000 21.0845
#
#
#
# Elastic Compliance Matrix: (Units=1/GPa)
#
#
# Indices 1 2 3 4 5 6 
#
# 1 0.011750 -0.003305 -0.004530 0.000000 0.000000 0.000000
# 2 -0.003305 0.045618 -0.015825 0.000000 0.000000 0.000000
# 3 -0.004530 -0.015825 0.014357 0.000000 0.000000 0.000000
# 4 0.000000 0.000000 0.000000 -0.232661 0.000000 0.000000
# 5 0.000000 0.000000 0.000000 0.000000 0.025803 0.000000
# 6 0.000000 0.000000 0.000000 0.000000 0.000000 0.047428
#
#
# Mechanical properties :
#
#
# Convention : Reuss Voigt Hill
#
# Bulk Modulus (GPa) = 40.97349 77.95955 59.46652
# Shear Modulus (GPa) = -155.04346 21.54414 -66.74966
#
# Velocity S-wave (km/s) = -9.24914 3.44778 -6.06875
# Velocity P-wave (km/s) = 9.56319 7.67232 4.03672
#
# Compressibility (1/GPa) = 0.02440602
#
# Stress axis : x y z
#
# Youngs Moduli (GPa) = 85.10366 21.92112 69.65031
#
# Poissons Ratio (x) = 0.07244 0.31550
# Poissons Ratio (y) = 0.28125 1.10224
# Poissons Ratio (z) = 0.38550 0.34691
#
# Static dielectric constant tensor:
#      x y z
#    x 3.504360 0.000000 0.000000 
#    y 0.000000 2.984590 0.000000 
#    z 0.000000 0.000000 3.532300 
# 
# 
# High freq. dielectric constant tensor:
#      x y z
#    x 1.720290 0.000000 0.000000 
#    y 0.000000 1.654770 0.000000 
#    z 0.000000 0.000000 1.720210 
# 
# From -- ./inp_files/43502.got.cif
#   From: 2010.03.12/outbox.cif.g09.slc.cpg/sg67_22_cif.got.tgz:43502.got - 2010.04.10 22:41:39.
