data_PCOD8280344
_publ_section_title
;
Structure prediction by ZEFSAII (Michael W. Deem and Ramdas Pophale) SiO2 
 PCOD8280344
Probable space group: C M M A
;
_chemical_formula_sum "Si O2"
_cell_formula_units_Z 80
_cell_length_a 8.676490
_cell_length_b 18.950863
_cell_length_c 25.252697
_cell_angle_alpha 90.000000
_cell_angle_beta 90.000000
_cell_angle_gamma 90.000000
_cell_volume 4152.224536
_symmetry_space_group_name_H-M "C M M A"
_symmetry_group_IT_number 67
_symmetry_cell_setting 'orthorhombic'
loop_
_space_group_symop_operation_xyz
x,y,z
-x,1/2-y,z
x,-y,-z
-x,1/2+y,-z
-x,-y,-z
x,1/2+y,-z
-x,y,z
x,1/2-y,z
1/2+x,1/2+y,z
1/2-x,-y,z
1/2+x,1/2-y,-z
1/2-x,y,-z
1/2-x,1/2-y,-z
1/2+x,y,-z
1/2-x,1/2+y,z
1/2+x,-y,z
loop_
_atom_site_type_symbol
_atom_site_label
_atom_site_fract_x
_atom_site_fract_y
_atom_site_fract_z
Si Si1 0.318998 0.574409 0.743156
Si Si2 0.681744 0.424756 0.855105
Si Si3 0.323252 0.333336 0.054890
Si Si4 0.178717 0.168255 0.644079
Si Si5 0.318972 0.425854 0.556521
O O1 0.500000 0.565321 0.751459
O O2 0.250000 0.500000 0.724098
O O3 0.245314 0.599413 0.798198
O O4 0.277926 0.632845 0.699748
O O5 0.500000 0.431241 0.851938
O O6 0.750000 0.500000 0.872155
O O7 0.728713 0.366524 0.897357
O O8 0.500000 0.358073 0.057068
O O9 0.307648 0.250000 0.060421
O O10 0.250000 0.359856 0.000000
O O11 0.220704 0.250000 0.648703
O O12 0.280526 0.135300 0.597744
O O13 0.000000 0.156060 0.630349
O O14 0.500000 0.434593 0.550671
O O15 0.250000 0.500000 0.576788
O O16 0.250000 0.404240 0.500000
#
# Coordination Sequence:
#
# PCOD8280344 Si02
#       5
#    16  16  16  16  16
#     4  10  20  36  58  82 110 147 188 231 280 331
#     4  11  22  37  58  84 114 147 187 233 280 330
#     4  10  21  38  59  83 113 148 186 228 277 334
#     4  10  22  39  58  83 116 151 187 229 278 331
#     4  11  22  38  61  86 113 147 188 232 278 331
#
# _framework density 19.266781000000002
#
# number of rings (size 3 to 8) (size 9 to 14) (size 15 to 20)
#    0.000    1.600    0.000    7.200    0.000    6.400 
#    0.000    4.000    0.000    0.000    0.000    0.000 
#    0.000    0.000    0.000    0.000    0.000    0.000 
#
# Total GULP energy -496227.202171 kJ/mol
# GULP energy per Si atom -12405.680054 kJ/mol
# Density = 1.922293 g / cm^3
# Si number density = 19.266781 Si / 1000 Ang^3
#
#
#
# Elastic Constant Matrix: (Units=GPa)
#
#
# Indices 1 2 3 4 5 6 
#
# 1 150.1689 54.3680 71.0924 0.0000 0.0000 0.0000
# 2 54.3680 96.8979 75.4511 0.0000 0.0000 0.0000
# 3 71.0924 75.4511 129.1092 0.0000 0.0000 0.0000
# 4 0.0000 0.0000 0.0000 -31.8905 0.0000 0.0000
# 5 0.0000 0.0000 0.0000 0.0000 34.8425 0.0000
# 6 0.0000 0.0000 0.0000 0.0000 0.0000 30.7682
#
#
#
# Elastic Compliance Matrix: (Units=1/GPa)
#
#
# Indices 1 2 3 4 5 6 
#
# 1 0.009267 -0.002250 -0.003788 0.000000 0.000000 0.000000
# 2 -0.002250 0.019484 -0.010147 0.000000 0.000000 0.000000
# 3 -0.003788 -0.010147 0.015761 0.000000 0.000000 0.000000
# 4 0.000000 0.000000 0.000000 -0.031357 0.000000 0.000000
# 5 0.000000 0.000000 0.000000 0.000000 0.028701 0.000000
# 6 0.000000 0.000000 0.000000 0.000000 0.000000 0.032501
#
#
# Mechanical properties :
#
#
# Convention : Reuss Voigt Hill
#
# Bulk Modulus (GPa) = 82.36159 86.44433 84.40296
# Shear Modulus (GPa) = 45.13660 18.42835 31.78247
#
# Velocity S-wave (km/s) = 4.84541 3.09606 4.06593
# Velocity P-wave (km/s) = 8.61074 7.59903 8.12065
#
# Compressibility (1/GPa) = 0.01214158
#
# Stress axis : x y z
#
# Youngs Moduli (GPa) = 107.90938 51.32366 63.44675
#
# Poissons Ratio (x) = 0.11549 0.24032
# Poissons Ratio (y) = 0.24282 0.64382
# Poissons Ratio (z) = 0.40874 0.52081
#
# Static dielectric constant tensor:
#      x y z
#    x 3.669950 0.000000 0.000000 
#    y 0.000000 3.427900 0.000000 
#    z 0.000000 0.000000 3.599270 
# 
# 
# High freq. dielectric constant tensor:
#      x y z
#    x 1.765140 0.000000 0.000000 
#    y 0.000000 1.743770 0.000000 
#    z 0.000000 0.000000 1.761020 
# 
# From -- ./inp_files/43282.got.cif
#   From: 2010.03.12/outbox.cif.g09.slc.cpg/sg67_22_cif.got.tgz:43282.got - 2010.04.10 22:41:39.
