data_PCOD8280630
_publ_section_title
;
Structure prediction by ZEFSAII (Michael W. Deem and Ramdas Pophale) SiO2 
 PCOD8280630
Probable space group: C M M A
;
_chemical_formula_sum "Si O2"
_cell_formula_units_Z 96
_cell_length_a 9.221164
_cell_length_b 27.282254
_cell_length_c 24.028047
_cell_angle_alpha 90.000000
_cell_angle_beta 90.000000
_cell_angle_gamma 90.000000
_cell_volume 6044.835222
_symmetry_space_group_name_H-M "C M M A"
_symmetry_group_IT_number 67
_symmetry_cell_setting 'orthorhombic'
loop_
_space_group_symop_operation_xyz
x,y,z
-x,1/2-y,z
x,-y,-z
-x,1/2+y,-z
-x,-y,-z
x,1/2+y,-z
-x,y,z
x,1/2-y,z
1/2+x,1/2+y,z
1/2-x,-y,z
1/2+x,1/2-y,-z
1/2-x,y,-z
1/2-x,1/2-y,-z
1/2+x,y,-z
1/2-x,1/2+y,z
1/2+x,-y,z
loop_
_atom_site_type_symbol
_atom_site_label
_atom_site_fract_x
_atom_site_fract_y
_atom_site_fract_z
Si Si1 0.173037 0.195419 0.827157
Si Si2 0.669592 0.949016 0.335460
Si Si3 0.830986 0.610773 0.554509
Si Si4 0.660399 0.808368 0.948723
Si Si5 0.168069 0.634752 0.277320
Si Si6 0.833356 0.193732 0.612741
O O1 0.233880 0.250000 0.814295
O O2 0.227513 0.177362 0.888239
O O3 0.226855 0.157717 0.780257
O O4 0.000000 0.197951 0.827563
O O5 0.500000 0.955846 0.323896
O O6 0.699391 0.928000 0.396824
O O7 0.735083 0.912646 0.289472
O O8 0.750000 0.000000 0.329757
O O9 0.750000 0.590405 0.500000
O O10 0.767015 0.663723 0.570477
O O11 0.000000 0.616764 0.541944
O O12 0.500000 0.830497 0.954194
O O13 0.655387 0.750000 0.952812
O O14 0.750000 0.831145 0.000000
O O15 0.190038 0.675763 0.324392
O O16 0.000000 0.618908 0.273372
O O17 0.785388 0.250000 0.609497
O O18 0.000000 0.186557 0.594594
#
# Coordination Sequence:
#
# PCOD8280630 Si02
#       6
#    16  16  16  16  16  16
#     4   8  13  22  39  63  89 119 154 186 214 248
#     4  10  21  36  52  69  88 110 136 170 216 264
#     4  10  21  35  50  68  89 112 140 174 210 252
#     4   8  13  21  33  51  79 116 155 189 216 243
#     4   9  16  28  47  68  89 113 144 181 217 255
#     4   9  17  29  46  67  90 117 147 177 210 249
#
# _framework density 15.881327000000001
#
# number of rings (size 3 to 8) (size 9 to 14) (size 15 to 20)
#    0.000    3.000    0.000    2.500    0.000    5.000 
#    0.000    2.500    0.000    2.500    0.000    0.000 
#    0.000    0.667    0.000    7.667    0.000    2.667 
#
# Total GULP energy -595057.816317 kJ/mol
# GULP energy per Si atom -12397.037840 kJ/mol
# Density = 1.584518 g / cm^3
# Si number density = 15.881327 Si / 1000 Ang^3
#
#
#
# Elastic Constant Matrix: (Units=GPa)
#
#
# Indices 1 2 3 4 5 6 
#
# 1 73.3584 45.9516 51.9418 0.0000 0.0000 0.0000
# 2 45.9516 95.1673 49.0175 0.0000 0.0000 0.0000
# 3 51.9418 49.0175 125.4624 0.0000 0.0000 0.0000
# 4 0.0000 0.0000 0.0000 12.9471 0.0000 0.0000
# 5 0.0000 0.0000 0.0000 0.0000 23.0300 0.0000
# 6 0.0000 0.0000 0.0000 0.0000 0.0000 19.7919
#
#
#
# Elastic Compliance Matrix: (Units=1/GPa)
#
#
# Indices 1 2 3 4 5 6 
#
# 1 0.023151 -0.007814 -0.006532 0.000000 0.000000 0.000000
# 2 -0.007814 0.015793 -0.002935 0.000000 0.000000 0.000000
# 3 -0.006532 -0.002935 0.011821 0.000000 0.000000 0.000000
# 4 0.000000 0.000000 0.000000 0.077237 0.000000 0.000000
# 5 0.000000 0.000000 0.000000 0.000000 0.043422 0.000000
# 6 0.000000 0.000000 0.000000 0.000000 0.000000 0.050526
#
#
# Mechanical properties :
#
#
# Convention : Reuss Voigt Hill
#
# Bulk Modulus (GPa) = 61.71570 65.31225 63.51398
# Shear Modulus (GPa) = 19.09029 20.95896 20.02463
#
# Velocity S-wave (km/s) = 3.47083 3.63674 3.55476
# Velocity P-wave (km/s) = 7.41668 7.67131 7.54507
#
# Compressibility (1/GPa) = 0.01620333
#
# Stress axis : x y z
#
# Youngs Moduli (GPa) = 43.19379 63.32040 84.59286
#
# Poissons Ratio (x) = 0.49481 0.55254
# Poissons Ratio (y) = 0.33754 0.24827
# Poissons Ratio (z) = 0.28213 0.18584
#
# Static dielectric constant tensor:
#      x y z
#    x 2.977800 0.000000 0.000000 
#    y 0.000000 2.770330 0.000000 
#    z 0.000000 0.000000 3.246500 
# 
# 
# High freq. dielectric constant tensor:
#      x y z
#    x 1.598750 0.000000 0.000000 
#    y 0.000000 1.576180 0.000000 
#    z 0.000000 0.000000 1.611400 
# 
# From -- ./inp_files/40790.got.cif
#   From: 2010.03.12/outbox.cif.g09.slc.cpg/sg67_21_cif.got.tgz:40790.got - 2010.04.10 22:41:39.
