data_PCOD8280723
_publ_section_title
;
Structure prediction by ZEFSAII (Michael W. Deem and Ramdas Pophale) SiO2 
 PCOD8280723
Probable space group: C M M A
;
_chemical_formula_sum "Si O2"
_cell_formula_units_Z 72
_cell_length_a 21.755783
_cell_length_b 9.559248
_cell_length_c 17.816161
_cell_angle_alpha 90.000000
_cell_angle_beta 90.000000
_cell_angle_gamma 90.000000
_cell_volume 3705.207853
_symmetry_space_group_name_H-M "C M M A"
_symmetry_group_IT_number 67
_symmetry_cell_setting 'orthorhombic'
loop_
_space_group_symop_operation_xyz
x,y,z
-x,1/2-y,z
x,-y,-z
-x,1/2+y,-z
-x,-y,-z
x,1/2+y,-z
-x,y,z
x,1/2-y,z
1/2+x,1/2+y,z
1/2-x,-y,z
1/2+x,1/2-y,-z
1/2-x,y,-z
1/2-x,1/2-y,-z
1/2+x,y,-z
1/2-x,1/2+y,z
1/2+x,-y,z
loop_
_atom_site_type_symbol
_atom_site_label
_atom_site_fract_x
_atom_site_fract_y
_atom_site_fract_z
Si Si1 0.428499 0.412665 0.927502
Si Si2 0.173555 0.908011 0.435116
Si Si3 0.429311 0.087040 0.630209
Si Si4 0.130989 0.090207 0.220965
Si Si5 0.250000 0.000000 0.698513
O O1 0.500000 0.435552 0.907549
O O2 0.414611 0.250000 0.943828
O O3 0.387235 0.477485 0.859091
O O4 0.408775 0.500000 0.000000
O O5 0.162331 0.750000 0.463524
O O6 0.213253 0.897630 0.358182
O O7 0.207353 0.000000 0.500000
O O8 0.109024 0.988186 0.424571
O O9 0.500000 0.064259 0.611433
O O10 0.409611 0.250000 0.620673
O O11 0.414341 0.033980 0.714363
O O12 0.115195 0.250000 0.208483
O O13 0.202045 0.074741 0.245903
#
# Coordination Sequence:
#
# PCOD8280723 Si02
#       5
#    16  16  16  16   8
#     4   9  17  31  53  80 108 137 169 206 250 301
#     4  11  23  37  55  78 104 136 173 216 265 315
#     4   9  18  34  56  80 105 135 173 217 265 316
#     4   9  17  32  54  77 102 136 176 214 255 306
#     4  10  21  36  55  76 102 132 174 222 263 304
#
# _framework density 19.432109000000001
#
# number of rings (size 3 to 8) (size 9 to 14) (size 15 to 20)
#    0.000    2.444    0.000    2.333    0.000    7.111 
#    0.000    6.111    0.000    8.000    0.000    0.000 
#    0.000    0.000    0.000    0.000    0.000    0.000 
#
# Total GULP energy -446037.774170 kJ/mol
# GULP energy per Si atom -12389.938171 kJ/mol
# Density = 1.938788 g / cm^3
# Si number density = 19.432109 Si / 1000 Ang^3
#
#
#
# Elastic Constant Matrix: (Units=GPa)
#
#
# Indices 1 2 3 4 5 6 
#
# 1 103.3654 32.4958 49.7733 0.0000 0.0000 0.0000
# 2 32.4958 96.2854 42.4555 0.0000 0.0000 0.0000
# 3 49.7733 42.4555 134.2675 0.0000 0.0000 0.0000
# 4 0.0000 0.0000 0.0000 26.9281 0.0000 0.0000
# 5 0.0000 0.0000 0.0000 0.0000 24.2491 0.0000
# 6 0.0000 0.0000 0.0000 0.0000 0.0000 12.9435
#
#
#
# Elastic Compliance Matrix: (Units=1/GPa)
#
#
# Indices 1 2 3 4 5 6 
#
# 1 0.012266 -0.002481 -0.003763 0.000000 0.000000 0.000000
# 2 -0.002481 0.012570 -0.003055 0.000000 0.000000 0.000000
# 3 -0.003763 -0.003055 0.009809 0.000000 0.000000 0.000000
# 4 0.000000 0.000000 0.000000 0.037136 0.000000 0.000000
# 5 0.000000 0.000000 0.000000 0.000000 0.041239 0.000000
# 6 0.000000 0.000000 0.000000 0.000000 0.000000 0.077259
#
#
# Mechanical properties :
#
#
# Convention : Reuss Voigt Hill
#
# Bulk Modulus (GPa) = 62.31298 64.81860 63.56579
# Shear Modulus (GPa) = 23.33996 26.77037 25.05516
#
# Velocity S-wave (km/s) = 3.46945 3.71568 3.59467
# Velocity P-wave (km/s) = 6.94162 7.19981 7.07189
#
# Compressibility (1/GPa) = 0.01604802
#
# Stress axis : x y z
#
# Youngs Moduli (GPa) = 81.52533 79.55401 101.95050
#
# Poissons Ratio (x) = 0.19735 0.38361
# Poissons Ratio (y) = 0.20224 0.31147
# Poissons Ratio (z) = 0.30676 0.24304
#
# Static dielectric constant tensor:
#      x y z
#    x 3.484480 0.000000 0.000000 
#    y 0.000000 3.275590 0.000000 
#    z 0.000000 0.000000 3.833420 
# 
# 
# High freq. dielectric constant tensor:
#      x y z
#    x 1.755930 0.000000 0.000000 
#    y 0.000000 1.728150 0.000000 
#    z 0.000000 0.000000 1.760930 
# 
# From -- ./inp_files/35362.got.cif
#   From: 2010.03.12/outbox.cif.g09.slc.cpg/sg67_18_cif.got.tgz:35362.got - 2010.04.10 22:41:39.
