data_PCOD8280422
_publ_section_title
;
Structure prediction by ZEFSAII (Michael W. Deem and Ramdas Pophale) SiO2 
 PCOD8280422
Probable space group: C M M A
;
_chemical_formula_sum "Si O2"
_cell_formula_units_Z 88
_cell_length_a 15.474370
_cell_length_b 23.729970
_cell_length_c 11.773258
_cell_angle_alpha 90.000000
_cell_angle_beta 90.000000
_cell_angle_gamma 90.000000
_cell_volume 4323.214931
_symmetry_space_group_name_H-M "C M M A"
_symmetry_group_IT_number 67
_symmetry_cell_setting 'orthorhombic'
loop_
_space_group_symop_operation_xyz
x,y,z
-x,1/2-y,z
x,-y,-z
-x,1/2+y,-z
-x,-y,-z
x,1/2+y,-z
-x,y,z
x,1/2-y,z
1/2+x,1/2+y,z
1/2-x,-y,z
1/2+x,1/2-y,-z
1/2-x,y,-z
1/2-x,1/2-y,-z
1/2+x,y,-z
1/2-x,1/2+y,z
1/2+x,-y,z
loop_
_atom_site_type_symbol
_atom_site_label
_atom_site_fract_x
_atom_site_fract_y
_atom_site_fract_z
Si Si1 0.500000 0.991436 0.218876
Si Si2 0.659204 0.317424 0.744185
Si Si3 0.843224 0.017077 0.629833
Si Si4 0.094032 0.813805 0.506579
Si Si5 0.000000 0.129732 0.123453
Si Si6 0.500000 0.382668 0.137726
Si Si7 0.340734 0.858894 0.711982
O O1 0.500000 0.937599 0.137994
O O2 0.584508 0.986302 0.296565
O O3 0.500000 0.049169 0.146179
O O4 0.664445 0.250000 0.757410
O O5 0.642475 0.339951 0.615560
O O6 0.585011 0.341266 0.825358
O O7 0.751026 0.346003 0.776707
O O8 0.849329 0.083573 0.642229
O O9 0.856150 0.000000 0.500000
O O10 0.750000 0.000000 0.677872
O O11 0.078363 0.750000 0.541874
O O12 0.147732 0.814104 0.389764
O O13 0.000000 0.843621 0.490001
O O14 0.000000 0.139522 0.989684
O O15 0.584510 0.355705 0.194818
#
# Coordination Sequence:
#
# PCOD8280422 Si02
#       7
#     8  16  16  16   8   8  16
#     4  10  22  41  63  86 117 164 205 250 310 367
#     4  11  24  41  63  95 126 162 211 253 308 377
#     4  10  22  34  54  93 130 152 198 242 302 380
#     4  10  20  36  61  92 123 159 199 242 303 376
#     4  12  24  42  69  83 121 166 212 267 313 343
#     4  10  25  45  60  93 118 159 217 263 300 375
#     4  11  22  40  63  86 131 163 198 254 314 366
#
# _framework density 20.355222000000001
#
# number of rings (size 3 to 8) (size 9 to 14) (size 15 to 20)
#    0.000    1.455    1.818    3.000    7.636    2.182 
#    0.000    4.545    0.000    3.273    0.000    0.000 
#    0.000    0.000    0.000    0.000    0.000    0.000 
#
# Total GULP energy -545553.880211 kJ/mol
# GULP energy per Si atom -12398.951823 kJ/mol
# Density = 2.030889 g / cm^3
# Si number density = 20.355222 Si / 1000 Ang^3
#
#
#
# Elastic Constant Matrix: (Units=GPa)
#
#
# Indices 1 2 3 4 5 6 
#
# 1 181.5677 31.2823 77.3160 0.0000 0.0000 0.0000
# 2 31.2823 58.8418 39.7529 0.0000 0.0000 0.0000
# 3 77.3160 39.7529 146.2201 0.0000 0.0000 0.0000
# 4 0.0000 0.0000 0.0000 23.5985 0.0000 0.0000
# 5 0.0000 0.0000 0.0000 0.0000 6.8730 0.0000
# 6 0.0000 0.0000 0.0000 0.0000 0.0000 32.9154
#
#
#
# Elastic Compliance Matrix: (Units=1/GPa)
#
#
# Indices 1 2 3 4 5 6 
#
# 1 0.007221 -0.001543 -0.003399 0.000000 0.000000 0.000000
# 2 -0.001543 0.021148 -0.004934 0.000000 0.000000 0.000000
# 3 -0.003399 -0.004934 0.009977 0.000000 0.000000 0.000000
# 4 0.000000 0.000000 0.000000 0.042376 0.000000 0.000000
# 5 0.000000 0.000000 0.000000 0.000000 0.145497 0.000000
# 6 0.000000 0.000000 0.000000 0.000000 0.000000 0.030381
#
#
# Mechanical properties :
#
#
# Convention : Reuss Voigt Hill
#
# Bulk Modulus (GPa) = 53.77516 75.92577 64.85047
# Shear Modulus (GPa) = 17.69606 28.56259 23.12933
#
# Velocity S-wave (km/s) = 2.95169 3.75000 3.37454
# Velocity P-wave (km/s) = 6.17190 7.49209 6.86381
#
# Compressibility (1/GPa) = 0.01859595
#
# Stress axis : x y z
#
# Youngs Moduli (GPa) = 138.49313 47.28556 100.22630
#
# Poissons Ratio (x) = 0.07295 0.34063
# Poissons Ratio (y) = 0.21365 0.49450
# Poissons Ratio (z) = 0.47068 0.23330
#
# Static dielectric constant tensor:
#      x y z
#    x 4.154110 0.000000 0.000000 
#    y 0.000000 3.635820 0.000000 
#    z 0.000000 0.000000 3.393280 
# 
# 
# High freq. dielectric constant tensor:
#      x y z
#    x 1.816490 0.000000 0.000000 
#    y 0.000000 1.795020 0.000000 
#    z 0.000000 0.000000 1.772860 
# 
# From -- ./inp_files/18372.got.cif
#   From: 2010.03.12/outbox.cif.g09.slc.cpg/sg67_10_cif.got.tgz:18372.got - 2010.04.10 22:41:39.
