data_PCOD8280511
_publ_section_title
;
Structure prediction by ZEFSAII (Michael W. Deem and Ramdas Pophale) SiO2 
 PCOD8280511
Probable space group: C M M A
;
_chemical_formula_sum "Si O2"
_cell_formula_units_Z 104
_cell_length_a 28.837103
_cell_length_b 16.434834
_cell_length_c 10.741798
_cell_angle_alpha 90.000000
_cell_angle_beta 90.000000
_cell_angle_gamma 90.000000
_cell_volume 5090.892561
_symmetry_space_group_name_H-M "C M M A"
_symmetry_group_IT_number 67
_symmetry_cell_setting 'orthorhombic'
loop_
_space_group_symop_operation_xyz
x,y,z
-x,1/2-y,z
x,-y,-z
-x,1/2+y,-z
-x,-y,-z
x,1/2+y,-z
-x,y,z
x,1/2-y,z
1/2+x,1/2+y,z
1/2-x,-y,z
1/2+x,1/2-y,-z
1/2-x,y,-z
1/2-x,1/2-y,-z
1/2+x,y,-z
1/2-x,1/2+y,z
1/2+x,-y,z
loop_
_atom_site_type_symbol
_atom_site_label
_atom_site_fract_x
_atom_site_fract_y
_atom_site_fract_z
Si Si1 0.500000 0.659517 0.280236
Si Si2 0.245426 0.658643 0.139641
Si Si3 0.903951 0.342107 0.391668
Si Si4 0.000000 0.905603 0.988431
Si Si5 0.846282 0.119743 0.153420
Si Si6 0.836060 0.553297 0.236681
Si Si7 0.097639 0.342534 0.909786
Si Si8 0.137972 0.000000 0.500000
O O1 0.500000 0.750000 0.224105
O O2 0.542078 0.644125 0.372549
O O3 0.500000 0.603977 0.159450
O O4 0.224930 0.750000 0.142675
O O5 0.297257 0.658700 0.194152
O O6 0.211633 0.601397 0.217796
O O7 0.250000 0.624695 0.000000
O O8 0.893380 0.250000 0.443923
O O9 0.882030 0.350759 0.255955
O O10 0.889854 0.415237 0.483446
O O11 0.953645 0.870882 0.051893
O O12 0.000000 0.000000 0.000000
O O13 0.840437 0.022740 0.143863
O O14 0.864734 0.150104 0.020424
O O15 0.881759 0.607865 0.208384
O O16 0.832463 0.517710 0.376588
O O17 0.093719 0.250000 0.866819
#
# Coordination Sequence:
#
# PCOD8280511 Si02
#       8
#     8  16  16   8  16  16  16   8
#     4  10  20  37  64  92 122 163 210 264 328 398
#     4  11  22  36  61  98 132 166 206 257 332 402
#     4  10  21  40  65  90 122 166 216 269 325 387
#     4  12  24  36  60  99 136 170 203 262 347 420
#     4  11  21  37  62  95 128 162 206 263 326 399
#     4  11  24  42  62  89 128 175 216 271 318 381
#     4  12  23  38  62  95 134 167 206 267 339 405
#     4  10  26  45  65  88 124 176 238 269 315 380
#
# _framework density 20.428639
#
# number of rings (size 3 to 8) (size 9 to 14) (size 15 to 20)
#    0.000    1.077    3.077    4.385    2.154    2.154 
#    0.000    6.923    0.000    6.462    0.000    0.000 
#    0.000    0.000    0.000    0.000    0.000    0.000 
#
# Total GULP energy -644646.556394 kJ/mol
# GULP energy per Si atom -12397.049161 kJ/mol
# Density = 2.038214 g / cm^3
# Si number density = 20.428639 Si / 1000 Ang^3
#
#
#
# Elastic Constant Matrix: (Units=GPa)
#
#
# Indices 1 2 3 4 5 6 
#
# 1 124.1296 39.3126 18.4050 0.0000 0.0000 0.0000
# 2 39.3126 156.5323 33.5123 0.0000 0.0000 0.0000
# 3 18.4050 33.5123 68.4718 0.0000 0.0000 0.0000
# 4 0.0000 0.0000 0.0000 28.9045 0.0000 0.0000
# 5 0.0000 0.0000 0.0000 0.0000 19.9596 0.0000
# 6 0.0000 0.0000 0.0000 0.0000 0.0000 44.9343
#
#
#
# Elastic Compliance Matrix: (Units=1/GPa)
#
#
# Indices 1 2 3 4 5 6 
#
# 1 0.008879 -0.001920 -0.001447 0.000000 0.000000 0.000000
# 2 -0.001920 0.007551 -0.003180 0.000000 0.000000 0.000000
# 3 -0.001447 -0.003180 0.016550 0.000000 0.000000 0.000000
# 4 0.000000 0.000000 0.000000 0.034597 0.000000 0.000000
# 5 0.000000 0.000000 0.000000 0.000000 0.050101 0.000000
# 6 0.000000 0.000000 0.000000 0.000000 0.000000 0.022255
#
#
# Mechanical properties :
#
#
# Convention : Reuss Voigt Hill
#
# Bulk Modulus (GPa) = 50.28544 59.06595 54.67569
# Shear Modulus (GPa) = 31.31758 35.95328 33.63543
#
# Velocity S-wave (km/s) = 3.91963 4.19972 4.06209
# Velocity P-wave (km/s) = 6.71962 7.24520 6.98735
#
# Compressibility (1/GPa) = 0.01988647
#
# Stress axis : x y z
#
# Youngs Moduli (GPa) = 112.62868 132.42473 60.42393
#
# Poissons Ratio (x) = 0.25427 0.08742
# Poissons Ratio (y) = 0.21626 0.19214
# Poissons Ratio (z) = 0.16295 0.42108
#
# Static dielectric constant tensor:
#      x y z
#    x 3.808550 0.000000 0.000000 
#    y 0.000000 4.015180 0.000000 
#    z 0.000000 0.000000 3.392720 
# 
# 
# High freq. dielectric constant tensor:
#      x y z
#    x 1.806190 0.000000 0.000000 
#    y 0.000000 1.823160 0.000000 
#    z 0.000000 0.000000 1.767410 
# 
# From -- ./inp_files/23009.got.cif
#   From: 2010.03.12/outbox.cif.g09.slc.cpg/sg67_12_cif.got.tgz:23009.got - 2010.04.10 22:41:39.
