data_PCOD8280128
_publ_section_title
;
Structure prediction by ZEFSAII (Michael W. Deem and Ramdas Pophale) SiO2 
 PCOD8280128
Probable space group: C M M A
;
_chemical_formula_sum "Si O2"
_cell_formula_units_Z 96
_cell_length_a 19.802494
_cell_length_b 8.744435
_cell_length_c 29.913786
_cell_angle_alpha 90.000000
_cell_angle_beta 90.000000
_cell_angle_gamma 90.000000
_cell_volume 5179.919693
_symmetry_space_group_name_H-M "C M M A"
_symmetry_group_IT_number 67
_symmetry_cell_setting 'orthorhombic'
loop_
_space_group_symop_operation_xyz
x,y,z
-x,1/2-y,z
x,-y,-z
-x,1/2+y,-z
-x,-y,-z
x,1/2+y,-z
-x,y,z
x,1/2-y,z
1/2+x,1/2+y,z
1/2-x,-y,z
1/2+x,1/2-y,-z
1/2-x,y,-z
1/2-x,1/2-y,-z
1/2+x,y,-z
1/2-x,1/2+y,z
1/2+x,-y,z
loop_
_atom_site_type_symbol
_atom_site_label
_atom_site_fract_x
_atom_site_fract_y
_atom_site_fract_z
Si Si1 0.578531 0.928431 0.046576
Si Si2 0.319333 0.429922 0.216705
Si Si3 0.922625 0.072500 0.709111
Si Si4 0.320717 0.430664 0.452196
Si Si5 0.421364 0.072923 0.616192
Si Si6 0.820505 0.430904 0.884627
O O1 0.500000 0.963256 0.054538
O O2 0.594439 0.750000 0.045507
O O3 0.618003 0.006473 0.086724
O O4 0.603265 0.000000 0.000000
O O5 0.311970 0.250000 0.217917
O O6 0.250000 0.500000 0.235030
O O7 0.379472 0.485724 0.248739
O O8 0.334022 0.485485 0.166241
O O9 0.909152 0.250000 0.698216
O O10 0.000000 0.043139 0.722023
O O11 0.901051 0.974210 0.666266
O O12 0.340332 0.500000 0.500000
O O13 0.313238 0.250000 0.456663
O O14 0.250000 0.500000 0.434874
O O15 0.379723 0.470478 0.417990
O O16 0.500000 0.038741 0.607673
O O17 0.403825 0.250000 0.608924
O O18 0.817094 0.250000 0.888973
O O19 0.750000 0.500000 0.902206
#
# Coordination Sequence:
#
# PCOD8280128 Si02
#       6
#    16  16  16  16  16  16
#     4  10  21  37  56  79 107 138 174 217 264 315
#     4   9  19  34  53  77 105 138 174 216 263 313
#     4   9  18  34  54  76 104 139 179 220 263 312
#     4  11  22  38  59  82 110 142 178 220 267 318
#     4  10  21  37  56  80 110 143 181 223 266 314
#     4  10  20  35  55  79 108 141 178 219 264 314
#
# _framework density 18.533106
#
# number of rings (size 3 to 8) (size 9 to 14) (size 15 to 20)
#    0.000    2.167    0.000    3.500    0.000    5.333 
#    0.000    5.000    0.000    2.000    0.000    0.000 
#    0.000    0.000    0.000    0.000    0.000    0.000 
#
# Total GULP energy -595386.835435 kJ/mol
# GULP energy per Si atom -12403.892405 kJ/mol
# Density = 1.849092 g / cm^3
# Si number density = 18.533106 Si / 1000 Ang^3
#
#
#
# Elastic Constant Matrix: (Units=GPa)
#
#
# Indices 1 2 3 4 5 6 
#
# 1 96.8694 46.8908 75.6744 0.0000 0.0000 0.0000
# 2 46.8908 95.2131 47.7901 0.0000 0.0000 0.0000
# 3 75.6744 47.7901 110.0488 0.0000 0.0000 0.0000
# 4 0.0000 0.0000 0.0000 31.8171 0.0000 0.0000
# 5 0.0000 0.0000 0.0000 0.0000 4.6157 0.0000
# 6 0.0000 0.0000 0.0000 0.0000 0.0000 33.2681
#
#
#
# Elastic Compliance Matrix: (Units=1/GPa)
#
#
# Indices 1 2 3 4 5 6 
#
# 1 0.023703 -0.004466 -0.014360 0.000000 0.000000 0.000000
# 2 -0.004466 0.014271 -0.003127 0.000000 0.000000 0.000000
# 3 -0.014360 -0.003127 0.020319 0.000000 0.000000 0.000000
# 4 0.000000 0.000000 0.000000 0.031430 0.000000 0.000000
# 5 0.000000 0.000000 0.000000 0.000000 0.216651 0.000000
# 6 0.000000 0.000000 0.000000 0.000000 0.000000 0.030059
#
#
# Mechanical properties :
#
#
# Convention : Reuss Voigt Hill
#
# Bulk Modulus (GPa) = 69.49801 71.42689 70.46245
# Shear Modulus (GPa) = 12.98253 22.72526 17.85390
#
# Velocity S-wave (km/s) = 2.64958 3.50551 3.10716
# Velocity P-wave (km/s) = 6.85136 7.41678 7.13967
#
# Compressibility (1/GPa) = 0.01438890
#
# Stress axis : x y z
#
# Youngs Moduli (GPa) = 42.18939 70.07016 49.21467
#
# Poissons Ratio (x) = 0.31290 0.70671
# Poissons Ratio (y) = 0.18840 0.15389
# Poissons Ratio (z) = 0.60583 0.21910
#
# Static dielectric constant tensor:
#      x y z
#    x 3.446010 0.000000 0.000000 
#    y 0.000000 3.476200 0.000000 
#    z 0.000000 0.000000 3.508600 
# 
# 
# High freq. dielectric constant tensor:
#      x y z
#    x 1.720140 0.000000 0.000000 
#    y 0.000000 1.728030 0.000000 
#    z 0.000000 0.000000 1.721480 
# 
# From -- ./inp_files/43448.got.cif
#   From: 2010.03.12/outbox.cif.g09.slc.cpg/sg67_22_cif.got.tgz:43448.got - 2010.04.10 22:41:39.
