data_PCOD8280591
_publ_section_title
;
Structure prediction by ZEFSAII (Michael W. Deem and Ramdas Pophale) SiO2 
 PCOD8280591
Probable space group: C M M A
;
_chemical_formula_sum "Si O2"
_cell_formula_units_Z 104
_cell_length_a 26.135570
_cell_length_b 21.951737
_cell_length_c 8.965108
_cell_angle_alpha 90.000000
_cell_angle_beta 90.000000
_cell_angle_gamma 90.000000
_cell_volume 5143.472152
_symmetry_space_group_name_H-M "C M M A"
_symmetry_group_IT_number 67
_symmetry_cell_setting 'orthorhombic'
loop_
_space_group_symop_operation_xyz
x,y,z
-x,1/2-y,z
x,-y,-z
-x,1/2+y,-z
-x,-y,-z
x,1/2+y,-z
-x,y,z
x,1/2-y,z
1/2+x,1/2+y,z
1/2-x,-y,z
1/2+x,1/2-y,-z
1/2-x,y,-z
1/2-x,1/2-y,-z
1/2+x,y,-z
1/2-x,1/2+y,z
1/2+x,-y,z
loop_
_atom_site_type_symbol
_atom_site_label
_atom_site_fract_x
_atom_site_fract_y
_atom_site_fract_z
Si Si1 0.163444 0.012272 0.823215
Si Si2 0.945625 0.481807 0.170217
Si Si3 0.189765 0.392935 0.336481
Si Si4 0.555918 0.750000 0.437809
Si Si5 0.696068 0.870052 0.672765
Si Si6 0.412961 0.346692 0.791311
Si Si7 0.938722 0.250000 0.975688
Si Si8 0.368123 0.750000 0.700441
O O1 0.185500 0.078741 0.796303
O O2 0.104822 0.012491 0.759798
O O3 0.194789 0.961107 0.731485
O O4 0.165839 0.000000 0.000000
O O5 0.941641 0.409624 0.186291
O O6 0.000000 0.502265 0.246064
O O7 0.948007 0.500000 0.000000
O O8 0.243273 0.357142 0.321387
O O9 0.176923 0.395543 0.512769
O O10 0.146791 0.355631 0.247683
O O11 0.500000 0.750000 0.518172
O O12 0.558248 0.810187 0.337507
O O13 0.605244 0.750000 0.540981
O O14 0.667330 0.808842 0.719030
O O15 0.417093 0.310082 0.944890
O O16 0.915468 0.250000 0.812067
O O17 0.000000 0.250000 0.968703
#
# Coordination Sequence:
#
# PCOD8280591 Si02
#       8
#    16  16  16   8  16  16   8   8
#     4  10  22  39  66  96 129 165 214 263 312 380
#     4   9  18  33  58  89 122 158 199 254 317 363
#     4  10  22  41  70  90 126 169 212 261 319 371
#     4  11  21  40  65  88 124 168 213 258 305 370
#     4  11  24  43  62  94 130 174 213 257 318 378
#     4  10  20  40  65  95 117 163 217 259 303 387
#     4  11  25  42  64  88 127 169 207 253 321 387
#     4  12  27  41  60  94 133 165 207 266 313 377
#
# _framework density 20.219805000000001
#
# number of rings (size 3 to 8) (size 9 to 14) (size 15 to 20)
#    0.000    1.692    1.538    3.000    6.462    4.923 
#    0.000    1.538    0.000    1.846    0.000    0.000 
#    0.000    0.000    0.000    0.000    0.000    0.000 
#
# Total GULP energy -644622.012670 kJ/mol
# GULP energy per Si atom -12396.577167 kJ/mol
# Density = 2.017378 g / cm^3
# Si number density = 20.219805 Si / 1000 Ang^3
#
#
#
# Elastic Constant Matrix: (Units=GPa)
#
#
# Indices 1 2 3 4 5 6 
#
# 1 130.1888 51.8500 37.3974 0.0000 0.0000 0.0000
# 2 51.8500 100.9306 38.6536 0.0000 0.0000 0.0000
# 3 37.3974 38.6536 86.1196 0.0000 0.0000 0.0000
# 4 0.0000 0.0000 0.0000 -7.5338 0.0000 0.0000
# 5 0.0000 0.0000 0.0000 0.0000 66.3286 0.0000
# 6 0.0000 0.0000 0.0000 0.0000 0.0000 26.4239
#
#
#
# Elastic Compliance Matrix: (Units=1/GPa)
#
#
# Indices 1 2 3 4 5 6 
#
# 1 0.010077 -0.004227 -0.002478 0.000000 0.000000 0.000000
# 2 -0.004227 0.013738 -0.004330 0.000000 0.000000 0.000000
# 3 -0.002478 -0.004330 0.014632 0.000000 0.000000 0.000000
# 4 0.000000 0.000000 0.000000 -0.132735 0.000000 0.000000
# 5 0.000000 0.000000 0.000000 0.000000 0.015076 0.000000
# 6 0.000000 0.000000 0.000000 0.000000 0.000000 0.037844
#
#
# Mechanical properties :
#
#
# Convention : Reuss Voigt Hill
#
# Bulk Modulus (GPa) = 61.07259 63.67121 62.37190
# Shear Modulus (GPa) = -361.32326 29.66630 -165.82848
#
# Velocity S-wave (km/s) = -13.38229 3.83455 -9.06592
# Velocity P-wave (km/s) = 14.43991 7.15282 8.86984
#
# Compressibility (1/GPa) = 0.01637396
#
# Stress axis : x y z
#
# Youngs Moduli (GPa) = 99.23846 72.79134 68.34528
#
# Poissons Ratio (x) = 0.30772 0.16939
# Poissons Ratio (y) = 0.41953 0.29595
# Poissons Ratio (z) = 0.24595 0.31521
#
# Static dielectric constant tensor:
#      x y z
#    x 4.101280 0.000000 0.000000 
#    y 0.000000 3.647410 0.000000 
#    z 0.000000 0.000000 3.628070 
# 
# 
# High freq. dielectric constant tensor:
#      x y z
#    x 1.811490 0.000000 0.000000 
#    y 0.000000 1.786200 0.000000 
#    z 0.000000 0.000000 1.774470 
# 
# From -- ./inp_files/13849.got.cif
#   From: 2010.03.12/outbox.cif.g09.slc.cpg/sg67_7_cif.got.tgz:13849.got - 2010.04.10 22:41:39.
