data_PCOD8280374
_publ_section_title
;
Structure prediction by ZEFSAII (Michael W. Deem and Ramdas Pophale) SiO2 
 PCOD8280374
Probable space group: C M M A
;
_chemical_formula_sum "Si O2"
_cell_formula_units_Z 64
_cell_length_a 17.303469
_cell_length_b 9.689696
_cell_length_c 18.519475
_cell_angle_alpha 90.000000
_cell_angle_beta 90.000000
_cell_angle_gamma 90.000000
_cell_volume 3105.074338
_symmetry_space_group_name_H-M "C M M A"
_symmetry_group_IT_number 67
_symmetry_cell_setting 'orthorhombic'
loop_
_space_group_symop_operation_xyz
x,y,z
-x,1/2-y,z
x,-y,-z
-x,1/2+y,-z
-x,-y,-z
x,1/2+y,-z
-x,y,z
x,1/2-y,z
1/2+x,1/2+y,z
1/2-x,-y,z
1/2+x,1/2-y,-z
1/2-x,y,-z
1/2-x,1/2-y,-z
1/2+x,y,-z
1/2-x,1/2+y,z
1/2+x,-y,z
loop_
_atom_site_type_symbol
_atom_site_label
_atom_site_fract_x
_atom_site_fract_y
_atom_site_fract_z
Si Si1 0.908127 0.907289 0.934475
Si Si2 0.160062 0.522756 0.343458
Si Si3 0.911346 0.904393 0.196695
Si Si4 0.909683 0.250000 0.392215
Si Si5 0.592447 0.250000 0.444211
O O1 0.875353 0.750000 0.936781
O O2 0.000000 0.903244 0.939588
O O3 0.882085 0.982619 0.860825
O O4 0.874667 0.000000 0.000000
O O5 0.250000 0.500000 0.355087
O O6 0.143194 0.590907 0.266355
O O7 0.117615 0.378102 0.345697
O O8 0.126724 0.614786 0.407601
O O9 0.904981 0.750000 0.163093
O O10 0.000000 0.934262 0.219391
O O11 0.877024 0.250000 0.473659
O O12 0.000000 0.250000 0.397674
O O13 0.500000 0.250000 0.437543
#
# Coordination Sequence:
#
# PCOD8280374 Si02
#       5
#    16  16  16   8   8
#     4   9  17  30  52  86 123 157 201 255 304 352
#     4  12  25  40  61  91 126 163 204 256 312 370
#     4  10  20  36  59  83 116 164 209 249 299 364
#     4  11  25  41  65  93 120 155 206 263 311 368
#     4  11  23  45  67  87 118 163 208 251 311 380
#
# _framework density 20.611422999999998
#
# number of rings (size 3 to 8) (size 9 to 14) (size 15 to 20)
#    0.000    1.500    1.250    4.500    1.750    8.000 
#    0.000    0.000    0.000    0.750    0.000    3.500 
#    0.000    0.000    0.000    0.000    0.000    0.000 
#
# Total GULP energy -396877.018870 kJ/mol
# GULP energy per Si atom -12402.406840 kJ/mol
# Density = 2.056451 g / cm^3
# Si number density = 20.611423 Si / 1000 Ang^3
#
#
#
# Elastic Constant Matrix: (Units=GPa)
#
#
# Indices 1 2 3 4 5 6 
#
# 1 62.1534 17.2041 20.0969 0.0000 0.0000 0.0000
# 2 17.2041 157.5652 39.4167 0.0000 0.0000 0.0000
# 3 20.0969 39.4167 92.2287 0.0000 0.0000 0.0000
# 4 0.0000 0.0000 0.0000 43.5750 0.0000 0.0000
# 5 0.0000 0.0000 0.0000 0.0000 4.7144 0.0000
# 6 0.0000 0.0000 0.0000 0.0000 0.0000 30.0160
#
#
#
# Elastic Compliance Matrix: (Units=1/GPa)
#
#
# Indices 1 2 3 4 5 6 
#
# 1 0.017468 -0.001069 -0.003349 0.000000 0.000000 0.000000
# 2 -0.001069 0.007172 -0.002832 0.000000 0.000000 0.000000
# 3 -0.003349 -0.002832 0.012783 0.000000 0.000000 0.000000
# 4 0.000000 0.000000 0.000000 0.022949 0.000000 0.000000
# 5 0.000000 0.000000 0.000000 0.000000 0.212118 0.000000
# 6 0.000000 0.000000 0.000000 0.000000 0.000000 0.033316
#
#
# Mechanical properties :
#
#
# Convention : Reuss Voigt Hill
#
# Bulk Modulus (GPa) = 43.62771 51.70921 47.66846
# Shear Modulus (GPa) = 15.24637 31.34306 23.29471
#
# Velocity S-wave (km/s) = 2.72270 3.90380 3.36547
# Velocity P-wave (km/s) = 5.57646 6.74253 6.18702
#
# Compressibility (1/GPa) = 0.02292121
#
# Stress axis : x y z
#
# Youngs Moduli (GPa) = 57.24681 139.43457 78.23013
#
# Poissons Ratio (x) = 0.14912 0.26202
# Poissons Ratio (y) = 0.06122 0.22155
# Poissons Ratio (z) = 0.19174 0.39489
#
# Static dielectric constant tensor:
#      x y z
#    x 3.259050 0.000000 0.000000 
#    y 0.000000 4.073930 0.000000 
#    z 0.000000 0.000000 3.747090 
# 
# 
# High freq. dielectric constant tensor:
#      x y z
#    x 1.769830 0.000000 0.000000 
#    y 0.000000 1.828610 0.000000 
#    z 0.000000 0.000000 1.810470 
# 
# From -- ./inp_files/31768.got.cif
#   From: 2010.03.12/outbox.cif.g09.slc.cpg/sg67_16_cif.got.tgz:31768.got - 2010.04.10 22:41:39.
