data_PCOD8280120
_publ_section_title
;
Structure prediction by ZEFSAII (Michael W. Deem and Ramdas Pophale) SiO2 
 PCOD8280120
Probable space group: C M M A
;
_chemical_formula_sum "Si O2"
_cell_formula_units_Z 80
_cell_length_a 17.620304
_cell_length_b 8.842521
_cell_length_c 25.877885
_cell_angle_alpha 90.000000
_cell_angle_beta 90.000000
_cell_angle_gamma 90.000000
_cell_volume 4031.979129
_symmetry_space_group_name_H-M "C M M A"
_symmetry_group_IT_number 67
_symmetry_cell_setting 'orthorhombic'
loop_
_space_group_symop_operation_xyz
x,y,z
-x,1/2-y,z
x,-y,-z
-x,1/2+y,-z
-x,-y,-z
x,1/2+y,-z
-x,y,z
x,1/2-y,z
1/2+x,1/2+y,z
1/2-x,-y,z
1/2+x,1/2-y,-z
1/2-x,y,-z
1/2-x,1/2-y,-z
1/2+x,y,-z
1/2-x,1/2+y,z
1/2+x,-y,z
loop_
_atom_site_type_symbol
_atom_site_label
_atom_site_fract_x
_atom_site_fract_y
_atom_site_fract_z
Si Si1 0.590563 0.579493 0.948394
Si Si2 0.090107 0.419583 0.153991
Si Si3 0.668679 0.071161 0.645433
Si Si4 0.589904 0.420266 0.448656
Si Si5 0.411268 0.426162 0.258884
O O1 0.500000 0.577019 0.948010
O O2 0.621241 0.750000 0.947081
O O3 0.623158 0.492420 0.898399
O O4 0.621931 0.500000 0.000000
O O5 0.122421 0.250000 0.160113
O O6 0.115902 0.520976 0.202379
O O7 0.000000 0.415973 0.150704
O O8 0.675047 0.250000 0.644410
O O9 0.750000 0.000000 0.634997
O O10 0.612381 0.016462 0.600976
O O11 0.636562 0.020324 0.700335
O O12 0.623051 0.500000 0.500000
O O13 0.500000 0.415028 0.451147
O O14 0.622889 0.250000 0.444960
O O15 0.500000 0.460003 0.267333
O O16 0.393137 0.250000 0.265483
#
# Coordination Sequence:
#
# PCOD8280120 Si02
#       5
#    16  16  16  16  16
#     4   9  15  22  33  52  82 121 162 205 256 313
#     4   9  16  26  41  63  91 125 167 212 258 311
#     4  12  25  40  58  81 111 145 182 223 269 319
#     4  10  21  39  63  90 118 147 181 220 262 311
#     4  10  20  35  55  78 105 138 177 221 268 319
#
# _framework density 19.841373000000001
#
# number of rings (size 3 to 8) (size 9 to 14) (size 15 to 20)
#    0.000    2.000    0.000    4.800    0.000   10.000 
#    0.000    2.000    0.000    0.000    0.000    0.000 
#    0.000    0.800    0.000    8.000    0.000   12.400 
#
# Total GULP energy -496098.035743 kJ/mol
# GULP energy per Si atom -12402.450894 kJ/mol
# Density = 1.979621 g / cm^3
# Si number density = 19.841373 Si / 1000 Ang^3
#
#
#
# Elastic Constant Matrix: (Units=GPa)
#
#
# Indices 1 2 3 4 5 6 
#
# 1 14.2481 18.0995 9.5418 0.0000 0.0000 0.0000
# 2 18.0995 167.4513 53.5764 0.0000 0.0000 0.0000
# 3 9.5418 53.5764 140.2919 0.0000 0.0000 0.0000
# 4 0.0000 0.0000 0.0000 43.5959 0.0000 0.0000
# 5 0.0000 0.0000 0.0000 0.0000 -7.8657 0.0000
# 6 0.0000 0.0000 0.0000 0.0000 0.0000 20.5911
#
#
#
# Elastic Compliance Matrix: (Units=1/GPa)
#
#
# Indices 1 2 3 4 5 6 
#
# 1 0.082119 -0.008076 -0.002501 0.000000 0.000000 0.000000
# 2 -0.008076 0.007597 -0.002352 0.000000 0.000000 0.000000
# 3 -0.002501 -0.002352 0.008196 0.000000 0.000000 0.000000
# 4 0.000000 0.000000 0.000000 0.022938 0.000000 0.000000
# 5 0.000000 0.000000 0.000000 0.000000 -0.127135 0.000000
# 6 0.000000 0.000000 0.000000 0.000000 0.000000 0.048565
#
#
# Mechanical properties :
#
#
# Convention : Reuss Voigt Hill
#
# Bulk Modulus (GPa) = 13.87843 53.82521 33.85182
# Shear Modulus (GPa) = 54.25572 27.31584 40.78578
#
# Velocity S-wave (km/s) = 5.23489 3.71443 4.53878
# Velocity P-wave (km/s) = 6.59914 6.75149 6.67575
#
# Compressibility (1/GPa) = 0.07205425
#
# Stress axis : x y z
#
# Youngs Moduli (GPa) = 12.17751 131.62492 122.00548
#
# Poissons Ratio (x) = 1.06298 0.30515
# Poissons Ratio (y) = 0.09834 0.28697
# Poissons Ratio (z) = 0.03046 0.30959
#
# Static dielectric constant tensor:
#      x y z
#    x 3.103840 0.000000 0.000000 
#    y 0.000000 3.919480 0.000000 
#    z 0.000000 0.000000 3.830240 
# 
# 
# High freq. dielectric constant tensor:
#      x y z
#    x 1.715140 0.000000 0.000000 
#    y 0.000000 1.794600 0.000000 
#    z 0.000000 0.000000 1.793970 
# 
# From -- ./inp_files/43336.got.cif
#   From: 2010.03.12/outbox.cif.g09.slc.cpg/sg67_22_cif.got.tgz:43336.got - 2010.04.10 22:41:39.
