data_PCOD8280044
_publ_section_title
;
Structure prediction by ZEFSAII (Michael W. Deem and Ramdas Pophale) SiO2 
 PCOD8280044
Probable space group: C M M A
;
_chemical_formula_sum "Si O2"
_cell_formula_units_Z 96
_cell_length_a 17.764829
_cell_length_b 19.813643
_cell_length_c 14.019674
_cell_angle_alpha 90.000000
_cell_angle_beta 90.000000
_cell_angle_gamma 90.000000
_cell_volume 4934.728689
_symmetry_space_group_name_H-M "C M M A"
_symmetry_group_IT_number 67
_symmetry_cell_setting 'orthorhombic'
loop_
_space_group_symop_operation_xyz
x,y,z
-x,1/2-y,z
x,-y,-z
-x,1/2+y,-z
-x,-y,-z
x,1/2+y,-z
-x,y,z
x,1/2-y,z
1/2+x,1/2+y,z
1/2-x,-y,z
1/2+x,1/2-y,-z
1/2-x,y,-z
1/2-x,1/2-y,-z
1/2+x,y,-z
1/2-x,1/2+y,z
1/2+x,-y,z
loop_
_atom_site_type_symbol
_atom_site_label
_atom_site_fract_x
_atom_site_fract_y
_atom_site_fract_z
Si Si1 0.313659 0.671301 0.782987
Si Si2 0.913551 0.827571 0.397558
Si Si3 0.334340 0.074409 0.532829
Si Si4 0.195443 0.938117 0.744967
Si Si5 0.585465 0.174210 0.037828
Si Si6 0.913325 0.048899 0.084557
O O1 0.291581 0.750000 0.780869
O O2 0.363044 0.650675 0.691937
O O3 0.238607 0.626900 0.785890
O O4 0.360943 0.652797 0.876309
O O5 0.899209 0.750000 0.425017
O O6 0.891758 0.872311 0.488075
O O7 0.000000 0.840001 0.369745
O O8 0.250000 0.092401 0.500000
O O9 0.344306 0.081872 0.646265
O O10 0.357819 0.000000 0.500000
O O11 0.134318 0.963831 0.820705
O O12 0.250000 0.000000 0.721762
O O13 0.500000 0.167792 0.075666
O O14 0.603000 0.250000 0.002874
O O15 0.598714 0.126009 0.947881
O O16 0.000000 0.032943 0.108629
O O17 0.884801 0.000000 0.000000
#
# Coordination Sequence:
#
# PCOD8280044 Si02
#       6
#    16  16  16  16  16  16
#     4  10  20  34  57  88 116 150 192 240 292 346
#     4  10  21  37  59  89 120 153 197 245 294 353
#     4  11  21  40  60  82 116 156 195 238 295 353
#     4  12  23  38  61  85 115 150 193 240 289 349
#     4   9  18  35  57  80 113 153 189 231 284 341
#     4  10  23  41  59  82 115 154 194 237 291 347
#
# _framework density 19.453956000000002
#
# number of rings (size 3 to 8) (size 9 to 14) (size 15 to 20)
#    0.000    1.667    3.333    1.500    0.000    7.000 
#    0.000    5.833    0.000    2.000    0.000    0.000 
#    0.000    0.000    0.000    0.000    0.000    0.000 
#
# Total GULP energy -595437.107550 kJ/mol
# GULP energy per Si atom -12404.939741 kJ/mol
# Density = 1.940968 g / cm^3
# Si number density = 19.453956 Si / 1000 Ang^3
#
#
#
# Elastic Constant Matrix: (Units=GPa)
#
#
# Indices 1 2 3 4 5 6 
#
# 1 60.8136 23.1430 30.9316 0.0000 0.0000 0.0000
# 2 23.1430 58.7927 8.6014 0.0000 0.0000 0.0000
# 3 30.9316 8.6014 91.0366 0.0000 0.0000 0.0000
# 4 0.0000 0.0000 0.0000 28.3881 0.0000 0.0000
# 5 0.0000 0.0000 0.0000 0.0000 29.8388 0.0000
# 6 0.0000 0.0000 0.0000 0.0000 0.0000 25.4800
#
#
#
# Elastic Compliance Matrix: (Units=1/GPa)
#
#
# Indices 1 2 3 4 5 6 
#
# 1 0.023120 -0.008063 -0.007094 0.000000 0.000000 0.000000
# 2 -0.008063 0.020059 0.000844 0.000000 0.000000 0.000000
# 3 -0.007094 0.000844 0.013315 0.000000 0.000000 0.000000
# 4 0.000000 0.000000 0.000000 0.035226 0.000000 0.000000
# 5 0.000000 0.000000 0.000000 0.000000 0.033513 0.000000
# 6 0.000000 0.000000 0.000000 0.000000 0.000000 0.039246
#
#
# Mechanical properties :
#
#
# Convention : Reuss Voigt Hill
#
# Bulk Modulus (GPa) = 35.88147 37.33278 36.60712
# Shear Modulus (GPa) = 24.70409 26.60585 25.65497
#
# Velocity S-wave (km/s) = 3.56740 3.70216 3.63540
# Velocity P-wave (km/s) = 5.95422 6.12427 6.03984
#
# Compressibility (1/GPa) = 0.02786954
#
# Stress axis : x y z
#
# Youngs Moduli (GPa) = 43.25201 49.85199 75.10284
#
# Poissons Ratio (x) = 0.40197 0.53276
# Poissons Ratio (y) = 0.34875 -0.06342
# Poissons Ratio (z) = 0.30682 -0.04209
#
# Static dielectric constant tensor:
#      x y z
#    x 3.410690 0.000000 0.000000 
#    y 0.000000 3.654810 0.000000 
#    z 0.000000 0.000000 3.449850 
# 
# 
# High freq. dielectric constant tensor:
#      x y z
#    x 1.744990 0.000000 0.000000 
#    y 0.000000 1.769370 0.000000 
#    z 0.000000 0.000000 1.754360 
# 
# From -- ./inp_files/27161.got.cif
#   From: 2010.03.12/outbox.cif.g09.slc.cpg/sg67_14_cif.got.tgz:27161.got - 2010.04.10 22:41:39.
