data_PCOD8280823
_publ_section_title
;
Structure prediction by ZEFSAII (Michael W. Deem and Ramdas Pophale) SiO2 
 PCOD8280823
Probable space group: C M M A
;
_chemical_formula_sum "Si O2"
_cell_formula_units_Z 72
_cell_length_a 9.991068
_cell_length_b 14.040132
_cell_length_c 26.917893
_cell_angle_alpha 90.000000
_cell_angle_beta 90.000000
_cell_angle_gamma 90.000000
_cell_volume 3775.932031
_symmetry_space_group_name_H-M "C M M A"
_symmetry_group_IT_number 67
_symmetry_cell_setting 'orthorhombic'
loop_
_space_group_symop_operation_xyz
x,y,z
-x,1/2-y,z
x,-y,-z
-x,1/2+y,-z
-x,-y,-z
x,1/2+y,-z
-x,y,z
x,1/2-y,z
1/2+x,1/2+y,z
1/2-x,-y,z
1/2+x,1/2-y,-z
1/2-x,y,-z
1/2-x,1/2-y,-z
1/2+x,y,-z
1/2-x,1/2+y,z
1/2+x,-y,z
loop_
_atom_site_type_symbol
_atom_site_label
_atom_site_fract_x
_atom_site_fract_y
_atom_site_fract_z
Si Si1 0.653328 0.590540 0.626044
Si Si2 0.000000 0.889459 0.950440
Si Si3 0.000000 0.885731 0.060917
Si Si4 0.152734 0.250000 0.706458
Si Si5 0.740281 0.111906 0.882996
Si Si6 0.659580 0.250000 0.800357
Si Si7 0.845469 0.250000 0.546829
O O1 0.500000 0.554430 0.624186
O O2 0.750000 0.500000 0.627284
O O3 0.676132 0.654880 0.674565
O O4 0.685475 0.655020 0.578185
O O5 0.870492 0.853193 0.921751
O O6 0.000000 0.002708 0.948911
O O7 0.000000 0.843005 0.005275
O O8 0.124034 0.849192 0.093039
O O9 0.264134 0.250000 0.748604
O O10 0.000000 0.250000 0.727410
O O11 0.707282 0.156546 0.829844
O O12 0.750000 0.000000 0.874531
O O13 0.500000 0.250000 0.791517
O O14 0.750000 0.250000 0.500000
O O15 0.000000 0.250000 0.529771
#
# Coordination Sequence:
#
# PCOD8280823 Si02
#       7
#    16   8   8   8  16   8   8
#     4   9  19  38  61  87 118 155 201 250 291 339
#     4   9  16  35  55  81 110 143 173 218 267 327
#     4   9  18  31  59  81 106 143 181 210 267 331
#     4   9  22  42  61  80 108 147 190 240 295 345
#     4  10  21  37  56  81 111 141 177 222 272 333
#     4  12  25  41  58  81 114 144 178 231 290 343
#     4   9  19  35  55  86 132 173 206 242 288 336
#
# _framework density 19.068141000000001
#
# number of rings (size 3 to 8) (size 9 to 14) (size 15 to 20)
#    0.000    2.444    1.111    2.000    1.556    5.778 
#    0.000   10.000    0.000    0.000    0.000    0.000 
#    0.000    0.000    0.000    0.000    0.000    0.000 
#
# Total GULP energy -446253.746362 kJ/mol
# GULP energy per Si atom -12395.937399 kJ/mol
# Density = 1.902474 g / cm^3
# Si number density = 19.068141 Si / 1000 Ang^3
#
#
#
# Elastic Constant Matrix: (Units=GPa)
#
#
# Indices 1 2 3 4 5 6 
#
# 1 186.5569 63.8857 96.7456 0.0000 0.0000 0.0000
# 2 63.8857 118.2648 45.1223 0.0000 0.0000 0.0000
# 3 96.7456 45.1223 145.3314 0.0000 0.0000 0.0000
# 4 0.0000 0.0000 0.0000 19.1448 0.0000 0.0000
# 5 0.0000 0.0000 0.0000 0.0000 36.0819 0.0000
# 6 0.0000 0.0000 0.0000 0.0000 0.0000 32.8534
#
#
#
# Elastic Compliance Matrix: (Units=1/GPa)
#
#
# Indices 1 2 3 4 5 6 
#
# 1 0.008996 -0.002921 -0.005082 0.000000 0.000000 0.000000
# 2 -0.002921 0.010540 -0.001328 0.000000 0.000000 0.000000
# 3 -0.005082 -0.001328 0.010676 0.000000 0.000000 0.000000
# 4 0.000000 0.000000 0.000000 0.052234 0.000000 0.000000
# 5 0.000000 0.000000 0.000000 0.000000 0.027715 0.000000
# 6 0.000000 0.000000 0.000000 0.000000 0.000000 0.030438
#
#
# Mechanical properties :
#
#
# Convention : Reuss Voigt Hill
#
# Bulk Modulus (GPa) = 86.57335 95.74003 91.15669
# Shear Modulus (GPa) = 30.65430 33.90931 32.28180
#
# Velocity S-wave (km/s) = 4.01386 4.22159 4.11904
# Velocity P-wave (km/s) = 8.18426 8.60702 8.39830
#
# Compressibility (1/GPa) = 0.01155090
#
# Stress axis : x y z
#
# Youngs Moduli (GPa) = 111.16498 94.87614 93.66863
#
# Poissons Ratio (x) = 0.27709 0.47598
# Poissons Ratio (y) = 0.32467 0.12442
# Poissons Ratio (z) = 0.56489 0.12602
#
# Static dielectric constant tensor:
#      x y z
#    x 3.637750 0.000000 0.000000 
#    y 0.000000 3.165880 0.000000 
#    z 0.000000 0.000000 3.365200 
# 
# 
# High freq. dielectric constant tensor:
#      x y z
#    x 1.754000 0.000000 0.000000 
#    y 0.000000 1.747390 0.000000 
#    z 0.000000 0.000000 1.730550 
# 
# From -- ./inp_files/43169.got.cif
#   From: 2010.03.12/outbox.cif.g09.slc.cpg/sg67_22_cif.got.tgz:43169.got - 2010.04.10 22:41:39.
