data_PCOD8280906
_publ_section_title
;
Structure prediction by ZEFSAII (Michael W. Deem and Ramdas Pophale) SiO2 
 PCOD8280906
Probable space group: C M M A
;
_chemical_formula_sum "Si O2"
_cell_formula_units_Z 112
_cell_length_a 27.131712
_cell_length_b 15.355795
_cell_length_c 13.438317
_cell_angle_alpha 90.000000
_cell_angle_beta 90.000000
_cell_angle_gamma 90.000000
_cell_volume 5598.792674
_symmetry_space_group_name_H-M "C M M A"
_symmetry_group_IT_number 67
_symmetry_cell_setting 'orthorhombic'
loop_
_space_group_symop_operation_xyz
x,y,z
-x,1/2-y,z
x,-y,-z
-x,1/2+y,-z
-x,-y,-z
x,1/2+y,-z
-x,y,z
x,1/2-y,z
1/2+x,1/2+y,z
1/2-x,-y,z
1/2+x,1/2-y,-z
1/2-x,y,-z
1/2-x,1/2-y,-z
1/2+x,y,-z
1/2-x,1/2+y,z
1/2+x,-y,z
loop_
_atom_site_type_symbol
_atom_site_label
_atom_site_fract_x
_atom_site_fract_y
_atom_site_fract_z
Si Si1 0.371364 0.150397 0.177291
Si Si2 0.768694 0.401797 0.895154
Si Si3 0.639192 0.602953 0.395875
Si Si4 0.556598 0.651889 0.252431
Si Si5 0.339292 0.094876 0.385524
Si Si6 0.258403 0.846029 0.313811
Si Si7 0.557973 0.506145 0.887240
O O1 0.380067 0.250000 0.142542
O O2 0.327954 0.105165 0.112832
O O3 0.359719 0.152225 0.294997
O O4 0.419722 0.092579 0.161980
O O5 0.750000 0.500000 0.884263
O O6 0.746444 0.346733 0.805275
O O7 0.750000 0.362482 0.000000
O O8 0.589215 0.642916 0.351821
O O9 0.636407 0.499565 0.385561
O O10 0.646240 0.637164 0.508749
O O11 0.685295 0.633634 0.332528
O O12 0.500000 0.634257 0.283028
O O13 0.562552 0.750000 0.209149
O O14 0.574289 0.582250 0.169695
O O15 0.279583 0.089029 0.370850
O O16 0.244893 0.750000 0.352419
O O17 0.500000 0.518611 0.882318
O O18 0.576898 0.500000 0.000000
#
# Coordination Sequence:
#
# PCOD8280906 Si02
#       7
#    16  16  16  16  16  16  16
#     4  11  23  40  63  90 128 165 201 253 307 360
#     4  10  22  37  58  82 118 168 206 251 298 355
#     4  11  21  37  62  88 114 164 208 247 302 364
#     4  10  22  41  64  92 123 153 199 261 312 359
#     4  10  21  38  58  85 124 162 201 248 298 355
#     4  11  22  34  53  84 123 159 201 251 296 356
#     4  10  23  43  68  92 121 159 201 252 308 365
#
# _framework density 20.004314000000001
#
# number of rings (size 3 to 8) (size 9 to 14) (size 15 to 20)
#    0.000    1.571    1.429    4.714    2.000    6.000 
#    0.000    3.571    0.000    0.000    0.000    0.000 
#    0.000    0.000    0.000    0.000    0.000    0.000 
#
# Total GULP energy -694357.538263 kJ/mol
# GULP energy per Si atom -12399.241755 kJ/mol
# Density = 1.995878 g / cm^3
# Si number density = 20.004314 Si / 1000 Ang^3
#
#
#
# Elastic Constant Matrix: (Units=GPa)
#
#
# Indices 1 2 3 4 5 6 
#
# 1 81.5938 37.7957 50.7109 0.0000 0.0000 0.0000
# 2 37.7957 108.1379 19.9367 0.0000 0.0000 0.0000
# 3 50.7109 19.9367 122.4153 0.0000 0.0000 0.0000
# 4 0.0000 0.0000 0.0000 11.8031 0.0000 0.0000
# 5 0.0000 0.0000 0.0000 0.0000 26.5660 0.0000
# 6 0.0000 0.0000 0.0000 0.0000 0.0000 22.3153
#
#
#
# Elastic Compliance Matrix: (Units=1/GPa)
#
#
# Indices 1 2 3 4 5 6 
#
# 1 0.019132 -0.005387 -0.007048 0.000000 0.000000 0.000000
# 2 -0.005387 0.011051 0.000432 0.000000 0.000000 0.000000
# 3 -0.007048 0.000432 0.011018 0.000000 0.000000 0.000000
# 4 0.000000 0.000000 0.000000 0.084724 0.000000 0.000000
# 5 0.000000 0.000000 0.000000 0.000000 0.037642 0.000000
# 6 0.000000 0.000000 0.000000 0.000000 0.000000 0.044812
#
#
# Mechanical properties :
#
#
# Convention : Reuss Voigt Hill
#
# Bulk Modulus (GPa) = 58.15998 58.78150 58.47074
# Shear Modulus (GPa) = 20.99810 25.71714 23.35762
#
# Velocity S-wave (km/s) = 3.24339 3.58939 3.42077
# Velocity P-wave (km/s) = 6.56985 6.82836 6.70035
#
# Compressibility (1/GPa) = 0.01719395
#
# Stress axis : x y z
#
# Youngs Moduli (GPa) = 52.26928 90.49136 90.75902
#
# Poissons Ratio (x) = 0.48751 0.63967
# Poissons Ratio (y) = 0.28160 -0.03921
# Poissons Ratio (z) = 0.36839 -0.03909
#
# Static dielectric constant tensor:
#      x y z
#    x 3.526500 0.000000 0.000000 
#    y 0.000000 3.673980 0.000000 
#    z 0.000000 0.000000 3.848110 
# 
# 
# High freq. dielectric constant tensor:
#      x y z
#    x 1.770570 0.000000 0.000000 
#    y 0.000000 1.785490 0.000000 
#    z 0.000000 0.000000 1.781310 
# 
# From -- ./inp_files/30197.got.cif
#   From: 2010.03.12/outbox.cif.g09.slc.cpg/sg67_16_cif.got.tgz:30197.got - 2010.04.10 22:41:39.
