data_PCOD8280063
_publ_section_title
;
Structure prediction by ZEFSAII (Michael W. Deem and Ramdas Pophale) SiO2 
 PCOD8280063
Probable space group: C M M A
;
_chemical_formula_sum "Si O2"
_cell_formula_units_Z 88
_cell_length_a 8.821828
_cell_length_b 30.442066
_cell_length_c 17.777675
_cell_angle_alpha 90.000000
_cell_angle_beta 90.000000
_cell_angle_gamma 90.000000
_cell_volume 4774.277647
_symmetry_space_group_name_H-M "C M M A"
_symmetry_group_IT_number 67
_symmetry_cell_setting 'orthorhombic'
loop_
_space_group_symop_operation_xyz
x,y,z
-x,1/2-y,z
x,-y,-z
-x,1/2+y,-z
-x,-y,-z
x,1/2+y,-z
-x,y,z
x,1/2-y,z
1/2+x,1/2+y,z
1/2-x,-y,z
1/2+x,1/2-y,-z
1/2-x,y,-z
1/2-x,1/2-y,-z
1/2+x,y,-z
1/2-x,1/2+y,z
1/2+x,-y,z
loop_
_atom_site_type_symbol
_atom_site_label
_atom_site_fract_x
_atom_site_fract_y
_atom_site_fract_z
Si Si1 0.173516 0.956355 0.235257
Si Si2 0.680572 0.079742 0.075759
Si Si3 0.679226 0.750000 0.918866
Si Si4 0.178163 0.163543 0.137322
Si Si5 0.176300 0.362982 0.712656
Si Si6 0.322221 0.200483 0.421336
O O1 0.235563 0.945675 0.150953
O O2 0.198155 0.915902 0.293696
O O3 0.000000 0.967883 0.226854
O O4 0.250000 0.000000 0.268406
O O5 0.500000 0.082001 0.070676
O O6 0.749499 0.128547 0.080197
O O7 0.750000 0.057435 0.000000
O O8 0.500000 0.750000 0.924738
O O9 0.736386 0.708703 0.873221
O O10 0.750000 0.750000 0.000000
O O11 0.209182 0.151548 0.223205
O O12 0.000000 0.167571 0.121542
O O13 0.227259 0.336518 0.638614
O O14 0.000000 0.352852 0.733466
O O15 0.500000 0.199748 0.432328
O O16 0.269849 0.250000 0.397046
O O17 0.250000 0.186661 0.500000
#
# Coordination Sequence:
#
# PCOD8280063 Si02
#       6
#    16  16   8  16  16  16
#     4   9  19  34  52  74 102 134 176 223 268 320
#     4  10  20  35  52  72  99 134 172 218 272 326
#     4  12  24  38  52  68  97 136 177 222 268 314
#     4  11  22  35  51  75 101 132 176 222 264 312
#     4   9  19  36  55  78 107 142 177 212 261 316
#     4   9  18  33  55  83 113 144 174 207 254 309
#
# _framework density 18.432106999999998
#
# number of rings (size 3 to 8) (size 9 to 14) (size 15 to 20)
#    0.000    2.182    0.000    4.636    1.273    4.727 
#    0.000    1.818    0.000    0.545    0.000    3.818 
#    0.000    0.000    0.000    0.000    0.000    0.000 
#
# Total GULP energy -545425.792070 kJ/mol
# GULP energy per Si atom -12396.040729 kJ/mol
# Density = 1.839015 g / cm^3
# Si number density = 18.432107 Si / 1000 Ang^3
#
#
#
# Elastic Constant Matrix: (Units=GPa)
#
#
# Indices 1 2 3 4 5 6 
#
# 1 78.8118 34.8119 23.0722 0.0000 0.0000 0.0000
# 2 34.8119 120.4462 44.1632 0.0000 0.0000 0.0000
# 3 23.0722 44.1632 91.6323 0.0000 0.0000 0.0000
# 4 0.0000 0.0000 0.0000 20.4868 0.0000 0.0000
# 5 0.0000 0.0000 0.0000 0.0000 29.3454 0.0000
# 6 0.0000 0.0000 0.0000 0.0000 0.0000 29.9950
#
#
#
# Elastic Compliance Matrix: (Units=1/GPa)
#
#
# Indices 1 2 3 4 5 6 
#
# 1 0.014850 -0.003548 -0.002029 0.000000 0.000000 0.000000
# 2 -0.003548 0.010932 -0.004376 0.000000 0.000000 0.000000
# 3 -0.002029 -0.004376 0.013533 0.000000 0.000000 0.000000
# 4 0.000000 0.000000 0.000000 0.048812 0.000000 0.000000
# 5 0.000000 0.000000 0.000000 0.000000 0.034077 0.000000
# 6 0.000000 0.000000 0.000000 0.000000 0.000000 0.033339
#
#
# Mechanical properties :
#
#
# Convention : Reuss Voigt Hill
#
# Bulk Modulus (GPa) = 51.52060 54.99830 53.25945
# Shear Modulus (GPa) = 27.48498 28.55498 28.01998
#
# Velocity S-wave (km/s) = 3.86573 3.94026 3.90317
# Velocity P-wave (km/s) = 6.92368 7.11364 7.01930
#
# Compressibility (1/GPa) = 0.01940971
#
# Stress axis : x y z
#
# Youngs Moduli (GPa) = 67.34190 91.47238 73.89377
#
# Poissons Ratio (x) = 0.32454 0.14993
# Poissons Ratio (y) = 0.23892 0.32333
# Poissons Ratio (z) = 0.13664 0.40025
#
# Static dielectric constant tensor:
#      x y z
#    x 3.334650 0.000000 0.000000 
#    y 0.000000 3.478430 0.000000 
#    z 0.000000 0.000000 3.256600 
# 
# 
# High freq. dielectric constant tensor:
#      x y z
#    x 1.716330 0.000000 0.000000 
#    y 0.000000 1.717700 0.000000 
#    z 0.000000 0.000000 1.690460 
# 
# From -- ./inp_files/32409.got.cif
#   From: 2010.03.12/outbox.cif.g09.slc.cpg/sg67_17_cif.got.tgz:32409.got - 2010.04.10 22:41:39.
