data_PCOD8280049
_publ_section_title
;
Structure prediction by ZEFSAII (Michael W. Deem and Ramdas Pophale) SiO2 
 PCOD8280049
Probable space group: C M M A
;
_chemical_formula_sum "Si O2"
_cell_formula_units_Z 112
_cell_length_a 27.801701
_cell_length_b 14.222057
_cell_length_c 12.616740
_cell_angle_alpha 90.000000
_cell_angle_beta 90.000000
_cell_angle_gamma 90.000000
_cell_volume 4988.625894
_symmetry_space_group_name_H-M "C M M A"
_symmetry_group_IT_number 67
_symmetry_cell_setting 'orthorhombic'
loop_
_space_group_symop_operation_xyz
x,y,z
-x,1/2-y,z
x,-y,-z
-x,1/2+y,-z
-x,-y,-z
x,1/2+y,-z
-x,y,z
x,1/2-y,z
1/2+x,1/2+y,z
1/2-x,-y,z
1/2+x,1/2-y,-z
1/2-x,y,-z
1/2-x,1/2-y,-z
1/2+x,y,-z
1/2-x,1/2+y,z
1/2+x,-y,z
loop_
_atom_site_type_symbol
_atom_site_label
_atom_site_fract_x
_atom_site_fract_y
_atom_site_fract_z
Si Si1 0.946040 0.361345 0.431842
Si Si2 0.698253 0.479329 0.291277
Si Si3 0.125626 0.142016 0.250856
Si Si4 0.712771 0.146658 0.086573
Si Si5 0.384271 0.361892 0.367964
Si Si6 0.617245 0.106443 0.987382
Si Si7 0.947529 0.858680 0.175549
O O1 0.949993 0.250000 0.436316
O O2 0.916733 0.393827 0.328364
O O3 0.917382 0.396829 0.535512
O O4 0.000000 0.404697 0.430434
O O5 0.750000 0.500000 0.345288
O O6 0.672737 0.578491 0.266095
O O7 0.708394 0.425128 0.182315
O O8 0.667033 0.414906 0.371465
O O9 0.139712 0.250000 0.276586
O O10 0.104775 0.133610 0.132604
O O11 0.730257 0.250000 0.126835
O O12 0.750000 0.105900 0.000000
O O13 0.661510 0.166076 0.031366
O O14 0.375304 0.250000 0.369958
O O15 0.409364 0.399464 0.259809
O O16 0.569607 0.125887 0.055741
O O17 0.633551 0.000000 0.000000
O O18 0.952839 0.750000 0.202677
O O19 0.000000 0.906754 0.188748
#
# Coordination Sequence:
#
# PCOD8280049 Si02
#       7
#    16  16  16  16  16  16  16
#     4   9  20  42  73 102 129 172 225 274 330 396
#     4  12  25  41  64  94 131 172 220 276 326 395
#     4  11  24  42  63  92 134 177 219 267 324 391
#     4  11  23  39  64  94 125 168 220 274 331 388
#     4  10  20  41  69  97 130 166 217 281 335 385
#     4  12  22  38  59  87 131 171 213 266 319 394
#     4  10  20  34  57  90 126 164 206 261 331 391
#
# _framework density 22.451072
#
# number of rings (size 3 to 8) (size 9 to 14) (size 15 to 20)
#    0.000    1.286    2.857    3.000    0.000    5.429 
#    0.000    6.429    0.000    3.000    0.000    0.000 
#    0.000    0.000    0.000    0.000    0.000    0.000 
#
# Total GULP energy -694485.209978 kJ/mol
# GULP energy per Si atom -12401.521607 kJ/mol
# Density = 2.239997 g / cm^3
# Si number density = 22.451072 Si / 1000 Ang^3
#
#
#
# Elastic Constant Matrix: (Units=GPa)
#
#
# Indices 1 2 3 4 5 6 
#
# 1 179.8121 40.4446 63.6542 0.0000 0.0000 0.0000
# 2 40.4446 87.1486 20.6189 0.0000 0.0000 0.0000
# 3 63.6542 20.6189 107.4580 0.0000 0.0000 0.0000
# 4 0.0000 0.0000 0.0000 31.5606 0.0000 0.0000
# 5 0.0000 0.0000 0.0000 0.0000 37.6232 0.0000
# 6 0.0000 0.0000 0.0000 0.0000 0.0000 28.3517
#
#
#
# Elastic Compliance Matrix: (Units=1/GPa)
#
#
# Indices 1 2 3 4 5 6 
#
# 1 0.007546 -0.002561 -0.003978 0.000000 0.000000 0.000000
# 2 -0.002561 0.012889 -0.000956 0.000000 0.000000 0.000000
# 3 -0.003978 -0.000956 0.011846 0.000000 0.000000 0.000000
# 4 0.000000 0.000000 0.000000 0.031685 0.000000 0.000000
# 5 0.000000 0.000000 0.000000 0.000000 0.026579 0.000000
# 6 0.000000 0.000000 0.000000 0.000000 0.000000 0.035271
#
#
# Mechanical properties :
#
#
# Convention : Reuss Voigt Hill
#
# Bulk Modulus (GPa) = 57.83601 69.31712 63.57657
# Shear Modulus (GPa) = 34.11312 36.15382 35.13347
#
# Velocity S-wave (km/s) = 3.90223 4.01726 3.96016
# Velocity P-wave (km/s) = 6.79117 7.24290 7.02067
#
# Compressibility (1/GPa) = 0.01729026
#
# Stress axis : x y z
#
# Youngs Moduli (GPa) = 132.52585 77.58392 84.41547
#
# Poissons Ratio (x) = 0.19866 0.33584
# Poissons Ratio (y) = 0.33934 0.08073
# Poissons Ratio (z) = 0.52725 0.07420
#
# Static dielectric constant tensor:
#      x y z
#    x 4.295720 0.000000 0.000000 
#    y 0.000000 3.980080 0.000000 
#    z 0.000000 0.000000 3.963460 
# 
# 
# High freq. dielectric constant tensor:
#      x y z
#    x 1.884070 0.000000 0.000000 
#    y 0.000000 1.891540 0.000000 
#    z 0.000000 0.000000 1.871800 
# 
# From -- ./inp_files/23786.got.cif
#   From: 2010.03.12/outbox.cif.g09.slc.cpg/sg67_12_cif.got.tgz:23786.got - 2010.04.10 22:41:39.
