data_PCOD8280486
_publ_section_title
;
Structure prediction by ZEFSAII (Michael W. Deem and Ramdas Pophale) SiO2 
 PCOD8280486
Probable space group: C M M A
;
_chemical_formula_sum "Si O2"
_cell_formula_units_Z 88
_cell_length_a 16.378922
_cell_length_b 8.721990
_cell_length_c 30.034987
_cell_angle_alpha 90.000000
_cell_angle_beta 90.000000
_cell_angle_gamma 90.000000
_cell_volume 4290.701947
_symmetry_space_group_name_H-M "C M M A"
_symmetry_group_IT_number 67
_symmetry_cell_setting 'orthorhombic'
loop_
_space_group_symop_operation_xyz
x,y,z
-x,1/2-y,z
x,-y,-z
-x,1/2+y,-z
-x,-y,-z
x,1/2+y,-z
-x,y,z
x,1/2-y,z
1/2+x,1/2+y,z
1/2-x,-y,z
1/2+x,1/2-y,-z
1/2-x,y,-z
1/2-x,1/2-y,-z
1/2+x,y,-z
1/2-x,1/2+y,z
1/2+x,-y,z
loop_
_atom_site_type_symbol
_atom_site_label
_atom_site_fract_x
_atom_site_fract_y
_atom_site_fract_z
Si Si1 0.000000 0.432153 0.451279
Si Si2 0.406734 0.917549 0.869936
Si Si3 0.163096 0.931347 0.600489
Si Si4 0.591489 0.067868 0.692446
Si Si5 0.839043 0.930757 0.955866
Si Si6 0.662428 0.067975 0.785242
O O1 0.000000 0.500000 0.500000
O O2 0.916158 0.489324 0.427418
O O3 0.000000 0.250000 0.452372
O O4 0.500000 0.881388 0.874907
O O5 0.361094 0.750000 0.870252
O O6 0.383180 0.024581 0.910766
O O7 0.394858 0.008569 0.824263
O O8 0.170282 0.750000 0.596530
O O9 0.147657 0.986081 0.651284
O O10 0.250000 0.000000 0.583581
O O11 0.500000 0.001667 0.686696
O O12 0.587075 0.250000 0.693419
O O13 0.629674 0.004051 0.738095
O O14 0.836057 0.750000 0.960519
O O15 0.750000 0.000000 0.953239
O O16 0.883481 0.000000 0.000000
O O17 0.664710 0.250000 0.785373
O O18 0.750000 0.000000 0.795009
#
# Coordination Sequence:
#
# PCOD8280486 Si02
#       6
#     8  16  16  16  16  16
#     4  10  22  40  62  86 120 162 204 252 307 366
#     4  11  24  41  59  81 113 150 189 236 288 342
#     4  10  20  37  61  88 119 158 203 251 305 364
#     4   9  17  33  58  85 115 153 197 242 293 353
#     4  11  22  39  63  88 115 146 186 232 282 342
#     4  11  22  36  57  84 115 151 193 238 287 347
#
# _framework density 20.509464999999999
#
# number of rings (size 3 to 8) (size 9 to 14) (size 15 to 20)
#    0.000    1.636    0.909    4.909    0.000    3.636 
#    0.000    2.727    0.000    2.182    0.000    0.000 
#    0.000    0.000    0.000    0.000    0.000    0.000 
#
# Total GULP energy -545459.914425 kJ/mol
# GULP energy per Si atom -12396.816237 kJ/mol
# Density = 2.046278 g / cm^3
# Si number density = 20.509465 Si / 1000 Ang^3
#
#
#
# Elastic Constant Matrix: (Units=GPa)
#
#
# Indices 1 2 3 4 5 6 
#
# 1 108.7035 34.8590 51.1691 0.0000 0.0000 0.0000
# 2 34.8590 96.5729 44.9419 0.0000 0.0000 0.0000
# 3 51.1691 44.9419 167.0443 0.0000 0.0000 0.0000
# 4 0.0000 0.0000 0.0000 32.3512 0.0000 0.0000
# 5 0.0000 0.0000 0.0000 0.0000 45.5645 0.0000
# 6 0.0000 0.0000 0.0000 0.0000 0.0000 20.2026
#
#
#
# Elastic Compliance Matrix: (Units=1/GPa)
#
#
# Indices 1 2 3 4 5 6 
#
# 1 0.011394 -0.002845 -0.002725 0.000000 0.000000 0.000000
# 2 -0.002845 0.012547 -0.002504 0.000000 0.000000 0.000000
# 3 -0.002725 -0.002504 0.007495 0.000000 0.000000 0.000000
# 4 0.000000 0.000000 0.000000 0.030911 0.000000 0.000000
# 5 0.000000 0.000000 0.000000 0.000000 0.021947 0.000000
# 6 0.000000 0.000000 0.000000 0.000000 0.000000 0.049499
#
#
# Mechanical properties :
#
#
# Convention : Reuss Voigt Hill
#
# Bulk Modulus (GPa) = 65.40949 70.47339 67.94144
# Shear Modulus (GPa) = 32.25042 35.71371 33.98206
#
# Velocity S-wave (km/s) = 3.96973 4.17745 4.07492
# Velocity P-wave (km/s) = 7.27828 7.59632 7.43900
#
# Compressibility (1/GPa) = 0.01528830
#
# Stress axis : x y z
#
# Youngs Moduli (GPa) = 87.76332 79.69946 133.42411
#
# Poissons Ratio (x) = 0.22673 0.36357
# Poissons Ratio (y) = 0.24967 0.33413
# Poissons Ratio (z) = 0.23915 0.19959
#
# Static dielectric constant tensor:
#      x y z
#    x 3.792750 0.000000 0.000000 
#    y 0.000000 3.553690 0.000000 
#    z 0.000000 0.000000 3.968860 
# 
# 
# High freq. dielectric constant tensor:
#      x y z
#    x 1.804290 0.000000 0.000000 
#    y 0.000000 1.787740 0.000000 
#    z 0.000000 0.000000 1.814690 
# 
# From -- ./inp_files/45806.got.cif
#   From: 2010.03.12/outbox.cif.g09.slc.cpg/sg67_23_cif.got.tgz:45806.got - 2010.04.10 22:41:39.
