data_PCOD8280994
_publ_section_title
;
Structure prediction by ZEFSAII (Michael W. Deem and Ramdas Pophale) SiO2 
 PCOD8280994
Probable space group: C M M A
;
_chemical_formula_sum "Si O2"
_cell_formula_units_Z 72
_cell_length_a 9.799456
_cell_length_b 16.071933
_cell_length_c 22.707668
_cell_angle_alpha 90.000000
_cell_angle_beta 90.000000
_cell_angle_gamma 90.000000
_cell_volume 3576.371427
_symmetry_space_group_name_H-M "C M M A"
_symmetry_group_IT_number 67
_symmetry_cell_setting 'orthorhombic'
loop_
_space_group_symop_operation_xyz
x,y,z
-x,1/2-y,z
x,-y,-z
-x,1/2+y,-z
-x,-y,-z
x,1/2+y,-z
-x,y,z
x,1/2-y,z
1/2+x,1/2+y,z
1/2-x,-y,z
1/2+x,1/2-y,-z
1/2-x,y,-z
1/2-x,1/2-y,-z
1/2+x,y,-z
1/2-x,1/2+y,z
1/2+x,-y,z
loop_
_atom_site_type_symbol
_atom_site_label
_atom_site_fract_x
_atom_site_fract_y
_atom_site_fract_z
Si Si1 0.000000 0.115788 0.051155
Si Si2 0.658724 0.080528 0.626343
Si Si3 0.339641 0.250000 0.557901
Si Si4 0.000000 0.076466 0.921285
Si Si5 0.845708 0.925871 0.760677
Si Si6 0.252407 0.840828 0.128709
O O1 0.134274 0.156481 0.078004
O O2 0.000000 0.019348 0.064824
O O3 0.000000 0.131062 0.981007
O O4 0.500000 0.057374 0.615321
O O5 0.699312 0.165097 0.592409
O O6 0.687292 0.103216 0.694380
O O7 0.750000 0.000000 0.606802
O O8 0.500000 0.250000 0.542725
O O9 0.250000 0.250000 0.500000
O O10 0.865889 0.093067 0.883019
O O11 0.820392 0.852502 0.807081
O O12 0.000000 0.957821 0.765092
O O13 0.750000 0.000000 0.780594
O O14 0.185150 0.750000 0.128015
#
# Coordination Sequence:
#
# PCOD8280994 Si02
#       6
#     8  16   8   8  16  16
#     4  11  23  43  65  83 107 153 205 238 295 366
#     4   9  20  39  63  91 124 167 209 257 309 357
#     4  10  22  40  64  94 132 172 209 255 300 356
#     4  11  25  43  61  81 115 155 193 246 297 368
#     4  10  21  38  63  88 119 157 203 250 298 361
#     4  12  25  38  59  89 117 150 191 247 308 356
#
# _framework density 20.132138000000001
#
# number of rings (size 3 to 8) (size 9 to 14) (size 15 to 20)
#    0.000    1.556    1.111    3.333    3.111    5.778 
#    0.000    2.222    0.000    0.000    0.000    0.000 
#    0.000    0.000    0.000    0.000    0.000    0.000 
#
# Total GULP energy -446393.381393 kJ/mol
# GULP energy per Si atom -12399.816150 kJ/mol
# Density = 2.008632 g / cm^3
# Si number density = 20.132138 Si / 1000 Ang^3
#
#
#
# Elastic Constant Matrix: (Units=GPa)
#
#
# Indices 1 2 3 4 5 6 
#
# 1 104.3516 40.7875 43.1726 0.0000 0.0000 0.0000
# 2 40.7875 119.8908 55.0139 0.0000 0.0000 0.0000
# 3 43.1726 55.0139 112.7541 0.0000 0.0000 0.0000
# 4 0.0000 0.0000 0.0000 24.7952 0.0000 0.0000
# 5 0.0000 0.0000 0.0000 0.0000 35.6322 0.0000
# 6 0.0000 0.0000 0.0000 0.0000 0.0000 -773.8996
#
#
#
# Elastic Compliance Matrix: (Units=1/GPa)
#
#
# Indices 1 2 3 4 5 6 
#
# 1 0.011956 -0.002534 -0.003341 0.000000 0.000000 0.000000
# 2 -0.002534 0.011284 -0.004535 0.000000 0.000000 0.000000
# 3 -0.003341 -0.004535 0.012361 0.000000 0.000000 0.000000
# 4 0.000000 0.000000 0.000000 0.040330 0.000000 0.000000
# 5 0.000000 0.000000 0.000000 0.000000 0.028064 0.000000
# 6 0.000000 0.000000 0.000000 0.000000 0.000000 -0.001292
#
#
# Mechanical properties :
#
#
# Convention : Reuss Voigt Hill
#
# Bulk Modulus (GPa) = 67.66197 68.32716 67.99457
# Shear Modulus (GPa) = 38.92499 -129.49293 -45.28397
#
# Velocity S-wave (km/s) = 4.40190 -8.02877 -4.74786
# Velocity P-wave (km/s) = 7.71476 7.20660 1.94710
#
# Compressibility (1/GPa) = 0.01477935
#
# Stress axis : x y z
#
# Youngs Moduli (GPa) = 83.64051 88.61949 80.89916
#
# Poissons Ratio (x) = 0.22458 0.27031
# Poissons Ratio (y) = 0.21197 0.36690
# Poissons Ratio (z) = 0.27947 0.40192
#
# Static dielectric constant tensor:
#      x y z
#    x 3.842430 0.000000 0.000000 
#    y 0.000000 3.619340 0.000000 
#    z 0.000000 0.000000 3.787050 
# 
# 
# High freq. dielectric constant tensor:
#      x y z
#    x 1.789960 0.000000 0.000000 
#    y 0.000000 1.785530 0.000000 
#    z 0.000000 0.000000 1.787560 
# 
# From -- ./inp_files/43142.got.cif
#   From: 2010.03.12/outbox.cif.g09.slc.cpg/sg67_22_cif.got.tgz:43142.got - 2010.04.10 22:41:39.
