data_PCOD8280896
_publ_section_title
;
Structure prediction by ZEFSAII (Michael W. Deem and Ramdas Pophale) SiO2 
 PCOD8280896
Probable space group: C M M A
;
_chemical_formula_sum "Si O2"
_cell_formula_units_Z 96
_cell_length_a 8.812922
_cell_length_b 19.242377
_cell_length_c 31.272101
_cell_angle_alpha 90.000000
_cell_angle_beta 90.000000
_cell_angle_gamma 90.000000
_cell_volume 5303.171910
_symmetry_space_group_name_H-M "C M M A"
_symmetry_group_IT_number 67
_symmetry_cell_setting 'orthorhombic'
loop_
_space_group_symop_operation_xyz
x,y,z
-x,1/2-y,z
x,-y,-z
-x,1/2+y,-z
-x,-y,-z
x,1/2+y,-z
-x,y,z
x,1/2-y,z
1/2+x,1/2+y,z
1/2-x,-y,z
1/2+x,1/2-y,-z
1/2-x,y,-z
1/2-x,1/2-y,-z
1/2+x,y,-z
1/2-x,1/2+y,z
1/2+x,-y,z
loop_
_atom_site_type_symbol
_atom_site_label
_atom_site_fract_x
_atom_site_fract_y
_atom_site_fract_z
Si Si1 0.822325 0.575032 0.202155
Si Si2 0.679783 0.671333 0.628707
Si Si3 0.328986 0.667229 0.457611
Si Si4 0.177151 0.425148 0.704072
Si Si5 0.323682 0.669189 0.954799
Si Si6 0.819916 0.576661 0.882163
O O1 0.750000 0.500000 0.205515
O O2 0.792797 0.609293 0.248840
O O3 0.738395 0.612501 0.162353
O O4 0.000000 0.570379 0.191580
O O5 0.500000 0.668717 0.626020
O O6 0.737407 0.750000 0.635440
O O7 0.744743 0.639581 0.584731
O O8 0.743372 0.626878 0.668482
O O9 0.500000 0.639753 0.456631
O O10 0.321003 0.750000 0.458831
O O11 0.250000 0.636329 0.500000
O O12 0.250000 0.500000 0.698445
O O13 0.000000 0.436103 0.697318
O O14 0.500000 0.648244 0.955487
O O15 0.302091 0.750000 0.943828
O O16 0.234516 0.625111 0.920128
O O17 0.250000 0.650625 0.000000
O O18 0.750000 0.500000 0.887473
O O19 0.000000 0.571445 0.882235
#
# Coordination Sequence:
#
# PCOD8280896 Si02
#       6
#    16  16  16  16  16  16
#     4   9  16  29  48  71  98 128 165 204 245 291
#     4   9  17  30  47  68  95 124 155 194 238 283
#     4   9  16  26  42  65  91 120 154 191 233 281
#     4   9  18  31  49  71  95 127 164 199 238 288
#     4  10  21  38  58  79 105 137 171 206 248 300
#     4  11  21  34  54  79 106 134 169 212 255 296
#
# _framework density 18.102374000000001
#
# number of rings (size 3 to 8) (size 9 to 14) (size 15 to 20)
#    0.000    2.500    0.000    4.000    0.000    4.667 
#    0.000    2.500    0.000    3.500    0.000    3.500 
#    0.000    0.000    0.000    0.000    0.000    0.000 
#
# Total GULP energy -594942.949486 kJ/mol
# GULP energy per Si atom -12394.644781 kJ/mol
# Density = 1.806117 g / cm^3
# Si number density = 18.102374 Si / 1000 Ang^3
#
#
#
# Elastic Constant Matrix: (Units=GPa)
#
#
# Indices 1 2 3 4 5 6 
#
# 1 107.8543 33.0338 72.0068 0.0000 0.0000 0.0000
# 2 33.0338 48.4886 63.5153 0.0000 0.0000 0.0000
# 3 72.0068 63.5153 192.5080 0.0000 0.0000 0.0000
# 4 0.0000 0.0000 0.0000 50.6118 0.0000 0.0000
# 5 0.0000 0.0000 0.0000 0.0000 34.0867 0.0000
# 6 0.0000 0.0000 0.0000 0.0000 0.0000 19.1945
#
#
#
# Elastic Compliance Matrix: (Units=1/GPa)
#
#
# Indices 1 2 3 4 5 6 
#
# 1 0.012854 -0.004331 -0.003379 0.000000 0.000000 0.000000
# 2 -0.004331 0.037780 -0.010845 0.000000 0.000000 0.000000
# 3 -0.003379 -0.010845 0.010037 0.000000 0.000000 0.000000
# 4 0.000000 0.000000 0.000000 0.019758 0.000000 0.000000
# 5 0.000000 0.000000 0.000000 0.000000 0.029337 0.000000
# 6 0.000000 0.000000 0.000000 0.000000 0.000000 0.052098
#
#
# Mechanical properties :
#
#
# Convention : Reuss Voigt Hill
#
# Bulk Modulus (GPa) = 42.44352 76.21808 59.33080
# Shear Modulus (GPa) = 24.17474 32.79827 28.48651
#
# Velocity S-wave (km/s) = 3.65834 4.26117 3.97121
# Velocity P-wave (km/s) = 6.42977 8.14895 7.33987
#
# Compressibility (1/GPa) = 0.02356072
#
# Stress axis : x y z
#
# Youngs Moduli (GPa) = 77.79521 26.46928 99.63431
#
# Poissons Ratio (x) = 0.11463 0.33668
# Poissons Ratio (y) = 0.33691 1.08053
# Poissons Ratio (z) = 0.26289 0.28706
#
# Static dielectric constant tensor:
#      x y z
#    x 3.466850 0.000000 0.000000 
#    y 0.000000 2.991630 0.000000 
#    z 0.000000 0.000000 4.129170 
# 
# 
# High freq. dielectric constant tensor:
#      x y z
#    x 1.710950 0.000000 0.000000 
#    y 0.000000 1.649720 0.000000 
#    z 0.000000 0.000000 1.726360 
# 
# From -- ./inp_files/43652.got.cif
#   From: 2010.03.12/outbox.cif.g09.slc.cpg/sg67_22_cif.got.tgz:43652.got - 2010.04.10 22:41:39.
