data_PCOD8280735
_publ_section_title
;
Structure prediction by ZEFSAII (Michael W. Deem and Ramdas Pophale) SiO2 
 PCOD8280735
Probable space group: C M M A
;
_chemical_formula_sum "Si O2"
_cell_formula_units_Z 112
_cell_length_a 15.203692
_cell_length_b 30.935390
_cell_length_c 11.949211
_cell_angle_alpha 90.000000
_cell_angle_beta 90.000000
_cell_angle_gamma 90.000000
_cell_volume 5620.097998
_symmetry_space_group_name_H-M "C M M A"
_symmetry_group_IT_number 67
_symmetry_cell_setting 'orthorhombic'
loop_
_space_group_symop_operation_xyz
x,y,z
-x,1/2-y,z
x,-y,-z
-x,1/2+y,-z
-x,-y,-z
x,1/2+y,-z
-x,y,z
x,1/2-y,z
1/2+x,1/2+y,z
1/2-x,-y,z
1/2+x,1/2-y,-z
1/2-x,y,-z
1/2-x,1/2-y,-z
1/2+x,y,-z
1/2-x,1/2+y,z
1/2+x,-y,z
loop_
_atom_site_type_symbol
_atom_site_label
_atom_site_fract_x
_atom_site_fract_y
_atom_site_fract_z
Si Si1 0.401472 0.931118 0.659249
Si Si2 0.344139 0.981043 0.252291
Si Si3 0.901884 0.342140 0.246380
Si Si4 0.737414 0.298837 0.131813
Si Si5 0.596565 0.919588 0.074937
Si Si6 0.605835 0.126278 0.142494
Si Si7 0.396814 0.089823 0.583752
O O1 0.500000 0.914301 0.647959
O O2 0.357705 0.902975 0.756769
O O3 0.357341 0.918792 0.540312
O O4 0.404548 0.981392 0.694681
O O5 0.368814 0.964572 0.127309
O O6 0.340976 0.941842 0.338391
O O7 0.250000 0.000000 0.238517
O O8 0.826185 0.310560 0.201009
O O9 0.904495 0.384700 0.172019
O O10 0.882988 0.360479 0.372719
O O11 0.000000 0.319941 0.241727
O O12 0.713525 0.250000 0.165632
O O13 0.653431 0.328023 0.161539
O O14 0.750000 0.303025 0.000000
O O15 0.500000 0.930461 0.030414
O O16 0.645053 0.898743 0.967038
O O17 0.500000 0.133560 0.136573
O O18 0.500000 0.077214 0.592173
#
# Coordination Sequence:
#
# PCOD8280735 Si02
#       7
#    16  16  16  16  16  16  16
#     4  10  21  36  55  80 110 151 197 239 282 333
#     4  11  22  32  50  82 116 147 191 247 288 328
#     4   9  18  36  61  85 113 149 187 231 286 347
#     4  11  23  37  60  91 120 145 181 239 300 357
#     4   9  18  36  57  76 107 154 194 230 283 337
#     4  10  22  39  59  82 115 155 193 233 284 353
#     4   9  19  37  59  79 107 151 197 240 286 333
#
# _framework density 19.928477999999998
#
# number of rings (size 3 to 8) (size 9 to 14) (size 15 to 20)
#    0.000    2.143    1.429    2.571    4.000    3.429 
#    0.000    4.286    0.000    1.714    0.000    4.000 
#    0.000    0.000    0.000    0.000    0.000    0.000 
#
# Total GULP energy -693778.536858 kJ/mol
# GULP energy per Si atom -12388.902444 kJ/mol
# Density = 1.988312 g / cm^3
# Si number density = 19.928478 Si / 1000 Ang^3
#
#
#
# Elastic Constant Matrix: (Units=GPa)
#
#
# Indices 1 2 3 4 5 6 
#
# 1 62.1820 37.3462 35.1380 0.0000 0.0000 0.0000
# 2 37.3462 101.5081 67.2147 0.0000 0.0000 0.0000
# 3 35.1380 67.2147 116.1973 0.0000 0.0000 0.0000
# 4 0.0000 0.0000 0.0000 16.8049 0.0000 0.0000
# 5 0.0000 0.0000 0.0000 0.0000 15.1316 0.0000
# 6 0.0000 0.0000 0.0000 0.0000 0.0000 26.5345
#
#
#
# Elastic Compliance Matrix: (Units=1/GPa)
#
#
# Indices 1 2 3 4 5 6 
#
# 1 0.021308 -0.005791 -0.003094 0.000000 0.000000 0.000000
# 2 -0.005791 0.017541 -0.008396 0.000000 0.000000 0.000000
# 3 -0.003094 -0.008396 0.014398 0.000000 0.000000 0.000000
# 4 0.000000 0.000000 0.000000 0.059506 0.000000 0.000000
# 5 0.000000 0.000000 0.000000 0.000000 0.066087 0.000000
# 6 0.000000 0.000000 0.000000 0.000000 0.000000 0.037687
#
#
# Mechanical properties :
#
#
# Convention : Reuss Voigt Hill
#
# Bulk Modulus (GPa) = 53.51389 62.14280 57.82835
# Shear Modulus (GPa) = 19.43128 21.04010 20.23569
#
# Velocity S-wave (km/s) = 3.12597 3.25280 3.19002
# Velocity P-wave (km/s) = 6.31982 6.73485 6.53064
#
# Compressibility (1/GPa) = 0.01868674
#
# Stress axis : x y z
#
# Youngs Moduli (GPa) = 46.93060 57.00850 69.45384
#
# Poissons Ratio (x) = 0.33013 0.21487
# Poissons Ratio (y) = 0.27177 0.58311
# Poissons Ratio (z) = 0.14519 0.47862
#
# Static dielectric constant tensor:
#      x y z
#    x 3.107500 0.000000 0.000000 
#    y 0.000000 3.616400 0.000000 
#    z 0.000000 0.000000 4.127680 
# 
# 
# High freq. dielectric constant tensor:
#      x y z
#    x 1.773190 0.000000 0.000000 
#    y 0.000000 1.748560 0.000000 
#    z 0.000000 0.000000 1.779160 
# 
# From -- ./inp_files/18603.got.cif
#   From: 2010.03.12/outbox.cif.g09.slc.cpg/sg67_10_cif.got.tgz:18603.got - 2010.04.10 22:41:39.
