data_PCOD8280136
_publ_section_title
;
Structure prediction by ZEFSAII (Michael W. Deem and Ramdas Pophale) SiO2 
 PCOD8280136
Probable space group: C M M A
;
_chemical_formula_sum "Si O2"
_cell_formula_units_Z 80
_cell_length_a 19.058155
_cell_length_b 8.550980
_cell_length_c 25.464745
_cell_angle_alpha 90.000000
_cell_angle_beta 90.000000
_cell_angle_gamma 90.000000
_cell_volume 4149.885144
_symmetry_space_group_name_H-M "C M M A"
_symmetry_group_IT_number 67
_symmetry_cell_setting 'orthorhombic'
loop_
_space_group_symop_operation_xyz
x,y,z
-x,1/2-y,z
x,-y,-z
-x,1/2+y,-z
-x,-y,-z
x,1/2+y,-z
-x,y,z
x,1/2-y,z
1/2+x,1/2+y,z
1/2-x,-y,z
1/2+x,1/2-y,-z
1/2-x,y,-z
1/2-x,1/2-y,-z
1/2+x,y,-z
1/2-x,1/2+y,z
1/2+x,-y,z
loop_
_atom_site_type_symbol
_atom_site_label
_atom_site_fract_x
_atom_site_fract_y
_atom_site_fract_z
Si Si1 0.825426 0.563892 0.649167
Si Si2 0.418040 0.567005 0.146386
Si Si3 0.173248 0.064607 0.761499
Si Si4 0.824503 0.934202 0.056846
Si Si5 0.579094 0.065368 0.554066
O O1 0.823543 0.750000 0.655360
O O2 0.750000 0.500000 0.632889
O O3 0.850400 0.488765 0.703706
O O4 0.877643 0.505112 0.603955
O O5 0.500000 0.527887 0.148168
O O6 0.403396 0.750000 0.141362
O O7 0.383940 0.502991 0.199256
O O8 0.385623 0.480936 0.096384
O O9 0.175380 0.250000 0.765383
O O10 0.250000 0.000000 0.775870
O O11 0.818117 0.750000 0.053215
O O12 0.750000 0.000000 0.077008
O O13 0.844293 0.000000 0.000000
O O14 0.500000 0.001905 0.560569
O O15 0.581334 0.250000 0.551499
O O16 0.612162 0.000000 0.500000
#
# Coordination Sequence:
#
# PCOD8280136 Si02
#       5
#    16  16  16  16  16
#     4  10  20  35  55  80 109 141 180 225 275 327
#     4  11  24  41  60  84 116 152 189 231 281 333
#     4  11  22  38  60  84 112 146 187 231 278 333
#     4  11  22  39  63  89 118 151 192 235 278 331
#     4   9  19  35  54  76 104 140 180 221 268 324
#
# _framework density 19.277640999999999
#
# number of rings (size 3 to 8) (size 9 to 14) (size 15 to 20)
#    0.000    1.600    0.000    7.200    0.000    4.800 
#    0.000    4.000    0.000    0.000    0.000    0.000 
#    0.000    0.000    0.000    0.000    0.000    0.000 
#
# Total GULP energy -496160.365836 kJ/mol
# GULP energy per Si atom -12404.009146 kJ/mol
# Density = 1.923376 g / cm^3
# Si number density = 19.277641 Si / 1000 Ang^3
#
#
#
# Elastic Constant Matrix: (Units=GPa)
#
#
# Indices 1 2 3 4 5 6 
#
# 1 113.5551 50.2976 91.6028 0.0000 0.0000 0.0000
# 2 50.2976 89.3809 32.9052 0.0000 0.0000 0.0000
# 3 91.6028 32.9052 139.4187 0.0000 0.0000 0.0000
# 4 0.0000 0.0000 0.0000 35.4750 0.0000 0.0000
# 5 0.0000 0.0000 0.0000 0.0000 31.7378 0.0000
# 6 0.0000 0.0000 0.0000 0.0000 0.0000 29.6248
#
#
#
# Elastic Compliance Matrix: (Units=1/GPa)
#
#
# Indices 1 2 3 4 5 6 
#
# 1 0.023099 -0.008116 -0.013261 0.000000 0.000000 0.000000
# 2 -0.008116 0.015105 0.001768 0.000000 0.000000 0.000000
# 3 -0.013261 0.001768 0.015468 0.000000 0.000000 0.000000
# 4 0.000000 0.000000 0.000000 0.028189 0.000000 0.000000
# 5 0.000000 0.000000 0.000000 0.000000 0.031508 0.000000
# 6 0.000000 0.000000 0.000000 0.000000 0.000000 0.033755
#
#
# Mechanical properties :
#
#
# Convention : Reuss Voigt Hill
#
# Bulk Modulus (GPa) = 69.19252 76.88511 73.03882
# Shear Modulus (GPa) = 26.15591 30.53748 28.34669
#
# Velocity S-wave (km/s) = 3.68747 3.98438 3.83880
# Velocity P-wave (km/s) = 7.35530 7.81899 7.59069
#
# Compressibility (1/GPa) = 0.01445243
#
# Stress axis : x y z
#
# Youngs Moduli (GPa) = 43.29215 66.20479 64.64787
#
# Poissons Ratio (x) = 0.53735 0.85730
# Poissons Ratio (y) = 0.35138 -0.11429
# Poissons Ratio (z) = 0.57410 -0.11704
#
# Static dielectric constant tensor:
#      x y z
#    x 3.574710 0.000000 0.000000 
#    y 0.000000 3.638370 0.000000 
#    z 0.000000 0.000000 3.691850 
# 
# 
# High freq. dielectric constant tensor:
#      x y z
#    x 1.744840 0.000000 0.000000 
#    y 0.000000 1.764630 0.000000 
#    z 0.000000 0.000000 1.765220 
# 
# From -- ./inp_files/43266.got.cif
#   From: 2010.03.12/outbox.cif.g09.slc.cpg/sg67_22_cif.got.tgz:43266.got - 2010.04.10 22:41:39.
