data_PCOD8280337
_publ_section_title
;
Structure prediction by ZEFSAII (Michael W. Deem and Ramdas Pophale) SiO2 
 PCOD8280337
Probable space group: C M M A
;
_chemical_formula_sum "Si O2"
_cell_formula_units_Z 104
_cell_length_a 8.865970
_cell_length_b 19.021357
_cell_length_c 29.765636
_cell_angle_alpha 90.000000
_cell_angle_beta 90.000000
_cell_angle_gamma 90.000000
_cell_volume 5019.759619
_symmetry_space_group_name_H-M "C M M A"
_symmetry_group_IT_number 67
_symmetry_cell_setting 'orthorhombic'
loop_
_space_group_symop_operation_xyz
x,y,z
-x,1/2-y,z
x,-y,-z
-x,1/2+y,-z
-x,-y,-z
x,1/2+y,-z
-x,y,z
x,1/2-y,z
1/2+x,1/2+y,z
1/2-x,-y,z
1/2+x,1/2-y,-z
1/2-x,y,-z
1/2-x,1/2-y,-z
1/2+x,y,-z
1/2-x,1/2+y,z
1/2+x,-y,z
loop_
_atom_site_type_symbol
_atom_site_label
_atom_site_fract_x
_atom_site_fract_y
_atom_site_fract_z
Si Si1 0.821304 0.671249 0.211763
Si Si2 0.675689 0.168093 0.380013
Si Si3 0.169327 0.250000 0.045839
Si Si4 0.822999 0.066334 0.862402
Si Si5 0.179819 0.927414 0.548499
Si Si6 0.322688 0.923337 0.706704
Si Si7 0.676571 0.098902 0.951010
O O1 0.751298 0.750000 0.214617
O O2 0.776459 0.637513 0.163631
O O3 0.758104 0.620610 0.250885
O O4 0.000000 0.676609 0.216894
O O5 0.500000 0.159280 0.392003
O O6 0.715671 0.250000 0.372057
O O7 0.775890 0.138213 0.420504
O O8 0.718948 0.123620 0.336211
O O9 0.206923 0.322855 0.070109
O O10 0.000000 0.250000 0.030006
O O11 0.250000 0.250000 0.000000
O O12 0.760448 0.055949 0.912956
O O13 0.000000 0.057518 0.863672
O O14 0.750000 0.000000 0.835752
O O15 0.250000 0.912561 0.500000
O O16 0.000000 0.934565 0.545300
O O17 0.250000 0.000000 0.568205
O O18 0.500000 0.934737 0.711367
O O19 0.250000 0.000000 0.703184
O O20 0.500000 0.080397 0.954356
O O21 0.750000 0.085815 0.000000
#
# Coordination Sequence:
#
# PCOD8280337 Si02
#       7
#    16  16   8  16  16  16  16
#     4   9  19  37  61  88 115 147 190 236 283 339
#     4  10  21  37  58  86 120 159 203 250 301 357
#     4   8  16  30  50  76 106 138 170 214 264 316
#     4  11  23  38  58  83 114 151 189 232 281 336
#     4  11  22  38  60  85 117 158 205 256 308 363
#     4  10  20  36  61  89 119 155 194 239 290 347
#     4  10  20  36  57  83 114 147 186 229 278 333
#
# _framework density 20.718124
#
# number of rings (size 3 to 8) (size 9 to 14) (size 15 to 20)
#    0.000    2.000    0.000    4.154    1.077    5.231 
#    0.000    2.308    0.000    3.231    0.000    0.000 
#    0.000    0.000    0.000    0.000    0.000    0.000 
#
# Total GULP energy -644313.857010 kJ/mol
# GULP energy per Si atom -12390.651096 kJ/mol
# Density = 2.067097 g / cm^3
# Si number density = 20.718124 Si / 1000 Ang^3
#
#
#
# Elastic Constant Matrix: (Units=GPa)
#
#
# Indices 1 2 3 4 5 6 
#
# 1 88.0916 54.7956 49.4665 0.0000 0.0000 0.0000
# 2 54.7956 181.2534 70.9964 0.0000 0.0000 0.0000
# 3 49.4665 70.9964 120.8055 0.0000 0.0000 0.0000
# 4 0.0000 0.0000 0.0000 35.4050 0.0000 0.0000
# 5 0.0000 0.0000 0.0000 0.0000 20.9683 0.0000
# 6 0.0000 0.0000 0.0000 0.0000 0.0000 32.4554
#
#
#
# Elastic Compliance Matrix: (Units=1/GPa)
#
#
# Indices 1 2 3 4 5 6 
#
# 1 0.015849 -0.002922 -0.004773 0.000000 0.000000 0.000000
# 2 -0.002922 0.007706 -0.003332 0.000000 0.000000 0.000000
# 3 -0.004773 -0.003332 0.012190 0.000000 0.000000 0.000000
# 4 0.000000 0.000000 0.000000 0.028245 0.000000 0.000000
# 5 0.000000 0.000000 0.000000 0.000000 0.047691 0.000000
# 6 0.000000 0.000000 0.000000 0.000000 0.000000 0.030811
#
#
# Mechanical properties :
#
#
# Convention : Reuss Voigt Hill
#
# Bulk Modulus (GPa) = 73.03622 82.29638 77.66630
# Shear Modulus (GPa) = 29.56656 32.09188 30.82922
#
# Velocity S-wave (km/s) = 3.78178 3.93997 3.86169
# Velocity P-wave (km/s) = 7.37550 7.77856 7.57971
#
# Compressibility (1/GPa) = 0.01369184
#
# Stress axis : x y z
#
# Youngs Moduli (GPa) = 63.09372 129.77431 82.03290
#
# Poissons Ratio (x) = 0.37921 0.39151
# Poissons Ratio (y) = 0.18437 0.27334
# Poissons Ratio (z) = 0.30112 0.43241
#
# Static dielectric constant tensor:
#      x y z
#    x 3.553800 0.000000 0.000000 
#    y 0.000000 4.506700 0.000000 
#    z 0.000000 0.000000 3.713320 
# 
# 
# High freq. dielectric constant tensor:
#      x y z
#    x 1.791210 0.000000 0.000000 
#    y 0.000000 1.836300 0.000000 
#    z 0.000000 0.000000 1.806500 
# 
# From -- ./inp_files/43567.got.cif
#   From: 2010.03.12/outbox.cif.g09.slc.cpg/sg67_22_cif.got.tgz:43567.got - 2010.04.10 22:41:39.
