data_PCOD8280477
_publ_section_title
;
Structure prediction by ZEFSAII (Michael W. Deem and Ramdas Pophale) SiO2 
 PCOD8280477
Probable space group: C M M A
;
_chemical_formula_sum "Si O2"
_cell_formula_units_Z 80
_cell_length_a 17.274037
_cell_length_b 26.242648
_cell_length_c 8.730409
_cell_angle_alpha 90.000000
_cell_angle_beta 90.000000
_cell_angle_gamma 90.000000
_cell_volume 3957.638212
_symmetry_space_group_name_H-M "C M M A"
_symmetry_group_IT_number 67
_symmetry_cell_setting 'orthorhombic'
loop_
_space_group_symop_operation_xyz
x,y,z
-x,1/2-y,z
x,-y,-z
-x,1/2+y,-z
-x,-y,-z
x,1/2+y,-z
-x,y,z
x,1/2-y,z
1/2+x,1/2+y,z
1/2-x,-y,z
1/2+x,1/2-y,-z
1/2-x,y,-z
1/2-x,1/2-y,-z
1/2+x,y,-z
1/2-x,1/2+y,z
1/2+x,-y,z
loop_
_atom_site_type_symbol
_atom_site_label
_atom_site_fract_x
_atom_site_fract_y
_atom_site_fract_z
Si Si1 0.666267 0.750000 0.430491
Si Si2 0.663143 0.948904 0.568222
Si Si3 0.666082 0.750000 0.066224
Si Si4 0.090592 0.047435 0.888375
Si Si5 0.409454 0.852815 0.076335
Si Si6 0.909108 0.352854 0.419561
O O1 0.750000 0.750000 0.500000
O O2 0.666317 0.750000 0.248340
O O3 0.623680 0.699396 0.490837
O O4 0.750000 0.943761 0.500000
O O5 0.652746 0.955581 0.750709
O O6 0.615210 0.899440 0.524859
O O7 0.624695 0.000000 0.500000
O O8 0.624776 0.698967 0.004162
O O9 0.750000 0.750000 0.000000
O O10 0.000000 0.048083 0.834476
O O11 0.113456 0.099021 0.975336
O O12 0.104928 0.000000 0.000000
O O13 0.500000 0.844976 0.084424
O O14 0.377025 0.862090 0.247926
O O15 0.000000 0.348238 0.420821
#
# Coordination Sequence:
#
# PCOD8280477 Si02
#       6
#     8  16   8  16  16  16
#     4  10  21  37  57  83 119 154 190 239 292 351
#     4  11  24  40  57  85 122 158 195 239 299 361
#     4  10  21  35  55  81 111 152 189 227 284 345
#     4  10  21  39  64  91 117 150 196 249 301 354
#     4   9  19  36  58  84 113 146 189 240 290 342
#     4  10  20  37  61  86 114 154 201 244 291 350
#
# _framework density 20.214075000000001
#
# number of rings (size 3 to 8) (size 9 to 14) (size 15 to 20)
#    0.000    2.000    0.000    3.000    0.000   10.400 
#    0.000    6.000    0.000    3.600    0.000    0.000 
#    0.000    0.000    0.000    0.000    0.000    0.000 
#
# Total GULP energy -495887.985042 kJ/mol
# GULP energy per Si atom -12397.199626 kJ/mol
# Density = 2.016807 g / cm^3
# Si number density = 20.214075 Si / 1000 Ang^3
#
#
#
# Elastic Constant Matrix: (Units=GPa)
#
#
# Indices 1 2 3 4 5 6 
#
# 1 65.0587 50.4354 45.2703 0.0000 0.0000 0.0000
# 2 50.4354 206.9237 65.8313 0.0000 0.0000 0.0000
# 3 45.2703 65.8313 91.3603 0.0000 0.0000 0.0000
# 4 0.0000 0.0000 0.0000 22.5989 0.0000 0.0000
# 5 0.0000 0.0000 0.0000 0.0000 36.7814 0.0000
# 6 0.0000 0.0000 0.0000 0.0000 0.0000 11.5934
#
#
#
# Elastic Compliance Matrix: (Units=1/GPa)
#
#
# Indices 1 2 3 4 5 6 
#
# 1 0.024608 -0.002749 -0.010213 0.000000 0.000000 0.000000
# 2 -0.002749 0.006577 -0.003377 0.000000 0.000000 0.000000
# 3 -0.010213 -0.003377 0.018440 0.000000 0.000000 0.000000
# 4 0.000000 0.000000 0.000000 0.044250 0.000000 0.000000
# 5 0.000000 0.000000 0.000000 0.000000 0.027188 0.000000
# 6 0.000000 0.000000 0.000000 0.000000 0.000000 0.086256
#
#
# Mechanical properties :
#
#
# Convention : Reuss Voigt Hill
#
# Bulk Modulus (GPa) = 59.00674 76.26851 67.63762
# Shear Modulus (GPa) = 20.35450 27.64845 24.00147
#
# Velocity S-wave (km/s) = 3.17669 3.70237 3.44955
# Velocity P-wave (km/s) = 6.53524 7.48926 7.02846
#
# Compressibility (1/GPa) = 0.01694722
#
# Stress axis : x y z
#
# Youngs Moduli (GPa) = 40.63666 152.04224 54.23032
#
# Poissons Ratio (x) = 0.41793 0.55386
# Poissons Ratio (y) = 0.11170 0.18315
# Poissons Ratio (z) = 0.41502 0.51348
#
# Static dielectric constant tensor:
#      x y z
#    x 3.500790 0.000000 0.000000 
#    y 0.000000 3.683410 0.000000 
#    z 0.000000 0.000000 4.442240 
# 
# 
# High freq. dielectric constant tensor:
#      x y z
#    x 1.779960 0.000000 0.000000 
#    y 0.000000 1.817070 0.000000 
#    z 0.000000 0.000000 1.778560 
# 
# From -- ./inp_files/9994.got.cif
#   From: 2010.03.12/outbox.cif.g09.slc.cpg/sg67_5_cif.got.tgz:9994.got - 2010.04.10 22:41:39.
