data_PCOD8280244
_publ_section_title
;
Structure prediction by ZEFSAII (Michael W. Deem and Ramdas Pophale) SiO2 
 PCOD8280244
Probable space group: C M M A
;
_chemical_formula_sum "Si O2"
_cell_formula_units_Z 72
_cell_length_a 8.760396
_cell_length_b 14.673060
_cell_length_c 28.641043
_cell_angle_alpha 90.000000
_cell_angle_beta 90.000000
_cell_angle_gamma 90.000000
_cell_volume 3681.571683
_symmetry_space_group_name_H-M "C M M A"
_symmetry_group_IT_number 67
_symmetry_cell_setting 'orthorhombic'
loop_
_space_group_symop_operation_xyz
x,y,z
-x,1/2-y,z
x,-y,-z
-x,1/2+y,-z
-x,-y,-z
x,1/2+y,-z
-x,y,z
x,1/2-y,z
1/2+x,1/2+y,z
1/2-x,-y,z
1/2+x,1/2-y,-z
1/2-x,y,-z
1/2-x,1/2-y,-z
1/2+x,y,-z
1/2-x,1/2+y,z
1/2+x,-y,z
loop_
_atom_site_type_symbol
_atom_site_label
_atom_site_fract_x
_atom_site_fract_y
_atom_site_fract_z
Si Si1 0.170797 0.142130 0.046461
Si Si2 0.325352 0.250000 0.692846
Si Si3 0.680299 0.907567 0.857207
Si Si4 0.682299 0.750000 0.551170
Si Si5 0.179963 0.250000 0.792184
Si Si6 0.319840 0.398926 0.616883
O O1 0.165498 0.250000 0.043836
O O2 0.268458 0.111798 0.090390
O O3 0.000000 0.101939 0.050619
O O4 0.250000 0.102253 0.000000
O O5 0.500000 0.250000 0.708357
O O6 0.223762 0.250000 0.738495
O O7 0.287593 0.341753 0.663974
O O8 0.500000 0.910488 0.856899
O O9 0.746493 0.835835 0.820140
O O10 0.750000 0.000000 0.838312
O O11 0.500000 0.750000 0.550693
O O12 0.750000 0.750000 0.500000
O O13 0.741247 0.842745 0.575288
O O14 0.000000 0.250000 0.795303
O O15 0.500000 0.405903 0.606874
O O16 0.250000 0.500000 0.621294
#
# Coordination Sequence:
#
# PCOD8280244 Si02
#       6
#    16   8  16   8   8  16
#     4  10  20  35  58  85 112 146 183 224 275 333
#     4   9  21  39  61  86 117 152 194 245 298 354
#     4  11  23  40  59  84 114 147 187 232 281 339
#     4  11  22  38  60  89 126 169 210 255 303 356
#     4  10  23  41  61  83 115 151 188 236 292 348
#     4  10  21  39  61  90 123 160 205 254 303 355
#
# _framework density 19.556865999999999
#
# number of rings (size 3 to 8) (size 9 to 14) (size 15 to 20)
#    0.000    1.778    1.111    3.667    0.000    7.111 
#    0.000    8.889    0.000    0.000    0.000    0.000 
#    0.000    0.000    0.000    0.000    0.000    0.000 
#
# Total GULP energy -446395.106443 kJ/mol
# GULP energy per Si atom -12399.864068 kJ/mol
# Density = 1.951235 g / cm^3
# Si number density = 19.556866 Si / 1000 Ang^3
#
#
#
# Elastic Constant Matrix: (Units=GPa)
#
#
# Indices 1 2 3 4 5 6 
#
# 1 115.9668 62.0338 49.3757 0.0000 0.0000 0.0000
# 2 62.0338 142.6949 74.6209 0.0000 0.0000 0.0000
# 3 49.3757 74.6209 137.9716 0.0000 0.0000 0.0000
# 4 0.0000 0.0000 0.0000 63.6283 0.0000 0.0000
# 5 0.0000 0.0000 0.0000 0.0000 40.4807 0.0000
# 6 0.0000 0.0000 0.0000 0.0000 0.0000 35.0888
#
#
#
# Elastic Compliance Matrix: (Units=1/GPa)
#
#
# Indices 1 2 3 4 5 6 
#
# 1 0.011614 -0.004010 -0.001988 0.000000 0.000000 0.000000
# 2 -0.004010 0.011156 -0.004599 0.000000 0.000000 0.000000
# 3 -0.001988 -0.004599 0.010446 0.000000 0.000000 0.000000
# 4 0.000000 0.000000 0.000000 0.015716 0.000000 0.000000
# 5 0.000000 0.000000 0.000000 0.000000 0.024703 0.000000
# 6 0.000000 0.000000 0.000000 0.000000 0.000000 0.028499
#
#
# Mechanical properties :
#
#
# Convention : Reuss Voigt Hill
#
# Bulk Modulus (GPa) = 83.16402 85.41046 84.28724
# Shear Modulus (GPa) = 39.26632 41.87976 40.57304
#
# Velocity S-wave (km/s) = 4.48571 4.63258 4.55974
# Velocity P-wave (km/s) = 8.33339 8.50777 8.42103
#
# Compressibility (1/GPa) = 0.01202443
#
# Stress axis : x y z
#
# Youngs Moduli (GPa) = 86.10021 89.63884 95.72667
#
# Poissons Ratio (x) = 0.35942 0.19029
# Poissons Ratio (y) = 0.34523 0.44021
# Poissons Ratio (z) = 0.17115 0.41222
#
# Static dielectric constant tensor:
#      x y z
#    x 3.683430 0.000000 0.000000 
#    y 0.000000 3.882620 0.000000 
#    z 0.000000 0.000000 3.578020 
# 
# 
# High freq. dielectric constant tensor:
#      x y z
#    x 1.773120 0.000000 0.000000 
#    y 0.000000 1.771570 0.000000 
#    z 0.000000 0.000000 1.760600 
# 
# From -- ./inp_files/43134.got.cif
#   From: 2010.03.12/outbox.cif.g09.slc.cpg/sg67_22_cif.got.tgz:43134.got - 2010.04.10 22:41:39.
