data_PCOD8280214
_publ_section_title
;
Structure prediction by ZEFSAII (Michael W. Deem and Ramdas Pophale) SiO2 
 PCOD8280214
Probable space group: C M M A
;
_chemical_formula_sum "Si O2"
_cell_formula_units_Z 88
_cell_length_a 19.209761
_cell_length_b 9.091660
_cell_length_c 24.878846
_cell_angle_alpha 90.000000
_cell_angle_beta 90.000000
_cell_angle_gamma 90.000000
_cell_volume 4345.056014
_symmetry_space_group_name_H-M "C M M A"
_symmetry_group_IT_number 67
_symmetry_cell_setting 'orthorhombic'
loop_
_space_group_symop_operation_xyz
x,y,z
-x,1/2-y,z
x,-y,-z
-x,1/2+y,-z
-x,-y,-z
x,1/2+y,-z
-x,y,z
x,1/2-y,z
1/2+x,1/2+y,z
1/2-x,-y,z
1/2+x,1/2-y,-z
1/2-x,y,-z
1/2-x,1/2-y,-z
1/2+x,y,-z
1/2-x,1/2+y,z
1/2+x,-y,z
loop_
_atom_site_type_symbol
_atom_site_label
_atom_site_fract_x
_atom_site_fract_y
_atom_site_fract_z
Si Si1 0.814661 0.576762 0.337854
Si Si2 0.500000 0.912704 0.447024
Si Si3 0.650078 0.077507 0.557901
Si Si4 0.421930 0.076707 0.250029
Si Si5 0.420956 0.922304 0.945289
Si Si6 0.825086 0.075389 0.846470
O O1 0.802838 0.750000 0.340807
O O2 0.750000 0.500000 0.306105
O O3 0.807389 0.509122 0.397588
O O4 0.886149 0.537760 0.307080
O O5 0.500000 0.750000 0.469568
O O6 0.572079 0.943602 0.416785
O O7 0.500000 0.000000 0.500000
O O8 0.670574 0.250000 0.553388
O O9 0.660950 0.000000 0.500000
O O10 0.500000 0.006955 0.248222
O O11 0.428837 0.250000 0.242720
O O12 0.372449 0.016075 0.202744
O O13 0.500000 0.967244 0.928673
O O14 0.416613 0.750000 0.955142
O O15 0.366824 0.971914 0.899766
O O16 0.397869 0.000000 0.000000
O O17 0.814341 0.250000 0.842827
O O18 0.750000 0.000000 0.845742
#
# Coordination Sequence:
#
# PCOD8280214 Si02
#       6
#    16   8  16  16  16  16
#     4  11  23  38  58  83 113 147 182 226 278 333
#     4   8  16  30  50  76 106 138 170 212 259 308
#     4  10  20  36  57  83 114 147 184 224 273 330
#     4   9  19  37  61  86 109 140 186 234 278 331
#     4   9  18  33  54  80 111 151 196 240 283 328
#     4  10  20  35  57  83 114 150 188 232 282 336
#
# _framework density 20.252901999999999
#
# number of rings (size 3 to 8) (size 9 to 14) (size 15 to 20)
#    0.000    2.364    0.000    2.182    1.273    4.364 
#    0.000    4.545    0.000    3.818    0.000    0.000 
#    0.000    0.000    0.000    0.000    0.000    0.000 
#
# Total GULP energy -545100.063462 kJ/mol
# GULP energy per Si atom -12388.637806 kJ/mol
# Density = 2.020681 g / cm^3
# Si number density = 20.252902 Si / 1000 Ang^3
#
#
#
# Elastic Constant Matrix: (Units=GPa)
#
#
# Indices 1 2 3 4 5 6 
#
# 1 168.0426 48.8734 73.6105 0.0000 0.0000 0.0000
# 2 48.8734 68.2670 46.3424 0.0000 0.0000 0.0000
# 3 73.6105 46.3424 134.9955 0.0000 0.0000 0.0000
# 4 0.0000 0.0000 0.0000 21.9664 0.0000 0.0000
# 5 0.0000 0.0000 0.0000 0.0000 21.9475 0.0000
# 6 0.0000 0.0000 0.0000 0.0000 0.0000 32.4598
#
#
#
# Elastic Compliance Matrix: (Units=1/GPa)
#
#
# Indices 1 2 3 4 5 6 
#
# 1 0.008528 -0.003844 -0.003330 0.000000 0.000000 0.000000
# 2 -0.003844 0.020832 -0.005055 0.000000 0.000000 0.000000
# 3 -0.003330 -0.005055 0.010959 0.000000 0.000000 0.000000
# 4 0.000000 0.000000 0.000000 0.045524 0.000000 0.000000
# 5 0.000000 0.000000 0.000000 0.000000 0.045563 0.000000
# 6 0.000000 0.000000 0.000000 0.000000 0.000000 0.030807
#
#
# Mechanical properties :
#
#
# Convention : Reuss Voigt Hill
#
# Bulk Modulus (GPa) = 63.05465 78.77306 70.91386
# Shear Modulus (GPa) = 26.04705 28.77331 27.41018
#
# Velocity S-wave (km/s) = 3.59010 3.77331 3.68284
# Velocity P-wave (km/s) = 6.95603 7.61334 7.29209
#
# Compressibility (1/GPa) = 0.01585926
#
# Stress axis : x y z
#
# Youngs Moduli (GPa) = 117.26330 48.00229 91.24924
#
# Poissons Ratio (x) = 0.18454 0.30389
# Poissons Ratio (y) = 0.45081 0.46128
# Poissons Ratio (z) = 0.39052 0.24266
#
# Static dielectric constant tensor:
#      x y z
#    x 4.297530 0.000000 0.000000 
#    y 0.000000 3.456280 0.000000 
#    z 0.000000 0.000000 3.573240 
# 
# 
# High freq. dielectric constant tensor:
#      x y z
#    x 1.815960 0.000000 0.000000 
#    y 0.000000 1.768250 0.000000 
#    z 0.000000 0.000000 1.782880 
# 
# From -- ./inp_files/42345.got.cif
#   From: 2010.03.12/outbox.cif.g09.slc.cpg/sg67_22_cif.got.tgz:42345.got - 2010.04.10 22:41:39.
