data_PCOD8280476
_publ_section_title
;
Structure prediction by ZEFSAII (Michael W. Deem and Ramdas Pophale) SiO2 
 PCOD8280476
Probable space group: C M M A
;
_chemical_formula_sum "Si O2"
_cell_formula_units_Z 96
_cell_length_a 15.854728
_cell_length_b 15.038305
_cell_length_c 18.958380
_cell_angle_alpha 90.000000
_cell_angle_beta 90.000000
_cell_angle_gamma 90.000000
_cell_volume 4520.213089
_symmetry_space_group_name_H-M "C M M A"
_symmetry_group_IT_number 67
_symmetry_cell_setting 'orthorhombic'
loop_
_space_group_symop_operation_xyz
x,y,z
-x,1/2-y,z
x,-y,-z
-x,1/2+y,-z
-x,-y,-z
x,1/2+y,-z
-x,y,z
x,1/2-y,z
1/2+x,1/2+y,z
1/2-x,-y,z
1/2+x,1/2-y,-z
1/2-x,y,-z
1/2-x,1/2-y,-z
1/2+x,y,-z
1/2-x,1/2+y,z
1/2+x,-y,z
loop_
_atom_site_type_symbol
_atom_site_label
_atom_site_fract_x
_atom_site_fract_y
_atom_site_fract_z
Si Si1 0.906409 0.355573 0.670932
Si Si2 0.642060 0.850212 0.182620
Si Si3 0.838176 0.350012 0.819146
Si Si4 0.907563 0.855295 0.665969
Si Si5 0.251044 0.856182 0.579716
Si Si6 0.098032 0.995723 0.079953
O O1 0.903161 0.250000 0.668223
O O2 0.887579 0.386583 0.750725
O O3 0.835497 0.393654 0.617758
O O4 0.000000 0.390322 0.649268
O O5 0.611295 0.750000 0.165054
O O6 0.740465 0.850632 0.199612
O O7 0.598596 0.888624 0.253280
O O8 0.617789 0.910715 0.116654
O O9 0.867868 0.250000 0.838966
O O10 0.853246 0.414521 0.884388
O O11 0.897577 0.750000 0.666343
O O12 0.832689 0.895321 0.617923
O O13 0.000000 0.883686 0.636327
O O14 0.250557 0.750000 0.581613
O O15 0.250000 0.891923 0.500000
O O16 0.000000 0.973781 0.083073
O O17 0.130813 0.000000 0.000000
#
# Coordination Sequence:
#
# PCOD8280476 Si02
#       6
#    16  16  16  16  16  16
#     4   9  16  28  48  74 106 147 194 238 283 340
#     4  10  20  37  61  85 113 152 198 245 291 344
#     4  10  20  37  61  85 113 152 198 245 291 344
#     4   9  16  28  48  74 106 147 194 238 283 340
#     4   9  16  26  42  71 111 148 187 237 290 342
#     4  11  25  41  57  85 121 152 191 241 293 355
#
# _framework density 21.237938
#
# number of rings (size 3 to 8) (size 9 to 14) (size 15 to 20)
#    0.000    2.333    1.667    1.500    0.000    4.667 
#    0.000    6.667    0.000    0.000    0.000    2.333 
#    0.000    4.000    0.000    0.333    0.000    0.000 
#
# Total GULP energy -595122.492966 kJ/mol
# GULP energy per Si atom -12398.385270 kJ/mol
# Density = 2.118960 g / cm^3
# Si number density = 21.237938 Si / 1000 Ang^3
#
#
#
# Elastic Constant Matrix: (Units=GPa)
#
#
# Indices 1 2 3 4 5 6 
#
# 1 143.0000 9.7657 69.6760 0.0000 0.0000 0.0000
# 2 9.7657 62.7034 38.3606 0.0000 0.0000 0.0000
# 3 69.6760 38.3606 165.6448 0.0000 0.0000 0.0000
# 4 0.0000 0.0000 0.0000 -53.4789 0.0000 0.0000
# 5 0.0000 0.0000 0.0000 0.0000 30.9575 0.0000
# 6 0.0000 0.0000 0.0000 0.0000 0.0000 13.4626
#
#
#
# Elastic Compliance Matrix: (Units=1/GPa)
#
#
# Indices 1 2 3 4 5 6 
#
# 1 0.008854 0.001048 -0.003967 0.000000 0.000000 0.000000
# 2 0.001048 0.018705 -0.004772 0.000000 0.000000 0.000000
# 3 -0.003967 -0.004772 0.008811 0.000000 0.000000 0.000000
# 4 0.000000 0.000000 0.000000 -0.018699 0.000000 0.000000
# 5 0.000000 0.000000 0.000000 0.000000 0.032302 0.000000
# 6 0.000000 0.000000 0.000000 0.000000 0.000000 0.074280
#
#
# Mechanical properties :
#
#
# Convention : Reuss Voigt Hill
#
# Bulk Modulus (GPa) = 47.64937 67.43921 57.54429
# Shear Modulus (GPa) = 34.09894 15.09130 24.59512
#
# Velocity S-wave (km/s) = 4.01130 2.66857 3.40674
# Velocity P-wave (km/s) = 6.62863 6.42791 6.52904
#
# Compressibility (1/GPa) = 0.02098664
#
# Stress axis : x y z
#
# Youngs Moduli (GPa) = 112.93788 53.46286 113.49480
#
# Poissons Ratio (x) = -0.05603 0.45025
# Poissons Ratio (y) = -0.11836 0.54165
# Poissons Ratio (z) = 0.44804 0.25515
#
# Static dielectric constant tensor:
#      x y z
#    x 4.085740 0.000000 0.000000 
#    y 0.000000 3.462190 0.000000 
#    z 0.000000 0.000000 3.823090 
# 
# 
# High freq. dielectric constant tensor:
#      x y z
#    x 1.847880 0.000000 0.000000 
#    y 0.000000 1.805820 0.000000 
#    z 0.000000 0.000000 1.820190 
# 
# From -- ./inp_files/38424.got.cif
#   From: 2010.03.12/outbox.cif.g09.slc.cpg/sg67_20_cif.got.tgz:38424.got - 2010.04.10 22:41:39.
