data_PCOD8280813
_publ_section_title
;
Structure prediction by ZEFSAII (Michael W. Deem and Ramdas Pophale) SiO2 
 PCOD8280813
Probable space group: C M M A
;
_chemical_formula_sum "Si O2"
_cell_formula_units_Z 80
_cell_length_a 18.328959
_cell_length_b 9.029976
_cell_length_c 25.972513
_cell_angle_alpha 90.000000
_cell_angle_beta 90.000000
_cell_angle_gamma 90.000000
_cell_volume 4298.712182
_symmetry_space_group_name_H-M "C M M A"
_symmetry_group_IT_number 67
_symmetry_cell_setting 'orthorhombic'
loop_
_space_group_symop_operation_xyz
x,y,z
-x,1/2-y,z
x,-y,-z
-x,1/2+y,-z
-x,-y,-z
x,1/2+y,-z
-x,y,z
x,1/2-y,z
1/2+x,1/2+y,z
1/2-x,-y,z
1/2+x,1/2-y,-z
1/2-x,y,-z
1/2-x,1/2-y,-z
1/2+x,y,-z
1/2-x,1/2+y,z
1/2+x,-y,z
loop_
_atom_site_type_symbol
_atom_site_label
_atom_site_fract_x
_atom_site_fract_y
_atom_site_fract_z
Si Si1 0.328272 0.423492 0.047947
Si Si2 0.673573 0.578544 0.839143
Si Si3 0.584918 0.077735 0.259449
Si Si4 0.083128 0.423994 0.448214
Si Si5 0.328036 0.074585 0.651238
O O1 0.321626 0.250000 0.036815
O O2 0.250000 0.500000 0.049438
O O3 0.362474 0.455094 0.104505
O O4 0.372529 0.500000 0.000000
O O5 0.692371 0.750000 0.835015
O O6 0.750000 0.500000 0.829180
O O7 0.615423 0.530391 0.796312
O O8 0.500000 0.041554 0.259805
O O9 0.600486 0.250000 0.271205
O O10 0.622709 0.976750 0.301710
O O11 0.112795 0.500000 0.500000
O O12 0.088152 0.250000 0.456205
O O13 0.133236 0.477529 0.401300
O O14 0.000000 0.473800 0.436794
O O15 0.319033 0.250000 0.653570
O O16 0.250000 0.000000 0.655032
#
# Coordination Sequence:
#
# PCOD8280813 Si02
#       5
#    16  16  16  16  16
#     4   9  15  24  40  64  94 125 159 200 247 297
#     4   9  18  31  48  72 100 130 165 208 255 302
#     4  10  21  37  56  77 102 135 175 215 259 314
#     4   9  19  36  57  80 107 140 176 213 254 302
#     4  11  23  38  56  80 110 140 174 217 263 308
#
# _framework density 18.610223999999999
#
# number of rings (size 3 to 8) (size 9 to 14) (size 15 to 20)
#    0.000    2.400    0.000    3.000    0.000    6.400 
#    0.000    4.000    0.000    0.600    0.000    0.000 
#    0.000    0.000    0.000    0.000    0.000    5.400 
#
# Total GULP energy -495831.281186 kJ/mol
# GULP energy per Si atom -12395.782030 kJ/mol
# Density = 1.856787 g / cm^3
# Si number density = 18.610224 Si / 1000 Ang^3
#
#
#
# Elastic Constant Matrix: (Units=GPa)
#
#
# Indices 1 2 3 4 5 6 
#
# 1 95.2724 38.0828 72.2248 0.0000 0.0000 0.0000
# 2 38.0828 67.9818 64.1185 0.0000 0.0000 0.0000
# 3 72.2248 64.1185 187.3271 0.0000 0.0000 0.0000
# 4 0.0000 0.0000 0.0000 73.8556 0.0000 0.0000
# 5 0.0000 0.0000 0.0000 0.0000 4.6242 0.0000
# 6 0.0000 0.0000 0.0000 0.0000 0.0000 13.6641
#
#
#
# Elastic Compliance Matrix: (Units=1/GPa)
#
#
# Indices 1 2 3 4 5 6 
#
# 1 0.015736 -0.004567 -0.004504 0.000000 0.000000 0.000000
# 2 -0.004567 0.023048 -0.006128 0.000000 0.000000 0.000000
# 3 -0.004504 -0.006128 0.009172 0.000000 0.000000 0.000000
# 4 0.000000 0.000000 0.000000 0.013540 0.000000 0.000000
# 5 0.000000 0.000000 0.000000 0.000000 0.216252 0.000000
# 6 0.000000 0.000000 0.000000 0.000000 0.000000 0.073184
#
#
# Mechanical properties :
#
#
# Convention : Reuss Voigt Hill
#
# Bulk Modulus (GPa) = 56.95346 77.71485 67.33416
# Shear Modulus (GPa) = 12.91375 30.17246 21.54311
#
# Velocity S-wave (km/s) = 2.63707 4.03089 3.40604
# Velocity P-wave (km/s) = 6.31996 7.96956 7.19221
#
# Compressibility (1/GPa) = 0.01755819
#
# Stress axis : x y z
#
# Youngs Moduli (GPa) = 63.54756 43.38738 109.02483
#
# Poissons Ratio (x) = 0.19817 0.49103
# Poissons Ratio (y) = 0.29025 0.66810
# Poissons Ratio (z) = 0.28621 0.26588
#
# Static dielectric constant tensor:
#      x y z
#    x 3.194180 0.000000 0.000000 
#    y 0.000000 3.427830 0.000000 
#    z 0.000000 0.000000 4.340640 
# 
# 
# High freq. dielectric constant tensor:
#      x y z
#    x 1.689930 0.000000 0.000000 
#    y 0.000000 1.723730 0.000000 
#    z 0.000000 0.000000 1.749150 
# 
# From -- ./inp_files/43268.got.cif
#   From: 2010.03.12/outbox.cif.g09.slc.cpg/sg67_22_cif.got.tgz:43268.got - 2010.04.10 22:41:39.
