data_PCOD8280946
_publ_section_title
;
Structure prediction by ZEFSAII (Michael W. Deem and Ramdas Pophale) SiO2 
 PCOD8280946
Probable space group: C M M A
;
_chemical_formula_sum "Si O2"
_cell_formula_units_Z 80
_cell_length_a 18.703852
_cell_length_b 8.682325
_cell_length_c 25.639822
_cell_angle_alpha 90.000000
_cell_angle_beta 90.000000
_cell_angle_gamma 90.000000
_cell_volume 4163.725609
_symmetry_space_group_name_H-M "C M M A"
_symmetry_group_IT_number 67
_symmetry_cell_setting 'orthorhombic'
loop_
_space_group_symop_operation_xyz
x,y,z
-x,1/2-y,z
x,-y,-z
-x,1/2+y,-z
-x,-y,-z
x,1/2+y,-z
-x,y,z
x,1/2-y,z
1/2+x,1/2+y,z
1/2-x,-y,z
1/2+x,1/2-y,-z
1/2-x,y,-z
1/2-x,1/2-y,-z
1/2+x,y,-z
1/2-x,1/2+y,z
1/2+x,-y,z
loop_
_atom_site_type_symbol
_atom_site_label
_atom_site_fract_x
_atom_site_fract_y
_atom_site_fract_z
Si Si1 0.671383 0.567369 0.347836
Si Si2 0.415645 0.074486 0.855358
Si Si3 0.326209 0.068445 0.054968
Si Si4 0.917015 0.069300 0.746289
Si Si5 0.581027 0.432041 0.554003
O O1 0.674993 0.750000 0.346468
O O2 0.750000 0.500000 0.348046
O O3 0.629014 0.509787 0.297970
O O4 0.630421 0.506904 0.399231
O O5 0.500000 0.064953 0.861264
O O6 0.388245 0.250000 0.858443
O O7 0.383363 0.974045 0.901523
O O8 0.391016 0.001913 0.800766
O O9 0.319541 0.250000 0.049406
O O10 0.250000 0.000000 0.071396
O O11 0.352430 0.000000 0.000000
O O12 0.902116 0.250000 0.747182
O O13 0.000000 0.031641 0.735964
O O14 0.611179 0.500000 0.500000
O O15 0.500000 0.490432 0.563878
O O16 0.583464 0.250000 0.550431
#
# Coordination Sequence:
#
# PCOD8280946 Si02
#       5
#    16  16  16  16  16
#     4  11  23  38  56  81 114 149 187 230 278 330
#     4  10  21  38  60  86 115 147 185 230 280 331
#     4  11  22  38  59  83 114 150 190 232 278 333
#     4  10  21  38  60  85 112 144 184 229 278 333
#     4   9  19  36  58  82 108 142 184 228 275 329
#
# _framework density 19.213563000000001
#
# number of rings (size 3 to 8) (size 9 to 14) (size 15 to 20)
#    0.000    1.800    0.000    4.800    0.000    6.400 
#    0.000    8.000    0.000    0.000    0.000    0.000 
#    0.000    0.000    0.000    0.000    0.000    0.000 
#
# Total GULP energy -496182.736796 kJ/mol
# GULP energy per Si atom -12404.568420 kJ/mol
# Density = 1.916983 g / cm^3
# Si number density = 19.213563 Si / 1000 Ang^3
#
#
#
# Elastic Constant Matrix: (Units=GPa)
#
#
# Indices 1 2 3 4 5 6 
#
# 1 71.6531 41.8235 72.4624 0.0000 0.0000 0.0000
# 2 41.8235 112.3832 58.8622 0.0000 0.0000 0.0000
# 3 72.4624 58.8622 168.4450 0.0000 0.0000 0.0000
# 4 0.0000 0.0000 0.0000 38.9229 0.0000 0.0000
# 5 0.0000 0.0000 0.0000 0.0000 -164.0544 0.0000
# 6 0.0000 0.0000 0.0000 0.0000 0.0000 47.2320
#
#
#
# Elastic Compliance Matrix: (Units=1/GPa)
#
#
# Indices 1 2 3 4 5 6 
#
# 1 0.026656 -0.004791 -0.009793 0.000000 0.000000 0.000000
# 2 -0.004791 0.011753 -0.002046 0.000000 0.000000 0.000000
# 3 -0.009793 -0.002046 0.010864 0.000000 0.000000 0.000000
# 4 0.000000 0.000000 0.000000 0.025692 0.000000 0.000000
# 5 0.000000 0.000000 0.000000 0.000000 -0.006096 0.000000
# 6 0.000000 0.000000 0.000000 0.000000 0.000000 0.021172
#
#
# Mechanical properties :
#
#
# Convention : Reuss Voigt Hill
#
# Bulk Modulus (GPa) = 62.44690 77.64197 70.04444
# Shear Modulus (GPa) = 38.86860 -3.62436 17.62212
#
# Velocity S-wave (km/s) = 4.50263 -1.37494 3.03177
# Velocity P-wave (km/s) = 7.72034 6.16256 6.98501
#
# Compressibility (1/GPa) = 0.01601360
#
# Stress axis : x y z
#
# Youngs Moduli (GPa) = 37.51501 85.08713 92.04446
#
# Poissons Ratio (x) = 0.40765 0.90138
# Poissons Ratio (y) = 0.17973 0.18832
# Poissons Ratio (z) = 0.36738 0.17408
#
# Static dielectric constant tensor:
#      x y z
#    x 3.486390 0.000000 0.000000 
#    y 0.000000 3.633160 0.000000 
#    z 0.000000 0.000000 3.687490 
# 
# 
# High freq. dielectric constant tensor:
#      x y z
#    x 1.741680 0.000000 0.000000 
#    y 0.000000 1.760460 0.000000 
#    z 0.000000 0.000000 1.762770 
# 
# From -- ./inp_files/43249.got.cif
#   From: 2010.03.12/outbox.cif.g09.slc.cpg/sg67_22_cif.got.tgz:43249.got - 2010.04.10 22:41:39.
