data_PCOD8280157
_publ_section_title
;
Structure prediction by ZEFSAII (Michael W. Deem and Ramdas Pophale) SiO2 
 PCOD8280157
Probable space group: C M M A
;
_chemical_formula_sum "Si O2"
_cell_formula_units_Z 104
_cell_length_a 8.964063
_cell_length_b 26.611998
_cell_length_c 22.535956
_cell_angle_alpha 90.000000
_cell_angle_beta 90.000000
_cell_angle_gamma 90.000000
_cell_volume 5375.988961
_symmetry_space_group_name_H-M "C M M A"
_symmetry_group_IT_number 67
_symmetry_cell_setting 'orthorhombic'
loop_
_space_group_symop_operation_xyz
x,y,z
-x,1/2-y,z
x,-y,-z
-x,1/2+y,-z
-x,-y,-z
x,1/2+y,-z
-x,y,z
x,1/2-y,z
1/2+x,1/2+y,z
1/2-x,-y,z
1/2+x,1/2-y,-z
1/2-x,y,-z
1/2-x,1/2-y,-z
1/2+x,y,-z
1/2-x,1/2+y,z
1/2+x,-y,z
loop_
_atom_site_type_symbol
_atom_site_label
_atom_site_fract_x
_atom_site_fract_y
_atom_site_fract_z
Si Si1 0.174749 0.893996 0.560128
Si Si2 0.174563 0.750000 0.937265
Si Si3 0.671770 0.692798 0.622776
Si Si4 0.822336 0.948267 0.936352
Si Si5 0.173599 0.860796 0.257174
Si Si6 0.674798 0.152150 0.864153
Si Si7 0.175398 0.051915 0.321062
O O1 0.250000 0.913673 0.500000
O O2 0.228641 0.838312 0.576832
O O3 0.223414 0.931097 0.612972
O O4 0.000000 0.893126 0.550280
O O5 0.224534 0.699133 0.904207
O O6 0.000000 0.750000 0.947187
O O7 0.250000 0.750000 0.000000
O O8 0.500000 0.681779 0.607635
O O9 0.715810 0.750000 0.612529
O O10 0.705199 0.679655 0.691224
O O11 0.782812 0.901107 0.894318
O O12 0.000000 0.955033 0.942889
O O13 0.750000 0.000000 0.910399
O O14 0.750000 0.936854 0.000000
O O15 0.233046 0.839352 0.195688
O O16 0.265136 0.910754 0.271332
O O17 0.000000 0.873904 0.252296
O O18 0.500000 0.154164 0.849732
O O19 0.000000 0.047691 0.314946
O O20 0.250000 0.000000 0.306166
#
# Coordination Sequence:
#
# PCOD8280157 Si02
#       7
#    16   8  16  16  16  16  16
#     4  10  21  36  55  81 111 144 184 229 276 332
#     4  10  22  40  60  84 116 154 193 238 293 346
#     4   9  19  36  56  78 107 142 181 228 278 329
#     4  10  20  35  56  80 108 141 180 225 275 330
#     4  10  21  36  57  83 111 144 184 230 278 328
#     4  10  22  38  56  82 115 150 188 233 284 342
#     4  10  21  38  59  82 112 148 187 229 280 336
#
# _framework density 19.345278
#
# number of rings (size 3 to 8) (size 9 to 14) (size 15 to 20)
#    0.000    2.154    0.000    2.769    1.077    5.846 
#    0.000    3.077    0.000    0.000    0.000    0.000 
#    0.000    0.000    0.000    0.000    0.000    0.000 
#
# Total GULP energy -644916.177484 kJ/mol
# GULP energy per Si atom -12402.234182 kJ/mol
# Density = 1.930125 g / cm^3
# Si number density = 19.345278 Si / 1000 Ang^3
#
#
#
# Elastic Constant Matrix: (Units=GPa)
#
#
# Indices 1 2 3 4 5 6 
#
# 1 57.7680 21.4827 28.8575 0.0000 0.0000 0.0000
# 2 21.4827 85.6692 15.8535 0.0000 0.0000 0.0000
# 3 28.8575 15.8535 89.3413 0.0000 0.0000 0.0000
# 4 0.0000 0.0000 0.0000 15.9709 0.0000 0.0000
# 5 0.0000 0.0000 0.0000 0.0000 39.3003 0.0000
# 6 0.0000 0.0000 0.0000 0.0000 0.0000 30.0138
#
#
#
# Elastic Compliance Matrix: (Units=1/GPa)
#
#
# Indices 1 2 3 4 5 6 
#
# 1 0.022116 -0.004367 -0.006369 0.000000 0.000000 0.000000
# 2 -0.004367 0.012932 -0.000884 0.000000 0.000000 0.000000
# 3 -0.006369 -0.000884 0.013407 0.000000 0.000000 0.000000
# 4 0.000000 0.000000 0.000000 0.062614 0.000000 0.000000
# 5 0.000000 0.000000 0.000000 0.000000 0.025445 0.000000
# 6 0.000000 0.000000 0.000000 0.000000 0.000000 0.033318
#
#
# Mechanical properties :
#
#
# Convention : Reuss Voigt Hill
#
# Bulk Modulus (GPa) = 39.65938 40.57397 40.11668
# Shear Modulus (GPa) = 24.81681 28.16266 26.48973
#
# Velocity S-wave (km/s) = 3.58555 3.81962 3.70444
# Velocity P-wave (km/s) = 6.13897 6.36174 6.25135
#
# Compressibility (1/GPa) = 0.02521472
#
# Stress axis : x y z
#
# Youngs Moduli (GPa) = 45.21588 77.33007 74.58805
#
# Poissons Ratio (x) = 0.33773 0.47502
# Poissons Ratio (y) = 0.19748 0.06594
# Poissons Ratio (z) = 0.28796 0.06836
#
# Static dielectric constant tensor:
#      x y z
#    x 3.544020 0.000000 0.000000 
#    y 0.000000 3.638720 0.000000 
#    z 0.000000 0.000000 3.475370 
# 
# 
# High freq. dielectric constant tensor:
#      x y z
#    x 1.758710 0.000000 0.000000 
#    y 0.000000 1.757700 0.000000 
#    z 0.000000 0.000000 1.753200 
# 
# From -- ./inp_files/40984.got.cif
#   From: 2010.03.12/outbox.cif.g09.slc.cpg/sg67_21_cif.got.tgz:40984.got - 2010.04.10 22:41:39.
