data_PCOD8280849
_publ_section_title
;
Structure prediction by ZEFSAII (Michael W. Deem and Ramdas Pophale) SiO2 
 PCOD8280849
Probable space group: C M M A
;
_chemical_formula_sum "Si O2"
_cell_formula_units_Z 96
_cell_length_a 16.811603
_cell_length_b 23.595805
_cell_length_c 11.237263
_cell_angle_alpha 90.000000
_cell_angle_beta 90.000000
_cell_angle_gamma 90.000000
_cell_volume 4457.634639
_symmetry_space_group_name_H-M "C M M A"
_symmetry_group_IT_number 67
_symmetry_cell_setting 'orthorhombic'
loop_
_space_group_symop_operation_xyz
x,y,z
-x,1/2-y,z
x,-y,-z
-x,1/2+y,-z
-x,-y,-z
x,1/2+y,-z
-x,y,z
x,1/2-y,z
1/2+x,1/2+y,z
1/2-x,-y,z
1/2+x,1/2-y,-z
1/2-x,y,-z
1/2-x,1/2-y,-z
1/2+x,y,-z
1/2-x,1/2+y,z
1/2+x,-y,z
loop_
_atom_site_type_symbol
_atom_site_label
_atom_site_fract_x
_atom_site_fract_y
_atom_site_fract_z
Si Si1 0.092836 0.089812 0.306933
Si Si2 0.663602 0.624141 0.939393
Si Si3 0.090277 0.314203 0.729829
Si Si4 0.592299 0.187168 0.850227
Si Si5 0.908850 0.915249 0.429016
Si Si6 0.839840 0.981444 0.214227
O O1 0.129871 0.148523 0.255504
O O2 0.127545 0.077408 0.438471
O O3 0.000000 0.098574 0.320587
O O4 0.109276 0.039265 0.212672
O O5 0.656523 0.663222 0.822251
O O6 0.640807 0.559815 0.898085
O O7 0.750000 0.626967 0.000000
O O8 0.600938 0.650787 0.029859
O O9 0.110762 0.250000 0.697541
O O10 0.095556 0.349326 0.607310
O O11 0.000000 0.320075 0.782346
O O12 0.500000 0.196014 0.827652
O O13 0.632960 0.250000 0.856159
O O14 0.855345 0.951128 0.339478
O O15 0.000000 0.937794 0.421713
O O16 0.750000 0.000000 0.205792
#
# Coordination Sequence:
#
# PCOD8280849 Si02
#       6
#    16  16  16  16  16  16
#     4  10  21  37  58  84 114 147 182 223 273 330
#     4  11  23  38  56  79 110 146 186 233 280 325
#     4   9  18  34  58  86 113 144 184 227 270 321
#     4  10  22  39  58  82 113 148 184 224 274 330
#     4   9  19  36  58  85 115 146 181 223 273 327
#     4  11  23  38  57  81 110 144 185 233 280 326
#
# _framework density 21.536085
#
# number of rings (size 3 to 8) (size 9 to 14) (size 15 to 20)
#    0.000    2.000    0.000    3.000    0.000   10.333 
#    0.000    5.000    0.000    0.000    0.000    7.000 
#    0.000    0.000    0.000    0.000    0.000    0.000 
#
# Total GULP energy -594814.404358 kJ/mol
# GULP energy per Si atom -12391.966757 kJ/mol
# Density = 2.148707 g / cm^3
# Si number density = 21.536085 Si / 1000 Ang^3
#
#
#
# Elastic Constant Matrix: (Units=GPa)
#
#
# Indices 1 2 3 4 5 6 
#
# 1 18.4575 23.8782 15.2224 0.0000 0.0000 0.0000
# 2 23.8782 177.0596 56.7792 0.0000 0.0000 0.0000
# 3 15.2224 56.7792 75.7930 0.0000 0.0000 0.0000
# 4 0.0000 0.0000 0.0000 29.7104 0.0000 0.0000
# 5 0.0000 0.0000 0.0000 0.0000 32.2265 0.0000
# 6 0.0000 0.0000 0.0000 0.0000 0.0000 11.2118
#
#
#
# Elastic Compliance Matrix: (Units=1/GPa)
#
#
# Indices 1 2 3 4 5 6 
#
# 1 0.070208 -0.006510 -0.009223 0.000000 0.000000 0.000000
# 2 -0.006510 0.008037 -0.004713 0.000000 0.000000 0.000000
# 3 -0.009223 -0.004713 0.018577 0.000000 0.000000 0.000000
# 4 0.000000 0.000000 0.000000 0.033658 0.000000 0.000000
# 5 0.000000 0.000000 0.000000 0.000000 0.031030 0.000000
# 6 0.000000 0.000000 0.000000 0.000000 0.000000 0.089192
#
#
# Mechanical properties :
#
#
# Convention : Reuss Voigt Hill
#
# Bulk Modulus (GPa) = 17.88018 51.45221 34.66620
# Shear Modulus (GPa) = 16.11654 26.32509 21.22081
#
# Velocity S-wave (km/s) = 2.73857 3.50004 3.14245
# Velocity P-wave (km/s) = 4.28020 6.34639 5.41280
#
# Compressibility (1/GPa) = 0.05592783
#
# Stress axis : x y z
#
# Youngs Moduli (GPa) = 14.24338 124.41949 53.82908
#
# Poissons Ratio (x) = 0.81003 0.49649
# Poissons Ratio (y) = 0.09273 0.25372
# Poissons Ratio (z) = 0.13137 0.58645
#
# Static dielectric constant tensor:
#      x y z
#    x 3.623730 0.000000 0.000000 
#    y 0.000000 4.232370 0.000000 
#    z 0.000000 0.000000 4.065810 
# 
# 
# High freq. dielectric constant tensor:
#      x y z
#    x 1.814190 0.000000 0.000000 
#    y 0.000000 1.864200 0.000000 
#    z 0.000000 0.000000 1.840580 
# 
# From -- ./inp_files/19632.got.cif
#   From: 2010.03.12/outbox.cif.g09.slc.cpg/sg67_10_cif.got.tgz:19632.got - 2010.04.10 22:41:39.
