data_PCOD8280670
_publ_section_title
;
Structure prediction by ZEFSAII (Michael W. Deem and Ramdas Pophale) SiO2 
 PCOD8280670
Probable space group: C M M A
;
_chemical_formula_sum "Si O2"
_cell_formula_units_Z 72
_cell_length_a 9.573268
_cell_length_b 21.983252
_cell_length_c 18.482295
_cell_angle_alpha 90.000000
_cell_angle_beta 90.000000
_cell_angle_gamma 90.000000
_cell_volume 3889.627869
_symmetry_space_group_name_H-M "C M M A"
_symmetry_group_IT_number 67
_symmetry_cell_setting 'orthorhombic'
loop_
_space_group_symop_operation_xyz
x,y,z
-x,1/2-y,z
x,-y,-z
-x,1/2+y,-z
-x,-y,-z
x,1/2+y,-z
-x,y,z
x,1/2-y,z
1/2+x,1/2+y,z
1/2-x,-y,z
1/2+x,1/2-y,-z
1/2-x,y,-z
1/2-x,1/2-y,-z
1/2+x,y,-z
1/2-x,1/2+y,z
1/2+x,-y,z
loop_
_atom_site_type_symbol
_atom_site_label
_atom_site_fract_x
_atom_site_fract_y
_atom_site_fract_z
Si Si1 0.751648 0.871818 0.357036
Si Si2 0.000000 0.916917 0.563709
Si Si3 0.159518 0.250000 0.573524
Si Si4 0.000000 0.950881 0.398040
Si Si5 0.334978 0.437147 0.937076
Si Si6 0.159526 0.060618 0.223145
O O1 0.636087 0.877884 0.419435
O O2 0.816629 0.806218 0.372039
O O3 0.688970 0.882573 0.277207
O O4 0.863061 0.925318 0.361670
O O5 0.000000 0.933392 0.481163
O O6 0.000000 0.976909 0.613847
O O7 0.250000 0.250000 0.500000
O O8 0.000000 0.250000 0.546685
O O9 0.500000 0.444430 0.956830
O O10 0.250000 0.500000 0.933913
O O11 0.317464 0.409666 0.856615
O O12 0.250000 0.398963 0.000000
O O13 0.000000 0.038958 0.231641
O O14 0.250000 0.000000 0.237448
#
# Coordination Sequence:
#
# PCOD8280670 Si02
#       6
#    16   8   8   8  16  16
#     4  12  24  39  58  82 112 144 192 235 282 336
#     4  11  22  37  59  83 110 143 179 224 293 340
#     4  12  28  46  64  80 105 148 195 246 291 338
#     4  11  22  37  57  83 112 143 177 232 281 348
#     4   9  16  28  46  75 112 150 188 218 265 332
#     4  10  21  35  55  83 117 153 186 231 285 338
#
# _framework density 18.510767000000001
#
# number of rings (size 3 to 8) (size 9 to 14) (size 15 to 20)
#    0.000    1.333    2.222    5.333    3.111    2.667 
#    0.000    0.000    0.000    0.000    0.000    0.778 
#    0.000    0.000    0.000    0.000    0.000    0.000 
#
# Total GULP energy -446055.952076 kJ/mol
# GULP energy per Si atom -12390.443113 kJ/mol
# Density = 1.846864 g / cm^3
# Si number density = 18.510767 Si / 1000 Ang^3
#
#
#
# Elastic Constant Matrix: (Units=GPa)
#
#
# Indices 1 2 3 4 5 6 
#
# 1 137.0481 24.5098 36.7166 0.0000 0.0000 0.0000
# 2 24.5098 62.5976 28.1588 0.0000 0.0000 0.0000
# 3 36.7166 28.1588 114.1169 0.0000 0.0000 0.0000
# 4 0.0000 0.0000 0.0000 15.2524 0.0000 0.0000
# 5 0.0000 0.0000 0.0000 0.0000 32.8758 0.0000
# 6 0.0000 0.0000 0.0000 0.0000 0.0000 22.4599
#
#
#
# Elastic Compliance Matrix: (Units=1/GPa)
#
#
# Indices 1 2 3 4 5 6 
#
# 1 0.008268 -0.002295 -0.002094 0.000000 0.000000 0.000000
# 2 -0.002295 0.018607 -0.003853 0.000000 0.000000 0.000000
# 3 -0.002094 -0.003853 0.010387 0.000000 0.000000 0.000000
# 4 0.000000 0.000000 0.000000 0.065564 0.000000 0.000000
# 5 0.000000 0.000000 0.000000 0.000000 0.030418 0.000000
# 6 0.000000 0.000000 0.000000 0.000000 0.000000 0.044524
#
#
# Mechanical properties :
#
#
# Convention : Reuss Voigt Hill
#
# Bulk Modulus (GPa) = 48.12722 54.72590 51.42656
# Shear Modulus (GPa) = 24.85365 29.07611 26.96488
#
# Velocity S-wave (km/s) = 3.66821 3.96759 3.82083
# Velocity P-wave (km/s) = 6.63302 7.11460 6.87803
#
# Compressibility (1/GPa) = 0.02077826
#
# Stress axis : x y z
#
# Youngs Moduli (GPa) = 120.94541 53.74333 96.27128
#
# Poissons Ratio (x) = 0.12337 0.20158
# Poissons Ratio (y) = 0.27763 0.37091
# Poissons Ratio (z) = 0.25324 0.20706
#
# Static dielectric constant tensor:
#      x y z
#    x 3.697000 0.000000 0.000000 
#    y 0.000000 3.049150 0.000000 
#    z 0.000000 0.000000 4.438360 
# 
# 
# High freq. dielectric constant tensor:
#      x y z
#    x 1.744100 0.000000 0.000000 
#    y 0.000000 1.658170 0.000000 
#    z 0.000000 0.000000 1.733530 
# 
# From -- ./inp_files/36789.got.cif
#   From: 2010.03.12/outbox.cif.g09.slc.cpg/sg67_19_cif.got.tgz:36789.got - 2010.04.10 22:41:39.
