data_PCOD8280108
_publ_section_title
;
Structure prediction by ZEFSAII (Michael W. Deem and Ramdas Pophale) SiO2 
 PCOD8280108
Probable space group: C M M A
;
_chemical_formula_sum "Si O2"
_cell_formula_units_Z 112
_cell_length_a 14.028898
_cell_length_b 23.773746
_cell_length_c 15.974421
_cell_angle_alpha 90.000000
_cell_angle_beta 90.000000
_cell_angle_gamma 90.000000
_cell_volume 5327.780229
_symmetry_space_group_name_H-M "C M M A"
_symmetry_group_IT_number 67
_symmetry_cell_setting 'orthorhombic'
loop_
_space_group_symop_operation_xyz
x,y,z
-x,1/2-y,z
x,-y,-z
-x,1/2+y,-z
-x,-y,-z
x,1/2+y,-z
-x,y,z
x,1/2-y,z
1/2+x,1/2+y,z
1/2-x,-y,z
1/2+x,1/2-y,-z
1/2-x,y,-z
1/2-x,1/2-y,-z
1/2+x,y,-z
1/2-x,1/2+y,z
1/2+x,-y,z
loop_
_atom_site_type_symbol
_atom_site_label
_atom_site_fract_x
_atom_site_fract_y
_atom_site_fract_z
Si Si1 0.605288 0.187011 0.695363
Si Si2 0.229795 0.589193 0.095586
Si Si3 0.890690 0.017256 0.154100
Si Si4 0.207941 0.686125 0.217727
Si Si5 0.608190 0.501256 0.346775
Si Si6 0.386449 0.394152 0.553119
Si Si7 0.113850 0.378295 0.633186
O O1 0.500000 0.165347 0.723769
O O2 0.597614 0.250000 0.660511
O O3 0.677629 0.184277 0.772750
O O4 0.649236 0.150624 0.620468
O O5 0.156470 0.538129 0.112691
O O6 0.335045 0.572676 0.126281
O O7 0.184631 0.643762 0.141780
O O8 0.250000 0.604156 0.000000
O O9 0.000000 0.018654 0.124090
O O10 0.882384 0.023634 0.253430
O O11 0.174255 0.750000 0.196643
O O12 0.157981 0.667684 0.304633
O O13 0.500000 0.491532 0.374461
O O14 0.652935 0.544677 0.415019
O O15 0.656018 0.439863 0.343995
O O16 0.500000 0.396701 0.551696
O O17 0.349827 0.372653 0.462882
O O18 0.000000 0.373403 0.641763
#
# Coordination Sequence:
#
# PCOD8280108 Si02
#       7
#    16  16  16  16  16  16  16
#     4   9  19  37  58  79 107 145 194 249 293 333
#     4  11  24  40  61  91 120 148 193 248 305 374
#     4  10  20  38  65  93 123 154 186 234 302 371
#     4  11  24  41  61  83 114 160 207 250 298 353
#     4   9  16  30  55  83 116 155 190 234 288 340
#     4   9  17  30  53  84 116 154 199 242 291 340
#     4  10  20  35  54  82 122 161 200 243 285 345
#
# _framework density 21.021889000000002
#
# number of rings (size 3 to 8) (size 9 to 14) (size 15 to 20)
#    0.000    2.143    1.429    2.143    0.000    6.286 
#    0.000    2.857    0.000    1.714    0.000    4.000 
#    0.000    0.000    0.000    0.000    0.000    0.000 
#
# Total GULP energy -693846.701528 kJ/mol
# GULP energy per Si atom -12390.119670 kJ/mol
# Density = 2.097404 g / cm^3
# Si number density = 21.021889 Si / 1000 Ang^3
#
#
#
# Elastic Constant Matrix: (Units=GPa)
#
#
# Indices 1 2 3 4 5 6 
#
# 1 68.8752 12.6620 12.1855 0.0000 0.0000 0.0000
# 2 12.6620 112.4499 27.1834 0.0000 0.0000 0.0000
# 3 12.1855 27.1834 69.5940 0.0000 0.0000 0.0000
# 4 0.0000 0.0000 0.0000 17.0245 0.0000 0.0000
# 5 0.0000 0.0000 0.0000 0.0000 22.4385 0.0000
# 6 0.0000 0.0000 0.0000 0.0000 0.0000 17.1100
#
#
#
# Elastic Compliance Matrix: (Units=1/GPa)
#
#
# Indices 1 2 3 4 5 6 
#
# 1 0.015122 -0.001174 -0.002189 0.000000 0.000000 0.000000
# 2 -0.001174 0.009911 -0.003666 0.000000 0.000000 0.000000
# 3 -0.002189 -0.003666 0.016184 0.000000 0.000000 0.000000
# 4 0.000000 0.000000 0.000000 0.058739 0.000000 0.000000
# 5 0.000000 0.000000 0.000000 0.000000 0.044566 0.000000
# 6 0.000000 0.000000 0.000000 0.000000 0.000000 0.058445
#
#
# Mechanical properties :
#
#
# Convention : Reuss Voigt Hill
#
# Bulk Modulus (GPa) = 36.81878 39.44232 38.13055
# Shear Modulus (GPa) = 22.11617 24.57382 23.34499
#
# Velocity S-wave (km/s) = 3.24706 3.42272 3.33605
# Velocity P-wave (km/s) = 5.62231 5.86713 5.74603
#
# Compressibility (1/GPa) = 0.02716005
#
# Stress axis : x y z
#
# Youngs Moduli (GPa) = 66.12841 100.89643 61.78837
#
# Poissons Ratio (x) = 0.11840 0.13528
# Poissons Ratio (y) = 0.07760 0.22651
# Poissons Ratio (z) = 0.14478 0.36987
#
# Static dielectric constant tensor:
#      x y z
#    x 3.859180 0.000000 0.000000 
#    y 0.000000 3.878250 0.000000 
#    z 0.000000 0.000000 3.704160 
# 
# 
# High freq. dielectric constant tensor:
#      x y z
#    x 1.823140 0.000000 0.000000 
#    y 0.000000 1.818320 0.000000 
#    z 0.000000 0.000000 1.806000 
# 
# From -- ./inp_files/27505.got.cif
#   From: 2010.03.12/outbox.cif.g09.slc.cpg/sg67_14_cif.got.tgz:27505.got - 2010.04.10 22:41:39.
