data_PCOD8280265
_publ_section_title
;
Structure prediction by ZEFSAII (Michael W. Deem and Ramdas Pophale) SiO2 
 PCOD8280265
Probable space group: C M M A
;
_chemical_formula_sum "Si O2"
_cell_formula_units_Z 64
_cell_length_a 9.449684
_cell_length_b 17.430902
_cell_length_c 18.607135
_cell_angle_alpha 90.000000
_cell_angle_beta 90.000000
_cell_angle_gamma 90.000000
_cell_volume 3064.902445
_symmetry_space_group_name_H-M "C M M A"
_symmetry_group_IT_number 67
_symmetry_cell_setting 'orthorhombic'
loop_
_space_group_symop_operation_xyz
x,y,z
-x,1/2-y,z
x,-y,-z
-x,1/2+y,-z
-x,-y,-z
x,1/2+y,-z
-x,y,z
x,1/2-y,z
1/2+x,1/2+y,z
1/2-x,-y,z
1/2+x,1/2-y,-z
1/2-x,y,-z
1/2-x,1/2-y,-z
1/2+x,y,-z
1/2-x,1/2+y,z
1/2+x,-y,z
loop_
_atom_site_type_symbol
_atom_site_label
_atom_site_fract_x
_atom_site_fract_y
_atom_site_fract_z
Si Si1 0.338920 0.922618 0.186346
Si Si2 0.000000 0.659391 0.390194
Si Si3 0.662065 0.340840 0.067979
Si Si4 0.000000 0.660041 0.548738
Si Si5 0.790322 0.159678 0.330541
O O1 0.500000 0.935606 0.157290
O O2 0.250133 0.863771 0.138068
O O3 0.354913 0.887286 0.265246
O O4 0.250000 0.000000 0.187710
O O5 0.129981 0.633511 0.341345
O O6 0.000000 0.750000 0.401073
O O7 0.000000 0.620566 0.469783
O O8 0.500000 0.373270 0.068595
O O9 0.655438 0.250000 0.064880
O O10 0.750000 0.373849 0.000000
O O11 0.863622 0.635881 0.594679
O O12 0.000000 0.750000 0.535962
O O13 0.810164 0.250000 0.315041
#
# Coordination Sequence:
#
# PCOD8280265 Si02
#       5
#    16   8  16   8  16
#     4  12  26  42  61  86 123 167 209 254 301 357
#     4   9  18  30  55  89 120 149 192 253 309 366
#     4  10  22  42  70 101 130 159 196 243 295 354
#     4   9  16  32  55  87 118 149 196 251 311 364
#     4  10  20  35  59  88 118 155 199 252 309 364
#
# _framework density 20.881577
#
# number of rings (size 3 to 8) (size 9 to 14) (size 15 to 20)
#    0.000    1.750    1.250    3.000    3.500    6.000 
#    0.000    2.500    0.000    4.500    0.000    0.000 
#    0.000    0.000    0.000    0.000    0.000    0.000 
#
# Total GULP energy -396669.337907 kJ/mol
# GULP energy per Si atom -12395.916810 kJ/mol
# Density = 2.083405 g / cm^3
# Si number density = 20.881577 Si / 1000 Ang^3
#
#
#
# Elastic Constant Matrix: (Units=GPa)
#
#
# Indices 1 2 3 4 5 6 
#
# 1 187.3607 24.1982 33.8774 0.0000 0.0000 0.0000
# 2 24.1982 19.4130 6.6363 0.0000 0.0000 0.0000
# 3 33.8774 6.6363 85.5369 0.0000 0.0000 0.0000
# 4 0.0000 0.0000 0.0000 1.8921 0.0000 0.0000
# 5 0.0000 0.0000 0.0000 0.0000 55.1596 0.0000
# 6 0.0000 0.0000 0.0000 0.0000 0.0000 21.0556
#
#
#
# Elastic Compliance Matrix: (Units=1/GPa)
#
#
# Indices 1 2 3 4 5 6 
#
# 1 0.006697 -0.007644 -0.002059 0.000000 0.000000 0.000000
# 2 -0.007644 0.061640 -0.001755 0.000000 0.000000 0.000000
# 3 -0.002059 -0.001755 0.012643 0.000000 0.000000 0.000000
# 4 0.000000 0.000000 0.000000 0.528509 0.000000 0.000000
# 5 0.000000 0.000000 0.000000 0.000000 0.018129 0.000000
# 6 0.000000 0.000000 0.000000 0.000000 0.000000 0.047493
#
#
# Mechanical properties :
#
#
# Convention : Reuss Voigt Hill
#
# Bulk Modulus (GPa) = 17.22258 46.85938 32.04098
# Shear Modulus (GPa) = 6.96980 30.79472 18.88226
#
# Velocity S-wave (km/s) = 1.82894 3.84439 3.01034
# Velocity P-wave (km/s) = 3.56731 6.49577 5.24026
#
# Compressibility (1/GPa) = 0.05806331
#
# Stress axis : x y z
#
# Youngs Moduli (GPa) = 149.32411 16.22336 79.09757
#
# Poissons Ratio (x) = 0.12400 0.16289
# Poissons Ratio (y) = 1.14137 0.13881
# Poissons Ratio (z) = 0.30750 0.02847
#
# Static dielectric constant tensor:
#      x y z
#    x 3.891520 0.000000 0.000000 
#    y 0.000000 3.315830 0.000000 
#    z 0.000000 0.000000 3.845290 
# 
# 
# High freq. dielectric constant tensor:
#      x y z
#    x 1.844210 0.000000 0.000000 
#    y 0.000000 1.771450 0.000000 
#    z 0.000000 0.000000 1.825340 
# 
# From -- ./inp_files/31751.got.cif
#   From: 2010.03.12/outbox.cif.g09.slc.cpg/sg67_16_cif.got.tgz:31751.got - 2010.04.10 22:41:39.
