data_PCOD8280956
_publ_section_title
;
Structure prediction by ZEFSAII (Michael W. Deem and Ramdas Pophale) SiO2 
 PCOD8280956
Probable space group: C M M A
;
_chemical_formula_sum "Si O2"
_cell_formula_units_Z 104
_cell_length_a 8.721462
_cell_length_b 20.942841
_cell_length_c 28.835592
_cell_angle_alpha 90.000000
_cell_angle_beta 90.000000
_cell_angle_gamma 90.000000
_cell_volume 5266.884085
_symmetry_space_group_name_H-M "C M M A"
_symmetry_group_IT_number 67
_symmetry_cell_setting 'orthorhombic'
loop_
_space_group_symop_operation_xyz
x,y,z
-x,1/2-y,z
x,-y,-z
-x,1/2+y,-z
-x,-y,-z
x,1/2+y,-z
-x,y,z
x,1/2-y,z
1/2+x,1/2+y,z
1/2-x,-y,z
1/2+x,1/2-y,-z
1/2-x,y,-z
1/2-x,1/2-y,-z
1/2+x,y,-z
1/2-x,1/2+y,z
1/2+x,-y,z
loop_
_atom_site_type_symbol
_atom_site_label
_atom_site_fract_x
_atom_site_fract_y
_atom_site_fract_z
Si Si1 0.682543 0.066961 0.386815
Si Si2 0.680510 0.432251 0.955259
Si Si3 0.819967 0.176927 0.449752
Si Si4 0.320924 0.750000 0.950235
Si Si5 0.817837 0.065834 0.285584
Si Si6 0.679947 0.358375 0.118863
Si Si7 0.177971 0.822552 0.784432
O O1 0.500000 0.063224 0.388220
O O2 0.739053 0.127732 0.415495
O O3 0.740560 0.077508 0.334896
O O4 0.750000 0.000000 0.406767
O O5 0.500000 0.429009 0.958126
O O6 0.750000 0.500000 0.964600
O O7 0.734797 0.419109 0.902190
O O8 0.750000 0.391365 0.000000
O O9 0.788564 0.250000 0.433351
O O10 0.750000 0.165414 0.500000
O O11 0.000000 0.162604 0.451231
O O12 0.500000 0.750000 0.955957
O O13 0.264352 0.808845 0.919849
O O14 0.250000 0.750000 0.000000
O O15 0.771782 0.126677 0.254502
O O16 0.000000 0.059342 0.291277
O O17 0.750000 0.000000 0.263705
O O18 0.500000 0.369029 0.120240
O O19 0.729707 0.337856 0.169578
O O20 0.215133 0.750000 0.767696
O O21 0.000000 0.830168 0.795815
#
# Coordination Sequence:
#
# PCOD8280956 Si02
#       7
#    16  16  16   8  16  16  16
#     4  11  22  38  61  89 122 160 206 257 310 367
#     4  11  22  38  58  82 110 144 181 224 272 327
#     4  10  21  38  60  88 125 167 210 258 311 367
#     4  10  22  36  54  80 108 142 180 220 269 324
#     4  10  21  39  62  88 118 154 199 249 306 365
#     4  11  22  38  57  82 112 145 183 226 277 334
#     4  10  22  40  61  85 115 153 196 243 296 352
#
# _framework density 19.746020000000001
#
# number of rings (size 3 to 8) (size 9 to 14) (size 15 to 20)
#    0.000    1.538    0.769    6.000    0.000    6.154 
#    0.000    4.615    0.000    0.000    0.000    0.000 
#    0.000    0.000    0.000    0.000    0.000    0.000 
#
# Total GULP energy -644411.814008 kJ/mol
# GULP energy per Si atom -12392.534885 kJ/mol
# Density = 1.970108 g / cm^3
# Si number density = 19.746020 Si / 1000 Ang^3
#
#
#
# Elastic Constant Matrix: (Units=GPa)
#
#
# Indices 1 2 3 4 5 6 
#
# 1 134.3413 69.5980 66.5372 0.0000 0.0000 0.0000
# 2 69.5980 135.1405 78.6211 0.0000 0.0000 0.0000
# 3 66.5372 78.6211 104.7805 0.0000 0.0000 0.0000
# 4 0.0000 0.0000 0.0000 49.6471 0.0000 0.0000
# 5 0.0000 0.0000 0.0000 0.0000 39.4073 0.0000
# 6 0.0000 0.0000 0.0000 0.0000 0.0000 -22.3757
#
#
#
# Elastic Compliance Matrix: (Units=1/GPa)
#
#
# Indices 1 2 3 4 5 6 
#
# 1 0.011493 -0.002969 -0.005070 0.000000 0.000000 0.000000
# 2 -0.002969 0.013899 -0.008544 0.000000 0.000000 0.000000
# 3 -0.005070 -0.008544 0.019174 0.000000 0.000000 0.000000
# 4 0.000000 0.000000 0.000000 0.020142 0.000000 0.000000
# 5 0.000000 0.000000 0.000000 0.000000 0.025376 0.000000
# 6 0.000000 0.000000 0.000000 0.000000 0.000000 -0.044691
#
#
# Mechanical properties :
#
#
# Convention : Reuss Voigt Hill
#
# Bulk Modulus (GPa) = 87.71890 89.30834 88.51362
# Shear Modulus (GPa) = 60.70835 23.96948 42.33892
#
# Velocity S-wave (km/s) = 5.55080 3.48787 4.63555
# Velocity P-wave (km/s) = 9.25213 7.84519 8.57755
#
# Compressibility (1/GPa) = 0.01140005
#
# Stress axis : x y z
#
# Youngs Moduli (GPa) = 87.00692 71.94538 52.15297
#
# Poissons Ratio (x) = 0.21362 0.26444
# Poissons Ratio (y) = 0.25834 0.44558
# Poissons Ratio (z) = 0.44117 0.61469
#
# Static dielectric constant tensor:
#      x y z
#    x 3.601750 0.000000 0.000000 
#    y 0.000000 4.400190 0.000000 
#    z 0.000000 0.000000 3.554180 
# 
# 
# High freq. dielectric constant tensor:
#      x y z
#    x 1.780940 0.000000 0.000000 
#    y 0.000000 1.781200 0.000000 
#    z 0.000000 0.000000 1.768270 
# 
# From -- ./inp_files/43564.got.cif
#   From: 2010.03.12/outbox.cif.g09.slc.cpg/sg67_22_cif.got.tgz:43564.got - 2010.04.10 22:41:39.
