data_PCOD8280686
_publ_section_title
;
Structure prediction by ZEFSAII (Michael W. Deem and Ramdas Pophale) SiO2 
 PCOD8280686
Probable space group: C M M A
;
_chemical_formula_sum "Si O2"
_cell_formula_units_Z 80
_cell_length_a 26.031430
_cell_length_b 14.938948
_cell_length_c 9.465141
_cell_angle_alpha 90.000000
_cell_angle_beta 90.000000
_cell_angle_gamma 90.000000
_cell_volume 3680.824658
_symmetry_space_group_name_H-M "C M M A"
_symmetry_group_IT_number 67
_symmetry_cell_setting 'orthorhombic'
loop_
_space_group_symop_operation_xyz
x,y,z
-x,1/2-y,z
x,-y,-z
-x,1/2+y,-z
-x,-y,-z
x,1/2+y,-z
-x,y,z
x,1/2-y,z
1/2+x,1/2+y,z
1/2-x,-y,z
1/2+x,1/2-y,-z
1/2-x,y,-z
1/2-x,1/2-y,-z
1/2+x,y,-z
1/2-x,1/2+y,z
1/2+x,-y,z
loop_
_atom_site_type_symbol
_atom_site_label
_atom_site_fract_x
_atom_site_fract_y
_atom_site_fract_z
Si Si1 0.000000 0.142813 0.597664
Si Si2 0.798078 0.096066 0.426689
Si Si3 0.089841 0.648194 0.592689
Si Si4 0.093260 0.144386 0.096168
Si Si5 0.292776 0.144334 0.888834
Si Si6 0.000000 0.142856 0.912476
O O1 0.949483 0.103762 0.518361
O O2 0.000000 0.103395 0.755206
O O3 0.000000 0.250000 0.606624
O O4 0.750000 0.147839 0.500000
O O5 0.851543 0.144839 0.461375
O O6 0.787215 0.091347 0.258585
O O7 0.801562 0.000000 0.500000
O O8 0.072556 0.750000 0.606706
O O9 0.084943 0.602491 0.747141
O O10 0.085839 0.250000 0.106541
O O11 0.151204 0.122850 0.043612
O O12 0.051004 0.104449 0.989631
O O13 0.287260 0.250000 0.856433
O O14 0.250000 0.111110 0.000000
O O15 0.000000 0.250000 0.912838
#
# Coordination Sequence:
#
# PCOD8280686 Si02
#       6
#     8  16  16  16  16   8
#     4   9  17  27  44  75 107 132 165 217 275 322
#     4  10  21  36  52  75 107 144 183 221 268 330
#     4   9  17  31  51  74 101 134 173 217 268 323
#     4   8  14  25  42  66  97 130 161 200 256 317
#     4   9  18  33  55  82 106 132 176 231 280 322
#     4   9  15  23  39  67 100 126 154 201 260 314
#
# _framework density 21.734259000000002
#
# number of rings (size 3 to 8) (size 9 to 14) (size 15 to 20)
#    0.000    3.000    0.000    2.400    0.000    5.600 
#    0.000    6.500    0.000    0.000    0.000    5.600 
#    0.000    0.000    0.000    0.000    0.000    0.000 
#
# Total GULP energy -495663.030148 kJ/mol
# GULP energy per Si atom -12391.575754 kJ/mol
# Density = 2.168479 g / cm^3
# Si number density = 21.734259 Si / 1000 Ang^3
#
#
#
# Elastic Constant Matrix: (Units=GPa)
#
#
# Indices 1 2 3 4 5 6 
#
# 1 225.1596 -2.1887 127.8336 0.0000 0.0000 0.0000
# 2 -2.1887 20.2397 20.1417 0.0000 0.0000 0.0000
# 3 127.8336 20.1417 175.2449 0.0000 0.0000 0.0000
# 4 0.0000 0.0000 0.0000 17.5936 0.0000 0.0000
# 5 0.0000 0.0000 0.0000 0.0000 48.1707 0.0000
# 6 0.0000 0.0000 0.0000 0.0000 0.0000 -4.8694
#
#
#
# Elastic Compliance Matrix: (Units=1/GPa)
#
#
# Indices 1 2 3 4 5 6 
#
# 1 0.008620 0.008118 -0.007221 0.000000 0.000000 0.000000
# 2 0.008118 0.063435 -0.013213 0.000000 0.000000 0.000000
# 3 -0.007221 -0.013213 0.012492 0.000000 0.000000 0.000000
# 4 0.000000 0.000000 0.000000 0.056839 0.000000 0.000000
# 5 0.000000 0.000000 0.000000 0.000000 0.020760 0.000000
# 6 0.000000 0.000000 0.000000 0.000000 0.000000 -0.205365
#
#
# Mechanical properties :
#
#
# Convention : Reuss Voigt Hill
#
# Bulk Modulus (GPa) = 16.69010 79.13527 47.91269
# Shear Modulus (GPa) = 3617.45347 30.50282 1823.97814
#
# Velocity S-wave (km/s) = 40.84134 3.75032 29.00069
# Velocity P-wave (km/s) = 47.24104 7.43254 33.81537
#
# Compressibility (1/GPa) = 0.05991574
#
# Stress axis : x y z
#
# Youngs Moduli (GPa) = 116.01191 15.76428 80.05019
#
# Poissons Ratio (x) = -0.12798 0.57803
# Poissons Ratio (y) = -0.94179 1.05767
# Poissons Ratio (z) = 0.83770 0.20829
#
# Static dielectric constant tensor:
#      x y z
#    x 4.516730 0.000000 0.000000 
#    y 0.000000 3.226000 0.000000 
#    z 0.000000 0.000000 4.086920 
# 
# 
# High freq. dielectric constant tensor:
#      x y z
#    x 1.873150 0.000000 0.000000 
#    y 0.000000 1.801710 0.000000 
#    z 0.000000 0.000000 1.849870 
# 
# From -- ./inp_files/13565.got.cif
#   From: 2010.03.12/outbox.cif.g09.slc.cpg/sg67_7_cif.got.tgz:13565.got - 2010.04.10 22:41:39.
