data_PCOD8280368
_publ_section_title
;
Structure prediction by ZEFSAII (Michael W. Deem and Ramdas Pophale) SiO2 
 PCOD8280368
Probable space group: C M M A
;
_chemical_formula_sum "Si O2"
_cell_formula_units_Z 104
_cell_length_a 25.817020
_cell_length_b 22.233073
_cell_length_c 9.563409
_cell_angle_alpha 90.000000
_cell_angle_beta 90.000000
_cell_angle_gamma 90.000000
_cell_volume 5489.317297
_symmetry_space_group_name_H-M "C M M A"
_symmetry_group_IT_number 67
_symmetry_cell_setting 'orthorhombic'
loop_
_space_group_symop_operation_xyz
x,y,z
-x,1/2-y,z
x,-y,-z
-x,1/2+y,-z
-x,-y,-z
x,1/2+y,-z
-x,y,z
x,1/2-y,z
1/2+x,1/2+y,z
1/2-x,-y,z
1/2+x,1/2-y,-z
1/2-x,y,-z
1/2-x,1/2-y,-z
1/2+x,y,-z
1/2-x,1/2+y,z
1/2+x,-y,z
loop_
_atom_site_type_symbol
_atom_site_label
_atom_site_fract_x
_atom_site_fract_y
_atom_site_fract_z
Si Si1 0.941851 0.250000 0.592064
Si Si2 0.592993 0.842061 0.816078
Si Si3 0.561767 0.250000 0.963814
Si Si4 0.649086 0.007236 0.661684
Si Si5 0.693873 0.118784 0.323966
Si Si6 0.122619 0.250000 0.311572
Si Si7 0.189854 0.635526 0.650329
Si Si8 0.558889 0.524698 0.851199
O O1 0.934440 0.191273 0.687310
O O2 0.901968 0.250000 0.464757
O O3 0.000000 0.250000 0.531877
O O4 0.653897 0.847919 0.778959
O O5 0.564115 0.904133 0.840566
O O6 0.586820 0.807587 0.961583
O O7 0.500000 0.250000 0.979569
O O8 0.576860 0.250000 0.801601
O O9 0.672603 0.070747 0.707649
O O10 0.637329 0.000000 0.500000
O O11 0.688235 0.953067 0.703654
O O12 0.593530 0.005234 0.733360
O O13 0.751458 0.142595 0.294481
O O14 0.682334 0.135524 0.484062
O O15 0.157235 0.309404 0.287562
O O16 0.500000 0.504905 0.824262
O O17 0.578253 0.500000 0.000000
#
# Coordination Sequence:
#
# PCOD8280368 Si02
#       8
#     8  16   8  16  16   8  16  16
#     4  11  21  38  61  84 116 152 201 248 283 342
#     4  10  20  40  62  87 109 154 205 240 282 358
#     4  11  25  42  60  78 117 163 193 237 299 357
#     4   9  19  36  59  86 116 151 194 237 285 350
#     4   9  18  36  65  88 114 149 193 241 295 345
#     4  12  25  37  56  90 121 151 195 244 299 343
#     4  10  20  36  58  90 122 153 186 241 296 346
#     4  10  21  36  58  85 115 152 194 243 297 342
#
# _framework density 18.945889000000001
#
# number of rings (size 3 to 8) (size 9 to 14) (size 15 to 20)
#    0.000    2.000    1.538    2.538    2.154    4.615 
#    0.000    2.308    0.000    0.923    0.000    0.000 
#    0.000    0.000    0.000    0.000    0.000    0.000 
#
# Total GULP energy -644716.792686 kJ/mol
# GULP energy per Si atom -12398.399859 kJ/mol
# Density = 1.890277 g / cm^3
# Si number density = 18.945889 Si / 1000 Ang^3
#
#
#
# Elastic Constant Matrix: (Units=GPa)
#
#
# Indices 1 2 3 4 5 6 
#
# 1 105.4434 55.8790 37.9224 0.0000 0.0000 0.0000
# 2 55.8790 103.2317 33.0058 0.0000 0.0000 0.0000
# 3 37.9224 33.0058 62.9783 0.0000 0.0000 0.0000
# 4 0.0000 0.0000 0.0000 12.3665 0.0000 0.0000
# 5 0.0000 0.0000 0.0000 0.0000 19.1197 0.0000
# 6 0.0000 0.0000 0.0000 0.0000 0.0000 21.5360
#
#
#
# Elastic Compliance Matrix: (Units=1/GPa)
#
#
# Indices 1 2 3 4 5 6 
#
# 1 0.014810 -0.006205 -0.005666 0.000000 0.000000 0.000000
# 2 -0.006205 0.014237 -0.003725 0.000000 0.000000 0.000000
# 3 -0.005666 -0.003725 0.021242 0.000000 0.000000 0.000000
# 4 0.000000 0.000000 0.000000 0.080864 0.000000 0.000000
# 5 0.000000 0.000000 0.000000 0.000000 0.052302 0.000000
# 6 0.000000 0.000000 0.000000 0.000000 0.000000 0.046434
#
#
# Mechanical properties :
#
#
# Convention : Reuss Voigt Hill
#
# Bulk Modulus (GPa) = 52.36303 58.36309 55.36306
# Shear Modulus (GPa) = 18.69540 20.26083 19.47812
#
# Velocity S-wave (km/s) = 3.14471 3.27372 3.20987
# Velocity P-wave (km/s) = 6.39405 6.72025 6.55917
#
# Compressibility (1/GPa) = 0.01909744
#
# Stress axis : x y z
#
# Youngs Moduli (GPa) = 67.52327 70.24157 47.07600
#
# Poissons Ratio (x) = 0.43585 0.26672
# Poissons Ratio (y) = 0.41898 0.17535
# Poissons Ratio (z) = 0.38257 0.26164
#
# Static dielectric constant tensor:
#      x y z
#    x 3.467410 0.000000 0.000000 
#    y 0.000000 3.583350 0.000000 
#    z 0.000000 0.000000 3.272110 
# 
# 
# High freq. dielectric constant tensor:
#      x y z
#    x 1.741690 0.000000 0.000000 
#    y 0.000000 1.746260 0.000000 
#    z 0.000000 0.000000 1.716670 
# 
# From -- ./inp_files/14010.got.cif
#   From: 2010.03.12/outbox.cif.g09.slc.cpg/sg67_8_cif.got.tgz:14010.got - 2010.04.10 22:41:39.
