data_PCOD8280220
_publ_section_title
;
Structure prediction by ZEFSAII (Michael W. Deem and Ramdas Pophale) SiO2 
 PCOD8280220
Probable space group: C M M A
;
_chemical_formula_sum "Si O2"
_cell_formula_units_Z 80
_cell_length_a 14.991674
_cell_length_b 10.146179
_cell_length_c 27.623753
_cell_angle_alpha 90.000000
_cell_angle_beta 90.000000
_cell_angle_gamma 90.000000
_cell_volume 4201.799565
_symmetry_space_group_name_H-M "C M M A"
_symmetry_group_IT_number 67
_symmetry_cell_setting 'orthorhombic'
loop_
_space_group_symop_operation_xyz
x,y,z
-x,1/2-y,z
x,-y,-z
-x,1/2+y,-z
-x,-y,-z
x,1/2+y,-z
-x,y,z
x,1/2-y,z
1/2+x,1/2+y,z
1/2-x,-y,z
1/2+x,1/2-y,-z
1/2-x,y,-z
1/2-x,1/2-y,-z
1/2+x,y,-z
1/2-x,1/2+y,z
1/2+x,-y,z
loop_
_atom_site_type_symbol
_atom_site_label
_atom_site_fract_x
_atom_site_fract_y
_atom_site_fract_z
Si Si1 0.000000 0.094512 0.796713
Si Si2 0.827976 0.903236 0.146062
Si Si3 0.144501 0.493218 0.614387
Si Si4 0.853044 0.250000 0.549605
Si Si5 0.396455 0.601406 0.959939
Si Si6 0.357124 0.250000 0.557687
Si Si7 0.000000 0.907685 0.313652
O O1 0.912871 0.043480 0.824406
O O2 0.000000 0.250000 0.799344
O O3 0.000000 0.044887 0.741659
O O4 0.805994 0.750000 0.158127
O O5 0.842923 0.921258 0.089092
O O6 0.750000 0.000000 0.163077
O O7 0.250000 0.500000 0.626572
O O8 0.115668 0.378893 0.577723
O O9 0.111413 0.625298 0.588440
O O10 0.089691 0.469469 0.663419
O O11 0.747226 0.250000 0.548215
O O12 0.898443 0.250000 0.496406
O O13 0.500000 0.574776 0.948847
O O14 0.382157 0.750000 0.979456
O O15 0.359660 0.500000 0.000000
O O16 0.000000 0.750000 0.318739
#
# Coordination Sequence:
#
# PCOD8280220 Si02
#       7
#     8  16  16   8  16   8   8
#     4   9  20  40  63  80 105 149 192 236 289 348
#     4  10  20  37  61  86 114 148 193 238 283 339
#     4  10  20  35  57  84 114 148 187 229 273 332
#     4   9  16  33  55  83 116 153 187 218 263 339
#     4   9  17  31  53  82 116 156 192 226 272 332
#     4   9  18  31  55  83 118 153 179 220 283 323
#     4  11  22  39  62  84 108 145 193 235 286 345
#
# _framework density 19.039460999999999
#
# number of rings (size 3 to 8) (size 9 to 14) (size 15 to 20)
#    0.000    2.400    2.000    0.600    0.000    4.800 
#    0.000    5.500    4.400    0.000    0.000    0.000 
#    0.000    0.000    0.000    0.000    0.000    0.000 
#
# Total GULP energy -495946.500522 kJ/mol
# GULP energy per Si atom -12398.662513 kJ/mol
# Density = 1.899613 g / cm^3
# Si number density = 19.039461 Si / 1000 Ang^3
#
#
#
# Elastic Constant Matrix: (Units=GPa)
#
#
# Indices 1 2 3 4 5 6 
#
# 1 101.2567 48.1896 54.8988 0.0000 0.0000 0.0000
# 2 48.1896 126.5624 60.4524 0.0000 0.0000 0.0000
# 3 54.8988 60.4524 122.0204 0.0000 0.0000 0.0000
# 4 0.0000 0.0000 0.0000 22.1503 0.0000 0.0000
# 5 0.0000 0.0000 0.0000 0.0000 12.2852 0.0000
# 6 0.0000 0.0000 0.0000 0.0000 0.0000 31.3000
#
#
#
# Elastic Compliance Matrix: (Units=1/GPa)
#
#
# Indices 1 2 3 4 5 6 
#
# 1 0.013890 -0.003018 -0.004754 0.000000 0.000000 0.000000
# 2 -0.003018 0.011006 -0.004095 0.000000 0.000000 0.000000
# 3 -0.004754 -0.004095 0.012363 0.000000 0.000000 0.000000
# 4 0.000000 0.000000 0.000000 0.045146 0.000000 0.000000
# 5 0.000000 0.000000 0.000000 0.000000 0.081399 0.000000
# 6 0.000000 0.000000 0.000000 0.000000 0.000000 0.031949
#
#
# Mechanical properties :
#
#
# Convention : Reuss Voigt Hill
#
# Bulk Modulus (GPa) = 73.93631 75.21343 74.57487
# Shear Modulus (GPa) = 22.32195 25.56703 23.94449
#
# Velocity S-wave (km/s) = 3.42775 3.66846 3.55015
# Velocity P-wave (km/s) = 7.38806 7.58506 7.48721
#
# Compressibility (1/GPa) = 0.01352515
#
# Stress axis : x y z
#
# Youngs Moduli (GPa) = 71.99615 90.85695 80.88599
#
# Poissons Ratio (x) = 0.27419 0.38453
# Poissons Ratio (y) = 0.21727 0.33123
# Poissons Ratio (z) = 0.34227 0.37207
#
# Static dielectric constant tensor:
#      x y z
#    x 3.394140 0.000000 0.000000 
#    y 0.000000 3.491650 0.000000 
#    z 0.000000 0.000000 3.505440 
# 
# 
# High freq. dielectric constant tensor:
#      x y z
#    x 1.735360 0.000000 0.000000 
#    y 0.000000 1.734910 0.000000 
#    z 0.000000 0.000000 1.732660 
# 
# From -- ./inp_files/41806.got.cif
#   From: 2010.03.12/outbox.cif.g09.slc.cpg/sg67_21_cif.got.tgz:41806.got - 2010.04.10 22:41:39.
