data_PCOD8280844
_publ_section_title
;
Structure prediction by ZEFSAII (Michael W. Deem and Ramdas Pophale) SiO2 
 PCOD8280844
Probable space group: C M M A
;
_chemical_formula_sum "Si O2"
_cell_formula_units_Z 72
_cell_length_a 19.161625
_cell_length_b 20.759284
_cell_length_c 8.907686
_cell_angle_alpha 90.000000
_cell_angle_beta 90.000000
_cell_angle_gamma 90.000000
_cell_volume 3543.313725
_symmetry_space_group_name_H-M "C M M A"
_symmetry_group_IT_number 67
_symmetry_cell_setting 'orthorhombic'
loop_
_space_group_symop_operation_xyz
x,y,z
-x,1/2-y,z
x,-y,-z
-x,1/2+y,-z
-x,-y,-z
x,1/2+y,-z
-x,y,z
x,1/2-y,z
1/2+x,1/2+y,z
1/2-x,-y,z
1/2+x,1/2-y,-z
1/2-x,y,-z
1/2-x,1/2-y,-z
1/2+x,y,-z
1/2-x,1/2+y,z
1/2+x,-y,z
loop_
_atom_site_type_symbol
_atom_site_label
_atom_site_fract_x
_atom_site_fract_y
_atom_site_fract_z
Si Si1 0.921957 0.388599 0.691966
Si Si2 0.707126 0.062307 0.766824
Si Si3 0.787926 0.679024 0.343018
Si Si4 0.576163 0.074325 0.972555
Si Si5 0.364900 0.500000 0.500000
O O1 0.869436 0.335614 0.626130
O O2 0.911124 0.458524 0.615052
O O3 0.000000 0.365505 0.656167
O O4 0.908242 0.391875 0.869615
O O5 0.758618 0.123416 0.766452
O O6 0.640173 0.085787 0.860454
O O7 0.684105 0.046947 0.597088
O O8 0.750000 0.000000 0.833332
O O9 0.780075 0.750000 0.268578
O O10 0.750000 0.678444 0.500000
O O11 0.500000 0.098819 0.909044
O O12 0.568507 0.000000 0.000000
#
# Coordination Sequence:
#
# PCOD8280844 Si02
#       5
#    16  16  16  16   8
#     4  11  23  39  60  89 121 159 198 243 303 358
#     4  12  21  38  62  90 121 157 197 248 300 355
#     4  11  23  41  62  88 122 157 199 252 299 353
#     4  10  21  37  57  88 126 156 194 247 302 352
#     4  12  20  36  60  92 120 150 196 246 294 352
#
# _framework density 20.319960999999999
#
# number of rings (size 3 to 8) (size 9 to 14) (size 15 to 20)
#    0.000    0.889    6.667    0.667    0.000    4.444 
#    0.000    2.222    0.000    2.000    0.000    0.000 
#    0.000    0.000    0.000    0.000    0.000    0.000 
#
# Total GULP energy -446217.929822 kJ/mol
# GULP energy per Si atom -12394.942495 kJ/mol
# Density = 2.027371 g / cm^3
# Si number density = 20.319961 Si / 1000 Ang^3
#
#
#
# Elastic Constant Matrix: (Units=GPa)
#
#
# Indices 1 2 3 4 5 6 
#
# 1 181.9538 62.2836 55.2592 0.0000 0.0000 0.0000
# 2 62.2836 130.6024 20.3146 0.0000 0.0000 0.0000
# 3 55.2592 20.3146 63.7018 0.0000 0.0000 0.0000
# 4 0.0000 0.0000 0.0000 -0.6475 0.0000 0.0000
# 5 0.0000 0.0000 0.0000 0.0000 36.8723 0.0000
# 6 0.0000 0.0000 0.0000 0.0000 0.0000 5.9411
#
#
#
# Elastic Compliance Matrix: (Units=1/GPa)
#
#
# Indices 1 2 3 4 5 6 
#
# 1 0.008478 -0.003051 -0.006382 0.000000 0.000000 0.000000
# 2 -0.003051 0.009154 -0.000273 0.000000 0.000000 0.000000
# 3 -0.006382 -0.000273 0.021321 0.000000 0.000000 0.000000
# 4 0.000000 0.000000 0.000000 -1.544318 0.000000 0.000000
# 5 0.000000 0.000000 0.000000 0.000000 0.027121 0.000000
# 6 0.000000 0.000000 0.000000 0.000000 0.000000 0.168318
#
#
# Mechanical properties :
#
#
# Convention : Reuss Voigt Hill
#
# Bulk Modulus (GPa) = 51.16960 72.44142 61.80551
# Shear Modulus (GPa) = -3.89408 24.32656 10.21624
#
# Velocity S-wave (km/s) = -1.38584 3.46378 2.24468
# Velocity P-wave (km/s) = 4.76192 7.19199 6.09921
#
# Compressibility (1/GPa) = 0.01954285
#
# Stress axis : x y z
#
# Youngs Moduli (GPa) = 117.94855 109.24069 46.90174
#
# Poissons Ratio (x) = 0.33325 0.29932
# Poissons Ratio (y) = 0.35981 0.01280
# Poissons Ratio (z) = 0.75272 0.02982
#
# Static dielectric constant tensor:
#      x y z
#    x 4.398700 0.000000 0.000000 
#    y 0.000000 2.420390 0.000000 
#    z 0.000000 0.000000 3.146090 
# 
# 
# High freq. dielectric constant tensor:
#      x y z
#    x 1.819500 0.000000 0.000000 
#    y 0.000000 1.756450 0.000000 
#    z 0.000000 0.000000 1.778790 
# 
# From -- ./inp_files/10974.got.cif
#   From: 2010.03.12/outbox.cif.g09.slc.cpg/sg67_6_cif.got.tgz:10974.got - 2010.04.10 22:41:39.
