data_PCOD8280021
_publ_section_title
;
Structure prediction by ZEFSAII (Michael W. Deem and Ramdas Pophale) SiO2 
 PCOD8280021
Probable space group: C M M A
;
_chemical_formula_sum "Si O2"
_cell_formula_units_Z 80
_cell_length_a 9.142856
_cell_length_b 19.000712
_cell_length_c 23.622221
_cell_angle_alpha 90.000000
_cell_angle_beta 90.000000
_cell_angle_gamma 90.000000
_cell_volume 4103.670509
_symmetry_space_group_name_H-M "C M M A"
_symmetry_group_IT_number 67
_symmetry_cell_setting 'orthorhombic'
loop_
_space_group_symop_operation_xyz
x,y,z
-x,1/2-y,z
x,-y,-z
-x,1/2+y,-z
-x,-y,-z
x,1/2+y,-z
-x,y,z
x,1/2-y,z
1/2+x,1/2+y,z
1/2-x,-y,z
1/2+x,1/2-y,-z
1/2-x,y,-z
1/2-x,1/2-y,-z
1/2+x,y,-z
1/2-x,1/2+y,z
1/2+x,-y,z
loop_
_atom_site_type_symbol
_atom_site_label
_atom_site_fract_x
_atom_site_fract_y
_atom_site_fract_z
Si Si1 0.334940 0.567294 0.263528
Si Si2 0.292402 0.832428 0.363884
Si Si3 0.669314 0.166901 0.942650
Si Si4 0.177190 0.425701 0.850754
Si Si5 0.000000 0.667050 0.414118
Si Si6 0.500000 0.332478 0.538721
O O1 0.500000 0.546776 0.243023
O O2 0.250000 0.500000 0.289427
O O3 0.355567 0.626941 0.310499
O O4 0.237087 0.595242 0.211375
O O5 0.317698 0.750000 0.352078
O O6 0.128543 0.856408 0.373222
O O7 0.361842 0.854894 0.423863
O O8 0.500000 0.141096 0.943290
O O9 0.676069 0.250000 0.934133
O O10 0.762469 0.133243 0.892483
O O11 0.750000 0.143627 0.000000
O O12 0.250000 0.500000 0.868245
O O13 0.000000 0.428322 0.852256
O O14 0.000000 0.750000 0.424160
O O15 0.000000 0.630741 0.476618
O O16 0.500000 0.250000 0.528003
#
# Coordination Sequence:
#
# PCOD8280021 Si02
#       6
#    16  16  16  16   8   8
#     4  11  23  39  59  80 111 152 189 234 289 343
#     4  10  20  34  56  84 110 141 185 233 281 338
#     4  10  21  39  63  92 127 162 196 237 288 340
#     4  11  23  40  62  87 116 153 200 245 289 344
#     4   9  18  30  53  83 113 141 176 229 284 335
#     4   9  16  32  53  81 111 141 180 227 282 337
#
# _framework density 19.494743
#
# number of rings (size 3 to 8) (size 9 to 14) (size 15 to 20)
#    0.000    1.800    1.000    4.800    2.800    4.800 
#    0.000    2.000    0.000    3.600    0.000    0.000 
#    0.000    0.000    0.000    0.000    0.000    0.000 
#
# Total GULP energy -495660.083899 kJ/mol
# GULP energy per Si atom -12391.502097 kJ/mol
# Density = 1.945037 g / cm^3
# Si number density = 19.494743 Si / 1000 Ang^3
#
#
#
# Elastic Constant Matrix: (Units=GPa)
#
#
# Indices 1 2 3 4 5 6 
#
# 1 182.5521 28.5573 41.9086 0.0000 0.0000 0.0000
# 2 28.5573 44.8408 41.8646 0.0000 0.0000 0.0000
# 3 41.9086 41.8646 94.3424 0.0000 0.0000 0.0000
# 4 0.0000 0.0000 0.0000 4.1046 0.0000 0.0000
# 5 0.0000 0.0000 0.0000 0.0000 41.6982 0.0000
# 6 0.0000 0.0000 0.0000 0.0000 0.0000 22.9274
#
#
#
# Elastic Compliance Matrix: (Units=1/GPa)
#
#
# Indices 1 2 3 4 5 6 
#
# 1 0.006244 -0.002368 -0.001723 0.000000 0.000000 0.000000
# 2 -0.002368 0.038974 -0.016243 0.000000 0.000000 0.000000
# 3 -0.001723 -0.016243 0.018573 0.000000 0.000000 0.000000
# 4 0.000000 0.000000 0.000000 0.243629 0.000000 0.000000
# 5 0.000000 0.000000 0.000000 0.000000 0.023982 0.000000
# 6 0.000000 0.000000 0.000000 0.000000 0.000000 0.043616
#
#
# Mechanical properties :
#
#
# Convention : Reuss Voigt Hill
#
# Bulk Modulus (GPa) = 43.24648 60.71070 51.97859
# Shear Modulus (GPa) = 11.80939 27.70635 19.75787
#
# Velocity S-wave (km/s) = 2.46392 3.77400 3.18700
# Velocity P-wave (km/s) = 5.50693 7.08523 6.34534
#
# Compressibility (1/GPa) = 0.02312327
#
# Stress axis : x y z
#
# Youngs Moduli (GPa) = 160.15803 25.65816 53.84217
#
# Poissons Ratio (x) = 0.06076 0.09276
# Poissons Ratio (y) = 0.37925 0.87455
# Poissons Ratio (z) = 0.27593 0.41676
#
# Static dielectric constant tensor:
#      x y z
#    x 3.785790 0.000000 0.000000 
#    y 0.000000 3.207550 0.000000 
#    z 0.000000 0.000000 3.551030 
# 
# 
# High freq. dielectric constant tensor:
#      x y z
#    x 1.788910 0.000000 0.000000 
#    y 0.000000 1.722940 0.000000 
#    z 0.000000 0.000000 1.764940 
# 
# From -- ./inp_files/43361.got.cif
#   From: 2010.03.12/outbox.cif.g09.slc.cpg/sg67_22_cif.got.tgz:43361.got - 2010.04.10 22:41:39.
