data_PCOD8280433
_publ_section_title
;
Structure prediction by ZEFSAII (Michael W. Deem and Ramdas Pophale) SiO2 
 PCOD8280433
Probable space group: C M M A
;
_chemical_formula_sum "Si O2"
_cell_formula_units_Z 72
_cell_length_a 19.633487
_cell_length_b 8.849524
_cell_length_c 19.495747
_cell_angle_alpha 90.000000
_cell_angle_beta 90.000000
_cell_angle_gamma 90.000000
_cell_volume 3387.327835
_symmetry_space_group_name_H-M "C M M A"
_symmetry_group_IT_number 67
_symmetry_cell_setting 'orthorhombic'
loop_
_space_group_symop_operation_xyz
x,y,z
-x,1/2-y,z
x,-y,-z
-x,1/2+y,-z
-x,-y,-z
x,1/2+y,-z
-x,y,z
x,1/2-y,z
1/2+x,1/2+y,z
1/2-x,-y,z
1/2+x,1/2-y,-z
1/2-x,y,-z
1/2-x,1/2-y,-z
1/2+x,y,-z
1/2-x,1/2+y,z
1/2+x,-y,z
loop_
_atom_site_type_symbol
_atom_site_label
_atom_site_fract_x
_atom_site_fract_y
_atom_site_fract_z
Si Si1 0.820694 0.927865 0.072262
Si Si2 0.921275 0.073486 0.806049
Si Si3 0.816350 0.071784 0.290626
Si Si4 0.852816 0.927776 0.424744
Si Si5 0.000000 0.419955 0.570175
O O1 0.809719 0.750000 0.063510
O O2 0.882174 0.965554 0.123750
O O3 0.750000 0.000000 0.099189
O O4 0.841799 0.000000 0.000000
O O5 0.916533 0.250000 0.788585
O O6 0.000000 0.022005 0.812553
O O7 0.885735 0.983922 0.744395
O O8 0.812189 0.250000 0.286844
O O9 0.750000 0.000000 0.252416
O O10 0.808420 0.015885 0.369378
O O11 0.834623 0.750000 0.428026
O O12 0.929037 0.956364 0.392508
O O13 0.842071 0.000000 0.500000
O O14 0.000000 0.500000 0.500000
O O15 0.000000 0.250000 0.546661
#
# Coordination Sequence:
#
# PCOD8280433 Si02
#       5
#    16  16  16  16   8
#     4  10  20  36  62  94 128 168 209 252 301 359
#     4  10  23  43  65  91 126 166 207 255 311 367
#     4  12  26  43  63  89 120 161 208 257 313 374
#     4  10  20  37  60  89 121 158 200 251 310 371
#     4   8  16  30  52  80 112 148 183 226 287 350
#
# _framework density 21.255692
#
# number of rings (size 3 to 8) (size 9 to 14) (size 15 to 20)
#    0.000    1.778    0.000    4.667    1.556    5.778 
#    0.000    2.222    0.000    0.000    0.000    0.000 
#    0.000    0.000    0.000    0.000    0.000    0.000 
#
# Total GULP energy -446124.298402 kJ/mol
# GULP energy per Si atom -12392.341622 kJ/mol
# Density = 2.120731 g / cm^3
# Si number density = 21.255692 Si / 1000 Ang^3
#
#
#
# Elastic Constant Matrix: (Units=GPa)
#
#
# Indices 1 2 3 4 5 6 
#
# 1 159.4035 66.7041 62.8564 0.0000 0.0000 0.0000
# 2 66.7041 128.0799 65.1372 0.0000 0.0000 0.0000
# 3 62.8564 65.1372 114.9704 0.0000 0.0000 0.0000
# 4 0.0000 0.0000 0.0000 35.2600 0.0000 0.0000
# 5 0.0000 0.0000 0.0000 0.0000 27.0818 0.0000
# 6 0.0000 0.0000 0.0000 0.0000 0.0000 29.7500
#
#
#
# Elastic Compliance Matrix: (Units=1/GPa)
#
#
# Indices 1 2 3 4 5 6 
#
# 1 0.008739 -0.002980 -0.003089 0.000000 0.000000 0.000000
# 2 -0.002980 0.011984 -0.005160 0.000000 0.000000 0.000000
# 3 -0.003089 -0.005160 0.013310 0.000000 0.000000 0.000000
# 4 0.000000 0.000000 0.000000 0.028361 0.000000 0.000000
# 5 0.000000 0.000000 0.000000 0.000000 0.036925 0.000000
# 6 0.000000 0.000000 0.000000 0.000000 0.000000 0.033613
#
#
# Mechanical properties :
#
#
# Convention : Reuss Voigt Hill
#
# Bulk Modulus (GPa) = 86.40159 87.98326 87.19242
# Shear Modulus (GPa) = 31.39728 32.26876 31.83302
#
# Velocity S-wave (km/s) = 3.84751 3.90054 3.87411
# Velocity P-wave (km/s) = 7.77655 7.85928 7.81802
#
# Compressibility (1/GPa) = 0.01157386
#
# Stress axis : x y z
#
# Youngs Moduli (GPa) = 114.43583 83.44453 75.12883
#
# Poissons Ratio (x) = 0.24866 0.23209
# Poissons Ratio (y) = 0.34102 0.38770
# Poissons Ratio (z) = 0.35351 0.43061
#
# Static dielectric constant tensor:
#      x y z
#    x 4.425260 0.000000 0.000000 
#    y 0.000000 3.779740 0.000000 
#    z 0.000000 0.000000 3.694280 
# 
# 
# High freq. dielectric constant tensor:
#      x y z
#    x 1.851790 0.000000 0.000000 
#    y 0.000000 1.834400 0.000000 
#    z 0.000000 0.000000 1.827330 
# 
# From -- ./inp_files/39226.got.cif
#   From: 2010.03.12/outbox.cif.g09.slc.cpg/sg67_20_cif.got.tgz:39226.got - 2010.04.10 22:41:39.
