data_PCOD8280200
_publ_section_title
;
Structure prediction by ZEFSAII (Michael W. Deem and Ramdas Pophale) SiO2 
 PCOD8280200
Probable space group: C M M A
;
_chemical_formula_sum "Si O2"
_cell_formula_units_Z 68
_cell_length_a 28.204472
_cell_length_b 14.696910
_cell_length_c 8.793643
_cell_angle_alpha 90.000000
_cell_angle_beta 90.000000
_cell_angle_gamma 90.000000
_cell_volume 3645.128467
_symmetry_space_group_name_H-M "C M M A"
_symmetry_group_IT_number 67
_symmetry_cell_setting 'orthorhombic'
loop_
_space_group_symop_operation_xyz
x,y,z
-x,1/2-y,z
x,-y,-z
-x,1/2+y,-z
-x,-y,-z
x,1/2+y,-z
-x,y,z
x,1/2-y,z
1/2+x,1/2+y,z
1/2-x,-y,z
1/2+x,1/2-y,-z
1/2-x,y,-z
1/2-x,1/2-y,-z
1/2+x,y,-z
1/2-x,1/2+y,z
1/2+x,-y,z
loop_
_atom_site_type_symbol
_atom_site_label
_atom_site_fract_x
_atom_site_fract_y
_atom_site_fract_z
Si Si1 0.100979 0.750000 0.124799
Si Si2 0.127261 0.390222 0.630541
Si Si3 0.000000 0.445860 0.158167
Si Si4 0.906980 0.575123 0.678521
Si Si5 0.500000 0.250000 0.969214
Si Si6 0.194398 0.250000 0.482590
Si Si7 0.135825 0.250000 0.190025
O O1 0.107682 0.660299 0.223388
O O2 0.142059 0.750000 0.992848
O O3 0.047193 0.750000 0.069552
O O4 0.087905 0.388103 0.494710
O O5 0.134411 0.496398 0.678042
O O6 0.174299 0.340778 0.564471
O O7 0.045621 0.472349 0.258530
O O8 0.000000 0.337801 0.137134
O O9 0.000000 0.500000 0.000000
O O10 0.894275 0.659016 0.785076
O O11 0.250000 0.250000 0.500000
O O12 0.181644 0.250000 0.301115
#
# Coordination Sequence:
#
# PCOD8280200 Si02
#       7
#     8  16   8  16   4   8   8
#     4  11  20  35  54  83 115 154 203 245 295 349
#     4   9  21  36  56  80 111 150 188 245 308 355
#     4  12  22  32  54  82 114 158 209 248 283 355
#     4  10  20  37  52  79 117 156 199 238 298 352
#     4  12  22  32  48  84 114 158 204 234 280 346
#     4   9  19  41  65  87 110 144 195 244 304 378
#     4  10  20  35  57  81 114 156 187 244 306 345
#
# _framework density 18.655035000000002
#
# number of rings (size 3 to 8) (size 9 to 14) (size 15 to 20)
#    0.000    1.882    2.353    2.118    0.000    2.824 
#    0.000   11.765    0.000    0.000    0.000   19.765 
#    0.000    0.000    0.000    0.000    0.000    0.000 
#
# Total GULP energy -421233.010398 kJ/mol
# GULP energy per Si atom -12389.206188 kJ/mol
# Density = 1.861258 g / cm^3
# Si number density = 18.655035 Si / 1000 Ang^3
#
#
#
# Elastic Constant Matrix: (Units=GPa)
#
#
# Indices 1 2 3 4 5 6 
#
# 1 117.8403 31.3744 49.2357 0.0000 0.0000 0.0000
# 2 31.3744 132.0059 45.1206 0.0000 0.0000 0.0000
# 3 49.2357 45.1206 131.6419 0.0000 0.0000 0.0000
# 4 0.0000 0.0000 0.0000 25.7723 0.0000 0.0000
# 5 0.0000 0.0000 0.0000 0.0000 21.0375 0.0000
# 6 0.0000 0.0000 0.0000 0.0000 0.0000 14.2617
#
#
#
# Elastic Compliance Matrix: (Units=1/GPa)
#
#
# Indices 1 2 3 4 5 6 
#
# 1 0.010244 -0.001274 -0.003394 0.000000 0.000000 0.000000
# 2 -0.001274 0.008739 -0.002519 0.000000 0.000000 0.000000
# 3 -0.003394 -0.002519 0.009729 0.000000 0.000000 0.000000
# 4 0.000000 0.000000 0.000000 0.038801 0.000000 0.000000
# 5 0.000000 0.000000 0.000000 0.000000 0.047534 0.000000
# 6 0.000000 0.000000 0.000000 0.000000 0.000000 0.070118
#
#
# Mechanical properties :
#
#
# Convention : Reuss Voigt Hill
#
# Bulk Modulus (GPa) = 69.75005 70.32774 70.03889
# Shear Modulus (GPa) = 24.47148 29.26481 26.86814
#
# Velocity S-wave (km/s) = 3.62579 3.96502 3.79920
# Velocity P-wave (km/s) = 7.41614 7.66438 7.54128
#
# Compressibility (1/GPa) = 0.01433691
#
# Stress axis : x y z
#
# Youngs Moduli (GPa) = 97.62179 114.42644 102.78304
#
# Poissons Ratio (x) = 0.14583 0.34889
# Poissons Ratio (y) = 0.12441 0.25889
# Poissons Ratio (z) = 0.33137 0.28821
#
# Static dielectric constant tensor:
#      x y z
#    x 3.004610 0.000000 0.000000 
#    y 0.000000 3.780790 0.000000 
#    z 0.000000 0.000000 3.612130 
# 
# 
# High freq. dielectric constant tensor:
#      x y z
#    x 1.669050 0.000000 0.000000 
#    y 0.000000 1.747120 0.000000 
#    z 0.000000 0.000000 1.738740 
# 
# From -- ./inp_files/8247.got.cif
#   From: 2010.03.12/outbox.cif.g09.slc.cpg/sg67_5_cif.got.tgz:8247.got - 2010.04.10 22:41:39.
