data_PCOD8280191
_publ_section_title
;
Structure prediction by ZEFSAII (Michael W. Deem and Ramdas Pophale) SiO2 
 PCOD8280191
Probable space group: C M M A
;
_chemical_formula_sum "Si O2"
_cell_formula_units_Z 96
_cell_length_a 18.493840
_cell_length_b 8.743361
_cell_length_c 30.909105
_cell_angle_alpha 90.000000
_cell_angle_beta 90.000000
_cell_angle_gamma 90.000000
_cell_volume 4997.950333
_symmetry_space_group_name_H-M "C M M A"
_symmetry_group_IT_number 67
_symmetry_cell_setting 'orthorhombic'
loop_
_space_group_symop_operation_xyz
x,y,z
-x,1/2-y,z
x,-y,-z
-x,1/2+y,-z
-x,-y,-z
x,1/2+y,-z
-x,y,z
x,1/2-y,z
1/2+x,1/2+y,z
1/2-x,-y,z
1/2+x,1/2-y,-z
1/2-x,y,-z
1/2-x,1/2-y,-z
1/2+x,y,-z
1/2-x,1/2+y,z
1/2+x,-y,z
loop_
_atom_site_type_symbol
_atom_site_label
_atom_site_fract_x
_atom_site_fract_y
_atom_site_fract_z
Si Si1 0.414053 0.577554 0.292512
Si Si2 0.582146 0.430889 0.955391
Si Si3 0.085125 0.926823 0.204080
Si Si4 0.914177 0.923734 0.379925
Si Si5 0.173218 0.069277 0.454453
Si Si6 0.828775 0.930534 0.873416
O O1 0.500000 0.579581 0.293605
O O2 0.383296 0.750000 0.291562
O O3 0.386947 0.486715 0.250390
O O4 0.384133 0.491030 0.334804
O O5 0.500000 0.487151 0.947260
O O6 0.585564 0.250000 0.958539
O O7 0.631506 0.493035 0.916410
O O8 0.612590 0.500000 0.000000
O O9 0.105996 0.750000 0.199710
O O10 0.000000 0.953819 0.198922
O O11 0.124595 0.023331 0.167716
O O12 0.886496 0.750000 0.384758
O O13 0.000000 0.931317 0.381080
O O14 0.885548 0.027265 0.418728
O O15 0.180036 0.250000 0.459078
O O16 0.147250 0.000000 0.500000
O O17 0.250000 0.000000 0.440492
O O18 0.822367 0.750000 0.874749
O O19 0.750000 0.000000 0.870385
#
# Coordination Sequence:
#
# PCOD8280191 Si02
#       6
#    16  16  16  16  16  16
#     4   9  17  31  53  81 111 143 179 220 268 320
#     4   9  19  36  58  82 107 138 178 223 269 319
#     4  10  20  35  57  83 109 141 182 224 267 319
#     4  10  20  35  56  83 114 145 180 224 272 322
#     4  11  22  38  58  79 107 143 184 226 272 326
#     4  11  23  38  55  78 111 147 183 224 272 323
#
# _framework density 19.207872999999999
#
# number of rings (size 3 to 8) (size 9 to 14) (size 15 to 20)
#    0.000    2.000    0.000    4.500    0.000    6.667 
#    0.000    4.167    0.000    0.000    0.000    0.000 
#    0.000    0.000    0.000    0.000    0.000    0.000 
#
# Total GULP energy -595359.059943 kJ/mol
# GULP energy per Si atom -12403.313749 kJ/mol
# Density = 1.916416 g / cm^3
# Si number density = 19.207873 Si / 1000 Ang^3
#
#
#
# Elastic Constant Matrix: (Units=GPa)
#
#
# Indices 1 2 3 4 5 6 
#
# 1 39.1993 28.9654 42.0454 0.0000 0.0000 0.0000
# 2 28.9654 106.4254 46.2791 0.0000 0.0000 0.0000
# 3 42.0454 46.2791 151.9358 0.0000 0.0000 0.0000
# 4 0.0000 0.0000 0.0000 39.7693 0.0000 0.0000
# 5 0.0000 0.0000 0.0000 0.0000 -2.9244 0.0000
# 6 0.0000 0.0000 0.0000 0.0000 0.0000 24.0083
#
#
#
# Elastic Compliance Matrix: (Units=1/GPa)
#
#
# Indices 1 2 3 4 5 6 
#
# 1 0.040427 -0.007075 -0.009032 0.000000 0.000000 0.000000
# 2 -0.007075 0.012069 -0.001718 0.000000 0.000000 0.000000
# 3 -0.009032 -0.001718 0.009605 0.000000 0.000000 0.000000
# 4 0.000000 0.000000 0.000000 0.025145 0.000000 0.000000
# 5 0.000000 0.000000 0.000000 0.000000 -0.341955 0.000000
# 6 0.000000 0.000000 0.000000 0.000000 0.000000 0.041652
#
#
# Mechanical properties :
#
#
# Convention : Reuss Voigt Hill
#
# Bulk Modulus (GPa) = 37.80857 59.12672 48.46765
# Shear Modulus (GPa) = -29.65782 24.18868 -2.73457
#
# Velocity S-wave (km/s) = -3.93370 3.55253 -1.19447
# Velocity P-wave (km/s) = 0.95149 6.90483 4.83587
#
# Compressibility (1/GPa) = 0.02644903
#
# Stress axis : x y z
#
# Youngs Moduli (GPa) = 24.73613 82.85651 104.11640
#
# Poissons Ratio (x) = 0.58622 0.94041
# Poissons Ratio (y) = 0.17501 0.17890
# Poissons Ratio (z) = 0.22342 0.14237
#
# Static dielectric constant tensor:
#      x y z
#    x 3.274460 0.000000 0.000000 
#    y 0.000000 3.651510 0.000000 
#    z 0.000000 0.000000 3.720370 
# 
# 
# High freq. dielectric constant tensor:
#      x y z
#    x 1.719190 0.000000 0.000000 
#    y 0.000000 1.760720 0.000000 
#    z 0.000000 0.000000 1.764130 
# 
# From -- ./inp_files/44601.got.cif
#   From: 2010.03.12/outbox.cif.g09.slc.cpg/sg67_23_cif.got.tgz:44601.got - 2010.04.10 22:41:39.
