data_PCOD8280857
_publ_section_title
;
Structure prediction by ZEFSAII (Michael W. Deem and Ramdas Pophale) SiO2 
 PCOD8280857
Probable space group: C M M A
;
_chemical_formula_sum "Si O2"
_cell_formula_units_Z 96
_cell_length_a 28.022173
_cell_length_b 20.373615
_cell_length_c 8.588350
_cell_angle_alpha 90.000000
_cell_angle_beta 90.000000
_cell_angle_gamma 90.000000
_cell_volume 4903.200356
_symmetry_space_group_name_H-M "C M M A"
_symmetry_group_IT_number 67
_symmetry_cell_setting 'orthorhombic'
loop_
_space_group_symop_operation_xyz
x,y,z
-x,1/2-y,z
x,-y,-z
-x,1/2+y,-z
-x,-y,-z
x,1/2+y,-z
-x,y,z
x,1/2-y,z
1/2+x,1/2+y,z
1/2-x,-y,z
1/2+x,1/2-y,-z
1/2-x,y,-z
1/2-x,1/2-y,-z
1/2+x,y,-z
1/2-x,1/2+y,z
1/2+x,-y,z
loop_
_atom_site_type_symbol
_atom_site_label
_atom_site_fract_x
_atom_site_fract_y
_atom_site_fract_z
Si Si1 0.723441 0.941671 0.663981
Si Si2 0.638208 0.173848 0.651805
Si Si3 0.737071 0.177061 0.819440
Si Si4 0.054833 0.440101 0.891602
Si Si5 0.880472 0.060806 0.594067
Si Si6 0.553393 0.176269 0.878360
O O1 0.750000 0.934804 0.500000
O O2 0.725023 0.871292 0.743821
O O3 0.669415 0.965827 0.658545
O O4 0.750000 0.000000 0.760037
O O5 0.640782 0.250000 0.597298
O O6 0.683046 0.157214 0.766657
O O7 0.633607 0.126439 0.502785
O O8 0.589858 0.158835 0.743084
O O9 0.747344 0.250000 0.756728
O O10 0.750000 0.173420 0.000000
O O11 0.083735 0.426957 0.734703
O O12 0.000000 0.454964 0.847640
O O13 0.074277 0.500000 0.000000
O O14 0.061035 0.371864 0.979070
O O15 0.903552 0.000000 0.500000
O O16 0.500000 0.168524 0.808968
O O17 0.562251 0.250000 0.940869
#
# Coordination Sequence:
#
# PCOD8280857 Si02
#       6
#    16  16  16  16  16  16
#     4  11  21  40  57  80 116 153 190 235 288 344
#     4  10  21  37  58  87 119 152 195 241 290 349
#     4  10  22  38  57  84 117 154 195 239 285 342
#     4  10  23  41  61  87 116 150 196 246 299 360
#     4  12  23  38  60  85 115 154 194 239 295 351
#     4   9  19  38  61  83 113 150 186 233 290 347
#
# _framework density 19.579049000000001
#
# number of rings (size 3 to 8) (size 9 to 14) (size 15 to 20)
#    0.000    1.667    3.333    1.000    2.333    3.000 
#    0.000    0.000    0.000    0.000    0.000    0.000 
#    0.000    0.000    0.000    0.000    0.000    0.000 
#
# Total GULP energy -594836.050212 kJ/mol
# GULP energy per Si atom -12392.417713 kJ/mol
# Density = 1.953449 g / cm^3
# Si number density = 19.579049 Si / 1000 Ang^3
#
#
#
# Elastic Constant Matrix: (Units=GPa)
#
#
# Indices 1 2 3 4 5 6 
#
# 1 90.5659 35.0585 49.1667 0.0000 0.0000 0.0000
# 2 35.0585 100.2712 48.9622 0.0000 0.0000 0.0000
# 3 49.1667 48.9622 84.0504 0.0000 0.0000 0.0000
# 4 0.0000 0.0000 0.0000 39.5144 0.0000 0.0000
# 5 0.0000 0.0000 0.0000 0.0000 37.6811 0.0000
# 6 0.0000 0.0000 0.0000 0.0000 0.0000 25.0579
#
#
#
# Elastic Compliance Matrix: (Units=1/GPa)
#
#
# Indices 1 2 3 4 5 6 
#
# 1 0.016332 -0.001461 -0.008703 0.000000 0.000000 0.000000
# 2 -0.001461 0.014068 -0.007341 0.000000 0.000000 0.000000
# 3 -0.008703 -0.007341 0.021265 0.000000 0.000000 0.000000
# 4 0.000000 0.000000 0.000000 0.025307 0.000000 0.000000
# 5 0.000000 0.000000 0.000000 0.000000 0.026539 0.000000
# 6 0.000000 0.000000 0.000000 0.000000 0.000000 0.039908
#
#
# Mechanical properties :
#
#
# Convention : Reuss Voigt Hill
#
# Bulk Modulus (GPa) = 60.03707 60.14024 60.08866
# Shear Modulus (GPa) = 27.17723 29.89734 28.53729
#
# Velocity S-wave (km/s) = 3.72973 3.91193 3.82192
# Velocity P-wave (km/s) = 7.01986 7.15455 7.08752
#
# Compressibility (1/GPa) = 0.01665638
#
# Stress axis : x y z
#
# Youngs Moduli (GPa) = 61.23104 71.08280 47.02671
#
# Poissons Ratio (x) = 0.10383 0.40925
# Poissons Ratio (y) = 0.08944 0.34521
# Poissons Ratio (z) = 0.53287 0.52180
#
# Static dielectric constant tensor:
#      x y z
#    x 3.730550 0.000000 0.000000 
#    y 0.000000 4.223100 0.000000 
#    z 0.000000 0.000000 3.358610 
# 
# 
# High freq. dielectric constant tensor:
#      x y z
#    x 1.768480 0.000000 0.000000 
#    y 0.000000 1.786310 0.000000 
#    z 0.000000 0.000000 1.738050 
# 
# From -- ./inp_files/13698.got.cif
#   From: 2010.03.12/outbox.cif.g09.slc.cpg/sg67_7_cif.got.tgz:13698.got - 2010.04.10 22:41:39.
