data_PCOD8280610
_publ_section_title
;
Structure prediction by ZEFSAII (Michael W. Deem and Ramdas Pophale) SiO2 
 PCOD8280610
Probable space group: C M M A
;
_chemical_formula_sum "Si O2"
_cell_formula_units_Z 80
_cell_length_a 26.748864
_cell_length_b 9.580566
_cell_length_c 18.954549
_cell_angle_alpha 90.000000
_cell_angle_beta 90.000000
_cell_angle_gamma 90.000000
_cell_volume 4857.468189
_symmetry_space_group_name_H-M "C M M A"
_symmetry_group_IT_number 67
_symmetry_cell_setting 'orthorhombic'
loop_
_space_group_symop_operation_xyz
x,y,z
-x,1/2-y,z
x,-y,-z
-x,1/2+y,-z
-x,-y,-z
x,1/2+y,-z
-x,y,z
x,1/2-y,z
1/2+x,1/2+y,z
1/2-x,-y,z
1/2+x,1/2-y,-z
1/2-x,y,-z
1/2-x,1/2-y,-z
1/2+x,y,-z
1/2-x,1/2+y,z
1/2+x,-y,z
loop_
_atom_site_type_symbol
_atom_site_label
_atom_site_fract_x
_atom_site_fract_y
_atom_site_fract_z
Si Si1 0.556461 0.410571 0.567646
Si Si2 0.647076 0.498459 0.649480
Si Si3 0.320247 0.250000 0.438739
Si Si4 0.295193 0.750000 0.404446
Si Si5 0.200166 0.409844 0.782552
Si Si6 0.698422 0.585494 0.938845
O O1 0.573282 0.500000 0.500000
O O2 0.500000 0.449548 0.590477
O O3 0.560662 0.250000 0.544948
O O4 0.591594 0.437899 0.636112
O O5 0.652833 0.615558 0.590734
O O6 0.690351 0.385326 0.639332
O O7 0.655210 0.553761 0.728767
O O8 0.326049 0.250000 0.522675
O O9 0.263180 0.250000 0.415506
O O10 0.216892 0.250000 0.771056
O O11 0.250000 0.500000 0.770593
O O12 0.175516 0.429265 0.860418
O O13 0.704816 0.750000 0.958707
O O14 0.750000 0.500000 0.935170
O O15 0.667076 0.500000 0.000000
#
# Coordination Sequence:
#
# PCOD8280610 Si02
#       6
#    16  16   8   8  16  16
#     4  10  22  39  57  74  91 118 161 212 261 306
#     4  12  22  34  50  71  96 128 162 206 251 287
#     4  11  22  34  49  65  98 128 167 198 235 289
#     4  11  22  34  47  69  92 132 167 200 235 285
#     4  10  21  33  48  69 100 135 167 199 240 290
#     4   9  16  28  44  66  92 126 165 200 232 274
#
# _framework density 16.469486
#
# number of rings (size 3 to 8) (size 9 to 14) (size 15 to 20)
#    0.000    1.600    2.000    4.800    2.800    2.400 
#    0.000    0.000    0.000    0.000    0.000    0.000 
#    0.000    0.800    0.000    0.800    0.000    1.200 
#
# Total GULP energy -495703.028709 kJ/mol
# GULP energy per Si atom -12392.575718 kJ/mol
# Density = 1.643200 g / cm^3
# Si number density = 16.469486 Si / 1000 Ang^3
#
#
#
# Elastic Constant Matrix: (Units=GPa)
#
#
# Indices 1 2 3 4 5 6 
#
# 1 49.1035 17.4586 34.8806 0.0000 0.0000 0.0000
# 2 17.4586 114.6942 42.2419 0.0000 0.0000 0.0000
# 3 34.8806 42.2419 114.8100 0.0000 0.0000 0.0000
# 4 0.0000 0.0000 0.0000 29.1429 0.0000 0.0000
# 5 0.0000 0.0000 0.0000 0.0000 12.7807 0.0000
# 6 0.0000 0.0000 0.0000 0.0000 0.0000 19.0666
#
#
#
# Elastic Compliance Matrix: (Units=1/GPa)
#
#
# Indices 1 2 3 4 5 6 
#
# 1 0.026116 -0.001218 -0.007486 0.000000 0.000000 0.000000
# 2 -0.001218 0.010142 -0.003362 0.000000 0.000000 0.000000
# 3 -0.007486 -0.003362 0.012221 0.000000 0.000000 0.000000
# 4 0.000000 0.000000 0.000000 0.034314 0.000000 0.000000
# 5 0.000000 0.000000 0.000000 0.000000 0.078243 0.000000
# 6 0.000000 0.000000 0.000000 0.000000 0.000000 0.052448
#
#
# Mechanical properties :
#
#
# Convention : Reuss Voigt Hill
#
# Bulk Modulus (GPa) = 41.07149 51.97445 46.52297
# Shear Modulus (GPa) = 20.34741 24.46648 22.40695
#
# Velocity S-wave (km/s) = 3.51873 3.85848 3.69251
# Velocity P-wave (km/s) = 6.44210 7.17475 6.81827
#
# Compressibility (1/GPa) = 0.02434779
#
# Stress axis : x y z
#
# Youngs Moduli (GPa) = 38.29067 98.59660 81.82479
#
# Poissons Ratio (x) = 0.12011 0.61255
# Poissons Ratio (y) = 0.04665 0.27506
# Poissons Ratio (z) = 0.28665 0.33144
#
# Static dielectric constant tensor:
#      x y z
#    x 2.783150 0.000000 0.000000 
#    y 0.000000 3.377480 0.000000 
#    z 0.000000 0.000000 3.804490 
# 
# 
# High freq. dielectric constant tensor:
#      x y z
#    x 1.581980 0.000000 0.000000 
#    y 0.000000 1.660730 0.000000 
#    z 0.000000 0.000000 1.631590 
# 
# From -- ./inp_files/39527.got.cif
#   From: 2010.03.12/outbox.cif.g09.slc.cpg/sg67_20_cif.got.tgz:39527.got - 2010.04.10 22:41:39.
