data_PCOD8280953
_publ_section_title
;
Structure prediction by ZEFSAII (Michael W. Deem and Ramdas Pophale) SiO2 
 PCOD8280953
Probable space group: C M M A
;
_chemical_formula_sum "Si O2"
_cell_formula_units_Z 80
_cell_length_a 18.643312
_cell_length_b 8.602679
_cell_length_c 25.500568
_cell_angle_alpha 90.000000
_cell_angle_beta 90.000000
_cell_angle_gamma 90.000000
_cell_volume 4089.843027
_symmetry_space_group_name_H-M "C M M A"
_symmetry_group_IT_number 67
_symmetry_cell_setting 'orthorhombic'
loop_
_space_group_symop_operation_xyz
x,y,z
-x,1/2-y,z
x,-y,-z
-x,1/2+y,-z
-x,-y,-z
x,1/2+y,-z
-x,y,z
x,1/2-y,z
1/2+x,1/2+y,z
1/2-x,-y,z
1/2+x,1/2-y,-z
1/2-x,y,-z
1/2-x,1/2-y,-z
1/2+x,y,-z
1/2-x,1/2+y,z
1/2+x,-y,z
loop_
_atom_site_type_symbol
_atom_site_label
_atom_site_fract_x
_atom_site_fract_y
_atom_site_fract_z
Si Si1 0.173315 0.931363 0.054777
Si Si2 0.082173 0.432730 0.745426
Si Si3 0.416542 0.069744 0.443574
Si Si4 0.670916 0.066853 0.650151
Si Si5 0.084529 0.926853 0.854698
O O1 0.181691 0.750000 0.047408
O O2 0.250000 0.000000 0.070403
O O3 0.117612 0.967188 0.100382
O O4 0.144535 0.000000 0.000000
O O5 0.089381 0.250000 0.753230
O O6 0.131380 0.486585 0.698271
O O7 0.110659 0.514872 0.798010
O O8 0.000000 0.480498 0.733388
O O9 0.500000 0.049887 0.429848
O O10 0.393868 0.250000 0.441598
O O11 0.398565 0.000000 0.500000
O O12 0.371338 0.971120 0.402649
O O13 0.673377 0.250000 0.659155
O O14 0.750000 0.000000 0.645430
O O15 0.109793 0.750000 0.862340
O O16 0.000000 0.945087 0.859087
#
# Coordination Sequence:
#
# PCOD8280953 Si02
#       5
#    16  16  16  16  16
#     4  11  22  38  59  83 114 151 192 235 284 341
#     4  10  21  39  62  87 116 150 189 234 285 341
#     4  10  21  39  63  90 119 152 192 236 283 338
#     4  12  25  40  59  85 118 154 194 238 287 340
#     4  10  21  38  60  87 117 149 189 236 285 337
#
# _framework density 19.560654
#
# number of rings (size 3 to 8) (size 9 to 14) (size 15 to 20)
#    0.000    1.400    0.000    6.600    0.000    7.600 
#    0.000    6.000    0.000    0.000    0.000    0.000 
#    0.000    0.000    0.000    0.000    0.000    0.000 
#
# Total GULP energy -496234.898385 kJ/mol
# GULP energy per Si atom -12405.872460 kJ/mol
# Density = 1.951613 g / cm^3
# Si number density = 19.560654 Si / 1000 Ang^3
#
#
#
# Elastic Constant Matrix: (Units=GPa)
#
#
# Indices 1 2 3 4 5 6 
#
# 1 61.3998 21.4879 53.2126 0.0000 0.0000 0.0000
# 2 21.4879 95.2970 17.9938 0.0000 0.0000 0.0000
# 3 53.2126 17.9938 117.2413 0.0000 0.0000 0.0000
# 4 0.0000 0.0000 0.0000 42.1388 0.0000 0.0000
# 5 0.0000 0.0000 0.0000 0.0000 41.2070 0.0000
# 6 0.0000 0.0000 0.0000 0.0000 0.0000 43.1066
#
#
#
# Elastic Compliance Matrix: (Units=1/GPa)
#
#
# Indices 1 2 3 4 5 6 
#
# 1 0.028304 -0.004075 -0.012221 0.000000 0.000000 0.000000
# 2 -0.004075 0.011393 0.000101 0.000000 0.000000 0.000000
# 3 -0.012221 0.000101 0.014061 0.000000 0.000000 0.000000
# 4 0.000000 0.000000 0.000000 0.023731 0.000000 0.000000
# 5 0.000000 0.000000 0.000000 0.000000 0.024268 0.000000
# 6 0.000000 0.000000 0.000000 0.000000 0.000000 0.023198
#
#
# Mechanical properties :
#
#
# Convention : Reuss Voigt Hill
#
# Bulk Modulus (GPa) = 46.79829 51.03630 48.91729
# Shear Modulus (GPa) = 30.40102 37.37339 33.88720
#
# Velocity S-wave (km/s) = 3.94660 4.37583 4.16675
# Velocity P-wave (km/s) = 6.68911 7.18877 6.94344
#
# Compressibility (1/GPa) = 0.02136830
#
# Stress axis : x y z
#
# Youngs Moduli (GPa) = 35.33039 87.77141 71.11964
#
# Poissons Ratio (x) = 0.35763 0.86917
# Poissons Ratio (y) = 0.14396 -0.00716
# Poissons Ratio (z) = 0.43178 -0.00884
#
# Static dielectric constant tensor:
#      x y z
#    x 3.528810 0.000000 0.000000 
#    y 0.000000 3.788080 0.000000 
#    z 0.000000 0.000000 3.721340 
# 
# 
# High freq. dielectric constant tensor:
#      x y z
#    x 1.756290 0.000000 0.000000 
#    y 0.000000 1.783030 0.000000 
#    z 0.000000 0.000000 1.777270 
# 
# From -- ./inp_files/43343.got.cif
#   From: 2010.03.12/outbox.cif.g09.slc.cpg/sg67_22_cif.got.tgz:43343.got - 2010.04.10 22:41:39.
