data_PCOD8280209
_publ_section_title
;
Structure prediction by ZEFSAII (Michael W. Deem and Ramdas Pophale) SiO2 
 PCOD8280209
Probable space group: C M M A
;
_chemical_formula_sum "Si O2"
_cell_formula_units_Z 112
_cell_length_a 23.587621
_cell_length_b 14.041129
_cell_length_c 15.249783
_cell_angle_alpha 90.000000
_cell_angle_beta 90.000000
_cell_angle_gamma 90.000000
_cell_volume 5050.679777
_symmetry_space_group_name_H-M "C M M A"
_symmetry_group_IT_number 67
_symmetry_cell_setting 'orthorhombic'
loop_
_space_group_symop_operation_xyz
x,y,z
-x,1/2-y,z
x,-y,-z
-x,1/2+y,-z
-x,-y,-z
x,1/2+y,-z
-x,y,z
x,1/2-y,z
1/2+x,1/2+y,z
1/2-x,-y,z
1/2+x,1/2-y,-z
1/2-x,y,-z
1/2-x,1/2-y,-z
1/2+x,y,-z
1/2-x,1/2+y,z
1/2+x,-y,z
loop_
_atom_site_type_symbol
_atom_site_label
_atom_site_fract_x
_atom_site_fract_y
_atom_site_fract_z
Si Si1 0.741328 0.136954 0.860679
Si Si2 0.761204 0.860226 0.330723
Si Si3 0.835595 0.361522 0.992986
Si Si4 0.863454 0.639973 0.620349
Si Si5 0.434625 0.016124 0.291370
Si Si6 0.125728 0.362372 0.577590
Si Si7 0.564967 0.860546 0.877181
O O1 0.739763 0.250000 0.850341
O O2 0.750398 0.091794 0.764628
O O3 0.793078 0.098848 0.919164
O O4 0.682888 0.101559 0.909894
O O5 0.775094 0.750000 0.319743
O O6 0.703876 0.877568 0.384261
O O7 0.814968 0.905089 0.382533
O O8 0.827271 0.250000 0.994163
O O9 0.899190 0.390041 0.964096
O O10 0.876534 0.750000 0.643270
O O11 0.895778 0.577286 0.693500
O O12 0.883755 0.610214 0.523681
O O13 0.500000 0.984352 0.288556
O O14 0.425984 0.090350 0.370509
O O15 0.417168 0.070967 0.202469
O O16 0.123466 0.250000 0.588924
O O17 0.500000 0.874442 0.903457
O O18 0.577446 0.750000 0.850702
#
# Coordination Sequence:
#
# PCOD8280209 Si02
#       7
#    16  16  16  16  16  16  16
#     4   8  13  22  43  74 106 139 170 208 258 317
#     4   9  17  32  54  80 109 141 180 222 270 332
#     4   8  13  23  42  74 111 141 171 206 257 324
#     4  10  22  38  55  76 105 144 188 234 280 328
#     4  11  23  37  54  78 108 144 190 236 276 326
#     4  10  20  35  57  83 111 142 175 222 286 345
#     4   9  17  30  50  77 110 146 183 228 281 335
#
# _framework density 22.175232999999999
#
# number of rings (size 3 to 8) (size 9 to 14) (size 15 to 20)
#    0.000    2.714    0.000    3.000    0.000    6.857 
#    0.000    2.857    0.000    1.714    0.000    8.000 
#    0.000    0.000    0.000    0.000    0.000    3.143 
#
# Total GULP energy -693869.214786 kJ/mol
# GULP energy per Si atom -12390.521693 kJ/mol
# Density = 2.212476 g / cm^3
# Si number density = 22.175233 Si / 1000 Ang^3
#
#
#
# Elastic Constant Matrix: (Units=GPa)
#
#
# Indices 1 2 3 4 5 6 
#
# 1 85.0917 26.6345 20.9412 0.0000 0.0000 0.0000
# 2 26.6345 69.0078 26.4216 0.0000 0.0000 0.0000
# 3 20.9412 26.4216 49.1866 0.0000 0.0000 0.0000
# 4 0.0000 0.0000 0.0000 5.3494 0.0000 0.0000
# 5 0.0000 0.0000 0.0000 0.0000 37.3564 0.0000
# 6 0.0000 0.0000 0.0000 0.0000 0.0000 4.3142
#
#
#
# Elastic Compliance Matrix: (Units=1/GPa)
#
#
# Indices 1 2 3 4 5 6 
#
# 1 0.013916 -0.003906 -0.003827 0.000000 0.000000 0.000000
# 2 -0.003906 0.019340 -0.008726 0.000000 0.000000 0.000000
# 3 -0.003827 -0.008726 0.026647 0.000000 0.000000 0.000000
# 4 0.000000 0.000000 0.000000 0.186937 0.000000 0.000000
# 5 0.000000 0.000000 0.000000 0.000000 0.026769 0.000000
# 6 0.000000 0.000000 0.000000 0.000000 0.000000 0.231794
#
#
# Mechanical properties :
#
#
# Convention : Reuss Voigt Hill
#
# Bulk Modulus (GPa) = 37.05585 39.03120 38.04352
# Shear Modulus (GPa) = 9.13550 18.02325 13.57938
#
# Velocity S-wave (km/s) = 2.03190 2.85400 2.47729
# Velocity P-wave (km/s) = 4.71716 5.33853 5.03743
#
# Compressibility (1/GPa) = 0.02698630
#
# Stress axis : x y z
#
# Youngs Moduli (GPa) = 71.85758 51.70750 37.52760
#
# Poissons Ratio (x) = 0.20197 0.14361
# Poissons Ratio (y) = 0.28068 0.32745
# Poissons Ratio (z) = 0.27498 0.45118
#
# Static dielectric constant tensor:
#      x y z
#    x 3.934170 0.000000 0.000000 
#    y 0.000000 3.832340 0.000000 
#    z 0.000000 0.000000 4.235980 
# 
# 
# High freq. dielectric constant tensor:
#      x y z
#    x 1.857000 0.000000 0.000000 
#    y 0.000000 1.867190 0.000000 
#    z 0.000000 0.000000 1.868600 
# 
# From -- ./inp_files/27481.got.cif
#   From: 2010.03.12/outbox.cif.g09.slc.cpg/sg67_14_cif.got.tgz:27481.got - 2010.04.10 22:41:39.
