data_PCOD8280957
_publ_section_title
;
Structure prediction by ZEFSAII (Michael W. Deem and Ramdas Pophale) SiO2 
 PCOD8280957
Probable space group: C M M A
;
_chemical_formula_sum "Si O2"
_cell_formula_units_Z 112
_cell_length_a 25.075167
_cell_length_b 17.278612
_cell_length_c 12.355610
_cell_angle_alpha 90.000000
_cell_angle_beta 90.000000
_cell_angle_gamma 90.000000
_cell_volume 5353.242017
_symmetry_space_group_name_H-M "C M M A"
_symmetry_group_IT_number 67
_symmetry_cell_setting 'orthorhombic'
loop_
_space_group_symop_operation_xyz
x,y,z
-x,1/2-y,z
x,-y,-z
-x,1/2+y,-z
-x,-y,-z
x,1/2+y,-z
-x,y,z
x,1/2-y,z
1/2+x,1/2+y,z
1/2-x,-y,z
1/2+x,1/2-y,-z
1/2-x,y,-z
1/2-x,1/2-y,-z
1/2+x,y,-z
1/2-x,1/2+y,z
1/2+x,-y,z
loop_
_atom_site_type_symbol
_atom_site_label
_atom_site_fract_x
_atom_site_fract_y
_atom_site_fract_z
Si Si1 0.701632 0.662888 0.919375
Si Si2 0.094584 0.410876 0.976641
Si Si3 0.941107 0.662339 0.238571
Si Si4 0.143773 0.901569 0.398882
Si Si5 0.746951 0.659638 0.688718
Si Si6 0.561444 0.660736 0.197732
Si Si7 0.142168 0.078289 0.356506
O O1 0.678172 0.750000 0.912003
O O2 0.657187 0.605269 0.963704
O O3 0.721404 0.635180 0.802826
O O4 0.750000 0.659513 0.000000
O O5 0.065144 0.391966 0.865121
O O6 0.084682 0.500000 0.000000
O O7 0.070550 0.359800 0.072793
O O8 0.934266 0.750000 0.198445
O O9 0.897715 0.648343 0.330780
O O10 0.000000 0.647722 0.287891
O O11 0.202670 0.863234 0.400093
O O12 0.124131 0.900104 0.522403
O O13 0.146704 0.986263 0.346558
O O14 0.760792 0.750000 0.682918
O O15 0.800734 0.612841 0.672300
O O16 0.500000 0.646138 0.228533
O O17 0.577348 0.750000 0.215743
O O18 0.597683 0.607741 0.273959
#
# Coordination Sequence:
#
# PCOD8280957 Si02
#       7
#    16  16  16  16  16  16  16
#     4  10  21  38  60  88 127 168 209 259 315 378
#     4  12  24  40  64  95 130 168 210 264 321 387
#     4  11  24  43  68  96 127 167 217 270 322 381
#     4  11  24  43  65  95 130 171 214 268 325 383
#     4  11  22  39  66  95 126 169 217 263 315 383
#     4  11  25  44  66  93 127 170 219 268 321 386
#     4  11  25  43  65  93 132 171 215 267 325 383
#
# _framework density 20.921901999999999
#
# number of rings (size 3 to 8) (size 9 to 14) (size 15 to 20)
#    0.000    1.000    1.429    5.143    0.000   10.000 
#    2.571    2.857    0.000    0.000    0.000    0.000 
#    0.000    0.000    0.000    0.000    0.000    0.000 
#
# Total GULP energy -694714.998270 kJ/mol
# GULP energy per Si atom -12405.624969 kJ/mol
# Density = 2.087428 g / cm^3
# Si number density = 20.921902 Si / 1000 Ang^3
#
#
#
# Elastic Constant Matrix: (Units=GPa)
#
#
# Indices 1 2 3 4 5 6 
#
# 1 129.7383 38.1730 27.5234 0.0000 0.0000 0.0000
# 2 38.1730 84.2807 18.1171 0.0000 0.0000 0.0000
# 3 27.5234 18.1171 68.3808 0.0000 0.0000 0.0000
# 4 0.0000 0.0000 0.0000 35.4288 0.0000 0.0000
# 5 0.0000 0.0000 0.0000 0.0000 -42.9930 0.0000
# 6 0.0000 0.0000 0.0000 0.0000 0.0000 -0.2203
#
#
#
# Elastic Compliance Matrix: (Units=1/GPa)
#
#
# Indices 1 2 3 4 5 6 
#
# 1 0.009375 -0.003643 -0.002809 0.000000 0.000000 0.000000
# 2 -0.003643 0.013997 -0.002242 0.000000 0.000000 0.000000
# 3 -0.002809 -0.002242 0.016348 0.000000 0.000000 0.000000
# 4 0.000000 0.000000 0.000000 0.028226 0.000000 0.000000
# 5 0.000000 0.000000 0.000000 0.000000 -0.023260 0.000000
# 6 0.000000 0.000000 0.000000 0.000000 0.000000 -4.538913
#
#
# Mechanical properties :
#
#
# Convention : Reuss Voigt Hill
#
# Bulk Modulus (GPa) = 44.77469 50.00297 47.38883
# Shear Modulus (GPa) = -1.11872 11.68218 5.28173
#
# Velocity S-wave (km/s) = -0.73203 2.36555 1.59059
# Velocity P-wave (km/s) = 4.55333 5.60471 5.10616
#
# Compressibility (1/GPa) = 0.02233404
#
# Stress axis : x y z
#
# Youngs Moduli (GPa) = 106.66183 71.44403 61.16779
#
# Poissons Ratio (x) = 0.26025 0.17179
# Poissons Ratio (y) = 0.38853 0.13715
# Poissons Ratio (z) = 0.29956 0.16019
#
# Static dielectric constant tensor:
#      x y z
#    x 3.852050 0.000000 0.000000 
#    y 0.000000 3.869930 0.000000 
#    z 0.000000 0.000000 3.660580 
# 
# 
# High freq. dielectric constant tensor:
#      x y z
#    x 1.830130 0.000000 0.000000 
#    y 0.000000 1.827510 0.000000 
#    z 0.000000 0.000000 1.826140 
# 
# From -- ./inp_files/30154.got.cif
#   From: 2010.03.12/outbox.cif.g09.slc.cpg/sg67_16_cif.got.tgz:30154.got - 2010.04.10 22:41:39.
