data_PCOD8280003
_publ_section_title
;
Structure prediction by ZEFSAII (Michael W. Deem and Ramdas Pophale) SiO2 
 PCOD8280003
Probable space group: C M M A
;
_chemical_formula_sum "Si O2"
_cell_formula_units_Z 80
_cell_length_a 25.181389
_cell_length_b 14.469193
_cell_length_c 11.486927
_cell_angle_alpha 90.000000
_cell_angle_beta 90.000000
_cell_angle_gamma 90.000000
_cell_volume 4185.312136
_symmetry_space_group_name_H-M "C M M A"
_symmetry_group_IT_number 67
_symmetry_cell_setting 'orthorhombic'
loop_
_space_group_symop_operation_xyz
x,y,z
-x,1/2-y,z
x,-y,-z
-x,1/2+y,-z
-x,-y,-z
x,1/2+y,-z
-x,y,z
x,1/2-y,z
1/2+x,1/2+y,z
1/2-x,-y,z
1/2+x,1/2-y,-z
1/2-x,y,-z
1/2-x,1/2-y,-z
1/2+x,y,-z
1/2-x,1/2+y,z
1/2+x,-y,z
loop_
_atom_site_type_symbol
_atom_site_label
_atom_site_fract_x
_atom_site_fract_y
_atom_site_fract_z
Si Si1 0.939281 0.557347 0.393053
Si Si2 0.165850 0.250000 0.839844
Si Si3 0.561639 0.902275 0.216548
Si Si4 0.209416 0.750000 0.849234
Si Si5 0.643319 0.604280 0.018195
Si Si6 0.383225 0.250000 0.397344
Si Si7 0.628450 0.250000 0.659783
O O1 0.912110 0.500000 0.500000
O O2 0.932534 0.504763 0.269738
O O3 0.917152 0.658963 0.378181
O O4 0.000000 0.570521 0.427327
O O5 0.228184 0.250000 0.864316
O O6 0.161785 0.250000 0.701153
O O7 0.137707 0.159082 0.895888
O O8 0.500000 0.872564 0.206552
O O9 0.587326 0.896360 0.087958
O O10 0.592687 0.837263 0.306142
O O11 0.187909 0.842832 0.908662
O O12 0.186672 0.750000 0.718287
O O13 0.663061 0.500000 0.000000
O O14 0.357308 0.250000 0.524214
#
# Coordination Sequence:
#
# PCOD8280003 Si02
#       7
#    16   8  16   8  16   8   8
#     4  10  20  34  55  84 116 148 185 224 273 336
#     4  11  24  39  56  85 113 146 189 243 293 329
#     4  10  20  35  57  85 116 150 188 228 273 337
#     4   9  22  40  58  83 107 140 197 239 286 341
#     4  10  20  38  61  82 111 148 190 230 281 338
#     4  12  22  36  58  83 118 148 185 239 283 329
#     4  10  20  35  58  83 108 150 188 233 284 335
#
# _framework density 19.114464000000002
#
# number of rings (size 3 to 8) (size 9 to 14) (size 15 to 20)
#    0.000    1.800    2.000    3.600    0.000    3.200 
#    0.000    2.000    0.000    0.000    0.000    0.000 
#    0.000    0.000    0.000    0.000    0.000    0.000 
#
# Total GULP energy -495837.371352 kJ/mol
# GULP energy per Si atom -12395.934284 kJ/mol
# Density = 1.907096 g / cm^3
# Si number density = 19.114464 Si / 1000 Ang^3
#
#
#
# Elastic Constant Matrix: (Units=GPa)
#
#
# Indices 1 2 3 4 5 6 
#
# 1 63.4380 24.7496 47.6353 0.0000 0.0000 0.0000
# 2 24.7496 137.7909 40.0737 0.0000 0.0000 0.0000
# 3 47.6353 40.0737 133.1769 0.0000 0.0000 0.0000
# 4 0.0000 0.0000 0.0000 20.4992 0.0000 0.0000
# 5 0.0000 0.0000 0.0000 0.0000 24.4818 0.0000
# 6 0.0000 0.0000 0.0000 0.0000 0.0000 8.4593
#
#
#
# Elastic Compliance Matrix: (Units=1/GPa)
#
#
# Indices 1 2 3 4 5 6 
#
# 1 0.021960 -0.001819 -0.007307 0.000000 0.000000 0.000000
# 2 -0.001819 0.008104 -0.001788 0.000000 0.000000 0.000000
# 3 -0.007307 -0.001788 0.010661 0.000000 0.000000 0.000000
# 4 0.000000 0.000000 0.000000 0.048783 0.000000 0.000000
# 5 0.000000 0.000000 0.000000 0.000000 0.040847 0.000000
# 6 0.000000 0.000000 0.000000 0.000000 0.000000 0.118213
#
#
# Mechanical properties :
#
#
# Convention : Reuss Voigt Hill
#
# Bulk Modulus (GPa) = 52.92156 62.14698 57.53427
# Shear Modulus (GPa) = 18.07049 25.48455 21.77752
#
# Velocity S-wave (km/s) = 3.07804 3.65534 3.37905
# Velocity P-wave (km/s) = 6.35447 7.09923 6.73715
#
# Compressibility (1/GPa) = 0.01889589
#
# Stress axis : x y z
#
# Youngs Moduli (GPa) = 45.53677 123.39432 93.80384
#
# Poissons Ratio (x) = 0.22448 0.68547
# Poissons Ratio (y) = 0.08284 0.16771
# Poissons Ratio (z) = 0.33276 0.22061
#
# Static dielectric constant tensor:
#      x y z
#    x 3.202250 0.000000 0.000000 
#    y 0.000000 3.716640 0.000000 
#    z 0.000000 0.000000 3.808240 
# 
# 
# High freq. dielectric constant tensor:
#      x y z
#    x 1.715620 0.000000 0.000000 
#    y 0.000000 1.757020 0.000000 
#    z 0.000000 0.000000 1.749420 
# 
# From -- ./inp_files/21707.got.cif
#   From: 2010.03.12/outbox.cif.g09.slc.cpg/sg67_11_cif.got.tgz:21707.got - 2010.04.10 22:41:39.
