data_PCOD8280882
_publ_section_title
;
Structure prediction by ZEFSAII (Michael W. Deem and Ramdas Pophale) SiO2 
 PCOD8280882
Probable space group: C M M A
;
_chemical_formula_sum "Si O2"
_cell_formula_units_Z 116
_cell_length_a 30.670956
_cell_length_b 17.148304
_cell_length_c 11.286759
_cell_angle_alpha 90.000000
_cell_angle_beta 90.000000
_cell_angle_gamma 90.000000
_cell_volume 5936.325947
_symmetry_space_group_name_H-M "C M M A"
_symmetry_group_IT_number 67
_symmetry_cell_setting 'orthorhombic'
loop_
_space_group_symop_operation_xyz
x,y,z
-x,1/2-y,z
x,-y,-z
-x,1/2+y,-z
-x,-y,-z
x,1/2+y,-z
-x,y,z
x,1/2-y,z
1/2+x,1/2+y,z
1/2-x,-y,z
1/2+x,1/2-y,-z
1/2-x,y,-z
1/2-x,1/2-y,-z
1/2+x,y,-z
1/2-x,1/2+y,z
1/2+x,-y,z
loop_
_atom_site_type_symbol
_atom_site_label
_atom_site_fract_x
_atom_site_fract_y
_atom_site_fract_z
Si Si1 0.373067 0.339014 0.575492
Si Si2 0.113861 0.659551 0.046222
Si Si3 0.296411 0.084347 0.447618
Si Si4 0.949346 0.056209 0.818445
Si Si5 0.750000 0.000000 0.000000
Si Si6 0.120119 0.929993 0.813033
Si Si7 0.814990 0.570678 0.174641
Si Si8 0.950682 0.838460 0.406426
O O1 0.371058 0.250000 0.616178
O O2 0.333505 0.355272 0.485910
O O3 0.369336 0.393147 0.687896
O O4 0.418974 0.358249 0.514027
O O5 0.102080 0.750000 0.053064
O O6 0.071365 0.609004 0.078950
O O7 0.154372 0.642720 0.134814
O O8 0.125054 0.636380 0.911882
O O9 0.250000 0.112282 0.500000
O O10 0.295059 0.083630 0.305029
O O11 0.308273 0.000000 0.500000
O O12 0.940403 0.100782 0.696260
O O13 0.000000 0.044544 0.845901
O O14 0.927261 0.971109 0.813676
O O15 0.723824 0.060158 0.082258
O O16 0.156680 0.993372 0.836264
O O17 0.942792 0.750000 0.359577
O O18 0.000000 0.848325 0.452956
#
# Coordination Sequence:
#
# PCOD8280882 Si02
#       8
#    16  16  16  16   4  16  16  16
#     4  11  23  39  61  87 123 165 200 247 311 366
#     4  11  23  40  60  87 122 158 202 251 303 360
#     4  11  23  39  62  93 124 157 201 251 299 360
#     4  10  21  37  62  90 117 155 206 255 297 356
#     4  12  20  40  68  92 114 156 206 254 300 356
#     4  11  22  40  58  86 123 157 199 253 302 359
#     4  11  22  39  67  88 116 160 201 249 301 354
#     4   9  19  36  58  87 120 155 199 250 303 360
#
# _framework density 19.540706
#
# number of rings (size 3 to 8) (size 9 to 14) (size 15 to 20)
#    0.000    1.379    2.759    4.552    0.000    4.414 
#    0.000    1.724    0.000    2.483    0.000    0.000 
#    0.000    0.000    0.000    0.000    0.000    0.000 
#
# Total GULP energy -719383.844989 kJ/mol
# GULP energy per Si atom -12403.169741 kJ/mol
# Density = 1.949623 g / cm^3
# Si number density = 19.540706 Si / 1000 Ang^3
#
#
#
# Elastic Constant Matrix: (Units=GPa)
#
#
# Indices 1 2 3 4 5 6 
#
# 1 108.5076 22.8797 38.9004 0.0000 0.0000 0.0000
# 2 22.8797 60.0358 22.3674 0.0000 0.0000 0.0000
# 3 38.9004 22.3674 113.9554 0.0000 0.0000 0.0000
# 4 0.0000 0.0000 0.0000 13.6493 0.0000 0.0000
# 5 0.0000 0.0000 0.0000 0.0000 30.2963 0.0000
# 6 0.0000 0.0000 0.0000 0.0000 0.0000 17.5922
#
#
#
# Elastic Compliance Matrix: (Units=1/GPa)
#
#
# Indices 1 2 3 4 5 6 
#
# 1 0.010983 -0.003009 -0.003159 0.000000 0.000000 0.000000
# 2 -0.003009 0.018795 -0.002662 0.000000 0.000000 0.000000
# 3 -0.003159 -0.002662 0.010376 0.000000 0.000000 0.000000
# 4 0.000000 0.000000 0.000000 0.073264 0.000000 0.000000
# 5 0.000000 0.000000 0.000000 0.000000 0.033007 0.000000
# 6 0.000000 0.000000 0.000000 0.000000 0.000000 0.056843
#
#
# Mechanical properties :
#
#
# Convention : Reuss Voigt Hill
#
# Bulk Modulus (GPa) = 44.45384 50.08818 47.27101
# Shear Modulus (GPa) = 21.88899 25.53100 23.70999
#
# Velocity S-wave (km/s) = 3.35053 3.61855 3.48712
# Velocity P-wave (km/s) = 6.14547 6.56863 6.36057
#
# Compressibility (1/GPa) = 0.02249524
#
# Stress axis : x y z
#
# Youngs Moduli (GPa) = 91.05218 53.20519 96.37535
#
# Poissons Ratio (x) = 0.16008 0.30441
# Poissons Ratio (y) = 0.27395 0.25656
# Poissons Ratio (z) = 0.28759 0.14164
#
# Static dielectric constant tensor:
#      x y z
#    x 3.702170 0.000000 0.000000 
#    y 0.000000 3.470170 0.000000 
#    z 0.000000 0.000000 3.611340 
# 
# 
# High freq. dielectric constant tensor:
#      x y z
#    x 1.768460 0.000000 0.000000 
#    y 0.000000 1.750810 0.000000 
#    z 0.000000 0.000000 1.770180 
# 
# From -- ./inp_files/23965.got.cif
#   From: 2010.03.12/outbox.cif.g09.slc.cpg/sg67_12_cif.got.tgz:23965.got - 2010.04.10 22:41:39.
