data_PCOD8280280
_publ_section_title
;
Structure prediction by ZEFSAII (Michael W. Deem and Ramdas Pophale) SiO2 
 PCOD8280280
Probable space group: C M M A
;
_chemical_formula_sum "Si O2"
_cell_formula_units_Z 96
_cell_length_a 14.687791
_cell_length_b 22.400197
_cell_length_c 14.150844
_cell_angle_alpha 90.000000
_cell_angle_beta 90.000000
_cell_angle_gamma 90.000000
_cell_volume 4655.760862
_symmetry_space_group_name_H-M "C M M A"
_symmetry_group_IT_number 67
_symmetry_cell_setting 'orthorhombic'
loop_
_space_group_symop_operation_xyz
x,y,z
-x,1/2-y,z
x,-y,-z
-x,1/2+y,-z
-x,-y,-z
x,1/2+y,-z
-x,y,z
x,1/2-y,z
1/2+x,1/2+y,z
1/2-x,-y,z
1/2+x,1/2-y,-z
1/2-x,y,-z
1/2-x,1/2-y,-z
1/2+x,y,-z
1/2-x,1/2+y,z
1/2+x,-y,z
loop_
_atom_site_type_symbol
_atom_site_label
_atom_site_fract_x
_atom_site_fract_y
_atom_site_fract_z
Si Si1 0.105685 0.250000 0.248792
Si Si2 0.149636 0.378412 0.211362
Si Si3 0.891335 0.874266 0.457416
Si Si4 0.899133 0.045407 0.373517
Si Si5 0.500000 0.579780 0.077268
Si Si6 0.896514 0.250000 0.470526
Si Si7 0.000000 0.057014 0.868272
Si Si8 0.336080 0.068436 0.271209
O O1 0.160769 0.307127 0.210461
O O2 0.110803 0.250000 0.359892
O O3 0.000000 0.250000 0.214387
O O4 0.091756 0.397807 0.303663
O O5 0.244164 0.414944 0.215584
O O6 0.093516 0.393412 0.117341
O O7 0.859432 0.928817 0.527300
O O8 0.850059 0.810526 0.489697
O O9 0.852615 0.883339 0.353053
O O10 0.000000 0.874015 0.459940
O O11 0.000000 0.016916 0.387421
O O12 0.834563 0.996286 0.323681
O O13 0.500000 0.511344 0.104889
O O14 0.500000 0.593904 0.965656
O O15 0.000000 0.250000 0.505737
O O16 0.087692 0.072981 0.807733
#
# Coordination Sequence:
#
# PCOD8280280 Si02
#       8
#     8  16  16  16   8   8   8  16
#     4  11  20  41  69  91 126 177 222 276 313 356
#     4  12  23  39  68  97 131 161 220 274 323 383
#     4  10  20  35  60  90 134 184 220 259 310 377
#     4  11  19  37  62  92 133 178 213 257 311 384
#     4  11  24  45  69  99 119 167 216 280 338 385
#     4   9  18  33  59  89 123 173 228 263 298 362
#     4  11  24  44  70  92 134 163 210 268 343 407
#     4  12  23  38  62  97 137 174 207 262 331 397
#
# _framework density 20.619616000000001
#
# number of rings (size 3 to 8) (size 9 to 14) (size 15 to 20)
#    0.000    1.000    6.667    1.000    0.000    3.333 
#    0.000    4.167    0.000    5.000    0.000    0.000 
#    0.000    0.000    0.000    0.000    0.000    0.000 
#
# Total GULP energy -594999.591165 kJ/mol
# GULP energy per Si atom -12395.824816 kJ/mol
# Density = 2.057268 g / cm^3
# Si number density = 20.619616 Si / 1000 Ang^3
#
#
#
# Elastic Constant Matrix: (Units=GPa)
#
#
# Indices 1 2 3 4 5 6 
#
# 1 113.2138 50.1137 58.0178 0.0000 0.0000 0.0000
# 2 50.1137 134.8720 47.9191 0.0000 0.0000 0.0000
# 3 58.0178 47.9191 137.2241 0.0000 0.0000 0.0000
# 4 0.0000 0.0000 0.0000 24.2953 0.0000 0.0000
# 5 0.0000 0.0000 0.0000 0.0000 7.5676 0.0000
# 6 0.0000 0.0000 0.0000 0.0000 0.0000 29.6631
#
#
#
# Elastic Compliance Matrix: (Units=1/GPa)
#
#
# Indices 1 2 3 4 5 6 
#
# 1 0.012324 -0.003114 -0.004123 0.000000 0.000000 0.000000
# 2 -0.003114 0.009252 -0.001914 0.000000 0.000000 0.000000
# 3 -0.004123 -0.001914 0.009699 0.000000 0.000000 0.000000
# 4 0.000000 0.000000 0.000000 0.041160 0.000000 0.000000
# 5 0.000000 0.000000 0.000000 0.000000 0.132143 0.000000
# 6 0.000000 0.000000 0.000000 0.000000 0.000000 0.033712
#
#
# Mechanical properties :
#
#
# Convention : Reuss Voigt Hill
#
# Bulk Modulus (GPa) = 77.08899 77.49009 77.28954
# Shear Modulus (GPa) = 19.16320 27.58916 23.37618
#
# Velocity S-wave (km/s) = 3.05186 3.66184 3.37068
# Velocity P-wave (km/s) = 7.06299 7.45259 7.26041
#
# Compressibility (1/GPa) = 0.01297202
#
# Stress axis : x y z
#
# Youngs Moduli (GPa) = 81.14003 108.08883 103.10385
#
# Poissons Ratio (x) = 0.33663 0.42511
# Poissons Ratio (y) = 0.25270 0.19734
# Poissons Ratio (z) = 0.33455 0.20688
#
# Static dielectric constant tensor:
#      x y z
#    x 3.594420 0.000000 0.000000 
#    y 0.000000 3.907330 0.000000 
#    z 0.000000 0.000000 3.813790 
# 
# 
# High freq. dielectric constant tensor:
#      x y z
#    x 1.801080 0.000000 0.000000 
#    y 0.000000 1.807100 0.000000 
#    z 0.000000 0.000000 1.785160 
# 
# From -- ./inp_files/27315.got.cif
#   From: 2010.03.12/outbox.cif.g09.slc.cpg/sg67_14_cif.got.tgz:27315.got - 2010.04.10 22:41:39.
