data_PCOD8280094
_publ_section_title
;
Structure prediction by ZEFSAII (Michael W. Deem and Ramdas Pophale) SiO2 
 PCOD8280094
Probable space group: C M M A
;
_chemical_formula_sum "Si O2"
_cell_formula_units_Z 104
_cell_length_a 30.926611
_cell_length_b 8.576359
_cell_length_c 19.585815
_cell_angle_alpha 90.000000
_cell_angle_beta 90.000000
_cell_angle_gamma 90.000000
_cell_volume 5194.896887
_symmetry_space_group_name_H-M "C M M A"
_symmetry_group_IT_number 67
_symmetry_cell_setting 'orthorhombic'
loop_
_space_group_symop_operation_xyz
x,y,z
-x,1/2-y,z
x,-y,-z
-x,1/2+y,-z
-x,-y,-z
x,1/2+y,-z
-x,y,z
x,1/2-y,z
1/2+x,1/2+y,z
1/2-x,-y,z
1/2+x,1/2-y,-z
1/2-x,y,-z
1/2-x,1/2-y,-z
1/2+x,y,-z
1/2-x,1/2+y,z
1/2+x,-y,z
loop_
_atom_site_type_symbol
_atom_site_label
_atom_site_fract_x
_atom_site_fract_y
_atom_site_fract_z
Si Si1 0.612389 0.433343 0.808877
Si Si2 0.296090 0.068383 0.230769
Si Si3 0.000000 0.435357 0.577069
Si Si4 0.124695 0.570909 0.567132
Si Si5 0.075203 0.070413 0.676652
Si Si6 0.548753 0.934578 0.073232
Si Si7 0.794887 0.066786 0.610033
O O1 0.618442 0.250000 0.809566
O O2 0.660677 0.504912 0.807301
O O3 0.580346 0.477201 0.746433
O O4 0.585385 0.494675 0.874205
O O5 0.294353 0.250000 0.215984
O O6 0.301597 0.028873 0.309946
O O7 0.250000 0.000000 0.203252
O O8 0.000000 0.500000 0.500000
O O9 0.039718 0.496812 0.623230
O O10 0.000000 0.250000 0.571709
O O11 0.100835 0.500000 0.500000
O O12 0.110908 0.750000 0.577321
O O13 0.117912 0.460002 0.633061
O O14 0.175544 0.543191 0.561922
O O15 0.067396 0.250000 0.694746
O O16 0.500000 0.992179 0.093477
O O17 0.549181 0.750000 0.070589
O O18 0.562153 0.000000 0.000000
O O19 0.800710 0.250000 0.594509
O O20 0.750000 0.000000 0.585859
#
# Coordination Sequence:
#
# PCOD8280094 Si02
#       7
#    16  16   8  16  16  16  16
#     4  11  22  36  60  92 125 159 200 248 298 352
#     4  10  20  35  58  85 119 156 197 245 298 356
#     4  10  24  42  60  80 109 148 195 246 301 362
#     4  12  24  38  56  77 105 143 186 237 294 350
#     4  11  23  40  58  83 113 146 193 243 293 352
#     4   9  20  39  62  92 129 167 205 242 288 349
#     4  10  20  35  54  77 107 142 184 234 286 347
#
# _framework density 20.019646999999999
#
# number of rings (size 3 to 8) (size 9 to 14) (size 15 to 20)
#    0.000    1.538    1.538    3.692    1.077    5.231 
#    0.000    1.538    0.000    0.462    0.000    3.231 
#    0.000    0.000    0.000    0.000    0.000    0.000 
#
# Total GULP energy -644271.923003 kJ/mol
# GULP energy per Si atom -12389.844673 kJ/mol
# Density = 1.997408 g / cm^3
# Si number density = 20.019647 Si / 1000 Ang^3
#
#
#
# Elastic Constant Matrix: (Units=GPa)
#
#
# Indices 1 2 3 4 5 6 
#
# 1 116.5975 29.7816 58.3460 0.0000 0.0000 0.0000
# 2 29.7816 63.0786 24.1601 0.0000 0.0000 0.0000
# 3 58.3460 24.1601 110.5842 0.0000 0.0000 0.0000
# 4 0.0000 0.0000 0.0000 29.4625 0.0000 0.0000
# 5 0.0000 0.0000 0.0000 0.0000 29.1945 0.0000
# 6 0.0000 0.0000 0.0000 0.0000 0.0000 28.7789
#
#
#
# Elastic Compliance Matrix: (Units=1/GPa)
#
#
# Indices 1 2 3 4 5 6 
#
# 1 0.012377 -0.003648 -0.005734 0.000000 0.000000 0.000000
# 2 -0.003648 0.018376 -0.002090 0.000000 0.000000 0.000000
# 3 -0.005734 -0.002090 0.012525 0.000000 0.000000 0.000000
# 4 0.000000 0.000000 0.000000 0.033941 0.000000 0.000000
# 5 0.000000 0.000000 0.000000 0.000000 0.034253 0.000000
# 6 0.000000 0.000000 0.000000 0.000000 0.000000 0.034748
#
#
# Mechanical properties :
#
#
# Convention : Reuss Voigt Hill
#
# Bulk Modulus (GPa) = 49.17589 57.20398 53.18993
# Shear Modulus (GPa) = 28.41856 29.35200 28.88528
#
# Velocity S-wave (km/s) = 3.77176 3.83320 3.80260
# Velocity P-wave (km/s) = 6.60192 6.94458 6.77542
#
# Compressibility (1/GPa) = 0.02033517
#
# Stress axis : x y z
#
# Youngs Moduli (GPa) = 80.79300 54.41875 79.84273
#
# Poissons Ratio (x) = 0.19851 0.45778
# Poissons Ratio (y) = 0.29471 0.16688
# Poissons Ratio (z) = 0.46323 0.11374
#
# Static dielectric constant tensor:
#      x y z
#    x 4.201110 0.000000 0.000000 
#    y 0.000000 3.504690 0.000000 
#    z 0.000000 0.000000 3.304150 
# 
# 
# High freq. dielectric constant tensor:
#      x y z
#    x 1.798760 0.000000 0.000000 
#    y 0.000000 1.780490 0.000000 
#    z 0.000000 0.000000 1.757260 
# 
# From -- ./inp_files/40181.got.cif
#   From: 2010.03.12/outbox.cif.g09.slc.cpg/sg67_21_cif.got.tgz:40181.got - 2010.04.10 22:41:39.
