data_PCOD8280495
_publ_section_title
;
Structure prediction by ZEFSAII (Michael W. Deem and Ramdas Pophale) SiO2 
 PCOD8280495
Probable space group: C M M A
;
_chemical_formula_sum "Si O2"
_cell_formula_units_Z 112
_cell_length_a 15.164140
_cell_length_b 28.054166
_cell_length_c 12.159825
_cell_angle_alpha 90.000000
_cell_angle_beta 90.000000
_cell_angle_gamma 90.000000
_cell_volume 5172.999930
_symmetry_space_group_name_H-M "C M M A"
_symmetry_group_IT_number 67
_symmetry_cell_setting 'orthorhombic'
loop_
_space_group_symop_operation_xyz
x,y,z
-x,1/2-y,z
x,-y,-z
-x,1/2+y,-z
-x,-y,-z
x,1/2+y,-z
-x,y,z
x,1/2-y,z
1/2+x,1/2+y,z
1/2-x,-y,z
1/2+x,1/2-y,-z
1/2-x,y,-z
1/2-x,1/2-y,-z
1/2+x,y,-z
1/2-x,1/2+y,z
1/2+x,-y,z
loop_
_atom_site_type_symbol
_atom_site_label
_atom_site_fract_x
_atom_site_fract_y
_atom_site_fract_z
Si Si1 0.782836 0.694355 0.754026
Si Si2 0.901688 0.451976 0.953111
Si Si3 0.398131 0.447013 0.462083
Si Si4 0.599275 0.353547 0.572528
Si Si5 0.285417 0.946909 0.747092
Si Si6 0.902082 0.695260 0.340470
Si Si7 0.183600 0.385914 0.099895
O O1 0.802734 0.750000 0.764916
O O2 0.831845 0.674044 0.647398
O O3 0.677386 0.683429 0.744699
O O4 0.821184 0.669731 0.865793
O O5 0.856851 0.437527 0.840637
O O6 0.000000 0.464673 0.920149
O O7 0.854947 0.500000 0.000000
O O8 0.903244 0.410088 0.047422
O O9 0.373564 0.500000 0.500000
O O10 0.500000 0.444297 0.421887
O O11 0.382643 0.410721 0.564488
O O12 0.331354 0.431524 0.366015
O O13 0.500000 0.344087 0.617061
O O14 0.609473 0.335809 0.448423
O O15 0.206372 0.911537 0.783150
O O16 0.250000 0.000000 0.739762
O O17 0.893599 0.750000 0.377031
O O18 0.000000 0.685757 0.287555
O O19 0.250000 0.395990 0.000000
#
# Coordination Sequence:
#
# PCOD8280495 Si02
#       7
#    16  16  16  16  16  16  16
#     4  11  23  39  62  92 122 162 212 266 325 380
#     4  10  20  37  62  88 119 160 206 254 312 375
#     4  10  23  40  56  84 124 166 207 246 300 371
#     4  10  21  37  58  84 123 165 205 255 308 376
#     4  11  21  36  59  88 119 158 202 252 306 373
#     4   9  18  35  60  88 117 154 203 256 309 373
#     4  10  23  40  60  88 119 155 203 262 311 371
#
# _framework density 21.650880000000001
#
# number of rings (size 3 to 8) (size 9 to 14) (size 15 to 20)
#    0.000    1.857    1.429    2.143    2.000    3.143 
#    0.000    2.857    0.000    0.000    0.000    2.000 
#    0.000    0.000    0.000    0.000    0.000    0.000 
#
# Total GULP energy -693974.713721 kJ/mol
# GULP energy per Si atom -12392.405602 kJ/mol
# Density = 2.160160 g / cm^3
# Si number density = 21.650880 Si / 1000 Ang^3
#
#
#
# Elastic Constant Matrix: (Units=GPa)
#
#
# Indices 1 2 3 4 5 6 
#
# 1 75.4459 25.7539 21.1865 0.0000 0.0000 0.0000
# 2 25.7539 116.4676 24.2201 0.0000 0.0000 0.0000
# 3 21.1865 24.2201 66.0533 0.0000 0.0000 0.0000
# 4 0.0000 0.0000 0.0000 34.5087 0.0000 0.0000
# 5 0.0000 0.0000 0.0000 0.0000 13.8153 0.0000
# 6 0.0000 0.0000 0.0000 0.0000 0.0000 23.8538
#
#
#
# Elastic Compliance Matrix: (Units=1/GPa)
#
#
# Indices 1 2 3 4 5 6 
#
# 1 0.015234 -0.002547 -0.003952 0.000000 0.000000 0.000000
# 2 -0.002547 0.009721 -0.002747 0.000000 0.000000 0.000000
# 3 -0.003952 -0.002747 0.017414 0.000000 0.000000 0.000000
# 4 0.000000 0.000000 0.000000 0.028978 0.000000 0.000000
# 5 0.000000 0.000000 0.000000 0.000000 0.072383 0.000000
# 6 0.000000 0.000000 0.000000 0.000000 0.000000 0.041922
#
#
# Mechanical properties :
#
#
# Convention : Reuss Voigt Hill
#
# Bulk Modulus (GPa) = 41.88354 44.47643 43.17999
# Shear Modulus (GPa) = 23.57335 26.88932 25.23134
#
# Velocity S-wave (km/s) = 3.30327 3.52795 3.41746
# Velocity P-wave (km/s) = 5.82544 6.09774 5.96314
#
# Compressibility (1/GPa) = 0.02387573
#
# Stress axis : x y z
#
# Youngs Moduli (GPa) = 65.64370 102.87477 57.42362
#
# Poissons Ratio (x) = 0.26198 0.22696
# Poissons Ratio (y) = 0.16717 0.15777
# Poissons Ratio (z) = 0.25945 0.28264
#
# Static dielectric constant tensor:
#      x y z
#    x 4.043520 0.000000 0.000000 
#    y 0.000000 4.211750 0.000000 
#    z 0.000000 0.000000 3.660360 
# 
# 
# High freq. dielectric constant tensor:
#      x y z
#    x 1.848180 0.000000 0.000000 
#    y 0.000000 1.860920 0.000000 
#    z 0.000000 0.000000 1.826300 
# 
# From -- ./inp_files/18647.got.cif
#   From: 2010.03.12/outbox.cif.g09.slc.cpg/sg67_10_cif.got.tgz:18647.got - 2010.04.10 22:41:39.
