data_PCOD8280123
_publ_section_title
;
Structure prediction by ZEFSAII (Michael W. Deem and Ramdas Pophale) SiO2 
 PCOD8280123
Probable space group: C M M A
;
_chemical_formula_sum "Si O2"
_cell_formula_units_Z 88
_cell_length_a 16.106053
_cell_length_b 8.981682
_cell_length_c 29.866086
_cell_angle_alpha 90.000000
_cell_angle_beta 90.000000
_cell_angle_gamma 90.000000
_cell_volume 4320.411465
_symmetry_space_group_name_H-M "C M M A"
_symmetry_group_IT_number 67
_symmetry_cell_setting 'orthorhombic'
loop_
_space_group_symop_operation_xyz
x,y,z
-x,1/2-y,z
x,-y,-z
-x,1/2+y,-z
-x,-y,-z
x,1/2+y,-z
-x,y,z
x,1/2-y,z
1/2+x,1/2+y,z
1/2-x,-y,z
1/2+x,1/2-y,-z
1/2-x,y,-z
1/2-x,1/2-y,-z
1/2+x,y,-z
1/2-x,1/2+y,z
1/2+x,-y,z
loop_
_atom_site_type_symbol
_atom_site_label
_atom_site_fract_x
_atom_site_fract_y
_atom_site_fract_z
Si Si1 0.837144 0.924673 0.632784
Si Si2 0.905588 0.578764 0.185071
Si Si3 0.334765 0.927067 0.101417
Si Si4 0.096336 0.587103 0.541397
Si Si5 0.160563 0.926202 0.731470
Si Si6 0.000000 0.925553 0.952158
O O1 0.824831 0.750000 0.629650
O O2 0.891365 0.985206 0.590850
O O3 0.875760 0.962023 0.681660
O O4 0.750000 0.000000 0.627719
O O5 0.876192 0.750000 0.187715
O O6 0.846174 0.489627 0.151411
O O7 0.901365 0.501748 0.233500
O O8 0.000000 0.567768 0.168058
O O9 0.324785 0.750000 0.102508
O O10 0.415688 0.976425 0.073008
O O11 0.250000 0.000000 0.081267
O O12 0.138996 0.500000 0.500000
O O13 0.137464 0.750000 0.541130
O O14 0.000000 0.598614 0.531648
O O15 0.166808 0.750000 0.740136
O O16 0.250000 0.000000 0.737684
O O17 0.000000 0.750000 0.957963
O O18 0.000000 0.000000 0.000000
#
# Coordination Sequence:
#
# PCOD8280123 Si02
#       6
#    16  16  16  16  16   8
#     4   9  19  34  52  74 101 135 173 218 270 327
#     4  11  23  38  58  86 119 156 198 247 298 351
#     4  11  23  42  66  95 128 168 213 258 309 366
#     4   9  18  33  51  71  96 127 167 213 263 323
#     4  10  20  35  55  78 108 146 186 230 283 343
#     4  10  24  44  68  96 132 170 212 262 311 364
#
# _framework density 20.368431000000001
#
# number of rings (size 3 to 8) (size 9 to 14) (size 15 to 20)
#    0.000    2.000    0.909    2.182    0.000    5.455 
#    0.000    5.455    0.000    2.182    0.000    0.000 
#    0.000    0.000    0.000    0.000    0.000    0.000 
#
# Total GULP energy -545349.214703 kJ/mol
# GULP energy per Si atom -12394.300334 kJ/mol
# Density = 2.032207 g / cm^3
# Si number density = 20.368431 Si / 1000 Ang^3
#
#
#
# Elastic Constant Matrix: (Units=GPa)
#
#
# Indices 1 2 3 4 5 6 
#
# 1 89.6574 39.1335 48.9378 0.0000 0.0000 0.0000
# 2 39.1335 81.7110 53.7654 0.0000 0.0000 0.0000
# 3 48.9378 53.7654 147.5854 0.0000 0.0000 0.0000
# 4 0.0000 0.0000 0.0000 35.7317 0.0000 0.0000
# 5 0.0000 0.0000 0.0000 0.0000 28.4435 0.0000
# 6 0.0000 0.0000 0.0000 0.0000 0.0000 27.6665
#
#
#
# Elastic Compliance Matrix: (Units=1/GPa)
#
#
# Indices 1 2 3 4 5 6 
#
# 1 0.015123 -0.005186 -0.003125 0.000000 0.000000 0.000000
# 2 -0.005186 0.017875 -0.004792 0.000000 0.000000 0.000000
# 3 -0.003125 -0.004792 0.009558 0.000000 0.000000 0.000000
# 4 0.000000 0.000000 0.000000 0.027986 0.000000 0.000000
# 5 0.000000 0.000000 0.000000 0.000000 0.035157 0.000000
# 6 0.000000 0.000000 0.000000 0.000000 0.000000 0.036145
#
#
# Mechanical properties :
#
#
# Convention : Reuss Voigt Hill
#
# Bulk Modulus (GPa) = 61.16751 66.95855 64.06303
# Shear Modulus (GPa) = 28.81800 30.17614 29.49707
#
# Velocity S-wave (km/s) = 3.76551 3.85322 3.80962
# Velocity P-wave (km/s) = 7.00008 7.26233 7.13241
#
# Compressibility (1/GPa) = 0.01634855
#
# Stress axis : x y z
#
# Youngs Moduli (GPa) = 66.12351 55.94256 104.62592
#
# Poissons Ratio (x) = 0.29015 0.32698
# Poissons Ratio (y) = 0.34295 0.50139
# Poissons Ratio (z) = 0.20665 0.26809
#
# Static dielectric constant tensor:
#      x y z
#    x 3.538490 0.000000 0.000000 
#    y 0.000000 3.664950 0.000000 
#    z 0.000000 0.000000 3.984750 
# 
# 
# High freq. dielectric constant tensor:
#      x y z
#    x 1.781560 0.000000 0.000000 
#    y 0.000000 1.795420 0.000000 
#    z 0.000000 0.000000 1.807780 
# 
# From -- ./inp_files/45795.got.cif
#   From: 2010.03.12/outbox.cif.g09.slc.cpg/sg67_23_cif.got.tgz:45795.got - 2010.04.10 22:41:39.
