data_PCOD8280998
_publ_section_title
;
Structure prediction by ZEFSAII (Michael W. Deem and Ramdas Pophale) SiO2 
 PCOD8280998
Probable space group: C M M A
;
_chemical_formula_sum "Si O2"
_cell_formula_units_Z 112
_cell_length_a 17.168287
_cell_length_b 28.629193
_cell_length_c 11.487909
_cell_angle_alpha 90.000000
_cell_angle_beta 90.000000
_cell_angle_gamma 90.000000
_cell_volume 5646.470425
_symmetry_space_group_name_H-M "C M M A"
_symmetry_group_IT_number 67
_symmetry_cell_setting 'orthorhombic'
loop_
_space_group_symop_operation_xyz
x,y,z
-x,1/2-y,z
x,-y,-z
-x,1/2+y,-z
-x,-y,-z
x,1/2+y,-z
-x,y,z
x,1/2-y,z
1/2+x,1/2+y,z
1/2-x,-y,z
1/2+x,1/2-y,-z
1/2-x,y,-z
1/2-x,1/2-y,-z
1/2+x,y,-z
1/2-x,1/2+y,z
1/2+x,-y,z
loop_
_atom_site_type_symbol
_atom_site_label
_atom_site_fract_x
_atom_site_fract_y
_atom_site_fract_z
Si Si1 0.590598 0.952971 0.937476
Si Si2 0.586832 0.892301 0.507741
Si Si3 0.325208 0.619445 0.082012
Si Si4 0.590331 0.803333 0.224219
Si Si5 0.145968 0.539023 0.312288
Si Si6 0.816355 0.936733 0.686156
Si Si7 0.158789 0.801949 0.519521
O O1 0.500000 0.957933 0.909664
O O2 0.636983 0.944402 0.819119
O O3 0.606913 0.907394 0.013338
O O4 0.621785 0.000000 0.000000
O O5 0.500000 0.888772 0.459295
O O6 0.587669 0.932766 0.604552
O O7 0.643351 0.900370 0.398835
O O8 0.613986 0.841443 0.557151
O O9 0.362628 0.667464 0.127207
O O10 0.303355 0.585538 0.188021
O O11 0.250000 0.628941 0.000000
O O12 0.500000 0.819965 0.235586
O O13 0.593225 0.750000 0.181775
O O14 0.634509 0.808849 0.346446
O O15 0.129946 0.483374 0.314547
O O16 0.231446 0.550231 0.361305
O O17 0.133831 0.750000 0.477170
O O18 0.250000 0.809021 0.500000
#
# Coordination Sequence:
#
# PCOD8280998 Si02
#       7
#    16  16  16  16  16  16  16
#     4  11  23  38  59  87 123 163 207 256 307 367
#     4  12  25  39  61  92 127 162 206 261 321 380
#     4  12  23  38  65  94 123 164 213 265 312 375
#     4  10  22  42  66  94 128 167 212 264 326 391
#     4  11  23  41  60  86 123 168 211 251 306 378
#     4  11  23  39  62  84 122 166 209 255 309 372
#     4  10  21  38  64  93 124 163 210 262 318 384
#
# _framework density 19.835398999999999
#
# number of rings (size 3 to 8) (size 9 to 14) (size 15 to 20)
#    0.000    1.000    4.286    3.000    0.000    4.857 
#    0.000    0.000    0.000    0.857    0.000    0.000 
#    0.000    0.000    0.000    0.000    0.000    0.000 
#
# Total GULP energy -694318.388277 kJ/mol
# GULP energy per Si atom -12398.542648 kJ/mol
# Density = 1.979025 g / cm^3
# Si number density = 19.835399 Si / 1000 Ang^3
#
#
#
# Elastic Constant Matrix: (Units=GPa)
#
#
# Indices 1 2 3 4 5 6 
#
# 1 111.4841 52.6140 43.6020 0.0000 0.0000 0.0000
# 2 52.6140 132.0800 39.5700 0.0000 0.0000 0.0000
# 3 43.6020 39.5700 81.7688 0.0000 0.0000 0.0000
# 4 0.0000 0.0000 0.0000 31.3235 0.0000 0.0000
# 5 0.0000 0.0000 0.0000 0.0000 26.7100 0.0000
# 6 0.0000 0.0000 0.0000 0.0000 0.0000 27.4117
#
#
#
# Elastic Compliance Matrix: (Units=1/GPa)
#
#
# Indices 1 2 3 4 5 6 
#
# 1 0.012588 -0.003513 -0.005013 0.000000 0.000000 0.000000
# 2 -0.003513 0.009835 -0.002886 0.000000 0.000000 0.000000
# 3 -0.005013 -0.002886 0.016299 0.000000 0.000000 0.000000
# 4 0.000000 0.000000 0.000000 0.031925 0.000000 0.000000
# 5 0.000000 0.000000 0.000000 0.000000 0.037439 0.000000
# 6 0.000000 0.000000 0.000000 0.000000 0.000000 0.036481
#
#
# Mechanical properties :
#
#
# Convention : Reuss Voigt Hill
#
# Bulk Modulus (GPa) = 62.89600 66.32278 64.60939
# Shear Modulus (GPa) = 28.95352 29.72549 29.33951
#
# Velocity S-wave (km/s) = 3.82473 3.87539 3.85014
# Velocity P-wave (km/s) = 7.16119 7.31669 7.23936
#
# Compressibility (1/GPa) = 0.01589926
#
# Stress axis : x y z
#
# Youngs Moduli (GPa) = 79.43995 101.67548 61.35249
#
# Poissons Ratio (x) = 0.35716 0.30753
# Poissons Ratio (y) = 0.27905 0.17709
# Poissons Ratio (z) = 0.39819 0.29347
#
# Static dielectric constant tensor:
#      x y z
#    x 3.531530 0.000000 0.000000 
#    y 0.000000 3.899400 0.000000 
#    z 0.000000 0.000000 3.471320 
# 
# 
# High freq. dielectric constant tensor:
#      x y z
#    x 1.776570 0.000000 0.000000 
#    y 0.000000 1.786720 0.000000 
#    z 0.000000 0.000000 1.757080 
# 
# From -- ./inp_files/18570.got.cif
#   From: 2010.03.12/outbox.cif.g09.slc.cpg/sg67_10_cif.got.tgz:18570.got - 2010.04.10 22:41:39.
