data_PCOD8280047
_publ_section_title
;
Structure prediction by ZEFSAII (Michael W. Deem and Ramdas Pophale) SiO2 
 PCOD8280047
Probable space group: C M M A
;
_chemical_formula_sum "Si O2"
_cell_formula_units_Z 96
_cell_length_a 14.465518
_cell_length_b 14.848168
_cell_length_c 20.119864
_cell_angle_alpha 90.000000
_cell_angle_beta 90.000000
_cell_angle_gamma 90.000000
_cell_volume 4321.473991
_symmetry_space_group_name_H-M "C M M A"
_symmetry_group_IT_number 67
_symmetry_cell_setting 'orthorhombic'
loop_
_space_group_symop_operation_xyz
x,y,z
-x,1/2-y,z
x,-y,-z
-x,1/2+y,-z
-x,-y,-z
x,1/2+y,-z
-x,y,z
x,1/2-y,z
1/2+x,1/2+y,z
1/2-x,-y,z
1/2+x,1/2-y,-z
1/2-x,y,-z
1/2-x,1/2-y,-z
1/2+x,y,-z
1/2-x,1/2+y,z
1/2+x,-y,z
loop_
_atom_site_type_symbol
_atom_site_label
_atom_site_fract_x
_atom_site_fract_y
_atom_site_fract_z
Si Si1 0.603238 0.399644 0.521268
Si Si2 0.893132 0.854492 0.049061
Si Si3 0.102022 0.853388 0.283812
Si Si4 0.895187 0.652693 0.903265
Si Si5 0.651879 0.475713 0.166086
Si Si6 0.227517 0.350754 0.598308
O O1 0.586878 0.500000 0.500000
O O2 0.500000 0.358620 0.537507
O O3 0.675494 0.402016 0.583467
O O4 0.655017 0.346555 0.462743
O O5 0.882065 0.750000 0.068218
O O6 0.834374 0.915158 0.100149
O O7 0.000000 0.885687 0.056518
O O8 0.851284 0.872686 0.975183
O O9 0.125287 0.750000 0.262935
O O10 0.096608 0.918223 0.220067
O O11 0.175827 0.891391 0.337242
O O12 0.000000 0.856396 0.316661
O O13 0.854051 0.750000 0.877026
O O14 0.892578 0.572862 0.849728
O O15 0.000000 0.671698 0.922092
O O16 0.750000 0.500000 0.197115
O O17 0.257756 0.250000 0.614462
#
# Coordination Sequence:
#
# PCOD8280047 Si02
#       6
#    16  16  16  16  16  16
#     4  10  20  34  57  89 126 164 196 232 281 339
#     4   9  18  35  59  83 107 140 188 244 295 348
#     4  10  22  41  63  84 109 149 204 261 309 353
#     4   9  19  36  57  81 110 145 187 237 292 353
#     4  12  24  34  52  81 114 152 190 235 295 365
#     4  10  20  35  59  90 122 152 191 245 294 343
#
# _framework density 22.214642000000001
#
# number of rings (size 3 to 8) (size 9 to 14) (size 15 to 20)
#    0.000    2.000    0.000    6.000    0.000    8.667 
#    0.000    1.667    0.000    2.000    0.000    0.000 
#    0.000    0.000    0.000    0.000    0.000    0.000 
#
# Total GULP energy -594695.389669 kJ/mol
# GULP energy per Si atom -12389.487285 kJ/mol
# Density = 2.216408 g / cm^3
# Si number density = 22.214642 Si / 1000 Ang^3
#
#
#
# Elastic Constant Matrix: (Units=GPa)
#
#
# Indices 1 2 3 4 5 6 
#
# 1 123.8287 29.4020 44.0625 0.0000 0.0000 0.0000
# 2 29.4020 106.9327 53.3234 0.0000 0.0000 0.0000
# 3 44.0625 53.3234 106.2401 0.0000 0.0000 0.0000
# 4 0.0000 0.0000 0.0000 29.9965 0.0000 0.0000
# 5 0.0000 0.0000 0.0000 0.0000 16.5366 0.0000
# 6 0.0000 0.0000 0.0000 0.0000 0.0000 101.8466
#
#
#
# Elastic Compliance Matrix: (Units=1/GPa)
#
#
# Indices 1 2 3 4 5 6 
#
# 1 0.009534 -0.000866 -0.003519 0.000000 0.000000 0.000000
# 2 -0.000866 0.012552 -0.005941 0.000000 0.000000 0.000000
# 3 -0.003519 -0.005941 0.013854 0.000000 0.000000 0.000000
# 4 0.000000 0.000000 0.000000 0.033337 0.000000 0.000000
# 5 0.000000 0.000000 0.000000 0.000000 0.060472 0.000000
# 6 0.000000 0.000000 0.000000 0.000000 0.000000 0.009819
#
#
# Mechanical properties :
#
#
# Convention : Reuss Voigt Hill
#
# Bulk Modulus (GPa) = 65.41470 65.61971 65.51721
# Shear Modulus (GPa) = 30.24504 43.69019 36.96762
#
# Velocity S-wave (km/s) = 3.69384 4.43959 4.08378
# Velocity P-wave (km/s) = 6.90675 7.47550 7.19674
#
# Compressibility (1/GPa) = 0.01528708
#
# Stress axis : x y z
#
# Youngs Moduli (GPa) = 104.89179 79.66592 72.18140
#
# Poissons Ratio (x) = 0.06903 0.25401
# Poissons Ratio (y) = 0.09089 0.42882
# Poissons Ratio (z) = 0.36913 0.47328
#
# Static dielectric constant tensor:
#      x y z
#    x 4.183130 0.000000 0.000000 
#    y 0.000000 3.986510 0.000000 
#    z 0.000000 0.000000 3.675620 
# 
# 
# High freq. dielectric constant tensor:
#      x y z
#    x 1.875310 0.000000 0.000000 
#    y 0.000000 1.881270 0.000000 
#    z 0.000000 0.000000 1.837110 
# 
# From -- ./inp_files/38396.got.cif
#   From: 2010.03.12/outbox.cif.g09.slc.cpg/sg67_20_cif.got.tgz:38396.got - 2010.04.10 22:41:39.
