data_PCOD8280414
_publ_section_title
;
Structure prediction by ZEFSAII (Michael W. Deem and Ramdas Pophale) SiO2 
 PCOD8280414
Probable space group: C M M A
;
_chemical_formula_sum "Si O2"
_cell_formula_units_Z 88
_cell_length_a 9.564678
_cell_length_b 20.904667
_cell_length_c 23.072076
_cell_angle_alpha 90.000000
_cell_angle_beta 90.000000
_cell_angle_gamma 90.000000
_cell_volume 4613.178734
_symmetry_space_group_name_H-M "C M M A"
_symmetry_group_IT_number 67
_symmetry_cell_setting 'orthorhombic'
loop_
_space_group_symop_operation_xyz
x,y,z
-x,1/2-y,z
x,-y,-z
-x,1/2+y,-z
-x,-y,-z
x,1/2+y,-z
-x,y,z
x,1/2-y,z
1/2+x,1/2+y,z
1/2-x,-y,z
1/2+x,1/2-y,-z
1/2-x,y,-z
1/2-x,1/2-y,-z
1/2+x,y,-z
1/2-x,1/2+y,z
1/2+x,-y,z
loop_
_atom_site_type_symbol
_atom_site_label
_atom_site_fract_x
_atom_site_fract_y
_atom_site_fract_z
Si Si1 0.500000 0.408407 0.944461
Si Si2 0.662507 0.175291 0.242226
Si Si3 0.269260 0.870133 0.877964
Si Si4 0.000000 0.557043 0.070072
Si Si5 0.831907 0.561096 0.559873
Si Si6 0.839703 0.323313 0.353778
Si Si7 0.851488 0.750000 0.053361
O O1 0.625659 0.376562 0.911053
O O2 0.500000 0.483800 0.944539
O O3 0.500000 0.395073 0.013610
O O4 0.500000 0.154837 0.245427
O O5 0.678353 0.250000 0.230059
O O6 0.743025 0.137113 0.191296
O O7 0.738471 0.156702 0.301580
O O8 0.362728 0.931811 0.891697
O O9 0.344696 0.808939 0.903424
O O10 0.750000 0.500000 0.589143
O O11 0.750000 0.572711 0.500000
O O12 0.809245 0.626244 0.595504
O O13 0.000000 0.547570 0.552034
O O14 0.808641 0.250000 0.374603
O O15 0.000000 0.328697 0.332742
O O16 0.000000 0.750000 0.021795
O O17 0.750000 0.750000 0.000000
#
# Coordination Sequence:
#
# PCOD8280414 Si02
#       7
#     8  16  16   8  16  16   8
#     4  11  26  39  61  85 107 150 194 231 294 359
#     4  10  20  38  59  83 113 152 190 234 294 351
#     4  12  23  39  61  85 113 145 188 239 295 356
#     4  11  22  45  61  77 113 150 188 239 288 357
#     4  10  20  36  60  90 127 165 202 243 292 340
#     4   9  20  38  61  88 119 156 200 248 293 343
#     4  12  24  38  58  86 118 142 179 240 303 358
#
# _framework density 19.075783000000001
#
# number of rings (size 3 to 8) (size 9 to 14) (size 15 to 20)
#    0.000    1.455    2.727    3.273    2.545    3.273 
#    0.000    1.818    0.000    0.000    0.000    0.000 
#    0.000    0.000    0.000    0.000    0.000    0.000 
#
# Total GULP energy -545312.869602 kJ/mol
# GULP energy per Si atom -12393.474309 kJ/mol
# Density = 1.903237 g / cm^3
# Si number density = 19.075783 Si / 1000 Ang^3
#
#
#
# Elastic Constant Matrix: (Units=GPa)
#
#
# Indices 1 2 3 4 5 6 
#
# 1 117.7457 35.0794 47.6232 0.0000 0.0000 0.0000
# 2 35.0794 81.0912 49.4094 0.0000 0.0000 0.0000
# 3 47.6232 49.4094 104.0169 0.0000 0.0000 0.0000
# 4 0.0000 0.0000 0.0000 22.6282 0.0000 0.0000
# 5 0.0000 0.0000 0.0000 0.0000 44.3861 0.0000
# 6 0.0000 0.0000 0.0000 0.0000 0.0000 31.8294
#
#
#
# Elastic Compliance Matrix: (Units=1/GPa)
#
#
# Indices 1 2 3 4 5 6 
#
# 1 0.010724 -0.002319 -0.003809 0.000000 0.000000 0.000000
# 2 -0.002319 0.017856 -0.007420 0.000000 0.000000 0.000000
# 3 -0.003809 -0.007420 0.014882 0.000000 0.000000 0.000000
# 4 0.000000 0.000000 0.000000 0.044193 0.000000 0.000000
# 5 0.000000 0.000000 0.000000 0.000000 0.022530 0.000000
# 6 0.000000 0.000000 0.000000 0.000000 0.000000 0.031417
#
#
# Mechanical properties :
#
#
# Convention : Reuss Voigt Hill
#
# Bulk Modulus (GPa) = 61.09671 63.00863 62.05267
# Shear Modulus (GPa) = 28.71041 31.15152 29.93097
#
# Velocity S-wave (km/s) = 3.88373 4.04547 3.96543
# Velocity P-wave (km/s) = 7.22559 7.41104 7.31890
#
# Compressibility (1/GPa) = 0.01636749
#
# Stress axis : x y z
#
# Youngs Moduli (GPa) = 93.24846 56.00344 67.19393
#
# Poissons Ratio (x) = 0.12985 0.25591
# Poissons Ratio (y) = 0.21620 0.49860
# Poissons Ratio (z) = 0.35514 0.41556
#
# Static dielectric constant tensor:
#      x y z
#    x 3.620050 0.000000 0.000000 
#    y 0.000000 3.625680 0.000000 
#    z 0.000000 0.000000 3.443460 
# 
# 
# High freq. dielectric constant tensor:
#      x y z
#    x 1.754940 0.000000 0.000000 
#    y 0.000000 1.743500 0.000000 
#    z 0.000000 0.000000 1.729960 
# 
# From -- ./inp_files/40718.got.cif
#   From: 2010.03.12/outbox.cif.g09.slc.cpg/sg67_21_cif.got.tgz:40718.got - 2010.04.10 22:41:39.
