data_PCOD8280446
_publ_section_title
;
Structure prediction by ZEFSAII (Michael W. Deem and Ramdas Pophale) SiO2 
 PCOD8280446
Probable space group: C M M A
;
_chemical_formula_sum "Si O2"
_cell_formula_units_Z 64
_cell_length_a 8.591258
_cell_length_b 15.510495
_cell_length_c 24.054739
_cell_angle_alpha 90.000000
_cell_angle_beta 90.000000
_cell_angle_gamma 90.000000
_cell_volume 3205.406169
_symmetry_space_group_name_H-M "C M M A"
_symmetry_group_IT_number 67
_symmetry_cell_setting 'orthorhombic'
loop_
_space_group_symop_operation_xyz
x,y,z
-x,1/2-y,z
x,-y,-z
-x,1/2+y,-z
-x,-y,-z
x,1/2+y,-z
-x,y,z
x,1/2-y,z
1/2+x,1/2+y,z
1/2-x,-y,z
1/2+x,1/2-y,-z
1/2-x,y,-z
1/2-x,1/2-y,-z
1/2+x,y,-z
1/2-x,1/2+y,z
1/2+x,-y,z
loop_
_atom_site_type_symbol
_atom_site_label
_atom_site_fract_x
_atom_site_fract_y
_atom_site_fract_z
Si Si1 0.684692 0.089388 0.825991
Si Si2 0.183687 0.652007 0.943555
Si Si3 0.314973 0.750000 0.371151
Si Si4 0.814666 0.092266 0.560580
Si Si5 0.315575 0.750000 0.243721
O O1 0.500000 0.088809 0.824095
O O2 0.745527 0.102069 0.889220
O O3 0.751147 0.165364 0.786987
O O4 0.750000 0.000000 0.802312
O O5 0.244267 0.750000 0.938926
O O6 0.000000 0.648973 0.945844
O O7 0.250000 0.608818 0.000000
O O8 0.500000 0.750000 0.378888
O O9 0.243013 0.664613 0.397467
O O10 0.262203 0.750000 0.307286
O O11 0.750000 0.115471 0.500000
O O12 0.000000 0.089378 0.558506
O O13 0.750000 0.000000 0.580893
O O14 0.500000 0.750000 0.238779
#
# Coordination Sequence:
#
# PCOD8280446 Si02
#       5
#    16  16   8  16   8
#     4  10  20  37  58  80 106 143 185 229 280 335
#     4   9  17  31  53  77 105 139 176 220 274 336
#     4  11  22  38  61  88 117 157 200 241 290 345
#     4  11  22  39  62  91 125 159 195 239 287 342
#     4   9  20  40  61  78 108 151 192 231 280 335
#
# _framework density 19.966267999999999
#
# number of rings (size 3 to 8) (size 9 to 14) (size 15 to 20)
#    0.000    2.000    1.250    3.750    0.000    2.500 
#    0.000    8.125    0.000    0.000    0.000    0.000 
#    0.000    0.000    0.000    0.000    0.000    0.000 
#
# Total GULP energy -396820.517122 kJ/mol
# GULP energy per Si atom -12400.641160 kJ/mol
# Density = 1.992082 g / cm^3
# Si number density = 19.966268 Si / 1000 Ang^3
#
#
#
# Elastic Constant Matrix: (Units=GPa)
#
#
# Indices 1 2 3 4 5 6 
#
# 1 81.0154 40.0273 47.8185 0.0000 0.0000 0.0000
# 2 40.0273 167.5467 101.6525 0.0000 0.0000 0.0000
# 3 47.8185 101.6525 159.8875 0.0000 0.0000 0.0000
# 4 0.0000 0.0000 0.0000 18.0950 0.0000 0.0000
# 5 0.0000 0.0000 0.0000 0.0000 23.6067 0.0000
# 6 0.0000 0.0000 0.0000 0.0000 0.0000 33.2919
#
#
#
# Elastic Compliance Matrix: (Units=1/GPa)
#
#
# Indices 1 2 3 4 5 6 
#
# 1 0.015194 -0.001421 -0.003641 0.000000 0.000000 0.000000
# 2 -0.001421 0.009849 -0.005837 0.000000 0.000000 0.000000
# 3 -0.003641 -0.005837 0.011054 0.000000 0.000000 0.000000
# 4 0.000000 0.000000 0.000000 0.055264 0.000000 0.000000
# 5 0.000000 0.000000 0.000000 0.000000 0.042361 0.000000
# 6 0.000000 0.000000 0.000000 0.000000 0.000000 0.030037
#
#
# Mechanical properties :
#
#
# Convention : Reuss Voigt Hill
#
# Bulk Modulus (GPa) = 69.92837 87.49402 78.71119
# Shear Modulus (GPa) = 26.27094 29.59548 27.93321
#
# Velocity S-wave (km/s) = 3.63128 3.85421 3.74441
# Velocity P-wave (km/s) = 7.25816 7.98264 7.62901
#
# Compressibility (1/GPa) = 0.01430035
#
# Stress axis : x y z
#
# Youngs Moduli (GPa) = 65.81381 101.52981 90.46282
#
# Poissons Ratio (x) = 0.14428 0.32936
# Poissons Ratio (y) = 0.09352 0.52803
# Poissons Ratio (z) = 0.23962 0.59262
#
# Static dielectric constant tensor:
#      x y z
#    x 3.409830 0.000000 0.000000 
#    y 0.000000 3.785450 0.000000 
#    z 0.000000 0.000000 3.811810 
# 
# 
# High freq. dielectric constant tensor:
#      x y z
#    x 1.762460 0.000000 0.000000 
#    y 0.000000 1.786840 0.000000 
#    z 0.000000 0.000000 1.780490 
# 
# From -- ./inp_files/40435.got.cif
#   From: 2010.03.12/outbox.cif.g09.slc.cpg/sg67_21_cif.got.tgz:40435.got - 2010.04.10 22:41:39.
