data_PCOD8280908
_publ_section_title
;
Structure prediction by ZEFSAII (Michael W. Deem and Ramdas Pophale) SiO2 
 PCOD8280908
Probable space group: C M M A
;
_chemical_formula_sum "Si O2"
_cell_formula_units_Z 80
_cell_length_a 8.454298
_cell_length_b 27.430520
_cell_length_c 18.678988
_cell_angle_alpha 90.000000
_cell_angle_beta 90.000000
_cell_angle_gamma 90.000000
_cell_volume 4331.765476
_symmetry_space_group_name_H-M "C M M A"
_symmetry_group_IT_number 67
_symmetry_cell_setting 'orthorhombic'
loop_
_space_group_symop_operation_xyz
x,y,z
-x,1/2-y,z
x,-y,-z
-x,1/2+y,-z
-x,-y,-z
x,1/2+y,-z
-x,y,z
x,1/2-y,z
1/2+x,1/2+y,z
1/2-x,-y,z
1/2+x,1/2-y,-z
1/2-x,y,-z
1/2-x,1/2-y,-z
1/2+x,y,-z
1/2-x,1/2+y,z
1/2+x,-y,z
loop_
_atom_site_type_symbol
_atom_site_label
_atom_site_fract_x
_atom_site_fract_y
_atom_site_fract_z
Si Si1 0.185727 0.947824 0.840129
Si Si2 0.686810 0.052546 0.577890
Si Si3 0.185278 0.360442 0.924083
Si Si4 0.683797 0.305597 0.794520
Si Si5 0.686294 0.108738 0.291571
O O1 0.225420 0.910210 0.903270
O O2 0.270548 0.931917 0.766970
O O3 0.000000 0.949690 0.826294
O O4 0.250000 0.000000 0.864348
O O5 0.500000 0.050419 0.576241
O O6 0.750000 0.066699 0.500000
O O7 0.745458 0.093788 0.631918
O O8 0.750000 0.000000 0.602916
O O9 0.219847 0.318575 0.866124
O O10 0.000000 0.370755 0.927458
O O11 0.250000 0.341990 0.000000
O O12 0.500000 0.315073 0.810228
O O13 0.718376 0.250000 0.773200
O O14 0.738767 0.339220 0.728851
O O15 0.500000 0.114348 0.296166
#
# Coordination Sequence:
#
# PCOD8280908 Si02
#       5
#    16  16  16  16  16
#     4  11  21  35  53  76 105 139 179 219 262 312
#     4  11  21  35  54  81 115 149 184 219 260 308
#     4  11  22  37  55  77 105 137 174 217 267 319
#     4  10  21  38  59  82 106 135 174 220 269 318
#     4  11  21  35  55  80 109 142 179 219 264 312
#
# _framework density 18.468222000000001
#
# number of rings (size 3 to 8) (size 9 to 14) (size 15 to 20)
#    0.000    1.200    0.000   11.400    0.000    2.400 
#    0.000    2.000    0.000    0.600    0.000    0.000 
#    0.000    0.000    0.000    0.000    0.000    0.000 
#
# Total GULP energy -496238.309711 kJ/mol
# GULP energy per Si atom -12405.957743 kJ/mol
# Density = 1.842619 g / cm^3
# Si number density = 18.468222 Si / 1000 Ang^3
#
#
#
# Elastic Constant Matrix: (Units=GPa)
#
#
# Indices 1 2 3 4 5 6 
#
# 1 100.8689 44.9269 22.1785 0.0000 0.0000 0.0000
# 2 44.9269 118.1694 56.0801 0.0000 0.0000 0.0000
# 3 22.1785 56.0801 110.9971 0.0000 0.0000 0.0000
# 4 0.0000 0.0000 0.0000 9.2953 0.0000 0.0000
# 5 0.0000 0.0000 0.0000 0.0000 34.0685 0.0000
# 6 0.0000 0.0000 0.0000 0.0000 0.0000 30.5861
#
#
#
# Elastic Compliance Matrix: (Units=1/GPa)
#
#
# Indices 1 2 3 4 5 6 
#
# 1 0.011936 -0.004480 -0.000121 0.000000 0.000000 0.000000
# 2 -0.004480 0.012813 -0.005579 0.000000 0.000000 0.000000
# 3 -0.000121 -0.005579 0.011852 0.000000 0.000000 0.000000
# 4 0.000000 0.000000 0.000000 0.107581 0.000000 0.000000
# 5 0.000000 0.000000 0.000000 0.000000 0.029353 0.000000
# 6 0.000000 0.000000 0.000000 0.000000 0.000000 0.032695
#
#
# Mechanical properties :
#
#
# Convention : Reuss Voigt Hill
#
# Bulk Modulus (GPa) = 61.57309 64.04516 62.80913
# Shear Modulus (GPa) = 21.55139 28.57998 25.06568
#
# Velocity S-wave (km/s) = 3.41976 3.93812 3.68806
# Velocity P-wave (km/s) = 7.00039 7.44529 7.22626
#
# Compressibility (1/GPa) = 0.01624086
#
# Stress axis : x y z
#
# Youngs Moduli (GPa) = 83.77935 78.04404 84.37417
#
# Poissons Ratio (x) = 0.34967 0.01023
# Poissons Ratio (y) = 0.37537 0.47068
# Poissons Ratio (z) = 0.01016 0.43537
#
# Static dielectric constant tensor:
#      x y z
#    x 3.630670 0.000000 0.000000 
#    y 0.000000 3.480620 0.000000 
#    z 0.000000 0.000000 3.327780 
# 
# 
# High freq. dielectric constant tensor:
#      x y z
#    x 1.743680 0.000000 0.000000 
#    y 0.000000 1.705930 0.000000 
#    z 0.000000 0.000000 1.708160 
# 
# From -- ./inp_files/32138.got.cif
#   From: 2010.03.12/outbox.cif.g09.slc.cpg/sg67_17_cif.got.tgz:32138.got - 2010.04.10 22:41:39.
