data_PCOD8280204
_publ_section_title
;
Structure prediction by ZEFSAII (Michael W. Deem and Ramdas Pophale) SiO2 
 PCOD8280204
Probable space group: C M M A
;
_chemical_formula_sum "Si O2"
_cell_formula_units_Z 80
_cell_length_a 8.710050
_cell_length_b 15.626555
_cell_length_c 28.832653
_cell_angle_alpha 90.000000
_cell_angle_beta 90.000000
_cell_angle_gamma 90.000000
_cell_volume 3924.356908
_symmetry_space_group_name_H-M "C M M A"
_symmetry_group_IT_number 67
_symmetry_cell_setting 'orthorhombic'
loop_
_space_group_symop_operation_xyz
x,y,z
-x,1/2-y,z
x,-y,-z
-x,1/2+y,-z
-x,-y,-z
x,1/2+y,-z
-x,y,z
x,1/2-y,z
1/2+x,1/2+y,z
1/2-x,-y,z
1/2+x,1/2-y,-z
1/2-x,y,-z
1/2-x,1/2-y,-z
1/2+x,y,-z
1/2-x,1/2+y,z
1/2+x,-y,z
loop_
_atom_site_type_symbol
_atom_site_label
_atom_site_fract_x
_atom_site_fract_y
_atom_site_fract_z
Si Si1 0.165810 0.653041 0.956406
Si Si2 0.319312 0.410933 0.129451
Si Si3 0.684094 0.909145 0.550621
Si Si4 0.818079 0.250000 0.704799
Si Si5 0.818066 0.250000 0.395087
Si Si6 0.680864 0.589640 0.766649
O O1 0.137816 0.750000 0.971138
O O2 0.262332 0.655677 0.908734
O O3 0.000000 0.608109 0.948565
O O4 0.250000 0.606652 0.000000
O O5 0.500000 0.413959 0.129615
O O6 0.250000 0.500000 0.112668
O O7 0.259690 0.388417 0.181331
O O8 0.500000 0.912458 0.549261
O O9 0.750000 0.888992 0.500000
O O10 0.740716 0.834607 0.584138
O O11 0.750000 0.000000 0.568699
O O12 0.716704 0.250000 0.659044
O O13 0.767925 0.333792 0.733304
O O14 0.000000 0.250000 0.693811
O O15 0.000000 0.250000 0.404590
O O16 0.500000 0.579373 0.766440
O O17 0.750000 0.500000 0.748666
#
# Coordination Sequence:
#
# PCOD8280204 Si02
#       6
#    16  16  16   8   8  16
#     4  10  21  36  53  77 108 141 177 220 270 330
#     4  10  20  35  57  82 108 140 179 225 278 338
#     4  11  22  40  65  95 129 169 212 259 309 364
#     4  10  22  41  61  86 117 159 203 246 306 366
#     4  12  25  41  60  90 127 167 213 260 309 364
#     4   9  20  38  61  85 115 149 191 242 296 355
#
# _framework density 20.385504000000001
#
# number of rings (size 3 to 8) (size 9 to 14) (size 15 to 20)
#    0.000    1.800    0.000    4.800    1.400    4.000 
#    0.000    4.000    0.000    0.000    0.000    0.000 
#    0.000    0.000    0.000    0.000    0.000    0.000 
#
# Total GULP energy -495909.937659 kJ/mol
# GULP energy per Si atom -12397.748441 kJ/mol
# Density = 2.033911 g / cm^3
# Si number density = 20.385504 Si / 1000 Ang^3
#
#
#
# Elastic Constant Matrix: (Units=GPa)
#
#
# Indices 1 2 3 4 5 6 
#
# 1 121.6582 46.1936 51.7178 0.0000 0.0000 0.0000
# 2 46.1936 120.9555 72.4384 0.0000 0.0000 0.0000
# 3 51.7178 72.4384 126.9146 0.0000 0.0000 0.0000
# 4 0.0000 0.0000 0.0000 7.1154 0.0000 0.0000
# 5 0.0000 0.0000 0.0000 0.0000 35.1598 0.0000
# 6 0.0000 0.0000 0.0000 0.0000 0.0000 28.1753
#
#
#
# Elastic Compliance Matrix: (Units=1/GPa)
#
#
# Indices 1 2 3 4 5 6 
#
# 1 0.010300 -0.002157 -0.002966 0.000000 0.000000 0.000000
# 2 -0.002157 0.013013 -0.006548 0.000000 0.000000 0.000000
# 3 -0.002966 -0.006548 0.012825 0.000000 0.000000 0.000000
# 4 0.000000 0.000000 0.000000 0.140541 0.000000 0.000000
# 5 0.000000 0.000000 0.000000 0.000000 0.028442 0.000000
# 6 0.000000 0.000000 0.000000 0.000000 0.000000 0.035492
#
#
# Mechanical properties :
#
#
# Convention : Reuss Voigt Hill
#
# Bulk Modulus (GPa) = 78.15358 78.91421 78.53389
# Shear Modulus (GPa) = 18.64136 27.36865 23.00500
#
# Velocity S-wave (km/s) = 3.02725 3.66806 3.36296
# Velocity P-wave (km/s) = 7.11618 7.53224 7.32716
#
# Compressibility (1/GPa) = 0.01279532
#
# Stress axis : x y z
#
# Youngs Moduli (GPa) = 97.09055 76.84573 77.97013
#
# Poissons Ratio (x) = 0.16578 0.23124
# Poissons Ratio (y) = 0.20946 0.51057
# Poissons Ratio (z) = 0.28795 0.50321
#
# Static dielectric constant tensor:
#      x y z
#    x 3.897750 0.000000 0.000000 
#    y 0.000000 3.702450 0.000000 
#    z 0.000000 0.000000 3.747490 
# 
# 
# High freq. dielectric constant tensor:
#      x y z
#    x 1.805670 0.000000 0.000000 
#    y 0.000000 1.793460 0.000000 
#    z 0.000000 0.000000 1.797210 
# 
# From -- ./inp_files/43350.got.cif
#   From: 2010.03.12/outbox.cif.g09.slc.cpg/sg67_22_cif.got.tgz:43350.got - 2010.04.10 22:41:39.
