data_PCOD8280342
_publ_section_title
;
Structure prediction by ZEFSAII (Michael W. Deem and Ramdas Pophale) SiO2 
 PCOD8280342
Probable space group: C M M A
;
_chemical_formula_sum "Si O2"
_cell_formula_units_Z 80
_cell_length_a 19.221317
_cell_length_b 8.637338
_cell_length_c 25.243739
_cell_angle_alpha 90.000000
_cell_angle_beta 90.000000
_cell_angle_gamma 90.000000
_cell_volume 4190.991089
_symmetry_space_group_name_H-M "C M M A"
_symmetry_group_IT_number 67
_symmetry_cell_setting 'orthorhombic'
loop_
_space_group_symop_operation_xyz
x,y,z
-x,1/2-y,z
x,-y,-z
-x,1/2+y,-z
-x,-y,-z
x,1/2+y,-z
-x,y,z
x,1/2-y,z
1/2+x,1/2+y,z
1/2-x,-y,z
1/2+x,1/2-y,-z
1/2-x,y,-z
1/2-x,1/2-y,-z
1/2+x,y,-z
1/2-x,1/2+y,z
1/2+x,-y,z
loop_
_atom_site_type_symbol
_atom_site_label
_atom_site_fract_x
_atom_site_fract_y
_atom_site_fract_z
Si Si1 0.677268 0.432382 0.145632
Si Si2 0.324507 0.566314 0.734108
Si Si3 0.823612 0.566923 0.442827
Si Si4 0.578506 0.433306 0.054273
Si Si5 0.418713 0.568559 0.354262
O O1 0.682067 0.250000 0.142539
O O2 0.750000 0.500000 0.126595
O O3 0.659550 0.483756 0.205480
O O4 0.619635 0.497457 0.105261
O O5 0.324184 0.750000 0.725984
O O6 0.250000 0.500000 0.715797
O O7 0.385447 0.490260 0.700194
O O8 0.842992 0.500000 0.500000
O O9 0.817214 0.750000 0.446519
O O10 0.750000 0.500000 0.422412
O O11 0.884584 0.520986 0.403123
O O12 0.500000 0.494227 0.060568
O O13 0.582006 0.250000 0.051783
O O14 0.611278 0.500000 0.000000
O O15 0.500000 0.528084 0.353105
O O16 0.405368 0.750000 0.361035
#
# Coordination Sequence:
#
# PCOD8280342 Si02
#       5
#    16  16  16  16  16
#     4   9  19  34  53  77 104 135 171 216 265 314
#     4  10  20  36  58  81 107 141 181 223 270 324
#     4  11  22  39  63  88 115 147 186 227 269 320
#     4   9  18  33  51  72 100 135 174 214 259 312
#     4  11  24  40  57  81 114 148 183 225 272 321
#
# _framework density 19.088563000000001
#
# number of rings (size 3 to 8) (size 9 to 14) (size 15 to 20)
#    0.000    2.000    0.000    4.200    0.000    4.800 
#    0.000    4.000    0.000    2.400    0.000    0.000 
#    0.000    0.000    0.000    0.000    0.000    0.000 
#
# Total GULP energy -496106.516098 kJ/mol
# GULP energy per Si atom -12402.662902 kJ/mol
# Density = 1.904512 g / cm^3
# Si number density = 19.088563 Si / 1000 Ang^3
#
#
#
# Elastic Constant Matrix: (Units=GPa)
#
#
# Indices 1 2 3 4 5 6 
#
# 1 130.1385 48.8024 87.6449 0.0000 0.0000 0.0000
# 2 48.8024 85.6736 41.7813 0.0000 0.0000 0.0000
# 3 87.6449 41.7813 135.6126 0.0000 0.0000 0.0000
# 4 0.0000 0.0000 0.0000 32.6736 0.0000 0.0000
# 5 0.0000 0.0000 0.0000 0.0000 27.4953 0.0000
# 6 0.0000 0.0000 0.0000 0.0000 0.0000 29.6621
#
#
#
# Elastic Compliance Matrix: (Units=1/GPa)
#
#
# Indices 1 2 3 4 5 6 
#
# 1 0.014933 -0.004471 -0.008273 0.000000 0.000000 0.000000
# 2 -0.004471 0.015075 -0.001755 0.000000 0.000000 0.000000
# 3 -0.008273 -0.001755 0.013261 0.000000 0.000000 0.000000
# 4 0.000000 0.000000 0.000000 0.030606 0.000000 0.000000
# 5 0.000000 0.000000 0.000000 0.000000 0.036370 0.000000
# 6 0.000000 0.000000 0.000000 0.000000 0.000000 0.033713
#
#
# Mechanical properties :
#
#
# Convention : Reuss Voigt Hill
#
# Bulk Modulus (GPa) = 70.07469 78.65353 74.36411
# Shear Modulus (GPa) = 28.13520 29.51262 28.82391
#
# Velocity S-wave (km/s) = 3.84334 3.93630 3.89010
# Velocity P-wave (km/s) = 7.51565 7.87104 7.69540
#
# Compressibility (1/GPa) = 0.01427049
#
# Stress axis : x y z
#
# Youngs Moduli (GPa) = 66.96695 66.33498 75.40665
#
# Poissons Ratio (x) = 0.29662 0.62386
# Poissons Ratio (y) = 0.29944 0.13231
# Poissons Ratio (z) = 0.55403 0.11639
#
# Static dielectric constant tensor:
#      x y z
#    x 3.560330 0.000000 0.000000 
#    y 0.000000 3.496320 0.000000 
#    z 0.000000 0.000000 3.747390 
# 
# 
# High freq. dielectric constant tensor:
#      x y z
#    x 1.737210 0.000000 0.000000 
#    y 0.000000 1.747170 0.000000 
#    z 0.000000 0.000000 1.755290 
# 
# From -- ./inp_files/43345.got.cif
#   From: 2010.03.12/outbox.cif.g09.slc.cpg/sg67_22_cif.got.tgz:43345.got - 2010.04.10 22:41:39.
