data_PCOD8280258
_publ_section_title
;
Structure prediction by ZEFSAII (Michael W. Deem and Ramdas Pophale) SiO2 
 PCOD8280258
Probable space group: C M M A
;
_chemical_formula_sum "Si O2"
_cell_formula_units_Z 92
_cell_length_a 8.596730
_cell_length_b 24.488201
_cell_length_c 21.893432
_cell_angle_alpha 90.000000
_cell_angle_beta 90.000000
_cell_angle_gamma 90.000000
_cell_volume 4608.971418
_symmetry_space_group_name_H-M "C M M A"
_symmetry_group_IT_number 67
_symmetry_cell_setting 'orthorhombic'
loop_
_space_group_symop_operation_xyz
x,y,z
-x,1/2-y,z
x,-y,-z
-x,1/2+y,-z
-x,-y,-z
x,1/2+y,-z
-x,y,z
x,1/2-y,z
1/2+x,1/2+y,z
1/2-x,-y,z
1/2+x,1/2-y,-z
1/2-x,y,-z
1/2-x,1/2-y,-z
1/2+x,y,-z
1/2-x,1/2+y,z
1/2+x,-y,z
loop_
_atom_site_type_symbol
_atom_site_label
_atom_site_fract_x
_atom_site_fract_y
_atom_site_fract_z
Si Si1 0.668514 0.557697 0.764283
Si Si2 0.685032 0.250000 0.271502
Si Si3 0.000000 0.250000 0.355235
Si Si4 0.825809 0.314507 0.938368
Si Si5 0.720181 0.436457 0.369064
Si Si6 0.820199 0.660851 0.812104
Si Si7 0.500000 0.436873 0.476775
Si Si8 0.000000 0.869590 0.598736
O O1 0.500000 0.557486 0.797480
O O2 0.750000 0.500000 0.768979
O O3 0.629883 0.573331 0.693771
O O4 0.787526 0.598393 0.796345
O O5 0.500000 0.250000 0.296171
O O6 0.831933 0.250000 0.319518
O O7 0.705164 0.302757 0.228966
O O8 0.000000 0.303773 0.398433
O O9 0.835284 0.250000 0.943290
O O10 0.714475 0.330751 0.882983
O O11 0.000000 0.338555 0.929594
O O12 0.750000 0.338955 0.000000
O O13 0.750000 0.500000 0.374489
O O14 0.643650 0.422304 0.433649
O O15 0.860609 0.394850 0.362854
O O16 0.000000 0.675817 0.798633
O O17 0.500000 0.500000 0.500000
O O18 0.500000 0.392786 0.530283
#
# Coordination Sequence:
#
# PCOD8280258 Si02
#       8
#    16   8   4  16  16  16   8   8
#     4  11  24  40  60  91 130 169 214 273 336 400
#     4  12  24  44  71  95 132 180 232 276 324 397
#     4  12  28  52  62 102 138 186 222 262 338 436
#     4  10  20  35  58  92 133 172 217 275 331 383
#     4  11  22  39  64  96 125 158 211 275 339 390
#     4  12  23  39  65  97 132 177 226 273 332 396
#     4  12  22  42  66 100 126 161 213 283 341 404
#     4  12  26  40  70  92 134 168 210 271 334 415
#
# _framework density 19.961071
#
# number of rings (size 3 to 8) (size 9 to 14) (size 15 to 20)
#    0.000    0.696    4.348    4.174    4.870    0.696 
#    1.565    1.739    0.000    0.522    0.000    3.652 
#    0.000    0.000    0.000    0.000    0.000    0.000 
#
# Total GULP energy -569867.330074 kJ/mol
# GULP energy per Si atom -12388.420219 kJ/mol
# Density = 1.991564 g / cm^3
# Si number density = 19.961071 Si / 1000 Ang^3
#
#
#
# Elastic Constant Matrix: (Units=GPa)
#
#
# Indices 1 2 3 4 5 6 
#
# 1 141.6565 38.5319 23.4555 0.0000 0.0000 0.0000
# 2 38.5319 110.2765 29.5208 0.0000 0.0000 0.0000
# 3 23.4555 29.5208 72.2366 0.0000 0.0000 0.0000
# 4 0.0000 0.0000 0.0000 9.8605 0.0000 0.0000
# 5 0.0000 0.0000 0.0000 0.0000 39.3534 0.0000
# 6 0.0000 0.0000 0.0000 0.0000 0.0000 31.5702
#
#
#
# Elastic Compliance Matrix: (Units=1/GPa)
#
#
# Indices 1 2 3 4 5 6 
#
# 1 0.007968 -0.002348 -0.001627 0.000000 0.000000 0.000000
# 2 -0.002348 0.010874 -0.003681 0.000000 0.000000 0.000000
# 3 -0.001627 -0.003681 0.015876 0.000000 0.000000 0.000000
# 4 0.000000 0.000000 0.000000 0.101415 0.000000 0.000000
# 5 0.000000 0.000000 0.000000 0.000000 0.025411 0.000000
# 6 0.000000 0.000000 0.000000 0.000000 0.000000 0.031675
#
#
# Mechanical properties :
#
#
# Convention : Reuss Voigt Hill
#
# Bulk Modulus (GPa) = 51.53646 56.35399 53.94523
# Shear Modulus (GPa) = 23.25564 31.66756 27.46160
#
# Velocity S-wave (km/s) = 3.41699 3.98737 3.71314
# Velocity P-wave (km/s) = 6.43757 7.03506 6.74293
#
# Compressibility (1/GPa) = 0.01940374
#
# Stress axis : x y z
#
# Youngs Moduli (GPa) = 125.50890 91.96123 62.98690
#
# Poissons Ratio (x) = 0.21595 0.10251
# Poissons Ratio (y) = 0.29473 0.23188
# Poissons Ratio (z) = 0.20426 0.33855
#
# Static dielectric constant tensor:
#      x y z
#    x 3.857120 0.000000 0.000000 
#    y 0.000000 3.478650 0.000000 
#    z 0.000000 0.000000 3.739890 
# 
# 
# High freq. dielectric constant tensor:
#      x y z
#    x 1.800990 0.000000 0.000000 
#    y 0.000000 1.756290 0.000000 
#    z 0.000000 0.000000 1.770700 
# 
# From -- ./inp_files/37049.got.cif
#   From: 2010.03.12/outbox.cif.g09.slc.cpg/sg67_19_cif.got.tgz:37049.got - 2010.04.10 22:41:39.
