data_PCOD8280142
_publ_section_title
;
Structure prediction by ZEFSAII (Michael W. Deem and Ramdas Pophale) SiO2 
 PCOD8280142
Probable space group: C M M A
;
_chemical_formula_sum "Si O2"
_cell_formula_units_Z 80
_cell_length_a 8.795399
_cell_length_b 29.790920
_cell_length_c 15.720465
_cell_angle_alpha 90.000000
_cell_angle_beta 90.000000
_cell_angle_gamma 90.000000
_cell_volume 4119.123841
_symmetry_space_group_name_H-M "C M M A"
_symmetry_group_IT_number 67
_symmetry_cell_setting 'orthorhombic'
loop_
_space_group_symop_operation_xyz
x,y,z
-x,1/2-y,z
x,-y,-z
-x,1/2+y,-z
-x,-y,-z
x,1/2+y,-z
-x,y,z
x,1/2-y,z
1/2+x,1/2+y,z
1/2-x,-y,z
1/2+x,1/2-y,-z
1/2-x,y,-z
1/2-x,1/2-y,-z
1/2+x,y,-z
1/2-x,1/2+y,z
1/2+x,-y,z
loop_
_atom_site_type_symbol
_atom_site_label
_atom_site_fract_x
_atom_site_fract_y
_atom_site_fract_z
Si Si1 0.335762 0.843997 0.581159
Si Si2 0.325178 0.802979 0.087822
Si Si3 0.333009 0.552238 0.580041
Si Si4 0.821062 0.045116 0.244318
Si Si5 0.681433 0.639741 0.766772
O O1 0.500000 0.819879 0.585292
O O2 0.250000 0.821564 0.500000
O O3 0.358196 0.895885 0.561230
O O4 0.256429 0.841451 0.675009
O O5 0.500000 0.818794 0.090148
O O6 0.311265 0.750000 0.098482
O O7 0.230498 0.824685 0.163512
O O8 0.250000 0.819025 0.000000
O O9 0.500000 0.530720 0.597979
O O10 0.250000 0.529522 0.500000
O O11 0.217781 0.542762 0.656387
O O12 0.748567 0.091058 0.207727
O O13 0.000000 0.046104 0.227863
O O14 0.750000 0.000000 0.200385
O O15 0.500000 0.634678 0.761312
#
# Coordination Sequence:
#
# PCOD8280142 Si02
#       5
#    16  16  16  16  16
#     4   8  15  26  43  68 100 138 180 224 267 314
#     4  10  21  38  62  92 120 144 173 215 271 332
#     4   9  16  27  41  61  90 128 176 229 281 327
#     4  11  21  33  48  69 100 140 185 230 274 322
#     4  10  20  35  55  81 112 147 186 228 277 330
#
# _framework density 19.421605
#
# number of rings (size 3 to 8) (size 9 to 14) (size 15 to 20)
#    0.000    2.400    0.000    4.800    0.000    7.200 
#    0.000    2.000    0.000    1.200    0.000    4.200 
#    0.000    0.000    0.000    0.000    0.000    0.000 
#
# Total GULP energy -495581.107485 kJ/mol
# GULP energy per Si atom -12389.527687 kJ/mol
# Density = 1.937740 g / cm^3
# Si number density = 19.421605 Si / 1000 Ang^3
#
#
#
# Elastic Constant Matrix: (Units=GPa)
#
#
# Indices 1 2 3 4 5 6 
#
# 1 119.4764 22.8835 39.1690 0.0000 0.0000 0.0000
# 2 22.8835 31.1909 31.8103 0.0000 0.0000 0.0000
# 3 39.1690 31.8103 106.0221 0.0000 0.0000 0.0000
# 4 0.0000 0.0000 0.0000 62.2800 0.0000 0.0000
# 5 0.0000 0.0000 0.0000 0.0000 27.2312 0.0000
# 6 0.0000 0.0000 0.0000 0.0000 0.0000 25.1968
#
#
#
# Elastic Compliance Matrix: (Units=1/GPa)
#
#
# Indices 1 2 3 4 5 6 
#
# 1 0.010072 -0.005180 -0.002167 0.000000 0.000000 0.000000
# 2 -0.005180 0.048860 -0.012746 0.000000 0.000000 0.000000
# 3 -0.002167 -0.012746 0.014057 0.000000 0.000000 0.000000
# 4 0.000000 0.000000 0.000000 0.016057 0.000000 0.000000
# 5 0.000000 0.000000 0.000000 0.000000 0.036723 0.000000
# 6 0.000000 0.000000 0.000000 0.000000 0.000000 0.039688
#
#
# Mechanical properties :
#
#
# Convention : Reuss Voigt Hill
#
# Bulk Modulus (GPa) = 30.48445 49.37942 39.93194
# Shear Modulus (GPa) = 23.08661 33.79672 28.44166
#
# Velocity S-wave (km/s) = 3.45150 4.17605 3.83094
# Velocity P-wave (km/s) = 5.62264 6.98088 6.33825
#
# Compressibility (1/GPa) = 0.03280361
#
# Stress axis : x y z
#
# Youngs Moduli (GPa) = 99.28158 20.46670 71.13960
#
# Poissons Ratio (x) = 0.10601 0.15417
# Poissons Ratio (y) = 0.51423 0.90675
# Poissons Ratio (z) = 0.21515 0.26087
#
# Static dielectric constant tensor:
#      x y z
#    x 3.934940 0.000000 0.000000 
#    y 0.000000 3.463330 0.000000 
#    z 0.000000 0.000000 3.387390 
# 
# 
# High freq. dielectric constant tensor:
#      x y z
#    x 1.767540 0.000000 0.000000 
#    y 0.000000 1.738480 0.000000 
#    z 0.000000 0.000000 1.727510 
# 
# From -- ./inp_files/32297.got.cif
#   From: 2010.03.12/outbox.cif.g09.slc.cpg/sg67_17_cif.got.tgz:32297.got - 2010.04.10 22:41:39.
