data_PCOD8280712
_publ_section_title
;
Structure prediction by ZEFSAII (Michael W. Deem and Ramdas Pophale) SiO2 
 PCOD8280712
Probable space group: C M M A
;
_chemical_formula_sum "Si O2"
_cell_formula_units_Z 104
_cell_length_a 26.606462
_cell_length_b 8.834828
_cell_length_c 22.639589
_cell_angle_alpha 90.000000
_cell_angle_beta 90.000000
_cell_angle_gamma 90.000000
_cell_volume 5321.741379
_symmetry_space_group_name_H-M "C M M A"
_symmetry_group_IT_number 67
_symmetry_cell_setting 'orthorhombic'
loop_
_space_group_symop_operation_xyz
x,y,z
-x,1/2-y,z
x,-y,-z
-x,1/2+y,-z
-x,-y,-z
x,1/2+y,-z
-x,y,z
x,1/2-y,z
1/2+x,1/2+y,z
1/2-x,-y,z
1/2+x,1/2-y,-z
1/2-x,y,-z
1/2-x,1/2-y,-z
1/2+x,y,-z
1/2-x,1/2+y,z
1/2+x,-y,z
loop_
_atom_site_type_symbol
_atom_site_label
_atom_site_fract_x
_atom_site_fract_y
_atom_site_fract_z
Si Si1 0.198665 0.926378 0.822376
Si Si2 0.556678 0.925187 0.877479
Si Si3 0.612546 0.422395 0.239426
Si Si4 0.500000 0.429352 0.436283
Si Si5 0.854601 0.428093 0.060896
Si Si6 0.303039 0.931645 0.435705
Si Si7 0.398029 0.426290 0.373646
O O1 0.205872 0.750000 0.825195
O O2 0.181119 0.988382 0.886444
O O3 0.250000 0.000000 0.802983
O O4 0.159235 0.967696 0.771758
O O5 0.500000 0.976752 0.887492
O O6 0.565139 0.750000 0.892752
O O7 0.569765 0.957948 0.808940
O O8 0.588946 0.022522 0.923405
O O9 0.631362 0.250000 0.233147
O O10 0.591667 0.453841 0.304463
O O11 0.500000 0.250000 0.439872
O O12 0.500000 0.500000 0.500000
O O13 0.449102 0.485492 0.404230
O O14 0.852406 0.250000 0.054522
O O15 0.835631 0.500000 0.000000
O O16 0.299168 0.750000 0.438717
O O17 0.314177 0.000000 0.500000
O O18 0.250000 0.000000 0.411681
O O19 0.349355 0.978988 0.393953
O O20 0.388050 0.250000 0.387805
#
# Coordination Sequence:
#
# PCOD8280712 Si02
#       7
#    16  16  16   8  16  16  16
#     4  10  21  37  57  80 109 144 182 224 276 330
#     4   9  18  33  55  80 106 140 180 223 272 324
#     4   9  19  35  56  81 110 142 181 226 271 321
#     4  10  22  38  58  84 118 156 193 234 281 336
#     4  10  21  36  54  78 108 141 180 226 273 327
#     4  11  22  38  60  84 112 146 186 233 285 340
#     4  10  21  37  58  86 117 152 192 235 282 336
#
# _framework density 19.542475
#
# number of rings (size 3 to 8) (size 9 to 14) (size 15 to 20)
#    0.000    2.154    0.000    3.231    1.077    5.846 
#    0.000    1.538    0.000    0.000    0.000    0.000 
#    0.000    0.000    0.000    0.000    0.000    0.000 
#
# Total GULP energy -644837.751781 kJ/mol
# GULP energy per Si atom -12400.725996 kJ/mol
# Density = 1.949800 g / cm^3
# Si number density = 19.542475 Si / 1000 Ang^3
#
#
#
# Elastic Constant Matrix: (Units=GPa)
#
#
# Indices 1 2 3 4 5 6 
#
# 1 91.7930 24.8517 15.1850 0.0000 0.0000 0.0000
# 2 24.8517 65.7056 20.0896 0.0000 0.0000 0.0000
# 3 15.1850 20.0896 84.1940 0.0000 0.0000 0.0000
# 4 0.0000 0.0000 0.0000 29.1393 0.0000 0.0000
# 5 0.0000 0.0000 0.0000 0.0000 -22.1270 0.0000
# 6 0.0000 0.0000 0.0000 0.0000 0.0000 29.0777
#
#
#
# Elastic Compliance Matrix: (Units=1/GPa)
#
#
# Indices 1 2 3 4 5 6 
#
# 1 0.012247 -0.004268 -0.001190 0.000000 0.000000 0.000000
# 2 -0.004268 0.017905 -0.003502 0.000000 0.000000 0.000000
# 3 -0.001190 -0.003502 0.012928 0.000000 0.000000 0.000000
# 4 0.000000 0.000000 0.000000 0.034318 0.000000 0.000000
# 5 0.000000 0.000000 0.000000 0.000000 -0.045194 0.000000
# 6 0.000000 0.000000 0.000000 0.000000 0.000000 0.034391
#
#
# Mechanical properties :
#
#
# Convention : Reuss Voigt Hill
#
# Bulk Modulus (GPa) = 39.75011 40.21614 39.98313
# Shear Modulus (GPa) = 53.82071 19.32243 36.57157
#
# Velocity S-wave (km/s) = 5.25359 3.14783 4.33065
# Velocity P-wave (km/s) = 7.56206 5.81681 6.74611
#
# Compressibility (1/GPa) = 0.02515716
#
# Stress axis : x y z
#
# Youngs Moduli (GPa) = 81.65595 55.85163 77.35298
#
# Poissons Ratio (x) = 0.23838 0.09208
# Poissons Ratio (y) = 0.34851 0.27093
# Poissons Ratio (z) = 0.09720 0.19562
#
# Static dielectric constant tensor:
#      x y z
#    x 3.670690 0.000000 0.000000 
#    y 0.000000 3.534990 0.000000 
#    z 0.000000 0.000000 3.564740 
# 
# 
# High freq. dielectric constant tensor:
#      x y z
#    x 1.763520 0.000000 0.000000 
#    y 0.000000 1.757240 0.000000 
#    z 0.000000 0.000000 1.761810 
# 
# From -- ./inp_files/39995.got.cif
#   From: 2010.03.12/outbox.cif.g09.slc.cpg/sg67_20_cif.got.tgz:39995.got - 2010.04.10 22:41:39.
