data_PCOD8280347
_publ_section_title
;
Structure prediction by ZEFSAII (Michael W. Deem and Ramdas Pophale) SiO2 
 PCOD8280347
Probable space group: C M M A
;
_chemical_formula_sum "Si O2"
_cell_formula_units_Z 88
_cell_length_a 10.019281
_cell_length_b 15.130025
_cell_length_c 29.769347
_cell_angle_alpha 90.000000
_cell_angle_beta 90.000000
_cell_angle_gamma 90.000000
_cell_volume 4512.794017
_symmetry_space_group_name_H-M "C M M A"
_symmetry_group_IT_number 67
_symmetry_cell_setting 'orthorhombic'
loop_
_space_group_symop_operation_xyz
x,y,z
-x,1/2-y,z
x,-y,-z
-x,1/2+y,-z
-x,-y,-z
x,1/2+y,-z
-x,y,z
x,1/2-y,z
1/2+x,1/2+y,z
1/2-x,-y,z
1/2+x,1/2-y,-z
1/2-x,y,-z
1/2-x,1/2-y,-z
1/2+x,y,-z
1/2-x,1/2+y,z
1/2+x,-y,z
loop_
_atom_site_type_symbol
_atom_site_label
_atom_site_fract_x
_atom_site_fract_y
_atom_site_fract_z
Si Si1 0.850528 0.144815 0.636683
Si Si2 0.149276 0.355247 0.536645
Si Si3 0.149349 0.144247 0.289492
Si Si4 0.154718 0.424197 0.098953
Si Si5 0.348266 0.250000 0.958483
Si Si6 0.342031 0.652634 0.191265
O O1 0.845934 0.250000 0.638840
O O2 0.808468 0.113372 0.586655
O O3 0.748326 0.103979 0.672988
O O4 0.000000 0.111825 0.647958
O O5 0.153554 0.250000 0.534561
O O6 0.250000 0.396805 0.500000
O O7 0.000000 0.388366 0.525409
O O8 0.150223 0.250000 0.289912
O O9 0.198348 0.112275 0.239967
O O10 0.000000 0.109797 0.300038
O O11 0.250000 0.500000 0.078429
O O12 0.179376 0.335369 0.071512
O O13 0.203398 0.409444 0.150364
O O14 0.000000 0.453776 0.096174
O O15 0.500000 0.250000 0.976370
O O16 0.250000 0.250000 0.000000
O O17 0.500000 0.663618 0.189440
O O18 0.277223 0.750000 0.185235
#
# Coordination Sequence:
#
# PCOD8280347 Si02
#       6
#    16  16  16  16   8  16
#     4   8  13  20  27  38  62  92 122 165 225 286
#     4   8  13  19  25  33  48  77 118 164 216 272
#     4   8  13  20  34  55  73  96 136 183 224 271
#     4  10  20  36  58  83 110 144 182 221 267 317
#     4  10  22  40  62  84 112 150 186 222 269 318
#     4   8  13  26  48  69  92 125 165 203 244 300
#
# _framework density 19.500114
#
# number of rings (size 3 to 8) (size 9 to 14) (size 15 to 20)
#    0.000    3.455    0.909    2.182    0.000    1.818 
#    0.000    6.364    0.000    1.091    0.000    0.000 
#    0.000    0.000    0.000    0.000    0.000    0.909 
#
# Total GULP energy -545247.331670 kJ/mol
# GULP energy per Si atom -12391.984811 kJ/mol
# Density = 1.945573 g / cm^3
# Si number density = 19.500114 Si / 1000 Ang^3
#
#
#
# Elastic Constant Matrix: (Units=GPa)
#
#
# Indices 1 2 3 4 5 6 
#
# 1 109.8726 37.6387 89.6030 0.0000 0.0000 0.0000
# 2 37.6387 51.5509 27.9720 0.0000 0.0000 0.0000
# 3 89.6030 27.9720 150.3067 0.0000 0.0000 0.0000
# 4 0.0000 0.0000 0.0000 -3.0615 0.0000 0.0000
# 5 0.0000 0.0000 0.0000 0.0000 36.5002 0.0000
# 6 0.0000 0.0000 0.0000 0.0000 0.0000 14.4199
#
#
#
# Elastic Compliance Matrix: (Units=1/GPa)
#
#
# Indices 1 2 3 4 5 6 
#
# 1 0.021288 -0.009629 -0.010899 0.000000 0.000000 0.000000
# 2 -0.009629 0.025933 0.000914 0.000000 0.000000 0.000000
# 3 -0.010899 0.000914 0.012980 0.000000 0.000000 0.000000
# 4 0.000000 0.000000 0.000000 -0.326637 0.000000 0.000000
# 5 0.000000 0.000000 0.000000 0.000000 0.027397 0.000000
# 6 0.000000 0.000000 0.000000 0.000000 0.000000 0.069348
#
#
# Mechanical properties :
#
#
# Convention : Reuss Voigt Hill
#
# Bulk Modulus (GPa) = 47.67887 69.12862 58.40374
# Shear Modulus (GPa) = -40.49502 20.00615 -10.24443
#
# Velocity S-wave (km/s) = -4.56198 3.20652 -2.29454
# Velocity P-wave (km/s) = 1.80145 7.01686 4.79537
#
# Compressibility (1/GPa) = 0.02097365
#
# Stress axis : x y z
#
# Youngs Moduli (GPa) = 46.97463 38.56113 77.04214
#
# Poissons Ratio (x) = 0.37132 0.83965
# Poissons Ratio (y) = 0.45233 -0.07044
# Poissons Ratio (z) = 0.51196 -0.03526
#
# Static dielectric constant tensor:
#      x y z
#    x 3.540170 0.000000 0.000000 
#    y 0.000000 3.017990 0.000000 
#    z 0.000000 0.000000 3.960270 
# 
# 
# High freq. dielectric constant tensor:
#      x y z
#    x 1.737860 0.000000 0.000000 
#    y 0.000000 1.716900 0.000000 
#    z 0.000000 0.000000 1.767240 
# 
# From -- ./inp_files/41838.got.cif
#   From: 2010.03.12/outbox.cif.g09.slc.cpg/sg67_21_cif.got.tgz:41838.got - 2010.04.10 22:41:39.
