data_PCOD8280454
_publ_section_title
;
Structure prediction by ZEFSAII (Michael W. Deem and Ramdas Pophale) SiO2 
 PCOD8280454
Probable space group: C M M A
;
_chemical_formula_sum "Si O2"
_cell_formula_units_Z 104
_cell_length_a 26.309245
_cell_length_b 8.889679
_cell_length_c 22.896386
_cell_angle_alpha 90.000000
_cell_angle_beta 90.000000
_cell_angle_gamma 90.000000
_cell_volume 5355.023765
_symmetry_space_group_name_H-M "C M M A"
_symmetry_group_IT_number 67
_symmetry_cell_setting 'orthorhombic'
loop_
_space_group_symop_operation_xyz
x,y,z
-x,1/2-y,z
x,-y,-z
-x,1/2+y,-z
-x,-y,-z
x,1/2+y,-z
-x,y,z
x,1/2-y,z
1/2+x,1/2+y,z
1/2-x,-y,z
1/2+x,1/2-y,-z
1/2-x,y,-z
1/2-x,1/2-y,-z
1/2+x,y,-z
1/2-x,1/2+y,z
1/2+x,-y,z
loop_
_atom_site_type_symbol
_atom_site_label
_atom_site_fract_x
_atom_site_fract_y
_atom_site_fract_z
Si Si1 0.199487 0.073971 0.890368
Si Si2 0.555210 0.929130 0.818301
Si Si3 0.658033 0.428729 0.231461
Si Si4 0.500000 0.077080 0.561174
Si Si5 0.906222 0.425976 0.941055
Si Si6 0.196315 0.929790 0.355679
Si Si7 0.389252 0.571536 0.436030
O O1 0.207558 0.250000 0.887945
O O2 0.189423 0.012791 0.824500
O O3 0.152980 0.031455 0.932448
O O4 0.250000 0.000000 0.916366
O O5 0.500000 0.985610 0.795847
O O6 0.557857 0.750000 0.820157
O O7 0.599633 0.988534 0.775253
O O8 0.563442 0.987423 0.884636
O O9 0.657337 0.250000 0.232542
O O10 0.683141 0.490007 0.290644
O O11 0.500000 0.250000 0.545789
O O12 0.554161 0.038032 0.592520
O O13 0.500000 0.000000 0.500000
O O14 0.914063 0.250000 0.947414
O O15 0.927431 0.500000 0.000000
O O16 0.199119 0.750000 0.359360
O O17 0.250000 0.000000 0.375088
O O18 0.152523 0.989527 0.397464
O O19 0.386042 0.500000 0.500000
O O20 0.378320 0.750000 0.438984
#
# Coordination Sequence:
#
# PCOD8280454 Si02
#       7
#    16  16  16   8  16  16  16
#     4   9  17  30  47  66  90 122 161 203 249 296
#     4   8  14  28  50  72  96 127 162 203 253 304
#     4   8  16  31  49  71  99 128 165 211 254 304
#     4   8  16  32  56  80 106 140 176 212 255 304
#     4   9  18  30  44  66  95 125 158 200 245 296
#     4  11  22  36  54  80 111 143 180 223 268 319
#     4  10  20  37  59  84 113 147 183 221 265 314
#
# _framework density 19.421015000000001
#
# number of rings (size 3 to 8) (size 9 to 14) (size 15 to 20)
#    0.000    2.923    0.000    3.231    0.000    2.154 
#    1.385    3.846    0.000    1.846    0.000    0.000 
#    0.000    0.000    0.000    0.000    0.000    0.000 
#
# Total GULP energy -644266.514469 kJ/mol
# GULP energy per Si atom -12389.740663 kJ/mol
# Density = 1.937681 g / cm^3
# Si number density = 19.421015 Si / 1000 Ang^3
#
#
#
# Elastic Constant Matrix: (Units=GPa)
#
#
# Indices 1 2 3 4 5 6 
#
# 1 134.4622 31.9077 22.3356 0.0000 0.0000 0.0000
# 2 31.9077 41.6963 20.5441 0.0000 0.0000 0.0000
# 3 22.3356 20.5441 62.4785 0.0000 0.0000 0.0000
# 4 0.0000 0.0000 0.0000 22.1185 0.0000 0.0000
# 5 0.0000 0.0000 0.0000 0.0000 17.8603 0.0000
# 6 0.0000 0.0000 0.0000 0.0000 0.0000 18.2680
#
#
#
# Elastic Compliance Matrix: (Units=1/GPa)
#
#
# Indices 1 2 3 4 5 6 
#
# 1 0.009157 -0.006437 -0.001157 0.000000 0.000000 0.000000
# 2 -0.006437 0.033145 -0.008597 0.000000 0.000000 0.000000
# 3 -0.001157 -0.008597 0.019246 0.000000 0.000000 0.000000
# 4 0.000000 0.000000 0.000000 0.045211 0.000000 0.000000
# 5 0.000000 0.000000 0.000000 0.000000 0.055990 0.000000
# 6 0.000000 0.000000 0.000000 0.000000 0.000000 0.054740
#
#
# Mechanical properties :
#
#
# Convention : Reuss Voigt Hill
#
# Bulk Modulus (GPa) = 34.28777 43.13466 38.71122
# Shear Modulus (GPa) = 19.26086 22.57267 20.91676
#
# Velocity S-wave (km/s) = 3.15263 3.41292 3.28535
# Velocity P-wave (km/s) = 5.56286 6.14730 5.86236
#
# Compressibility (1/GPa) = 0.02916492
#
# Stress axis : x y z
#
# Youngs Moduli (GPa) = 109.20948 30.17050 51.95867
#
# Poissons Ratio (x) = 0.19421 0.06011
# Poissons Ratio (y) = 0.70300 0.44671
# Poissons Ratio (z) = 0.12633 0.25939
#
# Static dielectric constant tensor:
#      x y z
#    x 4.051660 0.000000 0.000000 
#    y 0.000000 3.123990 0.000000 
#    z 0.000000 0.000000 3.490660 
# 
# 
# High freq. dielectric constant tensor:
#      x y z
#    x 1.774650 0.000000 0.000000 
#    y 0.000000 1.722380 0.000000 
#    z 0.000000 0.000000 1.736560 
# 
# From -- ./inp_files/39992.got.cif
#   From: 2010.03.12/outbox.cif.g09.slc.cpg/sg67_20_cif.got.tgz:39992.got - 2010.04.10 22:41:39.
