data_PCOD8280807
_publ_section_title
;
Structure prediction by ZEFSAII (Michael W. Deem and Ramdas Pophale) SiO2 
 PCOD8280807
Probable space group: C M M A
;
_chemical_formula_sum "Si O2"
_cell_formula_units_Z 88
_cell_length_a 8.935053
_cell_length_b 16.276139
_cell_length_c 30.067287
_cell_angle_alpha 90.000000
_cell_angle_beta 90.000000
_cell_angle_gamma 90.000000
_cell_volume 4372.630363
_symmetry_space_group_name_H-M "C M M A"
_symmetry_group_IT_number 67
_symmetry_cell_setting 'orthorhombic'
loop_
_space_group_symop_operation_xyz
x,y,z
-x,1/2-y,z
x,-y,-z
-x,1/2+y,-z
-x,-y,-z
x,1/2+y,-z
-x,y,z
x,1/2-y,z
1/2+x,1/2+y,z
1/2-x,-y,z
1/2+x,1/2-y,-z
1/2-x,y,-z
1/2-x,1/2-y,-z
1/2+x,y,-z
1/2-x,1/2+y,z
1/2+x,-y,z
loop_
_atom_site_type_symbol
_atom_site_label
_atom_site_fract_x
_atom_site_fract_y
_atom_site_fract_z
Si Si1 0.177929 0.088597 0.044371
Si Si2 0.164607 0.344719 0.210297
Si Si3 0.336145 0.154333 0.127206
Si Si4 0.675672 0.416721 0.700142
Si Si5 0.822193 0.750000 0.547905
Si Si6 0.177415 0.087199 0.399431
O O1 0.220885 0.141881 0.086999
O O2 0.000000 0.083481 0.039158
O O3 0.250000 0.000000 0.051224
O O4 0.250000 0.129192 0.000000
O O5 0.151221 0.250000 0.198852
O O6 0.271454 0.385632 0.172941
O O7 0.224143 0.353256 0.261124
O O8 0.000000 0.386026 0.206670
O O9 0.500000 0.114540 0.117479
O O10 0.357351 0.250000 0.134562
O O11 0.500000 0.428235 0.697469
O O12 0.750000 0.500000 0.715807
O O13 0.730991 0.391148 0.650897
O O14 0.750000 0.750000 0.500000
O O15 0.767768 0.665942 0.572124
O O16 0.000000 0.750000 0.544552
O O17 0.000000 0.076385 0.403322
O O18 0.250000 0.000000 0.415230
#
# Coordination Sequence:
#
# PCOD8280807 Si02
#       6
#    16  16  16  16   8  16
#     4  11  22  38  59  81 106 135 173 219 269 324
#     4   9  18  32  51  75 102 136 176 217 261 314
#     4  10  21  37  55  77 108 143 179 220 266 318
#     4   9  18  32  52  77 105 137 176 220 268 323
#     4  10  22  38  58  84 114 150 194 238 287 346
#     4   9  19  36  57  82 113 149 189 237 289 342
#
# _framework density 20.125187
#
# number of rings (size 3 to 8) (size 9 to 14) (size 15 to 20)
#    0.000    2.364    0.000    2.727    1.273    4.000 
#    0.000    3.636    0.000    0.000    0.000    0.000 
#    0.000    0.000    0.000    0.000    0.000    0.000 
#
# Total GULP energy -545230.824242 kJ/mol
# GULP energy per Si atom -12391.609642 kJ/mol
# Density = 2.007938 g / cm^3
# Si number density = 20.125187 Si / 1000 Ang^3
#
#
#
# Elastic Constant Matrix: (Units=GPa)
#
#
# Indices 1 2 3 4 5 6 
#
# 1 91.6900 31.1112 53.6640 0.0000 0.0000 0.0000
# 2 31.1112 72.8479 53.7525 0.0000 0.0000 0.0000
# 3 53.6640 53.7525 155.0173 0.0000 0.0000 0.0000
# 4 0.0000 0.0000 0.0000 25.3592 0.0000 0.0000
# 5 0.0000 0.0000 0.0000 0.0000 31.3233 0.0000
# 6 0.0000 0.0000 0.0000 0.0000 0.0000 26.3169
#
#
#
# Elastic Compliance Matrix: (Units=1/GPa)
#
#
# Indices 1 2 3 4 5 6 
#
# 1 0.014239 -0.003284 -0.003791 0.000000 0.000000 0.000000
# 2 -0.003284 0.019205 -0.005522 0.000000 0.000000 0.000000
# 3 -0.003791 -0.005522 0.009678 0.000000 0.000000 0.000000
# 4 0.000000 0.000000 0.000000 0.039433 0.000000 0.000000
# 5 0.000000 0.000000 0.000000 0.000000 0.031925 0.000000
# 6 0.000000 0.000000 0.000000 0.000000 0.000000 0.037998
#
#
# Mechanical properties :
#
#
# Convention : Reuss Voigt Hill
#
# Bulk Modulus (GPa) = 55.77970 66.29007 61.03488
# Shear Modulus (GPa) = 27.22592 28.66838 27.94715
#
# Velocity S-wave (km/s) = 3.68207 3.77835 3.73052
# Velocity P-wave (km/s) = 6.77151 7.21422 6.99637
#
# Compressibility (1/GPa) = 0.01792767
#
# Stress axis : x y z
#
# Youngs Moduli (GPa) = 70.22875 52.07099 103.32761
#
# Poissons Ratio (x) = 0.17101 0.39167
# Poissons Ratio (y) = 0.23065 0.57060
# Poissons Ratio (z) = 0.26620 0.28755
#
# Static dielectric constant tensor:
#      x y z
#    x 3.856220 0.000000 0.000000 
#    y 0.000000 3.422680 0.000000 
#    z 0.000000 0.000000 3.951510 
# 
# 
# High freq. dielectric constant tensor:
#      x y z
#    x 1.781710 0.000000 0.000000 
#    y 0.000000 1.763140 0.000000 
#    z 0.000000 0.000000 1.798150 
# 
# From -- ./inp_files/45247.got.cif
#   From: 2010.03.12/outbox.cif.g09.slc.cpg/sg67_23_cif.got.tgz:45247.got - 2010.04.10 22:41:39.
