data_PCOD8280103
_publ_section_title
;
Structure prediction by ZEFSAII (Michael W. Deem and Ramdas Pophale) SiO2 
 PCOD8280103
Probable space group: C M M A
;
_chemical_formula_sum "Si O2"
_cell_formula_units_Z 104
_cell_length_a 8.600043
_cell_length_b 26.543893
_cell_length_c 22.897111
_cell_angle_alpha 90.000000
_cell_angle_beta 90.000000
_cell_angle_gamma 90.000000
_cell_volume 5226.920928
_symmetry_space_group_name_H-M "C M M A"
_symmetry_group_IT_number 67
_symmetry_cell_setting 'orthorhombic'
loop_
_space_group_symop_operation_xyz
x,y,z
-x,1/2-y,z
x,-y,-z
-x,1/2+y,-z
-x,-y,-z
x,1/2+y,-z
-x,y,z
x,1/2-y,z
1/2+x,1/2+y,z
1/2-x,-y,z
1/2+x,1/2-y,-z
1/2-x,y,-z
1/2-x,1/2-y,-z
1/2+x,y,-z
1/2-x,1/2+y,z
1/2+x,-y,z
loop_
_atom_site_type_symbol
_atom_site_label
_atom_site_fract_x
_atom_site_fract_y
_atom_site_fract_z
Si Si1 0.181035 0.194769 0.132531
Si Si2 0.317041 0.648150 0.759934
Si Si3 0.185783 0.946359 0.564484
Si Si4 0.316354 0.599774 0.063219
Si Si5 0.814239 0.348589 0.627796
Si Si6 0.683591 0.551132 0.828109
Si Si7 0.314640 0.250000 0.564663
O O1 0.218754 0.250000 0.107006
O O2 0.255306 0.191159 0.196862
O O3 0.247498 0.153798 0.086914
O O4 0.000000 0.185623 0.140960
O O5 0.500000 0.650450 0.760147
O O6 0.256368 0.656469 0.694529
O O7 0.257932 0.594586 0.784540
O O8 0.250000 0.936721 0.500000
O O9 0.245303 0.900768 0.604158
O O10 0.000000 0.947674 0.563578
O O11 0.250000 0.000000 0.588619
O O12 0.500000 0.598513 0.059602
O O13 0.256410 0.557428 0.107517
O O14 0.250000 0.588423 0.000000
O O15 0.747045 0.300376 0.594999
O O16 0.000000 0.349579 0.621702
O O17 0.500000 0.549662 0.833554
O O18 0.750000 0.500000 0.800718
O O19 0.500000 0.250000 0.564646
O O20 0.250000 0.250000 0.500000
#
# Coordination Sequence:
#
# PCOD8280103 Si02
#       7
#    16  16  16  16  16  16   8
#     4   9  19  35  55  79 109 145 183 229 281 333
#     4   9  21  38  57  82 113 147 186 230 280 336
#     4  11  22  39  62  89 119 155 196 242 295 352
#     4  10  20  35  54  79 111 145 185 232 281 335
#     4  11  23  41  62  89 123 159 199 247 298 355
#     4  10  20  37  58  82 111 147 187 230 282 338
#     4  12  26  44  64  90 122 162 205 250 303 360
#
# _framework density 19.896991
#
# number of rings (size 3 to 8) (size 9 to 14) (size 15 to 20)
#    0.000    1.846    0.000    4.385    1.077    4.000 
#    0.000    3.077    0.000    0.000    0.000    0.000 
#    0.000    0.000    0.000    0.000    0.000    0.000 
#
# Total GULP energy -644807.758967 kJ/mol
# GULP energy per Si atom -12400.149211 kJ/mol
# Density = 1.985170 g / cm^3
# Si number density = 19.896991 Si / 1000 Ang^3
#
#
#
# Elastic Constant Matrix: (Units=GPa)
#
#
# Indices 1 2 3 4 5 6 
#
# 1 84.9572 28.6758 38.3902 0.0000 0.0000 0.0000
# 2 28.6758 100.1609 26.7363 0.0000 0.0000 0.0000
# 3 38.3902 26.7363 91.6641 0.0000 0.0000 0.0000
# 4 0.0000 0.0000 0.0000 16.8276 0.0000 0.0000
# 5 0.0000 0.0000 0.0000 0.0000 29.0081 0.0000
# 6 0.0000 0.0000 0.0000 0.0000 0.0000 34.3201
#
#
#
# Elastic Compliance Matrix: (Units=1/GPa)
#
#
# Indices 1 2 3 4 5 6 
#
# 1 0.015251 -0.002886 -0.005545 0.000000 0.000000 0.000000
# 2 -0.002886 0.011373 -0.002109 0.000000 0.000000 0.000000
# 3 -0.005545 -0.002109 0.013847 0.000000 0.000000 0.000000
# 4 0.000000 0.000000 0.000000 0.059426 0.000000 0.000000
# 5 0.000000 0.000000 0.000000 0.000000 0.034473 0.000000
# 6 0.000000 0.000000 0.000000 0.000000 0.000000 0.029137
#
#
# Mechanical properties :
#
#
# Convention : Reuss Voigt Hill
#
# Bulk Modulus (GPa) = 51.57116 51.59853 51.58484
# Shear Modulus (GPa) = 26.17108 28.22983 27.20045
#
# Velocity S-wave (km/s) = 3.63068 3.77078 3.70139
# Velocity P-wave (km/s) = 6.59933 6.70429 6.65202
#
# Compressibility (1/GPa) = 0.01939068
#
# Stress axis : x y z
#
# Youngs Moduli (GPa) = 65.57133 87.92733 72.21825
#
# Poissons Ratio (x) = 0.25375 0.40048
# Poissons Ratio (y) = 0.18924 0.15228
# Poissons Ratio (z) = 0.36362 0.18540
#
# Static dielectric constant tensor:
#      x y z
#    x 3.662580 0.000000 0.000000 
#    y 0.000000 3.882450 0.000000 
#    z 0.000000 0.000000 2.762850 
# 
# 
# High freq. dielectric constant tensor:
#      x y z
#    x 1.782680 0.000000 0.000000 
#    y 0.000000 1.789050 0.000000 
#    z 0.000000 0.000000 1.773010 
# 
# From -- ./inp_files/37333.got.cif
#   From: 2010.03.12/outbox.cif.g09.slc.cpg/sg67_19_cif.got.tgz:37333.got - 2010.04.10 22:41:39.
