data_PCOD8280355
_publ_section_title
;
Structure prediction by ZEFSAII (Michael W. Deem and Ramdas Pophale) SiO2 
 PCOD8280355
Probable space group: C M M A
;
_chemical_formula_sum "Si O2"
_cell_formula_units_Z 88
_cell_length_a 8.488757
_cell_length_b 21.752177
_cell_length_c 24.120474
_cell_angle_alpha 90.000000
_cell_angle_beta 90.000000
_cell_angle_gamma 90.000000
_cell_volume 4453.820072
_symmetry_space_group_name_H-M "C M M A"
_symmetry_group_IT_number 67
_symmetry_cell_setting 'orthorhombic'
loop_
_space_group_symop_operation_xyz
x,y,z
-x,1/2-y,z
x,-y,-z
-x,1/2+y,-z
-x,-y,-z
x,1/2+y,-z
-x,y,z
x,1/2-y,z
1/2+x,1/2+y,z
1/2-x,-y,z
1/2+x,1/2-y,-z
1/2-x,y,-z
1/2-x,1/2-y,-z
1/2+x,y,-z
1/2-x,1/2+y,z
1/2+x,-y,z
loop_
_atom_site_type_symbol
_atom_site_label
_atom_site_fract_x
_atom_site_fract_y
_atom_site_fract_z
Si Si1 0.182441 0.646941 0.859991
Si Si2 0.683759 0.179651 0.629058
Si Si3 0.321966 0.320912 0.253348
Si Si4 0.816294 0.250000 0.938455
Si Si5 0.312462 0.566635 0.945055
Si Si6 0.685545 0.064912 0.438597
O O1 0.254993 0.642842 0.798861
O O2 0.267754 0.691964 0.902464
O O3 0.219363 0.582527 0.888534
O O4 0.000000 0.663660 0.854883
O O5 0.500000 0.174946 0.616608
O O6 0.742982 0.250000 0.614648
O O7 0.715149 0.165645 0.693377
O O8 0.769667 0.126592 0.594536
O O9 0.500000 0.342009 0.266598
O O10 0.315835 0.250000 0.236505
O O11 0.000000 0.250000 0.945615
O O12 0.750000 0.250000 0.000000
O O13 0.500000 0.573061 0.938576
O O14 0.250000 0.500000 0.956669
O O15 0.250000 0.604630 0.000000
O O16 0.500000 0.059421 0.440029
O O17 0.750000 0.073363 0.500000
O O18 0.750000 0.000000 0.412905
#
# Coordination Sequence:
#
# PCOD8280355 Si02
#       6
#    16  16  16   8  16  16
#     4  12  23  37  57  82 111 146 185 229 283 343
#     4  10  21  38  61  90 124 162 207 254 302 358
#     4  10  20  36  58  84 116 153 194 238 289 345
#     4  12  24  38  54  80 112 144 181 230 285 342
#     4  11  22  39  59  80 106 139 181 228 282 342
#     4  11  22  39  63  91 126 166 208 253 308 366
#
# _framework density 19.758320000000001
#
# number of rings (size 3 to 8) (size 9 to 14) (size 15 to 20)
#    0.000    1.091    0.909    8.455    0.000    2.182 
#    0.000    0.909    0.000    0.000    0.000    0.000 
#    0.000    0.000    0.000    0.000    0.000    0.000 
#
# Total GULP energy -545306.834135 kJ/mol
# GULP energy per Si atom -12393.337139 kJ/mol
# Density = 1.971335 g / cm^3
# Si number density = 19.758320 Si / 1000 Ang^3
#
#
#
# Elastic Constant Matrix: (Units=GPa)
#
#
# Indices 1 2 3 4 5 6 
#
# 1 128.0446 32.4498 31.6614 0.0000 0.0000 0.0000
# 2 32.4498 98.7302 59.1520 0.0000 0.0000 0.0000
# 3 31.6614 59.1520 108.3967 0.0000 0.0000 0.0000
# 4 0.0000 0.0000 0.0000 27.7617 0.0000 0.0000
# 5 0.0000 0.0000 0.0000 0.0000 37.3425 0.0000
# 6 0.0000 0.0000 0.0000 0.0000 0.0000 32.0106
#
#
#
# Elastic Compliance Matrix: (Units=1/GPa)
#
#
# Indices 1 2 3 4 5 6 
#
# 1 0.008671 -0.001980 -0.001452 0.000000 0.000000 0.000000
# 2 -0.001980 0.015501 -0.007880 0.000000 0.000000 0.000000
# 3 -0.001452 -0.007880 0.013950 0.000000 0.000000 0.000000
# 4 0.000000 0.000000 0.000000 0.036021 0.000000 0.000000
# 5 0.000000 0.000000 0.000000 0.000000 0.026779 0.000000
# 6 0.000000 0.000000 0.000000 0.000000 0.000000 0.031240
#
#
# Mechanical properties :
#
#
# Convention : Reuss Voigt Hill
#
# Bulk Modulus (GPa) = 64.53126 64.63310 64.58218
# Shear Modulus (GPa) = 31.25956 33.55019 32.40487
#
# Velocity S-wave (km/s) = 3.98187 4.12518 4.05416
# Velocity P-wave (km/s) = 7.33973 7.44798 7.39405
#
# Compressibility (1/GPa) = 0.01549637
#
# Stress axis : x y z
#
# Youngs Moduli (GPa) = 115.33250 64.51329 71.68500
#
# Poissons Ratio (x) = 0.12772 0.10411
# Poissons Ratio (y) = 0.22832 0.56491
# Poissons Ratio (z) = 0.16749 0.50839
#
# Static dielectric constant tensor:
#      x y z
#    x 3.754330 0.000000 0.000000 
#    y 0.000000 4.471490 0.000000 
#    z 0.000000 0.000000 3.601880 
# 
# 
# High freq. dielectric constant tensor:
#      x y z
#    x 1.787900 0.000000 0.000000 
#    y 0.000000 1.763170 0.000000 
#    z 0.000000 0.000000 1.772800 
# 
# From -- ./inp_files/36961.got.cif
#   From: 2010.03.12/outbox.cif.g09.slc.cpg/sg67_19_cif.got.tgz:36961.got - 2010.04.10 22:41:39.
