data_PCOD8280331
_publ_section_title
;
Structure prediction by ZEFSAII (Michael W. Deem and Ramdas Pophale) SiO2 
 PCOD8280331
Probable space group: C M M A
;
_chemical_formula_sum "Si O2"
_cell_formula_units_Z 104
_cell_length_a 20.472538
_cell_length_b 8.829005
_cell_length_c 29.860355
_cell_angle_alpha 90.000000
_cell_angle_beta 90.000000
_cell_angle_gamma 90.000000
_cell_volume 5397.323078
_symmetry_space_group_name_H-M "C M M A"
_symmetry_group_IT_number 67
_symmetry_cell_setting 'orthorhombic'
loop_
_space_group_symop_operation_xyz
x,y,z
-x,1/2-y,z
x,-y,-z
-x,1/2+y,-z
-x,-y,-z
x,1/2+y,-z
-x,y,z
x,1/2-y,z
1/2+x,1/2+y,z
1/2-x,-y,z
1/2+x,1/2-y,-z
1/2-x,y,-z
1/2-x,1/2-y,-z
1/2+x,y,-z
1/2-x,1/2+y,z
1/2+x,-y,z
loop_
_atom_site_type_symbol
_atom_site_label
_atom_site_fract_x
_atom_site_fract_y
_atom_site_fract_z
Si Si1 0.424201 0.428847 0.888758
Si Si2 0.926847 0.928437 0.299594
Si Si3 0.000000 0.922841 0.546553
Si Si4 0.922759 0.083734 0.210704
Si Si5 0.817457 0.569559 0.048543
Si Si6 0.858828 0.571304 0.549072
Si Si7 0.814377 0.570416 0.364388
O O1 0.500000 0.471477 0.897581
O O2 0.413728 0.250000 0.896257
O O3 0.401909 0.475595 0.838355
O O4 0.379048 0.525719 0.921296
O O5 0.929617 0.750000 0.301432
O O6 0.877449 0.990256 0.337272
O O7 0.000000 0.995191 0.308420
O O8 0.899594 0.974235 0.250621
O O9 0.931545 0.964410 0.570063
O O10 0.000000 0.750000 0.533874
O O11 0.000000 0.000000 0.500000
O O12 0.892513 0.250000 0.219549
O O13 0.000000 0.096355 0.210378
O O14 0.811156 0.750000 0.045473
O O15 0.750000 0.500000 0.068362
O O16 0.830465 0.500000 0.000000
O O17 0.848170 0.500000 0.500000
O O18 0.844285 0.750000 0.546315
O O19 0.812659 0.490526 0.584650
O O20 0.810639 0.750000 0.364176
O O21 0.750000 0.500000 0.341014
#
# Coordination Sequence:
#
# PCOD8280331 Si02
#       7
#    16  16   8  16  16  16  16
#     4   9  18  34  56  83 115 147 183 230 280 330
#     4   9  19  36  58  83 109 140 179 222 268 320
#     4   8  16  30  50  78 108 134 164 206 252 298
#     4   8  15  30  54  83 112 142 176 219 271 324
#     4  11  22  37  56  77 107 148 193 237 284 336
#     4  10  20  36  57  82 110 141 177 216 262 314
#     4  11  24  40  57  79 110 145 180 221 269 318
#
# _framework density 19.268810999999999
#
# number of rings (size 3 to 8) (size 9 to 14) (size 15 to 20)
#    0.000    2.462    0.000    3.692    1.077    3.385 
#    0.000    3.846    0.000    1.846    0.000    0.000 
#    0.000    0.000    0.000    0.000    0.000    0.000 
#
# Total GULP energy -644339.327115 kJ/mol
# GULP energy per Si atom -12391.140906 kJ/mol
# Density = 1.922495 g / cm^3
# Si number density = 19.268811 Si / 1000 Ang^3
#
#
#
# Elastic Constant Matrix: (Units=GPa)
#
#
# Indices 1 2 3 4 5 6 
#
# 1 106.4418 46.4588 61.5848 0.0000 0.0000 0.0000
# 2 46.4588 78.1036 42.8008 0.0000 0.0000 0.0000
# 3 61.5848 42.8008 110.7962 0.0000 0.0000 0.0000
# 4 0.0000 0.0000 0.0000 31.9702 0.0000 0.0000
# 5 0.0000 0.0000 0.0000 0.0000 13.6433 0.0000
# 6 0.0000 0.0000 0.0000 0.0000 0.0000 27.5386
#
#
#
# Elastic Compliance Matrix: (Units=1/GPa)
#
#
# Indices 1 2 3 4 5 6 
#
# 1 0.015658 -0.005765 -0.006476 0.000000 0.000000 0.000000
# 2 -0.005765 0.018364 -0.003890 0.000000 0.000000 0.000000
# 3 -0.006476 -0.003890 0.014128 0.000000 0.000000 0.000000
# 4 0.000000 0.000000 0.000000 0.031279 0.000000 0.000000
# 5 0.000000 0.000000 0.000000 0.000000 0.073296 0.000000
# 6 0.000000 0.000000 0.000000 0.000000 0.000000 0.036313
#
#
# Mechanical properties :
#
#
# Convention : Reuss Voigt Hill
#
# Bulk Modulus (GPa) = 62.93965 66.33670 64.63817
# Shear Modulus (GPa) = 22.06563 24.26356 23.16460
#
# Velocity S-wave (km/s) = 3.38767 3.55239 3.47101
# Velocity P-wave (km/s) = 6.93085 7.16433 7.04856
#
# Compressibility (1/GPa) = 0.01588824
#
# Stress axis : x y z
#
# Youngs Moduli (GPa) = 63.86461 54.45351 70.78127
#
# Poissons Ratio (x) = 0.31392 0.45841
# Poissons Ratio (y) = 0.36818 0.27532
# Poissons Ratio (z) = 0.41361 0.21181
#
# Static dielectric constant tensor:
#      x y z
#    x 3.828450 0.000000 0.000000 
#    y 0.000000 3.488970 0.000000 
#    z 0.000000 0.000000 3.590200 
# 
# 
# High freq. dielectric constant tensor:
#      x y z
#    x 1.743800 0.000000 0.000000 
#    y 0.000000 1.747540 0.000000 
#    z 0.000000 0.000000 1.742270 
# 
# From -- ./inp_files/45859.got.cif
#   From: 2010.03.12/outbox.cif.g09.slc.cpg/sg67_23_cif.got.tgz:45859.got - 2010.04.10 22:41:39.
