data_PCOD8280852
_publ_section_title
;
Structure prediction by ZEFSAII (Michael W. Deem and Ramdas Pophale) SiO2 
 PCOD8280852
Probable space group: C M M A
;
_chemical_formula_sum "Si O2"
_cell_formula_units_Z 96
_cell_length_a 18.771285
_cell_length_b 8.868788
_cell_length_c 30.796259
_cell_angle_alpha 90.000000
_cell_angle_beta 90.000000
_cell_angle_gamma 90.000000
_cell_volume 5126.916456
_symmetry_space_group_name_H-M "C M M A"
_symmetry_group_IT_number 67
_symmetry_cell_setting 'orthorhombic'
loop_
_space_group_symop_operation_xyz
x,y,z
-x,1/2-y,z
x,-y,-z
-x,1/2+y,-z
-x,-y,-z
x,1/2+y,-z
-x,y,z
x,1/2-y,z
1/2+x,1/2+y,z
1/2-x,-y,z
1/2+x,1/2-y,-z
1/2-x,y,-z
1/2-x,1/2-y,-z
1/2+x,y,-z
1/2-x,1/2+y,z
1/2+x,-y,z
loop_
_atom_site_type_symbol
_atom_site_label
_atom_site_fract_x
_atom_site_fract_y
_atom_site_fract_z
Si Si1 0.826837 0.071961 0.711358
Si Si2 0.582136 0.075160 0.205855
Si Si3 0.415715 0.085020 0.541153
Si Si4 0.418631 0.570783 0.363077
Si Si5 0.415983 0.077937 0.882480
Si Si6 0.174656 0.429060 0.954699
O O1 0.819604 0.250000 0.708047
O O2 0.872139 0.022274 0.753149
O O3 0.750000 0.000000 0.715735
O O4 0.865443 0.012671 0.668704
O O5 0.500000 0.042190 0.216975
O O6 0.594306 0.250000 0.194710
O O7 0.608201 0.977538 0.164951
O O8 0.500000 0.095606 0.535385
O O9 0.381447 0.250000 0.540193
O O10 0.399274 0.011860 0.588258
O O11 0.381237 0.000000 0.500000
O O12 0.500000 0.527239 0.351484
O O13 0.408643 0.750000 0.360072
O O14 0.500000 0.062229 0.887533
O O15 0.390563 0.250000 0.888911
O O16 0.382102 0.969701 0.918184
O O17 0.181632 0.250000 0.959509
O O18 0.250000 0.500000 0.941162
O O19 0.148256 0.500000 0.000000
#
# Coordination Sequence:
#
# PCOD8280852 Si02
#       6
#    16  16  16  16  16  16
#     4  11  23  37  54  77 106 140 178 220 265 315
#     4   9  19  37  58  79 105 138 177 221 268 317
#     4   8  14  25  43  70 102 133 166 207 254 304
#     4   9  18  33  53  77 106 139 174 214 262 314
#     4  10  21  37  58  85 114 144 180 220 265 318
#     4  11  22  38  59  82 112 148 186 227 270 317
#
# _framework density 18.724705
#
# number of rings (size 3 to 8) (size 9 to 14) (size 15 to 20)
#    0.000    2.333    0.000    4.500    0.000    5.000 
#    0.000    5.000    0.000    0.500    0.000    3.500 
#    0.000    0.000    0.000    0.000    0.000    0.000 
#
# Total GULP energy -595156.844626 kJ/mol
# GULP energy per Si atom -12399.100930 kJ/mol
# Density = 1.868209 g / cm^3
# Si number density = 18.724705 Si / 1000 Ang^3
#
#
#
# Elastic Constant Matrix: (Units=GPa)
#
#
# Indices 1 2 3 4 5 6 
#
# 1 71.7870 39.5286 65.9578 0.0000 0.0000 0.0000
# 2 39.5286 99.4303 62.8537 0.0000 0.0000 0.0000
# 3 65.9578 62.8537 152.9644 0.0000 0.0000 0.0000
# 4 0.0000 0.0000 0.0000 35.7819 0.0000 0.0000
# 5 0.0000 0.0000 0.0000 0.0000 -4.1395 0.0000
# 6 0.0000 0.0000 0.0000 0.0000 0.0000 22.6516
#
#
#
# Elastic Compliance Matrix: (Units=1/GPa)
#
#
# Indices 1 2 3 4 5 6 
#
# 1 0.024243 -0.004093 -0.008772 0.000000 0.000000 0.000000
# 2 -0.004093 0.014277 -0.004102 0.000000 0.000000 0.000000
# 3 -0.008772 -0.004102 0.012005 0.000000 0.000000 0.000000
# 4 0.000000 0.000000 0.000000 0.027947 0.000000 0.000000
# 5 0.000000 0.000000 0.000000 0.000000 -0.241576 0.000000
# 6 0.000000 0.000000 0.000000 0.000000 0.000000 0.044147
#
#
# Mechanical properties :
#
#
# Convention : Reuss Voigt Hill
#
# Bulk Modulus (GPa) = 60.26678 73.42911 66.84794
# Shear Modulus (GPa) = -62.89931 21.24825 -20.82553
#
# Velocity S-wave (km/s) = -5.80212 3.37229 -3.33858
# Velocity P-wave (km/s) = 3.55394 7.37993 4.57345
#
# Compressibility (1/GPa) = 0.01659289
#
# Stress axis : x y z
#
# Youngs Moduli (GPa) = 41.24830 70.04113 83.29662
#
# Poissons Ratio (x) = 0.28668 0.73067
# Poissons Ratio (y) = 0.16883 0.34166
# Poissons Ratio (z) = 0.36182 0.28729
#
# Static dielectric constant tensor:
#      x y z
#    x 3.198380 0.000000 0.000000 
#    y 0.000000 3.550480 0.000000 
#    z 0.000000 0.000000 3.650770 
# 
# 
# High freq. dielectric constant tensor:
#      x y z
#    x 1.701470 0.000000 0.000000 
#    y 0.000000 1.730000 0.000000 
#    z 0.000000 0.000000 1.743300 
# 
# From -- ./inp_files/43464.got.cif
#   From: 2010.03.12/outbox.cif.g09.slc.cpg/sg67_22_cif.got.tgz:43464.got - 2010.04.10 22:41:39.
