data_PCOD8280065
_publ_section_title
;
Structure prediction by ZEFSAII (Michael W. Deem and Ramdas Pophale) SiO2 
 PCOD8280065
Probable space group: C M M A
;
_chemical_formula_sum "Si O2"
_cell_formula_units_Z 116
_cell_length_a 8.837998
_cell_length_b 27.800814
_cell_length_c 25.067351
_cell_angle_alpha 90.000000
_cell_angle_beta 90.000000
_cell_angle_gamma 90.000000
_cell_volume 6159.136842
_symmetry_space_group_name_H-M "C M M A"
_symmetry_group_IT_number 67
_symmetry_cell_setting 'orthorhombic'
loop_
_space_group_symop_operation_xyz
x,y,z
-x,1/2-y,z
x,-y,-z
-x,1/2+y,-z
-x,-y,-z
x,1/2+y,-z
-x,y,z
x,1/2-y,z
1/2+x,1/2+y,z
1/2-x,-y,z
1/2+x,1/2-y,-z
1/2-x,y,-z
1/2-x,1/2-y,-z
1/2+x,y,-z
1/2-x,1/2+y,z
1/2+x,-y,z
loop_
_atom_site_type_symbol
_atom_site_label
_atom_site_fract_x
_atom_site_fract_y
_atom_site_fract_z
Si Si1 0.168244 0.806234 0.448208
Si Si2 0.179288 0.048470 0.651305
Si Si3 0.250000 0.500000 0.000000
Si Si4 0.174233 0.304601 0.748242
Si Si5 0.320857 0.147190 0.647486
Si Si6 0.322842 0.954469 0.234136
Si Si7 0.334085 0.095078 0.049628
Si Si8 0.825038 0.378626 0.834659
O O1 0.152017 0.750000 0.457124
O O2 0.250000 0.829440 0.500000
O O3 0.268841 0.813802 0.395578
O O4 0.000000 0.828917 0.441806
O O5 0.250059 0.096855 0.626661
O O6 0.223602 0.050097 0.712955
O O7 0.000000 0.048086 0.643619
O O8 0.250000 0.000000 0.624702
O O9 0.339260 0.463611 0.040356
O O10 0.236384 0.250000 0.748674
O O11 0.266009 0.337079 0.706272
O O12 0.188496 0.325328 0.808917
O O13 0.000000 0.305818 0.729801
O O14 0.500000 0.142363 0.649584
O O15 0.500000 0.960456 0.247428
O O16 0.295046 0.908556 0.198728
O O17 0.250000 0.000000 0.202899
O O18 0.500000 0.116219 0.048468
O O19 0.263363 0.114356 0.105032
O O20 0.250000 0.120053 0.000000
O O21 0.000000 0.396897 0.830594
#
# Coordination Sequence:
#
# PCOD8280065 Si02
#       8
#    16  16   4  16  16  16  16  16
#     4  10  21  38  60  87 119 155 196 244 296 347
#     4  11  21  36  55  78 111 150 188 231 275 330
#     4   8  18  32  50  72 100 136 170 224 268 336
#     4  10  21  37  57  79 107 146 188 235 289 342
#     4  12  23  36  57  86 117 154 193 235 288 344
#     4  11  21  32  48  74 106 142 179 217 264 321
#     4   9  19  32  49  72 100 135 174 219 271 326
#     4  10  20  35  52  75 107 141 181 227 277 338
#
# _framework density 18.833807
#
# number of rings (size 3 to 8) (size 9 to 14) (size 15 to 20)
#    0.414    1.241    1.379    5.586    0.966    3.310 
#    0.000    0.000    0.000    0.828    0.000    2.897 
#    0.000    0.000    0.000    0.000    0.000    0.000 
#
# Total GULP energy -718570.747592 kJ/mol
# GULP energy per Si atom -12389.150821 kJ/mol
# Density = 1.879094 g / cm^3
# Si number density = 18.833807 Si / 1000 Ang^3
#
#
#
# Elastic Constant Matrix: (Units=GPa)
#
#
# Indices 1 2 3 4 5 6 
#
# 1 116.8441 30.1475 24.0872 0.0000 0.0000 0.0000
# 2 30.1475 74.8751 18.1367 0.0000 0.0000 0.0000
# 3 24.0872 18.1367 89.6785 0.0000 0.0000 0.0000
# 4 0.0000 0.0000 0.0000 24.5616 0.0000 0.0000
# 5 0.0000 0.0000 0.0000 0.0000 24.6994 0.0000
# 6 0.0000 0.0000 0.0000 0.0000 0.0000 20.4530
#
#
#
# Elastic Compliance Matrix: (Units=1/GPa)
#
#
# Indices 1 2 3 4 5 6 
#
# 1 0.009862 -0.003501 -0.001941 0.000000 0.000000 0.000000
# 2 -0.003501 0.015286 -0.002151 0.000000 0.000000 0.000000
# 3 -0.001941 -0.002151 0.012107 0.000000 0.000000 0.000000
# 4 0.000000 0.000000 0.000000 0.040714 0.000000 0.000000
# 5 0.000000 0.000000 0.000000 0.000000 0.040487 0.000000
# 6 0.000000 0.000000 0.000000 0.000000 0.000000 0.048893
#
#
# Mechanical properties :
#
#
# Convention : Reuss Voigt Hill
#
# Bulk Modulus (GPa) = 45.31075 47.34895 46.32985
# Shear Modulus (GPa) = 26.33098 27.87789 27.10444
#
# Velocity S-wave (km/s) = 3.74313 3.85152 3.79771
# Velocity P-wave (km/s) = 6.54155 6.70626 6.62441
#
# Compressibility (1/GPa) = 0.02206982
#
# Stress axis : x y z
#
# Youngs Moduli (GPa) = 101.40230 65.41882 82.59463
#
# Poissons Ratio (x) = 0.22900 0.16030
# Poissons Ratio (y) = 0.35497 0.17768
# Poissons Ratio (z) = 0.19681 0.14073
#
# Static dielectric constant tensor:
#      x y z
#    x 3.463690 0.000000 0.000000 
#    y 0.000000 3.790190 0.000000 
#    z 0.000000 0.000000 3.422260 
# 
# 
# High freq. dielectric constant tensor:
#      x y z
#    x 1.736600 0.000000 0.000000 
#    y 0.000000 1.716300 0.000000 
#    z 0.000000 0.000000 1.710450 
# 
# From -- ./inp_files/41235.got.cif
#   From: 2010.03.12/outbox.cif.g09.slc.cpg/sg67_21_cif.got.tgz:41235.got - 2010.04.10 22:41:39.
