data_PCOD8280824
_publ_section_title
;
Structure prediction by ZEFSAII (Michael W. Deem and Ramdas Pophale) SiO2 
 PCOD8280824
Probable space group: C M M A
;
_chemical_formula_sum "Si O2"
_cell_formula_units_Z 56
_cell_length_a 15.625912
_cell_length_b 8.547409
_cell_length_c 19.729513
_cell_angle_alpha 90.000000
_cell_angle_beta 90.000000
_cell_angle_gamma 90.000000
_cell_volume 2635.094687
_symmetry_space_group_name_H-M "C M M A"
_symmetry_group_IT_number 67
_symmetry_cell_setting 'orthorhombic'
loop_
_space_group_symop_operation_xyz
x,y,z
-x,1/2-y,z
x,-y,-z
-x,1/2+y,-z
-x,-y,-z
x,1/2+y,-z
-x,y,z
x,1/2-y,z
1/2+x,1/2+y,z
1/2-x,-y,z
1/2+x,1/2-y,-z
1/2-x,y,-z
1/2-x,1/2-y,-z
1/2+x,y,-z
1/2-x,1/2+y,z
1/2+x,-y,z
loop_
_atom_site_type_symbol
_atom_site_label
_atom_site_fract_x
_atom_site_fract_y
_atom_site_fract_z
Si Si1 0.500000 0.564549 0.075069
Si Si2 0.658729 0.066947 0.695869
Si Si3 0.155046 0.935006 0.161238
Si Si4 0.902304 0.579433 0.434391
O O1 0.500000 0.750000 0.075376
O O2 0.586429 0.505049 0.110034
O O3 0.500000 0.500000 0.000000
O O4 0.662075 0.250000 0.711584
O O5 0.750000 0.000000 0.675065
O O6 0.624830 0.981040 0.763191
O O7 0.599637 0.030539 0.631751
O O8 0.156789 0.750000 0.153434
O O9 0.250000 0.000000 0.145625
O O10 0.856813 0.500000 0.500000
O O11 0.859317 0.750000 0.420446
O O12 0.000000 0.606893 0.453490
#
# Coordination Sequence:
#
# PCOD8280824 Si02
#       4
#     8  16  16  16
#     4  12  26  46  70 102 135 172 217 262 316 382
#     4  11  22  38  60  87 119 157 204 254 308 369
#     4  11  23  43  68  98 134 173 216 267 322 380
#     4  10  21  37  56  81 115 154 200 252 310 370
#
# _framework density 21.251608000000001
#
# number of rings (size 3 to 8) (size 9 to 14) (size 15 to 20)
#    0.000    1.143    0.000    9.000    2.000    2.857 
#    0.000    5.714    0.000    0.000    0.000    0.000 
#    0.000    0.000    0.000    0.000    0.000    0.000 
#
# Total GULP energy -347190.636007 kJ/mol
# GULP energy per Si atom -12399.665572 kJ/mol
# Density = 2.120324 g / cm^3
# Si number density = 21.251608 Si / 1000 Ang^3
#
#
#
# Elastic Constant Matrix: (Units=GPa)
#
#
# Indices 1 2 3 4 5 6 
#
# 1 80.7650 50.9161 70.2466 0.0000 0.0000 0.0000
# 2 50.9161 204.4190 66.9884 0.0000 0.0000 0.0000
# 3 70.2466 66.9884 176.2393 0.0000 0.0000 0.0000
# 4 0.0000 0.0000 0.0000 41.0681 0.0000 0.0000
# 5 0.0000 0.0000 0.0000 0.0000 -1.5899 0.0000
# 6 0.0000 0.0000 0.0000 0.0000 0.0000 32.5883
#
#
#
# Elastic Compliance Matrix: (Units=1/GPa)
#
#
# Indices 1 2 3 4 5 6 
#
# 1 0.020207 -0.002734 -0.007015 0.000000 0.000000 0.000000
# 2 -0.002734 0.005958 -0.001175 0.000000 0.000000 0.000000
# 3 -0.007015 -0.001175 0.008917 0.000000 0.000000 0.000000
# 4 0.000000 0.000000 0.000000 0.024350 0.000000 0.000000
# 5 0.000000 0.000000 0.000000 0.000000 -0.628955 0.000000
# 6 0.000000 0.000000 0.000000 0.000000 0.000000 0.030686
#
#
# Mechanical properties :
#
#
# Convention : Reuss Voigt Hill
#
# Bulk Modulus (GPa) = 75.56563 93.08060 84.32311
# Shear Modulus (GPa) = -9.75459 32.63145 11.43843
#
# Velocity S-wave (km/s) = -2.14476 3.92277 2.32251
# Velocity P-wave (km/s) = 5.43152 8.02570 6.85250
#
# Compressibility (1/GPa) = 0.01323353
#
# Stress axis : x y z
#
# Youngs Moduli (GPa) = 49.48896 167.84374 112.15014
#
# Poissons Ratio (x) = 0.45892 0.78671
# Poissons Ratio (y) = 0.13531 0.13175
# Poissons Ratio (z) = 0.34715 0.19718
#
# Static dielectric constant tensor:
#      x y z
#    x 3.556970 0.000000 0.000000 
#    y 0.000000 4.276170 0.000000 
#    z 0.000000 0.000000 3.853150 
# 
# 
# High freq. dielectric constant tensor:
#      x y z
#    x 1.821380 0.000000 0.000000 
#    y 0.000000 1.858990 0.000000 
#    z 0.000000 0.000000 1.839080 
# 
# From -- ./inp_files/31601.got.cif
#   From: 2010.03.12/outbox.cif.g09.slc.cpg/sg67_16_cif.got.tgz:31601.got - 2010.04.10 22:41:39.
