data_PCOD8280512
_publ_section_title
;
Structure prediction by ZEFSAII (Michael W. Deem and Ramdas Pophale) SiO2 
 PCOD8280512
Probable space group: C M M A
;
_chemical_formula_sum "Si O2"
_cell_formula_units_Z 88
_cell_length_a 14.641755
_cell_length_b 10.248691
_cell_length_c 30.502863
_cell_angle_alpha 90.000000
_cell_angle_beta 90.000000
_cell_angle_gamma 90.000000
_cell_volume 4577.223711
_symmetry_space_group_name_H-M "C M M A"
_symmetry_group_IT_number 67
_symmetry_cell_setting 'orthorhombic'
loop_
_space_group_symop_operation_xyz
x,y,z
-x,1/2-y,z
x,-y,-z
-x,1/2+y,-z
-x,-y,-z
x,1/2+y,-z
-x,y,z
x,1/2-y,z
1/2+x,1/2+y,z
1/2-x,-y,z
1/2+x,1/2-y,-z
1/2-x,y,-z
1/2-x,1/2-y,-z
1/2+x,y,-z
1/2-x,1/2+y,z
1/2+x,-y,z
loop_
_atom_site_type_symbol
_atom_site_label
_atom_site_fract_x
_atom_site_fract_y
_atom_site_fract_z
Si Si1 0.245550 0.250000 0.322386
Si Si2 0.605401 0.401461 0.198096
Si Si3 0.171397 0.899736 0.100924
Si Si4 0.000000 0.602143 0.038932
Si Si5 0.391925 0.750000 0.398778
Si Si6 0.108319 0.250000 0.604018
Si Si7 0.892043 0.501425 0.451163
Si Si8 0.750000 0.500000 0.737627
O O1 0.156034 0.250000 0.352198
O O2 0.339807 0.250000 0.349770
O O3 0.240087 0.375529 0.292495
O O4 0.500000 0.438815 0.203062
O O5 0.622290 0.250000 0.209020
O O6 0.637675 0.434643 0.149364
O O7 0.660670 0.490157 0.232023
O O8 0.206866 0.750000 0.098558
O O9 0.088549 0.921938 0.068116
O O10 0.250000 0.000000 0.086720
O O11 0.000000 0.750000 0.020314
O O12 0.000000 0.500000 0.000000
O O13 0.500000 0.750000 0.390895
O O14 0.357723 0.625542 0.425855
O O15 0.140940 0.126316 0.575911
O O16 0.000000 0.250000 0.613697
O O17 0.849355 0.500000 0.500000
O O18 0.000000 0.502372 0.455017
#
# Coordination Sequence:
#
# PCOD8280512 Si02
#       8
#     8  16  16   8   8   8  16   8
#     4  12  26  40  57  84 120 154 199 238 304 370
#     4  10  20  39  66  92 119 155 205 254 319 370
#     4  10  20  37  64  92 125 166 207 259 313 369
#     4  10  22  40  62  92 132 178 218 254 304 372
#     4  10  21  38  56  76 114 154 178 231 301 352
#     4  10  21  38  58  80 114 154 192 235 289 362
#     4   9  17  33  59  86 109 143 191 239 286 343
#     4  12  24  40  62  88 116 154 200 264 304 364
#
# _framework density 19.225626999999999
#
# number of rings (size 3 to 8) (size 9 to 14) (size 15 to 20)
#    0.000    1.818    2.727    1.636    0.000    4.727 
#    0.000    4.545    0.000    0.000    0.000    0.000 
#    0.000    0.000    0.000    0.000    0.000    0.000 
#
# Total GULP energy -545701.735745 kJ/mol
# GULP energy per Si atom -12402.312176 kJ/mol
# Density = 1.918187 g / cm^3
# Si number density = 19.225627 Si / 1000 Ang^3
#
#
#
# Elastic Constant Matrix: (Units=GPa)
#
#
# Indices 1 2 3 4 5 6 
#
# 1 115.3372 61.2699 58.1685 0.0000 0.0000 0.0000
# 2 61.2699 167.2891 92.6931 0.0000 0.0000 0.0000
# 3 58.1685 92.6931 148.1828 0.0000 0.0000 0.0000
# 4 0.0000 0.0000 0.0000 42.5912 0.0000 0.0000
# 5 0.0000 0.0000 0.0000 0.0000 60.8003 0.0000
# 6 0.0000 0.0000 0.0000 0.0000 0.0000 53.0598
#
#
#
# Elastic Compliance Matrix: (Units=1/GPa)
#
#
# Indices 1 2 3 4 5 6 
#
# 1 0.011516 -0.002622 -0.002881 0.000000 0.000000 0.000000
# 2 -0.002622 0.009745 -0.005067 0.000000 0.000000 0.000000
# 3 -0.002881 -0.005067 0.011049 0.000000 0.000000 0.000000
# 4 0.000000 0.000000 0.000000 0.023479 0.000000 0.000000
# 5 0.000000 0.000000 0.000000 0.000000 0.016447 0.000000
# 6 0.000000 0.000000 0.000000 0.000000 0.000000 0.018847
#
#
# Mechanical properties :
#
#
# Convention : Reuss Voigt Hill
#
# Bulk Modulus (GPa) = 89.51270 95.00800 92.26035
# Shear Modulus (GPa) = 43.12405 45.86879 44.49642
#
# Velocity S-wave (km/s) = 4.74122 4.88978 4.81607
# Velocity P-wave (km/s) = 8.75399 9.02245 8.88923
#
# Compressibility (1/GPa) = 0.01117160
#
# Stress axis : x y z
#
# Youngs Moduli (GPa) = 86.83872 102.61283 90.50826
#
# Poissons Ratio (x) = 0.26900 0.26071
# Poissons Ratio (y) = 0.22765 0.45860
# Poissons Ratio (z) = 0.25014 0.51994
#
# Static dielectric constant tensor:
#      x y z
#    x 3.405270 0.000000 0.000000 
#    y 0.000000 3.645990 0.000000 
#    z 0.000000 0.000000 3.583390 
# 
# 
# High freq. dielectric constant tensor:
#      x y z
#    x 1.750390 0.000000 0.000000 
#    y 0.000000 1.753210 0.000000 
#    z 0.000000 0.000000 1.753510 
# 
# From -- ./inp_files/41879.got.cif
#   From: 2010.03.12/outbox.cif.g09.slc.cpg/sg67_21_cif.got.tgz:41879.got - 2010.04.10 22:41:39.
