data_PCOD8280636
_publ_section_title
;
Structure prediction by ZEFSAII (Michael W. Deem and Ramdas Pophale) SiO2 
 PCOD8280636
Probable space group: C M M A
;
_chemical_formula_sum "Si O2"
_cell_formula_units_Z 72
_cell_length_a 15.501394
_cell_length_b 8.574998
_cell_length_c 28.131555
_cell_angle_alpha 90.000000
_cell_angle_beta 90.000000
_cell_angle_gamma 90.000000
_cell_volume 3739.370704
_symmetry_space_group_name_H-M "C M M A"
_symmetry_group_IT_number 67
_symmetry_cell_setting 'orthorhombic'
loop_
_space_group_symop_operation_xyz
x,y,z
-x,1/2-y,z
x,-y,-z
-x,1/2+y,-z
-x,-y,-z
x,1/2+y,-z
-x,y,z
x,1/2-y,z
1/2+x,1/2+y,z
1/2-x,-y,z
1/2+x,1/2-y,-z
1/2-x,y,-z
1/2-x,1/2-y,-z
1/2+x,y,-z
1/2-x,1/2+y,z
1/2+x,-y,z
loop_
_atom_site_type_symbol
_atom_site_label
_atom_site_fract_x
_atom_site_fract_y
_atom_site_fract_z
Si Si1 0.000000 0.065016 0.219339
Si Si2 0.000000 0.935332 0.889538
Si Si3 0.839980 0.434796 0.278988
Si Si4 0.500000 0.564742 0.447489
Si Si5 0.157568 0.564479 0.051792
Si Si6 0.160047 0.934532 0.613305
O O1 0.084419 0.997648 0.245701
O O2 0.000000 0.250000 0.223256
O O3 0.000000 0.011065 0.165030
O O4 0.000000 0.750000 0.895898
O O5 0.914537 0.006834 0.912153
O O6 0.837499 0.250000 0.277069
O O7 0.750000 0.500000 0.259054
O O8 0.855951 0.493675 0.332862
O O9 0.500000 0.750000 0.448593
O O10 0.500000 0.500000 0.500000
O O11 0.583895 0.500807 0.419918
O O12 0.160422 0.750000 0.049994
O O13 0.250000 0.500000 0.069005
O O14 0.133993 0.500000 0.000000
O O15 0.162966 0.750000 0.611933
O O16 0.250000 0.000000 0.593266
#
# Coordination Sequence:
#
# PCOD8280636 Si02
#       6
#     8   8  16   8  16  16
#     4   9  19  34  54  77 106 142 176 209 256 312
#     4  11  22  37  55  81 115 150 183 219 265 321
#     4   9  17  33  55  78 101 132 172 215 257 304
#     4  10  21  35  50  72 101 136 169 206 254 309
#     4  11  22  39  61  85 110 142 183 228 273 320
#     4   9  18  33  54  76 100 130 170 213 257 304
#
# _framework density 19.254576
#
# number of rings (size 3 to 8) (size 9 to 14) (size 15 to 20)
#    0.000    2.222    0.000    4.000    0.000    4.889 
#    0.000    7.222    0.000    5.333    0.000    0.000 
#    0.000    0.000    0.000    0.000    0.000    0.000 
#
# Total GULP energy -446457.708064 kJ/mol
# GULP energy per Si atom -12401.603002 kJ/mol
# Density = 1.921075 g / cm^3
# Si number density = 19.254576 Si / 1000 Ang^3
#
#
#
# Elastic Constant Matrix: (Units=GPa)
#
#
# Indices 1 2 3 4 5 6 
#
# 1 207.9666 40.2528 117.8973 0.0000 0.0000 0.0000
# 2 40.2528 65.6352 35.8357 0.0000 0.0000 0.0000
# 3 117.8973 35.8357 138.8541 0.0000 0.0000 0.0000
# 4 0.0000 0.0000 0.0000 22.5563 0.0000 0.0000
# 5 0.0000 0.0000 0.0000 0.0000 18.2565 0.0000
# 6 0.0000 0.0000 0.0000 0.0000 0.0000 34.3026
#
#
#
# Elastic Compliance Matrix: (Units=1/GPa)
#
#
# Indices 1 2 3 4 5 6 
#
# 1 0.009421 -0.001642 -0.007575 0.000000 0.000000 0.000000
# 2 -0.001642 0.018021 -0.003257 0.000000 0.000000 0.000000
# 3 -0.007575 -0.003257 0.014474 0.000000 0.000000 0.000000
# 4 0.000000 0.000000 0.000000 0.044334 0.000000 0.000000
# 5 0.000000 0.000000 0.000000 0.000000 0.054775 0.000000
# 6 0.000000 0.000000 0.000000 0.000000 0.000000 0.029152
#
#
# Mechanical properties :
#
#
# Convention : Reuss Voigt Hill
#
# Bulk Modulus (GPa) = 58.93397 88.93639 73.93518
# Shear Modulus (GPa) = 24.90290 29.58773 27.24531
#
# Velocity S-wave (km/s) = 3.60022 3.92428 3.76574
# Velocity P-wave (km/s) = 6.92505 8.17455 7.57561
#
# Compressibility (1/GPa) = 0.01696814
#
# Stress axis : x y z
#
# Youngs Moduli (GPa) = 106.15106 55.49162 69.08862
#
# Poissons Ratio (x) = 0.09109 0.52335
# Poissons Ratio (y) = 0.17425 0.22502
# Poissons Ratio (z) = 0.80410 0.18074
#
# Static dielectric constant tensor:
#      x y z
#    x 3.834900 0.000000 0.000000 
#    y 0.000000 3.341950 0.000000 
#    z 0.000000 0.000000 3.619170 
# 
# 
# High freq. dielectric constant tensor:
#      x y z
#    x 1.767530 0.000000 0.000000 
#    y 0.000000 1.734500 0.000000 
#    z 0.000000 0.000000 1.744350 
# 
# From -- ./inp_files/44274.got.cif
#   From: 2010.03.12/outbox.cif.g09.slc.cpg/sg67_23_cif.got.tgz:44274.got - 2010.04.10 22:41:39.
