data_PCOD8280112
_publ_section_title
;
Structure prediction by ZEFSAII (Michael W. Deem and Ramdas Pophale) SiO2 
 PCOD8280112
Probable space group: C M M A
;
_chemical_formula_sum "Si O2"
_cell_formula_units_Z 80
_cell_length_a 18.898886
_cell_length_b 9.779680
_cell_length_c 24.347527
_cell_angle_alpha 90.000000
_cell_angle_beta 90.000000
_cell_angle_gamma 90.000000
_cell_volume 4500.033076
_symmetry_space_group_name_H-M "C M M A"
_symmetry_group_IT_number 67
_symmetry_cell_setting 'orthorhombic'
loop_
_space_group_symop_operation_xyz
x,y,z
-x,1/2-y,z
x,-y,-z
-x,1/2+y,-z
-x,-y,-z
x,1/2+y,-z
-x,y,z
x,1/2-y,z
1/2+x,1/2+y,z
1/2-x,-y,z
1/2+x,1/2-y,-z
1/2-x,y,-z
1/2-x,1/2-y,-z
1/2+x,y,-z
1/2-x,1/2+y,z
1/2+x,-y,z
loop_
_atom_site_type_symbol
_atom_site_label
_atom_site_fract_x
_atom_site_fract_y
_atom_site_fract_z
Si Si1 0.584276 0.478184 0.370901
Si Si2 0.584262 0.750000 0.547725
Si Si3 0.820248 0.584500 0.947434
Si Si4 0.918603 0.406131 0.155407
Si Si5 0.915679 0.250000 0.424771
Si Si6 0.083922 0.903423 0.251692
O O1 0.500000 0.469266 0.367797
O O2 0.612431 0.379136 0.418454
O O3 0.612404 0.624379 0.389340
O O4 0.616176 0.442463 0.311147
O O5 0.500000 0.750000 0.543806
O O6 0.616377 0.750000 0.486332
O O7 0.807322 0.750000 0.958284
O O8 0.750000 0.500000 0.930207
O O9 0.876956 0.564392 0.900042
O O10 0.850103 0.500000 0.000000
O O11 0.910617 0.250000 0.174353
O O12 0.886138 0.497064 0.204567
O O13 0.000000 0.444156 0.143797
O O14 0.000000 0.250000 0.429121
O O15 0.106967 0.750000 0.236612
O O16 0.000000 0.918270 0.254524
#
# Coordination Sequence:
#
# PCOD8280112 Si02
#       6
#    16   8  16  16   8  16
#     4   9  15  22  31  45  66  97 139 185 230 273
#     4   9  14  22  30  40  64  94 134 187 230 270
#     4  10  20  35  55  77 101 130 161 193 232 280
#     4   9  19  33  49  71  98 126 160 201 238 276
#     4   9  16  20  28  44  62  94 138 183 230 274
#     4   9  16  26  39  56  80 112 150 191 235 280
#
# _framework density 17.777647999999999
#
# number of rings (size 3 to 8) (size 9 to 14) (size 15 to 20)
#    0.000    2.800    1.000    1.800    1.400    4.400 
#    0.000    0.000    0.000    0.000    0.000    0.000 
#    0.000    0.000    0.000    0.000    0.000    6.000 
#
# Total GULP energy -495600.129455 kJ/mol
# GULP energy per Si atom -12390.003236 kJ/mol
# Density = 1.773719 g / cm^3
# Si number density = 17.777648 Si / 1000 Ang^3
#
#
#
# Elastic Constant Matrix: (Units=GPa)
#
#
# Indices 1 2 3 4 5 6 
#
# 1 14.0488 23.8807 35.5963 0.0000 0.0000 0.0000
# 2 23.8807 154.2214 77.1768 0.0000 0.0000 0.0000
# 3 35.5963 77.1768 143.1870 0.0000 0.0000 0.0000
# 4 0.0000 0.0000 0.0000 40.5363 0.0000 0.0000
# 5 0.0000 0.0000 0.0000 0.0000 -0.4322 0.0000
# 6 0.0000 0.0000 0.0000 0.0000 0.0000 11.1394
#
#
#
# Elastic Compliance Matrix: (Units=1/GPa)
#
#
# Indices 1 2 3 4 5 6 
#
# 1 0.199846 -0.008330 -0.045192 0.000000 0.000000 0.000000
# 2 -0.008330 0.009226 -0.002902 0.000000 0.000000 0.000000
# 3 -0.045192 -0.002902 0.019783 0.000000 0.000000 0.000000
# 4 0.000000 0.000000 0.000000 0.024669 0.000000 0.000000
# 5 0.000000 0.000000 0.000000 0.000000 -2.313701 0.000000
# 6 0.000000 0.000000 0.000000 0.000000 0.000000 0.089771
#
#
# Mechanical properties :
#
#
# Convention : Reuss Voigt Hill
#
# Bulk Modulus (GPa) = 8.62016 64.97387 36.79702
# Shear Modulus (GPa) = -2.74893 21.90227 9.57667
#
# Velocity S-wave (km/s) = -1.24485 3.51381 2.32349
# Velocity P-wave (km/s) = 1.67129 7.28628 5.28598
#
# Compressibility (1/GPa) = 0.11600709
#
# Stress axis : x y z
#
# Youngs Moduli (GPa) = 5.00385 108.38490 50.54923
#
# Poissons Ratio (x) = 0.90289 2.28441
# Poissons Ratio (y) = 0.04168 0.14669
# Poissons Ratio (z) = 0.22613 0.31454
#
# Static dielectric constant tensor:
#      x y z
#    x 2.590610 0.000000 0.000000 
#    y 0.000000 3.618940 0.000000 
#    z 0.000000 0.000000 3.522270 
# 
# 
# High freq. dielectric constant tensor:
#      x y z
#    x 1.603790 0.000000 0.000000 
#    y 0.000000 1.706950 0.000000 
#    z 0.000000 0.000000 1.704280 
# 
# From -- ./inp_files/42542.got.cif
#   From: 2010.03.12/outbox.cif.g09.slc.cpg/sg67_22_cif.got.tgz:42542.got - 2010.04.10 22:41:39.
