data_PCOD8280106
_publ_section_title
;
Structure prediction by ZEFSAII (Michael W. Deem and Ramdas Pophale) SiO2 
 PCOD8280106
Probable space group: C M M A
;
_chemical_formula_sum "Si O2"
_cell_formula_units_Z 104
_cell_length_a 29.548548
_cell_length_b 8.980496
_cell_length_c 20.007132
_cell_angle_alpha 90.000000
_cell_angle_beta 90.000000
_cell_angle_gamma 90.000000
_cell_volume 5309.104894
_symmetry_space_group_name_H-M "C M M A"
_symmetry_group_IT_number 67
_symmetry_cell_setting 'orthorhombic'
loop_
_space_group_symop_operation_xyz
x,y,z
-x,1/2-y,z
x,-y,-z
-x,1/2+y,-z
-x,-y,-z
x,1/2+y,-z
-x,y,z
x,1/2-y,z
1/2+x,1/2+y,z
1/2-x,-y,z
1/2+x,1/2-y,-z
1/2-x,y,-z
1/2-x,1/2-y,-z
1/2+x,y,-z
1/2-x,1/2+y,z
1/2+x,-y,z
loop_
_atom_site_type_symbol
_atom_site_label
_atom_site_fract_x
_atom_site_fract_y
_atom_site_fract_z
Si Si1 0.946504 0.425362 0.809359
Si Si2 0.614496 0.072462 0.703511
Si Si3 0.106522 0.570702 0.931750
Si Si4 0.597975 0.924935 0.572539
Si Si5 0.292334 0.412439 0.911683
Si Si6 0.708413 0.088242 0.755466
Si Si7 0.000000 0.416321 0.567193
O O1 0.935945 0.250000 0.812805
O O2 0.927443 0.492087 0.739939
O O3 0.923175 0.508921 0.871146
O O4 0.000000 0.456040 0.811401
O O5 0.606626 0.250000 0.703943
O O6 0.659140 0.019007 0.743258
O O7 0.625622 0.013233 0.628582
O O8 0.103438 0.750000 0.931464
O O9 0.158622 0.513394 0.925121
O O10 0.086705 0.500000 0.000000
O O11 0.610810 0.750000 0.567969
O O12 0.547162 0.949461 0.604037
O O13 0.604708 0.000000 0.500000
O O14 0.292435 0.250000 0.944983
O O15 0.250000 0.500000 0.944296
O O16 0.283614 0.399389 0.833597
O O17 0.709295 0.250000 0.721317
O O18 0.750000 0.000000 0.721939
O O19 0.000000 0.500000 0.500000
O O20 0.000000 0.250000 0.541885
#
# Coordination Sequence:
#
# PCOD8280106 Si02
#       7
#    16  16  16  16  16  16   8
#     4  11  25  43  62  86 115 150 197 246 290 340
#     4  11  22  38  60  88 120 154 192 238 290 345
#     4  11  23  41  62  86 117 153 195 240 290 347
#     4  10  20  35  54  81 116 156 198 240 288 344
#     4   9  18  34  55  82 116 150 186 231 284 345
#     4   9  18  34  56  84 115 147 187 232 284 344
#     4   8  16  30  48  70 104 142 183 228 269 324
#
# _framework density 19.588989000000002
#
# number of rings (size 3 to 8) (size 9 to 14) (size 15 to 20)
#    0.000    2.000    1.538    1.846    1.077    4.923 
#    0.000    1.538    0.000    0.462    0.000    3.231 
#    0.000    0.000    0.000    0.000    0.000    0.000 
#
# Total GULP energy -644242.490338 kJ/mol
# GULP energy per Si atom -12389.278660 kJ/mol
# Density = 1.954440 g / cm^3
# Si number density = 19.588989 Si / 1000 Ang^3
#
#
#
# Elastic Constant Matrix: (Units=GPa)
#
#
# Indices 1 2 3 4 5 6 
#
# 1 103.5435 52.5246 32.0538 0.0000 0.0000 0.0000
# 2 52.5246 106.9813 49.4056 0.0000 0.0000 0.0000
# 3 32.0538 49.4056 101.6717 0.0000 0.0000 0.0000
# 4 0.0000 0.0000 0.0000 30.5112 0.0000 0.0000
# 5 0.0000 0.0000 0.0000 0.0000 40.9944 0.0000
# 6 0.0000 0.0000 0.0000 0.0000 0.0000 30.9910
#
#
#
# Elastic Compliance Matrix: (Units=1/GPa)
#
#
# Indices 1 2 3 4 5 6 
#
# 1 0.012990 -0.005784 -0.001284 0.000000 0.000000 0.000000
# 2 -0.005784 0.014628 -0.005285 0.000000 0.000000 0.000000
# 3 -0.001284 -0.005285 0.012808 0.000000 0.000000 0.000000
# 4 0.000000 0.000000 0.000000 0.032775 0.000000 0.000000
# 5 0.000000 0.000000 0.000000 0.000000 0.024394 0.000000
# 6 0.000000 0.000000 0.000000 0.000000 0.000000 0.032267
#
#
# Mechanical properties :
#
#
# Convention : Reuss Voigt Hill
#
# Bulk Modulus (GPa) = 63.61594 64.46273 64.03934
# Shear Modulus (GPa) = 31.28752 32.38015 31.83384
#
# Velocity S-wave (km/s) = 4.00083 4.07009 4.03561
# Velocity P-wave (km/s) = 7.34085 7.42069 7.38088
#
# Compressibility (1/GPa) = 0.01571933
#
# Stress axis : x y z
#
# Youngs Moduli (GPa) = 76.98454 68.36267 78.07350
#
# Poissons Ratio (x) = 0.39543 0.10028
# Poissons Ratio (y) = 0.44531 0.41258
# Poissons Ratio (z) = 0.09888 0.36127
#
# Static dielectric constant tensor:
#      x y z
#    x 3.723190 0.000000 0.000000 
#    y 0.000000 3.825090 0.000000 
#    z 0.000000 0.000000 3.358760 
# 
# 
# High freq. dielectric constant tensor:
#      x y z
#    x 1.757420 0.000000 0.000000 
#    y 0.000000 1.770350 0.000000 
#    z 0.000000 0.000000 1.753980 
# 
# From -- ./inp_files/40180.got.cif
#   From: 2010.03.12/outbox.cif.g09.slc.cpg/sg67_21_cif.got.tgz:40180.got - 2010.04.10 22:41:39.
