data_PCOD8280662
_publ_section_title
;
Structure prediction by ZEFSAII (Michael W. Deem and Ramdas Pophale) SiO2 
 PCOD8280662
Probable space group: C M M A
;
_chemical_formula_sum "Si O2"
_cell_formula_units_Z 128
_cell_length_a 18.729630
_cell_length_b 19.840783
_cell_length_c 19.178211
_cell_angle_alpha 90.000000
_cell_angle_beta 90.000000
_cell_angle_gamma 90.000000
_cell_volume 7126.825049
_symmetry_space_group_name_H-M "C M M A"
_symmetry_group_IT_number 67
_symmetry_cell_setting 'orthorhombic'
loop_
_space_group_symop_operation_xyz
x,y,z
-x,1/2-y,z
x,-y,-z
-x,1/2+y,-z
-x,-y,-z
x,1/2+y,-z
-x,y,z
x,1/2-y,z
1/2+x,1/2+y,z
1/2-x,-y,z
1/2+x,1/2-y,-z
1/2-x,y,-z
1/2-x,1/2-y,-z
1/2+x,y,-z
1/2-x,1/2+y,z
1/2+x,-y,z
loop_
_atom_site_type_symbol
_atom_site_label
_atom_site_fract_x
_atom_site_fract_y
_atom_site_fract_z
Si Si1 0.177531 0.426413 0.531898
Si Si2 0.580513 0.917223 0.169845
Si Si3 0.083657 0.824766 0.544098
Si Si4 0.675548 0.968191 0.683125
Si Si5 0.835260 0.826485 0.087740
Si Si6 0.083887 0.572799 0.189923
Si Si7 0.082893 0.592196 0.675340
Si Si8 0.671329 0.826156 0.074926
O O1 0.161362 0.500000 0.500000
O O2 0.250000 0.396973 0.500000
O O3 0.114363 0.375754 0.512732
O O4 0.189929 0.423378 0.615052
O O5 0.500000 0.895618 0.156475
O O6 0.605584 0.890140 0.245603
O O7 0.625838 0.881927 0.111961
O O8 0.590616 0.997117 0.161572
O O9 0.115523 0.750000 0.533886
O O10 0.101565 0.847094 0.623418
O O11 0.000000 0.824620 0.531738
O O12 0.633533 0.923523 0.740768
O O13 0.750000 0.000000 0.712697
O O14 0.625522 0.026547 0.652136
O O15 0.856089 0.750000 0.108454
O O16 0.885084 0.876278 0.132312
O O17 0.751800 0.839334 0.100333
O O18 0.845471 0.838043 0.005870
O O19 0.000000 0.589703 0.205742
O O20 0.000000 0.572250 0.673409
O O21 0.649385 0.750000 0.095244
#
# Coordination Sequence:
#
# PCOD8280662 Si02
#       8
#    16  16  16  16  16  16  16  16
#     4  11  20  37  57  84 112 141 183 237 283 334
#     4   9  19  33  52  82 115 143 180 234 289 334
#     4  10  21  35  53  80 112 149 189 224 271 336
#     4  11  20  34  58  83 109 141 187 232 279 337
#     4   9  20  39  59  79 110 152 194 235 276 329
#     4  10  23  38  55  84 117 149 189 238 283 336
#     4   9  18  33  51  75 111 144 177 224 275 328
#     4   9  19  36  57  83 112 145 194 239 274 333
#
# _framework density 17.960311999999998
#
# number of rings (size 3 to 8) (size 9 to 14) (size 15 to 20)
#    0.000    2.250    2.500    1.875    3.500    3.500 
#    0.000    5.625    0.000    0.000    0.000    0.000 
#    0.000    0.000    0.000    0.000    0.000    0.000 
#
# Total GULP energy -793288.062524 kJ/mol
# GULP energy per Si atom -12395.125977 kJ/mol
# Density = 1.791943 g / cm^3
# Si number density = 17.960312 Si / 1000 Ang^3
#
#
#
# Elastic Constant Matrix: (Units=GPa)
#
#
# Indices 1 2 3 4 5 6 
#
# 1 73.4365 42.2133 55.7707 0.0000 0.0000 0.0000
# 2 42.2133 71.6250 43.8167 0.0000 0.0000 0.0000
# 3 55.7707 43.8167 84.2756 0.0000 0.0000 0.0000
# 4 0.0000 0.0000 0.0000 24.3726 0.0000 0.0000
# 5 0.0000 0.0000 0.0000 0.0000 33.0917 0.0000
# 6 0.0000 0.0000 0.0000 0.0000 0.0000 30.8845
#
#
#
# Elastic Compliance Matrix: (Units=1/GPa)
#
#
# Indices 1 2 3 4 5 6 
#
# 1 0.030346 -0.008212 -0.015813 0.000000 0.000000 0.000000
# 2 -0.008212 0.022696 -0.006366 0.000000 0.000000 0.000000
# 3 -0.015813 -0.006366 0.025640 0.000000 0.000000 0.000000
# 4 0.000000 0.000000 0.000000 0.041030 0.000000 0.000000
# 5 0.000000 0.000000 0.000000 0.000000 0.030219 0.000000
# 6 0.000000 0.000000 0.000000 0.000000 0.000000 0.032379
#
#
# Mechanical properties :
#
#
# Convention : Reuss Voigt Hill
#
# Bulk Modulus (GPa) = 55.86128 56.99318 56.42723
# Shear Modulus (GPa) = 20.07577 23.50552 21.79065
#
# Velocity S-wave (km/s) = 3.34696 3.62159 3.48698
# Velocity P-wave (km/s) = 6.79016 7.02065 6.90637
#
# Compressibility (1/GPa) = 0.01790149
#
# Stress axis : x y z
#
# Youngs Moduli (GPa) = 32.95295 44.06158 39.00182
#
# Poissons Ratio (x) = 0.36182 0.61673
# Poissons Ratio (y) = 0.27060 0.24827
# Poissons Ratio (z) = 0.52108 0.28048
#
# Static dielectric constant tensor:
#      x y z
#    x 3.431630 0.000000 0.000000 
#    y 0.000000 3.224930 0.000000 
#    z 0.000000 0.000000 3.314690 
# 
# 
# High freq. dielectric constant tensor:
#      x y z
#    x 1.702340 0.000000 0.000000 
#    y 0.000000 1.678000 0.000000 
#    z 0.000000 0.000000 1.694900 
# 
# From -- ./inp_files/39154.got.cif
#   From: 2010.03.12/outbox.cif.g09.slc.cpg/sg67_20_cif.got.tgz:39154.got - 2010.04.10 22:41:39.
