data_PCOD8280242
_publ_section_title
;
Structure prediction by ZEFSAII (Michael W. Deem and Ramdas Pophale) SiO2 
 PCOD8280242
Probable space group: C M M A
;
_chemical_formula_sum "Si O2"
_cell_formula_units_Z 112
_cell_length_a 14.140878
_cell_length_b 17.995833
_cell_length_c 21.894863
_cell_angle_alpha 90.000000
_cell_angle_beta 90.000000
_cell_angle_gamma 90.000000
_cell_volume 5571.736402
_symmetry_space_group_name_H-M "C M M A"
_symmetry_group_IT_number 67
_symmetry_cell_setting 'orthorhombic'
loop_
_space_group_symop_operation_xyz
x,y,z
-x,1/2-y,z
x,-y,-z
-x,1/2+y,-z
-x,-y,-z
x,1/2+y,-z
-x,y,z
x,1/2-y,z
1/2+x,1/2+y,z
1/2-x,-y,z
1/2+x,1/2-y,-z
1/2-x,y,-z
1/2-x,1/2-y,-z
1/2+x,y,-z
1/2-x,1/2+y,z
1/2+x,-y,z
loop_
_atom_site_type_symbol
_atom_site_label
_atom_site_fract_x
_atom_site_fract_y
_atom_site_fract_z
Si Si1 0.896254 0.834556 0.250952
Si Si2 0.895092 0.662460 0.028444
Si Si3 0.746878 0.668336 0.572110
Si Si4 0.277786 0.413840 0.786879
Si Si5 0.611962 0.599537 0.337285
Si Si6 0.292015 0.337995 0.905492
Si Si7 0.104150 0.933137 0.370290
O O1 0.875625 0.750000 0.269267
O O2 0.817568 0.864961 0.205688
O O3 0.889915 0.884064 0.310556
O O4 0.000000 0.842445 0.220324
O O5 0.900814 0.750000 0.034709
O O6 0.814489 0.635481 0.075796
O O7 0.000000 0.628032 0.041903
O O8 0.863861 0.642306 0.959794
O O9 0.713919 0.750000 0.595304
O O10 0.750000 0.671478 0.500000
O O11 0.844068 0.650409 0.608915
O O12 0.672746 0.602765 0.581116
O O13 0.250000 0.500000 0.784080
O O14 0.338648 0.387088 0.728331
O O15 0.330074 0.388787 0.848980
O O16 0.500000 0.615386 0.332056
O O17 0.636190 0.515547 0.354668
O O18 0.294795 0.250000 0.889904
O O19 0.000000 0.933265 0.399132
#
# Coordination Sequence:
#
# PCOD8280242 Si02
#       7
#    16  16  16  16  16  16  16
#     4  10  20  35  58  85 111 143 190 244 292 337
#     4   8  15  33  57  78 107 146 191 245 295 339
#     4  11  24  41  62  89 119 151 192 243 296 349
#     4  12  22  36  57  85 123 160 191 237 295 359
#     4  11  24  42  61  83 118 162 200 235 285 355
#     4   9  19  33  54  84 110 144 196 242 286 345
#     4  10  20  38  62  86 110 145 194 241 289 340
#
# _framework density 20.101452999999999
#
# number of rings (size 3 to 8) (size 9 to 14) (size 15 to 20)
#    0.000    1.857    2.857    2.143    0.000    4.571 
#    0.000    5.714    0.000    0.857    0.000    0.000 
#    0.000    0.000    0.000    0.000    0.000    0.000 
#
# Total GULP energy -693909.530105 kJ/mol
# GULP energy per Si atom -12391.241609 kJ/mol
# Density = 2.005570 g / cm^3
# Si number density = 20.101453 Si / 1000 Ang^3
#
#
#
# Elastic Constant Matrix: (Units=GPa)
#
#
# Indices 1 2 3 4 5 6 
#
# 1 97.4210 21.1433 35.3242 0.0000 0.0000 0.0000
# 2 21.1433 66.5018 32.2366 0.0000 0.0000 0.0000
# 3 35.3242 32.2366 104.9494 0.0000 0.0000 0.0000
# 4 0.0000 0.0000 0.0000 37.0489 0.0000 0.0000
# 5 0.0000 0.0000 0.0000 0.0000 16.0519 0.0000
# 6 0.0000 0.0000 0.0000 0.0000 0.0000 22.9564
#
#
#
# Elastic Compliance Matrix: (Units=1/GPa)
#
#
# Indices 1 2 3 4 5 6 
#
# 1 0.011953 -0.002174 -0.003356 0.000000 0.000000 0.000000
# 2 -0.002174 0.018063 -0.004817 0.000000 0.000000 0.000000
# 3 -0.003356 -0.004817 0.012137 0.000000 0.000000 0.000000
# 4 0.000000 0.000000 0.000000 0.026991 0.000000 0.000000
# 5 0.000000 0.000000 0.000000 0.000000 0.062298 0.000000
# 6 0.000000 0.000000 0.000000 0.000000 0.000000 0.043561
#
#
# Mechanical properties :
#
#
# Convention : Reuss Voigt Hill
#
# Bulk Modulus (GPa) = 46.59462 49.58673 48.09067
# Shear Modulus (GPa) = 24.64881 27.22266 25.93573
#
# Velocity S-wave (km/s) = 3.50554 3.68402 3.59589
# Velocity P-wave (km/s) = 6.29406 6.54353 6.42001
#
# Compressibility (1/GPa) = 0.02146171
#
# Stress axis : x y z
#
# Youngs Moduli (GPa) = 83.65958 55.36126 82.39040
#
# Poissons Ratio (x) = 0.12034 0.27647
# Poissons Ratio (y) = 0.18186 0.39685
# Poissons Ratio (z) = 0.28072 0.26666
#
# Static dielectric constant tensor:
#      x y z
#    x 4.149950 0.000000 0.000000 
#    y 0.000000 3.894980 0.000000 
#    z 0.000000 0.000000 3.568920 
# 
# 
# High freq. dielectric constant tensor:
#      x y z
#    x 1.786900 0.000000 0.000000 
#    y 0.000000 1.774120 0.000000 
#    z 0.000000 0.000000 1.780160 
# 
# From -- ./inp_files/41918.got.cif
#   From: 2010.03.12/outbox.cif.g09.slc.cpg/sg67_21_cif.got.tgz:41918.got - 2010.04.10 22:41:39.
