data_PCOD8280661
_publ_section_title
;
Structure prediction by ZEFSAII (Michael W. Deem and Ramdas Pophale) SiO2 
 PCOD8280661
Probable space group: C M M A
;
_chemical_formula_sum "Si O2"
_cell_formula_units_Z 68
_cell_length_a 10.306165
_cell_length_b 14.470418
_cell_length_c 21.644380
_cell_angle_alpha 90.000000
_cell_angle_beta 90.000000
_cell_angle_gamma 90.000000
_cell_volume 3227.924125
_symmetry_space_group_name_H-M "C M M A"
_symmetry_group_IT_number 67
_symmetry_cell_setting 'orthorhombic'
loop_
_space_group_symop_operation_xyz
x,y,z
-x,1/2-y,z
x,-y,-z
-x,1/2+y,-z
-x,-y,-z
x,1/2+y,-z
-x,y,z
x,1/2-y,z
1/2+x,1/2+y,z
1/2-x,-y,z
1/2+x,1/2-y,-z
1/2-x,y,-z
1/2-x,1/2-y,-z
1/2+x,y,-z
1/2-x,1/2+y,z
1/2+x,-y,z
loop_
_atom_site_type_symbol
_atom_site_label
_atom_site_fract_x
_atom_site_fract_y
_atom_site_fract_z
Si Si1 0.646687 0.642402 0.594737
Si Si2 0.250000 0.500000 0.500000
Si Si3 0.358481 0.355886 0.690713
Si Si4 0.352296 0.920181 0.175146
Si Si5 0.140370 0.355502 0.042402
O O1 0.500000 0.636562 0.620219
O O2 0.676270 0.750000 0.575458
O O3 0.659746 0.570420 0.538556
O O4 0.743983 0.603983 0.647930
O O5 0.500000 0.402991 0.676634
O O6 0.370854 0.250000 0.673682
O O7 0.322517 0.363746 0.762710
O O8 0.500000 0.958192 0.175910
O O9 0.327193 0.857322 0.115200
O O10 0.250000 0.000000 0.170849
O O11 0.131632 0.250000 0.021446
O O12 0.000000 0.403107 0.029748
O O13 0.250000 0.405461 0.000000
#
# Coordination Sequence:
#
# PCOD8280661 Si02
#       5
#    16   4  16  16  16
#     4  10  23  42  63  90 122 156 199 248 294 346
#     4  12  24  40  64  92 122 164 196 234 294 358
#     4   9  19  38  62  84 110 148 191 235 286 342
#     4  10  21  35  53  80 112 147 184 228 280 338
#     4   9  18  34  55  77 104 141 187 233 277 330
#
# _framework density 21.066168999999999
#
# number of rings (size 3 to 8) (size 9 to 14) (size 15 to 20)
#    0.000    2.353    0.000    1.412    1.647    7.059 
#    0.000    4.706    0.000    7.059    0.000    0.000 
#    0.000    0.000    0.000    0.000    0.000    0.000 
#
# Total GULP energy -421234.002526 kJ/mol
# GULP energy per Si atom -12389.235368 kJ/mol
# Density = 2.101822 g / cm^3
# Si number density = 21.066169 Si / 1000 Ang^3
#
#
#
# Elastic Constant Matrix: (Units=GPa)
#
#
# Indices 1 2 3 4 5 6 
#
# 1 153.4168 40.2503 90.5214 0.0000 0.0000 0.0000
# 2 40.2503 54.6935 27.1414 0.0000 0.0000 0.0000
# 3 90.5214 27.1414 146.0484 0.0000 0.0000 0.0000
# 4 0.0000 0.0000 0.0000 18.0655 0.0000 0.0000
# 5 0.0000 0.0000 0.0000 0.0000 35.0371 0.0000
# 6 0.0000 0.0000 0.0000 0.0000 0.0000 19.5362
#
#
#
# Elastic Compliance Matrix: (Units=1/GPa)
#
#
# Indices 1 2 3 4 5 6 
#
# 1 0.011593 -0.005471 -0.006169 0.000000 0.000000 0.000000
# 2 -0.005471 0.022723 -0.000832 0.000000 0.000000 0.000000
# 3 -0.006169 -0.000832 0.010825 0.000000 0.000000 0.000000
# 4 0.000000 0.000000 0.000000 0.055354 0.000000 0.000000
# 5 0.000000 0.000000 0.000000 0.000000 0.028541 0.000000
# 6 0.000000 0.000000 0.000000 0.000000 0.000000 0.051187
#
#
# Mechanical properties :
#
#
# Convention : Reuss Voigt Hill
#
# Bulk Modulus (GPa) = 49.50987 74.44275 61.97631
# Shear Modulus (GPa) = 23.59610 27.61079 25.60345
#
# Velocity S-wave (km/s) = 3.35041 3.62424 3.49002
# Velocity P-wave (km/s) = 6.20646 7.27515 6.76195
#
# Compressibility (1/GPa) = 0.02019799
#
# Stress axis : x y z
#
# Youngs Moduli (GPa) = 86.25637 44.00919 92.37681
#
# Poissons Ratio (x) = 0.24075 0.56987
# Poissons Ratio (y) = 0.47187 0.07686
# Poissons Ratio (z) = 0.53211 0.03662
#
# Static dielectric constant tensor:
#      x y z
#    x 4.233670 0.000000 0.000000 
#    y 0.000000 3.590400 0.000000 
#    z 0.000000 0.000000 4.904840 
# 
# 
# High freq. dielectric constant tensor:
#      x y z
#    x 1.836840 0.000000 0.000000 
#    y 0.000000 1.806840 0.000000 
#    z 0.000000 0.000000 1.822190 
# 
# From -- ./inp_files/36653.got.cif
#   From: 2010.03.12/outbox.cif.g09.slc.cpg/sg67_19_cif.got.tgz:36653.got - 2010.04.10 22:41:39.
