data_PCOD8280343
_publ_section_title
;
Structure prediction by ZEFSAII (Michael W. Deem and Ramdas Pophale) SiO2 
 PCOD8280343
Probable space group: C M M A
;
_chemical_formula_sum "Si O2"
_cell_formula_units_Z 96
_cell_length_a 15.324767
_cell_length_b 14.015255
_cell_length_c 21.617002
_cell_angle_alpha 90.000000
_cell_angle_beta 90.000000
_cell_angle_gamma 90.000000
_cell_volume 4642.910872
_symmetry_space_group_name_H-M "C M M A"
_symmetry_group_IT_number 67
_symmetry_cell_setting 'orthorhombic'
loop_
_space_group_symop_operation_xyz
x,y,z
-x,1/2-y,z
x,-y,-z
-x,1/2+y,-z
-x,-y,-z
x,1/2+y,-z
-x,y,z
x,1/2-y,z
1/2+x,1/2+y,z
1/2-x,-y,z
1/2+x,1/2-y,-z
1/2-x,y,-z
1/2-x,1/2-y,-z
1/2+x,y,-z
1/2-x,1/2+y,z
1/2+x,-y,z
loop_
_atom_site_type_symbol
_atom_site_label
_atom_site_fract_x
_atom_site_fract_y
_atom_site_fract_z
Si Si1 0.153673 0.524353 0.904165
Si Si2 0.233076 0.357509 0.432159
Si Si3 0.403100 0.647706 0.645674
Si Si4 0.900622 0.357690 0.983513
Si Si5 0.399422 0.353737 0.790806
Si Si6 0.898787 0.440587 0.334049
O O1 0.250000 0.500000 0.883569
O O2 0.105910 0.425941 0.923603
O O3 0.108870 0.569743 0.844965
O O4 0.156990 0.599590 0.960860
O O5 0.195030 0.250000 0.435485
O O6 0.250000 0.401475 0.500000
O O7 0.330022 0.356993 0.405835
O O8 0.163589 0.419988 0.392878
O O9 0.500000 0.644974 0.614738
O O10 0.393359 0.750000 0.682565
O O11 0.393120 0.552238 0.686738
O O12 0.869613 0.250000 0.967425
O O13 0.000000 0.357153 0.007068
O O14 0.500000 0.342514 0.776593
O O15 0.359600 0.250000 0.809808
O O16 0.358293 0.385716 0.725246
O O17 0.000000 0.413004 0.349327
#
# Coordination Sequence:
#
# PCOD8280343 Si02
#       6
#    16  16  16  16  16  16
#     4  11  22  34  54  84 115 147 185 235 289 340
#     4  10  21  36  56  83 114 147 183 230 288 347
#     4   9  19  36  55  76 106 145 184 222 272 336
#     4  10  20  36  58  81 111 153 195 235 280 333
#     4  10  21  39  61  82 108 146 192 238 284 340
#     4  10  21  37  59  85 113 148 193 244 293 347
#
# _framework density 20.676684000000002
#
# number of rings (size 3 to 8) (size 9 to 14) (size 15 to 20)
#    0.000    2.000    0.000    4.500    0.000    7.667 
#    0.000    4.167    0.000    3.000    0.000    0.000 
#    0.000    0.000    0.000    0.000    0.000    0.000 
#
# Total GULP energy -594642.638452 kJ/mol
# GULP energy per Si atom -12388.388301 kJ/mol
# Density = 2.062962 g / cm^3
# Si number density = 20.676684 Si / 1000 Ang^3
#
#
#
# Elastic Constant Matrix: (Units=GPa)
#
#
# Indices 1 2 3 4 5 6 
#
# 1 68.4712 30.9788 22.6910 0.0000 0.0000 0.0000
# 2 30.9788 173.9705 60.1323 0.0000 0.0000 0.0000
# 3 22.6910 60.1323 115.0644 0.0000 0.0000 0.0000
# 4 0.0000 0.0000 0.0000 22.6968 0.0000 0.0000
# 5 0.0000 0.0000 0.0000 0.0000 26.2400 0.0000
# 6 0.0000 0.0000 0.0000 0.0000 0.0000 23.2308
#
#
#
# Elastic Compliance Matrix: (Units=1/GPa)
#
#
# Indices 1 2 3 4 5 6 
#
# 1 0.016278 -0.002183 -0.002069 0.000000 0.000000 0.000000
# 2 -0.002183 0.007308 -0.003389 0.000000 0.000000 0.000000
# 3 -0.002069 -0.003389 0.010870 0.000000 0.000000 0.000000
# 4 0.000000 0.000000 0.000000 0.044059 0.000000 0.000000
# 5 0.000000 0.000000 0.000000 0.000000 0.038110 0.000000
# 6 0.000000 0.000000 0.000000 0.000000 0.000000 0.043046
#
#
# Mechanical properties :
#
#
# Convention : Reuss Voigt Hill
#
# Bulk Modulus (GPa) = 52.15453 65.01225 58.58339
# Shear Modulus (GPa) = 27.57177 30.68045 29.12611
#
# Velocity S-wave (km/s) = 3.65563 3.85622 3.75726
# Velocity P-wave (km/s) = 6.56482 7.16504 6.87148
#
# Compressibility (1/GPa) = 0.01917379
#
# Stress axis : x y z
#
# Youngs Moduli (GPa) = 61.43170 136.83281 91.99887
#
# Poissons Ratio (x) = 0.29877 0.19035
# Poissons Ratio (y) = 0.13414 0.31175
# Poissons Ratio (z) = 0.12710 0.46368
#
# Static dielectric constant tensor:
#      x y z
#    x 3.709510 0.000000 0.000000 
#    y 0.000000 4.443660 0.000000 
#    z 0.000000 0.000000 3.374560 
# 
# 
# High freq. dielectric constant tensor:
#      x y z
#    x 1.807350 0.000000 0.000000 
#    y 0.000000 1.835500 0.000000 
#    z 0.000000 0.000000 1.769140 
# 
# From -- ./inp_files/38404.got.cif
#   From: 2010.03.12/outbox.cif.g09.slc.cpg/sg67_20_cif.got.tgz:38404.got - 2010.04.10 22:41:39.
