data_PCOD8280860
_publ_section_title
;
Structure prediction by ZEFSAII (Michael W. Deem and Ramdas Pophale) SiO2 
 PCOD8280860
Probable space group: C M M A
;
_chemical_formula_sum "Si O2"
_cell_formula_units_Z 68
_cell_length_a 23.534696
_cell_length_b 16.806442
_cell_length_c 8.325957
_cell_angle_alpha 90.000000
_cell_angle_beta 90.000000
_cell_angle_gamma 90.000000
_cell_volume 3293.203267
_symmetry_space_group_name_H-M "C M M A"
_symmetry_group_IT_number 67
_symmetry_cell_setting 'orthorhombic'
loop_
_space_group_symop_operation_xyz
x,y,z
-x,1/2-y,z
x,-y,-z
-x,1/2+y,-z
-x,-y,-z
x,1/2+y,-z
-x,y,z
x,1/2-y,z
1/2+x,1/2+y,z
1/2-x,-y,z
1/2+x,1/2-y,-z
1/2-x,y,-z
1/2-x,1/2-y,-z
1/2+x,y,-z
1/2-x,1/2+y,z
1/2+x,-y,z
loop_
_atom_site_type_symbol
_atom_site_label
_atom_site_fract_x
_atom_site_fract_y
_atom_site_fract_z
Si Si1 0.150803 0.091114 0.158517
Si Si2 0.098663 0.952840 0.349405
Si Si3 0.250000 0.500000 0.000000
Si Si4 0.316053 0.160519 0.516966
Si Si5 0.562224 0.341042 0.092478
O O1 0.162262 0.153852 0.299971
O O2 0.115152 0.015697 0.214749
O O3 0.211720 0.060038 0.102262
O O4 0.114038 0.132256 0.019524
O O5 0.154210 0.905950 0.409128
O O6 0.058407 0.889913 0.260331
O O7 0.069577 0.000000 0.500000
O O8 0.330122 0.250000 0.457573
O O9 0.250000 0.142390 0.500000
O O10 0.500000 0.351300 0.008271
O O11 0.572799 0.250000 0.139406
#
# Coordination Sequence:
#
# PCOD8280860 Si02
#       5
#    16  16   4  16  16
#     4  11  22  38  62  94 124 164 210 250 311 376
#     4  10  21  39  62  87 118 160 206 260 309 374
#     4  12  20  36  62  92 124 160 196 258 308 368
#     4  10  21  37  58  89 127 166 206 256 313 376
#     4  11  24  43  64  89 125 166 210 264 315 367
#
# _framework density 20.648589000000001
#
# number of rings (size 3 to 8) (size 9 to 14) (size 15 to 20)
#    0.000    1.412    2.353    2.824    0.000    5.647 
#    0.000    4.706    0.000   12.706    0.000    0.000 
#    0.000    0.000    0.000    0.000    0.000    0.000 
#
# Total GULP energy -421454.524753 kJ/mol
# GULP energy per Si atom -12395.721316 kJ/mol
# Density = 2.060159 g / cm^3
# Si number density = 20.648589 Si / 1000 Ang^3
#
#
#
# Elastic Constant Matrix: (Units=GPa)
#
#
# Indices 1 2 3 4 5 6 
#
# 1 94.4972 38.1209 36.8805 0.0000 0.0000 0.0000
# 2 38.1209 122.8969 45.4076 0.0000 0.0000 0.0000
# 3 36.8805 45.4076 87.8446 0.0000 0.0000 0.0000
# 4 0.0000 0.0000 0.0000 29.5494 0.0000 0.0000
# 5 0.0000 0.0000 0.0000 0.0000 18.5821 0.0000
# 6 0.0000 0.0000 0.0000 0.0000 0.0000 10.8276
#
#
#
# Elastic Compliance Matrix: (Units=1/GPa)
#
#
# Indices 1 2 3 4 5 6 
#
# 1 0.013270 -0.002543 -0.004256 0.000000 0.000000 0.000000
# 2 -0.002543 0.010545 -0.004383 0.000000 0.000000 0.000000
# 3 -0.004256 -0.004383 0.015436 0.000000 0.000000 0.000000
# 4 0.000000 0.000000 0.000000 0.033842 0.000000 0.000000
# 5 0.000000 0.000000 0.000000 0.000000 0.053815 0.000000
# 6 0.000000 0.000000 0.000000 0.000000 0.000000 0.092356
#
#
# Mechanical properties :
#
#
# Convention : Reuss Voigt Hill
#
# Bulk Modulus (GPa) = 59.22258 60.67298 59.94778
# Shear Modulus (GPa) = 20.22175 24.11381 22.16778
#
# Velocity S-wave (km/s) = 3.13282 3.42104 3.28010
# Velocity P-wave (km/s) = 6.46757 6.71209 6.59096
#
# Compressibility (1/GPa) = 0.01688545
#
# Stress axis : x y z
#
# Youngs Moduli (GPa) = 75.36067 94.82902 64.78190
#
# Poissons Ratio (x) = 0.24119 0.27573
# Poissons Ratio (y) = 0.19167 0.28395
# Poissons Ratio (z) = 0.32076 0.41565
#
# Static dielectric constant tensor:
#      x y z
#    x 3.583880 0.000000 0.000000 
#    y 0.000000 3.925330 0.000000 
#    z 0.000000 0.000000 3.863120 
# 
# 
# High freq. dielectric constant tensor:
#      x y z
#    x 1.798460 0.000000 0.000000 
#    y 0.000000 1.826550 0.000000 
#    z 0.000000 0.000000 1.805750 
# 
# From -- ./inp_files/9493.got.cif
#   From: 2010.03.12/outbox.cif.g09.slc.cpg/sg67_5_cif.got.tgz:9493.got - 2010.04.10 22:41:39.
