data_PCOD8280295
_publ_section_title
;
Structure prediction by ZEFSAII (Michael W. Deem and Ramdas Pophale) SiO2 
 PCOD8280295
Probable space group: C M M A
;
_chemical_formula_sum "Si O2"
_cell_formula_units_Z 96
_cell_length_a 27.177732
_cell_length_b 8.846672
_cell_length_c 24.134666
_cell_angle_alpha 90.000000
_cell_angle_beta 90.000000
_cell_angle_gamma 90.000000
_cell_volume 5802.757617
_symmetry_space_group_name_H-M "C M M A"
_symmetry_group_IT_number 67
_symmetry_cell_setting 'orthorhombic'
loop_
_space_group_symop_operation_xyz
x,y,z
-x,1/2-y,z
x,-y,-z
-x,1/2+y,-z
-x,-y,-z
x,1/2+y,-z
-x,y,z
x,1/2-y,z
1/2+x,1/2+y,z
1/2-x,-y,z
1/2+x,1/2-y,-z
1/2-x,y,-z
1/2-x,1/2-y,-z
1/2+x,y,-z
1/2-x,1/2+y,z
1/2+x,-y,z
loop_
_atom_site_type_symbol
_atom_site_label
_atom_site_fract_x
_atom_site_fract_y
_atom_site_fract_z
Si Si1 0.558593 0.579757 0.554738
Si Si2 0.353502 0.929696 0.942502
Si Si3 0.056904 0.927675 0.666075
Si Si4 0.699181 0.072069 0.839074
Si Si5 0.443692 0.572085 0.110548
Si Si6 0.897245 0.573857 0.777182
O O1 0.580329 0.500000 0.500000
O O2 0.500000 0.569754 0.553919
O O3 0.577746 0.750000 0.554454
O O4 0.578666 0.500648 0.610245
O O5 0.350336 0.750000 0.944410
O O6 0.317521 0.992943 0.895540
O O7 0.409758 0.981717 0.932378
O O8 0.334943 0.000000 0.000000
O O9 0.064329 0.750000 0.660072
O O10 0.086635 0.998166 0.718503
O O11 0.000000 0.970070 0.674744
O O12 0.704598 0.250000 0.849897
O O13 0.659704 0.038728 0.790539
O O14 0.750000 0.000000 0.818576
O O15 0.500000 0.536073 0.096269
O O16 0.431552 0.750000 0.105355
O O17 0.431340 0.513684 0.172583
O O18 0.907502 0.750000 0.771761
#
# Coordination Sequence:
#
# PCOD8280295 Si02
#       6
#    16  16  16  16  16  16
#     4   9  16  25  36  53  81 118 157 193 225 256
#     4  11  22  36  52  71  94 119 150 187 226 270
#     4   9  15  24  41  64  89 120 155 186 217 255
#     4  10  20  36  55  74  94 117 146 182 228 277
#     4   9  17  31  50  70  94 125 157 188 223 264
#     4   8  15  28  47  69  92 118 150 185 220 266
#
# _framework density 16.543858
#
# number of rings (size 3 to 8) (size 9 to 14) (size 15 to 20)
#    0.000    2.667    0.000    4.000    0.000    5.000 
#    0.000    5.833    0.000    4.000    0.000    0.000 
#    0.000    0.667    0.000    7.667    0.000    2.667 
#
# Total GULP energy -595093.224880 kJ/mol
# GULP energy per Si atom -12397.775518 kJ/mol
# Density = 1.650620 g / cm^3
# Si number density = 16.543858 Si / 1000 Ang^3
#
#
#
# Elastic Constant Matrix: (Units=GPa)
#
#
# Indices 1 2 3 4 5 6 
#
# 1 63.0417 32.9389 25.7613 0.0000 0.0000 0.0000
# 2 32.9389 84.3262 45.3148 0.0000 0.0000 0.0000
# 3 25.7613 45.3148 123.8664 0.0000 0.0000 0.0000
# 4 0.0000 0.0000 0.0000 23.7829 0.0000 0.0000
# 5 0.0000 0.0000 0.0000 0.0000 14.1206 0.0000
# 6 0.0000 0.0000 0.0000 0.0000 0.0000 21.7656
#
#
#
# Elastic Compliance Matrix: (Units=1/GPa)
#
#
# Indices 1 2 3 4 5 6 
#
# 1 0.020193 -0.007009 -0.001636 0.000000 0.000000 0.000000
# 2 -0.007009 0.017193 -0.004832 0.000000 0.000000 0.000000
# 3 -0.001636 -0.004832 0.010181 0.000000 0.000000 0.000000
# 4 0.000000 0.000000 0.000000 0.042047 0.000000 0.000000
# 5 0.000000 0.000000 0.000000 0.000000 0.070819 0.000000
# 6 0.000000 0.000000 0.000000 0.000000 0.000000 0.045944
#
#
# Mechanical properties :
#
#
# Convention : Reuss Voigt Hill
#
# Bulk Modulus (GPa) = 48.51036 53.25160 50.88098
# Shear Modulus (GPa) = 20.81588 23.08178 21.94883
#
# Velocity S-wave (km/s) = 3.55099 3.73927 3.64635
# Velocity P-wave (km/s) = 6.79696 7.13449 6.96777
#
# Compressibility (1/GPa) = 0.02061415
#
# Stress axis : x y z
#
# Youngs Moduli (GPa) = 49.52242 58.16290 98.22042
#
# Poissons Ratio (x) = 0.40764 0.16065
# Poissons Ratio (y) = 0.34709 0.47462
# Poissons Ratio (z) = 0.08100 0.28106
#
# Static dielectric constant tensor:
#      x y z
#    x 2.909420 0.000000 0.000000 
#    y 0.000000 3.021490 0.000000 
#    z 0.000000 0.000000 3.309330 
# 
# 
# High freq. dielectric constant tensor:
#      x y z
#    x 1.601160 0.000000 0.000000 
#    y 0.000000 1.629690 0.000000 
#    z 0.000000 0.000000 1.638240 
# 
# From -- ./inp_files/40918.got.cif
#   From: 2010.03.12/outbox.cif.g09.slc.cpg/sg67_21_cif.got.tgz:40918.got - 2010.04.10 22:41:39.
