data_PCOD8280751
_publ_section_title
;
Structure prediction by ZEFSAII (Michael W. Deem and Ramdas Pophale) SiO2 
 PCOD8280751
Probable space group: C M M A
;
_chemical_formula_sum "Si O2"
_cell_formula_units_Z 80
_cell_length_a 25.680986
_cell_length_b 8.811366
_cell_length_c 17.953362
_cell_angle_alpha 90.000000
_cell_angle_beta 90.000000
_cell_angle_gamma 90.000000
_cell_volume 4062.568744
_symmetry_space_group_name_H-M "C M M A"
_symmetry_group_IT_number 67
_symmetry_cell_setting 'orthorhombic'
loop_
_space_group_symop_operation_xyz
x,y,z
-x,1/2-y,z
x,-y,-z
-x,1/2+y,-z
-x,-y,-z
x,1/2+y,-z
-x,y,z
x,1/2-y,z
1/2+x,1/2+y,z
1/2-x,-y,z
1/2+x,1/2-y,-z
1/2-x,y,-z
1/2-x,1/2-y,-z
1/2+x,y,-z
1/2-x,1/2+y,z
1/2+x,-y,z
loop_
_atom_site_type_symbol
_atom_site_label
_atom_site_fract_x
_atom_site_fract_y
_atom_site_fract_z
Si Si1 0.302877 0.928348 0.352785
Si Si2 0.500000 0.571634 0.163851
Si Si3 0.803094 0.570392 0.816309
Si Si4 0.895615 0.928387 0.919951
Si Si5 0.000000 0.570201 0.323535
Si Si6 0.588956 0.930424 0.421140
O O1 0.296009 0.750000 0.354900
O O2 0.312271 0.985389 0.268373
O O3 0.352013 0.979637 0.402084
O O4 0.250000 0.000000 0.386146
O O5 0.500000 0.750000 0.185102
O O6 0.450502 0.524846 0.115044
O O7 0.500000 0.470683 0.237169
O O8 0.799245 0.750000 0.820046
O O9 0.750000 0.500000 0.848464
O O10 0.850509 0.508794 0.865882
O O11 0.891218 0.750000 0.928837
O O12 0.888534 0.000000 0.000000
O O13 0.051452 0.498432 0.359037
O O14 0.000000 0.750000 0.335111
O O15 0.582255 0.750000 0.422571
O O16 0.572885 0.000000 0.500000
#
# Coordination Sequence:
#
# PCOD8280751 Si02
#       6
#    16   8  16  16   8  16
#     4   9  19  36  59  83 111 148 190 234 281 332
#     4  10  21  40  62  82 109 146 182 226 281 338
#     4   9  18  34  54  78 106 142 185 227 272 324
#     4  10  21  36  56  81 112 146 183 226 277 332
#     4  12  25  40  61  88 113 144 189 238 283 336
#     4  11  23  40  60  84 117 154 189 231 283 339
#
# _framework density 19.691973000000001
#
# number of rings (size 3 to 8) (size 9 to 14) (size 15 to 20)
#    0.000    2.000    0.000    3.300    0.000    7.200 
#    0.000    8.000    0.000    0.000    0.000    0.000 
#    0.000    0.000    0.000    0.000    0.000    0.000 
#
# Total GULP energy -496148.681099 kJ/mol
# GULP energy per Si atom -12403.717027 kJ/mol
# Density = 1.964715 g / cm^3
# Si number density = 19.691973 Si / 1000 Ang^3
#
#
#
# Elastic Constant Matrix: (Units=GPa)
#
#
# Indices 1 2 3 4 5 6 
#
# 1 102.6689 25.8654 7.3395 0.0000 0.0000 0.0000
# 2 25.8654 50.3108 17.0244 0.0000 0.0000 0.0000
# 3 7.3395 17.0244 58.6312 0.0000 0.0000 0.0000
# 4 0.0000 0.0000 0.0000 33.5901 0.0000 0.0000
# 5 0.0000 0.0000 0.0000 0.0000 26.3321 0.0000
# 6 0.0000 0.0000 0.0000 0.0000 0.0000 32.5334
#
#
#
# Elastic Compliance Matrix: (Units=1/GPa)
#
#
# Indices 1 2 3 4 5 6 
#
# 1 0.011194 -0.005856 0.000299 0.000000 0.000000 0.000000
# 2 -0.005856 0.025106 -0.006557 0.000000 0.000000 0.000000
# 3 0.000299 -0.006557 0.018922 0.000000 0.000000 0.000000
# 4 0.000000 0.000000 0.000000 0.029771 0.000000 0.000000
# 5 0.000000 0.000000 0.000000 0.000000 0.037976 0.000000
# 6 0.000000 0.000000 0.000000 0.000000 0.000000 0.030738
#
#
# Mechanical properties :
#
#
# Convention : Reuss Voigt Hill
#
# Bulk Modulus (GPa) = 32.26385 34.67439 33.46912
# Shear Modulus (GPa) = 26.55816 29.24989 27.90402
#
# Velocity S-wave (km/s) = 3.67642 3.85823 3.76842
# Velocity P-wave (km/s) = 5.86867 6.12328 5.99733
#
# Compressibility (1/GPa) = 0.03099444
#
# Stress axis : x y z
#
# Youngs Moduli (GPa) = 89.33345 39.83125 52.84803
#
# Poissons Ratio (x) = 0.23326 -0.01581
# Poissons Ratio (y) = 0.52316 0.34651
# Poissons Ratio (z) = -0.02673 0.26117
#
# Static dielectric constant tensor:
#      x y z
#    x 3.913430 0.000000 0.000000 
#    y 0.000000 3.448900 0.000000 
#    z 0.000000 0.000000 3.607120 
# 
# 
# High freq. dielectric constant tensor:
#      x y z
#    x 1.785760 0.000000 0.000000 
#    y 0.000000 1.757360 0.000000 
#    z 0.000000 0.000000 1.768740 
# 
# From -- ./inp_files/35807.got.cif
#   From: 2010.03.12/outbox.cif.g09.slc.cpg/sg67_18_cif.got.tgz:35807.got - 2010.04.10 22:41:39.
