data_PCOD8280617
_publ_section_title
;
Structure prediction by ZEFSAII (Michael W. Deem and Ramdas Pophale) SiO2 
 PCOD8280617
Probable space group: C M M A
;
_chemical_formula_sum "Si O2"
_cell_formula_units_Z 112
_cell_length_a 14.252536
_cell_length_b 21.200261
_cell_length_c 17.773186
_cell_angle_alpha 90.000000
_cell_angle_beta 90.000000
_cell_angle_gamma 90.000000
_cell_volume 5370.301149
_symmetry_space_group_name_H-M "C M M A"
_symmetry_group_IT_number 67
_symmetry_cell_setting 'orthorhombic'
loop_
_space_group_symop_operation_xyz
x,y,z
-x,1/2-y,z
x,-y,-z
-x,1/2+y,-z
-x,-y,-z
x,1/2+y,-z
-x,y,z
x,1/2-y,z
1/2+x,1/2+y,z
1/2-x,-y,z
1/2+x,1/2-y,-z
1/2-x,y,-z
1/2-x,1/2-y,-z
1/2+x,y,-z
1/2-x,1/2+y,z
1/2+x,-y,z
loop_
_atom_site_type_symbol
_atom_site_label
_atom_site_fract_x
_atom_site_fract_y
_atom_site_fract_z
Si Si1 0.109141 0.434024 0.792198
Si Si2 0.642922 0.818380 0.020121
Si Si3 0.110317 0.004848 0.358956
Si Si4 0.781123 0.176119 0.722867
Si Si5 0.349854 0.942397 0.957944
Si Si6 0.897859 0.675905 0.811042
Si Si7 0.239687 0.098863 0.585496
O O1 0.130665 0.486146 0.728047
O O2 0.140691 0.364436 0.766042
O O3 0.160635 0.455531 0.869013
O O4 0.000000 0.430327 0.809889
O O5 0.591857 0.750000 0.008156
O O6 0.633459 0.842193 0.105368
O O7 0.750000 0.808078 0.000000
O O8 0.598065 0.874525 0.969382
O O9 0.152402 0.949508 0.411291
O O10 0.000000 0.012647 0.375421
O O11 0.165247 0.068413 0.380318
O O12 0.800107 0.250000 0.737592
O O13 0.680170 0.152123 0.753047
O O14 0.783760 0.161186 0.633983
O O15 0.250000 0.936414 0.000000
O O16 0.404155 0.000000 0.000000
O O17 0.906746 0.750000 0.803256
O O18 0.000000 0.644926 0.792442
O O19 0.250000 0.120933 0.500000
#
# Coordination Sequence:
#
# PCOD8280617 Si02
#       7
#    16  16  16  16  16  16  16
#     4  10  22  39  58  82 111 150 202 243 277 337
#     4   9  17  31  51  74 104 145 192 236 279 331
#     4   9  19  37  60  84 114 152 195 244 288 333
#     4  10  21  38  59  82 115 153 187 234 287 339
#     4  10  21  34  51  78 114 151 185 233 298 352
#     4   9  18  33  53  77 105 142 191 239 280 330
#     4  10  21  35  57  90 118 145 187 232 285 356
#
# _framework density 20.855440999999999
#
# number of rings (size 3 to 8) (size 9 to 14) (size 15 to 20)
#    0.000    2.429    0.000    2.571    0.000   10.571 
#    0.000    1.429    0.000    0.000    0.000    4.000 
#    0.000    0.000    0.000    0.000    0.000    0.000 
#
# Total GULP energy -693914.622143 kJ/mol
# GULP energy per Si atom -12391.332538 kJ/mol
# Density = 2.080797 g / cm^3
# Si number density = 20.855441 Si / 1000 Ang^3
#
#
#
# Elastic Constant Matrix: (Units=GPa)
#
#
# Indices 1 2 3 4 5 6 
#
# 1 94.1635 4.8395 22.2735 0.0000 0.0000 0.0000
# 2 4.8395 97.2814 32.5449 0.0000 0.0000 0.0000
# 3 22.2735 32.5449 141.2874 0.0000 0.0000 0.0000
# 4 0.0000 0.0000 0.0000 21.0203 0.0000 0.0000
# 5 0.0000 0.0000 0.0000 0.0000 19.4494 0.0000
# 6 0.0000 0.0000 0.0000 0.0000 0.0000 9.4177
#
#
#
# Elastic Compliance Matrix: (Units=1/GPa)
#
#
# Indices 1 2 3 4 5 6 
#
# 1 0.011031 0.000036 -0.001747 0.000000 0.000000 0.000000
# 2 0.000036 0.011138 -0.002571 0.000000 0.000000 0.000000
# 3 -0.001747 -0.002571 0.007945 0.000000 0.000000 0.000000
# 4 0.000000 0.000000 0.000000 0.047573 0.000000 0.000000
# 5 0.000000 0.000000 0.000000 0.000000 0.051415 0.000000
# 6 0.000000 0.000000 0.000000 0.000000 0.000000 0.106183
#
#
# Mechanical properties :
#
#
# Convention : Reuss Voigt Hill
#
# Bulk Modulus (GPa) = 46.40544 50.22760 48.31652
# Shear Modulus (GPa) = 19.91759 28.18245 24.05002
#
# Velocity S-wave (km/s) = 3.09371 3.68002 3.39953
# Velocity P-wave (km/s) = 5.92121 6.49559 6.21504
#
# Compressibility (1/GPa) = 0.02154920
#
# Stress axis : x y z
#
# Youngs Moduli (GPa) = 90.65124 89.78391 125.85761
#
# Poissons Ratio (x) = -0.00321 0.21991
# Poissons Ratio (y) = -0.00324 0.32360
# Poissons Ratio (z) = 0.15839 0.23085
#
# Static dielectric constant tensor:
#      x y z
#    x 3.995150 0.000000 0.000000 
#    y 0.000000 4.561630 0.000000 
#    z 0.000000 0.000000 3.741400 
# 
# 
# High freq. dielectric constant tensor:
#      x y z
#    x 1.809270 0.000000 0.000000 
#    y 0.000000 1.809080 0.000000 
#    z 0.000000 0.000000 1.810400 
# 
# From -- ./inp_files/27522.got.cif
#   From: 2010.03.12/outbox.cif.g09.slc.cpg/sg67_14_cif.got.tgz:27522.got - 2010.04.10 22:41:39.
