data_PCOD8280176
_publ_section_title
;
Structure prediction by ZEFSAII (Michael W. Deem and Ramdas Pophale) SiO2 
 PCOD8280176
Probable space group: C M M A
;
_chemical_formula_sum "Si O2"
_cell_formula_units_Z 80
_cell_length_a 16.604533
_cell_length_b 14.192427
_cell_length_c 15.523102
_cell_angle_alpha 90.000000
_cell_angle_beta 90.000000
_cell_angle_gamma 90.000000
_cell_volume 3658.152834
_symmetry_space_group_name_H-M "C M M A"
_symmetry_group_IT_number 67
_symmetry_cell_setting 'orthorhombic'
loop_
_space_group_symop_operation_xyz
x,y,z
-x,1/2-y,z
x,-y,-z
-x,1/2+y,-z
-x,-y,-z
x,1/2+y,-z
-x,y,z
x,1/2-y,z
1/2+x,1/2+y,z
1/2-x,-y,z
1/2+x,1/2-y,-z
1/2-x,y,-z
1/2-x,1/2-y,-z
1/2+x,y,-z
1/2-x,1/2+y,z
1/2+x,-y,z
loop_
_atom_site_type_symbol
_atom_site_label
_atom_site_fract_x
_atom_site_fract_y
_atom_site_fract_z
Si Si1 0.404200 0.949786 0.693539
Si Si2 0.406524 0.358694 0.972955
Si Si3 0.163055 0.108030 0.522904
Si Si4 0.657393 0.524228 0.873078
Si Si5 0.592065 0.848900 0.355456
O O1 0.500000 0.944692 0.679920
O O2 0.362498 0.880157 0.623409
O O3 0.378780 0.922089 0.789768
O O4 0.367687 0.056262 0.681618
O O5 0.500000 0.365449 0.998584
O O6 0.382186 0.250000 0.953748
O O7 0.352707 0.400826 0.049984
O O8 0.390121 0.425609 0.890258
O O9 0.250000 0.153218 0.500000
O O10 0.098603 0.155852 0.459673
O O11 0.164020 0.000000 0.500000
O O12 0.750000 0.500000 0.859870
O O13 0.500000 0.852182 0.328539
O O14 0.629183 0.750000 0.318229
#
# Coordination Sequence:
#
# PCOD8280176 Si02
#       5
#    16  16  16  16  16
#     4  10  20  35  56  81 110 149 196 238 285 343
#     4  10  21  41  66  89 119 158 198 241 293 361
#     4   9  18  31  53  73 103 142 182 235 279 336
#     4  11  23  36  61  91 123 159 195 246 301 353
#     4   9  18  32  50  73 103 141 186 235 286 339
#
# _framework density 21.868962
#
# number of rings (size 3 to 8) (size 9 to 14) (size 15 to 20)
#    0.000    2.200    0.000    4.200    5.600    5.200 
#    0.000    3.000    0.000    3.600    0.000    0.000 
#    0.000    0.000    0.000    0.000    0.000    0.000 
#
# Total GULP energy -495561.682767 kJ/mol
# GULP energy per Si atom -12389.042069 kJ/mol
# Density = 2.181919 g / cm^3
# Si number density = 21.868962 Si / 1000 Ang^3
#
#
#
# Elastic Constant Matrix: (Units=GPa)
#
#
# Indices 1 2 3 4 5 6 
#
# 1 85.1976 11.0898 23.0900 0.0000 0.0000 0.0000
# 2 11.0898 71.0807 -6.0890 0.0000 0.0000 0.0000
# 3 23.0900 -6.0890 96.9986 0.0000 0.0000 0.0000
# 4 0.0000 0.0000 0.0000 53.4635 0.0000 0.0000
# 5 0.0000 0.0000 0.0000 0.0000 30.8898 0.0000
# 6 0.0000 0.0000 0.0000 0.0000 0.0000 5.9784
#
#
#
# Elastic Compliance Matrix: (Units=1/GPa)
#
#
# Indices 1 2 3 4 5 6 
#
# 1 0.012907 -0.002289 -0.003216 0.000000 0.000000 0.000000
# 2 -0.002289 0.014551 0.001458 0.000000 0.000000 0.000000
# 3 -0.003216 0.001458 0.011167 0.000000 0.000000 0.000000
# 4 0.000000 0.000000 0.000000 0.018704 0.000000 0.000000
# 5 0.000000 0.000000 0.000000 0.000000 0.032373 0.000000
# 6 0.000000 0.000000 0.000000 0.000000 0.000000 0.167269
#
#
# Mechanical properties :
#
#
# Convention : Reuss Voigt Hill
#
# Bulk Modulus (GPa) = 32.75454 34.38428 33.56941
# Shear Modulus (GPa) = 18.16590 33.07874 25.62232
#
# Velocity S-wave (km/s) = 2.88526 3.89342 3.42662
# Velocity P-wave (km/s) = 5.10978 5.99739 5.57128
#
# Compressibility (1/GPa) = 0.03053012
#
# Stress axis : x y z
#
# Youngs Moduli (GPa) = 77.47707 68.72564 89.55302
#
# Poissons Ratio (x) = 0.15733 0.28802
# Poissons Ratio (y) = 0.17736 -0.13060
# Poissons Ratio (z) = 0.24918 -0.10023
#
# Static dielectric constant tensor:
#      x y z
#    x 3.955120 0.000000 0.000000 
#    y 0.000000 4.215800 0.000000 
#    z 0.000000 0.000000 3.966780 
# 
# 
# High freq. dielectric constant tensor:
#      x y z
#    x 1.849840 0.000000 0.000000 
#    y 0.000000 1.847680 0.000000 
#    z 0.000000 0.000000 1.848930 
# 
# From -- ./inp_files/34101.got.cif
#   From: 2010.03.12/outbox.cif.g09.slc.cpg/sg67_18_cif.got.tgz:34101.got - 2010.04.10 22:41:39.
