data_PCOD8280986
_publ_section_title
;
Structure prediction by ZEFSAII (Michael W. Deem and Ramdas Pophale) SiO2 
 PCOD8280986
Probable space group: C M M A
;
_chemical_formula_sum "Si O2"
_cell_formula_units_Z 112
_cell_length_a 14.417376
_cell_length_b 24.196319
_cell_length_c 14.429028
_cell_angle_alpha 90.000000
_cell_angle_beta 90.000000
_cell_angle_gamma 90.000000
_cell_volume 5033.529318
_symmetry_space_group_name_H-M "C M M A"
_symmetry_group_IT_number 67
_symmetry_cell_setting 'orthorhombic'
loop_
_space_group_symop_operation_xyz
x,y,z
-x,1/2-y,z
x,-y,-z
-x,1/2+y,-z
-x,-y,-z
x,1/2+y,-z
-x,y,z
x,1/2-y,z
1/2+x,1/2+y,z
1/2-x,-y,z
1/2+x,1/2-y,-z
1/2-x,y,-z
1/2-x,1/2-y,-z
1/2+x,y,-z
1/2-x,1/2+y,z
1/2+x,-y,z
loop_
_atom_site_type_symbol
_atom_site_label
_atom_site_fract_x
_atom_site_fract_y
_atom_site_fract_z
Si Si1 0.209924 0.149718 0.379305
Si Si2 0.893778 0.891431 0.915879
Si Si3 0.393408 0.895999 0.869821
Si Si4 0.762771 0.315524 0.178043
Si Si5 0.602396 0.991335 0.204697
Si Si6 0.653198 0.972685 0.405619
Si Si7 0.105491 0.688118 0.457167
O O1 0.191065 0.162882 0.273048
O O2 0.169513 0.092081 0.417262
O O3 0.149043 0.192506 0.439466
O O4 0.321704 0.152751 0.395637
O O5 0.833723 0.835937 0.900990
O O6 0.000000 0.878322 0.889935
O O7 0.850770 0.939730 0.849340
O O8 0.882696 0.908991 0.021808
O O9 0.500000 0.884815 0.842060
O O10 0.338199 0.841782 0.838182
O O11 0.349658 0.949697 0.817270
O O12 0.752415 0.250000 0.175678
O O13 0.500000 0.995692 0.160933
O O14 0.591548 0.982701 0.314948
O O15 0.610201 0.000000 0.500000
O O16 0.750000 0.000000 0.381941
O O17 0.101594 0.750000 0.416570
O O18 0.000000 0.662986 0.455846
#
# Coordination Sequence:
#
# PCOD8280986 Si02
#       7
#    16  16  16  16  16  16  16
#     4  11  22  41  62  88 129 169 212 271 331 386
#     4  10  22  42  66  95 130 170 220 280 342 399
#     4  10  23  42  66  96 130 169 217 280 343 403
#     4  12  25  41  64  94 132 180 227 270 329 401
#     4  10  21  40  66  96 128 165 216 271 333 407
#     4  11  22  38  60  89 128 169 204 253 328 393
#     4  10  21  38  62  89 118 162 220 271 317 375
#
# _framework density 22.250789000000001
#
# number of rings (size 3 to 8) (size 9 to 14) (size 15 to 20)
#    0.000    1.429    1.429    5.143    0.000    5.429 
#    0.000    6.429    0.000    0.429    0.000    0.000 
#    0.000    0.000    0.000    0.000    0.000    0.000 
#
# Total GULP energy -694149.062314 kJ/mol
# GULP energy per Si atom -12395.518970 kJ/mol
# Density = 2.220014 g / cm^3
# Si number density = 22.250789 Si / 1000 Ang^3
#
#
#
# Elastic Constant Matrix: (Units=GPa)
#
#
# Indices 1 2 3 4 5 6 
#
# 1 87.8243 37.7649 10.9616 0.0000 0.0000 0.0000
# 2 37.7649 161.8023 48.8594 0.0000 0.0000 0.0000
# 3 10.9616 48.8594 110.6207 0.0000 0.0000 0.0000
# 4 0.0000 0.0000 0.0000 33.2623 0.0000 0.0000
# 5 0.0000 0.0000 0.0000 0.0000 28.8320 0.0000
# 6 0.0000 0.0000 0.0000 0.0000 0.0000 23.6656
#
#
#
# Elastic Compliance Matrix: (Units=1/GPa)
#
#
# Indices 1 2 3 4 5 6 
#
# 1 0.012657 -0.002972 0.000058 0.000000 0.000000 0.000000
# 2 -0.002972 0.007829 -0.003164 0.000000 0.000000 0.000000
# 3 0.000058 -0.003164 0.010431 0.000000 0.000000 0.000000
# 4 0.000000 0.000000 0.000000 0.030064 0.000000 0.000000
# 5 0.000000 0.000000 0.000000 0.000000 0.034684 0.000000
# 6 0.000000 0.000000 0.000000 0.000000 0.000000 0.042255
#
#
# Mechanical properties :
#
#
# Convention : Reuss Voigt Hill
#
# Bulk Modulus (GPa) = 53.29438 61.71325 57.50381
# Shear Modulus (GPa) = 31.98373 34.66274 33.32323
#
# Velocity S-wave (km/s) = 3.79545 3.95121 3.87411
# Velocity P-wave (km/s) = 6.57350 6.97220 6.77578
#
# Compressibility (1/GPa) = 0.01876370
#
# Stress axis : x y z
#
# Youngs Moduli (GPa) = 79.00791 127.72507 95.86417
#
# Poissons Ratio (x) = 0.37957 -0.00560
# Poissons Ratio (y) = 0.23479 0.30328
# Poissons Ratio (z) = -0.00461 0.40407
#
# Static dielectric constant tensor:
#      x y z
#    x 3.870380 0.000000 0.000000 
#    y 0.000000 4.028090 0.000000 
#    z 0.000000 0.000000 3.994470 
# 
# 
# High freq. dielectric constant tensor:
#      x y z
#    x 1.871160 0.000000 0.000000 
#    y 0.000000 1.872160 0.000000 
#    z 0.000000 0.000000 1.879240 
# 
# From -- ./inp_files/27497.got.cif
#   From: 2010.03.12/outbox.cif.g09.slc.cpg/sg67_14_cif.got.tgz:27497.got - 2010.04.10 22:41:39.
