data_PCOD8280315
_publ_section_title
;
Structure prediction by ZEFSAII (Michael W. Deem and Ramdas Pophale) SiO2 
 PCOD8280315
Probable space group: C M M A
;
_chemical_formula_sum "Si O2"
_cell_formula_units_Z 80
_cell_length_a 8.674481
_cell_length_b 25.924134
_cell_length_c 18.808669
_cell_angle_alpha 90.000000
_cell_angle_beta 90.000000
_cell_angle_gamma 90.000000
_cell_volume 4229.663538
_symmetry_space_group_name_H-M "C M M A"
_symmetry_group_IT_number 67
_symmetry_cell_setting 'orthorhombic'
loop_
_space_group_symop_operation_xyz
x,y,z
-x,1/2-y,z
x,-y,-z
-x,1/2+y,-z
-x,-y,-z
x,1/2+y,-z
-x,y,z
x,1/2-y,z
1/2+x,1/2+y,z
1/2-x,-y,z
1/2+x,1/2-y,-z
1/2-x,y,-z
1/2-x,1/2-y,-z
1/2+x,y,-z
1/2-x,1/2+y,z
1/2+x,-y,z
loop_
_atom_site_type_symbol
_atom_site_label
_atom_site_fract_x
_atom_site_fract_y
_atom_site_fract_z
Si Si1 0.683949 0.250000 0.578346
Si Si2 0.671762 0.551269 0.335345
Si Si3 0.182983 0.159614 0.671543
Si Si4 0.667779 0.549458 0.167332
Si Si5 0.316698 0.750000 0.921795
Si Si6 0.814771 0.338307 0.174309
O O1 0.500000 0.250000 0.578247
O O2 0.750000 0.250000 0.500000
O O3 0.745900 0.301197 0.615702
O O4 0.500000 0.557936 0.367509
O O5 0.750000 0.500000 0.369019
O O6 0.772125 0.601824 0.352744
O O7 0.658873 0.543333 0.251559
O O8 0.251453 0.174974 0.747985
O O9 0.000000 0.164898 0.673950
O O10 0.500000 0.549380 0.132744
O O11 0.750000 0.500000 0.132618
O O12 0.745389 0.604767 0.150521
O O13 0.500000 0.750000 0.923056
O O14 0.254204 0.800119 0.882732
O O15 0.250000 0.750000 0.000000
O O16 0.000000 0.335623 0.177047
#
# Coordination Sequence:
#
# PCOD8280315 Si02
#       6
#     8  16  16  16   8  16
#     4  12  25  42  59  78 106 142 182 228 277 328
#     4   9  16  28  47  76 110 144 178 220 269 317
#     4  11  21  35  56  84 113 145 183 224 269 323
#     4   8  15  26  45  73 106 138 170 209 259 308
#     4  12  25  40  57  78 104 140 180 224 275 328
#     4  10  20  36  56  81 111 144 180 223 268 316
#
# _framework density 18.914033
#
# number of rings (size 3 to 8) (size 9 to 14) (size 15 to 20)
#    0.000    2.000    0.000    6.600    0.000    5.600 
#    0.000    0.000    0.000    1.200    0.000    8.400 
#    0.000    0.000    0.000    0.000    0.000    0.000 
#
# Total GULP energy -495826.989939 kJ/mol
# GULP energy per Si atom -12395.674748 kJ/mol
# Density = 1.887098 g / cm^3
# Si number density = 18.914033 Si / 1000 Ang^3
#
#
#
# Elastic Constant Matrix: (Units=GPa)
#
#
# Indices 1 2 3 4 5 6 
#
# 1 156.1816 69.7182 50.0669 0.0000 0.0000 0.0000
# 2 69.7182 172.5171 74.2057 0.0000 0.0000 0.0000
# 3 50.0669 74.2057 89.9309 0.0000 0.0000 0.0000
# 4 0.0000 0.0000 0.0000 -5.7494 0.0000 0.0000
# 5 0.0000 0.0000 0.0000 0.0000 24.4277 0.0000
# 6 0.0000 0.0000 0.0000 0.0000 0.0000 37.3402
#
#
#
# Elastic Compliance Matrix: (Units=1/GPa)
#
#
# Indices 1 2 3 4 5 6 
#
# 1 0.008261 -0.002109 -0.002859 0.000000 0.000000 0.000000
# 2 -0.002109 0.009524 -0.006685 0.000000 0.000000 0.000000
# 3 -0.002859 -0.006685 0.018227 0.000000 0.000000 0.000000
# 4 0.000000 0.000000 0.000000 -0.173932 0.000000 0.000000
# 5 0.000000 0.000000 0.000000 0.000000 0.040937 0.000000
# 6 0.000000 0.000000 0.000000 0.000000 0.000000 0.026781
#
#
# Mechanical properties :
#
#
# Convention : Reuss Voigt Hill
#
# Bulk Modulus (GPa) = 78.69606 89.62347 84.15977
# Shear Modulus (GPa) = -117.19906 26.17964 -45.50971
#
# Velocity S-wave (km/s) = -7.88027 3.72444 -4.91056
# Velocity P-wave (km/s) = 6.41097 8.12298 3.52719
#
# Compressibility (1/GPa) = 0.01270712
#
# Stress axis : x y z
#
# Youngs Moduli (GPa) = 121.05748 104.99818 54.86301
#
# Poissons Ratio (x) = 0.22139 0.15686
# Poissons Ratio (y) = 0.25525 0.36675
# Poissons Ratio (z) = 0.34611 0.70189
#
# Static dielectric constant tensor:
#      x y z
#    x 3.774470 0.000000 0.000000 
#    y 0.000000 3.886820 0.000000 
#    z 0.000000 0.000000 2.997350 
# 
# 
# High freq. dielectric constant tensor:
#      x y z
#    x 1.750390 0.000000 0.000000 
#    y 0.000000 1.761190 0.000000 
#    z 0.000000 0.000000 1.678720 
# 
# From -- ./inp_files/32194.got.cif
#   From: 2010.03.12/outbox.cif.g09.slc.cpg/sg67_17_cif.got.tgz:32194.got - 2010.04.10 22:41:39.
