data_PCOD8280828
_publ_section_title
;
Structure prediction by ZEFSAII (Michael W. Deem and Ramdas Pophale) SiO2 
 PCOD8280828
Probable space group: C M M A
;
_chemical_formula_sum "Si O2"
_cell_formula_units_Z 96
_cell_length_a 20.819562
_cell_length_b 14.911464
_cell_length_c 15.619172
_cell_angle_alpha 90.000000
_cell_angle_beta 90.000000
_cell_angle_gamma 90.000000
_cell_volume 4848.974279
_symmetry_space_group_name_H-M "C M M A"
_symmetry_group_IT_number 67
_symmetry_cell_setting 'orthorhombic'
loop_
_space_group_symop_operation_xyz
x,y,z
-x,1/2-y,z
x,-y,-z
-x,1/2+y,-z
-x,-y,-z
x,1/2+y,-z
-x,y,z
x,1/2-y,z
1/2+x,1/2+y,z
1/2-x,-y,z
1/2+x,1/2-y,-z
1/2-x,y,-z
1/2-x,1/2-y,-z
1/2+x,y,-z
1/2-x,1/2+y,z
1/2+x,-y,z
loop_
_atom_site_type_symbol
_atom_site_label
_atom_site_fract_x
_atom_site_fract_y
_atom_site_fract_z
Si Si1 0.361906 0.349807 0.098359
Si Si2 0.180176 1.000000 0.781313
Si Si3 0.000000 0.099525 0.100936
Si Si4 0.923806 0.500000 0.635029
Si Si5 0.500000 0.900475 0.899064
Si Si6 0.575392 0.648626 0.500000
Si Si7 0.638094 0.849807 0.098359
O O1 0.334137 0.250000 0.107292
O O2 0.320644 0.413445 0.158125
O O3 0.436012 0.349383 0.130777
O O4 0.357380 0.383154 0.000000
O O5 0.179356 0.913445 0.841875
O O6 0.250000 0.000000 0.734104
O O7 0.119963 1.000000 0.718415
O O8 0.936012 0.150618 0.130777
O O9 0.000000 0.000000 0.141366
O O10 0.000000 0.093435 1.000000
O O11 0.904936 0.409625 0.583110
O O12 0.904936 0.590376 0.583110
O O13 0.000000 0.500000 0.657313
O O14 0.500000 0.660127 0.500001
O O15 0.606460 0.750000 0.500000
O O16 0.665863 0.750000 0.107292
#
# Coordination Sequence:
#
# PCOD8280828 Si02
#       7
#    16  16   8  16   8  16  16
#     4  10  21  37  57  79 108 153 206 253 296 342
#     4  12  26  39  54  82 122 158 193 244 295 339
#     4   9  15  29  55  82 105 131 178 248 307 345
#     4   9  20  37  61  90 117 147 182 225 280 345
#     4   9  15  29  55  82 105 131 178 248 307 345
#     4   8  15  35  66  94 116 140 178 226 275 335
#     4  10  21  37  57  79 108 153 206 253 296 342
#
# _framework density 19.798000999999999
#
# number of rings (size 3 to 8) (size 9 to 14) (size 15 to 20)
#    0.000    2.333    1.667    2.000    2.333    5.333 
#    0.000    3.333    0.000    1.000    0.000    0.000 
#    0.000    0.000    0.000    0.000    0.000    0.000 
#
# Total GULP energy -594811.221385 kJ/mol
# GULP energy per Si atom -12391.900446 kJ/mol
# Density = 1.975294 g / cm^3
# Si number density = 19.798001 Si / 1000 Ang^3
#
#
#
# Elastic Constant Matrix: (Units=GPa)
#
#
# Indices 1 2 3 4 5 6 
#
# 1 87.4174 25.3962 40.9490 0.0000 0.0000 0.0000
# 2 25.3962 142.6435 50.1848 0.0000 0.0000 0.0000
# 3 40.9490 50.1848 87.0510 0.0000 0.0000 0.0000
# 4 0.0000 0.0000 0.0000 11.8178 0.0000 0.0000
# 5 0.0000 0.0000 0.0000 0.0000 7.5869 0.0000
# 6 0.0000 0.0000 0.0000 0.0000 0.0000 3.8007
#
#
#
# Elastic Compliance Matrix: (Units=1/GPa)
#
#
# Indices 1 2 3 4 5 6 
#
# 1 0.014679 -0.000231 -0.006772 0.000000 0.000000 0.000000
# 2 -0.000231 0.008798 -0.004963 0.000000 0.000000 0.000000
# 3 -0.006772 -0.004963 0.017534 0.000000 0.000000 0.000000
# 4 0.000000 0.000000 0.000000 0.084618 0.000000 0.000000
# 5 0.000000 0.000000 0.000000 0.000000 0.131805 0.000000
# 6 0.000000 0.000000 0.000000 0.000000 0.000000 0.263113
#
#
# Mechanical properties :
#
#
# Convention : Reuss Voigt Hill
#
# Bulk Modulus (GPa) = 58.55224 61.13022 59.84123
# Shear Modulus (GPa) = 9.08808 18.01320 13.55064
#
# Velocity S-wave (km/s) = 2.14485 3.01964 2.61903
# Velocity P-wave (km/s) = 5.98104 6.56519 6.27991
#
# Compressibility (1/GPa) = 0.01707877
#
# Stress axis : x y z
#
# Youngs Moduli (GPa) = 68.12666 113.66500 57.03121
#
# Poissons Ratio (x) = 0.02625 0.38620
# Poissons Ratio (y) = 0.01573 0.28306
# Poissons Ratio (z) = 0.46133 0.56415
#
# Static dielectric constant tensor:
#      x y z
#    x 3.407720 0.000000 0.000000 
#    y 0.000000 3.999670 0.000000 
#    z 0.000000 0.000000 3.287550 
# 
# 
# High freq. dielectric constant tensor:
#      x y z
#    x 1.747550 0.000000 0.000000 
#    y 0.000000 1.783100 0.000000 
#    z 0.000000 0.000000 1.737090 
# 
# From -- ./inp_files/29331.got.cif
#   From: 2010.03.12/outbox.cif.g09.slc.cpg/sg67_15_cif.got.tgz:29331.got - 2010.04.10 22:41:39.
