data_PCOD8280110
_publ_section_title
;
Structure prediction by ZEFSAII (Michael W. Deem and Ramdas Pophale) SiO2 
 PCOD8280110
Probable space group: C M M A
;
_chemical_formula_sum "Si O2"
_cell_formula_units_Z 104
_cell_length_a 9.487938
_cell_length_b 26.704700
_cell_length_c 23.854178
_cell_angle_alpha 90.000000
_cell_angle_beta 90.000000
_cell_angle_gamma 90.000000
_cell_volume 6043.993620
_symmetry_space_group_name_H-M "C M M A"
_symmetry_group_IT_number 67
_symmetry_cell_setting 'orthorhombic'
loop_
_space_group_symop_operation_xyz
x,y,z
-x,1/2-y,z
x,-y,-z
-x,1/2+y,-z
-x,-y,-z
x,1/2+y,-z
-x,y,z
x,1/2-y,z
1/2+x,1/2+y,z
1/2-x,-y,z
1/2+x,1/2-y,-z
1/2-x,y,-z
1/2-x,1/2-y,-z
1/2+x,y,-z
1/2-x,1/2+y,z
1/2+x,-y,z
loop_
_atom_site_type_symbol
_atom_site_label
_atom_site_fract_x
_atom_site_fract_y
_atom_site_fract_z
Si Si1 0.666702 0.451832 0.764647
Si Si2 0.340632 0.194804 0.260536
Si Si3 0.836793 0.307556 0.053567
Si Si4 0.663234 0.359220 0.443583
Si Si5 0.839966 0.250000 0.554324
Si Si6 0.837267 0.852223 0.830363
Si Si7 0.663625 0.401324 0.329077
O O1 0.500000 0.462069 0.757855
O O2 0.750000 0.500000 0.787926
O O3 0.697920 0.408487 0.809997
O O4 0.733028 0.438937 0.703629
O O5 0.500000 0.188704 0.239515
O O6 0.314690 0.250000 0.286498
O O7 0.244974 0.188124 0.206162
O O8 0.305407 0.154586 0.307739
O O9 0.799841 0.250000 0.068907
O O10 0.794738 0.344019 0.104949
O O11 0.000000 0.313082 0.038445
O O12 0.750000 0.326173 0.000000
O O13 0.500000 0.364321 0.459963
O O14 0.750000 0.370220 0.500000
O O15 0.692404 0.303551 0.415972
O O16 0.701057 0.399945 0.395400
O O17 0.750000 0.250000 0.500000
O O18 0.000000 0.250000 0.534791
O O19 0.000000 0.839935 0.821413
O O20 0.500000 0.416726 0.319238
#
# Coordination Sequence:
#
# PCOD8280110 Si02
#       7
#    16  16  16  16   8  16  16
#     4  10  20  35  55  75  94 118 152 197 247 297
#     4   9  17  27  42  66  95 126 159 195 233 275
#     4   9  17  29  46  70 101 136 168 196 226 264
#     4   9  17  28  44  64  91 126 161 195 230 273
#     4   8  14  24  38  58  84 120 160 190 217 254
#     4   9  18  32  49  69  95 127 161 196 238 285
#     4   9  18  31  47  69  95 124 157 193 236 285
#
# _framework density 17.207163999999999
#
# number of rings (size 3 to 8) (size 9 to 14) (size 15 to 20)
#    0.000    2.923    0.000    0.923    1.077    2.769 
#    0.000    1.538    0.000    0.923    0.000    6.462 
#    0.000    0.000    0.000    0.000    0.000    0.000 
#
# Total GULP energy -644341.028485 kJ/mol
# GULP energy per Si atom -12391.173625 kJ/mol
# Density = 1.716800 g / cm^3
# Si number density = 17.207164 Si / 1000 Ang^3
#
#
#
# Elastic Constant Matrix: (Units=GPa)
#
#
# Indices 1 2 3 4 5 6 
#
# 1 60.7448 29.8478 42.4925 0.0000 0.0000 0.0000
# 2 29.8478 62.0569 29.6431 0.0000 0.0000 0.0000
# 3 42.4925 29.6431 100.6893 0.0000 0.0000 0.0000
# 4 0.0000 0.0000 0.0000 18.2155 0.0000 0.0000
# 5 0.0000 0.0000 0.0000 0.0000 28.0683 0.0000
# 6 0.0000 0.0000 0.0000 0.0000 0.0000 22.8164
#
#
#
# Elastic Compliance Matrix: (Units=1/GPa)
#
#
# Indices 1 2 3 4 5 6 
#
# 1 0.026899 -0.008745 -0.008777 0.000000 0.000000 0.000000
# 2 -0.008745 0.021594 -0.002667 0.000000 0.000000 0.000000
# 3 -0.008777 -0.002667 0.014421 0.000000 0.000000 0.000000
# 4 0.000000 0.000000 0.000000 0.054898 0.000000 0.000000
# 5 0.000000 0.000000 0.000000 0.000000 0.035627 0.000000
# 6 0.000000 0.000000 0.000000 0.000000 0.000000 0.043828
#
#
# Mechanical properties :
#
#
# Convention : Reuss Voigt Hill
#
# Bulk Modulus (GPa) = 44.37377 47.49531 45.93454
# Shear Modulus (GPa) = 20.39492 21.92054 21.15773
#
# Velocity S-wave (km/s) = 3.44649 3.57307 3.51035
# Velocity P-wave (km/s) = 6.45614 6.68464 6.57138
#
# Compressibility (1/GPa) = 0.02253584
#
# Stress axis : x y z
#
# Youngs Moduli (GPa) = 37.17554 46.30839 69.34406
#
# Poissons Ratio (x) = 0.40498 0.60866
# Poissons Ratio (y) = 0.32511 0.18493
# Poissons Ratio (z) = 0.32630 0.12350
#
# Static dielectric constant tensor:
#      x y z
#    x 3.234210 0.000000 0.000000 
#    y 0.000000 2.842550 0.000000 
#    z 0.000000 0.000000 3.082530 
# 
# 
# High freq. dielectric constant tensor:
#      x y z
#    x 1.665160 0.000000 0.000000 
#    y 0.000000 1.646340 0.000000 
#    z 0.000000 0.000000 1.649590 
# 
# From -- ./inp_files/40230.got.cif
#   From: 2010.03.12/outbox.cif.g09.slc.cpg/sg67_21_cif.got.tgz:40230.got - 2010.04.10 22:41:39.
