data_PCOD8280741
_publ_section_title
;
Structure prediction by ZEFSAII (Michael W. Deem and Ramdas Pophale) SiO2 
 PCOD8280741
Probable space group: C M M A
;
_chemical_formula_sum "Si O2"
_cell_formula_units_Z 64
_cell_length_a 14.756224
_cell_length_b 14.063559
_cell_length_c 15.381962
_cell_angle_alpha 90.000000
_cell_angle_beta 90.000000
_cell_angle_gamma 90.000000
_cell_volume 3192.142077
_symmetry_space_group_name_H-M "C M M A"
_symmetry_group_IT_number 67
_symmetry_cell_setting 'orthorhombic'
loop_
_space_group_symop_operation_xyz
x,y,z
-x,1/2-y,z
x,-y,-z
-x,1/2+y,-z
-x,-y,-z
x,1/2+y,-z
-x,y,z
x,1/2-y,z
1/2+x,1/2+y,z
1/2-x,-y,z
1/2+x,1/2-y,-z
1/2-x,y,-z
1/2-x,1/2-y,-z
1/2+x,y,-z
1/2-x,1/2+y,z
1/2+x,-y,z
loop_
_atom_site_type_symbol
_atom_site_label
_atom_site_fract_x
_atom_site_fract_y
_atom_site_fract_z
Si Si1 0.605517 0.644062 0.501879
Si Si2 0.753605 0.140311 0.897427
Si Si3 0.397807 0.506860 0.167834
Si Si4 0.149988 0.997279 0.644532
O O1 0.500000 0.644047 0.483731
O O2 0.645420 0.750000 0.508229
O O3 0.625363 0.591978 0.592051
O O4 0.649793 0.592548 0.419820
O O5 0.761079 0.250000 0.869617
O O6 0.658996 0.099265 0.860988
O O7 0.842631 0.087235 0.860701
O O8 0.750000 0.126640 0.000000
O O9 0.500000 0.506942 0.127175
O O10 0.413865 0.510759 0.271966
O O11 0.250000 0.000000 0.684475
#
# Coordination Sequence:
#
# PCOD8280741 Si02
#       4
#    16  16  16  16
#     4  10  21  36  55  81 114 154 199 243 290 346
#     4  10  23  43  64  91 125 157 196 247 303 367
#     4  11  22  40  65  92 123 160 202 249 302 356
#     4  11  21  37  57  81 117 155 197 246 291 343
#
# _framework density 20.049233000000001
#
# number of rings (size 3 to 8) (size 9 to 14) (size 15 to 20)
#    0.000    1.500    2.500    6.000    0.000    7.000 
#    0.000    2.500    0.000    0.000    0.000    0.000 
#    0.000    0.000    0.000    0.000    0.000    0.000 
#
# Total GULP energy -396749.619359 kJ/mol
# GULP energy per Si atom -12398.425605 kJ/mol
# Density = 2.000360 g / cm^3
# Si number density = 20.049233 Si / 1000 Ang^3
#
#
#
# Elastic Constant Matrix: (Units=GPa)
#
#
# Indices 1 2 3 4 5 6 
#
# 1 131.4733 28.2839 17.3637 0.0000 0.0000 0.0000
# 2 28.2839 160.1540 46.4430 0.0000 0.0000 0.0000
# 3 17.3637 46.4430 112.7740 0.0000 0.0000 0.0000
# 4 0.0000 0.0000 0.0000 16.2347 0.0000 0.0000
# 5 0.0000 0.0000 0.0000 0.0000 17.3124 0.0000
# 6 0.0000 0.0000 0.0000 0.0000 0.0000 23.2436
#
#
#
# Elastic Compliance Matrix: (Units=1/GPa)
#
#
# Indices 1 2 3 4 5 6 
#
# 1 0.007960 -0.001193 -0.000734 0.000000 0.000000 0.000000
# 2 -0.001193 0.007270 -0.002810 0.000000 0.000000 0.000000
# 3 -0.000734 -0.002810 0.010138 0.000000 0.000000 0.000000
# 4 0.000000 0.000000 0.000000 0.061596 0.000000 0.000000
# 5 0.000000 0.000000 0.000000 0.000000 0.057762 0.000000
# 6 0.000000 0.000000 0.000000 0.000000 0.000000 0.043023
#
#
# Mechanical properties :
#
#
# Convention : Reuss Voigt Hill
#
# Bulk Modulus (GPa) = 62.92308 65.39805 64.16056
# Shear Modulus (GPa) = 24.68895 32.17885 28.43390
#
# Velocity S-wave (km/s) = 3.51296 4.01058 3.76999
# Velocity P-wave (km/s) = 6.92148 7.35771 7.14293
#
# Compressibility (1/GPa) = 0.01589242
#
# Stress axis : x y z
#
# Youngs Moduli (GPa) = 125.63298 137.56014 98.64230
#
# Poissons Ratio (x) = 0.16408 0.07244
# Poissons Ratio (y) = 0.14985 0.27720
# Poissons Ratio (z) = 0.09226 0.38656
#
# Static dielectric constant tensor:
#      x y z
#    x 3.784700 0.000000 0.000000 
#    y 0.000000 3.817620 0.000000 
#    z 0.000000 0.000000 3.564610 
# 
# 
# High freq. dielectric constant tensor:
#      x y z
#    x 1.794420 0.000000 0.000000 
#    y 0.000000 1.778820 0.000000 
#    z 0.000000 0.000000 1.787140 
# 
# From -- ./inp_files/26710.got.cif
#   From: 2010.03.12/outbox.cif.g09.slc.cpg/sg67_14_cif.got.tgz:26710.got - 2010.04.10 22:41:39.
