data_PCOD8280111
_publ_section_title
;
Structure prediction by ZEFSAII (Michael W. Deem and Ramdas Pophale) SiO2 
 PCOD8280111
Probable space group: C M M A
;
_chemical_formula_sum "Si O2"
_cell_formula_units_Z 72
_cell_length_a 8.982268
_cell_length_b 16.521178
_cell_length_c 24.593665
_cell_angle_alpha 90.000000
_cell_angle_beta 90.000000
_cell_angle_gamma 90.000000
_cell_volume 3649.642053
_symmetry_space_group_name_H-M "C M M A"
_symmetry_group_IT_number 67
_symmetry_cell_setting 'orthorhombic'
loop_
_space_group_symop_operation_xyz
x,y,z
-x,1/2-y,z
x,-y,-z
-x,1/2+y,-z
-x,-y,-z
x,1/2+y,-z
-x,y,z
x,1/2-y,z
1/2+x,1/2+y,z
1/2-x,-y,z
1/2+x,1/2-y,-z
1/2-x,y,-z
1/2-x,1/2-y,-z
1/2+x,y,-z
1/2-x,1/2+y,z
1/2+x,-y,z
loop_
_atom_site_type_symbol
_atom_site_label
_atom_site_fract_x
_atom_site_fract_y
_atom_site_fract_z
Si Si1 0.321740 0.587122 0.552244
Si Si2 0.837574 0.842313 0.335414
Si Si3 0.174332 0.081351 0.242544
Si Si4 0.175616 0.415333 0.118542
Si Si5 0.676905 0.250000 0.941633
O O1 0.500000 0.586451 0.547596
O O2 0.250000 0.500000 0.550886
O O3 0.250000 0.634566 0.500000
O O4 0.266674 0.623229 0.609431
O O5 0.862025 0.750000 0.347301
O O6 0.729719 0.850030 0.283468
O O7 0.000000 0.882399 0.323213
O O8 0.223396 0.100297 0.180832
O O9 0.000000 0.072542 0.246248
O O10 0.250000 0.000000 0.263890
O O11 0.250000 0.500000 0.097157
O O12 0.229893 0.333651 0.087630
O O13 0.000000 0.427014 0.111766
O O14 0.500000 0.250000 0.946050
O O15 0.750000 0.250000 0.000000
#
# Coordination Sequence:
#
# PCOD8280111 Si02
#       5
#    16  16  16  16   8
#     4  10  20  35  55  75  99 134 177 223 272 324
#     4  10  22  37  52  77 112 144 176 223 278 329
#     4  10  20  35  58  83 109 144 185 228 277 333
#     4   9  20  38  60  85 118 154 194 241 291 340
#     4  10  22  40  60  86 120 158 195 240 287 338
#
# _framework density 19.727962000000002
#
# number of rings (size 3 to 8) (size 9 to 14) (size 15 to 20)
#    0.000    2.222    0.000    2.667    1.556    6.667 
#    0.000    2.222    0.000    0.000    0.000    0.000 
#    0.000    0.000    0.000    0.000    0.000    0.000 
#
# Total GULP energy -446111.178012 kJ/mol
# GULP energy per Si atom -12391.977167 kJ/mol
# Density = 1.968306 g / cm^3
# Si number density = 19.727962 Si / 1000 Ang^3
#
#
#
# Elastic Constant Matrix: (Units=GPa)
#
#
# Indices 1 2 3 4 5 6 
#
# 1 59.0784 30.0793 43.8773 0.0000 0.0000 0.0000
# 2 30.0793 113.1590 64.9332 0.0000 0.0000 0.0000
# 3 43.8773 64.9332 136.1084 0.0000 0.0000 0.0000
# 4 0.0000 0.0000 0.0000 26.4469 0.0000 0.0000
# 5 0.0000 0.0000 0.0000 0.0000 33.8919 0.0000
# 6 0.0000 0.0000 0.0000 0.0000 0.0000 24.1973
#
#
#
# Elastic Compliance Matrix: (Units=1/GPa)
#
#
# Indices 1 2 3 4 5 6 
#
# 1 0.022771 -0.002534 -0.006132 0.000000 0.000000 0.000000
# 2 -0.002534 0.012450 -0.005123 0.000000 0.000000 0.000000
# 3 -0.006132 -0.005123 0.011768 0.000000 0.000000 0.000000
# 4 0.000000 0.000000 0.000000 0.037812 0.000000 0.000000
# 5 0.000000 0.000000 0.000000 0.000000 0.029506 0.000000
# 6 0.000000 0.000000 0.000000 0.000000 0.000000 0.041327
#
#
# Mechanical properties :
#
#
# Convention : Reuss Voigt Hill
#
# Bulk Modulus (GPa) = 51.51572 65.12503 58.32038
# Shear Modulus (GPa) = 26.36011 28.20430 27.28220
#
# Velocity S-wave (km/s) = 3.65935 3.78519 3.72280
# Velocity P-wave (km/s) = 6.63507 7.22404 6.93581
#
# Compressibility (1/GPa) = 0.01941155
#
# Stress axis : x y z
#
# Youngs Moduli (GPa) = 43.91568 80.31939 84.97919
#
# Poissons Ratio (x) = 0.20356 0.52106
# Poissons Ratio (y) = 0.11130 0.43532
# Poissons Ratio (z) = 0.26927 0.41145
#
# Static dielectric constant tensor:
#      x y z
#    x 3.571500 0.000000 0.000000 
#    y 0.000000 3.618410 0.000000 
#    z 0.000000 0.000000 4.046350 
# 
# 
# High freq. dielectric constant tensor:
#      x y z
#    x 1.764420 0.000000 0.000000 
#    y 0.000000 1.762320 0.000000 
#    z 0.000000 0.000000 1.778560 
# 
# From -- ./inp_files/42115.got.cif
#   From: 2010.03.12/outbox.cif.g09.slc.cpg/sg67_22_cif.got.tgz:42115.got - 2010.04.10 22:41:39.
