data_PCOD8280076
_publ_section_title
;
Structure prediction by ZEFSAII (Michael W. Deem and Ramdas Pophale) SiO2 
 PCOD8280076
Probable space group: C M M A
;
_chemical_formula_sum "Si O2"
_cell_formula_units_Z 64
_cell_length_a 38.723928
_cell_length_b 8.802613
_cell_length_c 10.227685
_cell_angle_alpha 90.000000
_cell_angle_beta 90.000000
_cell_angle_gamma 90.000000
_cell_volume 3486.328905
_symmetry_space_group_name_H-M "C M M A"
_symmetry_group_IT_number 67
_symmetry_cell_setting 'orthorhombic'
loop_
_space_group_symop_operation_xyz
x,y,z
-x,1/2-y,z
x,-y,-z
-x,1/2+y,-z
-x,-y,-z
x,1/2+y,-z
-x,y,z
x,1/2-y,z
1/2+x,1/2+y,z
1/2-x,-y,z
1/2+x,1/2-y,-z
1/2-x,y,-z
1/2-x,1/2-y,-z
1/2+x,y,-z
1/2-x,1/2+y,z
1/2+x,-y,z
loop_
_atom_site_type_symbol
_atom_site_label
_atom_site_fract_x
_atom_site_fract_y
_atom_site_fract_z
Si Si1 0.786804 0.068968 0.637228
Si Si2 0.459669 0.073751 0.635771
Si Si3 0.162587 0.571717 0.134133
Si Si4 0.083910 0.429350 0.864504
O O1 0.784013 0.250000 0.625653
O O2 0.814068 0.015552 0.745946
O O3 0.799544 0.000000 0.500000
O O4 0.750000 0.000000 0.676934
O O5 0.500000 0.046775 0.660106
O O6 0.450001 0.250000 0.632809
O O7 0.447760 0.000000 0.500000
O O8 0.439503 0.991715 0.750020
O O9 0.165174 0.750000 0.117366
O O10 0.123358 0.520014 0.161899
O O11 0.176640 0.500000 0.000000
O O12 0.080014 0.250000 0.872337
O O13 0.070572 0.500000 0.000000
#
# Coordination Sequence:
#
# PCOD8280076 Si02
#       4
#    16  16  16  16
#     4  10  20  35  53  76 104 135 172 212 256 305
#     4  10  21  37  56  79 107 139 175 216 262 311
#     4   9  20  36  54  77 105 136 172 213 257 306
#     4  10  20  36  56  79 107 139 176 217 261 310
#
# _framework density 18.357417999999999
#
# number of rings (size 3 to 8) (size 9 to 14) (size 15 to 20)
#    0.000    2.250    0.000    3.000    0.000    6.500 
#    0.000    5.000    0.000    0.000    0.000    0.000 
#    0.000    0.000    0.000    0.000    0.000    0.000 
#
# Total GULP energy -396901.913589 kJ/mol
# GULP energy per Si atom -12403.184800 kJ/mol
# Density = 1.831564 g / cm^3
# Si number density = 18.357418 Si / 1000 Ang^3
#
#
#
# Elastic Constant Matrix: (Units=GPa)
#
#
# Indices 1 2 3 4 5 6 
#
# 1 69.2891 42.4025 83.6190 0.0000 0.0000 0.0000
# 2 42.4025 84.9973 66.3460 0.0000 0.0000 0.0000
# 3 83.6190 66.3460 178.2728 0.0000 0.0000 0.0000
# 4 0.0000 0.0000 0.0000 38.6881 0.0000 0.0000
# 5 0.0000 0.0000 0.0000 0.0000 46.4444 0.0000
# 6 0.0000 0.0000 0.0000 0.0000 0.0000 19.1124
#
#
#
# Elastic Compliance Matrix: (Units=1/GPa)
#
#
# Indices 1 2 3 4 5 6 
#
# 1 0.035770 -0.006692 -0.014287 0.000000 0.000000 0.000000
# 2 -0.006692 0.017834 -0.003498 0.000000 0.000000 0.000000
# 3 -0.014287 -0.003498 0.013613 0.000000 0.000000 0.000000
# 4 0.000000 0.000000 0.000000 0.025848 0.000000 0.000000
# 5 0.000000 0.000000 0.000000 0.000000 0.021531 0.000000
# 6 0.000000 0.000000 0.000000 0.000000 0.000000 0.052322
#
#
# Mechanical properties :
#
#
# Convention : Reuss Voigt Hill
#
# Bulk Modulus (GPa) = 54.76058 79.69936 67.22997
# Shear Modulus (GPa) = 22.52656 30.19508 26.36082
#
# Velocity S-wave (km/s) = 3.50681 4.06007 3.79354
# Velocity P-wave (km/s) = 6.80382 8.09249 7.47598
#
# Compressibility (1/GPa) = 0.01826131
#
# Stress axis : x y z
#
# Youngs Moduli (GPa) = 27.95657 56.07207 73.46082
#
# Poissons Ratio (x) = 0.37525 1.04955
# Poissons Ratio (y) = 0.18709 0.25698
# Poissons Ratio (z) = 0.39942 0.19615
#
# Static dielectric constant tensor:
#      x y z
#    x 3.437300 0.000000 0.000000 
#    y 0.000000 3.523370 0.000000 
#    z 0.000000 0.000000 3.525150 
# 
# 
# High freq. dielectric constant tensor:
#      x y z
#    x 1.707080 0.000000 0.000000 
#    y 0.000000 1.724040 0.000000 
#    z 0.000000 0.000000 1.723000 
# 
# From -- ./inp_files/23390.got.cif
#   From: 2010.03.12/outbox.cif.g09.slc.cpg/sg67_12_cif.got.tgz:23390.got - 2010.04.10 22:41:39.
