data_PCOD8280941
_publ_section_title
;
Structure prediction by ZEFSAII (Michael W. Deem and Ramdas Pophale) SiO2 
 PCOD8280941
Probable space group: C M M A
;
_chemical_formula_sum "Si O2"
_cell_formula_units_Z 64
_cell_length_a 15.102402
_cell_length_b 8.733194
_cell_length_c 24.127110
_cell_angle_alpha 90.000000
_cell_angle_beta 90.000000
_cell_angle_gamma 90.000000
_cell_volume 3182.177775
_symmetry_space_group_name_H-M "C M M A"
_symmetry_group_IT_number 67
_symmetry_cell_setting 'orthorhombic'
loop_
_space_group_symop_operation_xyz
x,y,z
-x,1/2-y,z
x,-y,-z
-x,1/2+y,-z
-x,-y,-z
x,1/2+y,-z
-x,y,z
x,1/2-y,z
1/2+x,1/2+y,z
1/2-x,-y,z
1/2+x,1/2-y,-z
1/2-x,y,-z
1/2-x,1/2-y,-z
1/2+x,y,-z
1/2-x,1/2+y,z
1/2+x,-y,z
loop_
_atom_site_type_symbol
_atom_site_label
_atom_site_fract_x
_atom_site_fract_y
_atom_site_fract_z
Si Si1 0.346283 0.072039 0.947062
Si Si2 0.344971 0.932841 0.441036
Si Si3 0.653469 0.570908 0.174978
Si Si4 0.500000 0.075443 0.242467
Si Si5 0.500000 0.073258 0.373384
O O1 0.339221 0.250000 0.958093
O O2 0.388155 0.038077 0.886538
O O3 0.250000 0.000000 0.945851
O O4 0.399537 0.000000 0.000000
O O5 0.340524 0.750000 0.444313
O O6 0.375837 0.000000 0.500000
O O7 0.250000 0.000000 0.424157
O O8 0.413586 0.986421 0.394959
O O9 0.663081 0.750000 0.185077
O O10 0.750000 0.500000 0.182640
O O11 0.588177 0.503554 0.220239
O O12 0.500000 0.250000 0.222808
O O13 0.500000 0.059588 0.307896
O O14 0.500000 0.250000 0.392892
#
# Coordination Sequence:
#
# PCOD8280941 Si02
#       5
#    16  16  16   8   8
#     4   9  16  27  48  78 108 141 179 226 282 344
#     4  11  22  39  64  94 126 160 195 236 286 340
#     4  10  21  38  60  84 114 150 191 238 292 349
#     4  11  25  42  61  84 113 152 200 247 290 339
#     4  11  24  42  61  86 119 156 199 245 290 341
#
# _framework density 20.112012
#
# number of rings (size 3 to 8) (size 9 to 14) (size 15 to 20)
#    0.000    1.750    0.000    6.375    0.000    6.000 
#    0.000    0.625    0.000    0.000    0.000    0.000 
#    0.000    0.000    0.000    0.000    0.000    0.000 
#
# Total GULP energy -396689.644609 kJ/mol
# GULP energy per Si atom -12396.551394 kJ/mol
# Density = 2.006624 g / cm^3
# Si number density = 20.112012 Si / 1000 Ang^3
#
#
#
# Elastic Constant Matrix: (Units=GPa)
#
#
# Indices 1 2 3 4 5 6 
#
# 1 103.7480 58.5933 57.4920 0.0000 0.0000 0.0000
# 2 58.5933 171.6817 68.3817 0.0000 0.0000 0.0000
# 3 57.4920 68.3817 101.6387 0.0000 0.0000 0.0000
# 4 0.0000 0.0000 0.0000 33.5019 0.0000 0.0000
# 5 0.0000 0.0000 0.0000 0.0000 -167.2089 0.0000
# 6 0.0000 0.0000 0.0000 0.0000 0.0000 23.9681
#
#
#
# Elastic Compliance Matrix: (Units=1/GPa)
#
#
# Indices 1 2 3 4 5 6 
#
# 1 0.014690 -0.002328 -0.006744 0.000000 0.000000 0.000000
# 2 -0.002328 0.008326 -0.004285 0.000000 0.000000 0.000000
# 3 -0.006744 -0.004285 0.016536 0.000000 0.000000 0.000000
# 4 0.000000 0.000000 0.000000 0.029849 0.000000 0.000000
# 5 0.000000 0.000000 0.000000 0.000000 -0.005981 0.000000
# 6 0.000000 0.000000 0.000000 0.000000 0.000000 0.041722
#
#
# Mechanical properties :
#
#
# Convention : Reuss Voigt Hill
#
# Bulk Modulus (GPa) = 77.88158 82.88916 80.38537
# Shear Modulus (GPa) = 36.72824 -9.10770 13.81027
#
# Velocity S-wave (km/s) = 4.27802 -2.13033 2.62328
# Velocity P-wave (km/s) = 7.95047 5.93735 7.01648
#
# Compressibility (1/GPa) = 0.01284001
#
# Stress axis : x y z
#
# Youngs Moduli (GPa) = 68.07237 120.10790 60.47373
#
# Poissons Ratio (x) = 0.27957 0.40781
# Poissons Ratio (y) = 0.15845 0.25912
# Poissons Ratio (z) = 0.45905 0.51465
#
# Static dielectric constant tensor:
#      x y z
#    x 3.428470 0.000000 0.000000 
#    y 0.000000 3.893680 0.000000 
#    z 0.000000 0.000000 4.161510 
# 
# 
# High freq. dielectric constant tensor:
#      x y z
#    x 1.770910 0.000000 0.000000 
#    y 0.000000 1.806240 0.000000 
#    z 0.000000 0.000000 1.793720 
# 
# From -- ./inp_files/41727.got.cif
#   From: 2010.03.12/outbox.cif.g09.slc.cpg/sg67_21_cif.got.tgz:41727.got - 2010.04.10 22:41:39.
