data_PCOD8280171
_publ_section_title
;
Structure prediction by ZEFSAII (Michael W. Deem and Ramdas Pophale) SiO2 
 PCOD8280171
Probable space group: C M M A
;
_chemical_formula_sum "Si O2"
_cell_formula_units_Z 96
_cell_length_a 8.988099
_cell_length_b 18.577835
_cell_length_c 30.344518
_cell_angle_alpha 90.000000
_cell_angle_beta 90.000000
_cell_angle_gamma 90.000000
_cell_volume 5066.910021
_symmetry_space_group_name_H-M "C M M A"
_symmetry_group_IT_number 67
_symmetry_cell_setting 'orthorhombic'
loop_
_space_group_symop_operation_xyz
x,y,z
-x,1/2-y,z
x,-y,-z
-x,1/2+y,-z
-x,-y,-z
x,1/2+y,-z
-x,y,z
x,1/2-y,z
1/2+x,1/2+y,z
1/2-x,-y,z
1/2+x,1/2-y,-z
1/2-x,y,-z
1/2-x,1/2-y,-z
1/2+x,y,-z
1/2-x,1/2+y,z
1/2+x,-y,z
loop_
_atom_site_type_symbol
_atom_site_label
_atom_site_fract_x
_atom_site_fract_y
_atom_site_fract_z
Si Si1 0.676113 0.577418 0.371502
Si Si2 0.672930 0.833140 0.703794
Si Si3 0.323672 0.925601 0.884523
Si Si4 0.825000 0.331936 0.455368
Si Si5 0.828071 0.071790 0.784784
Si Si6 0.330879 0.835308 0.043793
O O1 0.500000 0.568420 0.370091
O O2 0.750000 0.500000 0.369653
O O3 0.725943 0.624421 0.330276
O O4 0.729651 0.617838 0.415656
O O5 0.500000 0.844739 0.691910
O O6 0.718090 0.750000 0.702391
O O7 0.708887 0.861800 0.752787
O O8 0.500000 0.929888 0.890561
O O9 0.276297 0.908354 0.834162
O O10 0.258047 0.861918 0.913706
O O11 0.250000 0.000000 0.900144
O O12 0.774551 0.250000 0.445271
O O13 0.750000 0.360638 0.500000
O O14 0.000000 0.336573 0.461751
O O15 0.000000 0.052916 0.784763
O O16 0.750000 0.000000 0.766826
O O17 0.500000 0.864104 0.044228
O O18 0.326909 0.750000 0.044951
O O19 0.250000 0.864829 0.000000
#
# Coordination Sequence:
#
# PCOD8280171 Si02
#       6
#    16  16  16  16  16  16
#     4  11  23  38  56  80 111 145 183 226 272 321
#     4  10  21  37  57  82 111 143 181 223 268 321
#     4  10  20  35  56  81 110 143 179 220 267 318
#     4   9  19  36  57  80 107 140 178 221 269 321
#     4   9  19  35  55  79 108 142 178 219 266 317
#     4  10  21  37  56  79 108 141 179 223 270 321
#
# _framework density 18.946458
#
# number of rings (size 3 to 8) (size 9 to 14) (size 15 to 20)
#    0.000    2.167    0.000    2.500    0.000    7.333 
#    0.000    6.667    0.000    0.000    0.000    0.000 
#    0.000    0.000    0.000    0.000    0.000    0.000 
#
# Total GULP energy -595357.799969 kJ/mol
# GULP energy per Si atom -12403.287499 kJ/mol
# Density = 1.890333 g / cm^3
# Si number density = 18.946458 Si / 1000 Ang^3
#
#
#
# Elastic Constant Matrix: (Units=GPa)
#
#
# Indices 1 2 3 4 5 6 
#
# 1 77.4098 42.0536 50.2332 0.0000 0.0000 0.0000
# 2 42.0536 100.9751 62.8952 0.0000 0.0000 0.0000
# 3 50.2332 62.8952 123.2922 0.0000 0.0000 0.0000
# 4 0.0000 0.0000 0.0000 33.9369 0.0000 0.0000
# 5 0.0000 0.0000 0.0000 0.0000 32.4502 0.0000
# 6 0.0000 0.0000 0.0000 0.0000 0.0000 24.5261
#
#
#
# Elastic Compliance Matrix: (Units=1/GPa)
#
#
# Indices 1 2 3 4 5 6 
#
# 1 0.018859 -0.004497 -0.005390 0.000000 0.000000 0.000000
# 2 -0.004497 0.015588 -0.006120 0.000000 0.000000 0.000000
# 3 -0.005390 -0.006120 0.013429 0.000000 0.000000 0.000000
# 4 0.000000 0.000000 0.000000 0.029466 0.000000 0.000000
# 5 0.000000 0.000000 0.000000 0.000000 0.030816 0.000000
# 6 0.000000 0.000000 0.000000 0.000000 0.000000 0.040773
#
#
# Mechanical properties :
#
#
# Convention : Reuss Voigt Hill
#
# Bulk Modulus (GPa) = 63.04107 68.00456 65.52282
# Shear Modulus (GPa) = 26.84824 27.94898 27.39861
#
# Velocity S-wave (km/s) = 3.76847 3.84494 3.80690
# Velocity P-wave (km/s) = 7.23054 7.46206 7.34721
#
# Compressibility (1/GPa) = 0.01586267
#
# Stress axis : x y z
#
# Youngs Moduli (GPa) = 53.02560 64.15082 74.46817
#
# Poissons Ratio (x) = 0.28850 0.40135
# Poissons Ratio (y) = 0.23847 0.45573
# Poissons Ratio (z) = 0.28578 0.39259
#
# Static dielectric constant tensor:
#      x y z
#    x 0.501820 0.000000 0.000000 
#    y 0.000000 3.458890 0.000000 
#    z 0.000000 0.000000 3.671200 
# 
# 
# High freq. dielectric constant tensor:
#      x y z
#    x 1.740160 0.000000 0.000000 
#    y 0.000000 1.732790 0.000000 
#    z 0.000000 0.000000 1.747210 
# 
# From -- ./inp_files/43424.got.cif
#   From: 2010.03.12/outbox.cif.g09.slc.cpg/sg67_22_cif.got.tgz:43424.got - 2010.04.10 22:41:39.
