data_PCOD8280097
_publ_section_title
;
Structure prediction by ZEFSAII (Michael W. Deem and Ramdas Pophale) SiO2 
 PCOD8280097
Probable space group: C M M A
;
_chemical_formula_sum "Si O2"
_cell_formula_units_Z 80
_cell_length_a 27.138311
_cell_length_b 8.698052
_cell_length_c 18.664862
_cell_angle_alpha 90.000000
_cell_angle_beta 90.000000
_cell_angle_gamma 90.000000
_cell_volume 4405.848893
_symmetry_space_group_name_H-M "C M M A"
_symmetry_group_IT_number 67
_symmetry_cell_setting 'orthorhombic'
loop_
_space_group_symop_operation_xyz
x,y,z
-x,1/2-y,z
x,-y,-z
-x,1/2+y,-z
-x,-y,-z
x,1/2+y,-z
-x,y,z
x,1/2-y,z
1/2+x,1/2+y,z
1/2-x,-y,z
1/2+x,1/2-y,-z
1/2-x,y,-z
1/2-x,1/2-y,-z
1/2+x,y,-z
1/2-x,1/2+y,z
1/2+x,-y,z
loop_
_atom_site_type_symbol
_atom_site_label
_atom_site_fract_x
_atom_site_fract_y
_atom_site_fract_z
Si Si1 0.198231 0.070438 0.846211
Si Si2 0.943448 0.427307 0.213051
Si Si3 0.197623 0.931870 0.576223
Si Si4 0.856964 0.431413 0.705186
Si Si5 0.899197 0.932121 0.076515
O O1 0.205078 0.250000 0.846955
O O2 0.181358 0.017310 0.767108
O O3 0.156763 0.019892 0.903323
O O4 0.250000 0.000000 0.868961
O O5 0.926905 0.250000 0.212660
O O6 0.911715 0.520659 0.271210
O O7 0.936457 0.496781 0.134005
O O8 0.000000 0.445610 0.235786
O O9 0.202118 0.750000 0.570276
O O10 0.181515 0.000000 0.500000
O O11 0.250000 0.000000 0.600905
O O12 0.156347 0.978613 0.633203
O O13 0.855338 0.250000 0.691512
O O14 0.905769 0.750000 0.076858
O O15 0.913230 0.000000 0.000000
#
# Coordination Sequence:
#
# PCOD8280097 Si02
#       5
#    16  16  16  16  16
#     4   9  19  32  48  71  99 133 171 209 250 301
#     4  10  21  37  57  80 103 131 170 215 265 318
#     4  11  21  34  53  80 114 149 183 217 256 303
#     4  10  20  35  54  78 107 139 176 216 260 309
#     4  10  21  36  52  73 101 133 171 214 262 315
#
# _framework density 18.157681
#
# number of rings (size 3 to 8) (size 9 to 14) (size 15 to 20)
#    0.000    2.000    0.000    6.000    0.000    8.800 
#    0.000    2.000    0.000    0.600    0.000    0.000 
#    0.000    0.000    0.000    0.000    0.000    0.000 
#
# Total GULP energy -496118.738917 kJ/mol
# GULP energy per Si atom -12402.968473 kJ/mol
# Density = 1.811635 g / cm^3
# Si number density = 18.157681 Si / 1000 Ang^3
#
#
#
# Elastic Constant Matrix: (Units=GPa)
#
#
# Indices 1 2 3 4 5 6 
#
# 1 72.7027 25.1900 30.5990 0.0000 0.0000 0.0000
# 2 25.1900 96.5972 36.6767 0.0000 0.0000 0.0000
# 3 30.5990 36.6767 107.6533 0.0000 0.0000 0.0000
# 4 0.0000 0.0000 0.0000 31.4426 0.0000 0.0000
# 5 0.0000 0.0000 0.0000 0.0000 37.1109 0.0000
# 6 0.0000 0.0000 0.0000 0.0000 0.0000 31.1757
#
#
#
# Elastic Compliance Matrix: (Units=1/GPa)
#
#
# Indices 1 2 3 4 5 6 
#
# 1 0.016283 -0.002859 -0.003654 0.000000 0.000000 0.000000
# 2 -0.002859 0.012392 -0.003409 0.000000 0.000000 0.000000
# 3 -0.003654 -0.003409 0.011489 0.000000 0.000000 0.000000
# 4 0.000000 0.000000 0.000000 0.031804 0.000000 0.000000
# 5 0.000000 0.000000 0.000000 0.000000 0.026946 0.000000
# 6 0.000000 0.000000 0.000000 0.000000 0.000000 0.032076
#
#
# Mechanical properties :
#
#
# Convention : Reuss Voigt Hill
#
# Bulk Modulus (GPa) = 49.21292 51.32050 50.26671
# Shear Modulus (GPa) = 31.72401 32.24502 31.98451
#
# Velocity S-wave (km/s) = 4.18441 4.21864 4.20156
# Velocity P-wave (km/s) = 7.10688 7.21487 7.16108
#
# Compressibility (1/GPa) = 0.02031987
#
# Stress axis : x y z
#
# Youngs Moduli (GPa) = 61.41313 80.69560 87.03734
#
# Poissons Ratio (x) = 0.23069 0.31806
# Poissons Ratio (y) = 0.17556 0.29675
# Poissons Ratio (z) = 0.22442 0.27512
#
# Static dielectric constant tensor:
#      x y z
#    x 3.578060 0.000000 0.000000 
#    y 0.000000 3.436760 0.000000 
#    z 0.000000 0.000000 3.220160 
# 
# 
# High freq. dielectric constant tensor:
#      x y z
#    x 1.692450 0.000000 0.000000 
#    y 0.000000 1.719060 0.000000 
#    z 0.000000 0.000000 1.695910 
# 
# From -- ./inp_files/32117.got.cif
#   From: 2010.03.12/outbox.cif.g09.slc.cpg/sg67_17_cif.got.tgz:32117.got - 2010.04.10 22:41:39.
