data_PCOD8280124
_publ_section_title
;
Structure prediction by ZEFSAII (Michael W. Deem and Ramdas Pophale) SiO2 
 PCOD8280124
Probable space group: C M M A
;
_chemical_formula_sum "Si O2"
_cell_formula_units_Z 80
_cell_length_a 9.753566
_cell_length_b 17.907710
_cell_length_c 23.916684
_cell_angle_alpha 90.000000
_cell_angle_beta 90.000000
_cell_angle_gamma 90.000000
_cell_volume 4177.384445
_symmetry_space_group_name_H-M "C M M A"
_symmetry_group_IT_number 67
_symmetry_cell_setting 'orthorhombic'
loop_
_space_group_symop_operation_xyz
x,y,z
-x,1/2-y,z
x,-y,-z
-x,1/2+y,-z
-x,-y,-z
x,1/2+y,-z
-x,y,z
x,1/2-y,z
1/2+x,1/2+y,z
1/2-x,-y,z
1/2+x,1/2-y,-z
1/2-x,y,-z
1/2-x,1/2-y,-z
1/2+x,y,-z
1/2-x,1/2+y,z
1/2+x,-y,z
loop_
_atom_site_type_symbol
_atom_site_label
_atom_site_fract_x
_atom_site_fract_y
_atom_site_fract_z
Si Si1 0.000000 0.339028 0.081357
Si Si2 0.345789 0.338138 0.252362
Si Si3 0.156647 0.164476 0.449451
Si Si4 0.279163 0.161257 0.129573
Si Si5 0.837410 0.074869 0.337120
Si Si6 0.000000 0.838971 0.043808
O O1 0.872167 0.368435 0.116883
O O2 0.000000 0.250000 0.077003
O O3 0.000000 0.372824 0.018606
O O4 0.500000 0.358571 0.273443
O O5 0.322841 0.250000 0.254286
O O6 0.329987 0.369393 0.189255
O O7 0.225843 0.373706 0.289054
O O8 0.193542 0.250000 0.434588
O O9 0.250000 0.134667 0.500000
O O10 0.186907 0.114983 0.395803
O O11 0.000000 0.157033 0.468975
O O12 0.287601 0.250000 0.131178
O O13 0.369562 0.131384 0.078175
O O14 0.000000 0.061146 0.325954
O O15 0.750000 0.000000 0.338105
O O16 0.000000 0.750000 0.039986
#
# Coordination Sequence:
#
# PCOD8280124 Si02
#       6
#     8  16  16  16  16   8
#     4   9  16  22  36  62  95 135 174 213 266 329
#     4  10  20  35  55  78 108 146 188 233 281 334
#     4   9  19  37  61  89 118 149 185 224 268 320
#     4   9  16  26  40  64  97 135 177 218 267 328
#     4  11  24  40  58  82 114 149 190 236 280 329
#     4   9  14  24  38  58  95 137 172 213 266 327
#
# _framework density 19.150739999999999
#
# number of rings (size 3 to 8) (size 9 to 14) (size 15 to 20)
#    0.000    2.400    1.000    1.800    1.400    5.600 
#    0.000    4.000    0.000    0.000    0.000    0.000 
#    0.000    4.800    0.000    0.000    0.000    0.000 
#
# Total GULP energy -495849.122853 kJ/mol
# GULP energy per Si atom -12396.228071 kJ/mol
# Density = 1.910715 g / cm^3
# Si number density = 19.150740 Si / 1000 Ang^3
#
#
#
# Elastic Constant Matrix: (Units=GPa)
#
#
# Indices 1 2 3 4 5 6 
#
# 1 153.3704 40.3558 66.7736 0.0000 0.0000 0.0000
# 2 40.3558 42.9132 34.6049 0.0000 0.0000 0.0000
# 3 66.7736 34.6049 115.7507 0.0000 0.0000 0.0000
# 4 0.0000 0.0000 0.0000 -5.7317 0.0000 0.0000
# 5 0.0000 0.0000 0.0000 0.0000 40.9064 0.0000
# 6 0.0000 0.0000 0.0000 0.0000 0.0000 22.2277
#
#
#
# Elastic Compliance Matrix: (Units=1/GPa)
#
#
# Indices 1 2 3 4 5 6 
#
# 1 0.009796 -0.006134 -0.003817 0.000000 0.000000 0.000000
# 2 -0.006134 0.034546 -0.006789 0.000000 0.000000 0.000000
# 3 -0.003817 -0.006789 0.012871 0.000000 0.000000 0.000000
# 4 0.000000 0.000000 0.000000 -0.174468 0.000000 0.000000
# 5 0.000000 0.000000 0.000000 0.000000 0.024446 0.000000
# 6 0.000000 0.000000 0.000000 0.000000 0.000000 0.044989
#
#
# Mechanical properties :
#
#
# Convention : Reuss Voigt Hill
#
# Bulk Modulus (GPa) = 42.13715 66.16699 54.15207
# Shear Modulus (GPa) = -777.96645 22.83382 -377.56631
#
# Velocity S-wave (km/s) = -20.17709 3.45675 -14.05642
# Velocity P-wave (km/s) = 22.82037 7.11040 15.33316
#
# Compressibility (1/GPa) = 0.02373203
#
# Stress axis : x y z
#
# Youngs Moduli (GPa) = 102.08072 28.94662 77.69338
#
# Poissons Ratio (x) = 0.17756 0.29658
# Poissons Ratio (y) = 0.62618 0.52749
# Poissons Ratio (z) = 0.38967 0.19653
#
# Static dielectric constant tensor:
#      x y z
#    x 3.758700 0.000000 0.000000 
#    y 0.000000 3.025290 0.000000 
#    z 0.000000 0.000000 3.625680 
# 
# 
# High freq. dielectric constant tensor:
#      x y z
#    x 1.762080 0.000000 0.000000 
#    y 0.000000 1.689770 0.000000 
#    z 0.000000 0.000000 1.754890 
# 
# From -- ./inp_files/37768.got.cif
#   From: 2010.03.12/outbox.cif.g09.slc.cpg/sg67_19_cif.got.tgz:37768.got - 2010.04.10 22:41:39.
