data_PCOD8280115
_publ_section_title
;
Structure prediction by ZEFSAII (Michael W. Deem and Ramdas Pophale) SiO2 
 PCOD8280115
Probable space group: C M M A
;
_chemical_formula_sum "Si O2"
_cell_formula_units_Z 96
_cell_length_a 15.482942
_cell_length_b 9.853550
_cell_length_c 34.087874
_cell_angle_alpha 90.000000
_cell_angle_beta 90.000000
_cell_angle_gamma 90.000000
_cell_volume 5200.512295
_symmetry_space_group_name_H-M "C M M A"
_symmetry_group_IT_number 67
_symmetry_cell_setting 'orthorhombic'
loop_
_space_group_symop_operation_xyz
x,y,z
-x,1/2-y,z
x,-y,-z
-x,1/2+y,-z
-x,-y,-z
x,1/2+y,-z
-x,y,z
x,1/2-y,z
1/2+x,1/2+y,z
1/2-x,-y,z
1/2+x,1/2-y,-z
1/2-x,y,-z
1/2-x,1/2-y,-z
1/2+x,y,-z
1/2-x,1/2+y,z
1/2+x,-y,z
loop_
_atom_site_type_symbol
_atom_site_label
_atom_site_fract_x
_atom_site_fract_y
_atom_site_fract_z
Si Si1 0.500000 0.411054 0.746937
Si Si2 0.900989 0.603218 0.530444
Si Si3 0.400288 0.595656 0.034578
Si Si4 0.665762 0.590881 0.300970
Si Si5 0.669753 0.591386 0.119261
Si Si6 0.000000 0.589003 0.835504
Si Si7 0.328617 0.404500 0.610891
O O1 0.500000 0.250000 0.745777
O O2 0.587129 0.462765 0.725808
O O3 0.500000 0.467273 0.791218
O O4 0.854780 0.500000 0.500000
O O5 0.856248 0.750000 0.524553
O O6 0.896572 0.561441 0.576431
O O7 0.000000 0.613714 0.518579
O O8 0.500000 0.563476 0.044306
O O9 0.389417 0.750000 0.020329
O O10 0.344987 0.567622 0.073218
O O11 0.364978 0.500000 0.000000
O O12 0.687236 0.750000 0.293121
O O13 0.750000 0.500000 0.291572
O O14 0.633583 0.567482 0.345735
O O15 0.688214 0.750000 0.128242
O O16 0.750000 0.500000 0.133251
O O17 0.586009 0.537483 0.142660
O O18 0.000000 0.750000 0.836691
O O19 0.296245 0.250000 0.608880
O O20 0.250000 0.500000 0.601571
#
# Coordination Sequence:
#
# PCOD8280115 Si02
#       7
#     8  16  16  16  16   8  16
#     4   9  18  32  57  84 101 133 177 209 249 309
#     4   9  18  31  46  65  90 122 159 198 236 277
#     4   9  17  31  51  74 101 137 176 216 259 303
#     4   9  18  33  53  79 107 132 166 210 253 303
#     4  10  20  35  55  77 105 141 178 215 259 308
#     4   9  18  36  56  76 106 139 173 211 255 313
#     4   9  18  31  48  69  95 125 156 195 241 287
#
# _framework density 18.459719
#
# number of rings (size 3 to 8) (size 9 to 14) (size 15 to 20)
#    0.000    2.833    0.833    0.000    1.167    2.667 
#    0.000    4.167    0.000    1.000    0.000    0.000 
#    0.000    0.000    0.000    0.000    0.000    0.000 
#
# Total GULP energy -594909.484701 kJ/mol
# GULP energy per Si atom -12393.947598 kJ/mol
# Density = 1.841770 g / cm^3
# Si number density = 18.459719 Si / 1000 Ang^3
#
#
#
# Elastic Constant Matrix: (Units=GPa)
#
#
# Indices 1 2 3 4 5 6 
#
# 1 103.8052 48.8925 60.1028 0.0000 0.0000 0.0000
# 2 48.8925 63.4291 51.8540 0.0000 0.0000 0.0000
# 3 60.1028 51.8540 124.7865 0.0000 0.0000 0.0000
# 4 0.0000 0.0000 0.0000 13.6478 0.0000 0.0000
# 5 0.0000 0.0000 0.0000 0.0000 18.6880 0.0000
# 6 0.0000 0.0000 0.0000 0.0000 0.0000 26.9263
#
#
#
# Elastic Compliance Matrix: (Units=1/GPa)
#
#
# Indices 1 2 3 4 5 6 
#
# 1 0.016340 -0.009331 -0.003993 0.000000 0.000000 0.000000
# 2 -0.009331 0.029206 -0.007642 0.000000 0.000000 0.000000
# 3 -0.003993 -0.007642 0.013112 0.000000 0.000000 0.000000
# 4 0.000000 0.000000 0.000000 0.073272 0.000000 0.000000
# 5 0.000000 0.000000 0.000000 0.000000 0.053510 0.000000
# 6 0.000000 0.000000 0.000000 0.000000 0.000000 0.037138
#
#
# Mechanical properties :
#
#
# Convention : Reuss Voigt Hill
#
# Bulk Modulus (GPa) = 59.78510 68.19106 63.98808
# Shear Modulus (GPa) = 18.51262 20.59718 19.55490
#
# Velocity S-wave (km/s) = 3.17024 3.34397 3.25826
# Velocity P-wave (km/s) = 6.77183 7.20626 6.99242
#
# Compressibility (1/GPa) = 0.01672658
#
# Stress axis : x y z
#
# Youngs Moduli (GPa) = 61.19855 34.23981 76.26489
#
# Poissons Ratio (x) = 0.31951 0.30450
# Poissons Ratio (y) = 0.57107 0.58280
# Poissons Ratio (z) = 0.24434 0.26165
#
# Static dielectric constant tensor:
#      x y z
#    x 3.226750 0.000000 0.000000 
#    y 0.000000 3.469870 0.000000 
#    z 0.000000 0.000000 3.560330 
# 
# 
# High freq. dielectric constant tensor:
#      x y z
#    x 1.701750 0.000000 0.000000 
#    y 0.000000 1.695670 0.000000 
#    z 0.000000 0.000000 1.721290 
# 
# From -- ./inp_files/45673.got.cif
#   From: 2010.03.12/outbox.cif.g09.slc.cpg/sg67_23_cif.got.tgz:45673.got - 2010.04.10 22:41:39.
