data_PCOD8280518
_publ_section_title
;
Structure prediction by ZEFSAII (Michael W. Deem and Ramdas Pophale) SiO2 
 PCOD8280518
Probable space group: C M M A
;
_chemical_formula_sum "Si O2"
_cell_formula_units_Z 96
_cell_length_a 18.800532
_cell_length_b 18.550147
_cell_length_c 14.315459
_cell_angle_alpha 90.000000
_cell_angle_beta 90.000000
_cell_angle_gamma 90.000000
_cell_volume 4992.554009
_symmetry_space_group_name_H-M "C M M A"
_symmetry_group_IT_number 67
_symmetry_cell_setting 'orthorhombic'
loop_
_space_group_symop_operation_xyz
x,y,z
-x,1/2-y,z
x,-y,-z
-x,1/2+y,-z
-x,-y,-z
x,1/2+y,-z
-x,y,z
x,1/2-y,z
1/2+x,1/2+y,z
1/2-x,-y,z
1/2+x,1/2-y,-z
1/2-x,y,-z
1/2-x,1/2-y,-z
1/2+x,y,-z
1/2-x,1/2+y,z
1/2+x,-y,z
loop_
_atom_site_type_symbol
_atom_site_label
_atom_site_fract_x
_atom_site_fract_y
_atom_site_fract_z
Si Si1 0.175378 0.830584 0.050056
Si Si2 0.672814 0.832610 0.291282
Si Si3 0.079747 0.890393 0.554914
Si Si4 0.579411 0.664381 0.118595
Si Si5 0.580029 0.048530 0.361997
Si Si6 0.706590 0.571725 0.775657
O O1 0.153908 0.750000 0.085806
O O2 0.180980 0.886828 0.133002
O O3 0.250000 0.824423 0.000000
O O4 0.117763 0.861044 0.976318
O O5 0.692924 0.750000 0.271801
O O6 0.634641 0.838491 0.391723
O O7 0.621803 0.863681 0.209372
O O8 0.744984 0.878295 0.290487
O O9 0.099070 0.895029 0.445051
O O10 0.000000 0.859348 0.567373
O O11 0.084922 0.968956 0.598293
O O12 0.500000 0.631529 0.121145
O O13 0.576851 0.750000 0.121947
O O14 0.500000 0.064264 0.325446
O O15 0.634795 0.054108 0.278343
O O16 0.750000 0.500000 0.803380
#
# Coordination Sequence:
#
# PCOD8280518 Si02
#       6
#    16  16  16  16  16  16
#     4  10  20  38  59  78 111 155 194 234 289 347
#     4  11  21  36  59  90 121 151 190 243 296 342
#     4   9  18  37  61  84 113 156 196 234 291 349
#     4   9  18  34  58  85 112 149 194 236 285 349
#     4   9  20  39  60  82 116 156 196 236 284 348
#     4  12  23  37  58  88 117 154 195 241 291 353
#
# _framework density 19.228634
#
# number of rings (size 3 to 8) (size 9 to 14) (size 15 to 20)
#    0.000    2.000    3.333    2.000    0.000    2.667 
#    0.000    2.500    0.000    4.500    0.000    0.000 
#    0.000    0.000    0.000    0.000    0.000    0.000 
#
# Total GULP energy -595141.902767 kJ/mol
# GULP energy per Si atom -12398.789641 kJ/mol
# Density = 1.918487 g / cm^3
# Si number density = 19.228634 Si / 1000 Ang^3
#
#
#
# Elastic Constant Matrix: (Units=GPa)
#
#
# Indices 1 2 3 4 5 6 
#
# 1 95.1033 19.2625 34.1499 0.0000 0.0000 0.0000
# 2 19.2625 53.8164 23.2669 0.0000 0.0000 0.0000
# 3 34.1499 23.2669 84.8963 0.0000 0.0000 0.0000
# 4 0.0000 0.0000 0.0000 32.7528 0.0000 0.0000
# 5 0.0000 0.0000 0.0000 0.0000 29.2059 0.0000
# 6 0.0000 0.0000 0.0000 0.0000 0.0000 23.1969
#
#
#
# Elastic Compliance Matrix: (Units=1/GPa)
#
#
# Indices 1 2 3 4 5 6 
#
# 1 0.012610 -0.002633 -0.004351 0.000000 0.000000 0.000000
# 2 -0.002633 0.021629 -0.004869 0.000000 0.000000 0.000000
# 3 -0.004351 -0.004869 0.014864 0.000000 0.000000 0.000000
# 4 0.000000 0.000000 0.000000 0.030532 0.000000 0.000000
# 5 0.000000 0.000000 0.000000 0.000000 0.034240 0.000000
# 6 0.000000 0.000000 0.000000 0.000000 0.000000 0.043109
#
#
# Mechanical properties :
#
#
# Convention : Reuss Voigt Hill
#
# Bulk Modulus (GPa) = 39.37274 43.01940 41.19607
# Shear Modulus (GPa) = 26.43342 27.50691 26.97017
#
# Velocity S-wave (km/s) = 3.71170 3.78632 3.74920
# Velocity P-wave (km/s) = 6.23615 6.44485 6.34136
#
# Compressibility (1/GPa) = 0.02539829
#
# Stress axis : x y z
#
# Youngs Moduli (GPa) = 79.29901 46.23451 67.27814
#
# Poissons Ratio (x) = 0.12171 0.29274
# Poissons Ratio (y) = 0.20876 0.32756
# Poissons Ratio (z) = 0.34504 0.22510
#
# Static dielectric constant tensor:
#      x y z
#    x 3.756240 0.000000 0.000000 
#    y 0.000000 3.361560 0.000000 
#    z 0.000000 0.000000 1.595300 
# 
# 
# High freq. dielectric constant tensor:
#      x y z
#    x 1.751700 0.000000 0.000000 
#    y 0.000000 1.725190 0.000000 
#    z 0.000000 0.000000 1.742740 
# 
# From -- ./inp_files/20858.got.cif
#   From: 2010.03.12/outbox.cif.g09.slc.cpg/sg67_11_cif.got.tgz:20858.got - 2010.04.10 22:41:39.
