data_PCOD8280010
_publ_section_title
;
Structure prediction by ZEFSAII (Michael W. Deem and Ramdas Pophale) SiO2 
 PCOD8280010
Probable space group: C M M A
;
_chemical_formula_sum "Si O2"
_cell_formula_units_Z 96
_cell_length_a 22.204040
_cell_length_b 23.607213
_cell_length_c 9.559011
_cell_angle_alpha 90.000000
_cell_angle_beta 90.000000
_cell_angle_gamma 90.000000
_cell_volume 5010.599387
_symmetry_space_group_name_H-M "C M M A"
_symmetry_group_IT_number 67
_symmetry_cell_setting 'orthorhombic'
loop_
_space_group_symop_operation_xyz
x,y,z
-x,1/2-y,z
x,-y,-z
-x,1/2+y,-z
-x,-y,-z
x,1/2+y,-z
-x,y,z
x,1/2-y,z
1/2+x,1/2+y,z
1/2-x,-y,z
1/2+x,1/2-y,-z
1/2-x,y,-z
1/2-x,1/2-y,-z
1/2+x,y,-z
1/2-x,1/2+y,z
1/2+x,-y,z
loop_
_atom_site_type_symbol
_atom_site_label
_atom_site_fract_x
_atom_site_fract_y
_atom_site_fract_z
Si Si1 0.636355 0.606114 0.730561
Si Si2 0.734662 0.120299 0.663641
Si Si3 0.120373 0.314614 0.248281
Si Si4 0.929365 0.314906 0.946525
Si Si5 0.567512 0.897996 0.447330
Si Si6 0.843815 0.016280 0.347641
O O1 0.703273 0.631960 0.745654
O O2 0.592664 0.637777 0.837453
O O3 0.610482 0.616795 0.576451
O O4 0.643685 0.537866 0.752414
O O5 0.750000 0.121643 0.500000
O O6 0.688023 0.168523 0.708508
O O7 0.706083 0.059784 0.712631
O O8 0.111010 0.250000 0.284991
O O9 0.070221 0.346382 0.339516
O O10 0.108419 0.326827 0.085877
O O11 0.918166 0.250000 0.893761
O O12 0.000000 0.324337 0.974195
O O13 0.500000 0.908512 0.499552
O O14 0.591508 0.953466 0.366957
O O15 0.818335 0.000000 0.500000
#
# Coordination Sequence:
#
# PCOD8280010 Si02
#       6
#    16  16  16  16  16  16
#     4  11  21  34  60  89 117 155 193 239 302 349
#     4  11  19  36  59  91 120 148 190 246 296 349
#     4  10  22  40  61  81 110 158 202 241 297 353
#     4  10  23  43  61  81 117 162 204 247 297 352
#     4  10  20  34  55  87 116 146 199 250 290 346
#     4   9  18  32  57  86 117 154 185 234 294 354
#
# _framework density 19.159385
#
# number of rings (size 3 to 8) (size 9 to 14) (size 15 to 20)
#    0.000    1.833    5.000    1.500    0.000    7.000 
#    0.000    5.000    0.000    9.000    0.000    0.000 
#    0.000    0.000    0.000    0.000    0.000    0.000 
#
# Total GULP energy -594925.317796 kJ/mol
# GULP energy per Si atom -12394.277454 kJ/mol
# Density = 1.911578 g / cm^3
# Si number density = 19.159385 Si / 1000 Ang^3
#
#
#
# Elastic Constant Matrix: (Units=GPa)
#
#
# Indices 1 2 3 4 5 6 
#
# 1 127.9627 21.1085 24.5795 0.0000 0.0000 0.0000
# 2 21.1085 71.0450 44.8692 0.0000 0.0000 0.0000
# 3 24.5795 44.8692 57.9646 0.0000 0.0000 0.0000
# 4 0.0000 0.0000 0.0000 14.7471 0.0000 0.0000
# 5 0.0000 0.0000 0.0000 0.0000 28.0646 0.0000
# 6 0.0000 0.0000 0.0000 0.0000 0.0000 22.6194
#
#
#
# Elastic Compliance Matrix: (Units=1/GPa)
#
#
# Indices 1 2 3 4 5 6 
#
# 1 0.008516 -0.000488 -0.003233 0.000000 0.000000 0.000000
# 2 -0.000488 0.027567 -0.021132 0.000000 0.000000 0.000000
# 3 -0.003233 -0.021132 0.034981 0.000000 0.000000 0.000000
# 4 0.000000 0.000000 0.000000 0.067810 0.000000 0.000000
# 5 0.000000 0.000000 0.000000 0.000000 0.035632 0.000000
# 6 0.000000 0.000000 0.000000 0.000000 0.000000 0.044210
#
#
# Mechanical properties :
#
#
# Convention : Reuss Voigt Hill
#
# Bulk Modulus (GPa) = 46.82317 48.67630 47.74974
# Shear Modulus (GPa) = 18.14612 24.18056 21.16334
#
# Velocity S-wave (km/s) = 3.08086 3.55642 3.32715
# Velocity P-wave (km/s) = 6.09487 6.50579 6.30368
#
# Compressibility (1/GPa) = 0.02135695
#
# Stress axis : x y z
#
# Youngs Moduli (GPa) = 117.42050 36.27577 28.58727
#
# Poissons Ratio (x) = 0.01771 0.09243
# Poissons Ratio (y) = 0.05733 0.60410
# Poissons Ratio (z) = 0.37966 0.76657
#
# Static dielectric constant tensor:
#      x y z
#    x 3.705410 0.000000 0.000000 
#    y 0.000000 3.686070 0.000000 
#    z 0.000000 0.000000 3.234170 
# 
# 
# High freq. dielectric constant tensor:
#      x y z
#    x 1.761200 0.000000 0.000000 
#    y 0.000000 1.749480 0.000000 
#    z 0.000000 0.000000 1.708900 
# 
# From -- ./inp_files/12644.got.cif
#   From: 2010.03.12/outbox.cif.g09.slc.cpg/sg67_7_cif.got.tgz:12644.got - 2010.04.10 22:41:39.
