data_PCOD8280330
_publ_section_title
;
Structure prediction by ZEFSAII (Michael W. Deem and Ramdas Pophale) SiO2 
 PCOD8280330
Probable space group: C M M A
;
_chemical_formula_sum "Si O2"
_cell_formula_units_Z 88
_cell_length_a 20.665495
_cell_length_b 9.061832
_cell_length_c 25.046572
_cell_angle_alpha 90.000000
_cell_angle_beta 90.000000
_cell_angle_gamma 90.000000
_cell_volume 4690.402507
_symmetry_space_group_name_H-M "C M M A"
_symmetry_group_IT_number 67
_symmetry_cell_setting 'orthorhombic'
loop_
_space_group_symop_operation_xyz
x,y,z
-x,1/2-y,z
x,-y,-z
-x,1/2+y,-z
-x,-y,-z
x,1/2+y,-z
-x,y,z
x,1/2-y,z
1/2+x,1/2+y,z
1/2-x,-y,z
1/2+x,1/2-y,-z
1/2-x,y,-z
1/2-x,1/2-y,-z
1/2+x,y,-z
1/2-x,1/2+y,z
1/2+x,-y,z
loop_
_atom_site_type_symbol
_atom_site_label
_atom_site_fract_x
_atom_site_fract_y
_atom_site_fract_z
Si Si1 0.076815 0.084540 0.344288
Si Si2 0.426310 0.922296 0.762513
Si Si3 0.687567 0.075643 0.158351
Si Si4 0.859848 0.075938 0.057689
Si Si5 0.422800 0.583550 0.552278
Si Si6 0.500000 0.916202 0.053799
O O1 0.104950 0.250000 0.344898
O O2 0.000000 0.086827 0.347862
O O3 0.098565 0.005830 0.289983
O O4 0.105012 0.997097 0.395161
O O5 0.500000 0.968814 0.778320
O O6 0.423595 0.750000 0.749484
O O7 0.377689 0.965360 0.809889
O O8 0.697408 0.250000 0.154460
O O9 0.750000 0.000000 0.186783
O O10 0.686343 0.005195 0.099244
O O11 0.843487 0.250000 0.053160
O O12 0.932264 0.049178 0.083181
O O13 0.851598 0.000000 0.000000
O O14 0.396509 0.500000 0.500000
O O15 0.500000 0.582583 0.552845
O O16 0.396251 0.750000 0.551446
O O17 0.500000 0.750000 0.034687
O O18 0.500000 0.000000 0.000000
#
# Coordination Sequence:
#
# PCOD8280330 Si02
#       6
#    16  16  16  16  16   8
#     4   9  16  26  42  66  95 128 168 213 259 308
#     4   9  19  36  56  77 101 134 175 217 262 311
#     4  11  24  40  58  80 108 140 174 216 264 315
#     4  10  20  36  57  82 110 139 172 209 256 311
#     4   9  15  22  34  55  88 130 171 211 256 308
#     4   8  16  30  50  78 108 136 164 202 245 294
#
# _framework density 18.761716
#
# number of rings (size 3 to 8) (size 9 to 14) (size 15 to 20)
#    0.000    2.545    0.000    2.182    1.273    6.909 
#    0.000    1.818    0.000    0.000    0.000    0.000 
#    0.000    0.727    0.000    7.636    0.000   11.455 
#
# Total GULP energy -545290.821035 kJ/mol
# GULP energy per Si atom -12392.973205 kJ/mol
# Density = 1.871901 g / cm^3
# Si number density = 18.761716 Si / 1000 Ang^3
#
#
#
# Elastic Constant Matrix: (Units=GPa)
#
#
# Indices 1 2 3 4 5 6 
#
# 1 66.9403 39.5583 40.6169 0.0000 0.0000 0.0000
# 2 39.5583 120.7426 72.6660 0.0000 0.0000 0.0000
# 3 40.6169 72.6660 127.8503 0.0000 0.0000 0.0000
# 4 0.0000 0.0000 0.0000 34.8044 0.0000 0.0000
# 5 0.0000 0.0000 0.0000 0.0000 4.7263 0.0000
# 6 0.0000 0.0000 0.0000 0.0000 0.0000 20.7096
#
#
#
# Elastic Compliance Matrix: (Units=1/GPa)
#
#
# Indices 1 2 3 4 5 6 
#
# 1 0.019755 -0.004096 -0.003948 0.000000 0.000000 0.000000
# 2 -0.004096 0.013437 -0.006336 0.000000 0.000000 0.000000
# 3 -0.003948 -0.006336 0.012677 0.000000 0.000000 0.000000
# 4 0.000000 0.000000 0.000000 0.028732 0.000000 0.000000
# 5 0.000000 0.000000 0.000000 0.000000 0.211580 0.000000
# 6 0.000000 0.000000 0.000000 0.000000 0.000000 0.048287
#
#
# Mechanical properties :
#
#
# Convention : Reuss Voigt Hill
#
# Bulk Modulus (GPa) = 58.44868 69.02393 63.73630
# Shear Modulus (GPa) = 13.55268 22.89421 18.22344
#
# Velocity S-wave (km/s) = 2.69059 3.49701 3.11997
# Velocity P-wave (km/s) = 6.39321 7.29213 6.85741
#
# Compressibility (1/GPa) = 0.01710903
#
# Stress axis : x y z
#
# Youngs Moduli (GPa) = 50.62089 74.41986 78.88339
#
# Poissons Ratio (x) = 0.30485 0.31141
# Poissons Ratio (y) = 0.20736 0.49980
# Poissons Ratio (z) = 0.19983 0.47152
#
# Static dielectric constant tensor:
#      x y z
#    x 3.323290 0.000000 0.000000 
#    y 0.000000 3.586650 0.000000 
#    z 0.000000 0.000000 3.363360 
# 
# 
# High freq. dielectric constant tensor:
#      x y z
#    x 1.684100 0.000000 0.000000 
#    y 0.000000 1.743320 0.000000 
#    z 0.000000 0.000000 1.721600 
# 
# From -- ./inp_files/42340.got.cif
#   From: 2010.03.12/outbox.cif.g09.slc.cpg/sg67_22_cif.got.tgz:42340.got - 2010.04.10 22:41:39.
