data_PCOD8280962
_publ_section_title
;
Structure prediction by ZEFSAII (Michael W. Deem and Ramdas Pophale) SiO2 
 PCOD8280962
Probable space group: C M M A
;
_chemical_formula_sum "Si O2"
_cell_formula_units_Z 80
_cell_length_a 17.665397
_cell_length_b 14.364350
_cell_length_c 16.443098
_cell_angle_alpha 90.000000
_cell_angle_beta 90.000000
_cell_angle_gamma 90.000000
_cell_volume 4172.468106
_symmetry_space_group_name_H-M "C M M A"
_symmetry_group_IT_number 67
_symmetry_cell_setting 'orthorhombic'
loop_
_space_group_symop_operation_xyz
x,y,z
-x,1/2-y,z
x,-y,-z
-x,1/2+y,-z
-x,-y,-z
x,1/2+y,-z
-x,y,z
x,1/2-y,z
1/2+x,1/2+y,z
1/2-x,-y,z
1/2+x,1/2-y,-z
1/2-x,y,-z
1/2-x,1/2-y,-z
1/2+x,y,-z
1/2-x,1/2+y,z
1/2+x,-y,z
loop_
_atom_site_type_symbol
_atom_site_label
_atom_site_fract_x
_atom_site_fract_y
_atom_site_fract_z
Si Si1 0.910932 0.488722 0.883124
Si Si2 0.839350 0.141578 0.010217
Si Si3 0.849734 0.357553 0.579010
Si Si4 0.824034 0.357430 0.397815
Si Si5 0.914264 0.499777 0.301672
O O1 0.880932 0.398144 0.930442
O O2 0.892048 0.469788 0.789079
O O3 0.000000 0.501053 0.899230
O O4 0.868343 0.582652 0.912251
O O5 0.860451 0.250000 0.021918
O O6 0.750000 0.127792 0.000000
O O7 0.867649 0.250000 0.593303
O O8 0.861966 0.383928 0.484399
O O9 0.764063 0.382337 0.601956
O O10 0.905367 0.414586 0.636506
O O11 0.836550 0.250000 0.378994
O O12 0.862040 0.413885 0.325894
O O13 0.000000 0.464749 0.304772
#
# Coordination Sequence:
#
# PCOD8280962 Si02
#       5
#    16  16  16  16  16
#     4  10  22  38  55  79 111 144 176 210 255 318
#     4  10  21  38  61  85 106 132 171 219 266 311
#     4   9  19  36  56  77 103 140 185 226 265 312
#     4   9  19  36  56  77 103 140 185 226 265 312
#     4  11  23  35  51  80 113 142 175 217 264 313
#
# _framework density 19.173304999999999
#
# number of rings (size 3 to 8) (size 9 to 14) (size 15 to 20)
#    0.000    2.200    0.000    4.800    0.000   10.400 
#    0.000   10.000    0.000    0.000    0.000    0.000 
#    0.000    0.000    0.000    0.000    0.000    0.000 
#
# Total GULP energy -496036.349382 kJ/mol
# GULP energy per Si atom -12400.908735 kJ/mol
# Density = 1.912967 g / cm^3
# Si number density = 19.173305 Si / 1000 Ang^3
#
#
#
# Elastic Constant Matrix: (Units=GPa)
#
#
# Indices 1 2 3 4 5 6 
#
# 1 67.5185 25.4558 24.1560 0.0000 0.0000 0.0000
# 2 25.4558 82.4655 14.2631 0.0000 0.0000 0.0000
# 3 24.1560 14.2631 82.6654 0.0000 0.0000 0.0000
# 4 0.0000 0.0000 0.0000 16.8490 0.0000 0.0000
# 5 0.0000 0.0000 0.0000 0.0000 31.3014 0.0000
# 6 0.0000 0.0000 0.0000 0.0000 0.0000 -8.2734
#
#
#
# Elastic Compliance Matrix: (Units=1/GPa)
#
#
# Indices 1 2 3 4 5 6 
#
# 1 0.018250 -0.004856 -0.004495 0.000000 0.000000 0.000000
# 2 -0.004856 0.013791 -0.000961 0.000000 0.000000 0.000000
# 3 -0.004495 -0.000961 0.013576 0.000000 0.000000 0.000000
# 4 0.000000 0.000000 0.000000 0.059351 0.000000 0.000000
# 5 0.000000 0.000000 0.000000 0.000000 0.031947 0.000000
# 6 0.000000 0.000000 0.000000 0.000000 0.000000 -0.120869
#
#
# Mechanical properties :
#
#
# Convention : Reuss Voigt Hill
#
# Bulk Modulus (GPa) = 40.00922 40.04437 40.02680
# Shear Modulus (GPa) = 111.10931 19.22702 65.16816
#
# Velocity S-wave (km/s) = 7.62075 3.17014 5.83633
# Velocity P-wave (km/s) = 9.91700 5.85923 8.14486
#
# Compressibility (1/GPa) = 0.02499424
#
# Stress axis : x y z
#
# Youngs Moduli (GPa) = 54.79540 72.50902 73.65839
#
# Poissons Ratio (x) = 0.35210 0.33109
# Poissons Ratio (y) = 0.26608 0.07076
# Poissons Ratio (z) = 0.24630 0.06965
#
# Static dielectric constant tensor:
#      x y z
#    x 3.467910 0.000000 0.000000 
#    y 0.000000 3.506640 0.000000 
#    z 0.000000 0.000000 3.513550 
# 
# 
# High freq. dielectric constant tensor:
#      x y z
#    x 1.746910 0.000000 0.000000 
#    y 0.000000 1.750340 0.000000 
#    z 0.000000 0.000000 1.744440 
# 
# From -- ./inp_files/34089.got.cif
#   From: 2010.03.12/outbox.cif.g09.slc.cpg/sg67_18_cif.got.tgz:34089.got - 2010.04.10 22:41:39.
