data_PCOD8280692
_publ_section_title
;
Structure prediction by ZEFSAII (Michael W. Deem and Ramdas Pophale) SiO2 
 PCOD8280692
Probable space group: C M M A
;
_chemical_formula_sum "Si O2"
_cell_formula_units_Z 96
_cell_length_a 20.921146
_cell_length_b 14.510688
_cell_length_c 15.216012
_cell_angle_alpha 90.000000
_cell_angle_beta 90.000000
_cell_angle_gamma 90.000000
_cell_volume 4619.280304
_symmetry_space_group_name_H-M "C M M A"
_symmetry_group_IT_number 67
_symmetry_cell_setting 'orthorhombic'
loop_
_space_group_symop_operation_xyz
x,y,z
-x,1/2-y,z
x,-y,-z
-x,1/2+y,-z
-x,-y,-z
x,1/2+y,-z
-x,y,z
x,1/2-y,z
1/2+x,1/2+y,z
1/2-x,-y,z
1/2+x,1/2-y,-z
1/2-x,y,-z
1/2-x,1/2-y,-z
1/2+x,y,-z
1/2-x,1/2+y,z
1/2+x,-y,z
loop_
_atom_site_type_symbol
_atom_site_label
_atom_site_fract_x
_atom_site_fract_y
_atom_site_fract_z
Si Si1 0.133433 0.647089 0.653523
Si Si2 0.705594 0.142872 0.074910
Si Si3 0.429233 0.147874 0.474047
Si Si4 0.930286 0.858014 0.130454
Si Si5 0.396040 0.954573 0.695578
Si Si6 0.228461 0.353509 0.728991
O O1 0.108738 0.750000 0.681097
O O2 0.122733 0.629676 0.550007
O O3 0.097846 0.565707 0.706893
O O4 0.208220 0.638360 0.672258
O O5 0.701493 0.250000 0.052740
O O6 0.631409 0.105298 0.075190
O O7 0.740036 0.123343 0.167937
O O8 0.750000 0.094680 0.000000
O O9 0.500000 0.141653 0.516653
O O10 0.417516 0.250000 0.434139
O O11 0.426360 0.073302 0.397079
O O12 0.921119 0.750000 0.148431
O O13 0.932672 0.907518 0.224552
O O14 0.000000 0.876816 0.084639
O O15 0.321849 0.925644 0.690919
O O16 0.200109 0.250000 0.722524
#
# Coordination Sequence:
#
# PCOD8280692 Si02
#       6
#    16  16  16  16  16  16
#     4  10  22  36  49  69 102 140 176 217 257 304
#     4   8  14  27  51  81 110 139 170 208 260 323
#     4  10  21  36  53  74  99 129 171 220 266 312
#     4   9  17  29  49  81 115 140 168 216 273 321
#     4  11  19  31  53  76 101 136 176 215 264 318
#     4   9  18  33  52  76 104 133 171 217 264 315
#
# _framework density 20.782458999999999
#
# number of rings (size 3 to 8) (size 9 to 14) (size 15 to 20)
#    0.000    2.500    0.000    4.000    0.000    4.000 
#    0.000    4.167    0.000    9.000    0.000    8.167 
#    0.000    0.000    0.000    0.000    0.000    0.000 
#
# Total GULP energy -594747.798495 kJ/mol
# GULP energy per Si atom -12390.579135 kJ/mol
# Density = 2.073516 g / cm^3
# Si number density = 20.782459 Si / 1000 Ang^3
#
#
#
# Elastic Constant Matrix: (Units=GPa)
#
#
# Indices 1 2 3 4 5 6 
#
# 1 143.4245 22.5901 72.2528 0.0000 0.0000 0.0000
# 2 22.5901 105.5674 18.0109 0.0000 0.0000 0.0000
# 3 72.2528 18.0109 84.3329 0.0000 0.0000 0.0000
# 4 0.0000 0.0000 0.0000 6.6812 0.0000 0.0000
# 5 0.0000 0.0000 0.0000 0.0000 29.1163 0.0000
# 6 0.0000 0.0000 0.0000 0.0000 0.0000 11.6598
#
#
#
# Elastic Compliance Matrix: (Units=1/GPa)
#
#
# Indices 1 2 3 4 5 6 
#
# 1 0.012343 -0.000869 -0.010389 0.000000 0.000000 0.000000
# 2 -0.000869 0.009892 -0.001368 0.000000 0.000000 0.000000
# 3 -0.010389 -0.001368 0.021051 0.000000 0.000000 0.000000
# 4 0.000000 0.000000 0.000000 0.149673 0.000000 0.000000
# 5 0.000000 0.000000 0.000000 0.000000 0.034345 0.000000
# 6 0.000000 0.000000 0.000000 0.000000 0.000000 0.085765
#
#
# Mechanical properties :
#
#
# Convention : Reuss Voigt Hill
#
# Bulk Modulus (GPa) = 55.45320 62.11473 58.78397
# Shear Modulus (GPa) = 14.52082 24.18952 19.35517
#
# Velocity S-wave (km/s) = 2.64617 3.41536 3.05507
# Velocity P-wave (km/s) = 6.00641 6.74580 6.38681
#
# Compressibility (1/GPa) = 0.01803322
#
# Stress axis : x y z
#
# Youngs Moduli (GPa) = 81.01761 101.09212 47.50323
#
# Poissons Ratio (x) = 0.08782 0.49353
# Poissons Ratio (y) = 0.07038 0.06500
# Poissons Ratio (z) = 0.84173 0.13833
#
# Static dielectric constant tensor:
#      x y z
#    x 3.983620 0.000000 0.000000 
#    y 0.000000 3.894880 0.000000 
#    z 0.000000 0.000000 3.487840 
# 
# 
# High freq. dielectric constant tensor:
#      x y z
#    x 1.814780 0.000000 0.000000 
#    y 0.000000 1.811380 0.000000 
#    z 0.000000 0.000000 1.777150 
# 
# From -- ./inp_files/29249.got.cif
#   From: 2010.03.12/outbox.cif.g09.slc.cpg/sg67_15_cif.got.tgz:29249.got - 2010.04.10 22:41:39.
