data_PCOD8280842
_publ_section_title
;
Structure prediction by ZEFSAII (Michael W. Deem and Ramdas Pophale) SiO2 
 PCOD8280842
Probable space group: C M M A
;
_chemical_formula_sum "Si O2"
_cell_formula_units_Z 96
_cell_length_a 28.561616
_cell_length_b 8.899974
_cell_length_c 20.513929
_cell_angle_alpha 90.000000
_cell_angle_beta 90.000000
_cell_angle_gamma 90.000000
_cell_volume 5214.592335
_symmetry_space_group_name_H-M "C M M A"
_symmetry_group_IT_number 67
_symmetry_cell_setting 'orthorhombic'
loop_
_space_group_symop_operation_xyz
x,y,z
-x,1/2-y,z
x,-y,-z
-x,1/2+y,-z
-x,-y,-z
x,1/2+y,-z
-x,y,z
x,1/2-y,z
1/2+x,1/2+y,z
1/2-x,-y,z
1/2+x,1/2-y,-z
1/2-x,y,-z
1/2-x,1/2-y,-z
1/2+x,y,-z
1/2-x,1/2+y,z
1/2+x,-y,z
loop_
_atom_site_type_symbol
_atom_site_label
_atom_site_fract_x
_atom_site_fract_y
_atom_site_fract_z
Si Si1 0.703285 0.073227 0.119405
Si Si2 0.554411 0.424452 0.568320
Si Si3 0.103006 0.427172 0.689326
Si Si4 0.395734 0.428167 0.067256
Si Si5 0.444863 0.922883 0.187371
Si Si6 0.704013 0.924681 0.732671
O O1 0.709123 0.250000 0.116213
O O2 0.657828 0.020560 0.079480
O O3 0.696334 0.016264 0.193560
O O4 0.750000 0.000000 0.088584
O O5 0.566943 0.500000 0.500000
O O6 0.500000 0.444844 0.585314
O O7 0.568413 0.250000 0.566229
O O8 0.584188 0.510242 0.621904
O O9 0.093616 0.250000 0.695020
O O10 0.077866 0.507735 0.748720
O O11 0.158265 0.464378 0.690801
O O12 0.400379 0.250000 0.064148
O O13 0.428900 0.486753 0.124153
O O14 0.413302 0.500000 0.000000
O O15 0.500000 0.938691 0.194744
O O16 0.429401 0.750000 0.180827
O O17 0.713731 0.750000 0.733769
O O18 0.750000 0.000000 0.700880
#
# Coordination Sequence:
#
# PCOD8280842 Si02
#       6
#    16  16  16  16  16  16
#     4   9  18  34  54  78 108 140 178 223 274 332
#     4  10  21  37  57  85 120 156 194 232 275 329
#     4  11  21  36  59  87 118 150 186 229 278 329
#     4  11  23  40  58  79 108 143 184 229 281 339
#     4  11  24  40  58  82 109 141 186 234 279 331
#     4   9  18  33  53  81 112 144 182 224 273 329
#
# _framework density 18.409877000000002
#
# number of rings (size 3 to 8) (size 9 to 14) (size 15 to 20)
#    0.000    1.833    1.667    2.500    0.000    7.667 
#    0.000    1.667    0.000    0.500    0.000    3.500 
#    0.000    0.000    0.000    0.000    0.000    0.000 
#
# Total GULP energy -595330.682032 kJ/mol
# GULP energy per Si atom -12402.722542 kJ/mol
# Density = 1.836798 g / cm^3
# Si number density = 18.409877 Si / 1000 Ang^3
#
#
#
# Elastic Constant Matrix: (Units=GPa)
#
#
# Indices 1 2 3 4 5 6 
#
# 1 97.5018 56.1120 52.6936 0.0000 0.0000 0.0000
# 2 56.1120 83.5790 36.0725 0.0000 0.0000 0.0000
# 3 52.6936 36.0725 96.8737 0.0000 0.0000 0.0000
# 4 0.0000 0.0000 0.0000 33.8153 0.0000 0.0000
# 5 0.0000 0.0000 0.0000 0.0000 33.0977 0.0000
# 6 0.0000 0.0000 0.0000 0.0000 0.0000 32.1517
#
#
#
# Elastic Compliance Matrix: (Units=1/GPa)
#
#
# Indices 1 2 3 4 5 6 
#
# 1 0.020057 -0.010434 -0.007025 0.000000 0.000000 0.000000
# 2 -0.010434 0.019684 -0.001654 0.000000 0.000000 0.000000
# 3 -0.007025 -0.001654 0.014760 0.000000 0.000000 0.000000
# 4 0.000000 0.000000 0.000000 0.029572 0.000000 0.000000
# 5 0.000000 0.000000 0.000000 0.000000 0.030214 0.000000
# 6 0.000000 0.000000 0.000000 0.000000 0.000000 0.031103
#
#
# Mechanical properties :
#
#
# Convention : Reuss Voigt Hill
#
# Bulk Modulus (GPa) = 61.44350 63.07896 62.26123
# Shear Modulus (GPa) = 26.44947 28.68472 27.56709
#
# Velocity S-wave (km/s) = 3.79449 3.95158 3.87383
# Velocity P-wave (km/s) = 7.25571 7.42684 7.34178
#
# Compressibility (1/GPa) = 0.01627512
#
# Stress axis : x y z
#
# Youngs Moduli (GPa) = 49.85701 50.80374 67.75204
#
# Poissons Ratio (x) = 0.53008 0.47594
# Poissons Ratio (y) = 0.52020 0.11207
# Poissons Ratio (z) = 0.35023 0.08403
#
# Static dielectric constant tensor:
#      x y z
#    x 3.523660 0.000000 0.000000 
#    y 0.000000 3.476660 0.000000 
#    z 0.000000 0.000000 3.276680 
# 
# 
# High freq. dielectric constant tensor:
#      x y z
#    x 1.718460 0.000000 0.000000 
#    y 0.000000 1.724890 0.000000 
#    z 0.000000 0.000000 1.700720 
# 
# From -- ./inp_files/37131.got.cif
#   From: 2010.03.12/outbox.cif.g09.slc.cpg/sg67_19_cif.got.tgz:37131.got - 2010.04.10 22:41:39.
