data_PCOD8280840
_publ_section_title
;
Structure prediction by ZEFSAII (Michael W. Deem and Ramdas Pophale) SiO2 
 PCOD8280840
Probable space group: C M M A
;
_chemical_formula_sum "Si O2"
_cell_formula_units_Z 52
_cell_length_a 19.867551
_cell_length_b 14.266172
_cell_length_c 7.623554
_cell_angle_alpha 90.000000
_cell_angle_beta 90.000000
_cell_angle_gamma 90.000000
_cell_volume 2160.773640
_symmetry_space_group_name_H-M "C M M A"
_symmetry_group_IT_number 67
_symmetry_cell_setting 'orthorhombic'
loop_
_space_group_symop_operation_xyz
x,y,z
-x,1/2-y,z
x,-y,-z
-x,1/2+y,-z
-x,-y,-z
x,1/2+y,-z
-x,y,z
x,1/2-y,z
1/2+x,1/2+y,z
1/2-x,-y,z
1/2+x,1/2-y,-z
1/2-x,y,-z
1/2-x,1/2-y,-z
1/2+x,y,-z
1/2-x,1/2+y,z
1/2+x,-y,z
loop_
_atom_site_type_symbol
_atom_site_label
_atom_site_fract_x
_atom_site_fract_y
_atom_site_fract_z
Si Si1 0.250000 0.000000 0.500000
Si Si2 0.926104 0.139987 0.685110
Si Si3 0.324173 0.143483 0.032125
Si Si4 0.847690 0.355791 0.349327
O O1 0.210077 0.068411 0.372230
O O2 0.929259 0.250000 0.723759
O O3 0.908618 0.119593 0.481391
O O4 0.000000 0.096099 0.722068
O O5 0.868278 0.094375 0.812053
O O6 0.311017 0.250000 0.091661
O O7 0.369218 0.137692 0.854785
O O8 0.250000 0.097327 0.000000
O O9 0.821278 0.250000 0.389348
#
# Coordination Sequence:
#
# PCOD8280840 Si02
#       4
#     4  16  16  16
#     4  12  22  36  60  86 112 150 198 242 290 350
#     4   9  18  34  58  87 118 155 196 235 285 352
#     4   9  17  31  54  82 112 149 193 240 287 335
#     4  10  21  37  57  83 117 152 188 238 294 344
#
# _framework density 24.065456999999999
#
# number of rings (size 3 to 8) (size 9 to 14) (size 15 to 20)
#    0.000    2.462    0.000    2.308    0.000    6.154 
#    0.000   13.846    0.000    1.846    0.000    0.000 
#    0.000    0.000    0.000    0.000    0.000    0.000 
#
# Total GULP energy -322099.724944 kJ/mol
# GULP energy per Si atom -12388.450959 kJ/mol
# Density = 2.401068 g / cm^3
# Si number density = 24.065457 Si / 1000 Ang^3
#
#
#
# Elastic Constant Matrix: (Units=GPa)
#
#
# Indices 1 2 3 4 5 6 
#
# 1 181.6673 2.7363 82.5280 0.0000 0.0000 0.0000
# 2 2.7363 60.5075 -13.0113 0.0000 0.0000 0.0000
# 3 82.5280 -13.0113 171.1809 0.0000 0.0000 0.0000
# 4 0.0000 0.0000 0.0000 -5.4706 0.0000 0.0000
# 5 0.0000 0.0000 0.0000 0.0000 28.5903 0.0000
# 6 0.0000 0.0000 0.0000 0.0000 0.0000 20.5227
#
#
#
# Elastic Compliance Matrix: (Units=1/GPa)
#
#
# Indices 1 2 3 4 5 6 
#
# 1 0.007117 -0.001077 -0.003513 0.000000 0.000000 0.000000
# 2 -0.001077 0.016965 0.001809 0.000000 0.000000 0.000000
# 3 -0.003513 0.001809 0.007673 0.000000 0.000000 0.000000
# 4 0.000000 0.000000 0.000000 -0.182795 0.000000 0.000000
# 5 0.000000 0.000000 0.000000 0.000000 0.034977 0.000000
# 6 0.000000 0.000000 0.000000 0.000000 0.000000 0.048726
#
#
# Mechanical properties :
#
#
# Convention : Reuss Voigt Hill
#
# Bulk Modulus (GPa) = 38.18041 61.98462 50.08251
# Shear Modulus (GPa) = -94.26091 31.46867 -31.39612
#
# Velocity S-wave (km/s) = -6.26527 3.62004 -3.61586
# Velocity P-wave (km/s) = 6.03643 6.57917 1.85028
#
# Compressibility (1/GPa) = 0.02619144
#
# Stress axis : x y z
#
# Youngs Moduli (GPa) = 140.51605 58.94642 130.32967
#
# Poissons Ratio (x) = 0.06350 0.45783
# Poissons Ratio (y) = 0.15137 -0.23574
# Poissons Ratio (z) = 0.49362 -0.10662
#
# Static dielectric constant tensor:
#      x y z
#    x 4.385160 0.000000 0.000000 
#    y 0.000000 4.048210 0.000000 
#    z 0.000000 0.000000 4.447400 
# 
# 
# High freq. dielectric constant tensor:
#      x y z
#    x 1.921890 0.000000 0.000000 
#    y 0.000000 1.928410 0.000000 
#    z 0.000000 0.000000 1.966970 
# 
# From -- ./inp_files/7570.got.cif
#   From: 2010.03.12/outbox.cif.g09.slc.cpg/sg67_4_cif.got.tgz:7570.got - 2010.04.10 22:41:39.
