data_PCOD8280698
_publ_section_title
;
Structure prediction by ZEFSAII (Michael W. Deem and Ramdas Pophale) SiO2 
 PCOD8280698
Probable space group: C M M A
;
_chemical_formula_sum "Si O2"
_cell_formula_units_Z 88
_cell_length_a 25.169250
_cell_length_b 9.011766
_cell_length_c 24.863878
_cell_angle_alpha 90.000000
_cell_angle_beta 90.000000
_cell_angle_gamma 90.000000
_cell_volume 5639.609676
_symmetry_space_group_name_H-M "C M M A"
_symmetry_group_IT_number 67
_symmetry_cell_setting 'orthorhombic'
loop_
_space_group_symop_operation_xyz
x,y,z
-x,1/2-y,z
x,-y,-z
-x,1/2+y,-z
-x,-y,-z
x,1/2+y,-z
-x,y,z
x,1/2-y,z
1/2+x,1/2+y,z
1/2-x,-y,z
1/2+x,1/2-y,-z
1/2-x,y,-z
1/2-x,1/2-y,-z
1/2+x,y,-z
1/2-x,1/2+y,z
1/2+x,-y,z
loop_
_atom_site_type_symbol
_atom_site_label
_atom_site_fract_x
_atom_site_fract_y
_atom_site_fract_z
Si Si1 0.500000 0.427037 0.941894
Si Si2 0.563395 0.084303 0.447782
Si Si3 0.563163 0.585313 0.344915
Si Si4 0.407046 0.422022 0.122556
Si Si5 0.437897 0.923074 0.225600
Si Si6 0.303806 0.923069 0.944789
O O1 0.500000 0.250000 0.947210
O O2 0.447880 0.477666 0.910385
O O3 0.500000 0.500000 0.000000
O O4 0.500000 0.078205 0.447173
O O5 0.584965 0.250000 0.451494
O O6 0.585702 0.000000 0.500000
O O7 0.586508 0.015992 0.392525
O O8 0.500000 0.590525 0.347925
O O9 0.586016 0.750000 0.353764
O O10 0.579544 0.526542 0.285732
O O11 0.424201 0.250000 0.118986
O O12 0.405304 0.475921 0.184182
O O13 0.348463 0.447527 0.099771
O O14 0.500000 0.952380 0.216111
O O15 0.424935 0.750000 0.216822
O O16 0.293439 0.750000 0.955762
O O17 0.250000 0.000000 0.923590
O O18 0.322623 0.000000 0.000000
#
# Coordination Sequence:
#
# PCOD8280698 Si02
#       6
#     8  16  16  16  16  16
#     4  12  24  36  50  68  92 120 147 176 217 264
#     4   9  15  21  30  45  65  92 129 172 217 255
#     4   8  14  24  36  50  71  99 134 173 210 251
#     4  11  22  34  49  71  94 117 146 181 219 262
#     4   9  17  29  44  62  84 115 148 177 215 260
#     4  10  21  36  54  73  91 113 143 178 220 264
#
# _framework density 15.603916999999999
#
# number of rings (size 3 to 8) (size 9 to 14) (size 15 to 20)
#    0.000    2.364    0.909    4.636    0.000    7.273 
#    0.000    1.818    0.000    0.000    0.000    0.000 
#    0.000    0.000    0.000    0.000    0.000    0.909 
#
# Total GULP energy -545484.220040 kJ/mol
# GULP energy per Si atom -12397.368637 kJ/mol
# Density = 1.556840 g / cm^3
# Si number density = 15.603917 Si / 1000 Ang^3
#
#
#
# Elastic Constant Matrix: (Units=GPa)
#
#
# Indices 1 2 3 4 5 6 
#
# 1 44.0262 35.1303 37.3281 0.0000 0.0000 0.0000
# 2 35.1303 124.7831 76.8915 0.0000 0.0000 0.0000
# 3 37.3281 76.8915 148.2298 0.0000 0.0000 0.0000
# 4 0.0000 0.0000 0.0000 33.6115 0.0000 0.0000
# 5 0.0000 0.0000 0.0000 0.0000 9.5145 0.0000
# 6 0.0000 0.0000 0.0000 0.0000 0.0000 15.9752
#
#
#
# Elastic Compliance Matrix: (Units=1/GPa)
#
#
# Indices 1 2 3 4 5 6 
#
# 1 0.031548 -0.005859 -0.004905 0.000000 0.000000 0.000000
# 2 -0.005859 0.012867 -0.005199 0.000000 0.000000 0.000000
# 3 -0.004905 -0.005199 0.010679 0.000000 0.000000 0.000000
# 4 0.000000 0.000000 0.000000 0.029752 0.000000 0.000000
# 5 0.000000 0.000000 0.000000 0.000000 0.105103 0.000000
# 6 0.000000 0.000000 0.000000 0.000000 0.000000 0.062597
#
#
# Mechanical properties :
#
#
# Convention : Reuss Voigt Hill
#
# Bulk Modulus (GPa) = 43.16563 68.41546 55.79054
# Shear Modulus (GPa) = 17.11189 22.99951 20.05570
#
# Velocity S-wave (km/s) = 3.31515 3.84338 3.58900
# Velocity P-wave (km/s) = 6.50976 7.97720 7.28054
#
# Compressibility (1/GPa) = 0.02316658
#
# Stress axis : x y z
#
# Youngs Moduli (GPa) = 31.69780 77.71748 93.64609
#
# Poissons Ratio (x) = 0.45535 0.45936
# Poissons Ratio (y) = 0.18572 0.48688
# Poissons Ratio (z) = 0.15549 0.40406
#
# Static dielectric constant tensor:
#      x y z
#    x 2.493040 0.000000 0.000000 
#    y 0.000000 3.157370 0.000000 
#    z 0.000000 0.000000 3.250270 
# 
# 
# High freq. dielectric constant tensor:
#      x y z
#    x 1.528190 0.000000 0.000000 
#    y 0.000000 1.612810 0.000000 
#    z 0.000000 0.000000 1.611560 
# 
# From -- ./inp_files/42888.got.cif
#   From: 2010.03.12/outbox.cif.g09.slc.cpg/sg67_22_cif.got.tgz:42888.got - 2010.04.10 22:41:39.
