data_PCOD8280817
_publ_section_title
;
Structure prediction by ZEFSAII (Michael W. Deem and Ramdas Pophale) SiO2 
 PCOD8280817
Probable space group: C M M A
;
_chemical_formula_sum "Si O2"
_cell_formula_units_Z 104
_cell_length_a 9.051204
_cell_length_b 27.839470
_cell_length_c 20.709071
_cell_angle_alpha 90.000000
_cell_angle_beta 90.000000
_cell_angle_gamma 90.000000
_cell_volume 5218.286667
_symmetry_space_group_name_H-M "C M M A"
_symmetry_group_IT_number 67
_symmetry_cell_setting 'orthorhombic'
loop_
_space_group_symop_operation_xyz
x,y,z
-x,1/2-y,z
x,-y,-z
-x,1/2+y,-z
-x,-y,-z
x,1/2+y,-z
-x,y,z
x,1/2-y,z
1/2+x,1/2+y,z
1/2-x,-y,z
1/2+x,1/2-y,-z
1/2-x,y,-z
1/2-x,1/2-y,-z
1/2+x,y,-z
1/2-x,1/2+y,z
1/2+x,-y,z
loop_
_atom_site_type_symbol
_atom_site_label
_atom_site_fract_x
_atom_site_fract_y
_atom_site_fract_z
Si Si1 0.324416 0.949533 0.246329
Si Si2 0.665389 0.452771 0.608272
Si Si3 0.835923 0.306349 0.287701
Si Si4 0.324147 0.361870 0.181144
Si Si5 0.750000 0.379450 0.500000
Si Si6 0.841653 0.303379 0.590797
Si Si7 0.326924 0.304964 0.931657
O O1 0.500000 0.951570 0.234953
O O2 0.283378 0.934459 0.320589
O O3 0.249806 0.912846 0.196725
O O4 0.250000 0.000000 0.230457
O O5 0.500000 0.470947 0.614944
O O6 0.750000 0.500000 0.584614
O O7 0.674402 0.411655 0.554612
O O8 0.843199 0.250000 0.277829
O O9 0.716092 0.325942 0.238524
O O10 0.786154 0.319477 0.360017
O O11 0.000000 0.328987 0.276338
O O12 0.500000 0.366746 0.174218
O O13 0.254498 0.341395 0.115878
O O14 0.862230 0.342743 0.534481
O O15 0.805928 0.250000 0.562982
O O16 0.000000 0.301753 0.627095
O O17 0.500000 0.317893 0.936235
O O18 0.306838 0.250000 0.907555
O O19 0.250000 0.312080 0.000000
#
# Coordination Sequence:
#
# PCOD8280817 Si02
#       7
#    16  16  16  16   8  16  16
#     4  10  21  40  62  84 113 147 188 240 296 350
#     4  10  23  40  58  80 106 137 176 226 285 347
#     4  10  21  37  56  79 109 145 187 238 293 345
#     4  12  23  35  58  90 120 154 196 238 285 342
#     4  12  22  34  56  80 106 140 182 226 280 344
#     4  10  22  38  54  75 105 142 185 232 282 341
#     4  10  21  38  60  89 128 170 207 242 281 326
#
# _framework density 19.929912999999999
#
# number of rings (size 3 to 8) (size 9 to 14) (size 15 to 20)
#    0.000    1.538    0.000    5.077    0.000    8.615 
#    0.000    1.538    0.000    0.462    0.000    3.231 
#    0.000    0.000    0.000    0.000    0.000    0.000 
#
# Total GULP energy -644547.869347 kJ/mol
# GULP energy per Si atom -12395.151334 kJ/mol
# Density = 1.988455 g / cm^3
# Si number density = 19.929913 Si / 1000 Ang^3
#
#
#
# Elastic Constant Matrix: (Units=GPa)
#
#
# Indices 1 2 3 4 5 6 
#
# 1 145.7791 59.8911 58.9256 0.0000 0.0000 0.0000
# 2 59.8911 111.6793 77.1950 0.0000 0.0000 0.0000
# 3 58.9256 77.1950 106.4155 0.0000 0.0000 0.0000
# 4 0.0000 0.0000 0.0000 34.8314 0.0000 0.0000
# 5 0.0000 0.0000 0.0000 0.0000 26.2676 0.0000
# 6 0.0000 0.0000 0.0000 0.0000 0.0000 43.3541
#
#
#
# Elastic Compliance Matrix: (Units=1/GPa)
#
#
# Indices 1 2 3 4 5 6 
#
# 1 0.009270 -0.002855 -0.003063 0.000000 0.000000 0.000000
# 2 -0.002855 0.018838 -0.012085 0.000000 0.000000 0.000000
# 3 -0.003063 -0.012085 0.019859 0.000000 0.000000 0.000000
# 4 0.000000 0.000000 0.000000 0.028710 0.000000 0.000000
# 5 0.000000 0.000000 0.000000 0.000000 0.038070 0.000000
# 6 0.000000 0.000000 0.000000 0.000000 0.000000 0.023066
#
#
# Mechanical properties :
#
#
# Convention : Reuss Voigt Hill
#
# Bulk Modulus (GPa) = 83.58292 83.98855 83.78573
# Shear Modulus (GPa) = 28.12060 32.08145 30.10103
#
# Velocity S-wave (km/s) = 3.76037 4.01648 3.89053
# Velocity P-wave (km/s) = 7.80278 7.98391 7.89386
#
# Compressibility (1/GPa) = 0.01196417
#
# Stress axis : x y z
#
# Youngs Moduli (GPa) = 107.87049 53.08312 50.35385
#
# Poissons Ratio (x) = 0.15153 0.15421
# Poissons Ratio (y) = 0.30793 0.60852
# Poissons Ratio (z) = 0.33036 0.64150
#
# Static dielectric constant tensor:
#      x y z
#    x 3.776700 0.000000 0.000000 
#    y 0.000000 3.671380 0.000000 
#    z 0.000000 0.000000 3.514310 
# 
# 
# High freq. dielectric constant tensor:
#      x y z
#    x 1.790170 0.000000 0.000000 
#    y 0.000000 1.781330 0.000000 
#    z 0.000000 0.000000 1.759660 
# 
# From -- ./inp_files/37301.got.cif
#   From: 2010.03.12/outbox.cif.g09.slc.cpg/sg67_19_cif.got.tgz:37301.got - 2010.04.10 22:41:39.
