data_PCOD8280427
_publ_section_title
;
Structure prediction by ZEFSAII (Michael W. Deem and Ramdas Pophale) SiO2 
 PCOD8280427
Probable space group: C M M A
;
_chemical_formula_sum "Si O2"
_cell_formula_units_Z 96
_cell_length_a 14.871322
_cell_length_b 17.001510
_cell_length_c 17.981295
_cell_angle_alpha 90.000000
_cell_angle_beta 90.000000
_cell_angle_gamma 90.000000
_cell_volume 4546.299457
_symmetry_space_group_name_H-M "C M M A"
_symmetry_group_IT_number 67
_symmetry_cell_setting 'orthorhombic'
loop_
_space_group_symop_operation_xyz
x,y,z
-x,1/2-y,z
x,-y,-z
-x,1/2+y,-z
-x,-y,-z
x,1/2+y,-z
-x,y,z
x,1/2-y,z
1/2+x,1/2+y,z
1/2-x,-y,z
1/2+x,1/2-y,-z
1/2-x,y,-z
1/2-x,1/2-y,-z
1/2+x,y,-z
1/2-x,1/2+y,z
1/2+x,-y,z
loop_
_atom_site_type_symbol
_atom_site_label
_atom_site_fract_x
_atom_site_fract_y
_atom_site_fract_z
Si Si1 0.668752 0.944717 0.201054
Si Si2 0.402744 0.658786 0.630123
Si Si3 0.793657 0.344503 0.335914
Si Si4 0.500000 0.381047 0.996803
Si Si5 0.316418 0.662659 0.060648
Si Si6 0.102115 0.586322 0.526120
Si Si7 0.500000 0.012134 0.128356
O O1 0.650697 0.884081 0.268628
O O2 0.692017 0.893573 0.129937
O O3 0.584419 0.000384 0.182855
O O4 0.750000 0.000000 0.224038
O O5 0.500000 0.620436 0.656680
O O6 0.410057 0.750000 0.645083
O O7 0.312166 0.629353 0.671777
O O8 0.391058 0.645200 0.542689
O O9 0.805732 0.250000 0.334405
O O10 0.831924 0.379909 0.411783
O O11 0.500000 0.403986 0.085164
O O12 0.413363 0.329874 0.977602
O O13 0.500000 0.453576 0.940549
O O14 0.285745 0.750000 0.084865
O O15 0.250000 0.625667 0.000000
O O16 0.134189 0.500000 0.500000
O O17 0.000000 0.582208 0.557251
#
# Coordination Sequence:
#
# PCOD8280427 Si02
#       7
#    16  16  16   8  16  16   8
#     4  11  24  40  59  89 125 171 206 259 315 374
#     4   9  19  38  61  84 113 156 207 261 319 380
#     4  11  24  40  61  90 125 165 212 262 321 385
#     4   9  17  34  62  88 119 157 200 254 303 367
#     4  10  20  36  62  91 123 161 208 259 307 365
#     4  10  22  38  61  90 121 158 202 261 317 385
#     4   9  20  38  58  88 121 156 207 250 306 368
#
# _framework density 21.116074000000001
#
# number of rings (size 3 to 8) (size 9 to 14) (size 15 to 20)
#    0.000    2.000    0.000    2.750    3.500    4.667 
#    1.500    0.833    0.000    0.000    0.000    0.000 
#    0.000    0.000    0.000    0.000    0.000    0.000 
#
# Total GULP energy -594886.751401 kJ/mol
# GULP energy per Si atom -12393.473988 kJ/mol
# Density = 2.106801 g / cm^3
# Si number density = 21.116074 Si / 1000 Ang^3
#
#
#
# Elastic Constant Matrix: (Units=GPa)
#
#
# Indices 1 2 3 4 5 6 
#
# 1 87.9520 17.0211 22.9474 0.0000 0.0000 0.0000
# 2 17.0211 66.6370 25.7986 0.0000 0.0000 0.0000
# 3 22.9474 25.7986 72.0198 0.0000 0.0000 0.0000
# 4 0.0000 0.0000 0.0000 35.2070 0.0000 0.0000
# 5 0.0000 0.0000 0.0000 0.0000 28.7557 0.0000
# 6 0.0000 0.0000 0.0000 0.0000 0.0000 24.9856
#
#
#
# Elastic Compliance Matrix: (Units=1/GPa)
#
#
# Indices 1 2 3 4 5 6 
#
# 1 0.012612 -0.001934 -0.003326 0.000000 0.000000 0.000000
# 2 -0.001934 0.017719 -0.005731 0.000000 0.000000 0.000000
# 3 -0.003326 -0.005731 0.016998 0.000000 0.000000 0.000000
# 4 0.000000 0.000000 0.000000 0.028403 0.000000 0.000000
# 5 0.000000 0.000000 0.000000 0.000000 0.034776 0.000000
# 6 0.000000 0.000000 0.000000 0.000000 0.000000 0.040023
#
#
# Mechanical properties :
#
#
# Convention : Reuss Voigt Hill
#
# Bulk Modulus (GPa) = 39.45174 39.79368 39.62271
# Shear Modulus (GPa) = 27.63013 28.51246 28.07129
#
# Velocity S-wave (km/s) = 3.62123 3.67859 3.65002
# Velocity P-wave (km/s) = 6.01733 6.07691 6.04719
#
# Compressibility (1/GPa) = 0.02534743
#
# Stress axis : x y z
#
# Youngs Moduli (GPa) = 79.29087 56.43501 58.83135
#
# Poissons Ratio (x) = 0.10914 0.19566
# Poissons Ratio (y) = 0.15334 0.33718
# Poissons Ratio (z) = 0.26370 0.32344
#
# Static dielectric constant tensor:
#      x y z
#    x 4.343170 0.000000 0.000000 
#    y 0.000000 3.707170 0.000000 
#    z 0.000000 0.000000 3.668900 
# 
# 
# High freq. dielectric constant tensor:
#      x y z
#    x 1.840420 0.000000 0.000000 
#    y 0.000000 1.823440 0.000000 
#    z 0.000000 0.000000 1.812720 
# 
# From -- ./inp_files/27279.got.cif
#   From: 2010.03.12/outbox.cif.g09.slc.cpg/sg67_14_cif.got.tgz:27279.got - 2010.04.10 22:41:39.
