data_PCOD8280680
_publ_section_title
;
Structure prediction by ZEFSAII (Michael W. Deem and Ramdas Pophale) SiO2 
 PCOD8280680
Probable space group: C M M A
;
_chemical_formula_sum "Si O2"
_cell_formula_units_Z 64
_cell_length_a 12.711196
_cell_length_b 26.783101
_cell_length_c 9.025244
_cell_angle_alpha 90.000000
_cell_angle_beta 90.000000
_cell_angle_gamma 90.000000
_cell_volume 3072.601416
_symmetry_space_group_name_H-M "C M M A"
_symmetry_group_IT_number 67
_symmetry_cell_setting 'orthorhombic'
loop_
_space_group_symop_operation_xyz
x,y,z
-x,1/2-y,z
x,-y,-z
-x,1/2+y,-z
-x,-y,-z
x,1/2+y,-z
-x,y,z
x,1/2-y,z
1/2+x,1/2+y,z
1/2-x,-y,z
1/2+x,1/2-y,-z
1/2-x,y,-z
1/2-x,1/2-y,-z
1/2+x,y,-z
1/2-x,1/2+y,z
1/2+x,-y,z
loop_
_atom_site_type_symbol
_atom_site_label
_atom_site_fract_x
_atom_site_fract_y
_atom_site_fract_z
Si Si1 0.500000 0.057715 0.791021
Si Si2 0.175281 0.627706 0.125811
Si Si3 0.500000 0.557775 0.860944
Si Si4 0.500000 0.691183 0.364960
Si Si5 0.325507 0.879990 0.372491
Si Si6 0.500000 0.808591 0.019091
O O1 0.396104 0.076274 0.703278
O O2 0.500000 0.998023 0.803940
O O3 0.500000 0.073964 0.963160
O O4 0.105392 0.583608 0.199367
O O5 0.250929 0.647765 0.254096
O O6 0.104746 0.672388 0.061998
O O7 0.250000 0.604161 0.000000
O O8 0.500000 0.750000 0.394979
O O9 0.601764 0.664733 0.437538
O O10 0.500000 0.674955 0.191230
O O11 0.250000 0.902773 0.500000
O O12 0.500000 0.750000 0.007276
#
# Coordination Sequence:
#
# PCOD8280680 Si02
#       6
#     8  16   8   8  16   8
#     4  10  21  41  59  92 119 155 207 255 313 360
#     4  11  19  38  61  89 119 160 211 247 307 366
#     4  10  21  37  65  90 119 149 208 270 294 358
#     4  10  21  39  61  90 124 164 211 257 307 363
#     4  11  23  40  62  88 127 169 198 252 318 376
#     4  10  21  35  61  96 126 155 208 271 302 354
#
# _framework density 20.829256999999998
#
# number of rings (size 3 to 8) (size 9 to 14) (size 15 to 20)
#    0.000    1.500    5.000    1.500    0.000    7.000 
#    0.000    5.000    0.000    0.000    0.000    0.000 
#    0.000    0.000    0.000    0.000    0.000    0.000 
#
# Total GULP energy -396579.458133 kJ/mol
# GULP energy per Si atom -12393.108067 kJ/mol
# Density = 2.078185 g / cm^3
# Si number density = 20.829257 Si / 1000 Ang^3
#
#
#
# Elastic Constant Matrix: (Units=GPa)
#
#
# Indices 1 2 3 4 5 6 
#
# 1 152.2926 43.5567 47.2123 0.0000 0.0000 0.0000
# 2 43.5567 66.1310 25.3524 0.0000 0.0000 0.0000
# 3 47.2123 25.3524 67.6947 0.0000 0.0000 0.0000
# 4 0.0000 0.0000 0.0000 22.7331 0.0000 0.0000
# 5 0.0000 0.0000 0.0000 0.0000 34.8909 0.0000
# 6 0.0000 0.0000 0.0000 0.0000 0.0000 9.7622
#
#
#
# Elastic Compliance Matrix: (Units=1/GPa)
#
#
# Indices 1 2 3 4 5 6 
#
# 1 0.009299 -0.004248 -0.004894 0.000000 0.000000 0.000000
# 2 -0.004248 0.019597 -0.004377 0.000000 0.000000 0.000000
# 3 -0.004894 -0.004377 0.019825 0.000000 0.000000 0.000000
# 4 0.000000 0.000000 0.000000 0.043989 0.000000 0.000000
# 5 0.000000 0.000000 0.000000 0.000000 0.028661 0.000000
# 6 0.000000 0.000000 0.000000 0.000000 0.000000 0.102435
#
#
# Mechanical properties :
#
#
# Convention : Reuss Voigt Hill
#
# Bulk Modulus (GPa) = 46.11973 57.59569 51.85771
# Shear Modulus (GPa) = 19.37453 24.81037 22.09245
#
# Velocity S-wave (km/s) = 3.05316 3.45502 3.26029
# Velocity P-wave (km/s) = 5.88378 6.60512 6.25486
#
# Compressibility (1/GPa) = 0.02168270
#
# Stress axis : x y z
#
# Youngs Moduli (GPa) = 107.54390 51.02724 50.44245
#
# Poissons Ratio (x) = 0.21677 0.24687
# Poissons Ratio (y) = 0.45687 0.22077
# Poissons Ratio (z) = 0.52633 0.22333
#
# Static dielectric constant tensor:
#      x y z
#    x 4.165510 0.000000 0.000000 
#    y 0.000000 3.432390 0.000000 
#    z 0.000000 0.000000 3.731670 
# 
# 
# High freq. dielectric constant tensor:
#      x y z
#    x 1.843350 0.000000 0.000000 
#    y 0.000000 1.792700 0.000000 
#    z 0.000000 0.000000 1.797400 
# 
# From -- ./inp_files/6775.got.cif
#   From: 2010.03.12/outbox.cif.g09.slc.cpg/sg67_4_cif.got.tgz:6775.got - 2010.04.10 22:41:39.
