data_PCOD8280436
_publ_section_title
;
Structure prediction by ZEFSAII (Michael W. Deem and Ramdas Pophale) SiO2 
 PCOD8280436
Probable space group: C M M A
;
_chemical_formula_sum "Si O2"
_cell_formula_units_Z 112
_cell_length_a 14.732698
_cell_length_b 30.211018
_cell_length_c 11.739717
_cell_angle_alpha 90.000000
_cell_angle_beta 90.000000
_cell_angle_gamma 90.000000
_cell_volume 5225.228344
_symmetry_space_group_name_H-M "C M M A"
_symmetry_group_IT_number 67
_symmetry_cell_setting 'orthorhombic'
loop_
_space_group_symop_operation_xyz
x,y,z
-x,1/2-y,z
x,-y,-z
-x,1/2+y,-z
-x,-y,-z
x,1/2+y,-z
-x,y,z
x,1/2-y,z
1/2+x,1/2+y,z
1/2-x,-y,z
1/2+x,1/2-y,-z
1/2-x,y,-z
1/2-x,1/2-y,-z
1/2+x,y,-z
1/2-x,1/2+y,z
1/2+x,-y,z
loop_
_atom_site_type_symbol
_atom_site_label
_atom_site_fract_x
_atom_site_fract_y
_atom_site_fract_z
Si Si1 0.599378 0.561953 0.294565
Si Si2 0.777554 0.326732 0.836823
Si Si3 0.103189 0.199923 0.036875
Si Si4 0.762782 0.074886 0.868354
Si Si5 0.643811 0.110022 0.483051
Si Si6 0.328950 0.201645 0.409932
Si Si7 0.602622 0.036597 0.295512
O O1 0.500000 0.563414 0.238465
O O2 0.666897 0.574785 0.194886
O O3 0.599525 0.596743 0.398006
O O4 0.618892 0.512765 0.345305
O O5 0.672332 0.324914 0.878133
O O6 0.808313 0.377478 0.848186
O O7 0.782131 0.308155 0.710675
O O8 0.850415 0.300003 0.912268
O O9 0.095992 0.250000 0.079083
O O10 0.000000 0.179446 0.036142
O O11 0.831924 0.039853 0.813733
O O12 0.750000 0.062984 0.000000
O O13 0.750000 0.113762 0.500000
O O14 0.607775 0.159059 0.443404
O O15 0.624430 0.072988 0.389756
O O16 0.380286 0.250000 0.405369
O O17 0.250000 0.206436 0.500000
O O18 0.500000 0.042991 0.253520
#
# Coordination Sequence:
#
# PCOD8280436 Si02
#       7
#    16  16  16  16  16  16  16
#     4  11  25  43  66  96 128 168 215 271 331 390
#     4  11  20  41  62  90 129 173 214 263 322 380
#     4  10  21  37  63  96 124 162 221 277 321 373
#     4  12  24  42  64  94 131 173 217 266 324 387
#     4  11  20  39  67  97 128 166 213 264 326 383
#     4  10  20  36  63  95 129 169 210 253 314 388
#     4  11  24  42  66  95 128 168 217 271 328 388
#
# _framework density 21.434470000000001
#
# number of rings (size 3 to 8) (size 9 to 14) (size 15 to 20)
#    0.000    1.143    4.286    3.857    0.000    4.571 
#    0.000    1.429    0.000    3.429    0.000    8.000 
#    0.000    0.000    0.000    0.000    0.000    0.000 
#
# Total GULP energy -694085.194972 kJ/mol
# GULP energy per Si atom -12394.378482 kJ/mol
# Density = 2.138568 g / cm^3
# Si number density = 21.434470 Si / 1000 Ang^3
#
#
#
# Elastic Constant Matrix: (Units=GPa)
#
#
# Indices 1 2 3 4 5 6 
#
# 1 106.2950 27.4519 38.6802 0.0000 0.0000 0.0000
# 2 27.4519 131.1785 43.7564 0.0000 0.0000 0.0000
# 3 38.6802 43.7564 153.7138 0.0000 0.0000 0.0000
# 4 0.0000 0.0000 0.0000 29.5093 0.0000 0.0000
# 5 0.0000 0.0000 0.0000 0.0000 0.8003 0.0000
# 6 0.0000 0.0000 0.0000 0.0000 0.0000 -6.2351
#
#
#
# Elastic Compliance Matrix: (Units=1/GPa)
#
#
# Indices 1 2 3 4 5 6 
#
# 1 0.010606 -0.001469 -0.002251 0.000000 0.000000 0.000000
# 2 -0.001469 0.008626 -0.002086 0.000000 0.000000 0.000000
# 3 -0.002251 -0.002086 0.007666 0.000000 0.000000 0.000000
# 4 0.000000 0.000000 0.000000 0.033888 0.000000 0.000000
# 5 0.000000 0.000000 0.000000 0.000000 1.249507 0.000000
# 6 0.000000 0.000000 0.000000 0.000000 0.000000 -0.160381
#
#
# Mechanical properties :
#
#
# Convention : Reuss Voigt Hill
#
# Bulk Modulus (GPa) = 65.41435 67.88494 66.64964
# Shear Modulus (GPa) = 4.28589 23.56816 13.92702
#
# Velocity S-wave (km/s) = 1.41558 3.31954 2.55178
# Velocity P-wave (km/s) = 5.76683 6.81411 6.31223
#
# Compressibility (1/GPa) = 0.01528717
#
# Stress axis : x y z
#
# Youngs Moduli (GPa) = 94.28482 115.92343 130.44969
#
# Poissons Ratio (x) = 0.17027 0.29362
# Poissons Ratio (y) = 0.13848 0.27212
# Poissons Ratio (z) = 0.21222 0.24182
#
# Static dielectric constant tensor:
#      x y z
#    x 3.863880 0.000000 0.000000 
#    y 0.000000 4.732780 0.000000 
#    z 0.000000 0.000000 3.813010 
# 
# 
# High freq. dielectric constant tensor:
#      x y z
#    x 1.825660 0.000000 0.000000 
#    y 0.000000 1.861130 0.000000 
#    z 0.000000 0.000000 1.835180 
# 
# From -- ./inp_files/18658.got.cif
#   From: 2010.03.12/outbox.cif.g09.slc.cpg/sg67_10_cif.got.tgz:18658.got - 2010.04.10 22:41:39.
