data_PCOD8280749
_publ_section_title
;
Structure prediction by ZEFSAII (Michael W. Deem and Ramdas Pophale) SiO2 
 PCOD8280749
Probable space group: C M M A
;
_chemical_formula_sum "Si O2"
_cell_formula_units_Z 64
_cell_length_a 8.620281
_cell_length_b 39.368742
_cell_length_c 10.075911
_cell_angle_alpha 90.000000
_cell_angle_beta 90.000000
_cell_angle_gamma 90.000000
_cell_volume 3419.458074
_symmetry_space_group_name_H-M "C M M A"
_symmetry_group_IT_number 67
_symmetry_cell_setting 'orthorhombic'
loop_
_space_group_symop_operation_xyz
x,y,z
-x,1/2-y,z
x,-y,-z
-x,1/2+y,-z
-x,-y,-z
x,1/2+y,-z
-x,y,z
x,1/2-y,z
1/2+x,1/2+y,z
1/2-x,-y,z
1/2+x,1/2-y,-z
1/2-x,y,-z
1/2-x,1/2-y,-z
1/2+x,y,-z
1/2-x,1/2+y,z
1/2+x,-y,z
loop_
_atom_site_type_symbol
_atom_site_label
_atom_site_fract_x
_atom_site_fract_y
_atom_site_fract_z
Si Si1 0.320942 0.289887 0.139663
Si Si2 0.182651 0.663164 0.641563
Si Si3 0.683541 0.963641 0.858666
Si Si4 0.816556 0.409079 0.642113
O O1 0.500000 0.300786 0.144895
O O2 0.299551 0.250000 0.161147
O O3 0.225716 0.308077 0.254249
O O4 0.250000 0.301512 0.000000
O O5 0.250000 0.674284 0.500000
O O6 0.251855 0.627236 0.688091
O O7 0.000000 0.659581 0.629027
O O8 0.500000 0.966209 0.869300
O O9 0.737782 0.936607 0.749426
O O10 0.750000 0.000000 0.815845
O O11 0.750000 0.951824 0.000000
O O12 0.750000 0.420117 0.500000
O O13 0.000000 0.406715 0.631629
#
# Coordination Sequence:
#
# PCOD8280749 Si02
#       4
#    16  16  16  16
#     4  10  21  38  59  83 112 145 182 225 272 324
#     4  11  22  37  58  82 111 146 183 227 274 323
#     4  10  21  36  56  80 108 141 178 221 267 319
#     4  10  21  37  56  80 109 142 181 224 270 322
#
# _framework density 18.716414
#
# number of rings (size 3 to 8) (size 9 to 14) (size 15 to 20)
#    0.000    1.750    0.000    6.750    0.000    7.500 
#    0.000    5.000    0.000    0.000    0.000    0.000 
#    0.000    0.000    0.000    0.000    0.000    0.000 
#
# Total GULP energy -396948.765130 kJ/mol
# GULP energy per Si atom -12404.648910 kJ/mol
# Density = 1.867381 g / cm^3
# Si number density = 18.716414 Si / 1000 Ang^3
#
#
#
# Elastic Constant Matrix: (Units=GPa)
#
#
# Indices 1 2 3 4 5 6 
#
# 1 101.2786 37.7013 47.1124 0.0000 0.0000 0.0000
# 2 37.7013 78.0463 75.2651 0.0000 0.0000 0.0000
# 3 47.1124 75.2651 125.8999 0.0000 0.0000 0.0000
# 4 0.0000 0.0000 0.0000 41.5944 0.0000 0.0000
# 5 0.0000 0.0000 0.0000 0.0000 33.0001 0.0000
# 6 0.0000 0.0000 0.0000 0.0000 0.0000 27.1028
#
#
#
# Elastic Compliance Matrix: (Units=1/GPa)
#
#
# Indices 1 2 3 4 5 6 
#
# 1 0.012361 -0.003567 -0.002493 0.000000 0.000000 0.000000
# 2 -0.003567 0.031285 -0.017368 0.000000 0.000000 0.000000
# 3 -0.002493 -0.017368 0.019259 0.000000 0.000000 0.000000
# 4 0.000000 0.000000 0.000000 0.024042 0.000000 0.000000
# 5 0.000000 0.000000 0.000000 0.000000 0.030303 0.000000
# 6 0.000000 0.000000 0.000000 0.000000 0.000000 0.036897
#
#
# Mechanical properties :
#
#
# Convention : Reuss Voigt Hill
#
# Bulk Modulus (GPa) = 62.31014 69.48690 65.89852
# Shear Modulus (GPa) = 24.23044 30.01586 27.12315
#
# Velocity S-wave (km/s) = 3.60197 4.00899 3.81092
# Velocity P-wave (km/s) = 7.11779 7.65742 7.39253
#
# Compressibility (1/GPa) = 0.01604875
#
# Stress axis : x y z
#
# Youngs Moduli (GPa) = 80.89719 31.96430 51.92454
#
# Poissons Ratio (x) = 0.11401 0.12947
# Poissons Ratio (y) = 0.28854 0.90182
# Poissons Ratio (z) = 0.20171 0.55515
#
# Static dielectric constant tensor:
#      x y z
#    x 3.602040 0.000000 0.000000 
#    y 0.000000 3.456520 0.000000 
#    z 0.000000 0.000000 3.538420 
# 
# 
# High freq. dielectric constant tensor:
#      x y z
#    x 1.748130 0.000000 0.000000 
#    y 0.000000 1.726720 0.000000 
#    z 0.000000 0.000000 1.733660 
# 
# From -- ./inp_files/15795.got.cif
#   From: 2010.03.12/outbox.cif.g09.slc.cpg/sg67_8_cif.got.tgz:15795.got - 2010.04.10 22:41:39.
