data_PCOD8280951
_publ_section_title
;
Structure prediction by ZEFSAII (Michael W. Deem and Ramdas Pophale) SiO2 
 PCOD8280951
Probable space group: C M M A
;
_chemical_formula_sum "Si O2"
_cell_formula_units_Z 96
_cell_length_a 8.675869
_cell_length_b 18.504361
_cell_length_c 30.517907
_cell_angle_alpha 90.000000
_cell_angle_beta 90.000000
_cell_angle_gamma 90.000000
_cell_volume 4899.387880
_symmetry_space_group_name_H-M "C M M A"
_symmetry_group_IT_number 67
_symmetry_cell_setting 'orthorhombic'
loop_
_space_group_symop_operation_xyz
x,y,z
-x,1/2-y,z
x,-y,-z
-x,1/2+y,-z
-x,-y,-z
x,1/2+y,-z
-x,y,z
x,1/2-y,z
1/2+x,1/2+y,z
1/2-x,-y,z
1/2+x,1/2-y,-z
1/2-x,y,-z
1/2-x,1/2-y,-z
1/2+x,y,-z
1/2-x,1/2+y,z
1/2+x,-y,z
loop_
_atom_site_type_symbol
_atom_site_label
_atom_site_fract_x
_atom_site_fract_y
_atom_site_fract_z
Si Si1 0.318563 0.167123 0.787119
Si Si2 0.674884 0.164710 0.121718
Si Si3 0.680917 0.077250 0.954311
Si Si4 0.681737 0.921097 0.707688
Si Si5 0.321717 0.333623 0.378759
Si Si6 0.680976 0.423838 0.546613
O O1 0.500000 0.158931 0.792705
O O2 0.271730 0.250000 0.776993
O O3 0.238979 0.139227 0.831464
O O4 0.260109 0.116494 0.748748
O O5 0.500000 0.136976 0.116673
O O6 0.685648 0.250000 0.117793
O O7 0.780433 0.133046 0.083717
O O8 0.500000 0.069747 0.959871
O O9 0.750000 0.000000 0.941620
O O10 0.750000 0.106162 0.000000
O O11 0.500000 0.924993 0.715371
O O12 0.725420 0.875176 0.665080
O O13 0.750000 0.000000 0.701033
O O14 0.500000 0.346278 0.390408
O O15 0.283692 0.250000 0.371258
O O16 0.219459 0.361999 0.418680
O O17 0.500000 0.432723 0.541632
O O18 0.750000 0.500000 0.562878
O O19 0.750000 0.400673 0.500000
#
# Coordination Sequence:
#
# PCOD8280951 Si02
#       6
#    16  16  16  16  16  16
#     4  10  21  38  60  86 116 149 187 233 284 338
#     4  10  21  38  60  86 116 150 189 233 283 339
#     4  11  22  38  59  83 114 150 191 236 285 339
#     4  11  23  39  60  86 116 151 191 235 284 337
#     4  10  22  40  61  86 117 152 191 236 286 340
#     4  11  22  38  61  87 117 153 193 237 286 339
#
# _framework density 19.594283999999998
#
# number of rings (size 3 to 8) (size 9 to 14) (size 15 to 20)
#    0.000    1.500    0.000    6.500    0.000    7.000 
#    0.000    3.333    0.000    0.000    0.000    0.000 
#    0.000    0.000    0.000    0.000    0.000    0.000 
#
# Total GULP energy -595498.256361 kJ/mol
# GULP energy per Si atom -12406.213674 kJ/mol
# Density = 1.954969 g / cm^3
# Si number density = 19.594284 Si / 1000 Ang^3
#
#
#
# Elastic Constant Matrix: (Units=GPa)
#
#
# Indices 1 2 3 4 5 6 
#
# 1 132.2587 45.0537 53.9452 0.0000 0.0000 0.0000
# 2 45.0537 97.7426 67.4015 0.0000 0.0000 0.0000
# 3 53.9452 67.4015 131.9888 0.0000 0.0000 0.0000
# 4 0.0000 0.0000 0.0000 42.8965 0.0000 0.0000
# 5 0.0000 0.0000 0.0000 0.0000 36.9698 0.0000
# 6 0.0000 0.0000 0.0000 0.0000 0.0000 24.9432
#
#
#
# Elastic Compliance Matrix: (Units=1/GPa)
#
#
# Indices 1 2 3 4 5 6 
#
# 1 0.009490 -0.002624 -0.002539 0.000000 0.000000 0.000000
# 2 -0.002624 0.016517 -0.007362 0.000000 0.000000 0.000000
# 3 -0.002539 -0.007362 0.012374 0.000000 0.000000 0.000000
# 4 0.000000 0.000000 0.000000 0.023312 0.000000 0.000000
# 5 0.000000 0.000000 0.000000 0.000000 0.027049 0.000000
# 6 0.000000 0.000000 0.000000 0.000000 0.000000 0.040091
#
#
# Mechanical properties :
#
#
# Convention : Reuss Voigt Hill
#
# Bulk Modulus (GPa) = 75.01153 77.19901 76.10527
# Shear Modulus (GPa) = 31.58014 34.00121 32.79067
#
# Velocity S-wave (km/s) = 4.01896 4.17017 4.09526
# Velocity P-wave (km/s) = 7.73960 7.91652 7.82856
#
# Compressibility (1/GPa) = 0.01333128
#
# Stress axis : x y z
#
# Youngs Moduli (GPa) = 105.37113 60.54262 80.81585
#
# Poissons Ratio (x) = 0.15884 0.20519
# Poissons Ratio (y) = 0.27645 0.59500
# Poissons Ratio (z) = 0.26754 0.44574
#
# Static dielectric constant tensor:
#      x y z
#    x 3.718640 0.000000 0.000000 
#    y 0.000000 3.526170 0.000000 
#    z 0.000000 0.000000 3.655740 
# 
# 
# High freq. dielectric constant tensor:
#      x y z
#    x 1.778420 0.000000 0.000000 
#    y 0.000000 1.761460 0.000000 
#    z 0.000000 0.000000 1.776580 
# 
# From -- ./inp_files/43519.got.cif
#   From: 2010.03.12/outbox.cif.g09.slc.cpg/sg67_22_cif.got.tgz:43519.got - 2010.04.10 22:41:39.
