data_PCOD8280526
_publ_section_title
;
Structure prediction by ZEFSAII (Michael W. Deem and Ramdas Pophale) SiO2 
 PCOD8280526
Probable space group: C M M A
;
_chemical_formula_sum "Si O2"
_cell_formula_units_Z 96
_cell_length_a 20.645492
_cell_length_b 28.275120
_cell_length_c 8.192263
_cell_angle_alpha 90.000000
_cell_angle_beta 90.000000
_cell_angle_gamma 90.000000
_cell_volume 4782.264360
_symmetry_space_group_name_H-M "C M M A"
_symmetry_group_IT_number 67
_symmetry_cell_setting 'orthorhombic'
loop_
_space_group_symop_operation_xyz
x,y,z
-x,1/2-y,z
x,-y,-z
-x,1/2+y,-z
-x,-y,-z
x,1/2+y,-z
-x,y,z
x,1/2-y,z
1/2+x,1/2+y,z
1/2-x,-y,z
1/2+x,1/2-y,-z
1/2-x,y,-z
1/2-x,1/2-y,-z
1/2+x,y,-z
1/2-x,1/2+y,z
1/2+x,-y,z
loop_
_atom_site_type_symbol
_atom_site_label
_atom_site_fract_x
_atom_site_fract_y
_atom_site_fract_z
Si Si1 0.571743 0.518511 0.673534
Si Si2 0.574449 0.695015 0.876989
Si Si3 0.809531 0.977066 0.824520
Si Si4 0.926975 0.876596 0.406891
Si Si5 0.311357 0.803967 0.113996
Si Si6 0.693944 0.382751 0.635371
O O1 0.596409 0.500000 0.500000
O O2 0.500000 0.499249 0.707992
O O3 0.618428 0.494340 0.798773
O O4 0.575191 0.574772 0.694008
O O5 0.500000 0.685258 0.931039
O O6 0.585399 0.750000 0.833769
O O7 0.592159 0.665726 0.714672
O O8 0.622840 0.679318 0.021844
O O9 0.804895 0.921210 0.783341
O O10 0.750000 0.000000 0.717859
O O11 0.796759 0.000000 0.000000
O O12 0.876644 0.881338 0.553609
O O13 0.000000 0.868806 0.477085
O O14 0.319093 0.750000 0.168919
O O15 0.297392 0.832553 0.278510
O O16 0.250000 0.811366 0.000000
O O17 0.750000 0.391205 0.500000
#
# Coordination Sequence:
#
# PCOD8280526 Si02
#       6
#    16  16  16  16  16  16
#     4  10  20  38  60  83 118 158 195 236 292 355
#     4   9  19  38  63  89 120 160 203 248 300 357
#     4  11  26  40  58  88 118 155 199 246 293 354
#     4  10  21  37  60  89 118 156 200 244 296 355
#     4  10  23  41  62  87 119 158 201 249 302 361
#     4  12  25  39  62  90 121 158 200 251 305 358
#
# _framework density 20.074172999999998
#
# number of rings (size 3 to 8) (size 9 to 14) (size 15 to 20)
#    0.000    1.667    1.667    2.000    4.667    2.000 
#    0.000    0.000    0.000    0.000    0.000    0.000 
#    0.000    0.000    0.000    0.000    0.000    0.000 
#
# Total GULP energy -594668.761564 kJ/mol
# GULP energy per Si atom -12388.932533 kJ/mol
# Density = 2.002848 g / cm^3
# Si number density = 20.074173 Si / 1000 Ang^3
#
#
#
# Elastic Constant Matrix: (Units=GPa)
#
#
# Indices 1 2 3 4 5 6 
#
# 1 108.3679 41.3350 53.0446 0.0000 0.0000 0.0000
# 2 41.3350 100.2681 54.7091 0.0000 0.0000 0.0000
# 3 53.0446 54.7091 85.8807 0.0000 0.0000 0.0000
# 4 0.0000 0.0000 0.0000 38.3997 0.0000 0.0000
# 5 0.0000 0.0000 0.0000 0.0000 22.7116 0.0000
# 6 0.0000 0.0000 0.0000 0.0000 0.0000 30.5578
#
#
#
# Elastic Compliance Matrix: (Units=1/GPa)
#
#
# Indices 1 2 3 4 5 6 
#
# 1 0.013381 -0.001543 -0.007282 0.000000 0.000000 0.000000
# 2 -0.001543 0.015465 -0.008898 0.000000 0.000000 0.000000
# 3 -0.007282 -0.008898 0.021810 0.000000 0.000000 0.000000
# 4 0.000000 0.000000 0.000000 0.026042 0.000000 0.000000
# 5 0.000000 0.000000 0.000000 0.000000 0.044030 0.000000
# 6 0.000000 0.000000 0.000000 0.000000 0.000000 0.032725
#
#
# Mechanical properties :
#
#
# Convention : Reuss Voigt Hill
#
# Bulk Modulus (GPa) = 65.74954 65.85489 65.80221
# Shear Modulus (GPa) = 25.77735 28.02901 26.90318
#
# Velocity S-wave (km/s) = 3.58733 3.74073 3.66483
# Velocity P-wave (km/s) = 7.06986 7.17874 7.12451
#
# Compressibility (1/GPa) = 0.01520923
#
# Stress axis : x y z
#
# Youngs Moduli (GPa) = 74.73479 64.66369 45.84998
#
# Poissons Ratio (x) = 0.09978 0.33386
# Poissons Ratio (y) = 0.11532 0.40799
# Poissons Ratio (z) = 0.54419 0.57541
#
# Static dielectric constant tensor:
#      x y z
#    x 4.040750 0.000000 0.000000 
#    y 0.000000 3.805920 0.000000 
#    z 0.000000 0.000000 3.252200 
# 
# 
# High freq. dielectric constant tensor:
#      x y z
#    x 1.815250 0.000000 0.000000 
#    y 0.000000 1.789480 0.000000 
#    z 0.000000 0.000000 1.753340 
# 
# From -- ./inp_files/11469.got.cif
#   From: 2010.03.12/outbox.cif.g09.slc.cpg/sg67_6_cif.got.tgz:11469.got - 2010.04.10 22:41:39.
