data_PCOD8280917
_publ_section_title
;
Structure prediction by ZEFSAII (Michael W. Deem and Ramdas Pophale) SiO2 
 PCOD8280917
Probable space group: C M M A
;
_chemical_formula_sum "Si O2"
_cell_formula_units_Z 80
_cell_length_a 19.189661
_cell_length_b 8.728458
_cell_length_c 25.654971
_cell_angle_alpha 90.000000
_cell_angle_beta 90.000000
_cell_angle_gamma 90.000000
_cell_volume 4297.108873
_symmetry_space_group_name_H-M "C M M A"
_symmetry_group_IT_number 67
_symmetry_cell_setting 'orthorhombic'
loop_
_space_group_symop_operation_xyz
x,y,z
-x,1/2-y,z
x,-y,-z
-x,1/2+y,-z
-x,-y,-z
x,1/2+y,-z
-x,y,z
x,1/2-y,z
1/2+x,1/2+y,z
1/2-x,-y,z
1/2+x,1/2-y,-z
1/2-x,y,-z
1/2-x,1/2-y,-z
1/2+x,y,-z
1/2-x,1/2+y,z
1/2+x,-y,z
loop_
_atom_site_type_symbol
_atom_site_label
_atom_site_fract_x
_atom_site_fract_y
_atom_site_fract_z
Si Si1 0.417914 0.426532 0.054229
Si Si2 0.823953 0.568542 0.859230
Si Si3 0.677081 0.070131 0.251347
Si Si4 0.078458 0.429358 0.449376
Si Si5 0.417376 0.074007 0.665028
O O1 0.500000 0.444325 0.061584
O O2 0.394537 0.250000 0.055518
O O3 0.382715 0.519568 0.100465
O O4 0.393205 0.500000 0.000000
O O5 0.818211 0.750000 0.856831
O O6 0.750000 0.500000 0.876961
O O7 0.846116 0.505605 0.802870
O O8 0.685765 0.250000 0.242830
O O9 0.750000 0.000000 0.270848
O O10 0.618274 0.037973 0.293952
O O11 0.118571 0.500000 0.500000
O O12 0.078316 0.250000 0.456415
O O13 0.111310 0.470908 0.392931
O O14 0.000000 0.494992 0.448949
O O15 0.500000 0.050697 0.667787
O O16 0.398225 0.250000 0.677762
#
# Coordination Sequence:
#
# PCOD8280917 Si02
#       5
#    16  16  16  16  16
#     4  10  21  38  59  84 114 145 178 216 260 310
#     4  11  22  38  59  81 107 139 178 220 263 311
#     4  11  22  37  56  77 104 138 176 217 264 315
#     4   8  14  25  43  68  99 133 167 206 253 304
#     4   9  18  33  52  76 106 138 173 214 260 310
#
# _framework density 18.617167999999999
#
# number of rings (size 3 to 8) (size 9 to 14) (size 15 to 20)
#    0.000    2.200    0.000    6.600    0.000    3.600 
#    0.000    4.000    0.000    0.600    0.000    4.200 
#    0.000    0.000    0.000    0.000    0.000    0.000 
#
# Total GULP energy -495908.135915 kJ/mol
# GULP energy per Si atom -12397.703398 kJ/mol
# Density = 1.857479 g / cm^3
# Si number density = 18.617168 Si / 1000 Ang^3
#
#
#
# Elastic Constant Matrix: (Units=GPa)
#
#
# Indices 1 2 3 4 5 6 
#
# 1 40.5216 32.9277 49.0311 0.0000 0.0000 0.0000
# 2 32.9277 136.0030 61.9059 0.0000 0.0000 0.0000
# 3 49.0311 61.9059 134.2380 0.0000 0.0000 0.0000
# 4 0.0000 0.0000 0.0000 37.9906 0.0000 0.0000
# 5 0.0000 0.0000 0.0000 0.0000 -21.1876 0.0000
# 6 0.0000 0.0000 0.0000 0.0000 0.0000 26.2960
#
#
#
# Elastic Compliance Matrix: (Units=1/GPa)
#
#
# Indices 1 2 3 4 5 6 
#
# 1 0.046249 -0.004440 -0.014845 0.000000 0.000000 0.000000
# 2 -0.004440 0.009733 -0.002867 0.000000 0.000000 0.000000
# 3 -0.014845 -0.002867 0.014194 0.000000 0.000000 0.000000
# 4 0.000000 0.000000 0.000000 0.026322 0.000000 0.000000
# 5 0.000000 0.000000 0.000000 0.000000 -0.047197 0.000000
# 6 0.000000 0.000000 0.000000 0.000000 0.000000 0.038029
#
#
# Mechanical properties :
#
#
# Convention : Reuss Voigt Hill
#
# Bulk Modulus (GPa) = 38.65244 66.49910 52.57577
# Shear Modulus (GPa) = 35.64932 19.74633 27.69783
#
# Velocity S-wave (km/s) = 4.38066 3.26030 3.86133
# Velocity P-wave (km/s) = 6.81129 7.06891 6.94130
#
# Compressibility (1/GPa) = 0.02587159
#
# Stress axis : x y z
#
# Youngs Moduli (GPa) = 21.62230 102.74774 70.45450
#
# Poissons Ratio (x) = 0.45621 1.04589
# Poissons Ratio (y) = 0.09601 0.20196
# Poissons Ratio (z) = 0.32098 0.29453
#
# Static dielectric constant tensor:
#      x y z
#    x 3.100260 0.000000 0.000000 
#    y 0.000000 3.487570 0.000000 
#    z 0.000000 0.000000 3.660260 
# 
# 
# High freq. dielectric constant tensor:
#      x y z
#    x 1.688070 0.000000 0.000000 
#    y 0.000000 1.731060 0.000000 
#    z 0.000000 0.000000 1.740440 
# 
# From -- ./inp_files/43302.got.cif
#   From: 2010.03.12/outbox.cif.g09.slc.cpg/sg67_22_cif.got.tgz:43302.got - 2010.04.10 22:41:39.
