data_PCOD8280083
_publ_section_title
;
Structure prediction by ZEFSAII (Michael W. Deem and Ramdas Pophale) SiO2 
 PCOD8280083
Probable space group: C M M A
;
_chemical_formula_sum "Si O2"
_cell_formula_units_Z 80
_cell_length_a 19.462529
_cell_length_b 8.844841
_cell_length_c 25.740245
_cell_angle_alpha 90.000000
_cell_angle_beta 90.000000
_cell_angle_gamma 90.000000
_cell_volume 4431.002338
_symmetry_space_group_name_H-M "C M M A"
_symmetry_group_IT_number 67
_symmetry_cell_setting 'orthorhombic'
loop_
_space_group_symop_operation_xyz
x,y,z
-x,1/2-y,z
x,-y,-z
-x,1/2+y,-z
-x,-y,-z
x,1/2+y,-z
-x,y,z
x,1/2-y,z
1/2+x,1/2+y,z
1/2-x,-y,z
1/2+x,1/2-y,-z
1/2-x,y,-z
1/2-x,1/2-y,-z
1/2+x,y,-z
1/2-x,1/2+y,z
1/2+x,-y,z
loop_
_atom_site_type_symbol
_atom_site_label
_atom_site_fract_x
_atom_site_fract_y
_atom_site_fract_z
Si Si1 0.081024 0.573843 0.335414
Si Si2 0.077865 0.572192 0.052768
Si Si3 0.677531 0.069849 0.144223
Si Si4 0.919867 0.423555 0.550054
Si Si5 0.822540 0.929090 0.746746
O O1 0.098030 0.750000 0.325380
O O2 0.106987 0.524291 0.393213
O O3 0.120041 0.467519 0.295354
O O4 0.000000 0.546115 0.329323
O O5 0.081874 0.750000 0.046142
O O6 0.122698 0.518054 0.101388
O O7 0.000000 0.516967 0.062647
O O8 0.107502 0.500000 0.000000
O O9 0.683334 0.250000 0.149226
O O10 0.750000 0.000000 0.127304
O O11 0.653301 0.000693 0.198845
O O12 0.883193 0.500000 0.500000
O O13 0.904475 0.250000 0.543323
O O14 0.000000 0.460930 0.548990
O O15 0.814527 0.750000 0.752563
O O16 0.750000 0.000000 0.729330
#
# Coordination Sequence:
#
# PCOD8280083 Si02
#       5
#    16  16  16  16  16
#     4   9  18  33  52  75 104 136 169 207 253 303
#     4   9  19  35  54  76 102 133 166 200 243 293
#     4  10  20  35  54  75 100 131 168 207 249 298
#     4   8  14  25  43  68  98 131 164 200 245 295
#     4  11  22  36  54  75 101 134 172 212 257 305
#
# _framework density 18.054606
#
# number of rings (size 3 to 8) (size 9 to 14) (size 15 to 20)
#    0.000    2.600    0.000    4.800    0.000    4.000 
#    0.000    6.000    0.000    0.600    0.000    4.200 
#    0.000    0.000    0.000    0.000    0.000    0.000 
#
# Total GULP energy -495827.071783 kJ/mol
# GULP energy per Si atom -12395.676795 kJ/mol
# Density = 1.801351 g / cm^3
# Si number density = 18.054606 Si / 1000 Ang^3
#
#
#
# Elastic Constant Matrix: (Units=GPa)
#
#
# Indices 1 2 3 4 5 6 
#
# 1 63.4611 36.5517 74.0274 0.0000 0.0000 0.0000
# 2 36.5517 83.8795 62.6951 0.0000 0.0000 0.0000
# 3 74.0274 62.6951 163.1836 0.0000 0.0000 0.0000
# 4 0.0000 0.0000 0.0000 36.1416 0.0000 0.0000
# 5 0.0000 0.0000 0.0000 0.0000 2.5261 0.0000
# 6 0.0000 0.0000 0.0000 0.0000 0.0000 26.2407
#
#
#
# Elastic Compliance Matrix: (Units=1/GPa)
#
#
# Indices 1 2 3 4 5 6 
#
# 1 0.034748 -0.004713 -0.013952 0.000000 0.000000 0.000000
# 2 -0.004713 0.017364 -0.004533 0.000000 0.000000 0.000000
# 3 -0.013952 -0.004533 0.014199 0.000000 0.000000 0.000000
# 4 0.000000 0.000000 0.000000 0.027669 0.000000 0.000000
# 5 0.000000 0.000000 0.000000 0.000000 0.395864 0.000000
# 6 0.000000 0.000000 0.000000 0.000000 0.000000 0.038109
#
#
# Mechanical properties :
#
#
# Convention : Reuss Voigt Hill
#
# Bulk Modulus (GPa) = 50.21727 73.00807 61.61267
# Shear Modulus (GPa) = 8.60603 22.13167 15.36885
#
# Velocity S-wave (km/s) = 2.18564 3.50497 2.92077
# Velocity P-wave (km/s) = 5.85182 7.54353 6.75088
#
# Compressibility (1/GPa) = 0.01991347
#
# Stress axis : x y z
#
# Youngs Moduli (GPa) = 28.77881 57.59052 70.42716
#
# Poissons Ratio (x) = 0.27144 0.98262
# Poissons Ratio (y) = 0.13564 0.31925
# Poissons Ratio (z) = 0.40153 0.26106
#
# Static dielectric constant tensor:
#      x y z
#    x 3.134460 0.000000 0.000000 
#    y 0.000000 3.309450 0.000000 
#    z 0.000000 0.000000 3.611450 
# 
# 
# High freq. dielectric constant tensor:
#      x y z
#    x 1.669300 0.000000 0.000000 
#    y 0.000000 1.698980 0.000000 
#    z 0.000000 0.000000 1.716510 
# 
# From -- ./inp_files/43324.got.cif
#   From: 2010.03.12/outbox.cif.g09.slc.cpg/sg67_22_cif.got.tgz:43324.got - 2010.04.10 22:41:39.
