data_PCOD8280702
_publ_section_title
;
Structure prediction by ZEFSAII (Michael W. Deem and Ramdas Pophale) SiO2 
 PCOD8280702
Probable space group: C M M A
;
_chemical_formula_sum "Si O2"
_cell_formula_units_Z 96
_cell_length_a 19.640783
_cell_length_b 9.136582
_cell_length_c 30.019109
_cell_angle_alpha 90.000000
_cell_angle_beta 90.000000
_cell_angle_gamma 90.000000
_cell_volume 5386.917836
_symmetry_space_group_name_H-M "C M M A"
_symmetry_group_IT_number 67
_symmetry_cell_setting 'orthorhombic'
loop_
_space_group_symop_operation_xyz
x,y,z
-x,1/2-y,z
x,-y,-z
-x,1/2+y,-z
-x,-y,-z
x,1/2+y,-z
-x,y,z
x,1/2-y,z
1/2+x,1/2+y,z
1/2-x,-y,z
1/2+x,1/2-y,-z
1/2-x,y,-z
1/2-x,1/2-y,-z
1/2+x,y,-z
1/2-x,1/2+y,z
1/2+x,-y,z
loop_
_atom_site_type_symbol
_atom_site_label
_atom_site_fract_x
_atom_site_fract_y
_atom_site_fract_z
Si Si1 0.680993 0.079088 0.391427
Si Si2 0.080996 0.087487 0.126950
Si Si3 0.079752 0.579741 0.545365
Si Si4 0.920873 0.420545 0.226008
Si Si5 0.581258 0.413813 0.042813
Si Si6 0.682252 0.418767 0.287150
O O1 0.684364 0.250000 0.404403
O O2 0.669714 0.056535 0.339201
O O3 0.750000 0.000000 0.407417
O O4 0.617705 0.000295 0.414515
O O5 0.109521 0.250000 0.117924
O O6 0.103230 0.033783 0.176131
O O7 0.000000 0.091767 0.125105
O O8 0.110462 0.982770 0.088498
O O9 0.101604 0.500000 0.500000
O O10 0.100543 0.750000 0.542641
O O11 0.000000 0.561270 0.554473
O O12 0.905744 0.250000 0.234201
O O13 0.882132 0.517358 0.261711
O O14 0.000000 0.454784 0.232424
O O15 0.500000 0.417724 0.043193
O O16 0.609193 0.250000 0.039672
O O17 0.609525 0.500000 0.000000
O O18 0.690873 0.250000 0.275103
O O19 0.750000 0.500000 0.270845
#
# Coordination Sequence:
#
# PCOD8280702 Si02
#       6
#    16  16  16  16  16  16
#     4  10  21  37  56  78 104 134 170 211 253 297
#     4   8  14  25  39  56  82 116 152 191 236 285
#     4  10  21  37  57  81 109 140 172 207 248 294
#     4   9  18  32  50  72  99 131 165 203 249 300
#     4   9  15  21  31  49  75 110 150 190 233 283
#     4  10  21  36  54  75 101 133 168 209 253 297
#
# _framework density 17.82095
#
# number of rings (size 3 to 8) (size 9 to 14) (size 15 to 20)
#    0.000    2.667    0.000    3.000    0.000    7.000 
#    0.000    6.667    0.000    0.000    0.000    0.000 
#    0.000    0.667    0.000    7.000    0.000    9.667 
#
# Total GULP energy -595172.091533 kJ/mol
# GULP energy per Si atom -12399.418574 kJ/mol
# Density = 1.778039 g / cm^3
# Si number density = 17.820950 Si / 1000 Ang^3
#
#
#
# Elastic Constant Matrix: (Units=GPa)
#
#
# Indices 1 2 3 4 5 6 
#
# 1 51.8110 51.0372 46.6572 0.0000 0.0000 0.0000
# 2 51.0372 146.5339 72.7204 0.0000 0.0000 0.0000
# 3 46.6572 72.7204 89.6773 0.0000 0.0000 0.0000
# 4 0.0000 0.0000 0.0000 38.2774 0.0000 0.0000
# 5 0.0000 0.0000 0.0000 0.0000 2.1630 0.0000
# 6 0.0000 0.0000 0.0000 0.0000 0.0000 26.8774
#
#
#
# Elastic Compliance Matrix: (Units=1/GPa)
#
#
# Indices 1 2 3 4 5 6 
#
# 1 0.039146 -0.005902 -0.015581 0.000000 0.000000 0.000000
# 2 -0.005902 0.012310 -0.006912 0.000000 0.000000 0.000000
# 3 -0.015581 -0.006912 0.024862 0.000000 0.000000 0.000000
# 4 0.000000 0.000000 0.000000 0.026125 0.000000 0.000000
# 5 0.000000 0.000000 0.000000 0.000000 0.462328 0.000000
# 6 0.000000 0.000000 0.000000 0.000000 0.000000 0.037206
#
#
# Mechanical properties :
#
#
# Convention : Reuss Voigt Hill
#
# Bulk Modulus (GPa) = 51.20554 69.87241 60.53898
# Shear Modulus (GPa) = 7.51568 21.30406 14.40987
#
# Velocity S-wave (km/s) = 2.05584 3.46128 2.84666
# Velocity P-wave (km/s) = 5.86780 7.43418 6.69694
#
# Compressibility (1/GPa) = 0.01952914
#
# Stress axis : x y z
#
# Youngs Moduli (GPa) = 25.54566 81.23421 40.22191
#
# Poissons Ratio (x) = 0.47945 0.62668
# Poissons Ratio (y) = 0.15077 0.27800
# Poissons Ratio (z) = 0.39802 0.56146
#
# Static dielectric constant tensor:
#      x y z
#    x 2.888210 0.000000 0.000000 
#    y 0.000000 3.488390 0.000000 
#    z 0.000000 0.000000 3.414920 
# 
# 
# High freq. dielectric constant tensor:
#      x y z
#    x 1.645080 0.000000 0.000000 
#    y 0.000000 1.701900 0.000000 
#    z 0.000000 0.000000 1.698210 
# 
# From -- ./inp_files/43479.got.cif
#   From: 2010.03.12/outbox.cif.g09.slc.cpg/sg67_22_cif.got.tgz:43479.got - 2010.04.10 22:41:39.
