data_PCOD8280710
_publ_section_title
;
Structure prediction by ZEFSAII (Michael W. Deem and Ramdas Pophale) SiO2 
 PCOD8280710
Probable space group: C M M A
;
_chemical_formula_sum "Si O2"
_cell_formula_units_Z 96
_cell_length_a 18.033934
_cell_length_b 9.156392
_cell_length_c 30.849663
_cell_angle_alpha 90.000000
_cell_angle_beta 90.000000
_cell_angle_gamma 90.000000
_cell_volume 5094.074326
_symmetry_space_group_name_H-M "C M M A"
_symmetry_group_IT_number 67
_symmetry_cell_setting 'orthorhombic'
loop_
_space_group_symop_operation_xyz
x,y,z
-x,1/2-y,z
x,-y,-z
-x,1/2+y,-z
-x,-y,-z
x,1/2+y,-z
-x,y,z
x,1/2-y,z
1/2+x,1/2+y,z
1/2-x,-y,z
1/2+x,1/2-y,-z
1/2-x,y,-z
1/2-x,1/2-y,-z
1/2+x,y,-z
1/2-x,1/2+y,z
1/2+x,-y,z
loop_
_atom_site_type_symbol
_atom_site_label
_atom_site_fract_x
_atom_site_fract_y
_atom_site_fract_z
Si Si1 0.828254 0.577076 0.128207
Si Si2 0.172823 0.079219 0.288612
Si Si3 0.584594 0.079031 0.042998
Si Si4 0.411658 0.085095 0.458322
Si Si5 0.586898 0.582601 0.202185
Si Si6 0.414330 0.079194 0.626782
O O1 0.817983 0.750000 0.131418
O O2 0.750000 0.500000 0.133603
O O3 0.864278 0.529389 0.082715
O O4 0.882238 0.525393 0.166030
O O5 0.188127 0.250000 0.291143
O O6 0.121585 0.038952 0.248072
O O7 0.131826 0.024656 0.331891
O O8 0.250000 0.000000 0.282853
O O9 0.500000 0.031824 0.053102
O O10 0.590143 0.250000 0.034751
O O11 0.614485 0.000000 0.000000
O O12 0.500000 0.082352 0.459556
O O13 0.381266 0.250000 0.459134
O O14 0.379557 0.000000 0.500000
O O15 0.383171 0.006576 0.414839
O O16 0.500000 0.557830 0.206061
O O17 0.606006 0.750000 0.189937
O O18 0.500000 0.041835 0.635682
O O19 0.403868 0.250000 0.617840
#
# Coordination Sequence:
#
# PCOD8280710 Si02
#       6
#    16  16  16  16  16  16
#     4  11  23  38  56  81 114 148 183 224 271 322
#     4  10  21  36  54  77 106 139 174 214 261 313
#     4   9  19  36  57  80 107 141 182 227 273 321
#     4   9  16  26  43  70 102 133 167 209 256 305
#     4  10  21  38  60  84 109 140 180 223 268 321
#     4   9  17  31  51  73  99 133 172 213 257 305
#
# _framework density 18.845424999999999
#
# number of rings (size 3 to 8) (size 9 to 14) (size 15 to 20)
#    0.000    2.333    0.000    2.500    0.000    9.333 
#    0.000    3.333    0.000    3.500    0.000    3.500 
#    0.000    0.000    0.000    0.000    0.000    0.000 
#
# Total GULP energy -595346.854799 kJ/mol
# GULP energy per Si atom -12403.059475 kJ/mol
# Density = 1.880253 g / cm^3
# Si number density = 18.845425 Si / 1000 Ang^3
#
#
#
# Elastic Constant Matrix: (Units=GPa)
#
#
# Indices 1 2 3 4 5 6 
#
# 1 90.9818 40.0842 62.5219 0.0000 0.0000 0.0000
# 2 40.0842 74.7936 69.2203 0.0000 0.0000 0.0000
# 3 62.5219 69.2203 169.1451 0.0000 0.0000 0.0000
# 4 0.0000 0.0000 0.0000 35.7751 0.0000 0.0000
# 5 0.0000 0.0000 0.0000 0.0000 -44.8109 0.0000
# 6 0.0000 0.0000 0.0000 0.0000 0.0000 23.3540
#
#
#
# Elastic Compliance Matrix: (Units=1/GPa)
#
#
# Indices 1 2 3 4 5 6 
#
# 1 0.015786 -0.004925 -0.003819 0.000000 0.000000 0.000000
# 2 -0.004925 0.023058 -0.007616 0.000000 0.000000 0.000000
# 3 -0.003819 -0.007616 0.010440 0.000000 0.000000 0.000000
# 4 0.000000 0.000000 0.000000 0.027952 0.000000 0.000000
# 5 0.000000 0.000000 0.000000 0.000000 -0.022316 0.000000
# 6 0.000000 0.000000 0.000000 0.000000 0.000000 0.042819
#
#
# Mechanical properties :
#
#
# Convention : Reuss Voigt Hill
#
# Bulk Modulus (GPa) = 60.37340 75.39704 67.88522
# Shear Modulus (GPa) = 36.76980 13.73659 25.25319
#
# Velocity S-wave (km/s) = 4.42195 2.70276 3.66460
# Velocity P-wave (km/s) = 7.62739 7.05938 7.34888
#
# Compressibility (1/GPa) = 0.01656358
#
# Stress axis : x y z
#
# Youngs Moduli (GPa) = 63.34798 43.36929 95.78185
#
# Poissons Ratio (x) = 0.21361 0.36583
# Poissons Ratio (y) = 0.31201 0.72943
# Poissons Ratio (z) = 0.24195 0.33028
#
# Static dielectric constant tensor:
#      x y z
#    x 3.284780 0.000000 0.000000 
#    y 0.000000 3.437260 0.000000 
#    z 0.000000 0.000000 3.666640 
# 
# 
# High freq. dielectric constant tensor:
#      x y z
#    x 1.715140 0.000000 0.000000 
#    y 0.000000 1.729950 0.000000 
#    z 0.000000 0.000000 1.748650 
# 
# From -- ./inp_files/44580.got.cif
#   From: 2010.03.12/outbox.cif.g09.slc.cpg/sg67_23_cif.got.tgz:44580.got - 2010.04.10 22:41:39.
