data_PCOD8280397
_publ_section_title
;
Structure prediction by ZEFSAII (Michael W. Deem and Ramdas Pophale) SiO2 
 PCOD8280397
Probable space group: C M M A
;
_chemical_formula_sum "Si O2"
_cell_formula_units_Z 96
_cell_length_a 16.229854
_cell_length_b 23.980958
_cell_length_c 12.340397
_cell_angle_alpha 90.000000
_cell_angle_beta 90.000000
_cell_angle_gamma 90.000000
_cell_volume 4802.974413
_symmetry_space_group_name_H-M "C M M A"
_symmetry_group_IT_number 67
_symmetry_cell_setting 'orthorhombic'
loop_
_space_group_symop_operation_xyz
x,y,z
-x,1/2-y,z
x,-y,-z
-x,1/2+y,-z
-x,-y,-z
x,1/2+y,-z
-x,y,z
x,1/2-y,z
1/2+x,1/2+y,z
1/2-x,-y,z
1/2+x,1/2-y,-z
1/2-x,y,-z
1/2-x,1/2-y,-z
1/2+x,y,-z
1/2-x,1/2+y,z
1/2+x,-y,z
loop_
_atom_site_type_symbol
_atom_site_label
_atom_site_fract_x
_atom_site_fract_y
_atom_site_fract_z
Si Si1 0.404678 0.133221 0.147635
Si Si2 0.843809 0.250000 0.535492
Si Si3 0.653956 0.369555 0.527133
Si Si4 0.904176 0.557328 0.335175
Si Si5 0.901412 0.935970 0.723996
Si Si6 0.655611 0.059955 0.965734
Si Si7 0.598035 0.250000 0.224528
O O1 0.500000 0.135375 0.174491
O O2 0.362041 0.094257 0.239745
O O3 0.371498 0.196359 0.156436
O O4 0.390424 0.109382 0.028440
O O5 0.750000 0.250000 0.500000
O O6 0.884391 0.307440 0.490430
O O7 0.852388 0.250000 0.663996
O O8 0.750000 0.369503 0.500000
O O9 0.610535 0.415222 0.451330
O O10 0.634622 0.386509 0.650160
O O11 0.870308 0.494258 0.328606
O O12 0.000000 0.553026 0.312588
O O13 0.858272 0.929154 0.839822
O O14 0.000000 0.931600 0.734691
O O15 0.750000 0.062182 0.000000
O O16 0.617514 0.000000 0.000000
O O17 0.500000 0.250000 0.247533
#
# Coordination Sequence:
#
# PCOD8280397 Si02
#       7
#    16   8  16  16  16  16   8
#     4  10  20  37  62  88 113 148 197 250 294 339
#     4  10  22  38  57  84 117 160 195 242 293 354
#     4  11  24  38  60  87 123 159 198 243 296 356
#     4  10  20  36  60  86 117 152 192 242 295 352
#     4  11  24  40  59  89 126 161 194 240 306 366
#     4  11  24  38  61  88 122 157 201 247 295 355
#     4  10  20  36  64  90 110 144 203 258 286 335
#
# _framework density 19.987614000000001
#
# number of rings (size 3 to 8) (size 9 to 14) (size 15 to 20)
#    0.000    1.500    3.333    1.500    2.333    4.000 
#    0.000    1.250    0.000    0.000    0.000    0.000 
#    0.000    0.000    0.000    0.000    0.000    0.000 
#
# Total GULP energy -595128.736931 kJ/mol
# GULP energy per Si atom -12398.515353 kJ/mol
# Density = 1.994212 g / cm^3
# Si number density = 19.987614 Si / 1000 Ang^3
#
#
#
# Elastic Constant Matrix: (Units=GPa)
#
#
# Indices 1 2 3 4 5 6 
#
# 1 44.1507 24.2439 21.9520 0.0000 0.0000 0.0000
# 2 24.2439 172.3001 85.4414 0.0000 0.0000 0.0000
# 3 21.9520 85.4414 161.5543 0.0000 0.0000 0.0000
# 4 0.0000 0.0000 0.0000 40.9280 0.0000 0.0000
# 5 0.0000 0.0000 0.0000 0.0000 33.5147 0.0000
# 6 0.0000 0.0000 0.0000 0.0000 0.0000 10.5032
#
#
#
# Elastic Compliance Matrix: (Units=1/GPa)
#
#
# Indices 1 2 3 4 5 6 
#
# 1 0.025055 -0.002490 -0.002087 0.000000 0.000000 0.000000
# 2 -0.002490 0.008115 -0.003953 0.000000 0.000000 0.000000
# 3 -0.002087 -0.003953 0.008564 0.000000 0.000000 0.000000
# 4 0.000000 0.000000 0.000000 0.024433 0.000000 0.000000
# 5 0.000000 0.000000 0.000000 0.000000 0.029838 0.000000
# 6 0.000000 0.000000 0.000000 0.000000 0.000000 0.095209
#
#
# Mechanical properties :
#
#
# Convention : Reuss Voigt Hill
#
# Bulk Modulus (GPa) = 40.53174 71.25330 55.89252
# Shear Modulus (GPa) = 23.09473 33.41372 28.25422
#
# Velocity S-wave (km/s) = 3.40288 4.09310 3.76385
# Velocity P-wave (km/s) = 5.98013 7.61998 6.84931
#
# Compressibility (1/GPa) = 0.02467202
#
# Stress axis : x y z
#
# Youngs Moduli (GPa) = 39.91213 123.23535 116.76476
#
# Poissons Ratio (x) = 0.30689 0.24374
# Poissons Ratio (y) = 0.09939 0.46159
# Poissons Ratio (z) = 0.08331 0.48717
#
# Static dielectric constant tensor:
#      x y z
#    x 3.376660 0.000000 0.000000 
#    y 0.000000 4.225710 0.000000 
#    z 0.000000 0.000000 3.610480 
# 
# 
# High freq. dielectric constant tensor:
#      x y z
#    x 1.759150 0.000000 0.000000 
#    y 0.000000 1.791560 0.000000 
#    z 0.000000 0.000000 1.777590 
# 
# From -- ./inp_files/19705.got.cif
#   From: 2010.03.12/outbox.cif.g09.slc.cpg/sg67_10_cif.got.tgz:19705.got - 2010.04.10 22:41:39.
