data_PCOD8280677
_publ_section_title
;
Structure prediction by ZEFSAII (Michael W. Deem and Ramdas Pophale) SiO2 
 PCOD8280677
Probable space group: C M M A
;
_chemical_formula_sum "Si O2"
_cell_formula_units_Z 96
_cell_length_a 23.092410
_cell_length_b 13.963057
_cell_length_c 14.645027
_cell_angle_alpha 90.000000
_cell_angle_beta 90.000000
_cell_angle_gamma 90.000000
_cell_volume 4722.151836
_symmetry_space_group_name_H-M "C M M A"
_symmetry_group_IT_number 67
_symmetry_cell_setting 'orthorhombic'
loop_
_space_group_symop_operation_xyz
x,y,z
-x,1/2-y,z
x,-y,-z
-x,1/2+y,-z
-x,-y,-z
x,1/2+y,-z
-x,y,z
x,1/2-y,z
1/2+x,1/2+y,z
1/2-x,-y,z
1/2+x,1/2-y,-z
1/2-x,y,-z
1/2-x,1/2-y,-z
1/2+x,y,-z
1/2-x,1/2+y,z
1/2+x,-y,z
loop_
_atom_site_type_symbol
_atom_site_label
_atom_site_fract_x
_atom_site_fract_y
_atom_site_fract_z
Si Si1 0.315782 0.859911 0.030579
Si Si2 0.265475 0.860855 0.713883
Si Si3 0.067447 0.513312 0.292636
Si Si4 0.867296 0.859482 0.425962
Si Si5 0.158325 0.537647 0.144180
Si Si6 0.855042 0.862519 0.632677
O O1 0.331182 0.750000 0.055035
O O2 0.328877 0.926383 0.118478
O O3 0.250000 0.872882 0.000000
O O4 0.353459 0.897988 0.945443
O O5 0.260789 0.750000 0.743910
O O6 0.307980 0.872915 0.628553
O O7 0.286782 0.920732 0.800612
O O8 0.203232 0.901736 0.681495
O O9 0.081152 0.581876 0.378397
O O10 0.099835 0.549793 0.202142
O O11 0.089905 0.407002 0.316180
O O12 0.000000 0.511009 0.272184
O O13 0.887780 0.750000 0.427764
O O14 0.855528 0.897052 0.527950
O O15 0.858639 0.750000 0.640691
#
# Coordination Sequence:
#
# PCOD8280677 Si02
#       6
#    16  16  16  16  16  16
#     4  10  22  38  62  94 124 149 176 224 294 369
#     4   9  18  33  59  91 122 151 188 239 299 360
#     4  11  25  40  57  81 115 161 209 251 287 332
#     4   9  19  37  58  84 116 153 198 249 300 350
#     4  10  21  38  62  87 121 153 191 235 289 355
#     4  10  21  35  57  85 117 156 197 245 299 349
#
# _framework density 20.329715
#
# number of rings (size 3 to 8) (size 9 to 14) (size 15 to 20)
#    0.000    2.167    0.000    2.500    4.667    7.333 
#    0.000    6.667    0.000    1.000    0.000    0.000 
#    0.000    1.333    0.000    0.000    0.000    0.000 
#
# Total GULP energy -595306.859996 kJ/mol
# GULP energy per Si atom -12402.226250 kJ/mol
# Density = 2.028344 g / cm^3
# Si number density = 20.329715 Si / 1000 Ang^3
#
#
#
# Elastic Constant Matrix: (Units=GPa)
#
#
# Indices 1 2 3 4 5 6 
#
# 1 131.5524 46.4295 51.0452 0.0000 0.0000 0.0000
# 2 46.4295 89.6598 45.7419 0.0000 0.0000 0.0000
# 3 51.0452 45.7419 123.8368 0.0000 0.0000 0.0000
# 4 0.0000 0.0000 0.0000 32.4409 0.0000 0.0000
# 5 0.0000 0.0000 0.0000 0.0000 16.6423 0.0000
# 6 0.0000 0.0000 0.0000 0.0000 0.0000 22.4241
#
#
#
# Elastic Compliance Matrix: (Units=1/GPa)
#
#
# Indices 1 2 3 4 5 6 
#
# 1 0.009994 -0.003787 -0.002721 0.000000 0.000000 0.000000
# 2 -0.003787 0.015178 -0.004045 0.000000 0.000000 0.000000
# 3 -0.002721 -0.004045 0.010691 0.000000 0.000000 0.000000
# 4 0.000000 0.000000 0.000000 0.030825 0.000000 0.000000
# 5 0.000000 0.000000 0.000000 0.000000 0.060088 0.000000
# 6 0.000000 0.000000 0.000000 0.000000 0.000000 0.044595
#
#
# Mechanical properties :
#
#
# Convention : Reuss Voigt Hill
#
# Bulk Modulus (GPa) = 67.76617 70.16471 68.96544
# Shear Modulus (GPa) = 25.32978 27.75695 26.54336
#
# Velocity S-wave (km/s) = 3.53363 3.69906 3.61729
# Velocity P-wave (km/s) = 7.07493 7.26859 7.17241
#
# Compressibility (1/GPa) = 0.01475662
#
# Stress axis : x y z
#
# Youngs Moduli (GPa) = 100.06191 65.88351 93.53862
#
# Poissons Ratio (x) = 0.24952 0.25447
# Poissons Ratio (y) = 0.37896 0.37840
# Poissons Ratio (z) = 0.27222 0.26652
#
# Static dielectric constant tensor:
#      x y z
#    x 3.266980 0.000000 0.000000 
#    y 0.000000 3.874880 0.000000 
#    z 0.000000 0.000000 3.947090 
# 
# 
# High freq. dielectric constant tensor:
#      x y z
#    x 1.747600 0.000000 0.000000 
#    y 0.000000 1.811720 0.000000 
#    z 0.000000 0.000000 1.810880 
# 
# From -- ./inp_files/29294.got.cif
#   From: 2010.03.12/outbox.cif.g09.slc.cpg/sg67_15_cif.got.tgz:29294.got - 2010.04.10 22:41:39.
