data_PCOD8280540
_publ_section_title
;
Structure prediction by ZEFSAII (Michael W. Deem and Ramdas Pophale) SiO2 
 PCOD8280540
Probable space group: C M M A
;
_chemical_formula_sum "Si O2"
_cell_formula_units_Z 104
_cell_length_a 9.541384
_cell_length_b 26.053356
_cell_length_c 21.702808
_cell_angle_alpha 90.000000
_cell_angle_beta 90.000000
_cell_angle_gamma 90.000000
_cell_volume 5394.994135
_symmetry_space_group_name_H-M "C M M A"
_symmetry_group_IT_number 67
_symmetry_cell_setting 'orthorhombic'
loop_
_space_group_symop_operation_xyz
x,y,z
-x,1/2-y,z
x,-y,-z
-x,1/2+y,-z
-x,-y,-z
x,1/2+y,-z
-x,y,z
x,1/2-y,z
1/2+x,1/2+y,z
1/2-x,-y,z
1/2+x,1/2-y,-z
1/2-x,y,-z
1/2-x,1/2-y,-z
1/2+x,y,-z
1/2-x,1/2+y,z
1/2+x,-y,z
loop_
_atom_site_type_symbol
_atom_site_label
_atom_site_fract_x
_atom_site_fract_y
_atom_site_fract_z
Si Si1 0.661100 0.546587 0.835884
Si Si2 0.000000 0.689400 0.327680
Si Si3 0.841281 0.805708 0.849576
Si Si4 0.500000 0.605497 0.583332
Si Si5 0.000000 0.052435 0.461938
Si Si6 0.235482 0.130559 0.742676
Si Si7 0.670923 0.395257 0.935707
Si Si8 0.230054 0.056950 0.360031
O O1 0.500000 0.531935 0.854191
O O2 0.750000 0.500000 0.805594
O O3 0.648590 0.592274 0.786469
O O4 0.757343 0.560485 0.895005
O O5 0.135442 0.670573 0.291235
O O6 0.000000 0.750000 0.334449
O O7 0.000000 0.665362 0.396958
O O8 0.762083 0.750000 0.848149
O O9 0.836773 0.834851 0.784120
O O10 0.783570 0.841269 0.904506
O O11 0.000000 0.794456 0.864563
O O12 0.500000 0.600338 0.509449
O O13 0.624715 0.576162 0.615202
O O14 0.133562 0.056267 0.419408
O O15 0.000000 0.000000 0.500000
O O16 0.323059 0.095907 0.693490
O O17 0.500000 0.402172 0.940205
O O18 0.750000 0.397090 0.000000
O O19 0.250000 0.000000 0.332169
#
# Coordination Sequence:
#
# PCOD8280540 Si02
#       8
#    16   8  16   8   8  16  16  16
#     4  11  22  39  60  85 124 164 197 246 298 362
#     4  10  20  38  62  84 112 152 198 249 300 352
#     4   9  19  36  58  82 115 154 193 250 314 363
#     4  10  22  36  56  82 118 150 197 242 297 357
#     4  12  22  36  58  82 120 159 201 242 300 363
#     4  10  21  36  57  86 118 149 201 243 300 363
#     4  10  21  38  60  88 120 158 207 255 299 358
#     4  11  21  35  55  85 116 157 192 243 295 357
#
# _framework density 19.27713
#
# number of rings (size 3 to 8) (size 9 to 14) (size 15 to 20)
#    0.000    1.692    2.308    2.308    1.077    1.231 
#    2.769    1.538    0.000    8.308    0.000    0.000 
#    0.000    0.000    0.000    0.000    0.000    0.000 
#
# Total GULP energy -644307.932531 kJ/mol
# GULP energy per Si atom -12390.537164 kJ/mol
# Density = 1.923325 g / cm^3
# Si number density = 19.277130 Si / 1000 Ang^3
#
#
#
# Elastic Constant Matrix: (Units=GPa)
#
#
# Indices 1 2 3 4 5 6 
#
# 1 95.1738 36.6907 28.7843 0.0000 0.0000 0.0000
# 2 36.6907 125.6434 39.6331 0.0000 0.0000 0.0000
# 3 28.7843 39.6331 106.8886 0.0000 0.0000 0.0000
# 4 0.0000 0.0000 0.0000 22.1782 0.0000 0.0000
# 5 0.0000 0.0000 0.0000 0.0000 30.5189 0.0000
# 6 0.0000 0.0000 0.0000 0.0000 0.0000 20.3341
#
#
#
# Elastic Compliance Matrix: (Units=1/GPa)
#
#
# Indices 1 2 3 4 5 6 
#
# 1 0.012297 -0.002884 -0.002242 0.000000 0.000000 0.000000
# 2 -0.002884 0.009689 -0.002816 0.000000 0.000000 0.000000
# 3 -0.002242 -0.002816 0.011004 0.000000 0.000000 0.000000
# 4 0.000000 0.000000 0.000000 0.045089 0.000000 0.000000
# 5 0.000000 0.000000 0.000000 0.000000 0.032767 0.000000
# 6 0.000000 0.000000 0.000000 0.000000 0.000000 0.049178
#
#
# Mechanical properties :
#
#
# Convention : Reuss Voigt Hill
#
# Bulk Modulus (GPa) = 58.45989 59.76910 59.11449
# Shear Modulus (GPa) = 27.53147 29.44610 28.48878
#
# Velocity S-wave (km/s) = 3.78324 3.91258 3.84846
# Velocity P-wave (km/s) = 7.03390 7.17521 7.10491
#
# Compressibility (1/GPa) = 0.01710575
#
# Stress axis : x y z
#
# Youngs Moduli (GPa) = 81.32106 103.20477 90.87960
#
# Poissons Ratio (x) = 0.29761 0.20377
# Poissons Ratio (y) = 0.23450 0.25593
# Poissons Ratio (z) = 0.18234 0.29064
#
# Static dielectric constant tensor:
#      x y z
#    x 3.394390 0.000000 0.000000 
#    y 0.000000 4.002100 0.000000 
#    z 0.000000 0.000000 3.713170 
# 
# 
# High freq. dielectric constant tensor:
#      x y z
#    x 1.743470 0.000000 0.000000 
#    y 0.000000 1.750460 0.000000 
#    z 0.000000 0.000000 1.752300 
# 
# From -- ./inp_files/37368.got.cif
#   From: 2010.03.12/outbox.cif.g09.slc.cpg/sg67_19_cif.got.tgz:37368.got - 2010.04.10 22:41:39.
