data_PCOD8280502
_publ_section_title
;
Structure prediction by ZEFSAII (Michael W. Deem and Ramdas Pophale) SiO2 
 PCOD8280502
Probable space group: C M M A
;
_chemical_formula_sum "Si O2"
_cell_formula_units_Z 96
_cell_length_a 17.966083
_cell_length_b 23.301944
_cell_length_c 12.168305
_cell_angle_alpha 90.000000
_cell_angle_beta 90.000000
_cell_angle_gamma 90.000000
_cell_volume 5094.195909
_symmetry_space_group_name_H-M "C M M A"
_symmetry_group_IT_number 67
_symmetry_cell_setting 'orthorhombic'
loop_
_space_group_symop_operation_xyz
x,y,z
-x,1/2-y,z
x,-y,-z
-x,1/2+y,-z
-x,-y,-z
x,1/2+y,-z
-x,y,z
x,1/2-y,z
1/2+x,1/2+y,z
1/2-x,-y,z
1/2+x,1/2-y,-z
1/2-x,y,-z
1/2-x,1/2-y,-z
1/2+x,y,-z
1/2-x,1/2+y,z
1/2+x,-y,z
loop_
_atom_site_type_symbol
_atom_site_label
_atom_site_fract_x
_atom_site_fract_y
_atom_site_fract_z
Si Si1 0.415405 0.684679 0.627432
Si Si2 0.837996 0.813354 0.988683
Si Si3 0.152125 0.111046 0.810692
Si Si4 0.086824 0.494934 0.126335
Si Si5 0.179400 0.315136 0.424637
Si Si6 0.823586 0.110787 0.209417
O O1 0.500000 0.664364 0.641866
O O2 0.404337 0.750000 0.667760
O O3 0.361279 0.644835 0.698149
O O4 0.393940 0.679646 0.499590
O O5 0.873767 0.750000 0.989853
O O6 0.858563 0.843362 0.874442
O O7 0.750000 0.809027 0.000000
O O8 0.873583 0.849296 0.087948
O O9 0.238772 0.095230 0.820358
O O10 0.102336 0.054363 0.811974
O O11 0.129725 0.447185 0.196878
O O12 0.000000 0.480070 0.128815
O O13 0.115598 0.500000 0.000000
O O14 0.187447 0.250000 0.376745
O O15 0.250000 0.329837 0.500000
O O16 0.170981 0.362166 0.329973
#
# Coordination Sequence:
#
# PCOD8280502 Si02
#       6
#    16  16  16  16  16  16
#     4  10  21  37  60  90 123 159 196 240 301 368
#     4   9  18  30  52  89 122 145 181 239 303 359
#     4  11  20  36  61  87 116 152 200 249 298 357
#     4  11  24  41  59  82 119 164 203 246 304 366
#     4  10  20  37  62  91 123 158 198 245 303 362
#     4  11  21  36  62  89 117 155 201 250 300 359
#
# _framework density 18.844975999999999
#
# number of rings (size 3 to 8) (size 9 to 14) (size 15 to 20)
#    0.000    1.667    3.333    2.000    0.000    2.667 
#    0.000    0.833    0.000    4.500    0.000    0.000 
#    0.000    0.000    0.000    0.000    0.000    0.000 
#
# Total GULP energy -595318.858822 kJ/mol
# GULP energy per Si atom -12402.476225 kJ/mol
# Density = 1.880208 g / cm^3
# Si number density = 18.844976 Si / 1000 Ang^3
#
#
#
# Elastic Constant Matrix: (Units=GPa)
#
#
# Indices 1 2 3 4 5 6 
#
# 1 68.0875 35.6222 21.1015 0.0000 0.0000 0.0000
# 2 35.6222 131.5095 57.3770 0.0000 0.0000 0.0000
# 3 21.1015 57.3770 103.3300 0.0000 0.0000 0.0000
# 4 0.0000 0.0000 0.0000 31.6943 0.0000 0.0000
# 5 0.0000 0.0000 0.0000 0.0000 23.2373 0.0000
# 6 0.0000 0.0000 0.0000 0.0000 0.0000 22.7094
#
#
#
# Elastic Compliance Matrix: (Units=1/GPa)
#
#
# Indices 1 2 3 4 5 6 
#
# 1 0.017228 -0.004133 -0.001223 0.000000 0.000000 0.000000
# 2 -0.004133 0.011027 -0.005279 0.000000 0.000000 0.000000
# 3 -0.001223 -0.005279 0.012859 0.000000 0.000000 0.000000
# 4 0.000000 0.000000 0.000000 0.031551 0.000000 0.000000
# 5 0.000000 0.000000 0.000000 0.000000 0.043034 0.000000
# 6 0.000000 0.000000 0.000000 0.000000 0.000000 0.044035
#
#
# Mechanical properties :
#
#
# Convention : Reuss Voigt Hill
#
# Bulk Modulus (GPa) = 50.39426 59.01427 54.70427
# Shear Modulus (GPa) = 26.64977 28.11663 27.38320
#
# Velocity S-wave (km/s) = 3.76461 3.86683 3.81606
# Velocity P-wave (km/s) = 6.75987 7.16381 6.96477
#
# Compressibility (1/GPa) = 0.01984353
#
# Stress axis : x y z
#
# Youngs Moduli (GPa) = 58.04369 90.68939 77.76780
#
# Poissons Ratio (x) = 0.37481 0.09514
# Poissons Ratio (y) = 0.23989 0.41052
# Poissons Ratio (z) = 0.07101 0.47874
#
# Static dielectric constant tensor:
#      x y z
#    x 3.291220 0.000000 0.000000 
#    y 0.000000 3.463260 0.000000 
#    z 0.000000 0.000000 3.364660 
# 
# 
# High freq. dielectric constant tensor:
#      x y z
#    x 1.718420 0.000000 0.000000 
#    y 0.000000 1.733240 0.000000 
#    z 0.000000 0.000000 1.727340 
# 
# From -- ./inp_files/19608.got.cif
#   From: 2010.03.12/outbox.cif.g09.slc.cpg/sg67_10_cif.got.tgz:19608.got - 2010.04.10 22:41:39.
