data_PCOD8280562
_publ_section_title
;
Structure prediction by ZEFSAII (Michael W. Deem and Ramdas Pophale) SiO2 
 PCOD8280562
Probable space group: C M M A
;
_chemical_formula_sum "Si O2"
_cell_formula_units_Z 48
_cell_length_a 15.873065
_cell_length_b 18.361699
_cell_length_c 7.232126
_cell_angle_alpha 90.000000
_cell_angle_beta 90.000000
_cell_angle_gamma 90.000000
_cell_volume 2107.849710
_symmetry_space_group_name_H-M "C M M A"
_symmetry_group_IT_number 67
_symmetry_cell_setting 'orthorhombic'
loop_
_space_group_symop_operation_xyz
x,y,z
-x,1/2-y,z
x,-y,-z
-x,1/2+y,-z
-x,-y,-z
x,1/2+y,-z
-x,y,z
x,1/2-y,z
1/2+x,1/2+y,z
1/2-x,-y,z
1/2+x,1/2-y,-z
1/2-x,y,-z
1/2-x,1/2-y,-z
1/2+x,y,-z
1/2-x,1/2+y,z
1/2+x,-y,z
loop_
_atom_site_type_symbol
_atom_site_label
_atom_site_fract_x
_atom_site_fract_y
_atom_site_fract_z
Si Si1 0.405731 0.055547 0.757611
Si Si2 0.664134 0.409931 0.116229
Si Si3 0.598619 0.332060 0.449314
O O1 0.500000 0.030910 0.702928
O O2 0.369802 0.112656 0.607929
O O3 0.344246 0.985500 0.767314
O O4 0.408639 0.093241 0.959977
O O5 0.651649 0.344864 0.261298
O O6 0.750000 0.404437 0.000000
O O7 0.500000 0.343756 0.408815
O O8 0.616918 0.250000 0.516489
#
# Coordination Sequence:
#
# PCOD8280562 Si02
#       3
#    16  16  16
#     4  10  20  38  64  90 117 157 211 263 305 353
#     4  11  22  37  60  90 125 162 202 252 310 367
#     4  10  22  40  63  91 123 162 206 252 305 366
#
# _framework density 22.772022
#
# number of rings (size 3 to 8) (size 9 to 14) (size 15 to 20)
#    0.000    1.667    0.000    7.000    0.000    6.000 
#    0.000   11.667    0.000    3.000    0.000    0.000 
#    0.000    0.000    0.000    0.000    0.000    0.000 
#
# Total GULP energy -297448.803894 kJ/mol
# GULP energy per Si atom -12393.700162 kJ/mol
# Density = 2.272019 g / cm^3
# Si number density = 22.772022 Si / 1000 Ang^3
#
#
#
# Elastic Constant Matrix: (Units=GPa)
#
#
# Indices 1 2 3 4 5 6 
#
# 1 81.8633 42.3841 25.3040 0.0000 0.0000 0.0000
# 2 42.3841 110.6795 78.4309 0.0000 0.0000 0.0000
# 3 25.3040 78.4309 126.5380 0.0000 0.0000 0.0000
# 4 0.0000 0.0000 0.0000 37.3491 0.0000 0.0000
# 5 0.0000 0.0000 0.0000 0.0000 37.3100 0.0000
# 6 0.0000 0.0000 0.0000 0.0000 0.0000 13.8389
#
#
#
# Elastic Compliance Matrix: (Units=1/GPa)
#
#
# Indices 1 2 3 4 5 6 
#
# 1 0.015310 -0.006586 0.001021 0.000000 0.000000 0.000000
# 2 -0.006586 0.018945 -0.010426 0.000000 0.000000 0.000000
# 3 0.001021 -0.010426 0.014161 0.000000 0.000000 0.000000
# 4 0.000000 0.000000 0.000000 0.026774 0.000000 0.000000
# 5 0.000000 0.000000 0.000000 0.000000 0.026802 0.000000
# 6 0.000000 0.000000 0.000000 0.000000 0.000000 0.072260
#
#
# Mechanical properties :
#
#
# Convention : Reuss Voigt Hill
#
# Bulk Modulus (GPa) = 60.85073 67.92432 64.38753
# Shear Modulus (GPa) = 23.61692 29.23037 26.42365
#
# Velocity S-wave (km/s) = 3.22390 3.58664 3.41009
# Velocity P-wave (km/s) = 6.37478 6.85891 6.62127
#
# Compressibility (1/GPa) = 0.01643366
#
# Stress axis : x y z
#
# Youngs Moduli (GPa) = 65.31713 52.78423 70.61841
#
# Poissons Ratio (x) = 0.34764 -0.07208
# Poissons Ratio (y) = 0.43019 0.73623
# Poissons Ratio (z) = -0.06667 0.55030
#
# Static dielectric constant tensor:
#      x y z
#    x 4.041980 0.000000 0.000000 
#    y 0.000000 3.930480 0.000000 
#    z 0.000000 0.000000 4.466180 
# 
# 
# High freq. dielectric constant tensor:
#      x y z
#    x 1.887810 0.000000 0.000000 
#    y 0.000000 1.876500 0.000000 
#    z 0.000000 0.000000 1.910950 
# 
# From -- ./inp_files/7252.got.cif
#   From: 2010.03.12/outbox.cif.g09.slc.cpg/sg67_4_cif.got.tgz:7252.got - 2010.04.10 22:41:39.
