data_PCOD8280275
_publ_section_title
;
Structure prediction by ZEFSAII (Michael W. Deem and Ramdas Pophale) SiO2 
 PCOD8280275
Probable space group: C M M A
;
_chemical_formula_sum "Si O2"
_cell_formula_units_Z 96
_cell_length_a 18.251657
_cell_length_b 18.987773
_cell_length_c 14.222462
_cell_angle_alpha 90.000000
_cell_angle_beta 90.000000
_cell_angle_gamma 90.000000
_cell_volume 4928.912537
_symmetry_space_group_name_H-M "C M M A"
_symmetry_group_IT_number 67
_symmetry_cell_setting 'orthorhombic'
loop_
_space_group_symop_operation_xyz
x,y,z
-x,1/2-y,z
x,-y,-z
-x,1/2+y,-z
-x,-y,-z
x,1/2+y,-z
-x,y,z
x,1/2-y,z
1/2+x,1/2+y,z
1/2-x,-y,z
1/2+x,1/2-y,-z
1/2-x,y,-z
1/2-x,1/2-y,-z
1/2+x,y,-z
1/2-x,1/2+y,z
1/2+x,-y,z
loop_
_atom_site_type_symbol
_atom_site_label
_atom_site_fract_x
_atom_site_fract_y
_atom_site_fract_z
Si Si1 0.827869 0.464163 0.754453
Si Si2 0.819667 0.327926 0.440376
Si Si3 0.753189 0.328073 0.241204
Si Si4 0.081817 0.955883 0.593188
Si Si5 0.674538 0.828099 0.053395
Si Si6 0.579813 0.565043 0.934436
O O1 0.750000 0.500000 0.773259
O O2 0.813668 0.380990 0.734963
O O3 0.867424 0.504165 0.668870
O O4 0.876136 0.466023 0.847063
O O5 0.842154 0.250000 0.479432
O O6 0.750000 0.356513 0.500000
O O7 0.802394 0.320788 0.331638
O O8 0.886410 0.381939 0.444096
O O9 0.722066 0.250000 0.212975
O O10 0.806449 0.357527 0.158005
O O11 0.000000 0.944592 0.635483
O O12 0.076573 0.000000 0.500000
O O13 0.639952 0.750000 0.061689
O O14 0.750000 0.825767 0.000000
O O15 0.619532 0.874984 0.994004
O O16 0.500000 0.593881 0.901478
O O17 0.566832 0.500000 0.000000
#
# Coordination Sequence:
#
# PCOD8280275 Si02
#       6
#    16  16  16  16  16  16
#     4  12  22  37  64  89 114 163 207 250 304 375
#     4  10  21  39  64  94 123 157 204 253 301 365
#     4  10  20  35  59  92 119 148 203 259 300 352
#     4  11  25  41  60  91 129 163 201 254 313 374
#     4  10  20  37  60  85 115 156 206 250 295 363
#     4  11  25  39  55  86 124 157 197 254 312 363
#
# _framework density 19.476911999999999
#
# number of rings (size 3 to 8) (size 9 to 14) (size 15 to 20)
#    0.000    1.333    3.333    2.500    0.000    0.667 
#    0.000    0.000    0.000    5.500    0.000    0.000 
#    0.000    0.000    0.000    0.000    0.000    0.000 
#
# Total GULP energy -594867.095018 kJ/mol
# GULP energy per Si atom -12393.064480 kJ/mol
# Density = 1.943258 g / cm^3
# Si number density = 19.476912 Si / 1000 Ang^3
#
#
#
# Elastic Constant Matrix: (Units=GPa)
#
#
# Indices 1 2 3 4 5 6 
#
# 1 138.6790 65.8181 45.7675 0.0000 0.0000 0.0000
# 2 65.8181 111.6798 24.5945 0.0000 0.0000 0.0000
# 3 45.7675 24.5945 94.3413 0.0000 0.0000 0.0000
# 4 0.0000 0.0000 0.0000 31.6842 0.0000 0.0000
# 5 0.0000 0.0000 0.0000 0.0000 31.9122 0.0000
# 6 0.0000 0.0000 0.0000 0.0000 0.0000 42.1277
#
#
#
# Elastic Compliance Matrix: (Units=1/GPa)
#
#
# Indices 1 2 3 4 5 6 
#
# 1 0.011250 -0.005759 -0.003956 0.000000 0.000000 0.000000
# 2 -0.005759 0.012447 -0.000451 0.000000 0.000000 0.000000
# 3 -0.003956 -0.000451 0.012637 0.000000 0.000000 0.000000
# 4 0.000000 0.000000 0.000000 0.031561 0.000000 0.000000
# 5 0.000000 0.000000 0.000000 0.000000 0.031336 0.000000
# 6 0.000000 0.000000 0.000000 0.000000 0.000000 0.023737
#
#
# Mechanical properties :
#
#
# Convention : Reuss Voigt Hill
#
# Bulk Modulus (GPa) = 62.49474 68.56225 65.52849
# Shear Modulus (GPa) = 33.63948 35.04617 34.34282
#
# Velocity S-wave (km/s) = 4.16040 4.24650 4.20367
# Velocity P-wave (km/s) = 7.43201 7.70207 7.56825
#
# Compressibility (1/GPa) = 0.01600135
#
# Stress axis : x y z
#
# Youngs Moduli (GPa) = 88.89141 80.33788 79.13426
#
# Poissons Ratio (x) = 0.46264 0.31307
# Poissons Ratio (y) = 0.51190 0.03571
# Poissons Ratio (z) = 0.35168 0.03626
#
# Static dielectric constant tensor:
#      x y z
#    x 3.565920 0.000000 0.000000 
#    y 0.000000 4.069850 0.000000 
#    z 0.000000 0.000000 3.633130 
# 
# 
# High freq. dielectric constant tensor:
#      x y z
#    x 1.736030 0.000000 0.000000 
#    y 0.000000 1.773450 0.000000 
#    z 0.000000 0.000000 1.771690 
# 
# From -- ./inp_files/27141.got.cif
#   From: 2010.03.12/outbox.cif.g09.slc.cpg/sg67_14_cif.got.tgz:27141.got - 2010.04.10 22:41:39.
