data_PCOD8280792
_publ_section_title
;
Structure prediction by ZEFSAII (Michael W. Deem and Ramdas Pophale) SiO2 
 PCOD8280792
Probable space group: C M M A
;
_chemical_formula_sum "Si O2"
_cell_formula_units_Z 80
_cell_length_a 17.100385
_cell_length_b 18.072736
_cell_length_c 14.019914
_cell_angle_alpha 90.000000
_cell_angle_beta 90.000000
_cell_angle_gamma 90.000000
_cell_volume 4332.864847
_symmetry_space_group_name_H-M "C M M A"
_symmetry_group_IT_number 67
_symmetry_cell_setting 'orthorhombic'
loop_
_space_group_symop_operation_xyz
x,y,z
-x,1/2-y,z
x,-y,-z
-x,1/2+y,-z
-x,-y,-z
x,1/2+y,-z
-x,y,z
x,1/2-y,z
1/2+x,1/2+y,z
1/2-x,-y,z
1/2+x,1/2-y,-z
1/2-x,y,-z
1/2-x,1/2-y,-z
1/2+x,y,-z
1/2-x,1/2+y,z
1/2+x,-y,z
loop_
_atom_site_type_symbol
_atom_site_label
_atom_site_fract_x
_atom_site_fract_y
_atom_site_fract_z
Si Si1 0.590855 0.332953 0.823319
Si Si2 0.906576 0.332145 0.576424
Si Si3 0.408907 0.109189 0.622047
Si Si4 0.159531 0.519255 0.895990
Si Si5 0.907454 0.540020 0.290293
O O1 0.500000 0.351931 0.843662
O O2 0.611675 0.250000 0.859367
O O3 0.606422 0.335129 0.709691
O O4 0.643959 0.393630 0.876650
O O5 0.874889 0.250000 0.597638
O O6 0.870993 0.359473 0.475079
O O7 0.875695 0.384804 0.661505
O O8 0.000000 0.332257 0.572142
O O9 0.500000 0.099135 0.602481
O O10 0.373109 0.029031 0.649164
O O11 0.250000 0.500000 0.891561
O O12 0.118207 0.466183 0.819216
O O13 0.125203 0.500000 0.000000
O O14 0.000000 0.537769 0.292812
#
# Coordination Sequence:
#
# PCOD8280792 Si02
#       5
#    16  16  16  16  16
#     4   9  17  31  54  82 104 125 164 216 256 283
#     4   9  15  23  39  68 103 130 153 187 234 290
#     4   8  13  23  43  70  98 126 157 195 238 285
#     4  10  21  37  53  70  94 129 169 205 252 311
#     4   9  17  29  47  70  94 124 163 204 244 288
#
# _framework density 18.463533999999999
#
# number of rings (size 3 to 8) (size 9 to 14) (size 15 to 20)
#    0.000    3.000    0.000    3.000    0.000    6.400 
#    0.000    4.000    0.000   12.000    0.000    7.000 
#    0.000    0.000    0.000    0.000    0.000    0.000 
#
# Total GULP energy -495732.706826 kJ/mol
# GULP energy per Si atom -12393.317671 kJ/mol
# Density = 1.842151 g / cm^3
# Si number density = 18.463534 Si / 1000 Ang^3
#
#
#
# Elastic Constant Matrix: (Units=GPa)
#
#
# Indices 1 2 3 4 5 6 
#
# 1 25.5054 33.6384 16.5357 0.0000 0.0000 0.0000
# 2 33.6384 163.1656 85.8373 0.0000 0.0000 0.0000
# 3 16.5357 85.8373 135.2427 0.0000 0.0000 0.0000
# 4 0.0000 0.0000 0.0000 21.3212 0.0000 0.0000
# 5 0.0000 0.0000 0.0000 0.0000 2.0968 0.0000
# 6 0.0000 0.0000 0.0000 0.0000 0.0000 17.1829
#
#
#
# Elastic Compliance Matrix: (Units=1/GPa)
#
#
# Indices 1 2 3 4 5 6 
#
# 1 0.053892 -0.011476 0.000694 0.000000 0.000000 0.000000
# 2 -0.011476 0.011644 -0.005988 0.000000 0.000000 0.000000
# 3 0.000694 -0.005988 0.011109 0.000000 0.000000 0.000000
# 4 0.000000 0.000000 0.000000 0.046902 0.000000 0.000000
# 5 0.000000 0.000000 0.000000 0.000000 0.476923 0.000000
# 6 0.000000 0.000000 0.000000 0.000000 0.000000 0.058197
#
#
# Mechanical properties :
#
#
# Convention : Reuss Voigt Hill
#
# Bulk Modulus (GPa) = 23.19743 66.21516 44.70629
# Shear Modulus (GPa) = 7.07638 20.64699 13.86169
#
# Velocity S-wave (km/s) = 1.95983 3.34766 2.74297
# Velocity P-wave (km/s) = 4.20862 7.13323 5.85643
#
# Compressibility (1/GPa) = 0.04310823
#
# Stress axis : x y z
#
# Youngs Moduli (GPa) = 18.55556 85.87765 90.01335
#
# Poissons Ratio (x) = 0.98551 -0.06250
# Poissons Ratio (y) = 0.21294 0.53896
# Poissons Ratio (z) = -0.01288 0.51420
#
# Static dielectric constant tensor:
#      x y z
#    x 2.851020 0.000000 0.000000 
#    y 0.000000 3.688080 0.000000 
#    z 0.000000 0.000000 3.583360 
# 
# 
# High freq. dielectric constant tensor:
#      x y z
#    x 1.661040 0.000000 0.000000 
#    y 0.000000 1.722290 0.000000 
#    z 0.000000 0.000000 1.712040 
# 
# From -- ./inp_files/28364.got.cif
#   From: 2010.03.12/outbox.cif.g09.slc.cpg/sg67_15_cif.got.tgz:28364.got - 2010.04.10 22:41:39.
