data_PCOD8280958
_publ_section_title
;
Structure prediction by ZEFSAII (Michael W. Deem and Ramdas Pophale) SiO2 
 PCOD8280958
Probable space group: C M M A
;
_chemical_formula_sum "Si O2"
_cell_formula_units_Z 116
_cell_length_a 26.441522
_cell_length_b 23.740513
_cell_length_c 9.262314
_cell_angle_alpha 90.000000
_cell_angle_beta 90.000000
_cell_angle_gamma 90.000000
_cell_volume 5814.281428
_symmetry_space_group_name_H-M "C M M A"
_symmetry_group_IT_number 67
_symmetry_cell_setting 'orthorhombic'
loop_
_space_group_symop_operation_xyz
x,y,z
-x,1/2-y,z
x,-y,-z
-x,1/2+y,-z
-x,-y,-z
x,1/2+y,-z
-x,y,z
x,1/2-y,z
1/2+x,1/2+y,z
1/2-x,-y,z
1/2+x,1/2-y,-z
1/2-x,y,-z
1/2-x,1/2-y,-z
1/2+x,y,-z
1/2-x,1/2+y,z
1/2+x,-y,z
loop_
_atom_site_type_symbol
_atom_site_label
_atom_site_fract_x
_atom_site_fract_y
_atom_site_fract_z
Si Si1 0.442248 0.102536 0.846349
Si Si2 0.059097 0.506787 0.332119
Si Si3 0.286697 0.391008 0.121731
Si Si4 0.882326 0.183993 0.335532
Si Si5 0.750000 0.500000 0.000000
Si Si6 0.234023 0.687062 0.663034
Si Si7 0.056921 0.816358 0.387277
Si Si8 0.402224 0.893069 0.845240
O O1 0.500000 0.117304 0.814511
O O2 0.425097 0.049103 0.752946
O O3 0.408898 0.155798 0.801358
O O4 0.434850 0.090324 0.015305
O O5 0.072083 0.500000 0.500000
O O6 0.094163 0.556200 0.269317
O O7 0.000000 0.521552 0.309021
O O8 0.281831 0.459433 0.108747
O O9 0.268255 0.362103 0.268777
O O10 0.345631 0.378268 0.103148
O O11 0.250000 0.362978 0.000000
O O12 0.891412 0.250000 0.322457
O O13 0.823863 0.167691 0.329393
O O14 0.907180 0.161142 0.484209
O O15 0.241519 0.750000 0.732935
O O16 0.250000 0.691539 0.500000
O O17 0.058898 0.750000 0.377048
O O18 0.075472 0.838203 0.232499
O O19 0.000000 0.837955 0.419334
#
# Coordination Sequence:
#
# PCOD8280958 Si02
#       8
#    16  16  16  16   4  16  16  16
#     4  11  23  36  57  87 120 155 196 247 295 353
#     4  10  22  39  59  86 120 155 195 242 296 362
#     4  10  23  41  63  85 119 164 201 255 313 365
#     4  10  21  38  62  87 118 161 200 241 296 359
#     4   8  24  44  60  80 114 156 202 254 300 364
#     4  10  21  39  63  93 124 152 199 259 306 360
#     4  10  21  38  60  89 128 167 201 241 296 362
#     4  12  23  37  62  88 116 160 201 247 303 357
#
# _framework density 19.950873999999999
#
# number of rings (size 3 to 8) (size 9 to 14) (size 15 to 20)
#    0.414    1.241    0.000    4.552    1.931    5.517 
#    0.000    0.345    0.000    0.000    0.000    0.000 
#    0.000    0.000    0.000    0.000    0.000    0.000 
#
# Total GULP energy -719137.454723 kJ/mol
# GULP energy per Si atom -12398.921633 kJ/mol
# Density = 1.990547 g / cm^3
# Si number density = 19.950874 Si / 1000 Ang^3
#
#
#
# Elastic Constant Matrix: (Units=GPa)
#
#
# Indices 1 2 3 4 5 6 
#
# 1 93.6733 31.7789 14.0081 0.0000 0.0000 0.0000
# 2 31.7789 59.3103 30.3132 0.0000 0.0000 0.0000
# 3 14.0081 30.3132 96.7705 0.0000 0.0000 0.0000
# 4 0.0000 0.0000 0.0000 42.6247 0.0000 0.0000
# 5 0.0000 0.0000 0.0000 0.0000 35.1954 0.0000
# 6 0.0000 0.0000 0.0000 0.0000 0.0000 24.0379
#
#
#
# Elastic Compliance Matrix: (Units=1/GPa)
#
#
# Indices 1 2 3 4 5 6 
#
# 1 0.013057 -0.007180 0.000359 0.000000 0.000000 0.000000
# 2 -0.007180 0.024022 -0.006486 0.000000 0.000000 0.000000
# 3 0.000359 -0.006486 0.012313 0.000000 0.000000 0.000000
# 4 0.000000 0.000000 0.000000 0.023461 0.000000 0.000000
# 5 0.000000 0.000000 0.000000 0.000000 0.028413 0.000000
# 6 0.000000 0.000000 0.000000 0.000000 0.000000 0.041601
#
#
# Mechanical properties :
#
#
# Convention : Reuss Voigt Hill
#
# Bulk Modulus (GPa) = 43.89782 44.66161 44.27972
# Shear Modulus (GPa) = 28.23685 31.94853 30.09269
#
# Velocity S-wave (km/s) = 3.76615 4.00604 3.88795
# Velocity P-wave (km/s) = 6.40020 6.62059 6.51133
#
# Compressibility (1/GPa) = 0.02278018
#
# Stress axis : x y z
#
# Youngs Moduli (GPa) = 76.58460 41.62821 81.21251
#
# Poissons Ratio (x) = 0.29888 -0.02915
# Poissons Ratio (y) = 0.54985 0.52671
# Poissons Ratio (z) = -0.02748 0.26998
#
# Static dielectric constant tensor:
#      x y z
#    x 4.879560 0.000000 0.000000 
#    y 0.000000 3.565750 0.000000 
#    z 0.000000 0.000000 3.597150 
# 
# 
# High freq. dielectric constant tensor:
#      x y z
#    x 1.781000 0.000000 0.000000 
#    y 0.000000 1.776880 0.000000 
#    z 0.000000 0.000000 1.777990 
# 
# From -- ./inp_files/14029.got.cif
#   From: 2010.03.12/outbox.cif.g09.slc.cpg/sg67_8_cif.got.tgz:14029.got - 2010.04.10 22:41:39.
