data_PCOD8280509
_publ_section_title
;
Structure prediction by ZEFSAII (Michael W. Deem and Ramdas Pophale) SiO2 
 PCOD8280509
Probable space group: C M M A
;
_chemical_formula_sum "Si O2"
_cell_formula_units_Z 96
_cell_length_a 25.793331
_cell_length_b 19.106305
_cell_length_c 9.836906
_cell_angle_alpha 90.000000
_cell_angle_beta 90.000000
_cell_angle_gamma 90.000000
_cell_volume 4847.777280
_symmetry_space_group_name_H-M "C M M A"
_symmetry_group_IT_number 67
_symmetry_cell_setting 'orthorhombic'
loop_
_space_group_symop_operation_xyz
x,y,z
-x,1/2-y,z
x,-y,-z
-x,1/2+y,-z
-x,-y,-z
x,1/2+y,-z
-x,y,z
x,1/2-y,z
1/2+x,1/2+y,z
1/2-x,-y,z
1/2+x,1/2-y,-z
1/2-x,y,-z
1/2-x,1/2-y,-z
1/2+x,y,-z
1/2-x,1/2+y,z
1/2+x,-y,z
loop_
_atom_site_type_symbol
_atom_site_label
_atom_site_fract_x
_atom_site_fract_y
_atom_site_fract_z
Si Si1 0.266317 0.575775 0.346293
Si Si2 0.400722 0.670564 0.959404
Si Si3 0.116584 0.046527 0.364747
Si Si4 0.441855 0.035366 0.142479
Si Si5 0.560279 0.328698 0.741763
Si Si6 0.283702 0.831472 0.876712
O O1 0.250000 0.500000 0.292906
O O2 0.250000 0.588480 0.500000
O O3 0.328089 0.581080 0.333125
O O4 0.235029 0.632546 0.260819
O O5 0.416298 0.750000 0.922682
O O6 0.437434 0.619135 0.873750
O O7 0.342763 0.652711 0.913589
O O8 0.407271 0.657953 0.120631
O O9 0.077703 0.113572 0.369896
O O10 0.116657 0.000000 0.500000
O O11 0.099708 0.993087 0.248182
O O12 0.500000 0.016965 0.191521
O O13 0.428747 0.000000 0.000000
O O14 0.500000 0.339182 0.776298
O O15 0.570571 0.250000 0.685866
O O16 0.273262 0.750000 0.855591
O O17 0.250000 0.861795 0.000000
#
# Coordination Sequence:
#
# PCOD8280509 Si02
#       6
#    16  16  16  16  16  16
#     4  11  23  43  62  87 123 162 210 253 305 369
#     4  10  20  37  63  93 128 164 204 254 311 368
#     4  12  24  41  65  90 125 165 208 263 313 367
#     4  11  23  39  62  95 126 159 209 259 312 373
#     4  10  21  39  64  94 127 166 210 255 312 380
#     4  10  22  39  62  95 127 157 203 257 307 365
#
# _framework density 19.802890000000001
#
# number of rings (size 3 to 8) (size 9 to 14) (size 15 to 20)
#    0.000    1.333    3.333    3.000    0.000    5.000 
#    0.000    0.833    0.000    0.000    0.000    0.000 
#    0.000    0.000    0.000    0.000    0.000    0.000 
#
# Total GULP energy -595211.852304 kJ/mol
# GULP energy per Si atom -12400.246923 kJ/mol
# Density = 1.975782 g / cm^3
# Si number density = 19.802890 Si / 1000 Ang^3
#
#
#
# Elastic Constant Matrix: (Units=GPa)
#
#
# Indices 1 2 3 4 5 6 
#
# 1 103.9811 40.4852 51.3025 0.0000 0.0000 0.0000
# 2 40.4852 111.8145 35.5339 0.0000 0.0000 0.0000
# 3 51.3025 35.5339 67.6113 0.0000 0.0000 0.0000
# 4 0.0000 0.0000 0.0000 20.1555 0.0000 0.0000
# 5 0.0000 0.0000 0.0000 0.0000 28.4644 0.0000
# 6 0.0000 0.0000 0.0000 0.0000 0.0000 26.2453
#
#
#
# Elastic Compliance Matrix: (Units=1/GPa)
#
#
# Indices 1 2 3 4 5 6 
#
# 1 0.015850 -0.002301 -0.010818 0.000000 0.000000 0.000000
# 2 -0.002301 0.011071 -0.004072 0.000000 0.000000 0.000000
# 3 -0.010818 -0.004072 0.025139 0.000000 0.000000 0.000000
# 4 0.000000 0.000000 0.000000 0.049614 0.000000 0.000000
# 5 0.000000 0.000000 0.000000 0.000000 0.035132 0.000000
# 6 0.000000 0.000000 0.000000 0.000000 0.000000 0.038102
#
#
# Mechanical properties :
#
#
# Convention : Reuss Voigt Hill
#
# Bulk Modulus (GPa) = 56.56787 59.78334 58.17561
# Shear Modulus (GPa) = 23.23611 25.37873 24.30742
#
# Velocity S-wave (km/s) = 3.42916 3.58378 3.50733
# Velocity P-wave (km/s) = 6.65630 6.88327 6.77074
#
# Compressibility (1/GPa) = 0.01767788
#
# Stress axis : x y z
#
# Youngs Moduli (GPa) = 63.09029 90.32837 39.77919
#
# Poissons Ratio (x) = 0.20787 0.43031
# Poissons Ratio (y) = 0.14519 0.16199
# Poissons Ratio (z) = 0.68248 0.36783
#
# Static dielectric constant tensor:
#      x y z
#    x 3.709960 0.000000 0.000000 
#    y 0.000000 3.929620 0.000000 
#    z 0.000000 0.000000 3.707570 
# 
# 
# High freq. dielectric constant tensor:
#      x y z
#    x 1.785880 0.000000 0.000000 
#    y 0.000000 1.787480 0.000000 
#    z 0.000000 0.000000 1.748040 
# 
# From -- ./inp_files/13733.got.cif
#   From: 2010.03.12/outbox.cif.g09.slc.cpg/sg67_7_cif.got.tgz:13733.got - 2010.04.10 22:41:39.
