data_PCOD8280188
_publ_section_title
;
Structure prediction by ZEFSAII (Michael W. Deem and Ramdas Pophale) SiO2 
 PCOD8280188
Probable space group: C M M A
;
_chemical_formula_sum "Si O2"
_cell_formula_units_Z 80
_cell_length_a 28.360200
_cell_length_b 16.388525
_cell_length_c 8.782947
_cell_angle_alpha 90.000000
_cell_angle_beta 90.000000
_cell_angle_gamma 90.000000
_cell_volume 4082.154326
_symmetry_space_group_name_H-M "C M M A"
_symmetry_group_IT_number 67
_symmetry_cell_setting 'orthorhombic'
loop_
_space_group_symop_operation_xyz
x,y,z
-x,1/2-y,z
x,-y,-z
-x,1/2+y,-z
-x,-y,-z
x,1/2+y,-z
-x,y,z
x,1/2-y,z
1/2+x,1/2+y,z
1/2-x,-y,z
1/2+x,1/2-y,-z
1/2-x,y,-z
1/2-x,1/2-y,-z
1/2+x,y,-z
1/2-x,1/2+y,z
1/2+x,-y,z
loop_
_atom_site_type_symbol
_atom_site_label
_atom_site_fract_x
_atom_site_fract_y
_atom_site_fract_z
Si Si1 0.124118 0.077208 0.396881
Si Si2 0.099896 0.343765 0.689074
Si Si3 0.202997 0.346775 0.196600
Si Si4 0.193232 0.846324 0.144110
Si Si5 0.945878 0.006818 0.825069
O O1 0.101676 0.146566 0.506404
O O2 0.172044 0.108422 0.322199
O O3 0.136680 0.000000 0.500000
O O4 0.085407 0.056478 0.269999
O O5 0.089499 0.250000 0.732354
O O6 0.149878 0.376909 0.754534
O O7 0.060081 0.400350 0.764985
O O8 0.196899 0.250000 0.216513
O O9 0.257356 0.375217 0.218312
O O10 0.186892 0.376985 0.029133
O O11 0.194821 0.750000 0.138331
O O12 0.000000 0.981189 0.803355
O O13 0.930478 0.000000 0.000000
#
# Coordination Sequence:
#
# PCOD8280188 Si02
#       5
#    16  16  16  16  16
#     4  10  21  34  52  78 108 142 176 215 268 322
#     4  10  20  35  56  83 112 141 177 219 265 319
#     4   9  16  31  54  77 105 142 182 218 255 304
#     4   8  16  30  52  80 106 138 177 218 261 303
#     4  10  22  41  61  78 102 139 179 222 274 323
#
# _framework density 19.597494999999999
#
# number of rings (size 3 to 8) (size 9 to 14) (size 15 to 20)
#    0.000    2.600    0.000    3.000    0.000    4.800 
#    0.000   11.000    0.000   15.000    0.000    0.000 
#    0.000    0.000    0.000    0.000    0.000    0.000 
#
# Total GULP energy -495930.296920 kJ/mol
# GULP energy per Si atom -12398.257423 kJ/mol
# Density = 1.955289 g / cm^3
# Si number density = 19.597495 Si / 1000 Ang^3
#
#
#
# Elastic Constant Matrix: (Units=GPa)
#
#
# Indices 1 2 3 4 5 6 
#
# 1 74.1388 13.7169 46.9147 0.0000 0.0000 0.0000
# 2 13.7169 36.9423 18.0485 0.0000 0.0000 0.0000
# 3 46.9147 18.0485 118.6866 0.0000 0.0000 0.0000
# 4 0.0000 0.0000 0.0000 25.7994 0.0000 0.0000
# 5 0.0000 0.0000 0.0000 0.0000 23.4436 0.0000
# 6 0.0000 0.0000 0.0000 0.0000 0.0000 29.4643
#
#
#
# Elastic Compliance Matrix: (Units=1/GPa)
#
#
# Indices 1 2 3 4 5 6 
#
# 1 0.018407 -0.003543 -0.006737 0.000000 0.000000 0.000000
# 2 -0.003543 0.029924 -0.003150 0.000000 0.000000 0.000000
# 3 -0.006737 -0.003150 0.011568 0.000000 0.000000 0.000000
# 4 0.000000 0.000000 0.000000 0.038761 0.000000 0.000000
# 5 0.000000 0.000000 0.000000 0.000000 0.042656 0.000000
# 6 0.000000 0.000000 0.000000 0.000000 0.000000 0.033939
#
#
# Mechanical properties :
#
#
# Convention : Reuss Voigt Hill
#
# Bulk Modulus (GPa) = 30.26821 43.01421 36.64121
# Shear Modulus (GPa) = 23.46019 25.81397 24.63708
#
# Velocity S-wave (km/s) = 3.46367 3.63327 3.54948
# Velocity P-wave (km/s) = 5.61021 6.29264 5.96120
#
# Compressibility (1/GPa) = 0.03303797
#
# Stress axis : x y z
#
# Youngs Moduli (GPa) = 54.32718 33.41825 86.44812
#
# Poissons Ratio (x) = 0.11841 0.58241
# Poissons Ratio (y) = 0.19249 0.27230
# Poissons Ratio (z) = 0.36601 0.10526
#
# Static dielectric constant tensor:
#      x y z
#    x 3.709440 0.000000 0.000000 
#    y 0.000000 3.356030 0.000000 
#    z 0.000000 0.000000 3.917920 
# 
# 
# High freq. dielectric constant tensor:
#      x y z
#    x 1.757150 0.000000 0.000000 
#    y 0.000000 1.747650 0.000000 
#    z 0.000000 0.000000 1.772470 
# 
# From -- ./inp_files/9897.got.cif
#   From: 2010.03.12/outbox.cif.g09.slc.cpg/sg67_5_cif.got.tgz:9897.got - 2010.04.10 22:41:39.
