data_PCOD8280651
_publ_section_title
;
Structure prediction by ZEFSAII (Michael W. Deem and Ramdas Pophale) SiO2 
 PCOD8280651
Probable space group: C M M A
;
_chemical_formula_sum "Si O2"
_cell_formula_units_Z 96
_cell_length_a 18.693954
_cell_length_b 8.852623
_cell_length_c 30.890073
_cell_angle_alpha 90.000000
_cell_angle_beta 90.000000
_cell_angle_gamma 90.000000
_cell_volume 5112.014464
_symmetry_space_group_name_H-M "C M M A"
_symmetry_group_IT_number 67
_symmetry_cell_setting 'orthorhombic'
loop_
_space_group_symop_operation_xyz
x,y,z
-x,1/2-y,z
x,-y,-z
-x,1/2+y,-z
-x,-y,-z
x,1/2+y,-z
-x,y,z
x,1/2-y,z
1/2+x,1/2+y,z
1/2-x,-y,z
1/2+x,1/2-y,-z
1/2-x,y,-z
1/2-x,1/2-y,-z
1/2+x,y,-z
1/2-x,1/2+y,z
1/2+x,-y,z
loop_
_atom_site_type_symbol
_atom_site_label
_atom_site_fract_x
_atom_site_fract_y
_atom_site_fract_z
Si Si1 0.674155 0.070867 0.954968
Si Si2 0.827507 0.428789 0.288691
Si Si3 0.917360 0.425498 0.206001
Si Si4 0.084337 0.422047 0.882414
Si Si5 0.914811 0.919974 0.457287
Si Si6 0.918564 0.428583 0.369953
O O1 0.681190 0.250000 0.959918
O O2 0.750000 0.000000 0.941963
O O3 0.617968 0.030724 0.918069
O O4 0.646776 0.000000 0.000000
O O5 0.820719 0.250000 0.290039
O O6 0.750000 0.500000 0.287926
O O7 0.870558 0.481266 0.246328
O O8 0.870398 0.488358 0.330515
O O9 0.904648 0.250000 0.195573
O O10 0.891772 0.521784 0.164846
O O11 0.000000 0.456318 0.217391
O O12 0.110497 0.250000 0.888718
O O13 0.000000 0.436171 0.887541
O O14 0.885997 0.750000 0.456588
O O15 0.000000 0.926338 0.458631
O O16 0.883071 0.000000 0.500000
O O17 0.886960 0.002957 0.414225
O O18 0.915516 0.250000 0.374016
O O19 0.000000 0.482711 0.361815
#
# Coordination Sequence:
#
# PCOD8280651 Si02
#       6
#    16  16  16  16  16  16
#     4  11  22  38  59  82 111 146 184 224 267 316
#     4  10  21  35  52  75 103 135 170 211 258 308
#     4   9  18  35  57  78 102 136 178 219 260 309
#     4  10  21  37  57  83 113 143 178 221 268 317
#     4   9  16  26  43  70 101 130 162 203 250 298
#     4   9  17  31  51  73  98 131 170 209 250 298
#
# _framework density 18.77929
#
# number of rings (size 3 to 8) (size 9 to 14) (size 15 to 20)
#    0.000    2.333    0.000    3.500    0.000    7.333 
#    0.000    1.667    0.000    5.500    0.000    3.500 
#    0.000    0.000    0.000    0.000    0.000    0.000 
#
# Total GULP energy -595301.574397 kJ/mol
# GULP energy per Si atom -12402.116133 kJ/mol
# Density = 1.873655 g / cm^3
# Si number density = 18.779290 Si / 1000 Ang^3
#
#
#
# Elastic Constant Matrix: (Units=GPa)
#
#
# Indices 1 2 3 4 5 6 
#
# 1 69.3630 34.4155 69.4032 0.0000 0.0000 0.0000
# 2 34.4155 90.5675 60.0729 0.0000 0.0000 0.0000
# 3 69.4032 60.0729 169.9649 0.0000 0.0000 0.0000
# 4 0.0000 0.0000 0.0000 34.8521 0.0000 0.0000
# 5 0.0000 0.0000 0.0000 0.0000 4.6693 0.0000
# 6 0.0000 0.0000 0.0000 0.0000 0.0000 27.2424
#
#
#
# Elastic Compliance Matrix: (Units=1/GPa)
#
#
# Indices 1 2 3 4 5 6 
#
# 1 0.025244 -0.003599 -0.009036 0.000000 0.000000 0.000000
# 2 -0.003599 0.014936 -0.003809 0.000000 0.000000 0.000000
# 3 -0.009036 -0.003809 0.010920 0.000000 0.000000 0.000000
# 4 0.000000 0.000000 0.000000 0.028693 0.000000 0.000000
# 5 0.000000 0.000000 0.000000 0.000000 0.214163 0.000000
# 6 0.000000 0.000000 0.000000 0.000000 0.000000 0.036708
#
#
# Mechanical properties :
#
#
# Convention : Reuss Voigt Hill
#
# Bulk Modulus (GPa) = 54.91305 73.07539 63.99422
# Shear Modulus (GPa) = 13.52735 24.41968 18.97351
#
# Velocity S-wave (km/s) = 2.68681 3.60995 3.18204
# Velocity P-wave (km/s) = 6.23940 7.50819 6.90300
#
# Compressibility (1/GPa) = 0.01821061
#
# Stress axis : x y z
#
# Youngs Moduli (GPa) = 39.61357 66.95301 91.57790
#
# Poissons Ratio (x) = 0.24097 0.82749
# Poissons Ratio (y) = 0.14257 0.34885
# Poissons Ratio (z) = 0.35795 0.25504
#
# Static dielectric constant tensor:
#      x y z
#    x 3.193800 0.000000 0.000000 
#    y 0.000000 3.462130 0.000000 
#    z 0.000000 0.000000 3.651160 
# 
# 
# High freq. dielectric constant tensor:
#      x y z
#    x 1.701520 0.000000 0.000000 
#    y 0.000000 1.730830 0.000000 
#    z 0.000000 0.000000 1.745720 
# 
# From -- ./inp_files/44619.got.cif
#   From: 2010.03.12/outbox.cif.g09.slc.cpg/sg67_23_cif.got.tgz:44619.got - 2010.04.10 22:41:39.
