data_PCOD8280706
_publ_section_title
;
Structure prediction by ZEFSAII (Michael W. Deem and Ramdas Pophale) SiO2 
 PCOD8280706
Probable space group: C M M A
;
_chemical_formula_sum "Si O2"
_cell_formula_units_Z 112
_cell_length_a 24.076975
_cell_length_b 13.681732
_cell_length_c 16.457651
_cell_angle_alpha 90.000000
_cell_angle_beta 90.000000
_cell_angle_gamma 90.000000
_cell_volume 5421.392485
_symmetry_space_group_name_H-M "C M M A"
_symmetry_group_IT_number 67
_symmetry_cell_setting 'orthorhombic'
loop_
_space_group_symop_operation_xyz
x,y,z
-x,1/2-y,z
x,-y,-z
-x,1/2+y,-z
-x,-y,-z
x,1/2+y,-z
-x,y,z
x,1/2-y,z
1/2+x,1/2+y,z
1/2-x,-y,z
1/2+x,1/2-y,-z
1/2-x,y,-z
1/2-x,1/2-y,-z
1/2+x,y,-z
1/2-x,1/2+y,z
1/2+x,-y,z
loop_
_atom_site_type_symbol
_atom_site_label
_atom_site_fract_x
_atom_site_fract_y
_atom_site_fract_z
Si Si1 0.850309 0.363602 0.281070
Si Si2 0.563007 0.135130 0.031569
Si Si3 0.275455 0.637412 0.717456
Si Si4 0.062108 0.134445 0.649344
Si Si5 0.879791 0.635008 0.187836
Si Si6 0.159850 0.479280 0.590356
Si Si7 0.062805 0.633669 0.851719
O O1 0.862941 0.250000 0.297537
O O2 0.786888 0.380480 0.251488
O O3 0.858242 0.420247 0.365372
O O4 0.891793 0.407644 0.212327
O O5 0.500000 0.112850 0.056942
O O6 0.573475 0.250000 0.025612
O O7 0.601429 0.086959 0.102238
O O8 0.575362 0.089862 0.942139
O O9 0.285802 0.750000 0.693823
O O10 0.316597 0.605026 0.790359
O O11 0.289681 0.574368 0.637483
O O12 0.065691 0.250000 0.640764
O O13 0.080079 0.099921 0.739512
O O14 0.104918 0.088213 0.585124
O O15 0.000000 0.096505 0.631737
O O16 0.885822 0.750000 0.178147
O O17 0.181248 0.500000 0.500000
O O18 0.068474 0.750000 0.855160
O O19 0.000000 0.605404 0.824889
#
# Coordination Sequence:
#
# PCOD8280706 Si02
#       7
#    16  16  16  16  16  16  16
#     4  10  21  36  54  76 104 141 181 217 260 318
#     4   8  12  20  41  74 106 135 172 215 254 299
#     4   9  19  36  55  76 104 136 173 221 273 321
#     4   9  18  34  56  81 111 145 177 214 264 316
#     4   8  13  24  46  76 106 135 170 215 264 308
#     4  11  23  37  56  80 105 132 172 222 272 321
#     4   8  15  29  48  72 105 142 176 210 250 302
#
# _framework density 20.658898000000001
#
# number of rings (size 3 to 8) (size 9 to 14) (size 15 to 20)
#    0.000    3.000    0.000    3.000    0.000    4.857 
#    0.000    2.143    0.000    9.429    0.000   13.000 
#    0.000    0.000    0.000    0.000    0.000    0.000 
#
# Total GULP energy -694128.814846 kJ/mol
# GULP energy per Si atom -12395.157408 kJ/mol
# Density = 2.061188 g / cm^3
# Si number density = 20.658898 Si / 1000 Ang^3
#
#
#
# Elastic Constant Matrix: (Units=GPa)
#
#
# Indices 1 2 3 4 5 6 
#
# 1 126.5784 26.3908 64.0993 0.0000 0.0000 0.0000
# 2 26.3908 33.8621 32.3542 0.0000 0.0000 0.0000
# 3 64.0993 32.3542 149.5099 0.0000 0.0000 0.0000
# 4 0.0000 0.0000 0.0000 47.4843 0.0000 0.0000
# 5 0.0000 0.0000 0.0000 0.0000 15.1308 0.0000
# 6 0.0000 0.0000 0.0000 0.0000 0.0000 23.2437
#
#
#
# Elastic Compliance Matrix: (Units=1/GPa)
#
#
# Indices 1 2 3 4 5 6 
#
# 1 0.010723 -0.004998 -0.003516 0.000000 0.000000 0.000000
# 2 -0.004998 0.039559 -0.006418 0.000000 0.000000 0.000000
# 3 -0.003516 -0.006418 0.009585 0.000000 0.000000 0.000000
# 4 0.000000 0.000000 0.000000 0.021060 0.000000 0.000000
# 5 0.000000 0.000000 0.000000 0.000000 0.066090 0.000000
# 6 0.000000 0.000000 0.000000 0.000000 0.000000 0.043022
#
#
# Mechanical properties :
#
#
# Convention : Reuss Voigt Hill
#
# Bulk Modulus (GPa) = 33.32952 61.73767 47.53360
# Shear Modulus (GPa) = 21.74844 29.64551 25.69697
#
# Velocity S-wave (km/s) = 3.24811 3.79225 3.53068
# Velocity P-wave (km/s) = 5.49866 7.00885 6.29918
#
# Compressibility (1/GPa) = 0.03000344
#
# Stress axis : x y z
#
# Youngs Moduli (GPa) = 93.26182 25.27893 104.33434
#
# Poissons Ratio (x) = 0.12634 0.36679
# Poissons Ratio (y) = 0.46610 0.66960
# Poissons Ratio (z) = 0.32787 0.16224
#
# Static dielectric constant tensor:
#      x y z
#    x 3.910650 0.000000 0.000000 
#    y 0.000000 3.759220 0.000000 
#    z 0.000000 0.000000 3.820540 
# 
# 
# High freq. dielectric constant tensor:
#      x y z
#    x 1.802180 0.000000 0.000000 
#    y 0.000000 1.818740 0.000000 
#    z 0.000000 0.000000 1.781510 
# 
# From -- ./inp_files/30141.got.cif
#   From: 2010.03.12/outbox.cif.g09.slc.cpg/sg67_16_cif.got.tgz:30141.got - 2010.04.10 22:41:39.
