data_PCOD8280098
_publ_section_title
;
Structure prediction by ZEFSAII (Michael W. Deem and Ramdas Pophale) SiO2 
 PCOD8280098
Probable space group: C M M A
;
_chemical_formula_sum "Si O2"
_cell_formula_units_Z 64
_cell_length_a 39.710399
_cell_length_b 8.497079
_cell_length_c 10.129182
_cell_angle_alpha 90.000000
_cell_angle_beta 90.000000
_cell_angle_gamma 90.000000
_cell_volume 3417.812874
_symmetry_space_group_name_H-M "C M M A"
_symmetry_group_IT_number 67
_symmetry_cell_setting 'orthorhombic'
loop_
_space_group_symop_operation_xyz
x,y,z
-x,1/2-y,z
x,-y,-z
-x,1/2+y,-z
-x,-y,-z
x,1/2+y,-z
-x,y,z
x,1/2-y,z
1/2+x,1/2+y,z
1/2-x,-y,z
1/2+x,1/2-y,-z
1/2-x,y,-z
1/2-x,1/2-y,-z
1/2+x,y,-z
1/2-x,1/2+y,z
1/2+x,-y,z
loop_
_atom_site_type_symbol
_atom_site_label
_atom_site_fract_x
_atom_site_fract_y
_atom_site_fract_z
Si Si1 0.589674 0.437247 0.358915
Si Si2 0.213510 0.935790 0.141763
Si Si3 0.837264 0.063728 0.356460
Si Si4 0.037829 0.064042 0.861263
O O1 0.577355 0.500000 0.500000
O O2 0.593636 0.250000 0.362785
O O3 0.625046 0.513504 0.318915
O O4 0.562125 0.496398 0.254184
O O5 0.215189 0.750000 0.134397
O O6 0.250000 0.000000 0.181578
O O7 0.187253 0.988999 0.250493
O O8 0.201769 0.000000 0.000000
O O9 0.833969 0.250000 0.355119
O O10 0.827089 0.000000 0.500000
O O11 0.037952 0.250000 0.866502
O O12 0.000000 0.000017 0.834742
O O13 0.051713 0.000000 0.000000
#
# Coordination Sequence:
#
# PCOD8280098 Si02
#       4
#    16  16  16  16
#     4  10  20  35  54  78 108 141 179 223 270 322
#     4  11  22  39  60  85 114 146 183 224 271 322
#     4  11  22  38  58  82 111 145 184 227 274 324
#     4   9  19  35  54  77 106 139 177 221 268 320
#
# _framework density 18.725425000000001
#
# number of rings (size 3 to 8) (size 9 to 14) (size 15 to 20)
#    0.000    1.750    0.000    7.500    0.000    4.000 
#    0.000    5.000    0.000    0.000    0.000    0.000 
#    0.000    0.000    0.000    0.000    0.000    0.000 
#
# Total GULP energy -396899.040655 kJ/mol
# GULP energy per Si atom -12403.095020 kJ/mol
# Density = 1.868281 g / cm^3
# Si number density = 18.725425 Si / 1000 Ang^3
#
#
#
# Elastic Constant Matrix: (Units=GPa)
#
#
# Indices 1 2 3 4 5 6 
#
# 1 114.5039 40.0472 111.7453 0.0000 0.0000 0.0000
# 2 40.0472 125.4431 49.2021 0.0000 0.0000 0.0000
# 3 111.7453 49.2021 163.0827 0.0000 0.0000 0.0000
# 4 0.0000 0.0000 0.0000 35.3126 0.0000 0.0000
# 5 0.0000 0.0000 0.0000 0.0000 52.3609 0.0000
# 6 0.0000 0.0000 0.0000 0.0000 0.0000 28.3365
#
#
#
# Elastic Compliance Matrix: (Units=1/GPa)
#
#
# Indices 1 2 3 4 5 6 
#
# 1 0.026615 -0.001524 -0.017777 0.000000 0.000000 0.000000
# 2 -0.001524 0.009129 -0.001710 0.000000 0.000000 0.000000
# 3 -0.017777 -0.001710 0.018829 0.000000 0.000000 0.000000
# 4 0.000000 0.000000 0.000000 0.028318 0.000000 0.000000
# 5 0.000000 0.000000 0.000000 0.000000 0.019098 0.000000
# 6 0.000000 0.000000 0.000000 0.000000 0.000000 0.035290
#
#
# Mechanical properties :
#
#
# Convention : Reuss Voigt Hill
#
# Bulk Modulus (GPa) = 79.67687 89.44654 84.56170
# Shear Modulus (GPa) = 27.25016 36.67100 31.96058
#
# Velocity S-wave (km/s) = 3.81891 4.43013 4.13583
# Velocity P-wave (km/s) = 7.87959 8.60460 8.25006
#
# Compressibility (1/GPa) = 0.01255069
#
# Stress axis : x y z
#
# Youngs Moduli (GPa) = 37.57266 109.54131 53.11061
#
# Poissons Ratio (x) = 0.16696 0.94415
# Poissons Ratio (y) = 0.05727 0.09081
# Poissons Ratio (z) = 0.66793 0.18730
#
# Static dielectric constant tensor:
#      x y z
#    x 3.566840 0.000000 0.000000 
#    y 0.000000 3.566570 0.000000 
#    z 0.000000 0.000000 3.563930 
# 
# 
# High freq. dielectric constant tensor:
#      x y z
#    x 1.729280 0.000000 0.000000 
#    y 0.000000 1.742790 0.000000 
#    z 0.000000 0.000000 1.735270 
# 
# From -- ./inp_files/15799.got.cif
#   From: 2010.03.12/outbox.cif.g09.slc.cpg/sg67_8_cif.got.tgz:15799.got - 2010.04.10 22:41:39.
