data_PCOD8280360
_publ_section_title
;
Structure prediction by ZEFSAII (Michael W. Deem and Ramdas Pophale) SiO2 
 PCOD8280360
Probable space group: C M M A
;
_chemical_formula_sum "Si O2"
_cell_formula_units_Z 96
_cell_length_a 23.297184
_cell_length_b 18.332274
_cell_length_c 12.179972
_cell_angle_alpha 90.000000
_cell_angle_beta 90.000000
_cell_angle_gamma 90.000000
_cell_volume 5201.948633
_symmetry_space_group_name_H-M "C M M A"
_symmetry_group_IT_number 67
_symmetry_cell_setting 'orthorhombic'
loop_
_space_group_symop_operation_xyz
x,y,z
-x,1/2-y,z
x,-y,-z
-x,1/2+y,-z
-x,-y,-z
x,1/2+y,-z
-x,y,z
x,1/2-y,z
1/2+x,1/2+y,z
1/2-x,-y,z
1/2+x,1/2-y,-z
1/2-x,y,-z
1/2-x,1/2-y,-z
1/2+x,y,-z
1/2-x,1/2+y,z
1/2+x,-y,z
loop_
_atom_site_type_symbol
_atom_site_label
_atom_site_fract_x
_atom_site_fract_y
_atom_site_fract_z
Si Si1 0.934332 0.667473 0.873913
Si Si2 0.065550 0.931196 0.072357
Si Si3 0.869199 0.404753 0.317872
Si Si4 0.434069 0.165857 0.481966
Si Si5 0.746491 0.914063 0.622385
Si Si6 0.876333 0.573301 0.301938
O O1 0.911753 0.750000 0.865995
O O2 0.896931 0.615411 0.797603
O O3 0.000000 0.661919 0.834069
O O4 0.928875 0.641387 0.999245
O O5 0.107368 0.921279 0.174783
O O6 0.000000 0.943097 0.112898
O O7 0.085495 0.000000 0.000000
O O8 0.896030 0.358780 0.416002
O O9 0.801465 0.385654 0.309327
O O10 0.878945 0.489975 0.343036
O O11 0.500000 0.153717 0.514368
O O12 0.421058 0.250000 0.455993
O O13 0.420785 0.119439 0.373575
O O14 0.750000 0.880002 0.500000
O O15 0.687262 0.892205 0.682372
O O16 0.750000 0.000000 0.613112
#
# Coordination Sequence:
#
# PCOD8280360 Si02
#       6
#    16  16  16  16  16  16
#     4  10  21  37  59  86 118 154 187 233 298 350
#     4  10  20  36  58  86 116 149 196 242 282 341
#     4  11  20  36  61  84 113 150 193 240 282 343
#     4  11  24  37  52  83 122 152 185 236 297 355
#     4   9  18  35  57  84 113 147 188 235 284 337
#     4  11  21  37  62  85 112 152 196 239 285 337
#
# _framework density 18.454623000000002
#
# number of rings (size 3 to 8) (size 9 to 14) (size 15 to 20)
#    0.000    1.667    3.333    2.000    0.000    4.667 
#    0.000    5.000    0.000    1.000    0.000    0.000 
#    0.000    0.000    0.000    0.000    0.000    0.000 
#
# Total GULP energy -595286.867580 kJ/mol
# GULP energy per Si atom -12401.809741 kJ/mol
# Density = 1.841262 g / cm^3
# Si number density = 18.454623 Si / 1000 Ang^3
#
#
#
# Elastic Constant Matrix: (Units=GPa)
#
#
# Indices 1 2 3 4 5 6 
#
# 1 117.7926 40.6230 57.8128 0.0000 0.0000 0.0000
# 2 40.6230 78.3214 19.6571 0.0000 0.0000 0.0000
# 3 57.8128 19.6571 104.7505 0.0000 0.0000 0.0000
# 4 0.0000 0.0000 0.0000 23.4318 0.0000 0.0000
# 5 0.0000 0.0000 0.0000 0.0000 31.1877 0.0000
# 6 0.0000 0.0000 0.0000 0.0000 0.0000 16.4233
#
#
#
# Elastic Compliance Matrix: (Units=1/GPa)
#
#
# Indices 1 2 3 4 5 6 
#
# 1 0.013512 -0.005391 -0.006446 0.000000 0.000000 0.000000
# 2 -0.005391 0.015550 0.000057 0.000000 0.000000 0.000000
# 3 -0.006446 0.000057 0.013093 0.000000 0.000000 0.000000
# 4 0.000000 0.000000 0.000000 0.042677 0.000000 0.000000
# 5 0.000000 0.000000 0.000000 0.000000 0.032064 0.000000
# 6 0.000000 0.000000 0.000000 0.000000 0.000000 0.060889
#
#
# Mechanical properties :
#
#
# Convention : Reuss Voigt Hill
#
# Bulk Modulus (GPa) = 53.77412 59.67226 56.72319
# Shear Modulus (GPa) = 24.09143 26.39332 25.24237
#
# Velocity S-wave (km/s) = 3.61701 3.78587 3.70240
# Velocity P-wave (km/s) = 6.82975 7.17741 7.00574
#
# Compressibility (1/GPa) = 0.01859630
#
# Stress axis : x y z
#
# Youngs Moduli (GPa) = 74.00699 64.31072 76.37460
#
# Poissons Ratio (x) = 0.34667 0.49231
# Poissons Ratio (y) = 0.39894 -0.00436
# Poissons Ratio (z) = 0.47705 -0.00368
#
# Static dielectric constant tensor:
#      x y z
#    x 3.616730 0.000000 0.000000 
#    y 0.000000 3.361680 0.000000 
#    z 0.000000 0.000000 3.301220 
# 
# 
# High freq. dielectric constant tensor:
#      x y z
#    x 1.716280 0.000000 0.000000 
#    y 0.000000 1.707180 0.000000 
#    z 0.000000 0.000000 1.710510 
# 
# From -- ./inp_files/19607.got.cif
#   From: 2010.03.12/outbox.cif.g09.slc.cpg/sg67_10_cif.got.tgz:19607.got - 2010.04.10 22:41:39.
