data_PCOD8280251
_publ_section_title
;
Structure prediction by ZEFSAII (Michael W. Deem and Ramdas Pophale) SiO2 
 PCOD8280251
Probable space group: C M M A
;
_chemical_formula_sum "Si O2"
_cell_formula_units_Z 80
_cell_length_a 25.795204
_cell_length_b 15.357113
_cell_length_c 8.737773
_cell_angle_alpha 90.000000
_cell_angle_beta 90.000000
_cell_angle_gamma 90.000000
_cell_volume 3461.380196
_symmetry_space_group_name_H-M "C M M A"
_symmetry_group_IT_number 67
_symmetry_cell_setting 'orthorhombic'
loop_
_space_group_symop_operation_xyz
x,y,z
-x,1/2-y,z
x,-y,-z
-x,1/2+y,-z
-x,-y,-z
x,1/2+y,-z
-x,y,z
x,1/2-y,z
1/2+x,1/2+y,z
1/2-x,-y,z
1/2+x,1/2-y,-z
1/2-x,y,-z
1/2-x,1/2-y,-z
1/2+x,y,-z
1/2-x,1/2+y,z
1/2+x,-y,z
loop_
_atom_site_type_symbol
_atom_site_label
_atom_site_fract_x
_atom_site_fract_y
_atom_site_fract_z
Si Si1 0.740978 0.146708 0.823118
Si Si2 0.150789 0.083056 0.385654
Si Si3 0.559250 0.149713 0.792428
Si Si4 0.556482 0.353425 0.143075
Si Si5 0.845465 0.345600 0.688712
O O1 0.731646 0.250000 0.798289
O O2 0.693588 0.093235 0.747715
O O3 0.792381 0.108907 0.741105
O O4 0.750000 0.123999 0.000000
O O5 0.094511 0.085289 0.307459
O O6 0.153892 0.162746 0.505120
O O7 0.157653 0.000000 0.500000
O O8 0.500000 0.138009 0.739868
O O9 0.576797 0.250000 0.770898
O O10 0.566562 0.121592 0.967837
O O11 0.500000 0.391143 0.194494
O O12 0.554605 0.250000 0.163385
O O13 0.603072 0.394535 0.245509
O O14 0.844970 0.250000 0.763076
#
# Coordination Sequence:
#
# PCOD8280251 Si02
#       5
#    16  16  16  16  16
#     4  10  21  40  66  88 109 149 210 270 313 363
#     4  12  25  38  54  84 127 163 195 245 321 392
#     4   9  18  36  62  86 112 155 209 257 298 353
#     4   8  15  31  58  90 118 147 194 253 304 353
#     4  10  20  35  58  86 114 148 195 251 310 371
#
# _framework density 23.112166999999999
#
# number of rings (size 3 to 8) (size 9 to 14) (size 15 to 20)
#    0.000    2.200    0.000    4.800    0.000    7.600 
#    0.000    7.000    0.000    2.400    0.000    0.000 
#    0.000    0.000    0.000    0.000    0.000    0.000 
#
# Total GULP energy -495594.592384 kJ/mol
# GULP energy per Si atom -12389.864810 kJ/mol
# Density = 2.305956 g / cm^3
# Si number density = 23.112167 Si / 1000 Ang^3
#
#
#
# Elastic Constant Matrix: (Units=GPa)
#
#
# Indices 1 2 3 4 5 6 
#
# 1 186.7772 23.4635 86.0435 0.0000 0.0000 0.0000
# 2 23.4635 57.5792 18.8434 0.0000 0.0000 0.0000
# 3 86.0435 18.8434 137.5288 0.0000 0.0000 0.0000
# 4 0.0000 0.0000 0.0000 22.1081 0.0000 0.0000
# 5 0.0000 0.0000 0.0000 0.0000 39.3988 0.0000
# 6 0.0000 0.0000 0.0000 0.0000 0.0000 6.9700
#
#
#
# Elastic Compliance Matrix: (Units=1/GPa)
#
#
# Indices 1 2 3 4 5 6 
#
# 1 0.007665 -0.001627 -0.004572 0.000000 0.000000 0.000000
# 2 -0.001627 0.018528 -0.001521 0.000000 0.000000 0.000000
# 3 -0.004572 -0.001521 0.010340 0.000000 0.000000 0.000000
# 4 0.000000 0.000000 0.000000 0.045232 0.000000 0.000000
# 5 0.000000 0.000000 0.000000 0.000000 0.025381 0.000000
# 6 0.000000 0.000000 0.000000 0.000000 0.000000 0.143472
#
#
# Mechanical properties :
#
#
# Convention : Reuss Voigt Hill
#
# Bulk Modulus (GPa) = 47.40960 70.95403 59.18182
# Shear Modulus (GPa) = 18.30898 30.59770 24.45334
#
# Velocity S-wave (km/s) = 2.81762 3.64246 3.25626
# Velocity P-wave (km/s) = 5.58056 6.96107 6.30869
#
# Compressibility (1/GPa) = 0.02109278
#
# Stress axis : x y z
#
# Youngs Moduli (GPa) = 130.46680 53.97222 96.70917
#
# Poissons Ratio (x) = 0.08781 0.44220
# Poissons Ratio (y) = 0.21227 0.14706
# Poissons Ratio (z) = 0.59656 0.08207
#
# Static dielectric constant tensor:
#      x y z
#    x 4.657880 0.000000 0.000000 
#    y 0.000000 3.820000 0.000000 
#    z 0.000000 0.000000 4.291670 
# 
# 
# High freq. dielectric constant tensor:
#      x y z
#    x 1.930070 0.000000 0.000000 
#    y 0.000000 1.883970 0.000000 
#    z 0.000000 0.000000 1.912000 
# 
# From -- ./inp_files/13522.got.cif
#   From: 2010.03.12/outbox.cif.g09.slc.cpg/sg67_7_cif.got.tgz:13522.got - 2010.04.10 22:41:39.
