data_PCOD8280407
_publ_section_title
;
Structure prediction by ZEFSAII (Michael W. Deem and Ramdas Pophale) SiO2 
 PCOD8280407
Probable space group: C M M A
;
_chemical_formula_sum "Si O2"
_cell_formula_units_Z 68
_cell_length_a 14.432005
_cell_length_b 9.061316
_cell_length_c 22.103771
_cell_angle_alpha 90.000000
_cell_angle_beta 90.000000
_cell_angle_gamma 90.000000
_cell_volume 2890.575513
_symmetry_space_group_name_H-M "C M M A"
_symmetry_group_IT_number 67
_symmetry_cell_setting 'orthorhombic'
loop_
_space_group_symop_operation_xyz
x,y,z
-x,1/2-y,z
x,-y,-z
-x,1/2+y,-z
-x,-y,-z
x,1/2+y,-z
-x,y,z
x,1/2-y,z
1/2+x,1/2+y,z
1/2-x,-y,z
1/2+x,1/2-y,-z
1/2-x,y,-z
1/2-x,1/2-y,-z
1/2+x,y,-z
1/2-x,1/2+y,z
1/2+x,-y,z
loop_
_atom_site_type_symbol
_atom_site_label
_atom_site_fract_x
_atom_site_fract_y
_atom_site_fract_z
Si Si1 0.250000 0.500000 0.500000
Si Si2 0.395508 0.912653 0.405423
Si Si3 0.110419 0.085868 0.711199
Si Si4 0.104279 0.911368 0.823401
Si Si5 0.850026 0.572637 0.058824
O O1 0.320617 0.405210 0.540689
O O2 0.500000 0.959388 0.427587
O O3 0.401509 0.750000 0.376998
O O4 0.358595 0.021160 0.353327
O O5 0.151531 0.250000 0.716018
O O6 0.000000 0.088402 0.715786
O O7 0.154011 0.990167 0.766354
O O8 0.151095 0.750000 0.837554
O O9 0.000000 0.880974 0.803868
O O10 0.100532 0.022153 0.880172
O O11 0.848574 0.750000 0.053427
O O12 0.750000 0.500000 0.062073
O O13 0.900586 0.500000 0.000000
#
# Coordination Sequence:
#
# PCOD8280407 Si02
#       5
#     4  16  16  16  16
#     4  12  24  40  64  96 126 160 212 258 306 374
#     4  10  22  41  64  90 124 165 206 255 314 373
#     4   9  18  35  60  88 118 154 196 243 299 361
#     4  10  20  36  60  89 120 154 196 247 303 361
#     4  11  22  38  58  81 115 157 202 248 301 362
#
# _framework density 23.524726000000001
#
# number of rings (size 3 to 8) (size 9 to 14) (size 15 to 20)
#    0.000    1.882    0.000    4.941    0.000    6.588 
#    2.118    2.353    0.000    0.000    0.000    0.000 
#    0.000    0.000    0.000    0.000    0.000    0.000 
#
# Total GULP energy -421281.803364 kJ/mol
# GULP energy per Si atom -12390.641275 kJ/mol
# Density = 2.347118 g / cm^3
# Si number density = 23.524726 Si / 1000 Ang^3
#
#
#
# Elastic Constant Matrix: (Units=GPa)
#
#
# Indices 1 2 3 4 5 6 
#
# 1 61.5657 24.3040 32.5659 0.0000 0.0000 0.0000
# 2 24.3040 218.1872 85.4959 0.0000 0.0000 0.0000
# 3 32.5659 85.4959 173.8619 0.0000 0.0000 0.0000
# 4 0.0000 0.0000 0.0000 39.9677 0.0000 0.0000
# 5 0.0000 0.0000 0.0000 0.0000 29.4551 0.0000
# 6 0.0000 0.0000 0.0000 0.0000 0.0000 17.3860
#
#
#
# Elastic Compliance Matrix: (Units=1/GPa)
#
#
# Indices 1 2 3 4 5 6 
#
# 1 0.018157 -0.000855 -0.002981 0.000000 0.000000 0.000000
# 2 -0.000855 0.005717 -0.002651 0.000000 0.000000 0.000000
# 3 -0.002981 -0.002651 0.007614 0.000000 0.000000 0.000000
# 4 0.000000 0.000000 0.000000 0.025020 0.000000 0.000000
# 5 0.000000 0.000000 0.000000 0.000000 0.033950 0.000000
# 6 0.000000 0.000000 0.000000 0.000000 0.000000 0.057518
#
#
# Mechanical properties :
#
#
# Convention : Reuss Voigt Hill
#
# Bulk Modulus (GPa) = 54.01122 82.03851 68.02487
# Shear Modulus (GPa) = 29.91847 38.11168 34.01508
#
# Velocity S-wave (km/s) = 3.57008 4.02937 3.80666
# Velocity P-wave (km/s) = 6.32481 7.52309 6.94982
#
# Compressibility (1/GPa) = 0.01851467
#
# Stress axis : x y z
#
# Youngs Moduli (GPa) = 55.07570 174.90592 131.33974
#
# Poissons Ratio (x) = 0.14946 0.39149
# Poissons Ratio (y) = 0.04706 0.34824
# Poissons Ratio (z) = 0.16417 0.46375
#
# Static dielectric constant tensor:
#      x y z
#    x 3.910980 0.000000 0.000000 
#    y 0.000000 4.461690 0.000000 
#    z 0.000000 0.000000 4.543010 
# 
# 
# High freq. dielectric constant tensor:
#      x y z
#    x 1.910630 0.000000 0.000000 
#    y 0.000000 1.939560 0.000000 
#    z 0.000000 0.000000 1.934160 
# 
# From -- ./inp_files/42097.got.cif
#   From: 2010.03.12/outbox.cif.g09.slc.cpg/sg67_22_cif.got.tgz:42097.got - 2010.04.10 22:41:39.
