data_PCOD8280595
_publ_section_title
;
Structure prediction by ZEFSAII (Michael W. Deem and Ramdas Pophale) SiO2 
 PCOD8280595
Probable space group: C M M A
;
_chemical_formula_sum "Si O2"
_cell_formula_units_Z 64
_cell_length_a 18.554257
_cell_length_b 14.357928
_cell_length_c 10.257843
_cell_angle_alpha 90.000000
_cell_angle_beta 90.000000
_cell_angle_gamma 90.000000
_cell_volume 2732.696413
_symmetry_space_group_name_H-M "C M M A"
_symmetry_group_IT_number 67
_symmetry_cell_setting 'orthorhombic'
loop_
_space_group_symop_operation_xyz
x,y,z
-x,1/2-y,z
x,-y,-z
-x,1/2+y,-z
-x,-y,-z
x,1/2+y,-z
-x,y,z
x,1/2-y,z
1/2+x,1/2+y,z
1/2-x,-y,z
1/2+x,1/2-y,-z
1/2-x,y,-z
1/2-x,1/2-y,-z
1/2+x,y,-z
1/2-x,1/2+y,z
1/2+x,-y,z
loop_
_atom_site_type_symbol
_atom_site_label
_atom_site_fract_x
_atom_site_fract_y
_atom_site_fract_z
Si Si1 0.918362 0.428310 0.706704
Si Si2 0.580899 0.358244 0.002194
Si Si3 0.583707 0.250000 0.457517
Si Si4 0.293030 0.250000 0.634454
Si Si5 0.813239 0.068699 0.214827
O O1 0.891878 0.339912 0.624526
O O2 0.865456 0.515866 0.680584
O O3 0.000000 0.454999 0.667416
O O4 0.912320 0.406738 0.859158
O O5 0.500000 0.374991 0.945976
O O6 0.596489 0.250000 0.020152
O O7 0.640181 0.401660 0.908973
O O8 0.500000 0.250000 0.486158
O O9 0.622171 0.250000 0.597794
O O10 0.250000 0.250000 0.500000
O O11 0.276223 0.341831 0.718347
O O12 0.750000 0.000000 0.168218
#
# Coordination Sequence:
#
# PCOD8280595 Si02
#       5
#    16  16   8   8  16
#     4  10  21  41  69 102 137 172 207 263 336 400
#     4  10  20  41  72 103 137 172 207 261 335 401
#     4  10  22  41  68  99 128 167 224 275 320 382
#     4  12  28  49  64  86 126 181 227 278 331 378
#     4  12  26  43  66  96 130 175 225 273 328 392
#
# _framework density 23.420090999999999
#
# number of rings (size 3 to 8) (size 9 to 14) (size 15 to 20)
#    0.000    1.250    2.500    3.000    0.000    9.500 
#    0.000    3.750    0.000    0.000    0.000    0.000 
#    0.000    0.000    0.000    0.000    0.000    0.000 
#
# Total GULP energy -396885.674476 kJ/mol
# GULP energy per Si atom -12402.677327 kJ/mol
# Density = 2.336679 g / cm^3
# Si number density = 23.420091 Si / 1000 Ang^3
#
#
#
# Elastic Constant Matrix: (Units=GPa)
#
#
# Indices 1 2 3 4 5 6 
#
# 1 89.3103 40.5700 17.1889 0.0000 0.0000 0.0000
# 2 40.5700 139.6165 14.4255 0.0000 0.0000 0.0000
# 3 17.1889 14.4255 54.6487 0.0000 0.0000 0.0000
# 4 0.0000 0.0000 0.0000 12.3726 0.0000 0.0000
# 5 0.0000 0.0000 0.0000 0.0000 33.2680 0.0000
# 6 0.0000 0.0000 0.0000 0.0000 0.0000 42.8612
#
#
#
# Elastic Compliance Matrix: (Units=1/GPa)
#
#
# Indices 1 2 3 4 5 6 
#
# 1 0.013451 -0.003569 -0.003289 0.000000 0.000000 0.000000
# 2 -0.003569 0.008310 -0.001071 0.000000 0.000000 0.000000
# 3 -0.003289 -0.001071 0.019616 0.000000 0.000000 0.000000
# 4 0.000000 0.000000 0.000000 0.080824 0.000000 0.000000
# 5 0.000000 0.000000 0.000000 0.000000 0.030059 0.000000
# 6 0.000000 0.000000 0.000000 0.000000 0.000000 0.023331
#
#
# Mechanical properties :
#
#
# Convention : Reuss Voigt Hill
#
# Bulk Modulus (GPa) = 39.18538 47.54935 43.36736
# Shear Modulus (GPa) = 25.00564 31.79311 28.39938
#
# Velocity S-wave (km/s) = 3.27111 3.68844 3.48603
# Velocity P-wave (km/s) = 5.57088 6.20374 5.89581
#
# Compressibility (1/GPa) = 0.02551972
#
# Stress axis : x y z
#
# Youngs Moduli (GPa) = 74.34363 120.33432 50.97917
#
# Poissons Ratio (x) = 0.42945 0.16766
# Poissons Ratio (y) = 0.26532 0.05460
# Poissons Ratio (z) = 0.24450 0.12889
#
# Static dielectric constant tensor:
#      x y z
#    x 4.448770 0.000000 0.000000 
#    y 0.000000 4.640170 0.000000 
#    z 0.000000 0.000000 3.928730 
# 
# 
# High freq. dielectric constant tensor:
#      x y z
#    x 1.938530 0.000000 0.000000 
#    y 0.000000 1.947550 0.000000 
#    z 0.000000 0.000000 1.903520 
# 
# From -- ./inp_files/18984.got.cif
#   From: 2010.03.12/outbox.cif.g09.slc.cpg/sg67_10_cif.got.tgz:18984.got - 2010.04.10 22:41:39.
