data_PCOD8280674
_publ_section_title
;
Structure prediction by ZEFSAII (Michael W. Deem and Ramdas Pophale) SiO2 
 PCOD8280674
Probable space group: C M M A
;
_chemical_formula_sum "Si O2"
_cell_formula_units_Z 64
_cell_length_a 14.061761
_cell_length_b 24.985126
_cell_length_c 9.851785
_cell_angle_alpha 90.000000
_cell_angle_beta 90.000000
_cell_angle_gamma 90.000000
_cell_volume 3461.275606
_symmetry_space_group_name_H-M "C M M A"
_symmetry_group_IT_number 67
_symmetry_cell_setting 'orthorhombic'
loop_
_space_group_symop_operation_xyz
x,y,z
-x,1/2-y,z
x,-y,-z
-x,1/2+y,-z
-x,-y,-z
x,1/2+y,-z
-x,y,z
x,1/2-y,z
1/2+x,1/2+y,z
1/2-x,-y,z
1/2+x,1/2-y,-z
1/2-x,y,-z
1/2-x,1/2-y,-z
1/2+x,y,-z
1/2-x,1/2+y,z
1/2+x,-y,z
loop_
_atom_site_type_symbol
_atom_site_label
_atom_site_fract_x
_atom_site_fract_y
_atom_site_fract_z
Si Si1 0.154729 0.250000 0.586277
Si Si2 0.500000 0.921528 0.738073
Si Si3 0.360288 0.993593 0.341298
Si Si4 0.000000 0.402321 0.266392
Si Si5 0.500000 0.158095 0.015930
Si Si6 0.500000 0.834256 0.518135
Si Si7 0.601290 0.750000 0.872118
O O1 0.250000 0.250000 0.500000
O O2 0.096479 0.197305 0.548644
O O3 0.179166 0.250000 0.750813
O O4 0.500000 0.888723 0.600226
O O5 0.407261 0.958552 0.742556
O O6 0.500000 0.884149 0.865723
O O7 0.404394 0.937426 0.289488
O O8 0.383279 0.000000 0.500000
O O9 0.250000 0.000000 0.309451
O O10 0.000000 0.376038 0.118923
O O11 0.000000 0.350467 0.361350
O O12 0.595403 0.196408 0.032502
O O13 0.500000 0.750000 0.787039
#
# Coordination Sequence:
#
# PCOD8280674 Si02
#       7
#     8   8  16   8   8   8   8
#     4  11  21  34  61  93 113 145 200 248 285 338
#     4  11  17  37  63  76 109 165 187 234 293 357
#     4  10  21  35  56  88 119 145 192 255 295 334
#     4  11  21  37  57  91 111 157 198 235 290 358
#     4   9  19  35  63  78 116 160 188 225 300 347
#     4  11  19  37  57  85 118 142 202 245 271 347
#     4   8  16  37  57  83 115 150 188 230 290 345
#
# _framework density 18.490293000000001
#
# number of rings (size 3 to 8) (size 9 to 14) (size 15 to 20)
#    0.750    1.000    6.250    0.750    0.000    6.000 
#    0.000    2.500    0.000    1.500    0.000    0.000 
#    0.000    0.000    0.000    0.000    0.000    0.000 
#
# Total GULP energy -396444.077393 kJ/mol
# GULP energy per Si atom -12388.877419 kJ/mol
# Density = 1.844821 g / cm^3
# Si number density = 18.490293 Si / 1000 Ang^3
#
#
#
# Elastic Constant Matrix: (Units=GPa)
#
#
# Indices 1 2 3 4 5 6 
#
# 1 109.3909 42.6722 31.4345 0.0000 0.0000 0.0000
# 2 42.6722 117.1450 30.7516 0.0000 0.0000 0.0000
# 3 31.4345 30.7516 50.2033 0.0000 0.0000 0.0000
# 4 0.0000 0.0000 0.0000 37.0304 0.0000 0.0000
# 5 0.0000 0.0000 0.0000 0.0000 7.8993 0.0000
# 6 0.0000 0.0000 0.0000 0.0000 0.0000 45.2451
#
#
#
# Elastic Compliance Matrix: (Units=1/GPa)
#
#
# Indices 1 2 3 4 5 6 
#
# 1 0.011886 -0.002831 -0.005708 0.000000 0.000000 0.000000
# 2 -0.002831 0.010847 -0.004871 0.000000 0.000000 0.000000
# 3 -0.005708 -0.004871 0.026477 0.000000 0.000000 0.000000
# 4 0.000000 0.000000 0.000000 0.027005 0.000000 0.000000
# 5 0.000000 0.000000 0.000000 0.000000 0.126594 0.000000
# 6 0.000000 0.000000 0.000000 0.000000 0.000000 0.022102
#
#
# Mechanical properties :
#
#
# Convention : Reuss Voigt Hill
#
# Bulk Modulus (GPa) = 44.66599 54.05063 49.35831
# Shear Modulus (GPa) = 19.29053 29.49368 24.39210
#
# Velocity S-wave (km/s) = 3.23349 3.99819 3.63600
# Velocity P-wave (km/s) = 6.17653 7.11403 6.66179
#
# Compressibility (1/GPa) = 0.02238840
#
# Stress axis : x y z
#
# Youngs Moduli (GPa) = 84.13038 92.19562 37.76875
#
# Poissons Ratio (x) = 0.26104 0.21559
# Poissons Ratio (y) = 0.23820 0.18398
# Poissons Ratio (z) = 0.48024 0.44909
#
# Static dielectric constant tensor:
#      x y z
#    x 3.165880 0.000000 0.000000 
#    y 0.000000 3.600650 0.000000 
#    z 0.000000 0.000000 3.394990 
# 
# 
# High freq. dielectric constant tensor:
#      x y z
#    x 1.687370 0.000000 0.000000 
#    y 0.000000 1.736300 0.000000 
#    z 0.000000 0.000000 1.710070 
# 
# From -- ./inp_files/8112.got.cif
#   From: 2010.03.12/outbox.cif.g09.slc.cpg/sg67_5_cif.got.tgz:8112.got - 2010.04.10 22:41:39.
