data_PCOD8280705
_publ_section_title
;
Structure prediction by ZEFSAII (Michael W. Deem and Ramdas Pophale) SiO2 
 PCOD8280705
Probable space group: C M M A
;
_chemical_formula_sum "Si O2"
_cell_formula_units_Z 88
_cell_length_a 16.583457
_cell_length_b 8.752000
_cell_length_c 29.963283
_cell_angle_alpha 90.000000
_cell_angle_beta 90.000000
_cell_angle_gamma 90.000000
_cell_volume 4348.823423
_symmetry_space_group_name_H-M "C M M A"
_symmetry_group_IT_number 67
_symmetry_cell_setting 'orthorhombic'
loop_
_space_group_symop_operation_xyz
x,y,z
-x,1/2-y,z
x,-y,-z
-x,1/2+y,-z
-x,-y,-z
x,1/2+y,-z
-x,y,z
x,1/2-y,z
1/2+x,1/2+y,z
1/2-x,-y,z
1/2+x,1/2-y,-z
1/2-x,y,-z
1/2-x,1/2-y,-z
1/2+x,y,-z
1/2-x,1/2+y,z
1/2+x,-y,z
loop_
_atom_site_type_symbol
_atom_site_label
_atom_site_fract_x
_atom_site_fract_y
_atom_site_fract_z
Si Si1 0.907612 0.920660 0.223961
Si Si2 0.905651 0.582028 0.042888
Si Si3 0.836896 0.931734 0.400089
Si Si4 0.833016 0.930017 0.695673
Si Si5 0.500000 0.569169 0.548623
Si Si6 0.164357 0.567918 0.132978
O O1 0.873810 0.750000 0.234797
O O2 0.866051 0.995991 0.180560
O O3 0.000000 0.908968 0.211465
O O4 0.898161 0.030643 0.266677
O O5 0.867055 0.750000 0.043538
O O6 0.888152 0.505723 0.091101
O O7 0.000000 0.588918 0.035618
O O8 0.865663 0.500000 0.000000
O O9 0.828109 0.750000 0.400836
O O10 0.915937 0.985621 0.428082
O O11 0.750000 0.000000 0.417304
O O12 0.855780 0.988808 0.350487
O O13 0.826865 0.750000 0.687491
O O14 0.750000 0.000000 0.714079
O O15 0.500000 0.750000 0.546281
O O16 0.500000 0.500000 0.500000
O O17 0.162624 0.750000 0.135914
O O18 0.250000 0.500000 0.123138
#
# Coordination Sequence:
#
# PCOD8280705 Si02
#       6
#    16  16  16  16   8  16
#     4  10  21  37  57  80 109 147 186 229 282 339
#     4   9  18  34  55  77 101 131 171 217 266 324
#     4  10  21  40  63  91 123 164 207 253 305 362
#     4  11  22  37  58  86 117 152 192 238 289 345
#     4  10  24  42  64  92 126 164 208 254 307 362
#     4  10  21  36  54  76 104 140 179 221 270 327
#
# _framework density 20.235358999999999
#
# number of rings (size 3 to 8) (size 9 to 14) (size 15 to 20)
#    0.000    2.000    0.000    4.364    1.273    7.636 
#    0.000    3.636    0.000    3.273    0.000    0.000 
#    0.000    0.000    0.000    0.000    0.000    0.000 
#
# Total GULP energy -545308.685044 kJ/mol
# GULP energy per Si atom -12393.379206 kJ/mol
# Density = 2.018930 g / cm^3
# Si number density = 20.235359 Si / 1000 Ang^3
#
#
#
# Elastic Constant Matrix: (Units=GPa)
#
#
# Indices 1 2 3 4 5 6 
#
# 1 89.9219 28.9811 56.4245 0.0000 0.0000 0.0000
# 2 28.9811 60.5774 36.2093 0.0000 0.0000 0.0000
# 3 56.4245 36.2093 143.1216 0.0000 0.0000 0.0000
# 4 0.0000 0.0000 0.0000 30.5722 0.0000 0.0000
# 5 0.0000 0.0000 0.0000 0.0000 32.9592 0.0000
# 6 0.0000 0.0000 0.0000 0.0000 0.0000 26.7853
#
#
#
# Elastic Compliance Matrix: (Units=1/GPa)
#
#
# Indices 1 2 3 4 5 6 
#
# 1 0.015755 -0.004506 -0.005071 0.000000 0.000000 0.000000
# 2 -0.004506 0.020738 -0.003470 0.000000 0.000000 0.000000
# 3 -0.005071 -0.003470 0.009864 0.000000 0.000000 0.000000
# 4 0.000000 0.000000 0.000000 0.032709 0.000000 0.000000
# 5 0.000000 0.000000 0.000000 0.000000 0.030341 0.000000
# 6 0.000000 0.000000 0.000000 0.000000 0.000000 0.037334
#
#
# Mechanical properties :
#
#
# Convention : Reuss Voigt Hill
#
# Bulk Modulus (GPa) = 49.35304 59.65007 54.50156
# Shear Modulus (GPa) = 27.84111 29.53041 28.68576
#
# Velocity S-wave (km/s) = 3.71329 3.82428 3.76920
# Velocity P-wave (km/s) = 6.54424 7.00302 6.77752
#
# Compressibility (1/GPa) = 0.02026218
#
# Stress axis : x y z
#
# Youngs Moduli (GPa) = 63.47085 48.22098 101.37562
#
# Poissons Ratio (x) = 0.21730 0.51411
# Poissons Ratio (y) = 0.28602 0.35178
# Poissons Ratio (z) = 0.32188 0.16733
#
# Static dielectric constant tensor:
#      x y z
#    x 3.711390 0.000000 0.000000 
#    y 0.000000 3.705780 0.000000 
#    z 0.000000 0.000000 3.729580 
# 
# 
# High freq. dielectric constant tensor:
#      x y z
#    x 1.787620 0.000000 0.000000 
#    y 0.000000 1.777610 0.000000 
#    z 0.000000 0.000000 1.801960 
# 
# From -- ./inp_files/45199.got.cif
#   From: 2010.03.12/outbox.cif.g09.slc.cpg/sg67_23_cif.got.tgz:45199.got - 2010.04.10 22:41:39.
