data_PCOD8280387
_publ_section_title
;
Structure prediction by ZEFSAII (Michael W. Deem and Ramdas Pophale) SiO2 
 PCOD8280387
Probable space group: C M M A
;
_chemical_formula_sum "Si O2"
_cell_formula_units_Z 80
_cell_length_a 14.670475
_cell_length_b 17.668585
_cell_length_c 15.049750
_cell_angle_alpha 90.000000
_cell_angle_beta 90.000000
_cell_angle_gamma 90.000000
_cell_volume 3900.993543
_symmetry_space_group_name_H-M "C M M A"
_symmetry_group_IT_number 67
_symmetry_cell_setting 'orthorhombic'
loop_
_space_group_symop_operation_xyz
x,y,z
-x,1/2-y,z
x,-y,-z
-x,1/2+y,-z
-x,-y,-z
x,1/2+y,-z
-x,y,z
x,1/2-y,z
1/2+x,1/2+y,z
1/2-x,-y,z
1/2+x,1/2-y,-z
1/2-x,y,-z
1/2-x,1/2-y,-z
1/2+x,y,-z
1/2-x,1/2+y,z
1/2+x,-y,z
loop_
_atom_site_type_symbol
_atom_site_label
_atom_site_fract_x
_atom_site_fract_y
_atom_site_fract_z
Si Si1 0.736648 0.335059 0.655265
Si Si2 0.855514 0.014613 0.096200
Si Si3 0.398938 0.437816 0.276137
Si Si4 0.397855 0.832588 0.181420
Si Si5 0.103755 0.057898 0.421824
O O1 0.761904 0.250000 0.624755
O O2 0.828312 0.376341 0.687495
O O3 0.668269 0.334783 0.736264
O O4 0.680709 0.376275 0.575199
O O5 0.873404 0.102842 0.111980
O O6 0.750000 0.000000 0.091361
O O7 0.893690 0.958231 0.171812
O O8 0.901364 0.000000 0.000000
O O9 0.500000 0.405605 0.296425
O O10 0.383208 0.516445 0.327418
O O11 0.500000 0.845530 0.218045
O O12 0.389706 0.750000 0.134178
O O13 0.000000 0.089135 0.433002
O O14 0.126854 0.000000 0.500000
#
# Coordination Sequence:
#
# PCOD8280387 Si02
#       5
#    16  16  16  16  16
#     4  11  22  38  61  90 124 161 202 252 311 371
#     4  11  21  37  61  91 121 164 213 257 312 380
#     4  11  22  39  60  84 121 164 209 258 307 365
#     4  10  20  36  59  87 118 151 195 255 312 360
#     4  10  21  39  65  94 121 155 200 252 307 364
#
# _framework density 20.507594999999998
#
# number of rings (size 3 to 8) (size 9 to 14) (size 15 to 20)
#    0.000    1.400    4.000    1.800    0.000    4.800 
#    0.000    5.000    0.000    3.600    0.000    0.000 
#    0.000    0.000    0.000    0.000    0.000    0.000 
#
# Total GULP energy -495819.390944 kJ/mol
# GULP energy per Si atom -12395.484774 kJ/mol
# Density = 2.046092 g / cm^3
# Si number density = 20.507595 Si / 1000 Ang^3
#
#
#
# Elastic Constant Matrix: (Units=GPa)
#
#
# Indices 1 2 3 4 5 6 
#
# 1 140.9891 74.6299 21.6330 0.0000 0.0000 0.0000
# 2 74.6299 142.2837 24.0659 0.0000 0.0000 0.0000
# 3 21.6330 24.0659 72.0371 0.0000 0.0000 0.0000
# 4 0.0000 0.0000 0.0000 27.9704 0.0000 0.0000
# 5 0.0000 0.0000 0.0000 0.0000 14.3032 0.0000
# 6 0.0000 0.0000 0.0000 0.0000 0.0000 27.5988
#
#
#
# Elastic Compliance Matrix: (Units=1/GPa)
#
#
# Indices 1 2 3 4 5 6 
#
# 1 0.009935 -0.004988 -0.001317 0.000000 0.000000 0.000000
# 2 -0.004988 0.009954 -0.001827 0.000000 0.000000 0.000000
# 3 -0.001317 -0.001827 0.014888 0.000000 0.000000 0.000000
# 4 0.000000 0.000000 0.000000 0.035752 0.000000 0.000000
# 5 0.000000 0.000000 0.000000 0.000000 0.069915 0.000000
# 6 0.000000 0.000000 0.000000 0.000000 0.000000 0.036233
#
#
# Mechanical properties :
#
#
# Convention : Reuss Voigt Hill
#
# Bulk Modulus (GPa) = 54.02131 66.21859 60.11995
# Shear Modulus (GPa) = 25.11135 29.63989 27.37562
#
# Velocity S-wave (km/s) = 3.50307 3.80585 3.65759
# Velocity P-wave (km/s) = 6.53921 7.18836 6.87146
#
# Compressibility (1/GPa) = 0.01851121
#
# Stress axis : x y z
#
# Youngs Moduli (GPa) = 100.65020 100.46402 67.16944
#
# Poissons Ratio (x) = 0.50116 0.08847
# Poissons Ratio (y) = 0.50209 0.12274
# Poissons Ratio (z) = 0.13257 0.18358
#
# Static dielectric constant tensor:
#      x y z
#    x 3.881020 0.000000 0.000000 
#    y 0.000000 4.034450 0.000000 
#    z 0.000000 0.000000 4.003010 
# 
# 
# High freq. dielectric constant tensor:
#      x y z
#    x 1.820600 0.000000 0.000000 
#    y 0.000000 1.791520 0.000000 
#    z 0.000000 0.000000 1.789700 
# 
# From -- ./inp_files/33566.got.cif
#   From: 2010.03.12/outbox.cif.g09.slc.cpg/sg67_17_cif.got.tgz:33566.got - 2010.04.10 22:41:39.
