data_PCOD8280444
_publ_section_title
;
Structure prediction by ZEFSAII (Michael W. Deem and Ramdas Pophale) SiO2 
 PCOD8280444
Probable space group: C M M A
;
_chemical_formula_sum "Si O2"
_cell_formula_units_Z 112
_cell_length_a 24.853182
_cell_length_b 15.685940
_cell_length_c 15.513483
_cell_angle_alpha 90.000000
_cell_angle_beta 90.000000
_cell_angle_gamma 90.000000
_cell_volume 6047.861873
_symmetry_space_group_name_H-M "C M M A"
_symmetry_group_IT_number 67
_symmetry_cell_setting 'orthorhombic'
loop_
_space_group_symop_operation_xyz
x,y,z
-x,1/2-y,z
x,-y,-z
-x,1/2+y,-z
-x,-y,-z
x,1/2+y,-z
-x,y,z
x,1/2-y,z
1/2+x,1/2+y,z
1/2-x,-y,z
1/2+x,1/2-y,-z
1/2-x,y,-z
1/2-x,1/2-y,-z
1/2+x,y,-z
1/2-x,1/2+y,z
1/2+x,-y,z
loop_
_atom_site_type_symbol
_atom_site_label
_atom_site_fract_x
_atom_site_fract_y
_atom_site_fract_z
Si Si1 0.713457 0.081755 0.319162
Si Si2 0.312646 0.399564 0.997631
Si Si3 0.370521 0.346850 0.826049
Si Si4 0.182364 0.842822 0.647615
Si Si5 0.359652 0.651826 0.825045
Si Si6 0.937614 0.495993 0.770653
Si Si7 0.382587 0.506738 0.404997
O O1 0.753547 0.146729 0.367354
O O2 0.691156 0.122486 0.231672
O O3 0.664134 0.061852 0.383422
O O4 0.750000 0.000000 0.294666
O O5 0.337469 0.359519 0.912442
O O6 0.322925 0.500000 0.000000
O O7 0.250000 0.376874 0.000000
O O8 0.342778 0.354520 0.076148
O O9 0.394454 0.250000 0.823143
O O10 0.328913 0.361951 0.748326
O O11 0.417270 0.417852 0.817728
O O12 0.164297 0.750000 0.619192
O O13 0.146258 0.902511 0.589283
O O14 0.375702 0.750000 0.803852
O O15 0.409533 0.588908 0.807157
O O16 0.928577 0.502815 0.667466
O O17 0.000000 0.486688 0.790482
O O18 0.408698 0.500000 0.500000
#
# Coordination Sequence:
#
# PCOD8280444 Si02
#       7
#    16  16  16  16  16  16  16
#     4   9  18  30  51  75 111 150 185 212 256 315
#     4  11  22  33  56  85 121 153 181 214 256 308
#     4  10  20  37  57  82 111 142 186 233 273 315
#     4   9  17  30  51  76 107 144 178 214 257 314
#     4  11  22  36  54  80 113 151 189 226 266 317
#     4  10  22  41  61  79 101 137 183 235 287 331
#     4   9  19  35  53  77 106 134 170 221 274 328
#
# _framework density 18.518941999999999
#
# number of rings (size 3 to 8) (size 9 to 14) (size 15 to 20)
#    0.000    2.143    1.429    2.571    2.000    5.714 
#    0.000    5.714    0.000    1.714    0.000    6.000 
#    0.000    0.000    0.000    0.000    0.000    0.000 
#
# Total GULP energy -694198.304524 kJ/mol
# GULP energy per Si atom -12396.398295 kJ/mol
# Density = 1.847679 g / cm^3
# Si number density = 18.518942 Si / 1000 Ang^3
#
#
#
# Elastic Constant Matrix: (Units=GPa)
#
#
# Indices 1 2 3 4 5 6 
#
# 1 94.0284 42.8148 16.3403 0.0000 0.0000 0.0000
# 2 42.8148 100.7565 30.6266 0.0000 0.0000 0.0000
# 3 16.3403 30.6266 92.7758 0.0000 0.0000 0.0000
# 4 0.0000 0.0000 0.0000 11.4217 0.0000 0.0000
# 5 0.0000 0.0000 0.0000 0.0000 11.9900 0.0000
# 6 0.0000 0.0000 0.0000 0.0000 0.0000 6.3831
#
#
#
# Elastic Compliance Matrix: (Units=1/GPa)
#
#
# Indices 1 2 3 4 5 6 
#
# 1 0.013210 -0.005453 -0.000526 0.000000 0.000000 0.000000
# 2 -0.005453 0.013283 -0.003424 0.000000 0.000000 0.000000
# 3 -0.000526 -0.003424 0.012002 0.000000 0.000000 0.000000
# 4 0.000000 0.000000 0.000000 0.087553 0.000000 0.000000
# 5 0.000000 0.000000 0.000000 0.000000 0.083403 0.000000
# 6 0.000000 0.000000 0.000000 0.000000 0.000000 0.156664
#
#
# Mechanical properties :
#
#
# Convention : Reuss Voigt Hill
#
# Bulk Modulus (GPa) = 50.79646 51.90269 51.34957
# Shear Modulus (GPa) = 12.77190 19.14423 15.95806
#
# Velocity S-wave (km/s) = 2.62900 3.21871 2.93868
# Velocity P-wave (km/s) = 6.05843 6.47311 6.26920
#
# Compressibility (1/GPa) = 0.01968641
#
# Stress axis : x y z
#
# Youngs Moduli (GPa) = 75.70247 75.28371 83.32051
#
# Poissons Ratio (x) = 0.41054 0.04386
# Poissons Ratio (y) = 0.41282 0.28533
# Poissons Ratio (z) = 0.03985 0.25781
#
# Static dielectric constant tensor:
#      x y z
#    x 3.099220 0.000000 0.000000 
#    y 0.000000 3.731220 0.000000 
#    z 0.000000 0.000000 3.274000 
# 
# 
# High freq. dielectric constant tensor:
#      x y z
#    x 1.687990 0.000000 0.000000 
#    y 0.000000 1.730050 0.000000 
#    z 0.000000 0.000000 1.713630 
# 
# From -- ./inp_files/30811.got.cif
#   From: 2010.03.12/outbox.cif.g09.slc.cpg/sg67_16_cif.got.tgz:30811.got - 2010.04.10 22:41:39.
