data_PCOD8280194
_publ_section_title
;
Structure prediction by ZEFSAII (Michael W. Deem and Ramdas Pophale) SiO2 
 PCOD8280194
Probable space group: C M M A
;
_chemical_formula_sum "Si O2"
_cell_formula_units_Z 96
_cell_length_a 8.454694
_cell_length_b 25.640240
_cell_length_c 23.466156
_cell_angle_alpha 90.000000
_cell_angle_beta 90.000000
_cell_angle_gamma 90.000000
_cell_volume 5087.002292
_symmetry_space_group_name_H-M "C M M A"
_symmetry_group_IT_number 67
_symmetry_cell_setting 'orthorhombic'
loop_
_space_group_symop_operation_xyz
x,y,z
-x,1/2-y,z
x,-y,-z
-x,1/2+y,-z
-x,-y,-z
x,1/2+y,-z
-x,y,z
x,1/2-y,z
1/2+x,1/2+y,z
1/2-x,-y,z
1/2+x,1/2-y,-z
1/2-x,y,-z
1/2-x,1/2-y,-z
1/2+x,y,-z
1/2-x,1/2+y,z
1/2+x,-y,z
loop_
_atom_site_type_symbol
_atom_site_label
_atom_site_fract_x
_atom_site_fract_y
_atom_site_fract_z
Si Si1 0.314236 0.750000 0.369474
Si Si2 0.683608 0.844758 0.175547
Si Si3 0.684442 0.810953 0.939581
Si Si4 0.682158 0.250000 0.245214
Si Si5 0.813285 0.556819 0.237038
Si Si6 0.313278 0.348875 0.563227
Si Si7 0.812504 0.555330 0.638988
O O1 0.500000 0.750000 0.378099
O O2 0.281388 0.750000 0.302765
O O3 0.241726 0.698831 0.399888
O O4 0.500000 0.834083 0.186575
O O5 0.722034 0.842192 0.108737
O O6 0.782614 0.801353 0.208920
O O7 0.729687 0.902002 0.196172
O O8 0.500000 0.823487 0.935073
O O9 0.719762 0.750000 0.931499
O O10 0.750000 0.830627 0.000000
O O11 0.500000 0.250000 0.262127
O O12 0.750000 0.500000 0.220001
O O13 0.769827 0.570422 0.301890
O O14 0.000000 0.559231 0.228681
O O15 0.500000 0.345347 0.561635
O O16 0.250000 0.346048 0.500000
O O17 0.259345 0.402639 0.592313
O O18 0.750000 0.500000 0.616339
O O19 0.000000 0.553632 0.648757
#
# Coordination Sequence:
#
# PCOD8280194 Si02
#       7
#     8  16  16   8  16  16  16
#     4  10  21  39  57  77 107 144 179 222 277 338
#     4  12  23  37  58  85 119 156 193 237 286 337
#     4  10  20  35  56  83 119 157 197 239 284 337
#     4  12  24  37  56  87 117 148 187 234 288 342
#     4  11  22  38  60  86 115 150 191 236 285 341
#     4  10  22  37  56  78 104 138 180 224 274 333
#     4  10  20  36  56  81 109 141 180 226 280 336
#
# _framework density 18.871625000000002
#
# number of rings (size 3 to 8) (size 9 to 14) (size 15 to 20)
#    0.000    1.333    0.833    7.000    0.000    4.333 
#    0.000    1.667    0.000    0.500    0.000    3.500 
#    0.000    0.000    0.000    0.000    0.000    0.000 
#
# Total GULP energy -595450.246805 kJ/mol
# GULP energy per Si atom -12405.213475 kJ/mol
# Density = 1.882867 g / cm^3
# Si number density = 18.871625 Si / 1000 Ang^3
#
#
#
# Elastic Constant Matrix: (Units=GPa)
#
#
# Indices 1 2 3 4 5 6 
#
# 1 55.8933 20.9819 7.1925 0.0000 0.0000 0.0000
# 2 20.9819 113.1837 67.4000 0.0000 0.0000 0.0000
# 3 7.1925 67.4000 125.7210 0.0000 0.0000 0.0000
# 4 0.0000 0.0000 0.0000 23.3957 0.0000 0.0000
# 5 0.0000 0.0000 0.0000 0.0000 35.6204 0.0000
# 6 0.0000 0.0000 0.0000 0.0000 0.0000 27.6127
#
#
#
# Elastic Compliance Matrix: (Units=1/GPa)
#
#
# Indices 1 2 3 4 5 6 
#
# 1 0.019352 -0.004301 0.001199 0.000000 0.000000 0.000000
# 2 -0.004301 0.013935 -0.007224 0.000000 0.000000 0.000000
# 3 0.001199 -0.007224 0.011759 0.000000 0.000000 0.000000
# 4 0.000000 0.000000 0.000000 0.042743 0.000000 0.000000
# 5 0.000000 0.000000 0.000000 0.000000 0.028074 0.000000
# 6 0.000000 0.000000 0.000000 0.000000 0.000000 0.036215
#
#
# Mechanical properties :
#
#
# Convention : Reuss Voigt Hill
#
# Bulk Modulus (GPa) = 40.99843 53.99408 47.49626
# Shear Modulus (GPa) = 27.64557 30.60733 29.12645
#
# Velocity S-wave (km/s) = 3.83159 4.03161 3.93287
# Velocity P-wave (km/s) = 6.43015 7.09544 6.77097
#
# Compressibility (1/GPa) = 0.02439118
#
# Stress axis : x y z
#
# Youngs Moduli (GPa) = 51.67526 71.76364 85.04426
#
# Poissons Ratio (x) = 0.30868 -0.10196
# Poissons Ratio (y) = 0.22227 0.61439
# Poissons Ratio (z) = -0.06195 0.51845
#
# Static dielectric constant tensor:
#      x y z
#    x 3.507940 0.000000 0.000000 
#    y 0.000000 3.777310 0.000000 
#    z 0.000000 0.000000 3.267780 
# 
# 
# High freq. dielectric constant tensor:
#      x y z
#    x 1.743100 0.000000 0.000000 
#    y 0.000000 1.732070 0.000000 
#    z 0.000000 0.000000 1.734610 
# 
# From -- ./inp_files/40857.got.cif
#   From: 2010.03.12/outbox.cif.g09.slc.cpg/sg67_21_cif.got.tgz:40857.got - 2010.04.10 22:41:39.
