data_PCOD8280313
_publ_section_title
;
Structure prediction by ZEFSAII (Michael W. Deem and Ramdas Pophale) SiO2 
 PCOD8280313
Probable space group: C M M A
;
_chemical_formula_sum "Si O2"
_cell_formula_units_Z 112
_cell_length_a 27.954804
_cell_length_b 16.435228
_cell_length_c 11.745047
_cell_angle_alpha 90.000000
_cell_angle_beta 90.000000
_cell_angle_gamma 90.000000
_cell_volume 5396.186411
_symmetry_space_group_name_H-M "C M M A"
_symmetry_group_IT_number 67
_symmetry_cell_setting 'orthorhombic'
loop_
_space_group_symop_operation_xyz
x,y,z
-x,1/2-y,z
x,-y,-z
-x,1/2+y,-z
-x,-y,-z
x,1/2+y,-z
-x,y,z
x,1/2-y,z
1/2+x,1/2+y,z
1/2-x,-y,z
1/2+x,1/2-y,-z
1/2-x,y,-z
1/2-x,1/2-y,-z
1/2+x,y,-z
1/2-x,1/2+y,z
1/2+x,-y,z
loop_
_atom_site_type_symbol
_atom_site_label
_atom_site_fract_x
_atom_site_fract_y
_atom_site_fract_z
Si Si1 0.294733 0.156133 0.920058
Si Si2 0.860002 0.154830 0.470533
Si Si3 0.121726 0.072032 0.695595
Si Si4 0.055504 0.161513 0.132245
Si Si5 0.443262 0.432735 0.648191
Si Si6 0.882603 0.344376 0.931098
Si Si7 0.703433 0.948004 0.304556
O O1 0.303197 0.250000 0.886396
O O2 0.285343 0.107716 0.804002
O O3 0.250000 0.144132 0.000000
O O4 0.338756 0.120801 0.993786
O O5 0.853040 0.250000 0.448476
O O6 0.856996 0.135868 0.604867
O O7 0.913187 0.127257 0.432402
O O8 0.816740 0.106669 0.408767
O O9 0.106829 0.116144 0.810325
O O10 0.075996 0.025282 0.638837
O O11 0.162188 0.009169 0.731646
O O12 0.079270 0.250000 0.162378
O O13 0.070279 0.094669 0.223987
O O14 0.000000 0.172841 0.132740
O O15 0.070802 0.135469 0.006048
O O16 0.500000 0.428117 0.619560
O O17 0.873554 0.250000 0.907569
O O18 0.750000 0.000000 0.342463
#
# Coordination Sequence:
#
# PCOD8280313 Si02
#       7
#    16  16  16  16  16  16  16
#     4  10  21  37  59  88 119 152 194 241 289 349
#     4  11  24  43  64  86 116 156 204 250 294 355
#     4  11  24  38  57  86 120 156 197 245 296 354
#     4   9  18  33  55  83 113 149 194 238 284 348
#     4  10  21  38  62  90 119 153 198 254 308 354
#     4  10  20  36  56  80 117 159 195 237 292 350
#     4  11  23  40  63  88 117 151 192 244 301 352
#
# _framework density 20.755398
#
# number of rings (size 3 to 8) (size 9 to 14) (size 15 to 20)
#    0.000    1.714    0.000    5.571    0.000    8.571 
#    0.000    4.286    0.000    2.571    0.000    0.000 
#    0.000    0.000    0.000    0.000    0.000    0.000 
#
# Total GULP energy -694222.172092 kJ/mol
# GULP energy per Si atom -12396.824502 kJ/mol
# Density = 2.070816 g / cm^3
# Si number density = 20.755398 Si / 1000 Ang^3
#
#
#
# Elastic Constant Matrix: (Units=GPa)
#
#
# Indices 1 2 3 4 5 6 
#
# 1 64.4603 36.2003 14.2696 0.0000 0.0000 0.0000
# 2 36.2003 92.1784 44.3753 0.0000 0.0000 0.0000
# 3 14.2696 44.3753 105.0768 0.0000 0.0000 0.0000
# 4 0.0000 0.0000 0.0000 33.0611 0.0000 0.0000
# 5 0.0000 0.0000 0.0000 0.0000 22.4981 0.0000
# 6 0.0000 0.0000 0.0000 0.0000 0.0000 18.0874
#
#
#
# Elastic Compliance Matrix: (Units=1/GPa)
#
#
# Indices 1 2 3 4 5 6 
#
# 1 0.019950 -0.008197 0.000752 0.000000 0.000000 0.000000
# 2 -0.008197 0.016985 -0.006060 0.000000 0.000000 0.000000
# 3 0.000752 -0.006060 0.011974 0.000000 0.000000 0.000000
# 4 0.000000 0.000000 0.000000 0.030247 0.000000 0.000000
# 5 0.000000 0.000000 0.000000 0.000000 0.044448 0.000000
# 6 0.000000 0.000000 0.000000 0.000000 0.000000 0.055287
#
#
# Mechanical properties :
#
#
# Convention : Reuss Voigt Hill
#
# Bulk Modulus (GPa) = 45.66182 50.15621 47.90902
# Shear Modulus (GPa) = 23.45216 25.85401 24.65309
#
# Velocity S-wave (km/s) = 3.36509 3.53321 3.45017
# Velocity P-wave (km/s) = 6.09477 6.39239 6.24535
#
# Compressibility (1/GPa) = 0.02190013
#
# Stress axis : x y z
#
# Youngs Moduli (GPa) = 50.12467 58.87581 83.51583
#
# Poissons Ratio (x) = 0.48261 -0.06284
# Poissons Ratio (y) = 0.41088 0.50609
# Poissons Ratio (z) = -0.03772 0.35677
#
# Static dielectric constant tensor:
#      x y z
#    x 3.872350 0.000000 0.000000 
#    y 0.000000 10.839940 0.000000 
#    z 0.000000 0.000000 3.564510 
# 
# 
# High freq. dielectric constant tensor:
#      x y z
#    x 1.812300 0.000000 0.000000 
#    y 0.000000 1.809800 0.000000 
#    z 0.000000 0.000000 1.818920 
# 
# From -- ./inp_files/18574.got.cif
#   From: 2010.03.12/outbox.cif.g09.slc.cpg/sg67_10_cif.got.tgz:18574.got - 2010.04.10 22:41:39.
