data_PCOD8280578
_publ_section_title
;
Structure prediction by ZEFSAII (Michael W. Deem and Ramdas Pophale) SiO2 
 PCOD8280578
Probable space group: C M M A
;
_chemical_formula_sum "Si O2"
_cell_formula_units_Z 96
_cell_length_a 14.101872
_cell_length_b 16.498109
_cell_length_c 20.854280
_cell_angle_alpha 90.000000
_cell_angle_beta 90.000000
_cell_angle_gamma 90.000000
_cell_volume 4851.836275
_symmetry_space_group_name_H-M "C M M A"
_symmetry_group_IT_number 67
_symmetry_cell_setting 'orthorhombic'
loop_
_space_group_symop_operation_xyz
x,y,z
-x,1/2-y,z
x,-y,-z
-x,1/2+y,-z
-x,-y,-z
x,1/2+y,-z
-x,y,z
x,1/2-y,z
1/2+x,1/2+y,z
1/2-x,-y,z
1/2+x,1/2-y,-z
1/2-x,y,-z
1/2-x,1/2-y,-z
1/2+x,y,-z
1/2-x,1/2+y,z
1/2+x,-y,z
loop_
_atom_site_type_symbol
_atom_site_label
_atom_site_fract_x
_atom_site_fract_y
_atom_site_fract_z
Si Si1 0.500000 0.078346 0.176972
Si Si2 0.000000 0.954282 0.934922
Si Si3 0.500000 0.152454 0.613699
Si Si4 0.197763 0.419473 0.674297
Si Si5 0.710289 0.590680 0.067722
Si Si6 0.196108 0.342583 0.807816
Si Si7 0.298719 0.842932 0.438156
Si Si8 0.500000 0.508285 0.690130
O O1 0.587938 0.138419 0.177382
O O2 0.500000 0.011323 0.232993
O O3 0.500000 0.026651 0.114144
O O4 0.096056 0.901832 0.930434
O O5 0.000000 0.000000 0.000000
O O6 0.500000 0.250000 0.634255
O O7 0.406815 0.127630 0.573430
O O8 0.500000 0.087973 0.673161
O O9 0.250000 0.500000 0.653838
O O10 0.229073 0.394999 0.746414
O O11 0.232286 0.351993 0.624266
O O12 0.087345 0.438015 0.664853
O O13 0.750000 0.500000 0.075976
O O14 0.742736 0.641733 0.128797
O O15 0.750000 0.626279 0.000000
O O16 0.207192 0.250000 0.787634
O O17 0.307356 0.750000 0.455040
O O18 0.250000 0.887119 0.500000
#
# Coordination Sequence:
#
# PCOD8280578 Si02
#       8
#     8   8   8  16  16  16  16   8
#     4  10  21  36  63  85 117 156 198 252 285 351
#     4  12  20  35  60  89 116 147 202 246 291 351
#     4  10  20  39  62  87 122 159 198 243 297 359
#     4  11  22  39  62  86 122 154 201 249 295 349
#     4  11  21  37  61  89 117 156 200 245 297 353
#     4  11  23  39  59  88 121 159 198 243 303 357
#     4  10  22  40  62  89 120 159 198 241 301 360
#     4  10  22  38  58  93 115 155 202 250 293 344
#
# _framework density 19.786322999999999
#
# number of rings (size 3 to 8) (size 9 to 14) (size 15 to 20)
#    0.000    1.333    5.000    1.250    2.333    1.333 
#    0.000    3.333    0.000    0.000    0.000    0.000 
#    0.000    0.000    0.000    0.000    0.000    0.000 
#
# Total GULP energy -594902.790408 kJ/mol
# GULP energy per Si atom -12393.808133 kJ/mol
# Density = 1.974129 g / cm^3
# Si number density = 19.786323 Si / 1000 Ang^3
#
#
#
# Elastic Constant Matrix: (Units=GPa)
#
#
# Indices 1 2 3 4 5 6 
#
# 1 147.7470 28.7711 51.3428 0.0000 0.0000 0.0000
# 2 28.7711 54.8272 22.6826 0.0000 0.0000 0.0000
# 3 51.3428 22.6826 120.4691 0.0000 0.0000 0.0000
# 4 0.0000 0.0000 0.0000 26.5112 0.0000 0.0000
# 5 0.0000 0.0000 0.0000 0.0000 27.1114 0.0000
# 6 0.0000 0.0000 0.0000 0.0000 0.0000 27.1048
#
#
#
# Elastic Compliance Matrix: (Units=1/GPa)
#
#
# Indices 1 2 3 4 5 6 
#
# 1 0.008428 -0.003185 -0.002992 0.000000 0.000000 0.000000
# 2 -0.003185 0.020983 -0.002593 0.000000 0.000000 0.000000
# 3 -0.002992 -0.002593 0.010065 0.000000 0.000000 0.000000
# 4 0.000000 0.000000 0.000000 0.037720 0.000000 0.000000
# 5 0.000000 0.000000 0.000000 0.000000 0.036885 0.000000
# 6 0.000000 0.000000 0.000000 0.000000 0.000000 0.036894
#
#
# Mechanical properties :
#
#
# Convention : Reuss Voigt Hill
#
# Bulk Modulus (GPa) = 45.58987 58.73737 52.16362
# Shear Modulus (GPa) = 28.43686 30.82861 29.63274
#
# Velocity S-wave (km/s) = 3.79515 3.95153 3.87413
# Velocity P-wave (km/s) = 6.50349 7.11124 6.81414
#
# Compressibility (1/GPa) = 0.02193470
#
# Stress axis : x y z
#
# Youngs Moduli (GPa) = 118.64616 47.65672 99.35863
#
# Poissons Ratio (x) = 0.15178 0.29733
# Poissons Ratio (y) = 0.37788 0.25769
# Poissons Ratio (z) = 0.35504 0.12360
#
# Static dielectric constant tensor:
#      x y z
#    x 4.463720 0.000000 0.000000 
#    y 0.000000 3.368920 0.000000 
#    z 0.000000 0.000000 3.789410 
# 
# 
# High freq. dielectric constant tensor:
#      x y z
#    x 1.787760 0.000000 0.000000 
#    y 0.000000 1.747830 0.000000 
#    z 0.000000 0.000000 1.778170 
# 
# From -- ./inp_files/38594.got.cif
#   From: 2010.03.12/outbox.cif.g09.slc.cpg/sg67_20_cif.got.tgz:38594.got - 2010.04.10 22:41:39.
