data_PCOD8280054
_publ_section_title
;
Structure prediction by ZEFSAII (Michael W. Deem and Ramdas Pophale) SiO2 
 PCOD8280054
Probable space group: C M M A
;
_chemical_formula_sum "Si O2"
_cell_formula_units_Z 120
_cell_length_a 24.519419
_cell_length_b 22.451433
_cell_length_c 11.769320
_cell_angle_alpha 90.000000
_cell_angle_beta 90.000000
_cell_angle_gamma 90.000000
_cell_volume 6478.964676
_symmetry_space_group_name_H-M "C M M A"
_symmetry_group_IT_number 67
_symmetry_cell_setting 'orthorhombic'
loop_
_space_group_symop_operation_xyz
x,y,z
-x,1/2-y,z
x,-y,-z
-x,1/2+y,-z
-x,-y,-z
x,1/2+y,-z
-x,y,z
x,1/2-y,z
1/2+x,1/2+y,z
1/2-x,-y,z
1/2+x,1/2-y,-z
1/2-x,y,-z
1/2-x,1/2-y,-z
1/2+x,y,-z
1/2-x,1/2+y,z
1/2+x,-y,z
loop_
_atom_site_type_symbol
_atom_site_label
_atom_site_fract_x
_atom_site_fract_y
_atom_site_fract_z
Si Si1 0.619954 0.000000 0.000000
Si Si2 0.062644 0.318687 0.131208
Si Si3 0.755318 0.818166 0.130362
Si Si4 0.186604 0.511376 0.780937
Si Si5 0.312350 0.181056 0.488504
Si Si6 0.153511 0.384154 0.731807
Si Si7 0.937075 0.614675 0.094954
Si Si8 0.157352 0.861599 0.726358
O O1 0.659166 0.975279 0.097967
O O2 0.581099 0.051354 0.046120
O O3 0.078354 0.250000 0.146568
O O4 0.097512 0.358427 0.218404
O O5 0.000000 0.331443 0.161988
O O6 0.074177 0.335717 0.000620
O O7 0.774842 0.750000 0.142567
O O8 0.798363 0.861754 0.187216
O O9 0.697479 0.825888 0.190557
O O10 0.750000 0.837324 0.000000
O O11 0.250000 0.500000 0.798993
O O12 0.159198 0.455312 0.717817
O O13 0.176291 0.570353 0.706001
O O14 0.312950 0.250000 0.453869
O O15 0.250000 0.158397 0.500000
O O16 0.343927 0.145322 0.391138
O O17 0.344234 0.170662 0.605065
O O18 0.096346 0.368125 0.791802
O O19 0.000000 0.611877 0.130251
#
# Coordination Sequence:
#
# PCOD8280054 Si02
#       8
#     8  16  16  16  16  16  16  16
#     4  10  20  34  58  86 120 162 196 236 292 368
#     4  10  21  38  60  88 120 154 199 254 305 353
#     4  11  22  34  55  83 115 150 190 245 303 366
#     4  11  21  34  55  87 125 156 190 247 303 365
#     4  11  22  39  61  83 115 158 203 248 298 364
#     4  11  23  37  55  86 117 153 196 245 299 356
#     4  10  21  38  60  86 118 157 200 246 302 361
#     4  12  22  38  59  86 117 159 202 246 299 363
#
# _framework density 18.521477000000001
#
# number of rings (size 3 to 8) (size 9 to 14) (size 15 to 20)
#    0.000    1.200    4.000    2.800    1.867    2.667 
#    0.000    2.000    0.000    0.800    0.000    2.800 
#    0.000    0.000    0.000    0.000    0.000    0.000 
#
# Total GULP energy -744316.999996 kJ/mol
# GULP energy per Si atom -12405.283333 kJ/mol
# Density = 1.847932 g / cm^3
# Si number density = 18.521477 Si / 1000 Ang^3
#
#
#
# Elastic Constant Matrix: (Units=GPa)
#
#
# Indices 1 2 3 4 5 6 
#
# 1 114.6183 27.1494 53.9041 0.0000 0.0000 0.0000
# 2 27.1494 80.4568 31.1893 0.0000 0.0000 0.0000
# 3 53.9041 31.1893 124.6190 0.0000 0.0000 0.0000
# 4 0.0000 0.0000 0.0000 28.0786 0.0000 0.0000
# 5 0.0000 0.0000 0.0000 0.0000 18.3285 0.0000
# 6 0.0000 0.0000 0.0000 0.0000 0.0000 24.4152
#
#
#
# Elastic Compliance Matrix: (Units=1/GPa)
#
#
# Indices 1 2 3 4 5 6 
#
# 1 0.011270 -0.002119 -0.004344 0.000000 0.000000 0.000000
# 2 -0.002119 0.014163 -0.002628 0.000000 0.000000 0.000000
# 3 -0.004344 -0.002628 0.010561 0.000000 0.000000 0.000000
# 4 0.000000 0.000000 0.000000 0.035614 0.000000 0.000000
# 5 0.000000 0.000000 0.000000 0.000000 0.054560 0.000000
# 6 0.000000 0.000000 0.000000 0.000000 0.000000 0.040958
#
#
# Mechanical properties :
#
#
# Convention : Reuss Voigt Hill
#
# Bulk Modulus (GPa) = 56.14442 60.46444 58.30443
# Shear Modulus (GPa) = 26.14437 27.99455 27.06946
#
# Velocity S-wave (km/s) = 3.76116 3.89197 3.82713
# Velocity P-wave (km/s) = 7.01718 7.27414 7.14681
#
# Compressibility (1/GPa) = 0.01781121
#
# Stress axis : x y z
#
# Youngs Moduli (GPa) = 88.73424 70.60759 94.68427
#
# Poissons Ratio (x) = 0.14960 0.41135
# Poissons Ratio (y) = 0.18800 0.24885
# Poissons Ratio (z) = 0.38550 0.18557
#
# Static dielectric constant tensor:
#      x y z
#    x 3.400170 0.000000 0.000000 
#    y 0.000000 3.538510 0.000000 
#    z 0.000000 0.000000 3.285350 
# 
# 
# High freq. dielectric constant tensor:
#      x y z
#    x 1.711090 0.000000 0.000000 
#    y 0.000000 1.732480 0.000000 
#    z 0.000000 0.000000 1.704560 
# 
# From -- ./inp_files/22211.got.cif
#   From: 2010.03.12/outbox.cif.g09.slc.cpg/sg67_12_cif.got.tgz:22211.got - 2010.04.10 22:41:39.
