data_PCOD8280652
_publ_section_title
;
Structure prediction by ZEFSAII (Michael W. Deem and Ramdas Pophale) SiO2 
 PCOD8280652
Probable space group: C M M A
;
_chemical_formula_sum "Si O2"
_cell_formula_units_Z 80
_cell_length_a 18.770903
_cell_length_b 8.768572
_cell_length_c 25.614437
_cell_angle_alpha 90.000000
_cell_angle_beta 90.000000
_cell_angle_gamma 90.000000
_cell_volume 4215.983014
_symmetry_space_group_name_H-M "C M M A"
_symmetry_group_IT_number 67
_symmetry_cell_setting 'orthorhombic'
loop_
_space_group_symop_operation_xyz
x,y,z
-x,1/2-y,z
x,-y,-z
-x,1/2+y,-z
-x,-y,-z
x,1/2+y,-z
-x,y,z
x,1/2-y,z
1/2+x,1/2+y,z
1/2-x,-y,z
1/2+x,1/2-y,-z
1/2-x,y,-z
1/2-x,1/2-y,-z
1/2+x,y,-z
1/2-x,1/2+y,z
1/2+x,-y,z
loop_
_atom_site_type_symbol
_atom_site_label
_atom_site_fract_x
_atom_site_fract_y
_atom_site_fract_z
Si Si1 0.917826 0.427685 0.749530
Si Si2 0.581012 0.430393 0.053895
Si Si3 0.827739 0.930699 0.151254
Si Si4 0.825682 0.070189 0.554429
Si Si5 0.083902 0.576192 0.642126
O O1 0.906125 0.250000 0.737805
O O2 0.870684 0.484959 0.797807
O O3 0.891922 0.521600 0.699278
O O4 0.000000 0.461507 0.763153
O O5 0.500000 0.484630 0.064360
O O6 0.584921 0.250000 0.050026
O O7 0.630315 0.492195 0.100580
O O8 0.610224 0.500000 0.000000
O O9 0.822456 0.750000 0.149754
O O10 0.750000 0.000000 0.152420
O O11 0.818112 0.250000 0.547999
O O12 0.853156 0.000000 0.500000
O O13 0.750000 0.000000 0.570282
O O14 0.881722 0.031865 0.599088
O O15 0.108927 0.750000 0.634064
O O16 0.000000 0.558466 0.636093
#
# Coordination Sequence:
#
# PCOD8280652 Si02
#       5
#    16  16  16  16  16
#     4   9  18  35  57  77 100 136 180 221 263 313
#     4   9  18  34  55  77 101 133 174 216 258 307
#     4  10  21  35  52  76 106 138 172 214 263 315
#     4  11  22  38  59  82 111 146 184 224 269 322
#     4  10  21  37  57  83 113 143 179 224 271 319
#
# _framework density 18.975408999999999
#
# number of rings (size 3 to 8) (size 9 to 14) (size 15 to 20)
#    0.000    2.200    0.000    3.600    0.000    6.800 
#    0.000    4.000    0.000    6.000    0.000    0.000 
#    0.000    0.000    0.000    0.000    0.000    0.000 
#
# Total GULP energy -496137.288353 kJ/mol
# GULP energy per Si atom -12403.432209 kJ/mol
# Density = 1.893222 g / cm^3
# Si number density = 18.975409 Si / 1000 Ang^3
#
#
#
# Elastic Constant Matrix: (Units=GPa)
#
#
# Indices 1 2 3 4 5 6 
#
# 1 90.2537 35.4179 81.3079 0.0000 0.0000 0.0000
# 2 35.4179 83.2105 53.1030 0.0000 0.0000 0.0000
# 3 81.3079 53.1030 163.9583 0.0000 0.0000 0.0000
# 4 0.0000 0.0000 0.0000 34.6101 0.0000 0.0000
# 5 0.0000 0.0000 0.0000 0.0000 15.6974 0.0000
# 6 0.0000 0.0000 0.0000 0.0000 0.0000 31.7503
#
#
#
# Elastic Compliance Matrix: (Units=1/GPa)
#
#
# Indices 1 2 3 4 5 6 
#
# 1 0.020541 -0.002827 -0.009271 0.000000 0.000000 0.000000
# 2 -0.002827 0.015538 -0.003631 0.000000 0.000000 0.000000
# 3 -0.009271 -0.003631 0.011873 0.000000 0.000000 0.000000
# 4 0.000000 0.000000 0.000000 0.028893 0.000000 0.000000
# 5 0.000000 0.000000 0.000000 0.000000 0.063705 0.000000
# 6 0.000000 0.000000 0.000000 0.000000 0.000000 0.031496
#
#
# Mechanical properties :
#
#
# Convention : Reuss Voigt Hill
#
# Bulk Modulus (GPa) = 60.62452 75.23113 67.92783
# Shear Modulus (GPa) = 23.92339 27.58448 25.75393
#
# Velocity S-wave (km/s) = 3.55457 3.81687 3.68805
# Velocity P-wave (km/s) = 6.99035 7.69139 7.34923
#
# Compressibility (1/GPa) = 0.01649498
#
# Stress axis : x y z
#
# Youngs Moduli (GPa) = 48.68257 64.35895 84.22779
#
# Poissons Ratio (x) = 0.18192 0.78088
# Poissons Ratio (y) = 0.13761 0.30580
# Poissons Ratio (z) = 0.45134 0.23367
#
# Static dielectric constant tensor:
#      x y z
#    x 3.427230 0.000000 0.000000 
#    y 0.000000 3.430920 0.000000 
#    z 0.000000 0.000000 3.648290 
# 
# 
# High freq. dielectric constant tensor:
#      x y z
#    x 1.731310 0.000000 0.000000 
#    y 0.000000 1.734860 0.000000 
#    z 0.000000 0.000000 1.751180 
# 
# From -- ./inp_files/43257.got.cif
#   From: 2010.03.12/outbox.cif.g09.slc.cpg/sg67_22_cif.got.tgz:43257.got - 2010.04.10 22:41:39.
