data_PCOD8280464
_publ_section_title
;
Structure prediction by ZEFSAII (Michael W. Deem and Ramdas Pophale) SiO2 
 PCOD8280464
Probable space group: C M M A
;
_chemical_formula_sum "Si O2"
_cell_formula_units_Z 112
_cell_length_a 15.090278
_cell_length_b 15.838110
_cell_length_c 22.850979
_cell_angle_alpha 90.000000
_cell_angle_beta 90.000000
_cell_angle_gamma 90.000000
_cell_volume 5461.417867
_symmetry_space_group_name_H-M "C M M A"
_symmetry_group_IT_number 67
_symmetry_cell_setting 'orthorhombic'
loop_
_space_group_symop_operation_xyz
x,y,z
-x,1/2-y,z
x,-y,-z
-x,1/2+y,-z
-x,-y,-z
x,1/2+y,-z
-x,y,z
x,1/2-y,z
1/2+x,1/2+y,z
1/2-x,-y,z
1/2+x,1/2-y,-z
1/2-x,y,-z
1/2-x,1/2-y,-z
1/2+x,y,-z
1/2-x,1/2+y,z
1/2+x,-y,z
loop_
_atom_site_type_symbol
_atom_site_label
_atom_site_fract_x
_atom_site_fract_y
_atom_site_fract_z
Si Si1 0.897538 0.846106 0.143485
Si Si2 0.602943 0.153284 0.851473
Si Si3 0.604428 0.002228 0.935134
Si Si4 0.246946 0.898898 0.232098
Si Si5 0.239929 0.092095 0.640444
Si Si6 0.402935 0.843498 0.425304
Si Si7 0.100136 0.079499 0.540202
O O1 0.883334 0.750000 0.119972
O O2 0.866652 0.914557 0.095340
O O3 0.838806 0.861633 0.200290
O O4 0.000000 0.860798 0.160708
O O5 0.500000 0.136693 0.835142
O O6 0.615415 0.250000 0.874202
O O7 0.661895 0.138909 0.793788
O O8 0.636870 0.086150 0.900395
O O9 0.500000 0.007630 0.940189
O O10 0.647026 0.000000 0.000000
O O11 0.235340 0.858645 0.297994
O O12 0.250000 0.000000 0.226560
O O13 0.329942 0.101064 0.604870
O O14 0.157460 0.103518 0.596892
O O15 0.250000 0.000000 0.665789
O O16 0.500000 0.880819 0.409303
O O17 0.392423 0.750000 0.401004
O O18 0.392513 0.841781 0.495859
O O19 0.000000 0.063640 0.562182
O O20 0.132867 0.000000 0.500000
#
# Coordination Sequence:
#
# PCOD8280464 Si02
#       7
#    16  16  16  16  16  16  16
#     4  10  21  39  62  86 119 163 202 240 294 358
#     4  10  21  39  63  89 121 162 204 249 303 358
#     4   9  18  35  61  93 125 156 197 249 301 354
#     4  11  23  39  59  85 119 157 200 250 296 350
#     4  11  23  36  59  89 114 151 198 241 290 347
#     4  10  22  39  59  86 119 152 187 235 296 354
#     4  10  20  37  60  85 117 152 189 236 292 359
#
# _framework density 20.507494999999999
#
# number of rings (size 3 to 8) (size 9 to 14) (size 15 to 20)
#    0.000    1.857    2.857    0.857    0.000    4.000 
#    0.000    8.571    0.000    3.429    0.000    0.000 
#    0.000    0.000    0.000    0.000    0.000    0.000 
#
# Total GULP energy -693790.340795 kJ/mol
# GULP energy per Si atom -12389.113228 kJ/mol
# Density = 2.046082 g / cm^3
# Si number density = 20.507495 Si / 1000 Ang^3
#
#
#
# Elastic Constant Matrix: (Units=GPa)
#
#
# Indices 1 2 3 4 5 6 
#
# 1 110.0566 36.7425 70.1897 0.0000 0.0000 0.0000
# 2 36.7425 116.5396 47.1010 0.0000 0.0000 0.0000
# 3 70.1897 47.1010 158.1950 0.0000 0.0000 0.0000
# 4 0.0000 0.0000 0.0000 0.7767 0.0000 0.0000
# 5 0.0000 0.0000 0.0000 0.0000 40.6961 0.0000
# 6 0.0000 0.0000 0.0000 0.0000 0.0000 25.0056
#
#
#
# Elastic Compliance Matrix: (Units=1/GPa)
#
#
# Indices 1 2 3 4 5 6 
#
# 1 0.013078 -0.002021 -0.005201 0.000000 0.000000 0.000000
# 2 -0.002021 0.010067 -0.002101 0.000000 0.000000 0.000000
# 3 -0.005201 -0.002101 0.009254 0.000000 0.000000 0.000000
# 4 0.000000 0.000000 0.000000 1.287551 0.000000 0.000000
# 5 0.000000 0.000000 0.000000 0.000000 0.024572 0.000000
# 6 0.000000 0.000000 0.000000 0.000000 0.000000 0.039991
#
#
# Mechanical properties :
#
#
# Convention : Reuss Voigt Hill
#
# Bulk Modulus (GPa) = 72.70569 76.98417 74.84493
# Shear Modulus (GPa) = 3.55178 28.67955 16.11567
#
# Velocity S-wave (km/s) = 1.31746 3.74370 2.80633
# Velocity P-wave (km/s) = 6.15179 7.50387 6.86121
#
# Compressibility (1/GPa) = 0.01375408
#
# Stress axis : x y z
#
# Youngs Moduli (GPa) = 76.46535 99.33458 108.05860
#
# Poissons Ratio (x) = 0.20078 0.56198
# Poissons Ratio (y) = 0.15455 0.22698
# Poissons Ratio (z) = 0.39767 0.20866
#
# Static dielectric constant tensor:
#      x y z
#    x 3.662900 0.000000 0.000000 
#    y 0.000000 3.969710 0.000000 
#    z 0.000000 0.000000 3.725500 
# 
# 
# High freq. dielectric constant tensor:
#      x y z
#    x 1.803100 0.000000 0.000000 
#    y 0.000000 1.806680 0.000000 
#    z 0.000000 0.000000 1.787880 
# 
# From -- ./inp_files/41989.got.cif
#   From: 2010.03.12/outbox.cif.g09.slc.cpg/sg67_21_cif.got.tgz:41989.got - 2010.04.10 22:41:39.
