data_PCOD8280271
_publ_section_title
;
Structure prediction by ZEFSAII (Michael W. Deem and Ramdas Pophale) SiO2 
 PCOD8280271
Probable space group: C M M A
;
_chemical_formula_sum "Si O2"
_cell_formula_units_Z 96
_cell_length_a 19.062994
_cell_length_b 17.015997
_cell_length_c 13.201536
_cell_angle_alpha 90.000000
_cell_angle_beta 90.000000
_cell_angle_gamma 90.000000
_cell_volume 4282.259444
_symmetry_space_group_name_H-M "C M M A"
_symmetry_group_IT_number 67
_symmetry_cell_setting 'orthorhombic'
loop_
_space_group_symop_operation_xyz
x,y,z
-x,1/2-y,z
x,-y,-z
-x,1/2+y,-z
-x,-y,-z
x,1/2+y,-z
-x,y,z
x,1/2-y,z
1/2+x,1/2+y,z
1/2-x,-y,z
1/2+x,1/2-y,-z
1/2-x,y,-z
1/2-x,1/2-y,-z
1/2+x,y,-z
1/2-x,1/2+y,z
1/2+x,-y,z
loop_
_atom_site_type_symbol
_atom_site_label
_atom_site_fract_x
_atom_site_fract_y
_atom_site_fract_z
Si Si1 0.582121 0.659388 0.548931
Si Si2 0.701536 0.159268 0.094521
Si Si3 0.420548 0.586870 0.008606
Si Si4 0.666633 0.415459 0.626292
Si Si5 0.683274 0.089198 0.310189
Si Si6 0.076992 0.836963 0.782728
O O1 0.500000 0.636485 0.555633
O O2 0.590097 0.750000 0.513373
O O3 0.624591 0.597492 0.478415
O O4 0.620333 0.648460 0.658127
O O5 0.717627 0.250000 0.120152
O O6 0.711047 0.107032 0.196170
O O7 0.750000 0.130127 0.000000
O O8 0.621632 0.148786 0.059091
O O9 0.500000 0.590726 0.968788
O O10 0.414085 0.603697 0.126406
O O11 0.388575 0.500000 0.000000
O O12 0.653514 0.500901 0.676261
O O13 0.749861 0.400622 0.614418
O O14 0.636129 0.349789 0.700460
O O15 0.085682 0.750000 0.827997
O O16 0.000000 0.847349 0.731560
#
# Coordination Sequence:
#
# PCOD8280271 Si02
#       6
#    16  16  16  16  16  16
#     4  11  25  44  67  96 129 168 215 267 326 392
#     4  11  24  41  63  92 127 170 216 262 320 388
#     4  10  21  37  58  85 118 159 206 258 320 386
#     4  11  23  41  64  92 125 164 209 261 321 382
#     4  11  25  42  63  94 128 166 214 266 320 381
#     4  10  20  35  59  90 120 155 206 264 318 377
#
# _framework density 22.418071999999999
#
# number of rings (size 3 to 8) (size 9 to 14) (size 15 to 20)
#    0.000    1.333    0.000    5.000    0.000   12.667 
#    0.000    0.000    0.000    0.000    0.000    0.000 
#    0.000    0.000    0.000    0.000    0.000    0.000 
#
# Total GULP energy -595080.061182 kJ/mol
# GULP energy per Si atom -12397.501275 kJ/mol
# Density = 2.236705 g / cm^3
# Si number density = 22.418072 Si / 1000 Ang^3
#
#
#
# Elastic Constant Matrix: (Units=GPa)
#
#
# Indices 1 2 3 4 5 6 
#
# 1 128.3427 38.1744 49.6200 0.0000 0.0000 0.0000
# 2 38.1744 91.7493 44.9738 0.0000 0.0000 0.0000
# 3 49.6200 44.9738 101.9032 0.0000 0.0000 0.0000
# 4 0.0000 0.0000 0.0000 37.3798 0.0000 0.0000
# 5 0.0000 0.0000 0.0000 0.0000 38.9639 0.0000
# 6 0.0000 0.0000 0.0000 0.0000 0.0000 30.9454
#
#
#
# Elastic Compliance Matrix: (Units=1/GPa)
#
#
# Indices 1 2 3 4 5 6 
#
# 1 0.009951 -0.002252 -0.003851 0.000000 0.000000 0.000000
# 2 -0.002252 0.014418 -0.005266 0.000000 0.000000 0.000000
# 3 -0.003851 -0.005266 0.014013 0.000000 0.000000 0.000000
# 4 0.000000 0.000000 0.000000 0.026752 0.000000 0.000000
# 5 0.000000 0.000000 0.000000 0.000000 0.025665 0.000000
# 6 0.000000 0.000000 0.000000 0.000000 0.000000 0.032315
#
#
# Mechanical properties :
#
#
# Convention : Reuss Voigt Hill
#
# Bulk Modulus (GPa) = 63.93344 65.28130 64.60737
# Shear Modulus (GPa) = 33.09786 34.07295 33.58541
#
# Velocity S-wave (km/s) = 3.84655 3.90280 3.87478
# Velocity P-wave (km/s) = 6.95044 7.03508 6.99289
#
# Compressibility (1/GPa) = 0.01564127
#
# Stress axis : x y z
#
# Youngs Moduli (GPa) = 100.49710 69.35809 71.36339
#
# Poissons Ratio (x) = 0.15622 0.27483
# Poissons Ratio (y) = 0.22636 0.37583
# Poissons Ratio (z) = 0.38703 0.36527
#
# Static dielectric constant tensor:
#      x y z
#    x 4.236460 0.000000 0.000000 
#    y 0.000000 3.949740 0.000000 
#    z 0.000000 0.000000 3.970100 
# 
# 
# High freq. dielectric constant tensor:
#      x y z
#    x 1.892770 0.000000 0.000000 
#    y 0.000000 1.883370 0.000000 
#    z 0.000000 0.000000 1.876270 
# 
# From -- ./inp_files/29270.got.cif
#   From: 2010.03.12/outbox.cif.g09.slc.cpg/sg67_15_cif.got.tgz:29270.got - 2010.04.10 22:41:39.
