data_PCOD8280583
_publ_section_title
;
Structure prediction by ZEFSAII (Michael W. Deem and Ramdas Pophale) SiO2 
 PCOD8280583
Probable space group: C M M A
;
_chemical_formula_sum "Si O2"
_cell_formula_units_Z 64
_cell_length_a 16.205410
_cell_length_b 16.331313
_cell_length_c 11.322063
_cell_angle_alpha 90.000000
_cell_angle_beta 90.000000
_cell_angle_gamma 90.000000
_cell_volume 2996.447637
_symmetry_space_group_name_H-M "C M M A"
_symmetry_group_IT_number 67
_symmetry_cell_setting 'orthorhombic'
loop_
_space_group_symop_operation_xyz
x,y,z
-x,1/2-y,z
x,-y,-z
-x,1/2+y,-z
-x,-y,-z
x,1/2+y,-z
-x,y,z
x,1/2-y,z
1/2+x,1/2+y,z
1/2-x,-y,z
1/2+x,1/2-y,-z
1/2-x,y,-z
1/2-x,1/2-y,-z
1/2+x,y,-z
1/2-x,1/2+y,z
1/2+x,-y,z
loop_
_atom_site_type_symbol
_atom_site_label
_atom_site_fract_x
_atom_site_fract_y
_atom_site_fract_z
Si Si1 0.858981 0.842619 0.451931
Si Si2 0.208446 0.412013 0.334270
Si Si3 0.827550 0.845565 0.918058
Si Si4 0.000000 0.404752 0.976511
Si Si5 0.000000 0.653453 0.281978
O O1 0.881238 0.750000 0.489087
O O2 0.864543 0.901095 0.568547
O O3 0.772388 0.843793 0.381478
O O4 0.922192 0.876359 0.355989
O O5 0.250000 0.500000 0.343749
O O6 0.177229 0.396008 0.202888
O O7 0.820267 0.750000 0.890224
O O8 0.750000 0.873026 0.000000
O O9 0.916456 0.863355 0.975006
O O10 0.000000 0.396567 0.837321
O O11 0.000000 0.500000 0.000000
O O12 0.000000 0.750000 0.253750
#
# Coordination Sequence:
#
# PCOD8280583 Si02
#       5
#    16  16  16   8   8
#     4  10  20  39  65  92 126 172 221 271 336 410
#     4  11  23  38  62  97 132 167 216 281 339 402
#     4  11  25  45  72  97 134 189 236 281 342 418
#     4  12  28  43  66 104 143 180 229 294 349 413
#     4  10  22  41  67  92 128 174 225 277 338 419
#
# _framework density 21.358623999999999
#
# number of rings (size 3 to 8) (size 9 to 14) (size 15 to 20)
#    0.000    1.250    0.000    7.125    7.000    5.000 
#    0.000    5.000    0.000    0.000    0.000    0.000 
#    0.000    0.000    0.000    0.000    0.000    0.000 
#
# Total GULP energy -396707.213587 kJ/mol
# GULP energy per Si atom -12397.100425 kJ/mol
# Density = 2.131001 g / cm^3
# Si number density = 21.358624 Si / 1000 Ang^3
#
#
#
# Elastic Constant Matrix: (Units=GPa)
#
#
# Indices 1 2 3 4 5 6 
#
# 1 112.8439 22.7828 73.5114 0.0000 0.0000 0.0000
# 2 22.7828 98.7405 62.4967 0.0000 0.0000 0.0000
# 3 73.5114 62.4967 212.1679 0.0000 0.0000 0.0000
# 4 0.0000 0.0000 0.0000 35.2855 0.0000 0.0000
# 5 0.0000 0.0000 0.0000 0.0000 46.9137 0.0000
# 6 0.0000 0.0000 0.0000 0.0000 0.0000 22.0754
#
#
#
# Elastic Compliance Matrix: (Units=1/GPa)
#
#
# Indices 1 2 3 4 5 6 
#
# 1 0.011447 -0.000161 -0.003919 0.000000 0.000000 0.000000
# 2 -0.000161 0.012451 -0.003612 0.000000 0.000000 0.000000
# 3 -0.003919 -0.003612 0.007135 0.000000 0.000000 0.000000
# 4 0.000000 0.000000 0.000000 0.028340 0.000000 0.000000
# 5 0.000000 0.000000 0.000000 0.000000 0.021316 0.000000
# 6 0.000000 0.000000 0.000000 0.000000 0.000000 0.045299
#
#
# Mechanical properties :
#
#
# Convention : Reuss Voigt Hill
#
# Bulk Modulus (GPa) = 63.89825 82.37045 73.13435
# Shear Modulus (GPa) = 34.10930 38.51902 36.31416
#
# Velocity S-wave (km/s) = 4.00056 4.25130 4.12783
# Velocity P-wave (km/s) = 7.16387 7.92132 7.55210
#
# Compressibility (1/GPa) = 0.01564988
#
# Stress axis : x y z
#
# Youngs Moduli (GPa) = 87.35803 80.31667 140.15591
#
# Poissons Ratio (x) = 0.01292 0.54924
# Poissons Ratio (y) = 0.01405 0.50621
# Poissons Ratio (z) = 0.34234 0.29009
#
# Static dielectric constant tensor:
#      x y z
#    x 4.090940 0.000000 0.000000 
#    y 0.000000 3.720200 0.000000 
#    z 0.000000 0.000000 4.032910 
# 
# 
# High freq. dielectric constant tensor:
#      x y z
#    x 1.835120 0.000000 0.000000 
#    y 0.000000 1.837570 0.000000 
#    z 0.000000 0.000000 1.854140 
# 
# From -- ./inp_files/17544.got.cif
#   From: 2010.03.12/outbox.cif.g09.slc.cpg/sg67_9_cif.got.tgz:17544.got - 2010.04.10 22:41:39.
