data_PCOD8280026
_publ_section_title
;
Structure prediction by ZEFSAII (Michael W. Deem and Ramdas Pophale) SiO2 
 PCOD8280026
Probable space group: C M M A
;
_chemical_formula_sum "Si O2"
_cell_formula_units_Z 96
_cell_length_a 18.157156
_cell_length_b 27.709373
_cell_length_c 9.785325
_cell_angle_alpha 90.000000
_cell_angle_beta 90.000000
_cell_angle_gamma 90.000000
_cell_volume 4923.226065
_symmetry_space_group_name_H-M "C M M A"
_symmetry_group_IT_number 67
_symmetry_cell_setting 'orthorhombic'
loop_
_space_group_symop_operation_xyz
x,y,z
-x,1/2-y,z
x,-y,-z
-x,1/2+y,-z
-x,-y,-z
x,1/2+y,-z
-x,y,z
x,1/2-y,z
1/2+x,1/2+y,z
1/2-x,-y,z
1/2+x,1/2-y,-z
1/2-x,y,-z
1/2-x,1/2-y,-z
1/2+x,y,-z
1/2-x,1/2+y,z
1/2+x,-y,z
loop_
_atom_site_type_symbol
_atom_site_label
_atom_site_fract_x
_atom_site_fract_y
_atom_site_fract_z
Si Si1 0.581241 0.088072 0.954022
Si Si2 0.779403 0.137262 0.144782
Si Si3 0.350255 0.575263 0.754906
Si Si4 0.416659 0.022639 0.710739
Si Si5 0.086678 0.611835 0.516602
Si Si6 0.812864 0.695348 0.609908
O O1 0.500000 0.111303 0.944130
O O2 0.636052 0.123548 0.876317
O O3 0.583415 0.038346 0.869134
O O4 0.599154 0.079287 0.111608
O O5 0.732790 0.091221 0.204232
O O6 0.775100 0.182566 0.245447
O O7 0.750000 0.155154 0.000000
O O8 0.357371 0.520608 0.697761
O O9 0.380341 0.609506 0.635594
O O10 0.500000 0.005127 0.671203
O O11 0.391691 0.065195 0.607709
O O12 0.119370 0.659614 0.585218
O O13 0.000000 0.618221 0.509535
O O14 0.842445 0.750000 0.611161
O O15 0.750000 0.687527 0.500000
#
# Coordination Sequence:
#
# PCOD8280026 Si02
#       6
#    16  16  16  16  16  16
#     4  10  20  36  57  83 122 164 202 240 287 343
#     4  10  22  39  61  91 117 154 203 247 295 355
#     4  11  21  35  57  88 127 162 198 239 291 349
#     4  10  20  34  56  86 122 163 200 233 284 352
#     4  11  22  38  61  91 121 155 202 247 295 355
#     4  11  23  43  65  84 113 153 196 247 311 361
#
# _framework density 19.499409
#
# number of rings (size 3 to 8) (size 9 to 14) (size 15 to 20)
#    0.000    1.500    3.333    2.500    0.000    4.000 
#    0.000    2.500    0.000    0.000    0.000    0.000 
#    0.000    0.000    0.000    0.000    0.000    0.000 
#
# Total GULP energy -595056.712366 kJ/mol
# GULP energy per Si atom -12397.014841 kJ/mol
# Density = 1.945503 g / cm^3
# Si number density = 19.499409 Si / 1000 Ang^3
#
#
#
# Elastic Constant Matrix: (Units=GPa)
#
#
# Indices 1 2 3 4 5 6 
#
# 1 112.1753 46.9453 46.6612 0.0000 0.0000 0.0000
# 2 46.9453 97.7876 56.3364 0.0000 0.0000 0.0000
# 3 46.6612 56.3364 135.1902 0.0000 0.0000 0.0000
# 4 0.0000 0.0000 0.0000 19.1312 0.0000 0.0000
# 5 0.0000 0.0000 0.0000 0.0000 23.8473 0.0000
# 6 0.0000 0.0000 0.0000 0.0000 0.0000 21.8789
#
#
#
# Elastic Compliance Matrix: (Units=1/GPa)
#
#
# Indices 1 2 3 4 5 6 
#
# 1 0.011642 -0.004309 -0.002223 0.000000 0.000000 0.000000
# 2 -0.004309 0.015051 -0.004785 0.000000 0.000000 0.000000
# 3 -0.002223 -0.004785 0.010158 0.000000 0.000000 0.000000
# 4 0.000000 0.000000 0.000000 0.052271 0.000000 0.000000
# 5 0.000000 0.000000 0.000000 0.000000 0.041933 0.000000
# 6 0.000000 0.000000 0.000000 0.000000 0.000000 0.045706
#
#
# Mechanical properties :
#
#
# Convention : Reuss Voigt Hill
#
# Bulk Modulus (GPa) = 70.32893 71.67096 70.99995
# Shear Modulus (GPa) = 24.49358 25.98550 25.23954
#
# Velocity S-wave (km/s) = 3.54802 3.65448 3.60164
# Velocity P-wave (km/s) = 7.27531 7.39204 7.33391
#
# Compressibility (1/GPa) = 0.01421890
#
# Stress axis : x y z
#
# Youngs Moduli (GPa) = 85.89279 66.43886 98.44177
#
# Poissons Ratio (x) = 0.28626 0.21883
# Poissons Ratio (y) = 0.37007 0.47106
# Poissons Ratio (z) = 0.19093 0.31792
#
# Static dielectric constant tensor:
#      x y z
#    x 3.585150 0.000000 0.000000 
#    y 0.000000 3.286490 0.000000 
#    z 0.000000 0.000000 3.930460 
# 
# 
# High freq. dielectric constant tensor:
#      x y z
#    x 1.758150 0.000000 0.000000 
#    y 0.000000 1.721850 0.000000 
#    z 0.000000 0.000000 1.787890 
# 
# From -- ./inp_files/11511.got.cif
#   From: 2010.03.12/outbox.cif.g09.slc.cpg/sg67_6_cif.got.tgz:11511.got - 2010.04.10 22:41:39.
