data_PCOD8280964
_publ_section_title
;
Structure prediction by ZEFSAII (Michael W. Deem and Ramdas Pophale) SiO2 
 PCOD8280964
Probable space group: C M M A
;
_chemical_formula_sum "Si O2"
_cell_formula_units_Z 80
_cell_length_a 9.198020
_cell_length_b 17.539301
_cell_length_c 26.106955
_cell_angle_alpha 90.000000
_cell_angle_beta 90.000000
_cell_angle_gamma 90.000000
_cell_volume 4211.752588
_symmetry_space_group_name_H-M "C M M A"
_symmetry_group_IT_number 67
_symmetry_cell_setting 'orthorhombic'
loop_
_space_group_symop_operation_xyz
x,y,z
-x,1/2-y,z
x,-y,-z
-x,1/2+y,-z
-x,-y,-z
x,1/2+y,-z
-x,y,z
x,1/2-y,z
1/2+x,1/2+y,z
1/2-x,-y,z
1/2+x,1/2-y,-z
1/2-x,y,-z
1/2-x,1/2-y,-z
1/2+x,y,-z
1/2-x,1/2+y,z
1/2+x,-y,z
loop_
_atom_site_type_symbol
_atom_site_label
_atom_site_fract_x
_atom_site_fract_y
_atom_site_fract_z
Si Si1 0.165174 0.840223 0.450566
Si Si2 0.836145 0.159363 0.840703
Si Si3 0.830239 0.836636 0.743031
Si Si4 0.326750 0.080246 0.639316
Si Si5 0.163723 0.840706 0.047652
O O1 0.157820 0.750000 0.453536
O O2 0.250000 0.873449 0.500000
O O3 0.258665 0.861967 0.401215
O O4 0.000000 0.873405 0.448552
O O5 0.832103 0.250000 0.838968
O O6 0.741629 0.126716 0.793864
O O7 0.774728 0.132717 0.896537
O O8 0.000000 0.129537 0.833719
O O9 0.776224 0.750000 0.733013
O O10 0.785710 0.888191 0.695126
O O11 0.000000 0.837596 0.752612
O O12 0.500000 0.074267 0.631460
O O13 0.250000 0.000000 0.631359
O O14 0.170855 0.750000 0.044476
O O15 0.000000 0.869642 0.042457
O O16 0.250000 0.877697 0.000000
#
# Coordination Sequence:
#
# PCOD8280964 Si02
#       5
#    16  16  16  16  16
#     4  10  21  38  61  87 112 139 172 208 248 296
#     4   8  14  24  38  58  85 117 155 198 241 288
#     4   9  18  32  50  71  95 126 164 206 251 297
#     4  11  23  38  55  77 107 139 173 213 256 302
#     4   8  13  20  30  48  77 113 150 188 233 284
#
# _framework density 18.994468000000001
#
# number of rings (size 3 to 8) (size 9 to 14) (size 15 to 20)
#    0.000    2.800    0.000    3.000    0.000    4.800 
#    0.000    8.000    0.000    0.000    0.000    0.000 
#    0.000    0.800    0.000    8.800    0.000   14.400 
#
# Total GULP energy -495750.283034 kJ/mol
# GULP energy per Si atom -12393.757076 kJ/mol
# Density = 1.895124 g / cm^3
# Si number density = 18.994468 Si / 1000 Ang^3
#
#
#
# Elastic Constant Matrix: (Units=GPa)
#
#
# Indices 1 2 3 4 5 6 
#
# 1 91.4747 13.3944 74.3704 0.0000 0.0000 0.0000
# 2 13.3944 14.3346 7.9474 0.0000 0.0000 0.0000
# 3 74.3704 7.9474 169.4192 0.0000 0.0000 0.0000
# 4 0.0000 0.0000 0.0000 0.7852 0.0000 0.0000
# 5 0.0000 0.0000 0.0000 0.0000 42.5048 0.0000
# 6 0.0000 0.0000 0.0000 0.0000 0.0000 17.5504
#
#
#
# Elastic Compliance Matrix: (Units=1/GPa)
#
#
# Indices 1 2 3 4 5 6 
#
# 1 0.019305 -0.013697 -0.007832 0.000000 0.000000 0.000000
# 2 -0.013697 0.081342 0.002197 0.000000 0.000000 0.000000
# 3 -0.007832 0.002197 0.009237 0.000000 0.000000 0.000000
# 4 0.000000 0.000000 0.000000 1.273590 0.000000 0.000000
# 5 0.000000 0.000000 0.000000 0.000000 0.023527 0.000000
# 6 0.000000 0.000000 0.000000 0.000000 0.000000 0.056979
#
#
# Mechanical properties :
#
#
# Convention : Reuss Voigt Hill
#
# Bulk Modulus (GPa) = 14.04084 51.85032 32.94558
# Shear Modulus (GPa) = 3.27572 24.13583 13.70578
#
# Velocity S-wave (km/s) = 1.31465 3.56852 2.68911
# Velocity P-wave (km/s) = 3.11649 6.65853 5.19849
#
# Compressibility (1/GPa) = 0.07122080
#
# Stress axis : x y z
#
# Youngs Moduli (GPa) = 51.80008 12.29378 108.25506
#
# Poissons Ratio (x) = 0.16838 0.84784
# Poissons Ratio (y) = 0.70949 -0.23781
# Poissons Ratio (z) = 0.40569 -0.02701
#
# Static dielectric constant tensor:
#      x y z
#    x 3.651030 0.000000 0.000000 
#    y 0.000000 2.941200 0.000000 
#    z 0.000000 0.000000 3.961980 
# 
# 
# High freq. dielectric constant tensor:
#      x y z
#    x 1.738370 0.000000 0.000000 
#    y 0.000000 1.681320 0.000000 
#    z 0.000000 0.000000 1.761200 
# 
# From -- ./inp_files/43305.got.cif
#   From: 2010.03.12/outbox.cif.g09.slc.cpg/sg67_22_cif.got.tgz:43305.got - 2010.04.10 22:41:39.
