data_PCOD8280431
_publ_section_title
;
Structure prediction by ZEFSAII (Michael W. Deem and Ramdas Pophale) SiO2 
 PCOD8280431
Probable space group: C M M A
;
_chemical_formula_sum "Si O2"
_cell_formula_units_Z 88
_cell_length_a 10.120047
_cell_length_b 20.166451
_cell_length_c 22.101127
_cell_angle_alpha 90.000000
_cell_angle_beta 90.000000
_cell_angle_gamma 90.000000
_cell_volume 4510.518050
_symmetry_space_group_name_H-M "C M M A"
_symmetry_group_IT_number 67
_symmetry_cell_setting 'orthorhombic'
loop_
_space_group_symop_operation_xyz
x,y,z
-x,1/2-y,z
x,-y,-z
-x,1/2+y,-z
-x,-y,-z
x,1/2+y,-z
-x,y,z
x,1/2-y,z
1/2+x,1/2+y,z
1/2-x,-y,z
1/2+x,1/2-y,-z
1/2-x,y,-z
1/2-x,1/2-y,-z
1/2+x,y,-z
1/2-x,1/2+y,z
1/2+x,-y,z
loop_
_atom_site_type_symbol
_atom_site_label
_atom_site_fract_x
_atom_site_fract_y
_atom_site_fract_z
Si Si1 0.344262 0.672428 0.751763
Si Si2 0.000000 0.423357 0.936158
Si Si3 0.000000 0.079335 0.070148
Si Si4 0.244903 0.369189 0.378550
Si Si5 0.500000 0.590761 0.550167
Si Si6 0.644134 0.250000 0.551948
Si Si7 0.754248 0.578842 0.144143
Si Si8 0.500000 0.560364 0.415426
O O1 0.500000 0.662124 0.760758
O O2 0.306395 0.750000 0.760866
O O3 0.303716 0.646677 0.686383
O O4 0.264788 0.624398 0.796784
O O5 0.000000 0.501716 0.941136
O O6 0.872260 0.400645 0.899852
O O7 0.000000 0.389127 0.002639
O O8 0.125249 0.101860 0.108480
O O9 0.366798 0.377522 0.424138
O O10 0.155551 0.310621 0.402741
O O11 0.136394 0.428725 0.377426
O O12 0.500000 0.602671 0.478003
O O13 0.500000 0.515284 0.567829
O O14 0.500000 0.250000 0.520722
O O15 0.750000 0.250000 0.500000
O O16 0.750000 0.500000 0.160823
#
# Coordination Sequence:
#
# PCOD8280431 Si02
#       8
#    16   8   8  16   8   8  16   8
#     4  11  24  44  64  85 124 174 220 259 311 380
#     4   9  16  33  59  90 134 163 201 252 312 379
#     4   9  18  31  57  98 128 161 197 262 322 357
#     4  12  24  42  64  90 121 161 211 254 309 383
#     4  11  24  42  65  90 126 160 194 247 324 401
#     4  12  26  42  68  98 124 154 203 270 323 373
#     4  10  20  36  62  94 124 162 213 259 308 371
#     4  11  24  42  63  94 124 156 194 255 328 385
#
# _framework density 19.509954
#
# number of rings (size 3 to 8) (size 9 to 14) (size 15 to 20)
#    0.000    1.273    3.636    2.727    1.273    5.818 
#    0.000    1.364    0.000    3.273    0.000    0.000 
#    0.000    0.000    0.000    0.000    0.000    0.000 
#
# Total GULP energy -545469.329623 kJ/mol
# GULP energy per Si atom -12397.030219 kJ/mol
# Density = 1.946555 g / cm^3
# Si number density = 19.509954 Si / 1000 Ang^3
#
#
#
# Elastic Constant Matrix: (Units=GPa)
#
#
# Indices 1 2 3 4 5 6 
#
# 1 140.2322 27.3726 37.1689 0.0000 0.0000 0.0000
# 2 27.3726 63.7262 43.4171 0.0000 0.0000 0.0000
# 3 37.1689 43.4171 112.5077 0.0000 0.0000 0.0000
# 4 0.0000 0.0000 0.0000 4.1410 0.0000 0.0000
# 5 0.0000 0.0000 0.0000 0.0000 123.7743 0.0000
# 6 0.0000 0.0000 0.0000 0.0000 0.0000 37.9062
#
#
#
# Elastic Compliance Matrix: (Units=1/GPa)
#
#
# Indices 1 2 3 4 5 6 
#
# 1 0.008043 -0.002231 -0.001796 0.000000 0.000000 0.000000
# 2 -0.002231 0.021908 -0.007718 0.000000 0.000000 0.000000
# 3 -0.001796 -0.007718 0.012460 0.000000 0.000000 0.000000
# 4 0.000000 0.000000 0.000000 0.241486 0.000000 0.000000
# 5 0.000000 0.000000 0.000000 0.000000 0.008079 0.000000
# 6 0.000000 0.000000 0.000000 0.000000 0.000000 0.026381
#
#
# Mechanical properties :
#
#
# Convention : Reuss Voigt Hill
#
# Bulk Modulus (GPa) = 52.84899 59.15370 56.00135
# Shear Modulus (GPa) = 14.36151 47.06480 30.71316
#
# Velocity S-wave (km/s) = 2.71608 4.91689 3.97196
# Velocity P-wave (km/s) = 6.08138 7.91328 7.05703
#
# Compressibility (1/GPa) = 0.01892184
#
# Stress axis : x y z
#
# Youngs Moduli (GPa) = 124.33882 45.64472 80.25769
#
# Poissons Ratio (x) = 0.10183 0.14415
# Poissons Ratio (y) = 0.27738 0.61939
# Poissons Ratio (z) = 0.22333 0.35226
#
# Static dielectric constant tensor:
#      x y z
#    x 3.805540 0.000000 0.000000 
#    y 0.000000 3.516300 0.000000 
#    z 0.000000 0.000000 3.671500 
# 
# 
# High freq. dielectric constant tensor:
#      x y z
#    x 1.778430 0.000000 0.000000 
#    y 0.000000 1.744730 0.000000 
#    z 0.000000 0.000000 1.758440 
# 
# From -- ./inp_files/37034.got.cif
#   From: 2010.03.12/outbox.cif.g09.slc.cpg/sg67_19_cif.got.tgz:37034.got - 2010.04.10 22:41:39.
