data_PCOD8280029
_publ_section_title
;
Structure prediction by ZEFSAII (Michael W. Deem and Ramdas Pophale) SiO2 
 PCOD8280029
Probable space group: C M M A
;
_chemical_formula_sum "Si O2"
_cell_formula_units_Z 96
_cell_length_a 8.613731
_cell_length_b 28.401698
_cell_length_c 20.563834
_cell_angle_alpha 90.000000
_cell_angle_beta 90.000000
_cell_angle_gamma 90.000000
_cell_volume 5030.830666
_symmetry_space_group_name_H-M "C M M A"
_symmetry_group_IT_number 67
_symmetry_cell_setting 'orthorhombic'
loop_
_space_group_symop_operation_xyz
x,y,z
-x,1/2-y,z
x,-y,-z
-x,1/2+y,-z
-x,-y,-z
x,1/2+y,-z
-x,y,z
x,1/2-y,z
1/2+x,1/2+y,z
1/2-x,-y,z
1/2+x,1/2-y,-z
1/2-x,y,-z
1/2-x,1/2-y,-z
1/2+x,y,-z
1/2-x,1/2+y,z
1/2+x,-y,z
loop_
_atom_site_type_symbol
_atom_site_label
_atom_site_fract_x
_atom_site_fract_y
_atom_site_fract_z
Si Si1 0.182730 0.448353 0.310076
Si Si2 0.681758 0.105443 0.432731
Si Si3 0.679145 0.696632 0.756145
Si Si4 0.316759 0.389939 0.816819
Si Si5 0.316588 0.550009 0.930127
Si Si6 0.681131 0.803199 0.383828
O O1 0.250000 0.500000 0.302862
O O2 0.246101 0.423241 0.373787
O O3 0.233569 0.418936 0.246971
O O4 0.000000 0.451585 0.316164
O O5 0.500000 0.097847 0.432451
O O6 0.750000 0.085309 0.500000
O O7 0.722257 0.160877 0.427944
O O8 0.500000 0.683755 0.742492
O O9 0.695476 0.750000 0.781426
O O10 0.753318 0.663151 0.810553
O O11 0.776296 0.688809 0.690897
O O12 0.500000 0.390284 0.827630
O O13 0.232764 0.410697 0.879321
O O14 0.500000 0.546115 0.934677
O O15 0.250000 0.500000 0.906636
O O16 0.250000 0.564393 0.000000
O O17 0.500000 0.814072 0.392462
O O18 0.723027 0.750000 0.405540
#
# Coordination Sequence:
#
# PCOD8280029 Si02
#       6
#    16  16  16  16  16  16
#     4  11  24  41  61  86 115 148 192 241 290 345
#     4  12  25  41  61  82 112 149 192 240 294 354
#     4  10  20  34  56  87 120 154 194 239 288 342
#     4  11  22  37  61  90 122 157 196 241 289 342
#     4  11  22  38  60  88 125 162 202 243 290 347
#     4  10  20  36  58  84 115 149 188 236 290 347
#
# _framework density 19.082336999999999
#
# number of rings (size 3 to 8) (size 9 to 14) (size 15 to 20)
#    0.000    1.167    1.667    6.000    0.000    6.000 
#    0.000    1.667    0.000    0.500    0.000    0.000 
#    0.000    0.000    0.000    0.000    0.000    0.000 
#
# Total GULP energy -595467.449588 kJ/mol
# GULP energy per Si atom -12405.571866 kJ/mol
# Density = 1.903890 g / cm^3
# Si number density = 19.082337 Si / 1000 Ang^3
#
#
#
# Elastic Constant Matrix: (Units=GPa)
#
#
# Indices 1 2 3 4 5 6 
#
# 1 89.3154 43.0158 42.1459 0.0000 0.0000 0.0000
# 2 43.0158 98.9327 46.7562 0.0000 0.0000 0.0000
# 3 42.1459 46.7562 99.1956 0.0000 0.0000 0.0000
# 4 0.0000 0.0000 0.0000 22.2156 0.0000 0.0000
# 5 0.0000 0.0000 0.0000 0.0000 32.5369 0.0000
# 6 0.0000 0.0000 0.0000 0.0000 0.0000 33.1675
#
#
#
# Elastic Compliance Matrix: (Units=1/GPa)
#
#
# Indices 1 2 3 4 5 6 
#
# 1 0.015519 -0.004672 -0.004391 0.000000 0.000000 0.000000
# 2 -0.004672 0.014412 -0.004808 0.000000 0.000000 0.000000
# 3 -0.004391 -0.004808 0.014213 0.000000 0.000000 0.000000
# 4 0.000000 0.000000 0.000000 0.045013 0.000000 0.000000
# 5 0.000000 0.000000 0.000000 0.000000 0.030734 0.000000
# 6 0.000000 0.000000 0.000000 0.000000 0.000000 0.030150
#
#
# Mechanical properties :
#
#
# Convention : Reuss Voigt Hill
#
# Bulk Modulus (GPa) = 60.97310 61.25330 61.11320
# Shear Modulus (GPa) = 27.28510 27.95240 27.61875
#
# Velocity S-wave (km/s) = 3.78545 3.83146 3.80853
# Velocity P-wave (km/s) = 7.15040 7.19324 7.17185
#
# Compressibility (1/GPa) = 0.01640068
#
# Stress axis : x y z
#
# Youngs Moduli (GPa) = 64.43882 69.38887 70.35796
#
# Poissons Ratio (x) = 0.32419 0.30896
# Poissons Ratio (y) = 0.30107 0.33827
# Poissons Ratio (z) = 0.28297 0.33361
#
# Static dielectric constant tensor:
#      x y z
#    x 3.633880 0.000000 0.000000 
#    y 0.000000 3.683460 0.000000 
#    z 0.000000 0.000000 3.397940 
# 
# 
# High freq. dielectric constant tensor:
#      x y z
#    x 1.762420 0.000000 0.000000 
#    y 0.000000 1.746380 0.000000 
#    z 0.000000 0.000000 1.729180 
# 
# From -- ./inp_files/37160.got.cif
#   From: 2010.03.12/outbox.cif.g09.slc.cpg/sg67_19_cif.got.tgz:37160.got - 2010.04.10 22:41:39.
