data_PCOD8280980
_publ_section_title
;
Structure prediction by ZEFSAII (Michael W. Deem and Ramdas Pophale) SiO2 
 PCOD8280980
Probable space group: C M M A
;
_chemical_formula_sum "Si O2"
_cell_formula_units_Z 88
_cell_length_a 23.231359
_cell_length_b 15.886443
_cell_length_c 11.638339
_cell_angle_alpha 90.000000
_cell_angle_beta 90.000000
_cell_angle_gamma 90.000000
_cell_volume 4295.287994
_symmetry_space_group_name_H-M "C M M A"
_symmetry_group_IT_number 67
_symmetry_cell_setting 'orthorhombic'
loop_
_space_group_symop_operation_xyz
x,y,z
-x,1/2-y,z
x,-y,-z
-x,1/2+y,-z
-x,-y,-z
x,1/2+y,-z
-x,y,z
x,1/2-y,z
1/2+x,1/2+y,z
1/2-x,-y,z
1/2+x,1/2-y,-z
1/2-x,y,-z
1/2-x,1/2-y,-z
1/2+x,y,-z
1/2-x,1/2+y,z
1/2+x,-y,z
loop_
_atom_site_type_symbol
_atom_site_label
_atom_site_fract_x
_atom_site_fract_y
_atom_site_fract_z
Si Si1 0.066314 0.999289 0.249075
Si Si2 0.756927 0.095100 0.724044
Si Si3 0.357974 0.584507 0.570610
Si Si4 0.688435 0.156996 0.055466
Si Si5 0.868967 0.656800 0.660472
Si Si6 0.613533 0.500000 0.000000
O O1 0.100536 0.925502 0.317884
O O2 0.000000 0.988312 0.280812
O O3 0.086568 0.092086 0.284541
O O4 0.074534 0.990169 0.112723
O O5 0.791648 0.096833 0.605006
O O6 0.799693 0.143177 0.810188
O O7 0.695316 0.137024 0.705078
O O8 0.750000 0.000000 0.770282
O O9 0.363074 0.500000 0.500000
O O10 0.374231 0.656916 0.479241
O O11 0.659910 0.250000 0.038412
O O12 0.651164 0.085168 0.992815
O O13 0.750000 0.153597 0.000000
O O14 0.885359 0.750000 0.702960
#
# Coordination Sequence:
#
# PCOD8280980 Si02
#       6
#    16  16  16  16  16   8
#     4  11  24  43  67  89 117 165 223 270 314 377
#     4  12  19  36  61  93 130 166 204 250 314 392
#     4  10  21  38  61  91 123 162 207 251 309 385
#     4  11  23  36  58  93 130 167 205 253 320 394
#     4  11  24  38  62  97 131 164 205 260 318 383
#     4  12  22  44  66  90 122 169 219 272 326 380
#
# _framework density 20.487568
#
# number of rings (size 3 to 8) (size 9 to 14) (size 15 to 20)
#    0.000    0.909    5.455    3.818    0.000    8.000 
#    0.000    0.000    0.000    2.727    0.000    0.000 
#    0.000    0.000    0.000    0.000    0.000    0.000 
#
# Total GULP energy -545401.742264 kJ/mol
# GULP energy per Si atom -12395.494142 kJ/mol
# Density = 2.044094 g / cm^3
# Si number density = 20.487568 Si / 1000 Ang^3
#
#
#
# Elastic Constant Matrix: (Units=GPa)
#
#
# Indices 1 2 3 4 5 6 
#
# 1 82.4431 18.0833 16.0624 0.0000 0.0000 0.0000
# 2 18.0833 106.3333 -1.0245 0.0000 0.0000 0.0000
# 3 16.0624 -1.0245 83.8912 0.0000 0.0000 0.0000
# 4 0.0000 0.0000 0.0000 10.2191 0.0000 0.0000
# 5 0.0000 0.0000 0.0000 0.0000 21.5488 0.0000
# 6 0.0000 0.0000 0.0000 0.0000 0.0000 14.0324
#
#
#
# Elastic Compliance Matrix: (Units=1/GPa)
#
#
# Indices 1 2 3 4 5 6 
#
# 1 0.013119 -0.002256 -0.002539 0.000000 0.000000 0.000000
# 2 -0.002256 0.009793 0.000551 0.000000 0.000000 0.000000
# 3 -0.002539 0.000551 0.012413 0.000000 0.000000 0.000000
# 4 0.000000 0.000000 0.000000 0.097856 0.000000 0.000000
# 5 0.000000 0.000000 0.000000 0.000000 0.046406 0.000000
# 6 0.000000 0.000000 0.000000 0.000000 0.000000 0.071264
#
#
# Mechanical properties :
#
#
# Convention : Reuss Voigt Hill
#
# Bulk Modulus (GPa) = 37.25986 37.65666 37.45826
# Shear Modulus (GPa) = 18.63693 25.12982 21.88337
#
# Velocity S-wave (km/s) = 3.01935 3.50607 3.27177
# Velocity P-wave (km/s) = 5.51192 5.90001 5.70927
#
# Compressibility (1/GPa) = 0.02683853
#
# Stress axis : x y z
#
# Youngs Moduli (GPa) = 76.22495 102.11078 80.55972
#
# Poissons Ratio (x) = 0.23031 0.20458
# Poissons Ratio (y) = 0.17193 -0.04443
# Poissons Ratio (z) = 0.19357 -0.05631
#
# Static dielectric constant tensor:
#      x y z
#    x 3.405300 0.000000 0.000000 
#    y 0.000000 4.223960 0.000000 
#    z 0.000000 0.000000 -4.950410 
# 
# 
# High freq. dielectric constant tensor:
#      x y z
#    x 1.772880 0.000000 0.000000 
#    y 0.000000 1.790220 0.000000 
#    z 0.000000 0.000000 1.820350 
# 
# From -- ./inp_files/22823.got.cif
#   From: 2010.03.12/outbox.cif.g09.slc.cpg/sg67_12_cif.got.tgz:22823.got - 2010.04.10 22:41:39.
