data_PCOD8280122
_publ_section_title
;
Structure prediction by ZEFSAII (Michael W. Deem and Ramdas Pophale) SiO2 
 PCOD8280122
Probable space group: C M M A
;
_chemical_formula_sum "Si O2"
_cell_formula_units_Z 88
_cell_length_a 9.057781
_cell_length_b 16.154874
_cell_length_c 29.505907
_cell_angle_alpha 90.000000
_cell_angle_beta 90.000000
_cell_angle_gamma 90.000000
_cell_volume 4317.520023
_symmetry_space_group_name_H-M "C M M A"
_symmetry_group_IT_number 67
_symmetry_cell_setting 'orthorhombic'
loop_
_space_group_symop_operation_xyz
x,y,z
-x,1/2-y,z
x,-y,-z
-x,1/2+y,-z
-x,-y,-z
x,1/2+y,-z
-x,y,z
x,1/2-y,z
1/2+x,1/2+y,z
1/2-x,-y,z
1/2+x,1/2-y,-z
1/2-x,y,-z
1/2-x,1/2-y,-z
1/2+x,y,-z
1/2-x,1/2+y,z
1/2+x,-y,z
loop_
_atom_site_type_symbol
_atom_site_label
_atom_site_fract_x
_atom_site_fract_y
_atom_site_fract_z
Si Si1 0.170346 0.584191 0.275531
Si Si2 0.674411 0.750000 0.048183
Si Si3 0.825544 0.912507 0.375989
Si Si4 0.337415 0.654798 0.458010
Si Si5 0.670630 0.843432 0.817601
Si Si6 0.825495 0.083810 0.101109
O O1 0.250000 0.500000 0.263608
O O2 0.214436 0.619574 0.325123
O O3 0.208874 0.648810 0.235788
O O4 0.000000 0.561643 0.276197
O O5 0.500000 0.750000 0.042163
O O6 0.725035 0.834231 0.073594
O O7 0.750000 0.750000 0.000000
O O8 0.755971 0.850000 0.411844
O O9 0.000000 0.918740 0.383562
O O10 0.750000 0.000000 0.384807
O O11 0.500000 0.613164 0.452863
O O12 0.359819 0.750000 0.469809
O O13 0.250000 0.611900 0.500000
O O14 0.500000 0.866054 0.826716
O O15 0.705801 0.750000 0.832152
O O16 0.772007 0.904345 0.847144
O O17 0.000000 0.071723 0.099649
O O18 0.750000 0.000000 0.081137
#
# Coordination Sequence:
#
# PCOD8280122 Si02
#       6
#    16   8  16  16  16  16
#     4   9  19  34  52  77 109 146 187 231 280 338
#     4  10  24  44  66  92 128 164 206 258 309 364
#     4  10  20  35  55  78 108 143 180 226 278 332
#     4  10  21  37  56  78 104 134 173 221 274 336
#     4  10  20  35  57  86 119 157 200 245 293 350
#     4  11  23  41  63  92 126 164 207 255 308 364
#
# _framework density 20.382071
#
# number of rings (size 3 to 8) (size 9 to 14) (size 15 to 20)
#    0.000    2.000    0.909    2.182    0.000    6.909 
#    0.000    5.455    0.000    0.000    0.000    0.000 
#    0.000    0.000    0.000    0.000    0.000    0.000 
#
# Total GULP energy -545477.494185 kJ/mol
# GULP energy per Si atom -12397.215777 kJ/mol
# Density = 2.033568 g / cm^3
# Si number density = 20.382071 Si / 1000 Ang^3
#
#
#
# Elastic Constant Matrix: (Units=GPa)
#
#
# Indices 1 2 3 4 5 6 
#
# 1 94.1591 40.9345 51.5936 0.0000 0.0000 0.0000
# 2 40.9345 93.2704 46.7245 0.0000 0.0000 0.0000
# 3 51.5936 46.7245 125.5478 0.0000 0.0000 0.0000
# 4 0.0000 0.0000 0.0000 21.6338 0.0000 0.0000
# 5 0.0000 0.0000 0.0000 0.0000 35.2344 0.0000
# 6 0.0000 0.0000 0.0000 0.0000 0.0000 30.3075
#
#
#
# Elastic Compliance Matrix: (Units=1/GPa)
#
#
# Indices 1 2 3 4 5 6 
#
# 1 0.014985 -0.004292 -0.004561 0.000000 0.000000 0.000000
# 2 -0.004292 0.014408 -0.003598 0.000000 0.000000 0.000000
# 3 -0.004561 -0.003598 0.011179 0.000000 0.000000 0.000000
# 4 0.000000 0.000000 0.000000 0.046224 0.000000 0.000000
# 5 0.000000 0.000000 0.000000 0.000000 0.028381 0.000000
# 6 0.000000 0.000000 0.000000 0.000000 0.000000 0.032995
#
#
# Mechanical properties :
#
#
# Convention : Reuss Voigt Hill
#
# Bulk Modulus (GPa) = 63.81879 65.72027 64.76953
# Shear Modulus (GPa) = 28.04304 29.01679 28.52992
#
# Velocity S-wave (km/s) = 3.71329 3.77721 3.74539
# Velocity P-wave (km/s) = 7.05436 7.16500 7.10990
#
# Compressibility (1/GPa) = 0.01566937
#
# Stress axis : x y z
#
# Youngs Moduli (GPa) = 66.73222 69.40706 89.45729
#
# Poissons Ratio (x) = 0.29789 0.40800
# Poissons Ratio (y) = 0.28641 0.32189
# Poissons Ratio (z) = 0.30436 0.24975
#
# Static dielectric constant tensor:
#      x y z
#    x 3.814010 0.000000 0.000000 
#    y 0.000000 3.889720 0.000000 
#    z 0.000000 0.000000 3.813420 
# 
# 
# High freq. dielectric constant tensor:
#      x y z
#    x 1.799730 0.000000 0.000000 
#    y 0.000000 1.782150 0.000000 
#    z 0.000000 0.000000 1.802520 
# 
# From -- ./inp_files/45257.got.cif
#   From: 2010.03.12/outbox.cif.g09.slc.cpg/sg67_23_cif.got.tgz:45257.got - 2010.04.10 22:41:39.
