data_PCOD8280700
_publ_section_title
;
Structure prediction by ZEFSAII (Michael W. Deem and Ramdas Pophale) SiO2 
 PCOD8280700
Probable space group: C M M A
;
_chemical_formula_sum "Si O2"
_cell_formula_units_Z 104
_cell_length_a 9.323551
_cell_length_b 21.821924
_cell_length_c 28.220676
_cell_angle_alpha 90.000000
_cell_angle_beta 90.000000
_cell_angle_gamma 90.000000
_cell_volume 5741.717255
_symmetry_space_group_name_H-M "C M M A"
_symmetry_group_IT_number 67
_symmetry_cell_setting 'orthorhombic'
loop_
_space_group_symop_operation_xyz
x,y,z
-x,1/2-y,z
x,-y,-z
-x,1/2+y,-z
-x,-y,-z
x,1/2+y,-z
-x,y,z
x,1/2-y,z
1/2+x,1/2+y,z
1/2-x,-y,z
1/2+x,1/2-y,-z
1/2-x,y,-z
1/2-x,1/2-y,-z
1/2+x,y,-z
1/2-x,1/2+y,z
1/2+x,-y,z
loop_
_atom_site_type_symbol
_atom_site_label
_atom_site_fract_x
_atom_site_fract_y
_atom_site_fract_z
Si Si1 0.250000 0.000000 0.626564
Si Si2 0.337586 0.677239 0.135873
Si Si3 0.663301 0.119513 0.322756
Si Si4 0.340525 0.924413 0.458515
Si Si5 0.667713 0.679862 0.583862
Si Si6 0.832542 0.821661 0.228517
Si Si7 0.336721 0.823043 0.954372
O O1 0.325151 0.951720 0.661748
O O2 0.146270 0.963592 0.590255
O O3 0.500000 0.651032 0.134581
O O4 0.341694 0.750000 0.133108
O O5 0.258618 0.656029 0.183610
O O6 0.246536 0.651364 0.091651
O O7 0.500000 0.137470 0.315822
O O8 0.725711 0.163604 0.363567
O O9 0.731945 0.137479 0.272115
O O10 0.500000 0.912342 0.477305
O O11 0.250000 0.958674 0.500000
O O12 0.259764 0.859919 0.452195
O O13 0.500000 0.662364 0.579456
O O14 0.697062 0.750000 0.572163
O O15 0.807595 0.750000 0.239848
O O16 0.000000 0.834277 0.217876
O O17 0.500000 0.848333 0.955179
O O18 0.340019 0.750000 0.953825
O O19 0.250000 0.847178 0.000000
#
# Coordination Sequence:
#
# PCOD8280700 Si02
#       7
#     8  16  16  16  16  16  16
#     4  10  21  36  54  74  98 122 153 192 234 278
#     4   9  16  25  36  53  81 115 150 189 230 271
#     4   9  17  31  51  72  93 120 154 190 229 276
#     4  11  23  37  55  77 100 127 157 191 231 275
#     4   9  18  34  55  77 101 128 157 190 229 275
#     4   9  16  27  45  67  89 116 151 188 227 273
#     4   9  15  22  33  50  74 108 151 194 233 273
#
# _framework density 18.113047000000002
#
# number of rings (size 3 to 8) (size 9 to 14) (size 15 to 20)
#    0.000    2.615    0.000    2.538    0.000    8.615 
#    0.000    3.846    0.000    3.692    0.000    0.000 
#    0.000    0.000    0.000    0.692    0.000   11.231 
#
# Total GULP energy -644338.885534 kJ/mol
# GULP energy per Si atom -12391.132414 kJ/mol
# Density = 1.807182 g / cm^3
# Si number density = 18.113047 Si / 1000 Ang^3
#
#
#
# Elastic Constant Matrix: (Units=GPa)
#
#
# Indices 1 2 3 4 5 6 
#
# 1 122.9264 27.1599 62.4674 0.0000 0.0000 0.0000
# 2 27.1599 65.0302 34.3201 0.0000 0.0000 0.0000
# 3 62.4674 34.3201 146.6754 0.0000 0.0000 0.0000
# 4 0.0000 0.0000 0.0000 11.4902 0.0000 0.0000
# 5 0.0000 0.0000 0.0000 0.0000 28.0200 0.0000
# 6 0.0000 0.0000 0.0000 0.0000 0.0000 7.5388
#
#
#
# Elastic Compliance Matrix: (Units=1/GPa)
#
#
# Indices 1 2 3 4 5 6 
#
# 1 0.010688 -0.002352 -0.004002 0.000000 0.000000 0.000000
# 2 -0.002352 0.018062 -0.003224 0.000000 0.000000 0.000000
# 3 -0.004002 -0.003224 0.009276 0.000000 0.000000 0.000000
# 4 0.000000 0.000000 0.000000 0.087031 0.000000 0.000000
# 5 0.000000 0.000000 0.000000 0.000000 0.035689 0.000000
# 6 0.000000 0.000000 0.000000 0.000000 0.000000 0.132646
#
#
# Mechanical properties :
#
#
# Convention : Reuss Voigt Hill
#
# Bulk Modulus (GPa) = 52.99431 64.72520 58.85975
# Shear Modulus (GPa) = 15.68194 23.45546 19.56870
#
# Velocity S-wave (km/s) = 2.94561 3.60244 3.29046
# Velocity P-wave (km/s) = 6.39452 7.28801 6.85583
#
# Compressibility (1/GPa) = 0.01886995
#
# Stress axis : x y z
#
# Youngs Moduli (GPa) = 93.56197 55.36635 107.79944
#
# Poissons Ratio (x) = 0.13022 0.43137
# Poissons Ratio (y) = 0.22006 0.34759
# Poissons Ratio (z) = 0.37440 0.17853
#
# Static dielectric constant tensor:
#      x y z
#    x 3.295080 0.000000 0.000000 
#    y 0.000000 2.921790 0.000000 
#    z 0.000000 0.000000 3.606440 
# 
# 
# High freq. dielectric constant tensor:
#      x y z
#    x 1.693060 0.000000 0.000000 
#    y 0.000000 1.650910 0.000000 
#    z 0.000000 0.000000 1.710410 
# 
# From -- ./inp_files/43733.got.cif
#   From: 2010.03.12/outbox.cif.g09.slc.cpg/sg67_22_cif.got.tgz:43733.got - 2010.04.10 22:41:39.
