data_PCOD8280007
_publ_section_title
;
Structure prediction by ZEFSAII (Michael W. Deem and Ramdas Pophale) SiO2 
 PCOD8280007
Probable space group: C M M A
;
_chemical_formula_sum "Si O2"
_cell_formula_units_Z 72
_cell_length_a 9.149645
_cell_length_b 31.621108
_cell_length_c 12.962719
_cell_angle_alpha 90.000000
_cell_angle_beta 90.000000
_cell_angle_gamma 90.000000
_cell_volume 3750.398655
_symmetry_space_group_name_H-M "C M M A"
_symmetry_group_IT_number 67
_symmetry_cell_setting 'orthorhombic'
loop_
_space_group_symop_operation_xyz
x,y,z
-x,1/2-y,z
x,-y,-z
-x,1/2+y,-z
-x,-y,-z
x,1/2+y,-z
-x,y,z
x,1/2-y,z
1/2+x,1/2+y,z
1/2-x,-y,z
1/2+x,1/2-y,-z
1/2-x,y,-z
1/2-x,1/2-y,-z
1/2+x,y,-z
1/2-x,1/2+y,z
1/2+x,-y,z
loop_
_atom_site_type_symbol
_atom_site_label
_atom_site_fract_x
_atom_site_fract_y
_atom_site_fract_z
Si Si1 0.157458 0.557575 0.594677
Si Si2 0.750000 0.500000 0.764719
Si Si3 0.167275 0.421527 0.894090
Si Si4 0.830546 0.299424 0.605886
Si Si5 0.175006 0.633413 0.731228
O O1 0.250000 0.539775 0.500000
O O2 0.139812 0.524530 0.688633
O O3 0.219749 0.601519 0.639102
O O4 0.000000 0.565764 0.546438
O O5 0.835642 0.465988 0.833317
O O6 0.253163 0.383966 0.836108
O O7 0.000000 0.407532 0.912916
O O8 0.250000 0.429833 0.000000
O O9 0.816719 0.250000 0.628639
O O10 0.750000 0.311694 0.500000
O O11 0.748572 0.322127 0.701174
O O12 0.000000 0.313404 0.598682
O O13 0.000000 0.637391 0.745489
#
# Coordination Sequence:
#
# PCOD8280007 Si02
#       5
#    16   8  16  16  16
#     4  10  21  34  49  73 105 141 180 220 263 314
#     4  10  22  36  54  76 104 140 182 226 272 322
#     4  11  23  39  59  80 105 138 180 231 283 332
#     4  10  20  34  55  85 119 152 185 221 264 317
#     4  10  21  37  56  79 109 144 184 227 273 326
#
# _framework density 19.197958
#
# number of rings (size 3 to 8) (size 9 to 14) (size 15 to 20)
#    0.000    1.778    0.000    4.000    0.000   12.889 
#    0.000    0.000    0.000    0.667    0.000    0.000 
#    0.000    0.000    0.000    0.000    0.000    0.000 
#
# Total GULP energy -446292.836845 kJ/mol
# GULP energy per Si atom -12397.023246 kJ/mol
# Density = 1.915426 g / cm^3
# Si number density = 19.197958 Si / 1000 Ang^3
#
#
#
# Elastic Constant Matrix: (Units=GPa)
#
#
# Indices 1 2 3 4 5 6 
#
# 1 135.8692 37.6924 56.9581 0.0000 0.0000 0.0000
# 2 37.6924 76.3668 40.0437 0.0000 0.0000 0.0000
# 3 56.9581 40.0437 116.0466 0.0000 0.0000 0.0000
# 4 0.0000 0.0000 0.0000 22.0473 0.0000 0.0000
# 5 0.0000 0.0000 0.0000 0.0000 31.2325 0.0000
# 6 0.0000 0.0000 0.0000 0.0000 0.0000 19.7877
#
#
#
# Elastic Compliance Matrix: (Units=1/GPa)
#
#
# Indices 1 2 3 4 5 6 
#
# 1 0.009736 -0.002808 -0.003810 0.000000 0.000000 0.000000
# 2 -0.002808 0.016797 -0.004418 0.000000 0.000000 0.000000
# 3 -0.003810 -0.004418 0.012012 0.000000 0.000000 0.000000
# 4 0.000000 0.000000 0.000000 0.045357 0.000000 0.000000
# 5 0.000000 0.000000 0.000000 0.000000 0.032018 0.000000
# 6 0.000000 0.000000 0.000000 0.000000 0.000000 0.050536
#
#
# Mechanical properties :
#
#
# Convention : Reuss Voigt Hill
#
# Bulk Modulus (GPa) = 60.70265 66.40789 63.55527
# Shear Modulus (GPa) = 25.77074 27.51941 26.64508
#
# Velocity S-wave (km/s) = 3.66781 3.79021 3.72951
# Velocity P-wave (km/s) = 7.04451 7.33624 7.19185
#
# Compressibility (1/GPa) = 0.01647374
#
# Stress axis : x y z
#
# Youngs Moduli (GPa) = 102.71111 59.53395 83.25230
#
# Poissons Ratio (x) = 0.16715 0.31718
# Poissons Ratio (y) = 0.28838 0.36781
# Poissons Ratio (z) = 0.39131 0.26302
#
# Static dielectric constant tensor:
#      x y z
#    x 3.503060 0.000000 0.000000 
#    y 0.000000 3.461790 0.000000 
#    z 0.000000 0.000000 3.400240 
# 
# 
# High freq. dielectric constant tensor:
#      x y z
#    x 1.757860 0.000000 0.000000 
#    y 0.000000 1.737910 0.000000 
#    z 0.000000 0.000000 1.734220 
# 
# From -- ./inp_files/25322.got.cif
#   From: 2010.03.12/outbox.cif.g09.slc.cpg/sg67_13_cif.got.tgz:25322.got - 2010.04.10 22:41:39.
