data_PCOD8280690
_publ_section_title
;
Structure prediction by ZEFSAII (Michael W. Deem and Ramdas Pophale) SiO2 
 PCOD8280690
Probable space group: C M M A
;
_chemical_formula_sum "Si O2"
_cell_formula_units_Z 96
_cell_length_a 28.748783
_cell_length_b 8.851077
_cell_length_c 20.508767
_cell_angle_alpha 90.000000
_cell_angle_beta 90.000000
_cell_angle_gamma 90.000000
_cell_volume 5218.613516
_symmetry_space_group_name_H-M "C M M A"
_symmetry_group_IT_number 67
_symmetry_cell_setting 'orthorhombic'
loop_
_space_group_symop_operation_xyz
x,y,z
-x,1/2-y,z
x,-y,-z
-x,1/2+y,-z
-x,-y,-z
x,1/2+y,-z
-x,y,z
x,1/2-y,z
1/2+x,1/2+y,z
1/2-x,-y,z
1/2+x,1/2-y,-z
1/2-x,y,-z
1/2-x,1/2-y,-z
1/2+x,y,-z
1/2-x,1/2+y,z
1/2+x,-y,z
loop_
_atom_site_type_symbol
_atom_site_label
_atom_site_fract_x
_atom_site_fract_y
_atom_site_fract_z
Si Si1 0.949544 0.929413 0.377639
Si Si2 0.447653 0.425592 0.229058
Si Si3 0.201093 0.072505 0.067055
Si Si4 0.299996 0.071568 0.305291
Si Si5 0.854159 0.428815 0.566702
Si Si6 0.141520 0.925806 0.808207
O O1 0.949037 0.750000 0.378304
O O2 0.943168 0.982583 0.303401
O O3 0.906610 0.991904 0.420290
O O4 0.000000 0.987906 0.404267
O O5 0.500000 0.453463 0.203274
O O6 0.434272 0.250000 0.223503
O O7 0.412274 0.524566 0.186173
O O8 0.208103 0.250000 0.057194
O O9 0.164304 0.034193 0.122847
O O10 0.250000 0.000000 0.087752
O O11 0.182540 0.000000 0.000000
O O12 0.295203 0.250000 0.301917
O O13 0.320476 0.019234 0.374949
O O14 0.250000 0.000000 0.294114
O O15 0.334477 0.019946 0.248892
O O16 0.835078 0.500000 0.500000
O O17 0.854369 0.250000 0.560127
O O18 0.146191 0.750000 0.791826
#
# Coordination Sequence:
#
# PCOD8280690 Si02
#       6
#    16  16  16  16  16  16
#     4   8  14  29  52  75 101 133 170 213 263 320
#     4   9  17  32  56  82 109 144 183 222 268 322
#     4  10  21  36  55  82 114 149 183 220 266 317
#     4  11  23  39  57  78 104 138 182 227 275 326
#     4  10  21  36  53  74 102 138 177 221 271 325
#     4  11  22  35  56  86 116 144 178 223 272 318
#
# _framework density 18.395689999999998
#
# number of rings (size 3 to 8) (size 9 to 14) (size 15 to 20)
#    0.000    2.167    1.667    3.500    0.000    6.333 
#    0.000    1.667    0.000    0.500    0.000    0.000 
#    0.000    0.000    0.000    0.000    0.000    0.000 
#
# Total GULP energy -595160.788100 kJ/mol
# GULP energy per Si atom -12399.183085 kJ/mol
# Density = 1.835382 g / cm^3
# Si number density = 18.395690 Si / 1000 Ang^3
#
#
#
# Elastic Constant Matrix: (Units=GPa)
#
#
# Indices 1 2 3 4 5 6 
#
# 1 105.2066 32.6621 49.4483 0.0000 0.0000 0.0000
# 2 32.6621 56.0832 41.7017 0.0000 0.0000 0.0000
# 3 49.4483 41.7017 102.4006 0.0000 0.0000 0.0000
# 4 0.0000 0.0000 0.0000 27.9716 0.0000 0.0000
# 5 0.0000 0.0000 0.0000 0.0000 29.2175 0.0000
# 6 0.0000 0.0000 0.0000 0.0000 0.0000 27.7671
#
#
#
# Elastic Compliance Matrix: (Units=1/GPa)
#
#
# Indices 1 2 3 4 5 6 
#
# 1 0.012934 -0.004143 -0.004558 0.000000 0.000000 0.000000
# 2 -0.004143 0.026902 -0.008955 0.000000 0.000000 0.000000
# 3 -0.004558 -0.008955 0.015614 0.000000 0.000000 0.000000
# 4 0.000000 0.000000 0.000000 0.035751 0.000000 0.000000
# 5 0.000000 0.000000 0.000000 0.000000 0.034226 0.000000
# 6 0.000000 0.000000 0.000000 0.000000 0.000000 0.036014
#
#
# Mechanical properties :
#
#
# Convention : Reuss Voigt Hill
#
# Bulk Modulus (GPa) = 49.66055 56.81274 53.23665
# Shear Modulus (GPa) = 24.57422 26.31645 25.44534
#
# Velocity S-wave (km/s) = 3.65892 3.78640 3.72320
# Velocity P-wave (km/s) = 6.70109 7.07577 6.89098
#
# Compressibility (1/GPa) = 0.02013671
#
# Stress axis : x y z
#
# Youngs Moduli (GPa) = 77.31644 37.17178 64.04653
#
# Poissons Ratio (x) = 0.15400 0.29195
# Poissons Ratio (y) = 0.32032 0.57354
# Poissons Ratio (z) = 0.35244 0.33287
#
# Static dielectric constant tensor:
#      x y z
#    x 3.677230 0.000000 0.000000 
#    y 0.000000 3.218260 0.000000 
#    z 0.000000 0.000000 3.330250 
# 
# 
# High freq. dielectric constant tensor:
#      x y z
#    x 1.722290 0.000000 0.000000 
#    y 0.000000 1.701150 0.000000 
#    z 0.000000 0.000000 1.697300 
# 
# From -- ./inp_files/37212.got.cif
#   From: 2010.03.12/outbox.cif.g09.slc.cpg/sg67_19_cif.got.tgz:37212.got - 2010.04.10 22:41:39.
