data_PCOD8280364
_publ_section_title
;
Structure prediction by ZEFSAII (Michael W. Deem and Ramdas Pophale) SiO2 
 PCOD8280364
Probable space group: C M M A
;
_chemical_formula_sum "Si O2"
_cell_formula_units_Z 88
_cell_length_a 15.000950
_cell_length_b 20.004002
_cell_length_c 14.440258
_cell_angle_alpha 90.000000
_cell_angle_beta 90.000000
_cell_angle_gamma 90.000000
_cell_volume 4333.218668
_symmetry_space_group_name_H-M "C M M A"
_symmetry_group_IT_number 67
_symmetry_cell_setting 'orthorhombic'
loop_
_space_group_symop_operation_xyz
x,y,z
-x,1/2-y,z
x,-y,-z
-x,1/2+y,-z
-x,-y,-z
x,1/2+y,-z
-x,y,z
x,1/2-y,z
1/2+x,1/2+y,z
1/2-x,-y,z
1/2+x,1/2-y,-z
1/2-x,y,-z
1/2-x,1/2-y,-z
1/2+x,y,-z
1/2-x,1/2+y,z
1/2+x,-y,z
loop_
_atom_site_type_symbol
_atom_site_label
_atom_site_fract_x
_atom_site_fract_y
_atom_site_fract_z
Si Si1 0.186878 0.938755 0.762169
Si Si2 0.750000 0.652710 0.500000
Si Si3 0.000000 0.671597 0.038796
Si Si4 0.851480 0.426710 0.033082
Si Si5 0.000000 0.825890 0.256884
Si Si6 0.400427 0.441227 0.573264
Si Si7 0.688638 0.176997 0.308301
O O1 0.134536 0.922989 0.856193
O O2 0.122158 0.962651 0.678856
O O3 0.239915 0.871841 0.736307
O O4 0.250000 0.000000 0.786551
O O5 0.669746 0.612265 0.456961
O O6 0.709030 0.693960 0.584394
O O7 0.000000 0.666968 0.148069
O O8 0.000000 0.750000 0.006390
O O9 0.088436 0.633269 0.005634
O O10 0.884450 0.500000 0.000000
O O11 0.750000 0.413999 0.000000
O O12 0.909110 0.858015 0.298220
O O13 0.000000 0.750000 0.291074
O O14 0.390720 0.500000 0.500000
O O15 0.500000 0.411513 0.571548
O O16 0.690750 0.250000 0.257383
#
# Coordination Sequence:
#
# PCOD8280364 Si02
#       7
#    16   8   8  16   8  16  16
#     4  11  22  40  64  90 126 166 210 262 313 377
#     4  10  20  36  58  86 127 160 209 258 307 370
#     4  11  25  43  65  96 132 168 216 271 328 394
#     4  11  23  43  66  96 129 170 216 268 328 389
#     4   9  20  37  59  90 118 157 209 254 302 374
#     4  10  21  37  58  89 125 168 210 254 314 372
#     4  10  21  38  62  90 125 163 208 256 314 374
#
# _framework density 20.308229000000001
#
# number of rings (size 3 to 8) (size 9 to 14) (size 15 to 20)
#    0.000    1.636    1.818    4.091    2.545    1.091 
#    1.636    0.000    0.000    2.182    0.000    0.000 
#    0.000    0.000    0.000    0.000    0.000    0.000 
#
# Total GULP energy -545259.327797 kJ/mol
# GULP energy per Si atom -12392.257450 kJ/mol
# Density = 2.026201 g / cm^3
# Si number density = 20.308229 Si / 1000 Ang^3
#
#
#
# Elastic Constant Matrix: (Units=GPa)
#
#
# Indices 1 2 3 4 5 6 
#
# 1 115.3291 46.3115 51.7216 0.0000 0.0000 0.0000
# 2 46.3115 101.6224 36.1055 0.0000 0.0000 0.0000
# 3 51.7216 36.1055 132.5705 0.0000 0.0000 0.0000
# 4 0.0000 0.0000 0.0000 19.2934 0.0000 0.0000
# 5 0.0000 0.0000 0.0000 0.0000 29.5237 0.0000
# 6 0.0000 0.0000 0.0000 0.0000 0.0000 -3.4296
#
#
#
# Elastic Compliance Matrix: (Units=1/GPa)
#
#
# Indices 1 2 3 4 5 6 
#
# 1 0.011928 -0.004188 -0.003513 0.000000 0.000000 0.000000
# 2 -0.004188 0.012365 -0.001734 0.000000 0.000000 0.000000
# 3 -0.003513 -0.001734 0.009386 0.000000 0.000000 0.000000
# 4 0.000000 0.000000 0.000000 0.051831 0.000000 0.000000
# 5 0.000000 0.000000 0.000000 0.000000 0.033871 0.000000
# 6 0.000000 0.000000 0.000000 0.000000 0.000000 -0.291578
#
#
# Mechanical properties :
#
#
# Convention : Reuss Voigt Hill
#
# Bulk Modulus (GPa) = 67.52359 68.64434 68.08397
# Shear Modulus (GPa) = -33.69467 23.43638 -5.12914
#
# Velocity S-wave (km/s) = -4.07770 3.40079 -1.59095
# Velocity P-wave (km/s) = 3.33936 7.02105 5.49757
#
# Compressibility (1/GPa) = 0.01480964
#
# Stress axis : x y z
#
# Youngs Moduli (GPa) = 83.83666 80.87513 106.54213
#
# Poissons Ratio (x) = 0.33868 0.37429
# Poissons Ratio (y) = 0.35108 0.18472
# Poissons Ratio (z) = 0.29453 0.14022
#
# Static dielectric constant tensor:
#      x y z
#    x 3.928700 0.000000 0.000000 
#    y 0.000000 3.640430 0.000000 
#    z 0.000000 0.000000 4.014380 
# 
# 
# High freq. dielectric constant tensor:
#      x y z
#    x 1.796690 0.000000 0.000000 
#    y 0.000000 1.784630 0.000000 
#    z 0.000000 0.000000 1.807000 
# 
# From -- ./inp_files/27105.got.cif
#   From: 2010.03.12/outbox.cif.g09.slc.cpg/sg67_14_cif.got.tgz:27105.got - 2010.04.10 22:41:39.
