data_PCOD8280457
_publ_section_title
;
Structure prediction by ZEFSAII (Michael W. Deem and Ramdas Pophale) SiO2 
 PCOD8280457
Probable space group: C M M A
;
_chemical_formula_sum "Si O2"
_cell_formula_units_Z 104
_cell_length_a 8.892292
_cell_length_b 20.478817
_cell_length_c 30.260523
_cell_angle_alpha 90.000000
_cell_angle_beta 90.000000
_cell_angle_gamma 90.000000
_cell_volume 5510.550799
_symmetry_space_group_name_H-M "C M M A"
_symmetry_group_IT_number 67
_symmetry_cell_setting 'orthorhombic'
loop_
_space_group_symop_operation_xyz
x,y,z
-x,1/2-y,z
x,-y,-z
-x,1/2+y,-z
-x,-y,-z
x,1/2+y,-z
-x,y,z
x,1/2-y,z
1/2+x,1/2+y,z
1/2-x,-y,z
1/2+x,1/2-y,-z
1/2-x,y,-z
1/2-x,1/2-y,-z
1/2+x,y,-z
1/2-x,1/2+y,z
1/2+x,-y,z
loop_
_atom_site_type_symbol
_atom_site_label
_atom_site_fract_x
_atom_site_fract_y
_atom_site_fract_z
Si Si1 0.177305 0.608475 0.548372
Si Si2 0.669512 0.672062 0.131614
Si Si3 0.668117 0.172778 0.218518
Si Si4 0.169791 0.250000 0.454691
Si Si5 0.823516 0.326012 0.308656
Si Si6 0.830589 0.672148 0.043816
Si Si7 0.321562 0.564674 0.633134
O O1 0.250000 0.600221 0.500000
O O2 0.205279 0.681612 0.569519
O O3 0.263376 0.562350 0.582462
O O4 0.000000 0.591638 0.546064
O O5 0.500000 0.645529 0.133484
O O6 0.671223 0.750000 0.132037
O O7 0.758747 0.643898 0.173909
O O8 0.746189 0.645167 0.087082
O O9 0.500000 0.143909 0.224523
O O10 0.659574 0.250000 0.214328
O O11 0.771431 0.153001 0.259794
O O12 0.250000 0.250000 0.500000
O O13 0.000000 0.250000 0.469433
O O14 0.785541 0.250000 0.318151
O O15 0.734269 0.370000 0.343162
O O16 0.000000 0.339142 0.313415
O O17 0.828033 0.750000 0.043664
O O18 0.000000 0.645590 0.044486
O O19 0.750000 0.644783 0.000000
O O20 0.500000 0.561140 0.634911
O O21 0.250000 0.500000 0.656071
#
# Coordination Sequence:
#
# PCOD8280457 Si02
#       7
#    16  16  16   8  16  16  16
#     4  10  20  37  59  86 115 147 181 218 261 307
#     4   9  15  22  33  50  74 106 145 192 246 299
#     4   9  16  27  44  67  93 120 156 203 253 304
#     4   8  16  30  52  80 112 142 172 210 254 298
#     4  10  21  38  60  84 110 140 175 218 267 319
#     4   9  15  21  28  40  62  96 140 189 240 295
#     4  12  26  43  61  84 113 147 183 221 265 316
#
# _framework density 18.872886000000001
#
# number of rings (size 3 to 8) (size 9 to 14) (size 15 to 20)
#    0.000    2.308    0.000    3.692    1.077    7.385 
#    0.000    1.538    0.000    0.000    0.000    0.000 
#    0.000    0.000    0.000    0.000    0.000    0.769 
#
# Total GULP energy -644503.293355 kJ/mol
# GULP energy per Si atom -12394.294103 kJ/mol
# Density = 1.882993 g / cm^3
# Si number density = 18.872886 Si / 1000 Ang^3
#
#
#
# Elastic Constant Matrix: (Units=GPa)
#
#
# Indices 1 2 3 4 5 6 
#
# 1 161.7308 37.3670 64.0028 0.0000 0.0000 0.0000
# 2 37.3670 47.4880 33.1160 0.0000 0.0000 0.0000
# 3 64.0028 33.1160 122.7146 0.0000 0.0000 0.0000
# 4 0.0000 0.0000 0.0000 3.0931 0.0000 0.0000
# 5 0.0000 0.0000 0.0000 0.0000 39.9682 0.0000
# 6 0.0000 0.0000 0.0000 0.0000 0.0000 17.0101
#
#
#
# Elastic Compliance Matrix: (Units=1/GPa)
#
#
# Indices 1 2 3 4 5 6 
#
# 1 0.008484 -0.004422 -0.003231 0.000000 0.000000 0.000000
# 2 -0.004422 0.028245 -0.005316 0.000000 0.000000 0.000000
# 3 -0.003231 -0.005316 0.011269 0.000000 0.000000 0.000000
# 4 0.000000 0.000000 0.000000 0.323300 0.000000 0.000000
# 5 0.000000 0.000000 0.000000 0.000000 0.025020 0.000000
# 6 0.000000 0.000000 0.000000 0.000000 0.000000 0.058788
#
#
# Mechanical properties :
#
#
# Convention : Reuss Voigt Hill
#
# Bulk Modulus (GPa) = 45.33381 66.76724 56.05052
# Shear Modulus (GPa) = 10.23759 25.17748 17.70754
#
# Velocity S-wave (km/s) = 2.33158 3.65643 3.06641
# Velocity P-wave (km/s) = 5.59653 7.29933 6.50389
#
# Compressibility (1/GPa) = 0.02205859
#
# Stress axis : x y z
#
# Youngs Moduli (GPa) = 117.87503 35.40510 88.74043
#
# Poissons Ratio (x) = 0.15656 0.28675
# Poissons Ratio (y) = 0.52125 0.47172
# Poissons Ratio (z) = 0.38089 0.18820
#
# Static dielectric constant tensor:
#      x y z
#    x 3.644500 0.000000 0.000000 
#    y 0.000000 3.154430 0.000000 
#    z 0.000000 0.000000 3.539710 
# 
# 
# High freq. dielectric constant tensor:
#      x y z
#    x 1.752000 0.000000 0.000000 
#    y 0.000000 1.669250 0.000000 
#    z 0.000000 0.000000 1.737460 
# 
# From -- ./inp_files/45333.got.cif
#   From: 2010.03.12/outbox.cif.g09.slc.cpg/sg67_23_cif.got.tgz:45333.got - 2010.04.10 22:41:39.
