data_PCOD8280523
_publ_section_title
;
Structure prediction by ZEFSAII (Michael W. Deem and Ramdas Pophale) SiO2 
 PCOD8280523
Probable space group: C M M A
;
_chemical_formula_sum "Si O2"
_cell_formula_units_Z 72
_cell_length_a 10.091629
_cell_length_b 28.862817
_cell_length_c 13.000080
_cell_angle_alpha 90.000000
_cell_angle_beta 90.000000
_cell_angle_gamma 90.000000
_cell_volume 3786.570236
_symmetry_space_group_name_H-M "C M M A"
_symmetry_group_IT_number 67
_symmetry_cell_setting 'orthorhombic'
loop_
_space_group_symop_operation_xyz
x,y,z
-x,1/2-y,z
x,-y,-z
-x,1/2+y,-z
-x,-y,-z
x,1/2+y,-z
-x,y,z
x,1/2-y,z
1/2+x,1/2+y,z
1/2-x,-y,z
1/2+x,1/2-y,-z
1/2-x,y,-z
1/2-x,1/2-y,-z
1/2+x,y,-z
1/2-x,1/2+y,z
1/2+x,-y,z
loop_
_atom_site_type_symbol
_atom_site_label
_atom_site_fract_x
_atom_site_fract_y
_atom_site_fract_z
Si Si1 0.855797 0.105254 0.590311
Si Si2 0.769799 0.053641 0.785757
Si Si3 0.500000 0.698055 0.254017
Si Si4 0.734957 0.700377 0.621109
Si Si5 0.000000 0.948786 0.053093
Si Si6 0.000000 0.602251 0.848644
O O1 0.750000 0.099807 0.500000
O O2 0.835227 0.068497 0.679447
O O3 0.855500 0.156058 0.645057
O O4 0.000000 0.096984 0.540683
O O5 0.868197 0.060715 0.881521
O O6 0.631164 0.080062 0.799065
O O7 0.750000 0.000000 0.773775
O O8 0.500000 0.750000 0.203613
O O9 0.624097 0.691218 0.327768
O O10 0.500000 0.658015 0.167011
O O11 0.675379 0.750000 0.660573
O O12 0.750000 0.703479 0.500000
O O13 0.000000 0.908428 0.968952
O O14 0.000000 0.000000 0.000000
#
# Coordination Sequence:
#
# PCOD8280523 Si02
#       6
#    16  16   8  16   8   8
#     4  11  25  41  61  89 131 170 211 252 315 393
#     4  12  24  42  64  96 126 161 212 269 319 376
#     4  10  20  38  59  92 127 167 215 259 318 394
#     4   9  19  33  57  86 119 158 208 263 311 363
#     4  12  24  44  66  96 125 159 216 277 322 364
#     4  12  24  38  69  92 126 167 208 267 334 369
#
# _framework density 19.014567
#
# number of rings (size 3 to 8) (size 9 to 14) (size 15 to 20)
#    0.000    1.111    5.556    0.667    7.778    0.889 
#    0.000    1.111    0.000    4.000    0.000    0.000 
#    0.000    0.000    0.000    0.000    0.000    0.000 
#
# Total GULP energy -446133.820679 kJ/mol
# GULP energy per Si atom -12392.606130 kJ/mol
# Density = 1.897129 g / cm^3
# Si number density = 19.014567 Si / 1000 Ang^3
#
#
#
# Elastic Constant Matrix: (Units=GPa)
#
#
# Indices 1 2 3 4 5 6 
#
# 1 140.7825 45.7006 49.9100 0.0000 0.0000 0.0000
# 2 45.7006 134.1363 62.8903 0.0000 0.0000 0.0000
# 3 49.9100 62.8903 99.7164 0.0000 0.0000 0.0000
# 4 0.0000 0.0000 0.0000 46.7097 0.0000 0.0000
# 5 0.0000 0.0000 0.0000 0.0000 33.0290 0.0000
# 6 0.0000 0.0000 0.0000 0.0000 0.0000 36.6405
#
#
#
# Elastic Compliance Matrix: (Units=1/GPa)
#
#
# Indices 1 2 3 4 5 6 
#
# 1 0.008798 -0.001325 -0.003568 0.000000 0.000000 0.000000
# 2 -0.001325 0.010785 -0.006139 0.000000 0.000000 0.000000
# 3 -0.003568 -0.006139 0.015686 0.000000 0.000000 0.000000
# 4 0.000000 0.000000 0.000000 0.021409 0.000000 0.000000
# 5 0.000000 0.000000 0.000000 0.000000 0.030276 0.000000
# 6 0.000000 0.000000 0.000000 0.000000 0.000000 0.027292
#
#
# Mechanical properties :
#
#
# Convention : Reuss Voigt Hill
#
# Bulk Modulus (GPa) = 75.72524 76.84857 76.28690
# Shear Modulus (GPa) = 35.53377 37.68482 36.60929
#
# Velocity S-wave (km/s) = 4.32761 4.45667 4.39262
# Velocity P-wave (km/s) = 8.05495 8.18449 8.11998
#
# Compressibility (1/GPa) = 0.01320564
#
# Stress axis : x y z
#
# Youngs Moduli (GPa) = 113.66038 92.72510 63.75081
#
# Poissons Ratio (x) = 0.12282 0.22748
# Poissons Ratio (y) = 0.15055 0.39135
# Poissons Ratio (z) = 0.40557 0.56922
#
# Static dielectric constant tensor:
#      x y z
#    x 3.625680 0.000000 0.000000 
#    y 0.000000 4.195590 0.000000 
#    z 0.000000 0.000000 3.365320 
# 
# 
# High freq. dielectric constant tensor:
#      x y z
#    x 1.751270 0.000000 0.000000 
#    y 0.000000 1.752570 0.000000 
#    z 0.000000 0.000000 1.715950 
# 
# From -- ./inp_files/25144.got.cif
#   From: 2010.03.12/outbox.cif.g09.slc.cpg/sg67_13_cif.got.tgz:25144.got - 2010.04.10 22:41:39.
