data_PCOD8280167
_publ_section_title
;
Structure prediction by ZEFSAII (Michael W. Deem and Ramdas Pophale) SiO2 
 PCOD8280167
Probable space group: C M M A
;
_chemical_formula_sum "Si O2"
_cell_formula_units_Z 112
_cell_length_a 16.419924
_cell_length_b 22.825661
_cell_length_c 14.395997
_cell_angle_alpha 90.000000
_cell_angle_beta 90.000000
_cell_angle_gamma 90.000000
_cell_volume 5395.556605
_symmetry_space_group_name_H-M "C M M A"
_symmetry_group_IT_number 67
_symmetry_cell_setting 'orthorhombic'
loop_
_space_group_symop_operation_xyz
x,y,z
-x,1/2-y,z
x,-y,-z
-x,1/2+y,-z
-x,-y,-z
x,1/2+y,-z
-x,y,z
x,1/2-y,z
1/2+x,1/2+y,z
1/2-x,-y,z
1/2+x,1/2-y,-z
1/2-x,y,-z
1/2-x,1/2-y,-z
1/2+x,y,-z
1/2-x,1/2+y,z
1/2+x,-y,z
loop_
_atom_site_type_symbol
_atom_site_label
_atom_site_fract_x
_atom_site_fract_y
_atom_site_fract_z
Si Si1 0.592454 0.816738 0.540804
Si Si2 0.652987 0.610941 0.698015
Si Si3 0.403570 0.056667 0.123209
Si Si4 0.095393 0.185610 0.191830
Si Si5 0.096592 0.072576 0.087000
Si Si6 0.336452 0.869087 0.363236
Si Si7 0.153343 0.504670 0.602148
O O1 0.500000 0.823094 0.504895
O O2 0.620757 0.750000 0.543911
O O3 0.597321 0.841268 0.646277
O O4 0.653995 0.850583 0.471164
O O5 0.640671 0.603923 0.808877
O O6 0.743621 0.629189 0.669969
O O7 0.620472 0.548001 0.663514
O O8 0.500000 0.061720 0.137430
O O9 0.373836 0.988503 0.135433
O O10 0.376853 0.075571 0.020091
O O11 0.130533 0.250000 0.162052
O O12 0.134820 0.130535 0.136232
O O13 0.113766 0.176517 0.300693
O O14 0.000000 0.186381 0.174773
O O15 0.000000 0.073421 0.093764
O O16 0.373770 0.934154 0.351568
O O17 0.114344 0.500000 0.500000
O O18 0.250000 0.500000 0.594832
#
# Coordination Sequence:
#
# PCOD8280167 Si02
#       7
#    16  16  16  16  16  16  16
#     4  11  24  40  55  74 105 146 192 237 275 322
#     4  11  21  35  57  82 111 145 180 223 275 334
#     4   9  17  33  58  86 115 144 179 227 280 332
#     4  10  20  35  56  81 108 141 185 234 277 323
#     4   8  16  33  58  85 112 146 184 223 273 334
#     4  11  21  35  56  79 110 145 182 221 276 332
#     4   9  17  32  51  75 106 138 171 211 261 310
#
# _framework density 20.757822000000001
#
# number of rings (size 3 to 8) (size 9 to 14) (size 15 to 20)
#    0.000    2.143    1.429    3.429    0.000    2.857 
#    0.000    4.286    0.000    5.143    0.000    0.000 
#    0.000    0.000    0.000    0.000    0.000    0.000 
#
# Total GULP energy -693976.470829 kJ/mol
# GULP energy per Si atom -12392.436979 kJ/mol
# Density = 2.071058 g / cm^3
# Si number density = 20.757822 Si / 1000 Ang^3
#
#
#
# Elastic Constant Matrix: (Units=GPa)
#
#
# Indices 1 2 3 4 5 6 
#
# 1 36.7897 24.7892 20.1812 0.0000 0.0000 0.0000
# 2 24.7892 140.6464 45.1729 0.0000 0.0000 0.0000
# 3 20.1812 45.1729 105.9614 0.0000 0.0000 0.0000
# 4 0.0000 0.0000 0.0000 29.9253 0.0000 0.0000
# 5 0.0000 0.0000 0.0000 0.0000 21.9708 0.0000
# 6 0.0000 0.0000 0.0000 0.0000 0.0000 20.0632
#
#
#
# Elastic Compliance Matrix: (Units=1/GPa)
#
#
# Indices 1 2 3 4 5 6 
#
# 1 0.032480 -0.004331 -0.004340 0.000000 0.000000 0.000000
# 2 -0.004331 0.008815 -0.002933 0.000000 0.000000 0.000000
# 3 -0.004340 -0.002933 0.011514 0.000000 0.000000 0.000000
# 4 0.000000 0.000000 0.000000 0.033417 0.000000 0.000000
# 5 0.000000 0.000000 0.000000 0.000000 0.045515 0.000000
# 6 0.000000 0.000000 0.000000 0.000000 0.000000 0.049843
#
#
# Mechanical properties :
#
#
# Convention : Reuss Voigt Hill
#
# Bulk Modulus (GPa) = 33.78124 51.52046 42.65085
# Shear Modulus (GPa) = 23.29267 27.27546 25.28407
#
# Velocity S-wave (km/s) = 3.35343 3.62883 3.49384
# Velocity P-wave (km/s) = 5.59494 6.51395 6.07185
#
# Compressibility (1/GPa) = 0.02960223
#
# Stress axis : x y z
#
# Youngs Moduli (GPa) = 30.78790 113.43688 86.84720
#
# Poissons Ratio (x) = 0.49128 0.37690
# Poissons Ratio (y) = 0.13334 0.25475
# Poissons Ratio (z) = 0.13361 0.33275
#
# Static dielectric constant tensor:
#      x y z
#    x 3.262750 0.000000 0.000000 
#    y 0.000000 4.185100 0.000000 
#    z 0.000000 0.000000 3.806610 
# 
# 
# High freq. dielectric constant tensor:
#      x y z
#    x 1.775240 0.000000 0.000000 
#    y 0.000000 1.816280 0.000000 
#    z 0.000000 0.000000 1.808120 
# 
# From -- ./inp_files/27467.got.cif
#   From: 2010.03.12/outbox.cif.g09.slc.cpg/sg67_14_cif.got.tgz:27467.got - 2010.04.10 22:41:39.
