data_PCOD8280336
_publ_section_title
;
Structure prediction by ZEFSAII (Michael W. Deem and Ramdas Pophale) SiO2 
 PCOD8280336
Probable space group: C M M A
;
_chemical_formula_sum "Si O2"
_cell_formula_units_Z 96
_cell_length_a 17.194066
_cell_length_b 21.071111
_cell_length_c 13.490756
_cell_angle_alpha 90.000000
_cell_angle_beta 90.000000
_cell_angle_gamma 90.000000
_cell_volume 4887.674905
_symmetry_space_group_name_H-M "C M M A"
_symmetry_group_IT_number 67
_symmetry_cell_setting 'orthorhombic'
loop_
_space_group_symop_operation_xyz
x,y,z
-x,1/2-y,z
x,-y,-z
-x,1/2+y,-z
-x,-y,-z
x,1/2+y,-z
-x,y,z
x,1/2-y,z
1/2+x,1/2+y,z
1/2-x,-y,z
1/2+x,1/2-y,-z
1/2-x,y,-z
1/2-x,1/2-y,-z
1/2+x,y,-z
1/2-x,1/2+y,z
1/2+x,-y,z
loop_
_atom_site_type_symbol
_atom_site_label
_atom_site_fract_x
_atom_site_fract_y
_atom_site_fract_z
Si Si1 0.726663 0.318556 0.298241
Si Si2 0.092048 0.050298 0.919284
Si Si3 0.682597 0.083259 0.576477
Si Si4 0.913765 0.013273 0.703029
Si Si5 0.914667 0.141679 0.587439
Si Si6 0.319657 0.821982 0.923686
O O1 0.767933 0.250000 0.307052
O O2 0.782764 0.371505 0.340392
O O3 0.646345 0.311886 0.360061
O O4 0.712558 0.335333 0.185010
O O5 0.119478 0.121794 0.945756
O O6 0.000000 0.053898 0.919132
O O7 0.120900 0.022974 0.813254
O O8 0.123446 0.000000 0.000000
O O9 0.750000 0.061257 0.500000
O O10 0.646706 0.023529 0.633338
O O11 0.614576 0.121132 0.521019
O O12 0.000000 0.980611 0.705419
O O13 0.922638 0.081780 0.657611
O O14 0.000000 0.173982 0.576562
O O15 0.356100 0.750000 0.930380
O O16 0.250000 0.828213 0.000000
#
# Coordination Sequence:
#
# PCOD8280336 Si02
#       6
#    16  16  16  16  16  16
#     4  10  22  39  57  81 116 151 191 241 285 333
#     4  10  22  40  62  92 122 148 188 244 298 347
#     4  10  22  35  54  83 117 156 193 234 286 345
#     4  10  20  37  58  83 117 151 187 235 290 343
#     4  10  20  36  57  83 113 148 195 238 285 339
#     4  10  22  41  62  87 117 156 196 235 288 354
#
# _framework density 19.641241000000001
#
# number of rings (size 3 to 8) (size 9 to 14) (size 15 to 20)
#    0.000    2.000    1.667    1.000    2.333   10.000 
#    0.000    1.667    0.000    1.500    0.000    0.000 
#    0.000    0.000    0.000    0.000    0.000    0.000 
#
# Total GULP energy -594945.709674 kJ/mol
# GULP energy per Si atom -12394.702285 kJ/mol
# Density = 1.959654 g / cm^3
# Si number density = 19.641241 Si / 1000 Ang^3
#
#
#
# Elastic Constant Matrix: (Units=GPa)
#
#
# Indices 1 2 3 4 5 6 
#
# 1 44.2789 13.8452 27.3202 0.0000 0.0000 0.0000
# 2 13.8452 99.7086 46.3324 0.0000 0.0000 0.0000
# 3 27.3202 46.3324 102.5979 0.0000 0.0000 0.0000
# 4 0.0000 0.0000 0.0000 35.3759 0.0000 0.0000
# 5 0.0000 0.0000 0.0000 0.0000 22.2824 0.0000
# 6 0.0000 0.0000 0.0000 0.0000 0.0000 16.1830
#
#
#
# Elastic Compliance Matrix: (Units=1/GPa)
#
#
# Indices 1 2 3 4 5 6 
#
# 1 0.027045 -0.000518 -0.006968 0.000000 0.000000 0.000000
# 2 -0.000518 0.012703 -0.005599 0.000000 0.000000 0.000000
# 3 -0.006968 -0.005599 0.014131 0.000000 0.000000 0.000000
# 4 0.000000 0.000000 0.000000 0.028268 0.000000 0.000000
# 5 0.000000 0.000000 0.000000 0.000000 0.044879 0.000000
# 6 0.000000 0.000000 0.000000 0.000000 0.000000 0.061793
#
#
# Mechanical properties :
#
#
# Convention : Reuss Voigt Hill
#
# Bulk Modulus (GPa) = 36.08787 46.84231 41.46509
# Shear Modulus (GPa) = 22.29923 25.37409 23.83666
#
# Velocity S-wave (km/s) = 3.37312 3.59817 3.48746
# Velocity P-wave (km/s) = 5.79517 6.41585 6.11339
#
# Compressibility (1/GPa) = 0.02771014
#
# Stress axis : x y z
#
# Youngs Moduli (GPa) = 36.97511 78.72381 70.76874
#
# Poissons Ratio (x) = 0.04074 0.49312
# Poissons Ratio (y) = 0.01914 0.39621
# Poissons Ratio (z) = 0.25764 0.44074
#
# Static dielectric constant tensor:
#      x y z
#    x 3.707820 0.000000 0.000000 
#    y 0.000000 4.055200 0.000000 
#    z 0.000000 0.000000 3.816680 
# 
# 
# High freq. dielectric constant tensor:
#      x y z
#    x 1.752690 0.000000 0.000000 
#    y 0.000000 1.763890 0.000000 
#    z 0.000000 0.000000 1.776310 
# 
# From -- ./inp_files/19638.got.cif
#   From: 2010.03.12/outbox.cif.g09.slc.cpg/sg67_10_cif.got.tgz:19638.got - 2010.04.10 22:41:39.
