data_PCOD8280675
_publ_section_title
;
Structure prediction by ZEFSAII (Michael W. Deem and Ramdas Pophale) SiO2 
 PCOD8280675
Probable space group: C M M A
;
_chemical_formula_sum "Si O2"
_cell_formula_units_Z 96
_cell_length_a 22.988444
_cell_length_b 14.759342
_cell_length_c 14.616230
_cell_angle_alpha 90.000000
_cell_angle_beta 90.000000
_cell_angle_gamma 90.000000
_cell_volume 4959.203629
_symmetry_space_group_name_H-M "C M M A"
_symmetry_group_IT_number 67
_symmetry_cell_setting 'orthorhombic'
loop_
_space_group_symop_operation_xyz
x,y,z
-x,1/2-y,z
x,-y,-z
-x,1/2+y,-z
-x,-y,-z
x,1/2+y,-z
-x,y,z
x,1/2-y,z
1/2+x,1/2+y,z
1/2-x,-y,z
1/2+x,1/2-y,-z
1/2-x,y,-z
1/2-x,1/2-y,-z
1/2+x,y,-z
1/2-x,1/2+y,z
1/2+x,-y,z
loop_
_atom_site_type_symbol
_atom_site_label
_atom_site_fract_x
_atom_site_fract_y
_atom_site_fract_z
Si Si1 0.091985 0.500000 0.000000
Si Si2 0.000000 0.856010 0.055821
Si Si3 0.624651 0.503776 0.197687
Si Si4 0.000000 0.942139 0.243465
Si Si5 0.680883 0.855059 0.323098
Si Si6 0.873745 0.851671 0.493251
Si Si7 0.317185 0.644696 0.688703
Si Si8 0.500000 0.597417 0.544991
O O1 0.131893 0.513130 0.911154
O O2 0.055182 0.407880 0.986356
O O3 0.000000 0.862749 0.166922
O O4 0.000000 0.750000 0.027857
O O5 0.557017 0.503523 0.228088
O O6 0.654394 0.592509 0.238029
O O7 0.657877 0.411942 0.226659
O O8 0.000000 0.900658 0.344919
O O9 0.664645 0.750000 0.311441
O O10 0.652395 0.897531 0.415555
O O11 0.749343 0.871167 0.325134
O O12 0.849606 0.750000 0.493431
O O13 0.848797 0.896927 0.401222
O O14 0.943464 0.852078 0.493019
O O15 0.332478 0.750000 0.705986
O O16 0.500000 0.500000 0.500000
#
# Coordination Sequence:
#
# PCOD8280675 Si02
#       8
#     8   8  16   8  16  16  16   8
#     4   9  22  38  57  90 122 144 201 249 296 370
#     4   9  19  38  63  86 116 158 196 247 302 357
#     4  11  21  40  60  85 117 155 188 247 300 352
#     4  10  21  35  56  89 120 148 201 241 284 362
#     4  10  22  39  58  83 116 157 202 239 286 353
#     4  10  21  36  55  82 118 152 192 243 292 346
#     4  10  21  38  61  86 111 150 203 251 292 341
#     4  12  21  33  51  85 125 158 188 236 289 354
#
# _framework density 19.357945999999998
#
# number of rings (size 3 to 8) (size 9 to 14) (size 15 to 20)
#    0.000    1.833    1.667    2.750    0.000    6.000 
#    0.000    4.583    0.000    2.000    0.000    0.000 
#    0.000    0.000    0.000    0.000    0.000    0.000 
#
# Total GULP energy -595171.115104 kJ/mol
# GULP energy per Si atom -12399.398231 kJ/mol
# Density = 1.931389 g / cm^3
# Si number density = 19.357946 Si / 1000 Ang^3
#
#
#
# Elastic Constant Matrix: (Units=GPa)
#
#
# Indices 1 2 3 4 5 6 
#
# 1 125.6104 35.4287 58.4278 0.0000 0.0000 0.0000
# 2 35.4287 102.3249 53.0960 0.0000 0.0000 0.0000
# 3 58.4278 53.0960 167.5773 0.0000 0.0000 0.0000
# 4 0.0000 0.0000 0.0000 18.5749 0.0000 0.0000
# 5 0.0000 0.0000 0.0000 0.0000 24.3513 0.0000
# 6 0.0000 0.0000 0.0000 0.0000 0.0000 24.3913
#
#
#
# Elastic Compliance Matrix: (Units=1/GPa)
#
#
# Indices 1 2 3 4 5 6 
#
# 1 0.009814 -0.001942 -0.002807 0.000000 0.000000 0.000000
# 2 -0.001942 0.012080 -0.003150 0.000000 0.000000 0.000000
# 3 -0.002807 -0.003150 0.007944 0.000000 0.000000 0.000000
# 4 0.000000 0.000000 0.000000 0.053836 0.000000 0.000000
# 5 0.000000 0.000000 0.000000 0.000000 0.041066 0.000000
# 6 0.000000 0.000000 0.000000 0.000000 0.000000 0.040998
#
#
# Mechanical properties :
#
#
# Convention : Reuss Voigt Hill
#
# Bulk Modulus (GPa) = 71.22147 76.60195 73.91171
# Shear Modulus (GPa) = 26.85053 30.03417 28.44235
#
# Velocity S-wave (km/s) = 3.72836 3.94320 3.83728
# Velocity P-wave (km/s) = 7.44352 7.77104 7.60904
#
# Compressibility (1/GPa) = 0.01404071
#
# Stress axis : x y z
#
# Youngs Moduli (GPa) = 101.89204 82.78256 125.87863
#
# Poissons Ratio (x) = 0.16074 0.35330
# Poissons Ratio (y) = 0.19785 0.39657
# Poissons Ratio (z) = 0.28598 0.26080
#
# Static dielectric constant tensor:
#      x y z
#    x 3.723970 0.000000 0.000000 
#    y 0.000000 3.375750 0.000000 
#    z 0.000000 0.000000 3.657090 
# 
# 
# High freq. dielectric constant tensor:
#      x y z
#    x 1.756670 0.000000 0.000000 
#    y 0.000000 1.746300 0.000000 
#    z 0.000000 0.000000 1.751240 
# 
# From -- ./inp_files/27456.got.cif
#   From: 2010.03.12/outbox.cif.g09.slc.cpg/sg67_14_cif.got.tgz:27456.got - 2010.04.10 22:41:39.
