data_PCOD8280791
_publ_section_title
;
Structure prediction by ZEFSAII (Michael W. Deem and Ramdas Pophale) SiO2 
 PCOD8280791
Probable space group: C M M A
;
_chemical_formula_sum "Si O2"
_cell_formula_units_Z 104
_cell_length_a 8.822500
_cell_length_b 30.130943
_cell_length_c 23.048891
_cell_angle_alpha 90.000000
_cell_angle_beta 90.000000
_cell_angle_gamma 90.000000
_cell_volume 6127.092333
_symmetry_space_group_name_H-M "C M M A"
_symmetry_group_IT_number 67
_symmetry_cell_setting 'orthorhombic'
loop_
_space_group_symop_operation_xyz
x,y,z
-x,1/2-y,z
x,-y,-z
-x,1/2+y,-z
-x,-y,-z
x,1/2+y,-z
-x,y,z
x,1/2-y,z
1/2+x,1/2+y,z
1/2-x,-y,z
1/2+x,1/2-y,-z
1/2-x,y,-z
1/2-x,1/2-y,-z
1/2+x,y,-z
1/2-x,1/2+y,z
1/2+x,-y,z
loop_
_atom_site_type_symbol
_atom_site_label
_atom_site_fract_x
_atom_site_fract_y
_atom_site_fract_z
Si Si1 0.827250 0.167587 0.389575
Si Si2 0.326366 0.750000 0.560820
Si Si3 0.680406 0.698841 0.183631
Si Si4 0.828262 0.924558 0.558945
Si Si5 0.180736 0.867076 0.274646
Si Si6 0.664614 0.197924 0.945337
Si Si7 0.817471 0.953301 0.685697
O O1 0.715557 0.206921 0.403732
O O2 0.811922 0.128700 0.437093
O O3 0.776668 0.151444 0.327509
O O4 0.000000 0.184577 0.386516
O O5 0.500000 0.750000 0.547641
O O6 0.250000 0.750000 0.500000
O O7 0.500000 0.691024 0.189285
O O8 0.717659 0.750000 0.201807
O O9 0.775042 0.663340 0.220289
O O10 0.738783 0.689977 0.117817
O O11 0.750000 0.941954 0.500000
O O12 0.762707 0.945296 0.618734
O O13 0.000000 0.939689 0.553004
O O14 0.240026 0.917850 0.270264
O O15 0.000000 0.865705 0.284381
O O16 0.500000 0.175572 0.944973
O O17 0.649573 0.250000 0.956185
O O18 0.750000 0.175709 0.000000
O O19 0.000000 0.950823 0.690594
O O20 0.750000 0.000000 0.706144
#
# Coordination Sequence:
#
# PCOD8280791 Si02
#       7
#    16   8  16  16  16  16  16
#     4  10  21  37  52  67  91 126 161 201 250 294
#     4  12  24  36  50  70  92 120 161 204 245 296
#     4   9  18  32  49  70 101 142 179 210 249 295
#     4   9  19  33  51  72  94 119 149 186 235 294
#     4  11  22  35  52  75 101 129 165 209 252 298
#     4   8  14  25  42  65  95 133 174 211 248 288
#     4  10  21  38  56  75  98 126 160 198 249 306
#
# _framework density 16.973793000000001
#
# number of rings (size 3 to 8) (size 9 to 14) (size 15 to 20)
#    0.000    2.308    0.000    5.308    1.077    6.154 
#    0.000    3.077    0.000    0.000    0.000    0.000 
#    0.000    0.615    0.000    6.462    0.000    3.846 
#
# Total GULP energy -644402.545088 kJ/mol
# GULP energy per Si atom -12392.356636 kJ/mol
# Density = 1.693516 g / cm^3
# Si number density = 16.973793 Si / 1000 Ang^3
#
#
#
# Elastic Constant Matrix: (Units=GPa)
#
#
# Indices 1 2 3 4 5 6 
#
# 1 78.5513 25.4136 24.3463 0.0000 0.0000 0.0000
# 2 25.4136 84.0471 27.2376 0.0000 0.0000 0.0000
# 3 24.3463 27.2376 76.8348 0.0000 0.0000 0.0000
# 4 0.0000 0.0000 0.0000 5.1347 0.0000 0.0000
# 5 0.0000 0.0000 0.0000 0.0000 27.3312 0.0000
# 6 0.0000 0.0000 0.0000 0.0000 0.0000 25.0061
#
#
#
# Elastic Compliance Matrix: (Units=1/GPa)
#
#
# Indices 1 2 3 4 5 6 
#
# 1 0.014914 -0.003365 -0.003533 0.000000 0.000000 0.000000
# 2 -0.003365 0.014201 -0.003968 0.000000 0.000000 0.000000
# 3 -0.003533 -0.003968 0.015541 0.000000 0.000000 0.000000
# 4 0.000000 0.000000 0.000000 0.194755 0.000000 0.000000
# 5 0.000000 0.000000 0.000000 0.000000 0.036588 0.000000
# 6 0.000000 0.000000 0.000000 0.000000 0.000000 0.039990
#
#
# Mechanical properties :
#
#
# Convention : Reuss Voigt Hill
#
# Bulk Modulus (GPa) = 43.62059 43.71424 43.66742
# Shear Modulus (GPa) = 14.47751 22.32343 18.40047
#
# Velocity S-wave (km/s) = 2.92367 3.63046 3.29607
# Velocity P-wave (km/s) = 6.09522 6.58662 6.34568
#
# Compressibility (1/GPa) = 0.02292495
#
# Stress axis : x y z
#
# Youngs Moduli (GPa) = 67.05056 70.41518 64.34535
#
# Poissons Ratio (x) = 0.23692 0.22733
# Poissons Ratio (y) = 0.22560 0.25534
# Poissons Ratio (z) = 0.23689 0.27942
#
# Static dielectric constant tensor:
#      x y z
#    x 3.235380 0.000000 0.000000 
#    y 0.000000 3.189550 0.000000 
#    z 0.000000 0.000000 3.155500 
# 
# 
# High freq. dielectric constant tensor:
#      x y z
#    x 1.660080 0.000000 0.000000 
#    y 0.000000 1.632570 0.000000 
#    z 0.000000 0.000000 1.637540 
# 
# From -- ./inp_files/41167.got.cif
#   From: 2010.03.12/outbox.cif.g09.slc.cpg/sg67_21_cif.got.tgz:41167.got - 2010.04.10 22:41:39.
