data_PCOD8280514
_publ_section_title
;
Structure prediction by ZEFSAII (Michael W. Deem and Ramdas Pophale) SiO2 
 PCOD8280514
Probable space group: C M M A
;
_chemical_formula_sum "Si O2"
_cell_formula_units_Z 80
_cell_length_a 22.225216
_cell_length_b 13.961333
_cell_length_c 11.913727
_cell_angle_alpha 90.000000
_cell_angle_beta 90.000000
_cell_angle_gamma 90.000000
_cell_volume 3696.753736
_symmetry_space_group_name_H-M "C M M A"
_symmetry_group_IT_number 67
_symmetry_cell_setting 'orthorhombic'
loop_
_space_group_symop_operation_xyz
x,y,z
-x,1/2-y,z
x,-y,-z
-x,1/2+y,-z
-x,-y,-z
x,1/2+y,-z
-x,y,z
x,1/2-y,z
1/2+x,1/2+y,z
1/2-x,-y,z
1/2+x,1/2-y,-z
1/2-x,y,-z
1/2-x,1/2-y,-z
1/2+x,y,-z
1/2-x,1/2+y,z
1/2+x,-y,z
loop_
_atom_site_type_symbol
_atom_site_label
_atom_site_fract_x
_atom_site_fract_y
_atom_site_fract_z
Si Si1 0.000000 0.867452 0.824836
Si Si2 0.872786 0.112238 0.488863
Si Si3 0.207205 0.859013 0.726047
Si Si4 0.841907 0.144046 0.735646
Si Si5 0.500000 0.403101 0.571479
Si Si6 0.381714 0.974280 0.124335
O O1 0.942089 0.911258 0.886879
O O2 0.000000 0.750000 0.823576
O O3 0.000000 0.918128 0.704372
O O4 0.821560 0.135451 0.398019
O O5 0.859201 0.159592 0.606785
O O6 0.938230 0.154408 0.453201
O O7 0.877547 0.000000 0.500000
O O8 0.211530 0.750000 0.762739
O O9 0.274793 0.901614 0.731838
O O10 0.168419 0.910037 0.819323
O O11 0.845067 0.250000 0.791893
O O12 0.886869 0.072187 0.801555
O O13 0.500000 0.500000 0.500000
O O14 0.360031 0.000000 0.000000
#
# Coordination Sequence:
#
# PCOD8280514 Si02
#       6
#     8  16  16  16   8  16
#     4  12  25  47  75 101 131 176 230 281 341 410
#     4  11  20  37  65  98 138 178 224 279 344 406
#     4  11  23  41  67  98 133 180 231 277 334 409
#     4  11  25  42  64  98 140 181 222 276 342 403
#     4  10  20  37  64  99 137 175 215 273 331 404
#     4  12  26  46  69  97 132 174 230 290 338 391
#
# _framework density 21.640608
#
# number of rings (size 3 to 8) (size 9 to 14) (size 15 to 20)
#    0.000    0.800    4.000    3.900    0.000    6.400 
#    0.000    3.500    0.000    0.000    0.000    0.000 
#    0.000    0.000    0.000    0.000    0.000    0.000 
#
# Total GULP energy -495770.252975 kJ/mol
# GULP energy per Si atom -12394.256324 kJ/mol
# Density = 2.159135 g / cm^3
# Si number density = 21.640608 Si / 1000 Ang^3
#
#
#
# Elastic Constant Matrix: (Units=GPa)
#
#
# Indices 1 2 3 4 5 6 
#
# 1 103.4701 31.0569 12.2564 0.0000 0.0000 0.0000
# 2 31.0569 96.7500 18.6111 0.0000 0.0000 0.0000
# 3 12.2564 18.6111 124.1832 0.0000 0.0000 0.0000
# 4 0.0000 0.0000 0.0000 -0.6529 0.0000 0.0000
# 5 0.0000 0.0000 0.0000 0.0000 0.9475 0.0000
# 6 0.0000 0.0000 0.0000 0.0000 0.0000 3.8563
#
#
#
# Elastic Compliance Matrix: (Units=1/GPa)
#
#
# Indices 1 2 3 4 5 6 
#
# 1 0.010733 -0.003338 -0.000559 0.000000 0.000000 0.000000
# 2 -0.003338 0.011681 -0.001421 0.000000 0.000000 0.000000
# 3 -0.000559 -0.001421 0.008321 0.000000 0.000000 0.000000
# 4 0.000000 0.000000 0.000000 -1.531586 0.000000 0.000000
# 5 0.000000 0.000000 0.000000 0.000000 1.055441 0.000000
# 6 0.000000 0.000000 0.000000 0.000000 0.000000 0.259313
#
#
# Mechanical properties :
#
#
# Convention : Reuss Voigt Hill
#
# Bulk Modulus (GPa) = 49.75524 49.80579 49.78052
# Shear Modulus (GPa) = -29.62742 18.32877 -5.64933
#
# Velocity S-wave (km/s) = -3.70410 2.91342 -1.61746
# Velocity P-wave (km/s) = 2.17892 5.86364 4.42323
#
# Compressibility (1/GPa) = 0.02009839
#
# Stress axis : x y z
#
# Youngs Moduli (GPa) = 93.17354 85.61137 120.18106
#
# Poissons Ratio (x) = 0.28574 0.06719
# Poissons Ratio (y) = 0.31098 0.17080
# Poissons Ratio (z) = 0.05209 0.12167
#
# Static dielectric constant tensor:
#      x y z
#    x 4.441240 0.000000 0.000000 
#    y 0.000000 3.998950 0.000000 
#    z 0.000000 0.000000 0.930950 
# 
# 
# High freq. dielectric constant tensor:
#      x y z
#    x 1.859210 0.000000 0.000000 
#    y 0.000000 1.865320 0.000000 
#    z 0.000000 0.000000 1.833480 
# 
# From -- ./inp_files/21674.got.cif
#   From: 2010.03.12/outbox.cif.g09.slc.cpg/sg67_11_cif.got.tgz:21674.got - 2010.04.10 22:41:39.
