data_PCOD8280923
_publ_section_title
;
Structure prediction by ZEFSAII (Michael W. Deem and Ramdas Pophale) SiO2 
 PCOD8280923
Probable space group: C M M A
;
_chemical_formula_sum "Si O2"
_cell_formula_units_Z 88
_cell_length_a 9.589409
_cell_length_b 15.197858
_cell_length_c 29.987451
_cell_angle_alpha 90.000000
_cell_angle_beta 90.000000
_cell_angle_gamma 90.000000
_cell_volume 4370.325416
_symmetry_space_group_name_H-M "C M M A"
_symmetry_group_IT_number 67
_symmetry_cell_setting 'orthorhombic'
loop_
_space_group_symop_operation_xyz
x,y,z
-x,1/2-y,z
x,-y,-z
-x,1/2+y,-z
-x,-y,-z
x,1/2+y,-z
-x,y,z
x,1/2-y,z
1/2+x,1/2+y,z
1/2-x,-y,z
1/2+x,1/2-y,-z
1/2-x,y,-z
1/2-x,1/2-y,-z
1/2+x,y,-z
1/2-x,1/2+y,z
1/2+x,-y,z
loop_
_atom_site_type_symbol
_atom_site_label
_atom_site_fract_x
_atom_site_fract_y
_atom_site_fract_z
Si Si1 0.841600 0.355007 0.041383
Si Si2 0.162396 0.750000 0.544571
Si Si3 0.656973 0.854805 0.878100
Si Si4 0.162998 0.417682 0.396774
Si Si5 0.660498 0.647192 0.300581
Si Si6 0.843451 0.354516 0.779387
O O1 0.843881 0.250000 0.041402
O O2 0.767971 0.391968 0.086227
O O3 0.000000 0.391294 0.038472
O O4 0.750000 0.390051 0.000000
O O5 0.250000 0.750000 0.500000
O O6 0.203079 0.665241 0.573273
O O7 0.000000 0.750000 0.532265
O O8 0.500000 0.887536 0.889603
O O9 0.657507 0.750000 0.879503
O O10 0.701835 0.887843 0.828677
O O11 0.250000 0.500000 0.415191
O O12 0.207952 0.399728 0.345883
O O13 0.000000 0.438919 0.400148
O O14 0.500000 0.629979 0.290248
O O15 0.691502 0.750000 0.306657
O O16 0.744738 0.605729 0.258975
O O17 0.832946 0.250000 0.778710
O O18 0.000000 0.385543 0.768934
#
# Coordination Sequence:
#
# PCOD8280923 Si02
#       6
#    16   8  16  16  16  16
#     4   9  15  20  26  36  52  80 123 175 231 291
#     4  10  22  42  64  86 118 154 190 232 281 330
#     4   8  13  21  30  41  63  93 127 174 232 289
#     4  10  21  38  59  84 115 150 187 230 277 328
#     4   9  16  29  49  70  96 132 169 207 257 313
#     4   8  14  23  36  57  83 111 146 193 246 299
#
# _framework density 20.1358
#
# number of rings (size 3 to 8) (size 9 to 14) (size 15 to 20)
#    0.000    3.091    0.909    1.636    0.000    4.727 
#    0.000    5.455    0.000    0.000    0.000    0.000 
#    0.000    0.000    0.000    0.000    0.000    0.909 
#
# Total GULP energy -545449.630665 kJ/mol
# GULP energy per Si atom -12396.582515 kJ/mol
# Density = 2.008997 g / cm^3
# Si number density = 20.135800 Si / 1000 Ang^3
#
#
#
# Elastic Constant Matrix: (Units=GPa)
#
#
# Indices 1 2 3 4 5 6 
#
# 1 122.9869 41.2980 98.1337 0.0000 0.0000 0.0000
# 2 41.2980 52.2554 45.8983 0.0000 0.0000 0.0000
# 3 98.1337 45.8983 169.6946 0.0000 0.0000 0.0000
# 4 0.0000 0.0000 0.0000 -3.1713 0.0000 0.0000
# 5 0.0000 0.0000 0.0000 0.0000 45.8265 0.0000
# 6 0.0000 0.0000 0.0000 0.0000 0.0000 16.9547
#
#
#
# Elastic Compliance Matrix: (Units=1/GPa)
#
#
# Indices 1 2 3 4 5 6 
#
# 1 0.016455 -0.006094 -0.007868 0.000000 0.000000 0.000000
# 2 -0.006094 0.027357 -0.003875 0.000000 0.000000 0.000000
# 3 -0.007868 -0.003875 0.011491 0.000000 0.000000 0.000000
# 4 0.000000 0.000000 0.000000 -0.315328 0.000000 0.000000
# 5 0.000000 0.000000 0.000000 0.000000 0.021821 0.000000
# 6 0.000000 0.000000 0.000000 0.000000 0.000000 0.058981
#
#
# Mechanical properties :
#
#
# Convention : Reuss Voigt Hill
#
# Bulk Modulus (GPa) = 50.94517 79.51077 65.22797
# Shear Modulus (GPa) = -36.49462 22.56245 -6.96609
#
# Velocity S-wave (km/s) = -4.26188 3.35104 -1.86200
# Velocity P-wave (km/s) = 1.06658 7.38550 5.27651
#
# Compressibility (1/GPa) = 0.01962895
#
# Stress axis : x y z
#
# Youngs Moduli (GPa) = 60.77199 36.55410 87.02607
#
# Poissons Ratio (x) = 0.22277 0.68468
# Poissons Ratio (y) = 0.37035 0.33724
# Poissons Ratio (z) = 0.47812 0.14165
#
# Static dielectric constant tensor:
#      x y z
#    x 3.704240 0.000000 0.000000 
#    y 0.000000 3.254570 0.000000 
#    z 0.000000 0.000000 3.948630 
# 
# 
# High freq. dielectric constant tensor:
#      x y z
#    x 1.781130 0.000000 0.000000 
#    y 0.000000 1.744770 0.000000 
#    z 0.000000 0.000000 1.793530 
# 
# From -- ./inp_files/45250.got.cif
#   From: 2010.03.12/outbox.cif.g09.slc.cpg/sg67_23_cif.got.tgz:45250.got - 2010.04.10 22:41:39.
