data_PCOD8280237
_publ_section_title
;
Structure prediction by ZEFSAII (Michael W. Deem and Ramdas Pophale) SiO2 
 PCOD8280237
Probable space group: C M M A
;
_chemical_formula_sum "Si O2"
_cell_formula_units_Z 96
_cell_length_a 25.804932
_cell_length_b 16.784205
_cell_length_c 11.813986
_cell_angle_alpha 90.000000
_cell_angle_beta 90.000000
_cell_angle_gamma 90.000000
_cell_volume 5116.817721
_symmetry_space_group_name_H-M "C M M A"
_symmetry_group_IT_number 67
_symmetry_cell_setting 'orthorhombic'
loop_
_space_group_symop_operation_xyz
x,y,z
-x,1/2-y,z
x,-y,-z
-x,1/2+y,-z
-x,-y,-z
x,1/2+y,-z
-x,y,z
x,1/2-y,z
1/2+x,1/2+y,z
1/2-x,-y,z
1/2+x,1/2-y,-z
1/2-x,y,-z
1/2-x,1/2-y,-z
1/2+x,y,-z
1/2-x,1/2+y,z
1/2+x,-y,z
loop_
_atom_site_type_symbol
_atom_site_label
_atom_site_fract_x
_atom_site_fract_y
_atom_site_fract_z
Si Si1 0.145940 0.842282 0.677244
Si Si2 0.775811 0.087012 0.156474
Si Si3 0.556625 0.157590 0.832798
Si Si4 0.691691 0.408445 0.469799
Si Si5 0.676018 0.158564 0.224934
Si Si6 0.367204 0.090347 0.009560
O O1 0.156711 0.750000 0.709158
O O2 0.187220 0.901139 0.735676
O O3 0.088940 0.868327 0.721081
O O4 0.151242 0.856039 0.543240
O O5 0.731596 0.153967 0.163087
O O6 0.750000 0.000000 0.162440
O O7 0.809157 0.098484 0.042439
O O8 0.500000 0.114401 0.834565
O O9 0.546152 0.250000 0.828487
O O10 0.590193 0.141515 0.944641
O O11 0.683564 0.500000 0.500000
O O12 0.750000 0.380429 0.500000
O O13 0.677818 0.392534 0.339677
O O14 0.661809 0.250000 0.250104
O O15 0.633930 0.119672 0.139660
O O16 0.385949 0.000000 0.000000
#
# Coordination Sequence:
#
# PCOD8280237 Si02
#       6
#    16  16  16  16  16  16
#     4  10  20  35  58  84 110 145 195 239 280 335
#     4  11  20  34  52  78 117 159 192 229 277 339
#     4   9  20  40  64  86 110 143 190 249 299 341
#     4  11  23  36  55  79 117 160 194 228 281 343
#     4  12  24  35  54  83 120 159 196 236 285 342
#     4  11  23  35  57  83 119 153 192 236 288 351
#
# _framework density 18.761661
#
# number of rings (size 3 to 8) (size 9 to 14) (size 15 to 20)
#    0.000    1.333    3.333    3.000    2.333    3.667 
#    0.000    0.000    0.000    1.500    0.000    2.333 
#    0.000    0.000    0.000    0.000    0.000    0.000 
#
# Total GULP energy -595090.630510 kJ/mol
# GULP energy per Si atom -12397.721469 kJ/mol
# Density = 1.871896 g / cm^3
# Si number density = 18.761661 Si / 1000 Ang^3
#
#
#
# Elastic Constant Matrix: (Units=GPa)
#
#
# Indices 1 2 3 4 5 6 
#
# 1 114.4123 28.8169 55.1250 0.0000 0.0000 0.0000
# 2 28.8169 73.4669 36.6417 0.0000 0.0000 0.0000
# 3 55.1250 36.6417 134.1499 0.0000 0.0000 0.0000
# 4 0.0000 0.0000 0.0000 29.7385 0.0000 0.0000
# 5 0.0000 0.0000 0.0000 0.0000 -543.3769 0.0000
# 6 0.0000 0.0000 0.0000 0.0000 0.0000 16.7677
#
#
#
# Elastic Compliance Matrix: (Units=1/GPa)
#
#
# Indices 1 2 3 4 5 6 
#
# 1 0.011264 -0.002442 -0.003962 0.000000 0.000000 0.000000
# 2 -0.002442 0.016288 -0.003445 0.000000 0.000000 0.000000
# 3 -0.003962 -0.003445 0.010023 0.000000 0.000000 0.000000
# 4 0.000000 0.000000 0.000000 0.033626 0.000000 0.000000
# 5 0.000000 0.000000 0.000000 0.000000 -0.001840 0.000000
# 6 0.000000 0.000000 0.000000 0.000000 0.000000 0.059638
#
#
# Mechanical properties :
#
#
# Convention : Reuss Voigt Hill
#
# Bulk Modulus (GPa) = 55.93814 62.57736 59.25775
# Shear Modulus (GPa) = 32.32953 -85.94443 -26.80745
#
# Velocity S-wave (km/s) = 4.15561 -6.77554 -3.78410
# Velocity P-wave (km/s) = 7.27361 5.27109 3.54408
#
# Compressibility (1/GPa) = 0.01787689
#
# Stress axis : x y z
#
# Youngs Moduli (GPa) = 88.77653 61.39514 99.76782
#
# Poissons Ratio (x) = 0.14996 0.39524
# Poissons Ratio (y) = 0.21684 0.34372
# Poissons Ratio (z) = 0.35169 0.21152
#
# Static dielectric constant tensor:
#      x y z
#    x 3.506710 0.000000 0.000000 
#    y 0.000000 3.417180 0.000000 
#    z 0.000000 0.000000 3.572470 
# 
# 
# High freq. dielectric constant tensor:
#      x y z
#    x 1.692530 0.000000 0.000000 
#    y 0.000000 1.728780 0.000000 
#    z 0.000000 0.000000 1.735390 
# 
# From -- ./inp_files/21905.got.cif
#   From: 2010.03.12/outbox.cif.g09.slc.cpg/sg67_11_cif.got.tgz:21905.got - 2010.04.10 22:41:39.
