data_PCOD8280256
_publ_section_title
;
Structure prediction by ZEFSAII (Michael W. Deem and Ramdas Pophale) SiO2 
 PCOD8280256
Probable space group: C M M A
;
_chemical_formula_sum "Si O2"
_cell_formula_units_Z 96
_cell_length_a 14.879034
_cell_length_b 22.313342
_cell_length_c 12.920058
_cell_angle_alpha 90.000000
_cell_angle_beta 90.000000
_cell_angle_gamma 90.000000
_cell_volume 4289.471844
_symmetry_space_group_name_H-M "C M M A"
_symmetry_group_IT_number 67
_symmetry_cell_setting 'orthorhombic'
loop_
_space_group_symop_operation_xyz
x,y,z
-x,1/2-y,z
x,-y,-z
-x,1/2+y,-z
-x,-y,-z
x,1/2+y,-z
-x,y,z
x,1/2-y,z
1/2+x,1/2+y,z
1/2-x,-y,z
1/2+x,1/2-y,-z
1/2-x,y,-z
1/2-x,1/2-y,-z
1/2+x,y,-z
1/2-x,1/2+y,z
1/2+x,-y,z
loop_
_atom_site_type_symbol
_atom_site_label
_atom_site_fract_x
_atom_site_fract_y
_atom_site_fract_z
Si Si1 0.396451 0.315688 0.905710
Si Si2 0.851150 0.988161 0.711237
Si Si3 0.226855 0.816581 0.705976
Si Si4 0.104986 0.946247 0.929427
Si Si5 0.900263 0.388884 0.436709
Si Si6 0.099157 0.114720 0.676685
O O1 0.500000 0.318660 0.868716
O O2 0.380162 0.250000 0.962727
O O3 0.333373 0.318111 0.807230
O O4 0.376794 0.377307 0.972131
O O5 0.902582 0.050147 0.732231
O O6 0.750000 0.000000 0.675759
O O7 0.850843 0.948931 0.816028
O O8 0.899778 0.953341 0.618569
O O9 0.246946 0.750000 0.668700
O O10 0.175517 0.847478 0.612153
O O11 0.323864 0.845677 0.729593
O O12 0.000000 0.958220 0.917930
O O13 0.146783 0.000000 0.000000
O O14 0.877288 0.395925 0.556874
O O15 0.000000 0.360697 0.423200
O O16 0.000000 0.144054 0.692383
#
# Coordination Sequence:
#
# PCOD8280256 Si02
#       6
#    16  16  16  16  16  16
#     4   9  17  33  59  90 124 162 203 251 310 370
#     4  12  22  37  60  85 116 154 197 251 307 366
#     4  11  22  37  58  84 118 159 204 250 296 350
#     4  10  20  35  58  90 123 154 194 251 311 367
#     4  11  22  37  58  85 117 153 199 252 306 356
#     4  11  24  38  55  81 118 164 204 246 298 358
#
# _framework density 22.380376999999999
#
# number of rings (size 3 to 8) (size 9 to 14) (size 15 to 20)
#    0.000    1.333    3.333    3.000    0.000    5.000 
#    0.000    1.667    0.000    1.000    0.000    5.833 
#    0.000    0.000    0.000    0.000    0.000    0.000 
#
# Total GULP energy -594855.274838 kJ/mol
# GULP energy per Si atom -12392.818226 kJ/mol
# Density = 2.232944 g / cm^3
# Si number density = 22.380377 Si / 1000 Ang^3
#
#
#
# Elastic Constant Matrix: (Units=GPa)
#
#
# Indices 1 2 3 4 5 6 
#
# 1 100.1578 43.2265 5.8552 0.0000 0.0000 0.0000
# 2 43.2265 189.9523 18.2700 0.0000 0.0000 0.0000
# 3 5.8552 18.2700 27.6473 0.0000 0.0000 0.0000
# 4 0.0000 0.0000 0.0000 24.7531 0.0000 0.0000
# 5 0.0000 0.0000 0.0000 0.0000 15.2670 0.0000
# 6 0.0000 0.0000 0.0000 0.0000 0.0000 20.5990
#
#
#
# Elastic Compliance Matrix: (Units=1/GPa)
#
#
# Indices 1 2 3 4 5 6 
#
# 1 0.011085 -0.002453 -0.000727 0.000000 0.000000 0.000000
# 2 -0.002453 0.006164 -0.003554 0.000000 0.000000 0.000000
# 3 -0.000727 -0.003554 0.038672 0.000000 0.000000 0.000000
# 4 0.000000 0.000000 0.000000 0.040399 0.000000 0.000000
# 5 0.000000 0.000000 0.000000 0.000000 0.065501 0.000000
# 6 0.000000 0.000000 0.000000 0.000000 0.000000 0.048546
#
#
# Mechanical properties :
#
#
# Convention : Reuss Voigt Hill
#
# Bulk Modulus (GPa) = 23.55450 50.27343 36.91397
# Shear Modulus (GPa) = 21.00954 28.81755 24.91355
#
# Velocity S-wave (km/s) = 3.06722 3.59224 3.34007
# Velocity P-wave (km/s) = 4.80534 6.30219 5.60396
#
# Compressibility (1/GPa) = 0.04245473
#
# Stress axis : x y z
#
# Youngs Moduli (GPa) = 90.20966 162.21975 25.85818
#
# Poissons Ratio (x) = 0.39788 0.01880
# Poissons Ratio (y) = 0.22126 0.09190
# Poissons Ratio (z) = 0.06557 0.57656
#
# Static dielectric constant tensor:
#      x y z
#    x 4.051750 0.000000 0.000000 
#    y 0.000000 4.652690 0.000000 
#    z 0.000000 0.000000 3.610210 
# 
# 
# High freq. dielectric constant tensor:
#      x y z
#    x 1.892600 0.000000 0.000000 
#    y 0.000000 1.892630 0.000000 
#    z 0.000000 0.000000 1.838910 
# 
# From -- ./inp_files/27221.got.cif
#   From: 2010.03.12/outbox.cif.g09.slc.cpg/sg67_14_cif.got.tgz:27221.got - 2010.04.10 22:41:39.
