data_PCOD8280794
_publ_section_title
;
Structure prediction by ZEFSAII (Michael W. Deem and Ramdas Pophale) SiO2 
 PCOD8280794
Probable space group: C M M A
;
_chemical_formula_sum "Si O2"
_cell_formula_units_Z 88
_cell_length_a 30.250761
_cell_length_b 8.659575
_cell_length_c 17.548969
_cell_angle_alpha 90.000000
_cell_angle_beta 90.000000
_cell_angle_gamma 90.000000
_cell_volume 4597.105697
_symmetry_space_group_name_H-M "C M M A"
_symmetry_group_IT_number 67
_symmetry_cell_setting 'orthorhombic'
loop_
_space_group_symop_operation_xyz
x,y,z
-x,1/2-y,z
x,-y,-z
-x,1/2+y,-z
-x,-y,-z
x,1/2+y,-z
-x,y,z
x,1/2-y,z
1/2+x,1/2+y,z
1/2-x,-y,z
1/2+x,1/2-y,-z
1/2-x,y,-z
1/2-x,1/2-y,-z
1/2+x,y,-z
1/2-x,1/2+y,z
1/2+x,-y,z
loop_
_atom_site_type_symbol
_atom_site_label
_atom_site_fract_x
_atom_site_fract_y
_atom_site_fract_z
Si Si1 0.000000 0.424233 0.919817
Si Si2 0.582714 0.074604 0.855634
Si Si3 0.296812 0.064640 0.755679
Si Si4 0.116497 0.567067 0.296425
Si Si5 0.174711 0.926175 0.921487
Si Si6 0.550157 0.431251 0.583577
O O1 0.956997 0.461795 0.872205
O O2 0.000000 0.250000 0.940607
O O3 0.000000 0.500000 0.000000
O O4 0.565745 0.250000 0.857233
O O5 0.621847 0.050804 0.916705
O O6 0.598502 0.034605 0.772186
O O7 0.299964 0.250000 0.750441
O O8 0.304192 0.005859 0.843456
O O9 0.250000 0.000000 0.727697
O O10 0.332311 0.986955 0.697785
O O11 0.113629 0.750000 0.281681
O O12 0.086925 0.522991 0.368736
O O13 0.188459 0.750000 0.926561
O O14 0.192686 0.000000 0.000000
O O15 0.553473 0.500000 0.500000
O O16 0.500000 0.458196 0.615313
O O17 0.561395 0.250000 0.582879
#
# Coordination Sequence:
#
# PCOD8280794 Si02
#       6
#     8  16  16  16  16  16
#     4  12  24  36  50  72 101 140 187 236 286 340
#     4  10  21  37  53  73 103 142 187 236 285 335
#     4  10  21  38  57  81 111 146 191 239 292 345
#     4  11  22  37  59  86 116 151 190 232 282 341
#     4   9  19  33  51  73 101 137 179 230 286 342
#     4  10  21  38  61  90 124 159 192 230 277 328
#
# _framework density 19.142479000000002
#
# number of rings (size 3 to 8) (size 9 to 14) (size 15 to 20)
#    0.000    1.818    0.000    5.727    1.273    7.273 
#    0.000    1.818    0.000    0.545    0.000    3.818 
#    0.000    0.000    0.000    0.000    0.000    0.000 
#
# Total GULP energy -545454.082993 kJ/mol
# GULP energy per Si atom -12396.683704 kJ/mol
# Density = 1.909891 g / cm^3
# Si number density = 19.142479 Si / 1000 Ang^3
#
#
#
# Elastic Constant Matrix: (Units=GPa)
#
#
# Indices 1 2 3 4 5 6 
#
# 1 116.7376 34.1049 32.6534 0.0000 0.0000 0.0000
# 2 34.1049 91.9552 15.9257 0.0000 0.0000 0.0000
# 3 32.6534 15.9257 60.2494 0.0000 0.0000 0.0000
# 4 0.0000 0.0000 0.0000 31.9850 0.0000 0.0000
# 5 0.0000 0.0000 0.0000 0.0000 -41.4307 0.0000
# 6 0.0000 0.0000 0.0000 0.0000 0.0000 29.7813
#
#
#
# Elastic Compliance Matrix: (Units=1/GPa)
#
#
# Indices 1 2 3 4 5 6 
#
# 1 0.010912 -0.003168 -0.005076 0.000000 0.000000 0.000000
# 2 -0.003168 0.012316 -0.001539 0.000000 0.000000 0.000000
# 3 -0.005076 -0.001539 0.019756 0.000000 0.000000 0.000000
# 4 0.000000 0.000000 0.000000 0.031265 0.000000 0.000000
# 5 0.000000 0.000000 0.000000 0.000000 -0.024137 0.000000
# 6 0.000000 0.000000 0.000000 0.000000 0.000000 0.033578
#
#
# Mechanical properties :
#
#
# Convention : Reuss Voigt Hill
#
# Bulk Modulus (GPa) = 42.70275 48.25669 45.47972
# Shear Modulus (GPa) = 45.02012 16.48433 30.75223
#
# Velocity S-wave (km/s) = 4.85484 2.93770 4.01245
# Velocity P-wave (km/s) = 7.33364 6.06389 6.72878
#
# Compressibility (1/GPa) = 0.02341770
#
# Stress axis : x y z
#
# Youngs Moduli (GPa) = 91.64509 81.19366 50.61833
#
# Poissons Ratio (x) = 0.25720 0.25696
# Poissons Ratio (y) = 0.29031 0.07789
# Poissons Ratio (z) = 0.46523 0.12493
#
# Static dielectric constant tensor:
#      x y z
#    x 3.781340 0.000000 0.000000 
#    y 0.000000 3.482290 0.000000 
#    z 0.000000 0.000000 3.895350 
# 
# 
# High freq. dielectric constant tensor:
#      x y z
#    x 1.749990 0.000000 0.000000 
#    y 0.000000 1.756040 0.000000 
#    z 0.000000 0.000000 1.719890 
# 
# From -- ./inp_files/36173.got.cif
#   From: 2010.03.12/outbox.cif.g09.slc.cpg/sg67_19_cif.got.tgz:36173.got - 2010.04.10 22:41:39.
