data_PCOD8280434
_publ_section_title
;
Structure prediction by ZEFSAII (Michael W. Deem and Ramdas Pophale) SiO2 
 PCOD8280434
Probable space group: C M M A
;
_chemical_formula_sum "Si O2"
_cell_formula_units_Z 120
_cell_length_a 19.702282
_cell_length_b 23.642879
_cell_length_c 11.838560
_cell_angle_alpha 90.000000
_cell_angle_beta 90.000000
_cell_angle_gamma 90.000000
_cell_volume 5514.622266
_symmetry_space_group_name_H-M "C M M A"
_symmetry_group_IT_number 67
_symmetry_cell_setting 'orthorhombic'
loop_
_space_group_symop_operation_xyz
x,y,z
-x,1/2-y,z
x,-y,-z
-x,1/2+y,-z
-x,-y,-z
x,1/2+y,-z
-x,y,z
x,1/2-y,z
1/2+x,1/2+y,z
1/2-x,-y,z
1/2+x,1/2-y,-z
1/2-x,y,-z
1/2-x,1/2-y,-z
1/2+x,y,-z
1/2-x,1/2+y,z
1/2+x,-y,z
loop_
_atom_site_type_symbol
_atom_site_label
_atom_site_fract_x
_atom_site_fract_y
_atom_site_fract_z
Si Si1 0.819254 0.898487 0.282523
Si Si2 0.831022 0.998375 0.868532
Si Si3 0.874114 0.314138 0.395169
Si Si4 0.075483 0.311458 0.633442
Si Si5 0.575053 0.687029 0.991018
Si Si6 0.213905 0.813602 0.115201
Si Si7 0.921405 0.894501 0.803049
Si Si8 0.250000 0.378344 0.500000
O O1 0.882921 0.861351 0.313552
O O2 0.765643 0.859052 0.211134
O O3 0.782143 0.917707 0.399637
O O4 0.851599 0.947403 0.205516
O O5 0.868545 0.946482 0.807770
O O6 0.750000 0.000000 0.858313
O O7 0.853961 0.000000 0.000000
O O8 0.865370 0.250000 0.347673
O O9 0.926965 0.315034 0.497870
O O10 0.904645 0.355578 0.302340
O O11 0.802923 0.336461 0.442187
O O12 0.106369 0.250000 0.669348
O O13 0.000000 0.316884 0.680609
O O14 0.500000 0.676922 0.938451
O O15 0.579474 0.750000 0.044678
O O16 0.591196 0.641927 0.086131
O O17 0.632090 0.681564 0.894924
O O18 0.237273 0.750000 0.147245
O O19 0.250000 0.832824 0.000000
O O20 0.000000 0.915544 0.796481
#
# Coordination Sequence:
#
# PCOD8280434 Si02
#       8
#    16  16  16  16  16  16  16   8
#     4  11  23  41  64  89 123 166 215 261 320 380
#     4  11  26  45  67  90 121 171 226 279 329 391
#     4  10  20  36  62  95 132 172 211 259 325 398
#     4   9  19  37  61  92 128 164 204 250 307 383
#     4   9  19  36  58  90 132 172 208 257 329 400
#     4  10  22  36  59  95 130 166 210 264 322 386
#     4  11  23  40  63  95 129 165 217 278 338 399
#     4  10  23  40  63  96 136 170 214 270 318 392
#
# _framework density 21.76033
#
# number of rings (size 3 to 8) (size 9 to 14) (size 15 to 20)
#    0.000    1.867    0.000    3.000    5.600    4.267 
#    0.000    7.667    0.000    4.000    0.000    0.000 
#    0.000    0.000    0.000    0.000    0.000    0.000 
#
# Total GULP energy -743590.291429 kJ/mol
# GULP energy per Si atom -12393.171524 kJ/mol
# Density = 2.171080 g / cm^3
# Si number density = 21.760330 Si / 1000 Ang^3
#
#
#
# Elastic Constant Matrix: (Units=GPa)
#
#
# Indices 1 2 3 4 5 6 
#
# 1 76.8699 31.1592 25.2978 0.0000 0.0000 0.0000
# 2 31.1592 128.2580 65.2438 0.0000 0.0000 0.0000
# 3 25.2978 65.2438 119.5712 0.0000 0.0000 0.0000
# 4 0.0000 0.0000 0.0000 39.3561 0.0000 0.0000
# 5 0.0000 0.0000 0.0000 0.0000 24.7319 0.0000
# 6 0.0000 0.0000 0.0000 0.0000 0.0000 10.5205
#
#
#
# Elastic Compliance Matrix: (Units=1/GPa)
#
#
# Indices 1 2 3 4 5 6 
#
# 1 0.014648 -0.002744 -0.001602 0.000000 0.000000 0.000000
# 2 -0.002744 0.011306 -0.005589 0.000000 0.000000 0.000000
# 3 -0.001602 -0.005589 0.011752 0.000000 0.000000 0.000000
# 4 0.000000 0.000000 0.000000 0.025409 0.000000 0.000000
# 5 0.000000 0.000000 0.000000 0.000000 0.040434 0.000000
# 6 0.000000 0.000000 0.000000 0.000000 0.000000 0.095052
#
#
# Mechanical properties :
#
#
# Convention : Reuss Voigt Hill
#
# Bulk Modulus (GPa) = 56.06251 63.12229 59.59240
# Shear Modulus (GPa) = 22.28001 28.45492 25.36747
#
# Velocity S-wave (km/s) = 3.20329 3.62007 3.41804
# Velocity P-wave (km/s) = 6.28498 6.82233 6.55916
#
# Compressibility (1/GPa) = 0.01783723
#
# Stress axis : x y z
#
# Youngs Moduli (GPa) = 68.26686 88.44616 85.09435
#
# Poissons Ratio (x) = 0.24267 0.13633
# Poissons Ratio (y) = 0.18731 0.47557
# Poissons Ratio (z) = 0.10937 0.49430
#
# Static dielectric constant tensor:
#      x y z
#    x 3.985020 0.000000 0.000000 
#    y 0.000000 3.849430 0.000000 
#    z 0.000000 0.000000 4.189780 
# 
# 
# High freq. dielectric constant tensor:
#      x y z
#    x 1.857300 0.000000 0.000000 
#    y 0.000000 1.838590 0.000000 
#    z 0.000000 0.000000 1.863750 
# 
# From -- ./inp_files/21155.got.cif
#   From: 2010.03.12/outbox.cif.g09.slc.cpg/sg67_11_cif.got.tgz:21155.got - 2010.04.10 22:41:39.
