data_PCOD8280545
_publ_section_title
;
Structure prediction by ZEFSAII (Michael W. Deem and Ramdas Pophale) SiO2 
 PCOD8280545
Probable space group: C M M A
;
_chemical_formula_sum "Si O2"
_cell_formula_units_Z 96
_cell_length_a 14.587958
_cell_length_b 15.458081
_cell_length_c 20.436980
_cell_angle_alpha 90.000000
_cell_angle_beta 90.000000
_cell_angle_gamma 90.000000
_cell_volume 4608.576520
_symmetry_space_group_name_H-M "C M M A"
_symmetry_group_IT_number 67
_symmetry_cell_setting 'orthorhombic'
loop_
_space_group_symop_operation_xyz
x,y,z
-x,1/2-y,z
x,-y,-z
-x,1/2+y,-z
-x,-y,-z
x,1/2+y,-z
-x,y,z
x,1/2-y,z
1/2+x,1/2+y,z
1/2-x,-y,z
1/2+x,1/2-y,-z
1/2-x,y,-z
1/2-x,1/2-y,-z
1/2+x,y,-z
1/2-x,1/2+y,z
1/2+x,-y,z
loop_
_atom_site_type_symbol
_atom_site_label
_atom_site_fract_x
_atom_site_fract_y
_atom_site_fract_z
Si Si1 0.753103 0.602305 0.396816
Si Si2 0.901084 0.750000 0.907625
Si Si3 0.250522 0.847184 0.749544
Si Si4 0.102863 0.397456 0.497122
Si Si5 0.394064 0.416616 0.836046
Si Si6 0.893760 0.889978 0.145184
Si Si7 0.657633 0.750000 0.957354
O O1 0.750000 0.500000 0.387960
O O2 0.764533 0.647385 0.327490
O O3 0.840563 0.633412 0.439278
O O4 0.658755 0.632223 0.432391
O O5 0.854600 0.839895 0.883403
O O6 0.000000 0.750000 0.873978
O O7 0.917839 0.750000 0.985742
O O8 0.220891 0.750000 0.768102
O O9 0.168628 0.911979 0.771155
O O10 0.345316 0.869989 0.785980
O O11 0.097120 0.500000 0.500000
O O12 0.000000 0.357295 0.496263
O O13 0.500000 0.405665 0.815835
O O14 0.380525 0.508615 0.871947
O O15 0.849191 0.835402 0.086651
O O16 0.000000 0.864533 0.152720
O O17 0.750000 0.750000 0.000000
#
# Coordination Sequence:
#
# PCOD8280545 Si02
#       7
#    16   8  16  16  16  16   8
#     4   9  18  32  53  83 113 148 202 256 300 367
#     4  10  20  38  62  88 120 154 196 247 305 363
#     4  12  23  38  60  86 124 166 208 257 317 371
#     4   8  15  31  54  79 112 151 193 249 310 363
#     4  10  22  41  65  91 124 166 211 263 313 368
#     4  11  24  43  65  91 127 167 212 260 309 370
#     4  12  24  40  64  92 124 164 201 249 309 366
#
# _framework density 20.830725999999999
#
# number of rings (size 3 to 8) (size 9 to 14) (size 15 to 20)
#    0.000    1.833    1.667    4.250    0.000    2.000 
#    0.000    8.333    0.000    1.000    0.000    0.000 
#    0.000    0.000    0.000    0.000    0.000    0.000 
#
# Total GULP energy -594922.621183 kJ/mol
# GULP energy per Si atom -12394.221275 kJ/mol
# Density = 2.078331 g / cm^3
# Si number density = 20.830726 Si / 1000 Ang^3
#
#
#
# Elastic Constant Matrix: (Units=GPa)
#
#
# Indices 1 2 3 4 5 6 
#
# 1 162.2642 40.2928 68.8921 0.0000 0.0000 0.0000
# 2 40.2928 114.4853 50.3694 0.0000 0.0000 0.0000
# 3 68.8921 50.3694 152.8152 0.0000 0.0000 0.0000
# 4 0.0000 0.0000 0.0000 31.9713 0.0000 0.0000
# 5 0.0000 0.0000 0.0000 0.0000 23.4228 0.0000
# 6 0.0000 0.0000 0.0000 0.0000 0.0000 16.1597
#
#
#
# Elastic Compliance Matrix: (Units=1/GPa)
#
#
# Indices 1 2 3 4 5 6 
#
# 1 0.007810 -0.001403 -0.003058 0.000000 0.000000 0.000000
# 2 -0.001403 0.010468 -0.002818 0.000000 0.000000 0.000000
# 3 -0.003058 -0.002818 0.008851 0.000000 0.000000 0.000000
# 4 0.000000 0.000000 0.000000 0.031278 0.000000 0.000000
# 5 0.000000 0.000000 0.000000 0.000000 0.042693 0.000000
# 6 0.000000 0.000000 0.000000 0.000000 0.000000 0.061882
#
#
# Mechanical properties :
#
#
# Convention : Reuss Voigt Hill
#
# Bulk Modulus (GPa) = 79.54919 83.18591 81.36755
# Shear Modulus (GPa) = 27.51302 32.31144 29.91223
#
# Velocity S-wave (km/s) = 3.63821 3.94273 3.79353
# Velocity P-wave (km/s) = 7.47797 7.79408 7.63766
#
# Compressibility (1/GPa) = 0.01257084
#
# Stress axis : x y z
#
# Youngs Moduli (GPa) = 128.04696 95.52612 112.97637
#
# Poissons Ratio (x) = 0.13403 0.34551
# Poissons Ratio (y) = 0.17966 0.31836
# Poissons Ratio (z) = 0.39160 0.26919
#
# Static dielectric constant tensor:
#      x y z
#    x 3.224690 0.000000 0.000000 
#    y 0.000000 3.793830 0.000000 
#    z 0.000000 0.000000 3.818070 
# 
# 
# High freq. dielectric constant tensor:
#      x y z
#    x 1.825560 0.000000 0.000000 
#    y 0.000000 1.815130 0.000000 
#    z 0.000000 0.000000 1.801540 
# 
# From -- ./inp_files/38549.got.cif
#   From: 2010.03.12/outbox.cif.g09.slc.cpg/sg67_20_cif.got.tgz:38549.got - 2010.04.10 22:41:39.
