data_PCOD8280090
_publ_section_title
;
Structure prediction by ZEFSAII (Michael W. Deem and Ramdas Pophale) SiO2 
 PCOD8280090
Probable space group: C M M A
;
_chemical_formula_sum "Si O2"
_cell_formula_units_Z 104
_cell_length_a 26.109003
_cell_length_b 8.824793
_cell_length_c 22.875238
_cell_angle_alpha 90.000000
_cell_angle_beta 90.000000
_cell_angle_gamma 90.000000
_cell_volume 5270.604597
_symmetry_space_group_name_H-M "C M M A"
_symmetry_group_IT_number 67
_symmetry_cell_setting 'orthorhombic'
loop_
_space_group_symop_operation_xyz
x,y,z
-x,1/2-y,z
x,-y,-z
-x,1/2+y,-z
-x,-y,-z
x,1/2+y,-z
-x,y,z
x,1/2-y,z
1/2+x,1/2+y,z
1/2-x,-y,z
1/2+x,1/2-y,-z
1/2-x,y,-z
1/2-x,1/2-y,-z
1/2+x,y,-z
1/2-x,1/2+y,z
1/2+x,-y,z
loop_
_atom_site_type_symbol
_atom_site_label
_atom_site_fract_x
_atom_site_fract_y
_atom_site_fract_z
Si Si1 0.557957 0.572667 0.817150
Si Si2 0.196287 0.069427 0.653529
Si Si3 0.654655 0.070484 0.770742
Si Si4 0.198944 0.574538 0.114183
Si Si5 0.406473 0.422211 0.058894
Si Si6 0.389215 0.428633 0.436521
Si Si7 0.500000 0.573317 0.562151
O O1 0.500000 0.545082 0.796181
O O2 0.573127 0.750000 0.814940
O O3 0.595316 0.482345 0.773773
O O4 0.565153 0.511831 0.883588
O O5 0.199686 0.250000 0.656232
O O6 0.153773 0.011364 0.607647
O O7 0.250000 0.000000 0.632679
O O8 0.182236 0.006146 0.716559
O O9 0.657566 0.250000 0.764871
O O10 0.684680 0.016465 0.827728
O O11 0.207605 0.750000 0.130081
O O12 0.250000 0.500000 0.087251
O O13 0.154544 0.556385 0.066084
O O14 0.422628 0.250000 0.051976
O O15 0.426041 0.500000 0.000000
O O16 0.380738 0.500000 0.500000
O O17 0.384368 0.250000 0.444258
O O18 0.445478 0.472753 0.408176
O O19 0.500000 0.750000 0.552166
O O20 0.500000 0.500000 0.500000
#
# Coordination Sequence:
#
# PCOD8280090 Si02
#       7
#    16  16  16  16  16  16   8
#     4   9  19  38  60  80 107 144 182 223 273 330
#     4  11  23  39  57  82 114 152 192 233 281 339
#     4  11  22  37  57  81 109 140 179 230 280 331
#     4  10  20  35  54  76 103 138 180 223 273 330
#     4   9  19  33  50  75 107 141 178 219 265 323
#     4   9  19  35  58  84 114 148 189 231 278 334
#     4   8  14  30  54  80 106 138 178 222 265 316
#
# _framework density 19.732081000000001
#
# number of rings (size 3 to 8) (size 9 to 14) (size 15 to 20)
#    0.000    2.308    0.000    3.692    0.000    5.538 
#    1.385    3.077    0.000    0.000    0.000    0.000 
#    0.000    0.000    0.000    0.000    0.000    0.000 
#
# Total GULP energy -644577.767956 kJ/mol
# GULP energy per Si atom -12395.726307 kJ/mol
# Density = 1.968717 g / cm^3
# Si number density = 19.732081 Si / 1000 Ang^3
#
#
#
# Elastic Constant Matrix: (Units=GPa)
#
#
# Indices 1 2 3 4 5 6 
#
# 1 123.1245 34.9930 23.9350 0.0000 0.0000 0.0000
# 2 34.9930 70.7418 18.2611 0.0000 0.0000 0.0000
# 3 23.9350 18.2611 56.8499 0.0000 0.0000 0.0000
# 4 0.0000 0.0000 0.0000 27.4873 0.0000 0.0000
# 5 0.0000 0.0000 0.0000 0.0000 20.4924 0.0000
# 6 0.0000 0.0000 0.0000 0.0000 0.0000 30.6500
#
#
#
# Elastic Compliance Matrix: (Units=1/GPa)
#
#
# Indices 1 2 3 4 5 6 
#
# 1 0.009847 -0.004144 -0.002815 0.000000 0.000000 0.000000
# 2 -0.004144 0.017158 -0.003767 0.000000 0.000000 0.000000
# 3 -0.002815 -0.003767 0.019985 0.000000 0.000000 0.000000
# 4 0.000000 0.000000 0.000000 0.036380 0.000000 0.000000
# 5 0.000000 0.000000 0.000000 0.000000 0.048799 0.000000
# 6 0.000000 0.000000 0.000000 0.000000 0.000000 0.032626
#
#
# Mechanical properties :
#
#
# Convention : Reuss Voigt Hill
#
# Bulk Modulus (GPa) = 39.15550 45.01049 42.08299
# Shear Modulus (GPa) = 25.67267 27.29441 26.48354
#
# Velocity S-wave (km/s) = 3.61094 3.72324 3.66752
# Velocity P-wave (km/s) = 6.10506 6.42991 6.26959
#
# Compressibility (1/GPa) = 0.02553920
#
# Stress axis : x y z
#
# Youngs Moduli (GPa) = 101.55552 58.28106 50.03735
#
# Poissons Ratio (x) = 0.24153 0.14083
# Poissons Ratio (y) = 0.42087 0.18847
# Poissons Ratio (z) = 0.28583 0.21953
#
# Static dielectric constant tensor:
#      x y z
#    x 4.138750 0.000000 0.000000 
#    y 0.000000 3.495080 0.000000 
#    z 0.000000 0.000000 3.375170 
# 
# 
# High freq. dielectric constant tensor:
#      x y z
#    x 1.786250 0.000000 0.000000 
#    y 0.000000 1.764490 0.000000 
#    z 0.000000 0.000000 1.745920 
# 
# From -- ./inp_files/39956.got.cif
#   From: 2010.03.12/outbox.cif.g09.slc.cpg/sg67_20_cif.got.tgz:39956.got - 2010.04.10 22:41:39.
