data_PCOD8280681
_publ_section_title
;
Structure prediction by ZEFSAII (Michael W. Deem and Ramdas Pophale) SiO2 
 PCOD8280681
Probable space group: C M M A
;
_chemical_formula_sum "Si O2"
_cell_formula_units_Z 88
_cell_length_a 14.322336
_cell_length_b 15.061637
_cell_length_c 20.023083
_cell_angle_alpha 90.000000
_cell_angle_beta 90.000000
_cell_angle_gamma 90.000000
_cell_volume 4319.335931
_symmetry_space_group_name_H-M "C M M A"
_symmetry_group_IT_number 67
_symmetry_cell_setting 'orthorhombic'
loop_
_space_group_symop_operation_xyz
x,y,z
-x,1/2-y,z
x,-y,-z
-x,1/2+y,-z
-x,-y,-z
x,1/2+y,-z
-x,y,z
x,1/2-y,z
1/2+x,1/2+y,z
1/2-x,-y,z
1/2+x,1/2-y,-z
1/2-x,y,-z
1/2-x,1/2-y,-z
1/2+x,y,-z
1/2-x,1/2+y,z
1/2+x,-y,z
loop_
_atom_site_type_symbol
_atom_site_label
_atom_site_fract_x
_atom_site_fract_y
_atom_site_fract_z
Si Si1 0.609429 0.350743 0.941007
Si Si2 0.889497 0.484389 0.169698
Si Si3 0.250000 0.500000 0.716231
Si Si4 0.603424 0.354638 0.511403
Si Si5 0.110447 0.152517 0.911538
Si Si6 0.234434 0.144891 0.607995
O O1 0.500000 0.368904 0.942679
O O2 0.632737 0.250000 0.920835
O O3 0.651755 0.414279 0.884118
O O4 0.650813 0.372045 0.014805
O O5 0.838676 0.470570 0.239798
O O6 0.859773 0.581509 0.143445
O O7 0.000000 0.473858 0.180817
O O8 0.221480 0.413680 0.673714
O O9 0.500000 0.397897 0.517133
O O10 0.595431 0.250000 0.509879
O O11 0.666210 0.381505 0.574898
O O12 0.652532 0.384526 0.442764
O O13 0.147805 0.250000 0.889911
O O14 0.000000 0.155297 0.918549
O O15 0.229363 0.250000 0.624951
#
# Coordination Sequence:
#
# PCOD8280681 Si02
#       6
#    16  16   8  16  16  16
#     4   8  14  28  53  79  98 124 169 224 278 320
#     4  10  21  36  51  70 103 142 176 214 258 307
#     4  12  26  37  49  76 110 148 186 204 236 310
#     4   8  15  33  63  90 107 130 168 214 263 304
#     4   8  14  28  53  79  98 124 169 224 278 320
#     4   9  20  38  56  79 112 140 167 212 258 296
#
# _framework density 20.373502999999999
#
# number of rings (size 3 to 8) (size 9 to 14) (size 15 to 20)
#    0.000    3.091    0.000    2.727    0.000    6.545 
#    0.000    2.727    0.000    2.182    0.000    0.000 
#    0.000    0.000    0.000    0.000    0.000    0.000 
#
# Total GULP energy -545323.543068 kJ/mol
# GULP energy per Si atom -12393.716888 kJ/mol
# Density = 2.032713 g / cm^3
# Si number density = 20.373503 Si / 1000 Ang^3
#
#
#
# Elastic Constant Matrix: (Units=GPa)
#
#
# Indices 1 2 3 4 5 6 
#
# 1 59.6692 -29.3810 -7.1913 0.0000 0.0000 0.0000
# 2 -29.3810 43.9058 11.7098 0.0000 0.0000 0.0000
# 3 -7.1913 11.7098 77.8738 0.0000 0.0000 0.0000
# 4 0.0000 0.0000 0.0000 34.7166 0.0000 0.0000
# 5 0.0000 0.0000 0.0000 0.0000 42.1512 0.0000
# 6 0.0000 0.0000 0.0000 0.0000 0.0000 7.5779
#
#
#
# Elastic Compliance Matrix: (Units=1/GPa)
#
#
# Indices 1 2 3 4 5 6 
#
# 1 0.024999 0.016786 -0.000216 0.000000 0.000000 0.000000
# 2 0.016786 0.034999 -0.003713 0.000000 0.000000 0.000000
# 3 -0.000216 -0.003713 0.013380 0.000000 0.000000 0.000000
# 4 0.000000 0.000000 0.000000 0.028805 0.000000 0.000000
# 5 0.000000 0.000000 0.000000 0.000000 0.023724 0.000000
# 6 0.000000 0.000000 0.000000 0.000000 0.000000 0.131963
#
#
# Mechanical properties :
#
#
# Convention : Reuss Voigt Hill
#
# Bulk Modulus (GPa) = 10.09153 14.63596 12.36374
# Shear Modulus (GPa) = 18.85480 30.64322 24.74901
#
# Velocity S-wave (km/s) = 3.04543 3.88244 3.48913
# Velocity P-wave (km/s) = 4.16296 5.22468 4.72374
#
# Compressibility (1/GPa) = 0.09909304
#
# Stress axis : x y z
#
# Youngs Moduli (GPa) = 40.00232 28.57212 74.74034
#
# Poissons Ratio (x) = -0.47961 0.01611
# Poissons Ratio (y) = -0.67148 0.27749
# Poissons Ratio (z) = 0.00862 0.10608
#
# Static dielectric constant tensor:
#      x y z
#    x 3.931230 0.000000 0.000000 
#    y 0.000000 3.805240 0.000000 
#    z 0.000000 0.000000 3.635400 
# 
# 
# High freq. dielectric constant tensor:
#      x y z
#    x 1.791630 0.000000 0.000000 
#    y 0.000000 1.796150 0.000000 
#    z 0.000000 0.000000 1.773890 
# 
# From -- ./inp_files/38306.got.cif
#   From: 2010.03.12/outbox.cif.g09.slc.cpg/sg67_20_cif.got.tgz:38306.got - 2010.04.10 22:41:39.
