data_PCOD8280897
_publ_section_title
;
Structure prediction by ZEFSAII (Michael W. Deem and Ramdas Pophale) SiO2 
 PCOD8280897
Probable space group: C M M A
;
_chemical_formula_sum "Si O2"
_cell_formula_units_Z 80
_cell_length_a 19.322376
_cell_length_b 8.742811
_cell_length_c 25.996606
_cell_angle_alpha 90.000000
_cell_angle_beta 90.000000
_cell_angle_gamma 90.000000
_cell_volume 4391.655563
_symmetry_space_group_name_H-M "C M M A"
_symmetry_group_IT_number 67
_symmetry_cell_setting 'orthorhombic'
loop_
_space_group_symop_operation_xyz
x,y,z
-x,1/2-y,z
x,-y,-z
-x,1/2+y,-z
-x,-y,-z
x,1/2+y,-z
-x,y,z
x,1/2-y,z
1/2+x,1/2+y,z
1/2-x,-y,z
1/2+x,1/2-y,-z
1/2-x,y,-z
1/2-x,1/2-y,-z
1/2+x,y,-z
1/2-x,1/2+y,z
1/2+x,-y,z
loop_
_atom_site_type_symbol
_atom_site_label
_atom_site_fract_x
_atom_site_fract_y
_atom_site_fract_z
Si Si1 0.919632 0.071975 0.945445
Si Si2 0.173511 0.569153 0.857973
Si Si3 0.578477 0.068761 0.447085
Si Si4 0.825007 0.571017 0.356767
Si Si5 0.174882 0.070849 0.755978
O O1 0.900276 0.250000 0.945947
O O2 0.000000 0.045831 0.932598
O O3 0.875017 0.984770 0.903578
O O4 0.900165 0.000000 0.000000
O O5 0.179035 0.750000 0.858106
O O6 0.250000 0.500000 0.864582
O O7 0.137785 0.511839 0.804274
O O8 0.500000 0.012326 0.438503
O O9 0.582544 0.250000 0.450107
O O10 0.623426 0.003799 0.399687
O O11 0.608456 0.000000 0.500000
O O12 0.815249 0.750000 0.364276
O O13 0.750000 0.500000 0.363984
O O14 0.858882 0.538259 0.300140
O O15 0.178659 0.250000 0.768028
O O16 0.250000 0.000000 0.752448
#
# Coordination Sequence:
#
# PCOD8280897 Si02
#       5
#    16  16  16  16  16
#     4  10  21  38  58  79 105 137 172 210 255 305
#     4  11  21  34  54  79 107 137 172 212 253 299
#     4   9  18  33  50  68  93 126 162 199 242 292
#     4   9  18  31  49  72  97 126 161 202 245 292
#     4   9  16  29  48  71  99 130 164 201 248 298
#
# _framework density 18.216363999999999
#
# number of rings (size 3 to 8) (size 9 to 14) (size 15 to 20)
#    0.000    2.400    0.000    4.200    0.000    3.600 
#    0.000    5.000    0.000    3.600    0.000    0.000 
#    0.000    0.000    0.000    0.000    0.000    0.000 
#
# Total GULP energy -495782.171151 kJ/mol
# GULP energy per Si atom -12394.554279 kJ/mol
# Density = 1.817490 g / cm^3
# Si number density = 18.216364 Si / 1000 Ang^3
#
#
#
# Elastic Constant Matrix: (Units=GPa)
#
#
# Indices 1 2 3 4 5 6 
#
# 1 62.5989 37.3763 75.8686 0.0000 0.0000 0.0000
# 2 37.3763 105.2359 71.5702 0.0000 0.0000 0.0000
# 3 75.8686 71.5702 193.9019 0.0000 0.0000 0.0000
# 4 0.0000 0.0000 0.0000 33.9601 0.0000 0.0000
# 5 0.0000 0.0000 0.0000 0.0000 -1.2854 0.0000
# 6 0.0000 0.0000 0.0000 0.0000 0.0000 22.4107
#
#
#
# Elastic Compliance Matrix: (Units=1/GPa)
#
#
# Indices 1 2 3 4 5 6 
#
# 1 0.031448 -0.003740 -0.010924 0.000000 0.000000 0.000000
# 2 -0.003740 0.013132 -0.003384 0.000000 0.000000 0.000000
# 3 -0.010924 -0.003384 0.010681 0.000000 0.000000 0.000000
# 4 0.000000 0.000000 0.000000 0.029446 0.000000 0.000000
# 5 0.000000 0.000000 0.000000 0.000000 -0.777959 0.000000
# 6 0.000000 0.000000 0.000000 0.000000 0.000000 0.044622
#
#
# Mechanical properties :
#
#
# Convention : Reuss Voigt Hill
#
# Bulk Modulus (GPa) = 52.17934 81.26298 66.72116
# Shear Modulus (GPa) = -8.24883 22.81184 7.28151
#
# Velocity S-wave (km/s) = -2.13028 3.54258 2.00148
# Velocity P-wave (km/s) = 4.75979 7.83836 6.48443
#
# Compressibility (1/GPa) = 0.01916467
#
# Stress axis : x y z
#
# Youngs Moduli (GPa) = 31.79895 76.14989 93.62733
#
# Poissons Ratio (x) = 0.28477 1.02281
# Poissons Ratio (y) = 0.11892 0.31682
# Poissons Ratio (z) = 0.34738 0.25768
#
# Static dielectric constant tensor:
#      x y z
#    x 3.165090 0.000000 0.000000 
#    y 0.000000 3.475940 0.000000 
#    z 0.000000 0.000000 4.812680 
# 
# 
# High freq. dielectric constant tensor:
#      x y z
#    x 1.670730 0.000000 0.000000 
#    y 0.000000 1.713650 0.000000 
#    z 0.000000 0.000000 1.730060 
# 
# From -- ./inp_files/43280.got.cif
#   From: 2010.03.12/outbox.cif.g09.slc.cpg/sg67_22_cif.got.tgz:43280.got - 2010.04.10 22:41:39.
