data_PCOD8281090
_publ_section_title
;
Structure prediction by ZEFSAII (Michael W. Deem and Ramdas Pophale) SiO2 
 PCOD8281090
Probable space group: C M M A
;
_chemical_formula_sum "Si O2"
_cell_formula_units_Z 64
_cell_length_a 14.243625
_cell_length_b 18.738602
_cell_length_c 10.912005
_cell_angle_alpha 90.000000
_cell_angle_beta 90.000000
_cell_angle_gamma 90.000000
_cell_volume 2912.475459
_symmetry_space_group_name_H-M "C M M A"
_symmetry_group_IT_number 67
_symmetry_cell_setting 'orthorhombic'
loop_
_space_group_symop_operation_xyz
x,y,z
-x,1/2-y,z
x,-y,-z
-x,1/2+y,-z
-x,-y,-z
x,1/2+y,-z
-x,y,z
x,1/2-y,z
1/2+x,1/2+y,z
1/2-x,-y,z
1/2+x,1/2-y,-z
1/2-x,y,-z
1/2-x,1/2-y,-z
1/2+x,y,-z
1/2-x,1/2+y,z
1/2+x,-y,z
loop_
_atom_site_type_symbol
_atom_site_label
_atom_site_fract_x
_atom_site_fract_y
_atom_site_fract_z
Si Si1 0.000000 0.611411 0.066560
Si Si2 0.393501 0.330936 0.491607
Si Si3 0.664802 0.331147 0.218315
Si Si4 0.500000 0.456865 0.818467
Si Si5 0.691035 0.930422 0.315879
O O1 0.093066 0.653040 0.108548
O O2 0.000000 0.532758 0.118910
O O3 0.000000 0.606582 0.918878
O O4 0.500000 0.345576 0.533934
O O5 0.364124 0.250000 0.523563
O O6 0.387577 0.344982 0.346963
O O7 0.322706 0.382553 0.562947
O O8 0.700050 0.250000 0.205487
O O9 0.754106 0.384106 0.212577
O O10 0.408860 0.452992 0.734956
O O11 0.750000 0.000000 0.352742
#
# Coordination Sequence:
#
# PCOD8281090 Si02
#       5
#     8  16  16   8  16
#     4  11  23  47  70  91 128 177 227 277 321 396
#     4  10  21  40  68  97 138 180 211 267 339 403
#     4  11  23  43  69 101 135 176 222 270 336 401
#     4  11  26  47  66  93 129 173 226 277 338 380
#     4  12  24  43  67 100 136 177 220 276 332 404
#
# _framework density 21.974433000000001
#
# number of rings (size 3 to 8) (size 9 to 14) (size 15 to 20)
#    0.000    1.000    5.000    1.875    0.000    5.000 
#    0.000    8.750    0.000    0.000    0.000    0.000 
#    0.000    0.000    0.000    0.000    0.000    0.000 
#
# Total GULP energy -396948.700360 kJ/mol
# GULP energy per Si atom -12404.646886 kJ/mol
# Density = 2.192442 g / cm^3
# Si number density = 21.974433 Si / 1000 Ang^3
#
#
#
# Elastic Constant Matrix: (Units=GPa)
#
#
# Indices 1 2 3 4 5 6 
#
# 1 130.7968 50.7190 22.1546 0.0000 0.0000 0.0000
# 2 50.7190 129.2684 28.7841 0.0000 0.0000 0.0000
# 3 22.1546 28.7841 69.0769 0.0000 0.0000 0.0000
# 4 0.0000 0.0000 0.0000 34.5311 0.0000 0.0000
# 5 0.0000 0.0000 0.0000 0.0000 13.8679 0.0000
# 6 0.0000 0.0000 0.0000 0.0000 0.0000 35.2182
#
#
#
# Elastic Compliance Matrix: (Units=1/GPa)
#
#
# Indices 1 2 3 4 5 6 
#
# 1 0.009173 -0.003245 -0.001590 0.000000 0.000000 0.000000
# 2 -0.003245 0.009675 -0.002991 0.000000 0.000000 0.000000
# 3 -0.001590 -0.002991 0.016233 0.000000 0.000000 0.000000
# 4 0.000000 0.000000 0.000000 0.028959 0.000000 0.000000
# 5 0.000000 0.000000 0.000000 0.000000 0.072109 0.000000
# 6 0.000000 0.000000 0.000000 0.000000 0.000000 0.028394
#
#
# Mechanical properties :
#
#
# Convention : Reuss Voigt Hill
#
# Bulk Modulus (GPa) = 51.46809 59.16193 55.31501
# Shear Modulus (GPa) = 26.78501 31.88905 29.33703
#
# Velocity S-wave (km/s) = 3.49509 3.81358 3.65780
# Velocity P-wave (km/s) = 6.30557 6.80975 6.56250
#
# Compressibility (1/GPa) = 0.01942951
#
# Stress axis : x y z
#
# Youngs Moduli (GPa) = 109.01464 103.35892 61.60391
#
# Poissons Ratio (x) = 0.33541 0.09794
# Poissons Ratio (y) = 0.35376 0.18424
# Poissons Ratio (z) = 0.17331 0.30912
#
# Static dielectric constant tensor:
#      x y z
#    x 4.115550 0.000000 0.000000 
#    y 0.000000 4.134260 0.000000 
#    z 0.000000 0.000000 3.814990 
# 
# 
# High freq. dielectric constant tensor:
#      x y z
#    x 1.879300 0.000000 0.000000 
#    y 0.000000 1.875430 0.000000 
#    z 0.000000 0.000000 1.838840 
# 
# From -- ./inp_files/17553.got.cif
#   From: 2010.03.12/outbox.cif.g09.slc.cpg/sg67_9_cif.got.tgz:17553.got - 2010.04.10 22:41:39.
