data_PCOD8281024
_publ_section_title
;
Structure prediction by ZEFSAII (Michael W. Deem and Ramdas Pophale) SiO2 
 PCOD8281024
Probable space group: C M M A
;
_chemical_formula_sum "Si O2"
_cell_formula_units_Z 112
_cell_length_a 23.442224
_cell_length_b 19.117790
_cell_length_c 12.223852
_cell_angle_alpha 90.000000
_cell_angle_beta 90.000000
_cell_angle_gamma 90.000000
_cell_volume 5478.284486
_symmetry_space_group_name_H-M "C M M A"
_symmetry_group_IT_number 67
_symmetry_cell_setting 'orthorhombic'
loop_
_space_group_symop_operation_xyz
x,y,z
-x,1/2-y,z
x,-y,-z
-x,1/2+y,-z
-x,-y,-z
x,1/2+y,-z
-x,y,z
x,1/2-y,z
1/2+x,1/2+y,z
1/2-x,-y,z
1/2+x,1/2-y,-z
1/2-x,y,-z
1/2-x,1/2-y,-z
1/2+x,y,-z
1/2-x,1/2+y,z
1/2+x,-y,z
loop_
_atom_site_type_symbol
_atom_site_label
_atom_site_fract_x
_atom_site_fract_y
_atom_site_fract_z
Si Si1 0.565377 0.829524 0.102333
Si Si2 0.365344 0.826178 0.659714
Si Si3 0.832335 0.965450 0.110957
Si Si4 0.434484 0.881413 0.862683
Si Si5 0.727729 0.173118 0.172925
Si Si6 0.162871 0.900392 0.766204
Si Si7 0.815778 0.581783 0.518196
O O1 0.500000 0.848539 0.129114
O O2 0.579272 0.750000 0.136658
O O3 0.603216 0.883151 0.174094
O O4 0.575623 0.835308 0.971574
O O5 0.381386 0.750000 0.611234
O O6 0.411139 0.843303 0.754150
O O7 0.301836 0.823997 0.709204
O O8 0.361377 0.882600 0.563570
O O9 0.900338 0.953877 0.120698
O O10 0.802194 0.889854 0.107775
O O11 0.815332 0.020224 0.206329
O O12 0.813206 0.000000 0.000000
O O13 0.500000 0.899920 0.843467
O O14 0.721287 0.250000 0.115031
O O15 0.793952 0.157062 0.186911
O O16 0.160813 0.895356 0.636175
O O17 0.821078 0.500000 0.500000
O O18 0.750000 0.605857 0.500000
#
# Coordination Sequence:
#
# PCOD8281024 Si02
#       7
#    16  16  16  16  16  16  16
#     4  10  22  41  65  95 131 169 212 265 326 393
#     4  10  21  39  62  94 126 161 216 272 315 371
#     4  11  23  41  60  95 133 169 209 268 322 387
#     4  10  21  41  67  93 124 167 217 265 320 381
#     4  10  22  39  60  88 126 168 213 263 318 380
#     4  12  23  40  65  93 129 173 219 259 330 393
#     4  11  23  40  64  90 126 174 218 261 319 388
#
# _framework density 20.444357
#
# number of rings (size 3 to 8) (size 9 to 14) (size 15 to 20)
#    0.000    1.429    2.857    3.000    2.000    4.857 
#    0.000    1.429    0.000    1.714    0.000    0.000 
#    0.000    0.000    0.000    0.000    0.000    0.000 
#
# Total GULP energy -694035.622036 kJ/mol
# GULP energy per Si atom -12393.493251 kJ/mol
# Density = 2.039782 g / cm^3
# Si number density = 20.444357 Si / 1000 Ang^3
#
#
#
# Elastic Constant Matrix: (Units=GPa)
#
#
# Indices 1 2 3 4 5 6 
#
# 1 106.6325 41.8156 50.3209 0.0000 0.0000 0.0000
# 2 41.8156 138.2515 55.9448 0.0000 0.0000 0.0000
# 3 50.3209 55.9448 132.6739 0.0000 0.0000 0.0000
# 4 0.0000 0.0000 0.0000 29.6369 0.0000 0.0000
# 5 0.0000 0.0000 0.0000 0.0000 25.3933 0.0000
# 6 0.0000 0.0000 0.0000 0.0000 0.0000 23.4811
#
#
#
# Elastic Compliance Matrix: (Units=1/GPa)
#
#
# Indices 1 2 3 4 5 6 
#
# 1 0.011927 -0.002142 -0.003620 0.000000 0.000000 0.000000
# 2 -0.002142 0.009106 -0.003027 0.000000 0.000000 0.000000
# 3 -0.003620 -0.003027 0.010187 0.000000 0.000000 0.000000
# 4 0.000000 0.000000 0.000000 0.033742 0.000000 0.000000
# 5 0.000000 0.000000 0.000000 0.000000 0.039380 0.000000
# 6 0.000000 0.000000 0.000000 0.000000 0.000000 0.042587
#
#
# Mechanical properties :
#
#
# Convention : Reuss Voigt Hill
#
# Bulk Modulus (GPa) = 73.31375 74.85781 74.08578
# Shear Modulus (GPa) = 29.57612 31.00071 30.28842
#
# Velocity S-wave (km/s) = 3.80763 3.89825 3.85321
# Velocity P-wave (km/s) = 7.43429 7.54697 7.49084
#
# Compressibility (1/GPa) = 0.01364001
#
# Stress axis : x y z
#
# Youngs Moduli (GPa) = 83.84681 109.81545 98.16586
#
# Poissons Ratio (x) = 0.23527 0.35537
# Poissons Ratio (y) = 0.17963 0.29717
# Poissons Ratio (z) = 0.30354 0.33244
#
# Static dielectric constant tensor:
#      x y z
#    x 3.723870 0.000000 0.000000 
#    y 0.000000 4.023010 0.000000 
#    z 0.000000 0.000000 3.541350 
# 
# 
# High freq. dielectric constant tensor:
#      x y z
#    x 1.788850 0.000000 0.000000 
#    y 0.000000 1.811190 0.000000 
#    z 0.000000 0.000000 1.784890 
# 
# From -- ./inp_files/22164.got.cif
#   From: 2010.03.12/outbox.cif.g09.slc.cpg/sg67_12_cif.got.tgz:22164.got - 2010.04.10 22:41:39.
