data_PCOD8281545
_publ_section_title
;
Structure prediction by ZEFSAII (Michael W. Deem and Ramdas Pophale) SiO2 
 PCOD8281545
Probable space group: C M M A
;
_chemical_formula_sum "Si O2"
_cell_formula_units_Z 48
_cell_length_a 29.088242
_cell_length_b 14.761307
_cell_length_c 4.939605
_cell_angle_alpha 90.000000
_cell_angle_beta 90.000000
_cell_angle_gamma 90.000000
_cell_volume 2120.969918
_symmetry_space_group_name_H-M "C M M A"
_symmetry_group_IT_number 67
_symmetry_cell_setting 'orthorhombic'
loop_
_space_group_symop_operation_xyz
x,y,z
-x,1/2-y,z
x,-y,-z
-x,1/2+y,-z
-x,-y,-z
x,1/2+y,-z
-x,y,z
x,1/2-y,z
1/2+x,1/2+y,z
1/2-x,-y,z
1/2+x,1/2-y,-z
1/2-x,y,-z
1/2-x,1/2-y,-z
1/2+x,y,-z
1/2-x,1/2+y,z
1/2+x,-y,z
loop_
_atom_site_type_symbol
_atom_site_label
_atom_site_fract_x
_atom_site_fract_y
_atom_site_fract_z
Si Si1 0.500000 0.435519 0.745698
Si Si2 0.647451 0.401897 0.101873
Si Si3 0.093513 0.148911 0.407344
Si Si4 0.216908 0.250000 0.753033
O O1 0.500000 0.500000 0.500000
O O2 0.545154 0.374389 0.730230
O O3 0.500000 0.500000 0.000000
O O4 0.607926 0.414670 0.335498
O O5 0.686790 0.341803 0.243213
O O6 0.665180 0.500000 0.000000
O O7 0.630084 0.351428 0.834962
O O8 0.091454 0.250000 0.528255
O O9 0.250000 0.250000 0.500000
O O10 0.250000 0.250000 0.000000
#
# Coordination Sequence:
#
# PCOD8281545 Si02
#       4
#     8  16  16   8
#     4  12  25  40  63 102 145 188 245 291 336 407
#     4  12  25  46  74 104 142 190 238 291 361 430
#     4  12  23  44  69 102 144 194 241 291 349 418
#     4  12  26  48  76 105 144 179 234 306 364 438
#
# _framework density 22.631155
#
# number of rings (size 3 to 8) (size 9 to 14) (size 15 to 20)
#    0.000    0.000    3.333    8.500    0.000    0.667 
#    0.000    6.667    0.000    0.000    0.000    0.000 
#    0.000    0.000    0.000    0.000    0.000    0.000 
#
# Total GULP energy -297596.503620 kJ/mol
# GULP energy per Si atom -12399.854318 kJ/mol
# Density = 2.257965 g / cm^3
# Si number density = 22.631155 Si / 1000 Ang^3
#
#
#
# Elastic Constant Matrix: (Units=GPa)
#
#
# Indices 1 2 3 4 5 6 
#
# 1 116.7117 64.1074 45.7552 0.0000 0.0000 0.0000
# 2 64.1074 154.0364 48.0566 0.0000 0.0000 0.0000
# 3 45.7552 48.0566 162.1458 0.0000 0.0000 0.0000
# 4 0.0000 0.0000 0.0000 39.8085 0.0000 0.0000
# 5 0.0000 0.0000 0.0000 0.0000 47.6747 0.0000
# 6 0.0000 0.0000 0.0000 0.0000 0.0000 26.1123
#
#
#
# Elastic Compliance Matrix: (Units=1/GPa)
#
#
# Indices 1 2 3 4 5 6 
#
# 1 0.011693 -0.004228 -0.002046 0.000000 0.000000 0.000000
# 2 -0.004228 0.008682 -0.001380 0.000000 0.000000 0.000000
# 3 -0.002046 -0.001380 0.007154 0.000000 0.000000 0.000000
# 4 0.000000 0.000000 0.000000 0.025120 0.000000 0.000000
# 5 0.000000 0.000000 0.000000 0.000000 0.020975 0.000000
# 6 0.000000 0.000000 0.000000 0.000000 0.000000 0.038296
#
#
# Mechanical properties :
#
#
# Convention : Reuss Voigt Hill
#
# Bulk Modulus (GPa) = 81.83512 83.19245 82.51379
# Shear Modulus (GPa) = 38.07998 41.05076 39.56537
#
# Velocity S-wave (km/s) = 4.10644 4.26362 4.18577
# Velocity P-wave (km/s) = 7.66308 7.81523 7.73953
#
# Compressibility (1/GPa) = 0.01221969
#
# Stress axis : x y z
#
# Youngs Moduli (GPa) = 85.52361 115.17934 139.78541
#
# Poissons Ratio (x) = 0.48696 0.28607
# Poissons Ratio (y) = 0.36158 0.19293
# Poissons Ratio (z) = 0.17502 0.15897
#
# Static dielectric constant tensor:
#      x y z
#    x 4.046990 0.000000 0.000000 
#    y 0.000000 4.018880 0.000000 
#    z 0.000000 0.000000 4.196510 
# 
# 
# High freq. dielectric constant tensor:
#      x y z
#    x 1.885510 0.000000 0.000000 
#    y 0.000000 1.900880 0.000000 
#    z 0.000000 0.000000 1.917850 
# 
# From -- ./inp_files/3821.got.cif
#   From: 2010.03.12/outbox.cif.g09.slc.cpg/sg67_2_cif.got.tgz:3821.got - 2010.04.10 22:41:39.
