data_PCOD8281519
_publ_section_title
;
Structure prediction by ZEFSAII (Michael W. Deem and Ramdas Pophale) SiO2 
 PCOD8281519
Probable space group: C M M A
;
_chemical_formula_sum "Si O2"
_cell_formula_units_Z 88
_cell_length_a 9.346726
_cell_length_b 20.431565
_cell_length_c 24.840616
_cell_angle_alpha 90.000000
_cell_angle_beta 90.000000
_cell_angle_gamma 90.000000
_cell_volume 4743.768713
_symmetry_space_group_name_H-M "C M M A"
_symmetry_group_IT_number 67
_symmetry_cell_setting 'orthorhombic'
loop_
_space_group_symop_operation_xyz
x,y,z
-x,1/2-y,z
x,-y,-z
-x,1/2+y,-z
-x,-y,-z
x,1/2+y,-z
-x,y,z
x,1/2-y,z
1/2+x,1/2+y,z
1/2-x,-y,z
1/2+x,1/2-y,-z
1/2-x,y,-z
1/2-x,1/2-y,-z
1/2+x,y,-z
1/2-x,1/2+y,z
1/2+x,-y,z
loop_
_atom_site_type_symbol
_atom_site_label
_atom_site_fract_x
_atom_site_fract_y
_atom_site_fract_z
Si Si1 0.667767 0.325907 0.228787
Si Si2 0.157795 0.827368 0.350447
Si Si3 0.660686 0.671906 0.449108
Si Si4 0.662913 0.750000 0.053015
Si Si5 0.831632 0.437008 0.167969
Si Si6 0.836200 0.108567 0.054219
O O1 0.500000 0.338593 0.217785
O O2 0.705139 0.250000 0.216967
O O3 0.707604 0.344767 0.290189
O O4 0.765398 0.370835 0.191534
O O5 0.148217 0.750000 0.356516
O O6 0.268409 0.855851 0.394242
O O7 0.000000 0.856931 0.361718
O O8 0.500000 0.644235 0.452856
O O9 0.659232 0.750000 0.448813
O O10 0.750000 0.645618 0.500000
O O11 0.500000 0.750000 0.035701
O O12 0.699770 0.819381 0.081043
O O13 0.750000 0.750000 0.000000
O O14 0.750000 0.500000 0.192611
O O15 0.805074 0.440005 0.103421
O O16 0.000000 0.439821 0.181792
O O17 0.000000 0.104720 0.035919
O O18 0.750000 0.090935 0.000000
#
# Coordination Sequence:
#
# PCOD8281519 Si02
#       6
#    16  16  16   8  16  16
#     4   9  19  36  57  80 105 136 175 219 267 318
#     4   8  14  26  43  63  91 126 164 207 254 304
#     4   9  15  21  32  54  87 127 168 207 250 301
#     4   8  14  28  48  72 100 124 156 196 239 290
#     4  11  24  39  56  78 107 140 174 217 263 313
#     4   9  19  34  54  77 102 133 166 206 254 308
#
# _framework density 18.550650999999998
#
# number of rings (size 3 to 8) (size 9 to 14) (size 15 to 20)
#    0.000    2.909    0.000    2.182    1.273    5.091 
#    0.000    3.636    0.000    0.000    0.000    0.000 
#    0.000    0.727    0.000    7.636    0.000   10.545 
#
# Total GULP energy -545096.243916 kJ/mol
# GULP energy per Si atom -12388.550998 kJ/mol
# Density = 1.850843 g / cm^3
# Si number density = 18.550651 Si / 1000 Ang^3
#
#
#
# Elastic Constant Matrix: (Units=GPa)
#
#
# Indices 1 2 3 4 5 6 
#
# 1 119.0252 43.1523 64.0686 0.0000 0.0000 0.0000
# 2 43.1523 56.8138 26.3830 0.0000 0.0000 0.0000
# 3 64.0686 26.3830 96.8223 0.0000 0.0000 0.0000
# 4 0.0000 0.0000 0.0000 5.0521 0.0000 0.0000
# 5 0.0000 0.0000 0.0000 0.0000 33.6066 0.0000
# 6 0.0000 0.0000 0.0000 0.0000 0.0000 18.1820
#
#
#
# Elastic Compliance Matrix: (Units=1/GPa)
#
#
# Indices 1 2 3 4 5 6 
#
# 1 0.015791 -0.008176 -0.008221 0.000000 0.000000 0.000000
# 2 -0.008176 0.024385 -0.001234 0.000000 0.000000 0.000000
# 3 -0.008221 -0.001234 0.016105 0.000000 0.000000 0.000000
# 4 0.000000 0.000000 0.000000 0.197936 0.000000 0.000000
# 5 0.000000 0.000000 0.000000 0.000000 0.029756 0.000000
# 6 0.000000 0.000000 0.000000 0.000000 0.000000 0.055000
#
#
# Mechanical properties :
#
#
# Convention : Reuss Voigt Hill
#
# Bulk Modulus (GPa) = 47.58057 59.98545 53.78301
# Shear Modulus (GPa) = 13.11504 20.63864 16.87684
#
# Velocity S-wave (km/s) = 2.66180 3.33912 3.01951
# Velocity P-wave (km/s) = 5.92888 6.87550 6.41966
#
# Compressibility (1/GPa) = 0.02101698
#
# Stress axis : x y z
#
# Youngs Moduli (GPa) = 63.32635 41.00935 62.09385
#
# Poissons Ratio (x) = 0.33530 0.51049
# Poissons Ratio (y) = 0.51777 0.07664
# Poissons Ratio (z) = 0.52063 0.05061
#
# Static dielectric constant tensor:
#      x y z
#    x 3.531420 0.000000 0.000000 
#    y 0.000000 2.952380 0.000000 
#    z 0.000000 0.000000 3.390470 
# 
# 
# High freq. dielectric constant tensor:
#      x y z
#    x 1.725660 0.000000 0.000000 
#    y 0.000000 1.672900 0.000000 
#    z 0.000000 0.000000 1.714430 
# 
# From -- ./inp_files/40673.got.cif
#   From: 2010.03.12/outbox.cif.g09.slc.cpg/sg67_21_cif.got.tgz:40673.got - 2010.04.10 22:41:39.
