data_PCOD8281279
_publ_section_title
;
Structure prediction by ZEFSAII (Michael W. Deem and Ramdas Pophale) SiO2 
 PCOD8281279
Probable space group: C M M A
;
_chemical_formula_sum "Si O2"
_cell_formula_units_Z 112
_cell_length_a 15.479977
_cell_length_b 22.060887
_cell_length_c 16.119607
_cell_angle_alpha 90.000000
_cell_angle_beta 90.000000
_cell_angle_gamma 90.000000
_cell_volume 5504.878406
_symmetry_space_group_name_H-M "C M M A"
_symmetry_group_IT_number 67
_symmetry_cell_setting 'orthorhombic'
loop_
_space_group_symop_operation_xyz
x,y,z
-x,1/2-y,z
x,-y,-z
-x,1/2+y,-z
-x,-y,-z
x,1/2+y,-z
-x,y,z
x,1/2-y,z
1/2+x,1/2+y,z
1/2-x,-y,z
1/2+x,1/2-y,-z
1/2-x,y,-z
1/2-x,1/2-y,-z
1/2+x,y,-z
1/2-x,1/2+y,z
1/2+x,-y,z
loop_
_atom_site_type_symbol
_atom_site_label
_atom_site_fract_x
_atom_site_fract_y
_atom_site_fract_z
Si Si1 0.402075 0.944716 0.447504
Si Si2 0.149288 0.488700 0.271463
Si Si3 0.758929 0.319145 0.253029
Si Si4 0.851941 0.068790 0.989515
Si Si5 0.678243 0.817665 0.433091
Si Si6 0.903280 0.392130 0.807143
Si Si7 0.598730 0.116814 0.842944
O O1 0.500000 0.946049 0.475146
O O2 0.391604 0.957026 0.350720
O O3 0.375055 0.875233 0.467925
O O4 0.355297 0.000000 0.500000
O O5 0.250000 0.500000 0.285372
O O6 0.098319 0.549682 0.252295
O O7 0.136970 0.445507 0.192814
O O8 0.736938 0.250000 0.253354
O O9 0.784068 0.340673 0.345243
O O10 0.669149 0.347523 0.225472
O O11 0.838911 0.330512 0.190725
O O12 0.882120 0.091770 0.901139
O O13 0.750000 0.074032 0.000000
O O14 0.897078 0.111731 0.057743
O O15 0.883905 0.000000 0.000000
O O16 0.631492 0.750000 0.422740
O O17 0.750000 0.805514 0.500000
O O18 0.000000 0.364042 0.801392
O O19 0.500000 0.129402 0.814790
#
# Coordination Sequence:
#
# PCOD8281279 Si02
#       7
#    16  16  16  16  16  16  16
#     4  11  25  39  60  98 134 166 209 269 332 387
#     4  12  22  39  62  93 131 168 207 260 325 390
#     4  11  25  46  67  91 125 170 222 270 316 377
#     4  11  21  37  61  94 132 169 209 260 324 390
#     4  10  23  44  68  92 124 172 222 263 318 390
#     4  12  24  40  64  95 130 171 215 264 326 389
#     4  12  23  39  64  96 130 163 212 270 322 381
#
# _framework density 20.345590999999999
#
# number of rings (size 3 to 8) (size 9 to 14) (size 15 to 20)
#    0.000    0.714    5.714    1.714    4.000    1.429 
#    0.000    2.857    0.000    4.286    0.000    0.000 
#    0.000    0.000    0.000    0.000    0.000    0.000 
#
# Total GULP energy -694126.146451 kJ/mol
# GULP energy per Si atom -12395.109758 kJ/mol
# Density = 2.029928 g / cm^3
# Si number density = 20.345591 Si / 1000 Ang^3
#
#
#
# Elastic Constant Matrix: (Units=GPa)
#
#
# Indices 1 2 3 4 5 6 
#
# 1 98.0467 28.9557 16.4048 0.0000 0.0000 0.0000
# 2 28.9557 93.5058 34.2391 0.0000 0.0000 0.0000
# 3 16.4048 34.2391 81.3438 0.0000 0.0000 0.0000
# 4 0.0000 0.0000 0.0000 38.7793 0.0000 0.0000
# 5 0.0000 0.0000 0.0000 0.0000 24.3856 0.0000
# 6 0.0000 0.0000 0.0000 0.0000 0.0000 15.3218
#
#
#
# Elastic Compliance Matrix: (Units=1/GPa)
#
#
# Indices 1 2 3 4 5 6 
#
# 1 0.011288 -0.003147 -0.000952 0.000000 0.000000 0.000000
# 2 -0.003147 0.013521 -0.005056 0.000000 0.000000 0.000000
# 3 -0.000952 -0.005056 0.014614 0.000000 0.000000 0.000000
# 4 0.000000 0.000000 0.000000 0.025787 0.000000 0.000000
# 5 0.000000 0.000000 0.000000 0.000000 0.041008 0.000000
# 6 0.000000 0.000000 0.000000 0.000000 0.000000 0.065266
#
#
# Mechanical properties :
#
#
# Convention : Reuss Voigt Hill
#
# Bulk Modulus (GPa) = 47.36681 48.01060 47.68871
# Shear Modulus (GPa) = 25.40250 28.58380 26.99315
#
# Velocity S-wave (km/s) = 3.53732 3.75228 3.64638
# Velocity P-wave (km/s) = 6.32575 6.51319 6.42015
#
# Compressibility (1/GPa) = 0.02111183
#
# Stress axis : x y z
#
# Youngs Moduli (GPa) = 88.59078 73.96164 68.42856
#
# Poissons Ratio (x) = 0.23275 0.06513
# Poissons Ratio (y) = 0.27879 0.34600
# Poissons Ratio (z) = 0.08432 0.37398
#
# Static dielectric constant tensor:
#      x y z
#    x 3.741260 0.000000 0.000000 
#    y 0.000000 3.794450 0.000000 
#    z 0.000000 0.000000 3.861510 
# 
# 
# High freq. dielectric constant tensor:
#      x y z
#    x 1.792420 0.000000 0.000000 
#    y 0.000000 1.789380 0.000000 
#    z 0.000000 0.000000 1.805810 
# 
# From -- ./inp_files/27555.got.cif
#   From: 2010.03.12/outbox.cif.g09.slc.cpg/sg67_14_cif.got.tgz:27555.got - 2010.04.10 22:41:39.
