data_PCOD8281531
_publ_section_title
;
Structure prediction by ZEFSAII (Michael W. Deem and Ramdas Pophale) SiO2 
 PCOD8281531
Probable space group: C M M A
;
_chemical_formula_sum "Si O2"
_cell_formula_units_Z 88
_cell_length_a 13.969467
_cell_length_b 23.206362
_cell_length_c 11.021347
_cell_angle_alpha 90.000000
_cell_angle_beta 90.000000
_cell_angle_gamma 90.000000
_cell_volume 3572.905871
_symmetry_space_group_name_H-M "C M M A"
_symmetry_group_IT_number 67
_symmetry_cell_setting 'orthorhombic'
loop_
_space_group_symop_operation_xyz
x,y,z
-x,1/2-y,z
x,-y,-z
-x,1/2+y,-z
-x,-y,-z
x,1/2+y,-z
-x,y,z
x,1/2-y,z
1/2+x,1/2+y,z
1/2-x,-y,z
1/2+x,1/2-y,-z
1/2-x,y,-z
1/2-x,1/2-y,-z
1/2+x,y,-z
1/2-x,1/2+y,z
1/2+x,-y,z
loop_
_atom_site_type_symbol
_atom_site_label
_atom_site_fract_x
_atom_site_fract_y
_atom_site_fract_z
Si Si1 0.777622 0.438173 0.156544
Si Si2 0.854622 0.841415 0.528869
Si Si3 0.182807 0.750000 0.727631
Si Si4 0.860803 0.250000 0.007764
Si Si5 0.107182 0.121822 0.946118
Si Si6 0.603862 0.750000 0.667820
Si Si7 0.603949 0.458760 0.604922
O O1 0.750000 0.500000 0.098839
O O2 0.853656 0.404184 0.072949
O O3 0.819280 0.450739 0.288622
O O4 0.679972 0.399125 0.160529
O O5 0.750000 0.864833 0.500000
O O6 0.848067 0.805635 0.653060
O O7 0.896235 0.805313 0.418312
O O8 0.919938 0.896595 0.548364
O O9 0.118670 0.750000 0.848164
O O10 0.300285 0.750000 0.752436
O O11 0.901060 0.308475 0.947690
O O12 0.750000 0.250000 0.000000
O O13 0.000000 0.097930 0.922020
O O14 0.500000 0.750000 0.738350
O O15 0.646286 0.500000 0.500000
O O16 0.500000 0.482666 0.650849
#
# Coordination Sequence:
#
# PCOD8281531 Si02
#       7
#    16  16   8   8  16   8  16
#     4  11  25  43  72 102 139 194 236 298 367 427
#     4   9  19  35  64  91 128 177 227 278 344 416
#     4   9  20  36  61  97 126 180 226 271 350 423
#     4  12  22  42  71 101 145 181 231 290 369 437
#     4  11  24  46  75 106 140 183 241 304 367 443
#     4   9  17  36  61  91 126 165 222 281 334 415
#     4  11  25  43  66 101 140 184 239 297 354 425
#
# _framework density 24.629811
#
# number of rings (size 3 to 8) (size 9 to 14) (size 15 to 20)
#    0.000    1.636    1.818    4.636    2.545    2.182 
#    0.000    5.455    0.000    0.545    0.000    0.000 
#    0.000    0.000    0.000    0.000    0.000    0.000 
#
# Total GULP energy -545167.458683 kJ/mol
# GULP energy per Si atom -12390.169516 kJ/mol
# Density = 2.457375 g / cm^3
# Si number density = 24.629811 Si / 1000 Ang^3
#
#
#
# Elastic Constant Matrix: (Units=GPa)
#
#
# Indices 1 2 3 4 5 6 
#
# 1 174.0075 36.5914 50.2758 0.0000 0.0000 0.0000
# 2 36.5914 161.5963 40.7312 0.0000 0.0000 0.0000
# 3 50.2758 40.7312 107.4641 0.0000 0.0000 0.0000
# 4 0.0000 0.0000 0.0000 31.1746 0.0000 0.0000
# 5 0.0000 0.0000 0.0000 0.0000 17.1147 0.0000
# 6 0.0000 0.0000 0.0000 0.0000 0.0000 38.5761
#
#
#
# Elastic Compliance Matrix: (Units=1/GPa)
#
#
# Indices 1 2 3 4 5 6 
#
# 1 0.006739 -0.000809 -0.002846 0.000000 0.000000 0.000000
# 2 -0.000809 0.006939 -0.002252 0.000000 0.000000 0.000000
# 3 -0.002846 -0.002252 0.011491 0.000000 0.000000 0.000000
# 4 0.000000 0.000000 0.000000 0.032077 0.000000 0.000000
# 5 0.000000 0.000000 0.000000 0.000000 0.058429 0.000000
# 6 0.000000 0.000000 0.000000 0.000000 0.000000 0.025923
#
#
# Mechanical properties :
#
#
# Convention : Reuss Voigt Hill
#
# Bulk Modulus (GPa) = 74.87653 77.58500 76.23076
# Shear Modulus (GPa) = 31.67296 38.40439 35.03867
#
# Velocity S-wave (km/s) = 3.58992 3.95304 3.77585
# Velocity P-wave (km/s) = 6.90291 7.23907 7.07299
#
# Compressibility (1/GPa) = 0.01335532
#
# Stress axis : x y z
#
# Youngs Moduli (GPa) = 148.38265 144.11493 87.02800
#
# Poissons Ratio (x) = 0.11653 0.24772
# Poissons Ratio (y) = 0.11998 0.19596
# Poissons Ratio (z) = 0.42236 0.32451
#
# Static dielectric constant tensor:
#      x y z
#    x 4.395120 0.000000 0.000000 
#    y 0.000000 5.178220 0.000000 
#    z 0.000000 0.000000 4.659480 
# 
# 
# High freq. dielectric constant tensor:
#      x y z
#    x 1.987610 0.000000 0.000000 
#    y 0.000000 1.988420 0.000000 
#    z 0.000000 0.000000 1.965700 
# 
# From -- ./inp_files/18140.got.cif
#   From: 2010.03.12/outbox.cif.g09.slc.cpg/sg67_10_cif.got.tgz:18140.got - 2010.04.10 22:41:39.
