data_PCOD8281774
_publ_section_title
;
Structure prediction by ZEFSAII (Michael W. Deem and Ramdas Pophale) SiO2 
 PCOD8281774
Probable space group: C C C A
;
_chemical_formula_sum "Si O2"
_cell_formula_units_Z 104
_cell_length_a 21.662624
_cell_length_b 17.041303
_cell_length_c 14.096188
_cell_angle_alpha 90.000000
_cell_angle_beta 90.000000
_cell_angle_gamma 90.000000
_cell_volume 5203.739450
_symmetry_space_group_name_H-M "C C C A"
_symmetry_group_IT_number 68
_space_group.IT_coordinate_system_code '2'
_symmetry_cell_setting 'orthorhombic'
loop_
_space_group_symop_operation_xyz
x,y,z
-x,1/2-y,z
x,1/2-y,1/2-z
-x,y,1/2-z
-x,-y,-z
x,1/2+y,-z
-x,1/2+y,1/2+z
x,-y,1/2+z
1/2+x,1/2+y,z
1/2-x,-y,z
1/2+x,-y,1/2-z
1/2-x,1/2+y,1/2-z
1/2-x,1/2-y,-z
1/2+x,y,-z
1/2-x,y,1/2+z
1/2+x,1/2-y,1/2+z
loop_
_atom_site_type_symbol
_atom_site_label
_atom_site_fract_x
_atom_site_fract_y
_atom_site_fract_z
Si Si1 0.799604 0.435660 0.834653
Si Si2 0.725952 0.087763 0.960716
Si Si3 0.924680 0.061680 0.596016
Si Si4 0.500000 0.519897 0.250000
Si Si5 0.839451 0.127946 0.855960
Si Si6 0.600057 0.460361 0.610050
Si Si7 0.067268 0.761707 0.360704
O O1 0.750000 0.500000 0.796364
O O2 0.861620 0.482122 0.869730
O O3 0.817313 0.372203 0.754014
O O4 0.775634 0.390036 0.927914
O O5 0.777190 0.142922 0.914867
O O6 0.659575 0.096269 0.906803
O O7 0.750000 0.000000 0.948087
O O8 0.940075 0.041271 0.486961
O O9 0.909286 0.153331 0.608888
O O10 0.980241 0.036152 0.663472
O O11 0.443355 0.568350 0.299952
O O12 0.883283 0.197134 0.892545
O O13 0.876671 0.047805 0.871042
O O14 0.059609 0.750000 0.250000
O O15 0.000000 0.750000 0.409459
#
# Coordination Sequence:
#
# PCOD8281774 Si02
#       7
#    16  16  16   8  16  16  16
#     4  10  18  33  56  80 115 153 192 248 293 351
#     4   8  18  32  51  82 115 149 197 244 296 348
#     4  11  22  36  56  88 125 148 203 253 306 361
#     4  12  20  34  55  86 119 164 200 250 306 368
#     4  11  19  35  61  84 116 159 202 241 315 360
#     4  10  20  35  54  86 119 152 203 258 295 360
#     4  11  21  36  58  87 122 159 192 241 308 368
#
# _framework density 19.985627000000001
#
# number of rings (size 3 to 8) (size 9 to 14) (size 15 to 20)
#    0.000    1.692    3.077    4.615    0.000    0.000 
#    0.000    3.077    0.000    0.000    0.000    4.846 
#    0.000    0.000    0.000    0.000    0.000    0.000 
#
# Total GULP energy -644194.634816 kJ/mol
# GULP energy per Si atom -12388.358362 kJ/mol
# Density = 1.994014 g / cm^3
# Si number density = 19.985627 Si / 1000 Ang^3
#
#
#
# Elastic Constant Matrix: (Units=GPa)
#
#
# Indices 1 2 3 4 5 6 
#
# 1 131.3984 30.5821 60.4472 0.0000 0.0000 0.0000
# 2 30.5821 45.8207 21.2823 0.0000 0.0000 0.0000
# 3 60.4472 21.2823 135.2260 0.0000 0.0000 0.0000
# 4 0.0000 0.0000 0.0000 8.5049 0.0000 0.0000
# 5 0.0000 0.0000 0.0000 0.0000 46.5931 0.0000
# 6 0.0000 0.0000 0.0000 0.0000 0.0000 37.8085
#
#
#
# Elastic Compliance Matrix: (Units=1/GPa)
#
#
# Indices 1 2 3 4 5 6 
#
# 1 0.010647 -0.005281 -0.003928 0.000000 0.000000 0.000000
# 2 -0.005281 0.026165 -0.001757 0.000000 0.000000 0.000000
# 3 -0.003928 -0.001757 0.009427 0.000000 0.000000 0.000000
# 4 0.000000 0.000000 0.000000 0.117580 0.000000 0.000000
# 5 0.000000 0.000000 0.000000 0.000000 0.021462 0.000000
# 6 0.000000 0.000000 0.000000 0.000000 0.000000 0.026449
#
#
# Mechanical properties :
#
#
# Convention : Reuss Voigt Hill
#
# Bulk Modulus (GPa) = 41.14154 59.67425 50.40789
# Shear Modulus (GPa) = 20.68118 31.92354 26.30236
#
# Velocity S-wave (km/s) = 3.22032 4.00099 3.63170
# Velocity P-wave (km/s) = 5.87006 7.16012 6.54694
#
# Compressibility (1/GPa) = 0.02430633
#
# Stress axis : x y z
#
# Youngs Moduli (GPa) = 93.92640 38.21848 106.07399
#
# Poissons Ratio (x) = 0.20185 0.41665
# Poissons Ratio (y) = 0.49607 0.18638
# Poissons Ratio (z) = 0.36894 0.06715
#
# Static dielectric constant tensor:
#      x y z
#    x 4.293510 0.000000 0.000000 
#    y 0.000000 3.092380 0.000000 
#    z 0.000000 0.000000 3.619490 
# 
# 
# High freq. dielectric constant tensor:
#      x y z
#    x 1.810930 0.000000 0.000000 
#    y 0.000000 1.705000 0.000000 
#    z 0.000000 0.000000 1.782280 
# 
# From -- ./inp_files/24658.got.cif
#   From: 2010.03.12/outbox.cif.g09.slc.cpg/sg68_13_cif.got.tgz:24658.got - 2010.04.10 23:14:56.
