data_PCOD8281431
_publ_section_title
;
Structure prediction by ZEFSAII (Michael W. Deem and Ramdas Pophale) SiO2 
 PCOD8281431
Probable space group: C M M A
;
_chemical_formula_sum "Si O2"
_cell_formula_units_Z 80
_cell_length_a 8.701507
_cell_length_b 15.723808
_cell_length_c 29.438819
_cell_angle_alpha 90.000000
_cell_angle_beta 90.000000
_cell_angle_gamma 90.000000
_cell_volume 4027.843514
_symmetry_space_group_name_H-M "C M M A"
_symmetry_group_IT_number 67
_symmetry_cell_setting 'orthorhombic'
loop_
_space_group_symop_operation_xyz
x,y,z
-x,1/2-y,z
x,-y,-z
-x,1/2+y,-z
-x,-y,-z
x,1/2+y,-z
-x,y,z
x,1/2-y,z
1/2+x,1/2+y,z
1/2-x,-y,z
1/2+x,1/2-y,-z
1/2-x,y,-z
1/2-x,1/2-y,-z
1/2+x,y,-z
1/2-x,1/2+y,z
1/2+x,-y,z
loop_
_atom_site_type_symbol
_atom_site_label
_atom_site_fract_x
_atom_site_fract_y
_atom_site_fract_z
Si Si1 0.333687 0.652585 0.957270
Si Si2 0.317949 0.409966 0.135445
Si Si3 0.815809 0.910069 0.549788
Si Si4 0.818930 0.250000 0.706783
Si Si5 0.682636 0.250000 0.398198
Si Si6 0.682621 0.591762 0.763850
O O1 0.500000 0.608066 0.954073
O O2 0.352207 0.750000 0.969981
O O3 0.255601 0.646098 0.907093
O O4 0.250000 0.607314 0.000000
O O5 0.500000 0.411022 0.137265
O O6 0.250000 0.500000 0.123951
O O7 0.261516 0.380251 0.185395
O O8 0.750000 0.892331 0.500000
O O9 0.757957 0.834379 0.581418
O O10 0.000000 0.913074 0.548510
O O11 0.750000 0.000000 0.568354
O O12 0.772964 0.250000 0.654440
O O13 0.752389 0.335638 0.730117
O O14 0.000000 0.250000 0.713874
O O15 0.500000 0.250000 0.406756
O O16 0.500000 0.584355 0.760737
O O17 0.750000 0.500000 0.749976
#
# Coordination Sequence:
#
# PCOD8281431 Si02
#       6
#    16  16  16   8   8  16
#     4   9  18  31  46  67  93 124 159 197 243 299
#     4   9  18  31  50  72  95 123 161 205 253 307
#     4  11  22  39  62  90 121 159 201 243 290 339
#     4   9  20  36  58  83 108 145 189 227 276 331
#     4  11  22  38  57  85 122 157 197 243 288 343
#     4   9  18  35  56  79 105 136 176 225 273 324
#
# _framework density 19.861746
#
# number of rings (size 3 to 8) (size 9 to 14) (size 15 to 20)
#    0.000    2.400    0.000    3.000    1.400    2.000 
#    0.000    6.500    0.000    0.000    0.000    0.000 
#    0.000    0.000    0.000    0.000    0.000    0.000 
#
# Total GULP energy -495553.116526 kJ/mol
# GULP energy per Si atom -12388.827913 kJ/mol
# Density = 1.981654 g / cm^3
# Si number density = 19.861746 Si / 1000 Ang^3
#
#
#
# Elastic Constant Matrix: (Units=GPa)
#
#
# Indices 1 2 3 4 5 6 
#
# 1 70.2768 41.2715 48.8011 0.0000 0.0000 0.0000
# 2 41.2715 132.8525 94.7940 0.0000 0.0000 0.0000
# 3 48.8011 94.7940 155.7990 0.0000 0.0000 0.0000
# 4 0.0000 0.0000 0.0000 13.1336 0.0000 0.0000
# 5 0.0000 0.0000 0.0000 0.0000 21.2213 0.0000
# 6 0.0000 0.0000 0.0000 0.0000 0.0000 28.8621
#
#
#
# Elastic Compliance Matrix: (Units=1/GPa)
#
#
# Indices 1 2 3 4 5 6 
#
# 1 0.018794 -0.002895 -0.004126 0.000000 0.000000 0.000000
# 2 -0.002895 0.013748 -0.007458 0.000000 0.000000 0.000000
# 3 -0.004126 -0.007458 0.012249 0.000000 0.000000 0.000000
# 4 0.000000 0.000000 0.000000 0.076141 0.000000 0.000000
# 5 0.000000 0.000000 0.000000 0.000000 0.047122 0.000000
# 6 0.000000 0.000000 0.000000 0.000000 0.000000 0.034648
#
#
# Mechanical properties :
#
#
# Convention : Reuss Voigt Hill
#
# Bulk Modulus (GPa) = 63.15572 80.96239 72.05905
# Shear Modulus (GPa) = 21.10270 24.24752 22.67511
#
# Velocity S-wave (km/s) = 3.26311 3.49781 3.38249
# Velocity P-wave (km/s) = 6.78704 7.56071 7.18429
#
# Compressibility (1/GPa) = 0.01583388
#
# Stress axis : x y z
#
# Youngs Moduli (GPa) = 53.20731 72.73813 81.64220
#
# Poissons Ratio (x) = 0.21056 0.33683
# Poissons Ratio (y) = 0.15402 0.60889
# Poissons Ratio (z) = 0.21952 0.54248
#
# Static dielectric constant tensor:
#      x y z
#    x 3.688610 0.000000 0.000000 
#    y 0.000000 3.597150 0.000000 
#    z 0.000000 0.000000 3.906500 
# 
# 
# High freq. dielectric constant tensor:
#      x y z
#    x 1.756140 0.000000 0.000000 
#    y 0.000000 1.770050 0.000000 
#    z 0.000000 0.000000 1.785770 
# 
# From -- ./inp_files/43349.got.cif
#   From: 2010.03.12/outbox.cif.g09.slc.cpg/sg67_22_cif.got.tgz:43349.got - 2010.04.10 22:41:39.
