data_PCOD8281997
_publ_section_title
;
Structure prediction by ZEFSAII (Michael W. Deem and Ramdas Pophale) SiO2 
 PCOD8281997
Probable space group: C C C A
;
_chemical_formula_sum "Si O2"
_cell_formula_units_Z 88
_cell_length_a 28.420083
_cell_length_b 10.148683
_cell_length_c 13.701420
_cell_angle_alpha 90.000000
_cell_angle_beta 90.000000
_cell_angle_gamma 90.000000
_cell_volume 3951.851426
_symmetry_space_group_name_H-M "C C C A"
_symmetry_group_IT_number 68
_space_group.IT_coordinate_system_code '2'
_symmetry_cell_setting 'orthorhombic'
loop_
_space_group_symop_operation_xyz
x,y,z
-x,1/2-y,z
x,1/2-y,1/2-z
-x,y,1/2-z
-x,-y,-z
x,1/2+y,-z
-x,1/2+y,1/2+z
x,-y,1/2+z
1/2+x,1/2+y,z
1/2-x,-y,z
1/2+x,-y,1/2-z
1/2-x,1/2+y,1/2-z
1/2-x,1/2-y,-z
1/2+x,y,-z
1/2-x,y,1/2+z
1/2+x,1/2-y,1/2+z
loop_
_atom_site_type_symbol
_atom_site_label
_atom_site_fract_x
_atom_site_fract_y
_atom_site_fract_z
Si Si1 0.853109 0.931781 0.458421
Si Si2 0.893350 0.504748 0.737982
Si Si3 0.975538 0.122103 0.386061
Si Si4 0.669245 0.250000 0.750000
Si Si5 0.798986 0.802075 0.958880
Si Si6 0.435748 0.049406 0.428421
O O1 0.837516 0.787274 0.488844
O O2 0.863442 0.926057 0.342344
O O3 0.813748 0.045945 0.482036
O O4 0.901655 0.949650 0.515050
O O5 0.939610 0.569572 0.693316
O O6 0.862324 0.624857 0.780170
O O7 0.908875 0.408171 0.828081
O O8 0.948695 0.159303 0.489412
O O9 0.000000 0.250000 0.342690
O O10 0.014789 0.012536 0.400164
O O11 0.702086 0.217018 0.842264
O O12 0.750000 0.750000 0.000000
#
# Coordination Sequence:
#
# PCOD8281997 Si02
#       6
#    16  16  16   8  16  16
#     4  10  23  40  67  91 127 169 205 266 319 379
#     4  10  19  36  62  90 125 169 216 252 308 382
#     4  10  21  33  60  90 122 168 217 262 302 367
#     4  10  20  38  69  92 122 170 218 251 310 408
#     4  11  23  45  67  95 126 162 213 270 325 385
#     4  10  20  36  57  88 128 161 211 261 313 366
#
# _framework density 22.268045000000001
#
# number of rings (size 3 to 8) (size 9 to 14) (size 15 to 20)
#    0.000    1.818    1.818    2.182    5.091    0.727 
#    3.273    1.818    4.000    0.000    0.000    0.000 
#    0.000    0.000    0.000    0.000    0.000    0.000 
#
# Total GULP energy -545088.257685 kJ/mol
# GULP energy per Si atom -12388.369493 kJ/mol
# Density = 2.221736 g / cm^3
# Si number density = 22.268045 Si / 1000 Ang^3
#
#
#
# Elastic Constant Matrix: (Units=GPa)
#
#
# Indices 1 2 3 4 5 6 
#
# 1 81.0338 -9.4218 17.9645 0.0000 0.0000 0.0000
# 2 -9.4218 28.6896 8.2210 0.0000 0.0000 0.0000
# 3 17.9645 8.2210 130.4906 0.0000 0.0000 0.0000
# 4 0.0000 0.0000 0.0000 10.0147 0.0000 0.0000
# 5 0.0000 0.0000 0.0000 0.0000 -123.2333 0.0000
# 6 0.0000 0.0000 0.0000 0.0000 0.0000 21.2167
#
#
#
# Elastic Compliance Matrix: (Units=1/GPa)
#
#
# Indices 1 2 3 4 5 6 
#
# 1 0.013404 0.005021 -0.002162 0.000000 0.000000 0.000000
# 2 0.005021 0.037378 -0.003046 0.000000 0.000000 0.000000
# 3 -0.002162 -0.003046 0.008153 0.000000 0.000000 0.000000
# 4 0.000000 0.000000 0.000000 0.099853 0.000000 0.000000
# 5 0.000000 0.000000 0.000000 0.000000 -0.008115 0.000000
# 6 0.000000 0.000000 0.000000 0.000000 0.000000 0.047133
#
#
# Mechanical properties :
#
#
# Convention : Reuss Voigt Hill
#
# Bulk Modulus (GPa) = 17.07618 30.41570 23.74594
# Shear Modulus (GPa) = 22.96753 -3.50369 9.73192
#
# Velocity S-wave (km/s) = 3.21504 -1.25572 2.09281
# Velocity P-wave (km/s) = 4.63326 3.40384 4.06529
#
# Compressibility (1/GPa) = 0.05856111
#
# Stress axis : x y z
#
# Youngs Moduli (GPa) = 74.60712 26.75398 122.65608
#
# Poissons Ratio (x) = -0.13434 0.26513
# Poissons Ratio (y) = -0.37462 0.37362
# Poissons Ratio (z) = 0.16127 0.08149
#
# Static dielectric constant tensor:
#      x y z
#    x 4.309640 0.000000 0.000000 
#    y 0.000000 3.675460 0.000000 
#    z 0.000000 0.000000 4.508270 
# 
# 
# High freq. dielectric constant tensor:
#      x y z
#    x 1.880090 0.000000 0.000000 
#    y 0.000000 1.836650 0.000000 
#    z 0.000000 0.000000 1.899720 
# 
# From -- ./inp_files/25970.got.cif
#   From: 2010.03.12/outbox.cif.g09.slc.cpg/sg68_13_cif.got.tgz:25970.got - 2010.04.10 23:14:56.
