data_PCOD8281368
_publ_section_title
;
Structure prediction by ZEFSAII (Michael W. Deem and Ramdas Pophale) SiO2 
 PCOD8281368
Probable space group: C M M A
;
_chemical_formula_sum "Si O2"
_cell_formula_units_Z 104
_cell_length_a 8.858293
_cell_length_b 25.205810
_cell_length_c 30.189726
_cell_angle_alpha 90.000000
_cell_angle_beta 90.000000
_cell_angle_gamma 90.000000
_cell_volume 6740.775615
_symmetry_space_group_name_H-M "C M M A"
_symmetry_group_IT_number 67
_symmetry_cell_setting 'orthorhombic'
loop_
_space_group_symop_operation_xyz
x,y,z
-x,1/2-y,z
x,-y,-z
-x,1/2+y,-z
-x,-y,-z
x,1/2+y,-z
-x,y,z
x,1/2-y,z
1/2+x,1/2+y,z
1/2-x,-y,z
1/2+x,1/2-y,-z
1/2-x,y,-z
1/2-x,1/2-y,-z
1/2+x,y,-z
1/2-x,1/2+y,z
1/2+x,-y,z
loop_
_atom_site_type_symbol
_atom_site_label
_atom_site_fract_x
_atom_site_fract_y
_atom_site_fract_z
Si Si1 0.169767 0.313250 0.868377
Si Si2 0.318895 0.250000 0.548466
Si Si3 0.673998 0.690036 0.693467
Si Si4 0.318319 0.942947 0.453394
Si Si5 0.178033 0.150551 0.597769
Si Si6 0.829778 0.813159 0.780894
Si Si7 0.330330 0.686745 0.043878
O O1 0.178252 0.250000 0.868167
O O2 0.244968 0.336330 0.823827
O O3 0.252088 0.335836 0.911925
O O4 0.000000 0.334008 0.869836
O O5 0.500000 0.250000 0.546603
O O6 0.250000 0.250000 0.500000
O O7 0.259696 0.198458 0.573348
O O8 0.500000 0.690646 0.706634
O O9 0.729843 0.750000 0.683510
O O10 0.704279 0.654931 0.650258
O O11 0.760854 0.664467 0.735180
O O12 0.500000 0.945025 0.455620
O O13 0.250000 0.922931 0.500000
O O14 0.260177 0.903460 0.415812
O O15 0.250000 0.000000 0.441641
O O16 0.000000 0.150533 0.585979
O O17 0.815752 0.750000 0.780417
O O18 0.000000 0.832859 0.784172
O O19 0.500000 0.665650 0.043506
O O20 0.323788 0.750000 0.043889
O O21 0.250000 0.664189 0.000000
#
# Coordination Sequence:
#
# PCOD8281368 Si02
#       7
#    16   8  16  16  16  16  16
#     4   9  15  22  31  42  57  80 111 146 186 234
#     4  12  24  36  50  70  96 124 152 180 213 258
#     4   9  17  30  45  61  83 112 139 166 204 250
#     4  11  22  38  57  77  96 120 149 182 217 256
#     4  11  21  36  53  72  96 122 149 181 218 260
#     4   9  16  24  35  51  70  93 122 158 194 234
#     4   9  15  21  28  38  53  73 100 138 185 235
#
# _framework density 15.428490999999999
#
# number of rings (size 3 to 8) (size 9 to 14) (size 15 to 20)
#    0.000    2.154    0.769    4.846    0.000    6.769 
#    0.000    0.000    0.000    0.000    0.000    0.000 
#    0.000    0.000    0.000    0.000    0.000    0.000 
#
# Total GULP energy -644723.934559 kJ/mol
# GULP energy per Si atom -12398.537203 kJ/mol
# Density = 1.539337 g / cm^3
# Si number density = 15.428491 Si / 1000 Ang^3
#
#
#
# Elastic Constant Matrix: (Units=GPa)
#
#
# Indices 1 2 3 4 5 6 
#
# 1 149.5013 27.9039 82.6264 0.0000 0.0000 0.0000
# 2 27.9039 36.0092 32.6199 0.0000 0.0000 0.0000
# 3 82.6264 32.6199 143.2031 0.0000 0.0000 0.0000
# 4 0.0000 0.0000 0.0000 7.2430 0.0000 0.0000
# 5 0.0000 0.0000 0.0000 0.0000 33.2364 0.0000
# 6 0.0000 0.0000 0.0000 0.0000 0.0000 14.7356
#
#
#
# Elastic Compliance Matrix: (Units=1/GPa)
#
#
# Indices 1 2 3 4 5 6 
#
# 1 0.010107 -0.003212 -0.005100 0.000000 0.000000 0.000000
# 2 -0.003212 0.036012 -0.006350 0.000000 0.000000 0.000000
# 3 -0.005100 -0.006350 0.011372 0.000000 0.000000 0.000000
# 4 0.000000 0.000000 0.000000 0.138064 0.000000 0.000000
# 5 0.000000 0.000000 0.000000 0.000000 0.030087 0.000000
# 6 0.000000 0.000000 0.000000 0.000000 0.000000 0.067863
#
#
# Mechanical properties :
#
#
# Convention : Reuss Voigt Hill
#
# Bulk Modulus (GPa) = 35.50203 68.33489 51.91846
# Shear Modulus (GPa) = 15.05037 23.41391 19.23214
#
# Velocity S-wave (km/s) = 3.12668 3.89983 3.53446
# Velocity P-wave (km/s) = 6.00795 8.04150 7.09793
#
# Compressibility (1/GPa) = 0.02816741
#
# Stress axis : x y z
#
# Youngs Moduli (GPa) = 98.94031 27.76866 87.93450
#
# Poissons Ratio (x) = 0.08920 0.44847
# Poissons Ratio (y) = 0.31781 0.55836
# Poissons Ratio (z) = 0.50459 0.17632
#
# Static dielectric constant tensor:
#      x y z
#    x 3.160980 0.000000 0.000000 
#    y 0.000000 2.411320 0.000000 
#    z 0.000000 0.000000 3.365460 
# 
# 
# High freq. dielectric constant tensor:
#      x y z
#    x 1.613190 0.000000 0.000000 
#    y 0.000000 1.508220 0.000000 
#    z 0.000000 0.000000 1.607140 
# 
# From -- ./inp_files/45402.got.cif
#   From: 2010.03.12/outbox.cif.g09.slc.cpg/sg67_23_cif.got.tgz:45402.got - 2010.04.10 22:41:39.
