data_PCOD8281943
_publ_section_title
;
Structure prediction by ZEFSAII (Michael W. Deem and Ramdas Pophale) SiO2 
 PCOD8281943
Probable space group: C C C A
;
_chemical_formula_sum "Si O2"
_cell_formula_units_Z 72
_cell_length_a 15.597425
_cell_length_b 17.695421
_cell_length_c 14.318127
_cell_angle_alpha 90.000000
_cell_angle_beta 90.000000
_cell_angle_gamma 90.000000
_cell_volume 3951.846033
_symmetry_space_group_name_H-M "C C C A"
_symmetry_group_IT_number 68
_space_group.IT_coordinate_system_code '2'
_symmetry_cell_setting 'orthorhombic'
loop_
_space_group_symop_operation_xyz
x,y,z
-x,1/2-y,z
x,1/2-y,1/2-z
-x,y,1/2-z
-x,-y,-z
x,1/2+y,-z
-x,1/2+y,1/2+z
x,-y,1/2+z
1/2+x,1/2+y,z
1/2-x,-y,z
1/2+x,-y,1/2-z
1/2-x,1/2+y,1/2-z
1/2-x,1/2-y,-z
1/2+x,y,-z
1/2-x,y,1/2+z
1/2+x,1/2-y,1/2+z
loop_
_atom_site_type_symbol
_atom_site_label
_atom_site_fract_x
_atom_site_fract_y
_atom_site_fract_z
Si Si1 0.102243 0.893164 0.173970
Si Si2 0.664502 0.955286 0.009153
Si Si3 0.693234 0.250000 0.250000
Si Si4 0.586405 0.580357 0.880864
Si Si5 0.743302 0.318065 0.427634
O O1 0.134519 0.807792 0.190479
O O2 0.110437 0.936954 0.272612
O O3 0.008904 0.885626 0.125574
O O4 0.156101 0.943837 0.101858
O O5 0.676283 0.872921 0.054581
O O6 0.750000 0.000000 0.031395
O O7 0.587881 0.001998 0.059650
O O8 0.756499 0.290057 0.322273
O O9 0.649667 0.640754 0.931078
O O10 0.750000 0.250000 0.500000
#
# Coordination Sequence:
#
# PCOD8281943 Si02
#       5
#    16  16   8  16  16
#     4  10  19  35  56  79 107 137 183 224 272 321
#     4  10  20  35  54  78 110 140 179 218 275 325
#     4  10  20  33  58  82 109 142 178 226 273 318
#     4   9  21  34  53  80 105 139 178 222 270 320
#     4  10  19  35  51  80 107 140 178 221 268 324
#
# _framework density 18.219332999999999
#
# number of rings (size 3 to 8) (size 9 to 14) (size 15 to 20)
#    0.000    2.222    2.222    0.667    0.000   11.556 
#    0.000    0.000    0.000    0.000    0.000    0.000 
#    0.000    0.000    0.000    0.000    0.000    0.000 
#
# Total GULP energy -446029.011120 kJ/mol
# GULP energy per Si atom -12389.694753 kJ/mol
# Density = 1.817787 g / cm^3
# Si number density = 18.219333 Si / 1000 Ang^3
#
#
#
# Elastic Constant Matrix: (Units=GPa)
#
#
# Indices 1 2 3 4 5 6 
#
# 1 42.0212 21.2919 30.4198 0.0000 0.0000 0.0000
# 2 21.2919 106.2745 62.7379 0.0000 0.0000 0.0000
# 3 30.4198 62.7379 110.7700 0.0000 0.0000 0.0000
# 4 0.0000 0.0000 0.0000 48.7146 0.0000 0.0000
# 5 0.0000 0.0000 0.0000 0.0000 30.1006 0.0000
# 6 0.0000 0.0000 0.0000 0.0000 0.0000 21.1804
#
#
#
# Elastic Compliance Matrix: (Units=1/GPa)
#
#
# Indices 1 2 3 4 5 6 
#
# 1 0.029910 -0.001718 -0.007241 0.000000 0.000000 0.000000
# 2 -0.001718 0.014235 -0.007591 0.000000 0.000000 0.000000
# 3 -0.007241 -0.007591 0.015315 0.000000 0.000000 0.000000
# 4 0.000000 0.000000 0.000000 0.020528 0.000000 0.000000
# 5 0.000000 0.000000 0.000000 0.000000 0.033222 0.000000
# 6 0.000000 0.000000 0.000000 0.000000 0.000000 0.047213
#
#
# Mechanical properties :
#
#
# Convention : Reuss Voigt Hill
#
# Bulk Modulus (GPa) = 37.93433 54.21833 46.07633
# Shear Modulus (GPa) = 24.71474 29.64020 27.17747
#
# Velocity S-wave (km/s) = 3.68708 4.03780 3.86642
# Velocity P-wave (km/s) = 6.24437 7.18065 6.72882
#
# Compressibility (1/GPa) = 0.02636134
#
# Stress axis : x y z
#
# Youngs Moduli (GPa) = 33.43391 70.25074 65.29390
#
# Poissons Ratio (x) = 0.12067 0.47279
# Poissons Ratio (y) = 0.05743 0.49562
# Poissons Ratio (z) = 0.24209 0.53324
#
# Static dielectric constant tensor:
#      x y z
#    x 3.244140 0.000000 0.000000 
#    y 0.000000 3.674760 0.000000 
#    z 0.000000 0.000000 3.603210 
# 
# 
# High freq. dielectric constant tensor:
#      x y z
#    x 1.681740 0.000000 0.000000 
#    y 0.000000 1.707370 0.000000 
#    z 0.000000 0.000000 1.715490 
# 
# From -- ./inp_files/14227.got.cif
#   From: 2010.03.12/outbox.cif.g09.slc.cpg/sg68_8_cif.got.tgz:14227.got - 2010.04.10 23:14:56.
