data_PCOD8281170
_publ_section_title
;
Structure prediction by ZEFSAII (Michael W. Deem and Ramdas Pophale) SiO2 
 PCOD8281170
Probable space group: C M M A
;
_chemical_formula_sum "Si O2"
_cell_formula_units_Z 104
_cell_length_a 25.326121
_cell_length_b 21.282838
_cell_length_c 9.387440
_cell_angle_alpha 90.000000
_cell_angle_beta 90.000000
_cell_angle_gamma 90.000000
_cell_volume 5059.940279
_symmetry_space_group_name_H-M "C M M A"
_symmetry_group_IT_number 67
_symmetry_cell_setting 'orthorhombic'
loop_
_space_group_symop_operation_xyz
x,y,z
-x,1/2-y,z
x,-y,-z
-x,1/2+y,-z
-x,-y,-z
x,1/2+y,-z
-x,y,z
x,1/2-y,z
1/2+x,1/2+y,z
1/2-x,-y,z
1/2+x,1/2-y,-z
1/2-x,y,-z
1/2-x,1/2-y,-z
1/2+x,y,-z
1/2-x,1/2+y,z
1/2+x,-y,z
loop_
_atom_site_type_symbol
_atom_site_label
_atom_site_fract_x
_atom_site_fract_y
_atom_site_fract_z
Si Si1 0.698911 0.576469 0.172036
Si Si2 0.699171 0.177919 0.595074
Si Si3 0.500000 0.823449 0.973945
Si Si4 0.000000 0.512101 0.330724
Si Si5 0.583037 0.180118 0.514694
Si Si6 0.316905 0.563561 0.844001
Si Si7 0.923959 0.384461 0.764365
Si Si8 0.000000 0.125511 0.282444
O O1 0.681316 0.634376 0.270708
O O2 0.668943 0.509430 0.190484
O O3 0.759658 0.572933 0.222458
O O4 0.689424 0.587834 0.005883
O O5 0.708942 0.250000 0.647334
O O6 0.750000 0.155852 0.500000
O O7 0.646257 0.172977 0.502205
O O8 0.500000 0.750000 0.938166
O O9 0.448036 0.857218 0.910104
O O10 0.500000 0.832210 0.142524
O O11 0.000000 0.500000 0.500000
O O12 0.051906 0.548787 0.280145
O O13 0.000000 0.447574 0.242360
O O14 0.566028 0.250000 0.555879
O O15 0.561484 0.164754 0.358258
O O16 0.553764 0.136610 0.629084
O O17 0.361165 0.607395 0.775964
#
# Coordination Sequence:
#
# PCOD8281170 Si02
#       8
#    16  16   8   8  16  16  16   8
#     4   9  19  39  59  89 128 163 205 260 314 379
#     4  10  22  39  61  91 126 164 214 263 315 380
#     4  11  26  44  64  93 127 165 219 271 314 390
#     4  11  23  41  60  94 126 160 208 264 319 377
#     4  11  23  40  63  86 121 170 206 257 318 379
#     4   9  20  36  63  89 122 166 208 256 320 384
#     4  11  23  40  65  92 126 166 209 266 323 378
#     4  12  25  42  64  91 124 162 215 261 318 386
#
# _framework density 20.553602999999999
#
# number of rings (size 3 to 8) (size 9 to 14) (size 15 to 20)
#    0.000    1.692    1.538    3.462    4.308    2.462 
#    0.000    7.692    0.000    0.000    0.000    0.000 
#    0.000    0.000    0.000    0.000    0.000    0.000 
#
# Total GULP energy -644210.022711 kJ/mol
# GULP energy per Si atom -12388.654283 kJ/mol
# Density = 2.050682 g / cm^3
# Si number density = 20.553603 Si / 1000 Ang^3
#
#
#
# Elastic Constant Matrix: (Units=GPa)
#
#
# Indices 1 2 3 4 5 6 
#
# 1 104.8672 28.2251 26.8773 0.0000 0.0000 0.0000
# 2 28.2251 102.6703 40.7410 0.0000 0.0000 0.0000
# 3 26.8773 40.7410 93.1982 0.0000 0.0000 0.0000
# 4 0.0000 0.0000 0.0000 40.5478 0.0000 0.0000
# 5 0.0000 0.0000 0.0000 0.0000 15.5152 0.0000
# 6 0.0000 0.0000 0.0000 0.0000 0.0000 22.1768
#
#
#
# Elastic Compliance Matrix: (Units=1/GPa)
#
#
# Indices 1 2 3 4 5 6 
#
# 1 0.010648 -0.002067 -0.002167 0.000000 0.000000 0.000000
# 2 -0.002067 0.012185 -0.004731 0.000000 0.000000 0.000000
# 3 -0.002167 -0.004731 0.013423 0.000000 0.000000 0.000000
# 4 0.000000 0.000000 0.000000 0.024662 0.000000 0.000000
# 5 0.000000 0.000000 0.000000 0.000000 0.064453 0.000000
# 6 0.000000 0.000000 0.000000 0.000000 0.000000 0.045092
#
#
# Mechanical properties :
#
#
# Convention : Reuss Voigt Hill
#
# Bulk Modulus (GPa) = 54.56699 54.71361 54.64030
# Shear Modulus (GPa) = 25.70674 29.30744 27.50709
#
# Velocity S-wave (km/s) = 3.54038 3.78021 3.66226
# Velocity P-wave (km/s) = 6.58169 6.76247 6.67270
#
# Compressibility (1/GPa) = 0.01832610
#
# Stress axis : x y z
#
# Youngs Moduli (GPa) = 93.91731 82.06546 74.50063
#
# Poissons Ratio (x) = 0.16965 0.16144
# Poissons Ratio (y) = 0.19415 0.35243
# Poissons Ratio (z) = 0.20352 0.38822
#
# Static dielectric constant tensor:
#      x y z
#    x 3.739690 0.000000 0.000000 
#    y 0.000000 3.756160 0.000000 
#    z 0.000000 0.000000 3.500720 
# 
# 
# High freq. dielectric constant tensor:
#      x y z
#    x 1.810810 0.000000 0.000000 
#    y 0.000000 1.804740 0.000000 
#    z 0.000000 0.000000 1.791930 
# 
# From -- ./inp_files/13842.got.cif
#   From: 2010.03.12/outbox.cif.g09.slc.cpg/sg67_7_cif.got.tgz:13842.got - 2010.04.10 22:41:39.
