data_PCOD8281775
_publ_section_title
;
Structure prediction by ZEFSAII (Michael W. Deem and Ramdas Pophale) SiO2 
 PCOD8281775
Probable space group: C C C A
;
_chemical_formula_sum "Si O2"
_cell_formula_units_Z 84
_cell_length_a 23.528004
_cell_length_b 8.962393
_cell_length_c 17.137632
_cell_angle_alpha 90.000000
_cell_angle_beta 90.000000
_cell_angle_gamma 90.000000
_cell_volume 3613.764789
_symmetry_space_group_name_H-M "C C C A"
_symmetry_group_IT_number 68
_space_group.IT_coordinate_system_code '2'
_symmetry_cell_setting 'orthorhombic'
loop_
_space_group_symop_operation_xyz
x,y,z
-x,1/2-y,z
x,1/2-y,1/2-z
-x,y,1/2-z
-x,-y,-z
x,1/2+y,-z
-x,1/2+y,1/2+z
x,-y,1/2+z
1/2+x,1/2+y,z
1/2-x,-y,z
1/2+x,-y,1/2-z
1/2-x,1/2+y,1/2-z
1/2-x,1/2-y,-z
1/2+x,y,-z
1/2-x,y,1/2+z
1/2+x,1/2-y,1/2+z
loop_
_atom_site_type_symbol
_atom_site_label
_atom_site_fract_x
_atom_site_fract_y
_atom_site_fract_z
Si Si1 0.420657 0.490333 0.767496
Si Si2 0.230520 0.347837 0.891124
Si Si3 0.438535 0.279476 0.625684
Si Si4 0.172740 0.133910 0.449762
Si Si5 0.193307 0.575846 0.189328
Si Si6 0.000000 0.750000 0.250000
O O1 0.447502 0.409577 0.690810
O O2 0.415273 0.372388 0.836440
O O3 0.357194 0.540514 0.747839
O O4 0.457839 0.634936 0.795466
O O5 0.250000 0.500000 0.850686
O O6 0.286360 0.263047 0.919481
O O7 0.199575 0.254806 0.822485
O O8 0.186779 0.393444 0.960045
O O9 0.500000 0.250000 0.586573
O O10 0.393642 0.322472 0.558933
O O11 0.182793 0.984831 0.399149
O O12 0.250000 0.500000 0.223290
#
# Coordination Sequence:
#
# PCOD8281775 Si02
#       6
#    16  16  16  16  16   4
#     4  10  20  35  58  81 115 151 196 245 297 356
#     4  10  18  33  56  86 119 154 188 233 301 353
#     4  10  18  37  58  82 107 155 204 236 286 357
#     4   9  18  31  58  82 111 151 195 236 285 352
#     4   9  19  36  56  83 113 152 195 245 292 351
#     4  12  20  34  52  80 112 154 184 238 300 356
#
# _framework density 23.244454999999999
#
# number of rings (size 3 to 8) (size 9 to 14) (size 15 to 20)
#    0.000    2.286    1.905    3.429    0.000    1.524 
#    0.000    6.667    2.095    3.429    0.000    0.000 
#    0.000    0.000    0.000    0.000    0.000    0.000 
#
# Total GULP energy -520616.295788 kJ/mol
# GULP energy per Si atom -12395.626090 kJ/mol
# Density = 2.319155 g / cm^3
# Si number density = 23.244455 Si / 1000 Ang^3
#
#
#
# Elastic Constant Matrix: (Units=GPa)
#
#
# Indices 1 2 3 4 5 6 
#
# 1 176.5218 51.5637 35.8316 0.0000 0.0000 0.0000
# 2 51.5637 163.9426 23.0662 0.0000 0.0000 0.0000
# 3 35.8316 23.0662 71.5736 0.0000 0.0000 0.0000
# 4 0.0000 0.0000 0.0000 10.8107 0.0000 0.0000
# 5 0.0000 0.0000 0.0000 0.0000 18.8236 0.0000
# 6 0.0000 0.0000 0.0000 0.0000 0.0000 40.2819
#
#
#
# Elastic Compliance Matrix: (Units=1/GPa)
#
#
# Indices 1 2 3 4 5 6 
#
# 1 0.006741 -0.001723 -0.002819 0.000000 0.000000 0.000000
# 2 -0.001723 0.006830 -0.001338 0.000000 0.000000 0.000000
# 3 -0.002819 -0.001338 0.015814 0.000000 0.000000 0.000000
# 4 0.000000 0.000000 0.000000 0.092501 0.000000 0.000000
# 5 0.000000 0.000000 0.000000 0.000000 0.053125 0.000000
# 6 0.000000 0.000000 0.000000 0.000000 0.000000 0.024825
#
#
# Mechanical properties :
#
#
# Convention : Reuss Voigt Hill
#
# Bulk Modulus (GPa) = 56.74351 70.32901 63.53626
# Shear Modulus (GPa) = 22.99142 34.08834 28.53988
#
# Velocity S-wave (km/s) = 3.14843 3.83366 3.50782
# Velocity P-wave (km/s) = 6.13852 7.06526 6.61813
#
# Compressibility (1/GPa) = 0.01762316
#
# Stress axis : x y z
#
# Youngs Moduli (GPa) = 148.35228 146.41147 63.23404
#
# Poissons Ratio (x) = 0.25234 0.17827
# Poissons Ratio (y) = 0.25568 0.08463
# Poissons Ratio (z) = 0.41823 0.19595
#
# Static dielectric constant tensor:
#      x y z
#    x 4.332000 0.000000 0.000000 
#    y 0.000000 4.470470 0.000000 
#    z 0.000000 0.000000 3.681480 
# 
# 
# High freq. dielectric constant tensor:
#      x y z
#    x 1.928980 0.000000 0.000000 
#    y 0.000000 1.937680 0.000000 
#    z 0.000000 0.000000 1.878480 
# 
# From -- ./inp_files/40675.got.cif
#   From: 2010.03.12/outbox.cif.g09.slc.cpg/sg68_21_cif.got.tgz:40675.got - 2010.04.10 23:14:56.
