data_PCOD8281076
_publ_section_title
;
Structure prediction by ZEFSAII (Michael W. Deem and Ramdas Pophale) SiO2 
 PCOD8281076
Probable space group: C M M A
;
_chemical_formula_sum "Si O2"
_cell_formula_units_Z 96
_cell_length_a 18.085361
_cell_length_b 15.677906
_cell_length_c 16.505560
_cell_angle_alpha 90.000000
_cell_angle_beta 90.000000
_cell_angle_gamma 90.000000
_cell_volume 4679.996216
_symmetry_space_group_name_H-M "C M M A"
_symmetry_group_IT_number 67
_symmetry_cell_setting 'orthorhombic'
loop_
_space_group_symop_operation_xyz
x,y,z
-x,1/2-y,z
x,-y,-z
-x,1/2+y,-z
-x,-y,-z
x,1/2+y,-z
-x,y,z
x,1/2-y,z
1/2+x,1/2+y,z
1/2-x,-y,z
1/2+x,1/2-y,-z
1/2-x,y,-z
1/2-x,1/2-y,-z
1/2+x,y,-z
1/2-x,1/2+y,z
1/2+x,-y,z
loop_
_atom_site_type_symbol
_atom_site_label
_atom_site_fract_x
_atom_site_fract_y
_atom_site_fract_z
Si Si1 0.825817 0.950442 0.193113
Si Si2 0.588666 0.250000 0.607442
Si Si3 0.087027 0.590995 0.895011
Si Si4 0.328600 0.156605 0.039714
Si Si5 0.587639 0.750000 0.208858
Si Si6 0.084526 0.652171 0.318541
Si Si7 0.085322 0.404497 0.500683
O O1 0.812641 0.875334 0.129734
O O2 0.858870 0.911207 0.274748
O O3 0.750000 0.000000 0.212685
O O4 0.887925 0.008105 0.152185
O O5 0.500000 0.250000 0.602361
O O6 0.619143 0.250000 0.699527
O O7 0.619285 0.162920 0.564634
O O8 0.116790 0.669132 0.840768
O O9 0.000000 0.590998 0.904220
O O10 0.119940 0.594780 0.985878
O O11 0.366399 0.250000 0.044316
O O12 0.250000 0.162628 0.000000
O O13 0.500000 0.750000 0.214095
O O14 0.102165 0.750000 0.296108
O O15 0.096454 0.639457 0.413302
O O16 0.000000 0.629778 0.294157
O O17 0.122239 0.500000 0.500000
O O18 0.000000 0.416770 0.477912
#
# Coordination Sequence:
#
# PCOD8281076 Si02
#       7
#    16   8  16  16   8  16  16
#     4  12  25  40  61  90 121 164 210 254 304 378
#     4   9  16  30  54  85 125 163 196 247 314 382
#     4  11  23  40  62  91 122 153 199 263 316 359
#     4  11  23  42  64  84 116 159 203 245 301 372
#     4   9  20  36  55  89 127 153 191 251 314 363
#     4  10  21  40  63  93 130 163 208 265 316 375
#     4   9  17  30  55  90 125 162 203 254 319 377
#
# _framework density 20.512837999999999
#
# number of rings (size 3 to 8) (size 9 to 14) (size 15 to 20)
#    0.000    1.667    3.333    1.500    2.333    2.000 
#    1.500    0.000    0.000    0.500    0.000    2.333 
#    0.000    0.000    0.000    0.000    0.000    0.000 
#
# Total GULP energy -595104.413515 kJ/mol
# GULP energy per Si atom -12398.008615 kJ/mol
# Density = 2.046615 g / cm^3
# Si number density = 20.512838 Si / 1000 Ang^3
#
#
#
# Elastic Constant Matrix: (Units=GPa)
#
#
# Indices 1 2 3 4 5 6 
#
# 1 67.4853 26.8171 29.2349 0.0000 0.0000 0.0000
# 2 26.8171 81.3914 9.9992 0.0000 0.0000 0.0000
# 3 29.2349 9.9992 69.8575 0.0000 0.0000 0.0000
# 4 0.0000 0.0000 0.0000 29.1544 0.0000 0.0000
# 5 0.0000 0.0000 0.0000 0.0000 15.2244 0.0000
# 6 0.0000 0.0000 0.0000 0.0000 0.0000 359.6641
#
#
#
# Elastic Compliance Matrix: (Units=1/GPa)
#
#
# Indices 1 2 3 4 5 6 
#
# 1 0.020473 -0.005795 -0.007738 0.000000 0.000000 0.000000
# 2 -0.005795 0.014146 0.000400 0.000000 0.000000 0.000000
# 3 -0.007738 0.000400 0.017496 0.000000 0.000000 0.000000
# 4 0.000000 0.000000 0.000000 0.034300 0.000000 0.000000
# 5 0.000000 0.000000 0.000000 0.000000 0.065684 0.000000
# 6 0.000000 0.000000 0.000000 0.000000 0.000000 0.002780
#
#
# Mechanical properties :
#
#
# Convention : Reuss Voigt Hill
#
# Bulk Modulus (GPa) = 38.68540 38.98182 38.83361
# Shear Modulus (GPa) = 26.34868 90.98744 58.66806
#
# Velocity S-wave (km/s) = 3.58788 6.66728 5.35376
# Velocity P-wave (km/s) = 6.00532 8.84958 7.56237
#
# Compressibility (1/GPa) = 0.02584954
#
# Stress axis : x y z
#
# Youngs Moduli (GPa) = 48.84463 70.68912 57.15582
#
# Poissons Ratio (x) = 0.40963 0.44229
# Poissons Ratio (y) = 0.28305 -0.02288
# Poissons Ratio (z) = 0.37798 -0.02829
#
# Static dielectric constant tensor:
#      x y z
#    x 3.290650 0.000000 0.000000 
#    y 0.000000 4.228600 0.000000 
#    z 0.000000 0.000000 3.751520 
# 
# 
# High freq. dielectric constant tensor:
#      x y z
#    x 1.759600 0.000000 0.000000 
#    y 0.000000 1.821890 0.000000 
#    z 0.000000 0.000000 1.805650 
# 
# From -- ./inp_files/29350.got.cif
#   From: 2010.03.12/outbox.cif.g09.slc.cpg/sg67_15_cif.got.tgz:29350.got - 2010.04.10 22:41:39.
