data_PCOD8281208
_publ_section_title
;
Structure prediction by ZEFSAII (Michael W. Deem and Ramdas Pophale) SiO2 
 PCOD8281208
Probable space group: C M M A
;
_chemical_formula_sum "Si O2"
_cell_formula_units_Z 68
_cell_length_a 19.970815
_cell_length_b 18.462278
_cell_length_c 8.851134
_cell_angle_alpha 90.000000
_cell_angle_beta 90.000000
_cell_angle_gamma 90.000000
_cell_volume 3263.472748
_symmetry_space_group_name_H-M "C M M A"
_symmetry_group_IT_number 67
_symmetry_cell_setting 'orthorhombic'
loop_
_space_group_symop_operation_xyz
x,y,z
-x,1/2-y,z
x,-y,-z
-x,1/2+y,-z
-x,-y,-z
x,1/2+y,-z
-x,y,z
x,1/2-y,z
1/2+x,1/2+y,z
1/2-x,-y,z
1/2+x,1/2-y,-z
1/2-x,y,-z
1/2-x,1/2-y,-z
1/2+x,y,-z
1/2-x,1/2+y,z
1/2+x,-y,z
loop_
_atom_site_type_symbol
_atom_site_label
_atom_site_fract_x
_atom_site_fract_y
_atom_site_fract_z
Si Si1 0.250000 0.500000 0.500000
Si Si2 0.500000 0.090620 0.334876
Si Si3 0.127772 0.835605 0.190625
Si Si4 0.264342 0.864663 0.341275
Si Si5 0.889236 0.669534 0.844227
Si Si6 0.000000 0.076189 0.309782
O O1 0.291933 0.445591 0.610263
O O2 0.434805 0.132376 0.279331
O O3 0.500000 0.092335 0.514295
O O4 0.500000 0.008847 0.272794
O O5 0.131263 0.750000 0.217636
O O6 0.195312 0.872571 0.249844
O O7 0.121060 0.855530 0.015279
O O8 0.250000 0.821871 0.500000
O O9 0.318018 0.824629 0.239114
O O10 0.921625 0.750000 0.839379
O O11 0.934816 0.611291 0.763106
#
# Coordination Sequence:
#
# PCOD8281208 Si02
#       6
#     4   8  16  16  16   8
#     4   8  24  40  60  94 136 160 200 266 304 360
#     4  11  26  43  64  90 126 165 210 257 308 372
#     4  11  24  42  64  94 128 162 206 260 311 367
#     4  10  22  40  66  90 128 162 206 250 311 363
#     4  11  24  42  64  94 128 162 206 260 311 367
#     4  11  26  43  64  90 126 165 210 257 308 372
#
# _framework density 20.836697999999998
#
# number of rings (size 3 to 8) (size 9 to 14) (size 15 to 20)
#    0.706    0.706    0.000    4.235    3.294   11.294 
#    0.000    1.176    0.000    0.000    0.000    0.000 
#    0.000    0.000    0.000    0.000    0.000    0.000 
#
# Total GULP energy -421409.017163 kJ/mol
# GULP energy per Si atom -12394.382858 kJ/mol
# Density = 2.078927 g / cm^3
# Si number density = 20.836698 Si / 1000 Ang^3
#
#
#
# Elastic Constant Matrix: (Units=GPa)
#
#
# Indices 1 2 3 4 5 6 
#
# 1 128.2233 28.1586 43.7722 0.0000 0.0000 0.0000
# 2 28.1586 102.2870 44.6315 0.0000 0.0000 0.0000
# 3 43.7722 44.6315 121.1305 0.0000 0.0000 0.0000
# 4 0.0000 0.0000 0.0000 32.8772 0.0000 0.0000
# 5 0.0000 0.0000 0.0000 0.0000 39.9301 0.0000
# 6 0.0000 0.0000 0.0000 0.0000 0.0000 17.7338
#
#
#
# Elastic Compliance Matrix: (Units=1/GPa)
#
#
# Indices 1 2 3 4 5 6 
#
# 1 0.009032 -0.001266 -0.002797 0.000000 0.000000 0.000000
# 2 -0.001266 0.011827 -0.003900 0.000000 0.000000 0.000000
# 3 -0.002797 -0.003900 0.010704 0.000000 0.000000 0.000000
# 4 0.000000 0.000000 0.000000 0.030416 0.000000 0.000000
# 5 0.000000 0.000000 0.000000 0.000000 0.025044 0.000000
# 6 0.000000 0.000000 0.000000 0.000000 0.000000 0.056390
#
#
# Mechanical properties :
#
#
# Convention : Reuss Voigt Hill
#
# Bulk Modulus (GPa) = 63.95816 64.97394 64.46605
# Shear Modulus (GPa) = 30.38589 33.78011 32.08300
#
# Velocity S-wave (km/s) = 3.82290 4.03076 3.92820
# Velocity P-wave (km/s) = 7.08856 7.27412 7.18194
#
# Compressibility (1/GPa) = 0.01563522
#
# Stress axis : x y z
#
# Youngs Moduli (GPa) = 110.71962 84.55465 93.42732
#
# Poissons Ratio (x) = 0.10703 0.26135
# Poissons Ratio (y) = 0.14015 0.36439
# Poissons Ratio (z) = 0.30973 0.32978
#
# Static dielectric constant tensor:
#      x y z
#    x 3.534800 0.000000 0.000000 
#    y 0.000000 3.785490 0.000000 
#    z 0.000000 0.000000 3.962410 
# 
# 
# High freq. dielectric constant tensor:
#      x y z
#    x 1.812370 0.000000 0.000000 
#    y 0.000000 1.821120 0.000000 
#    z 0.000000 0.000000 1.833280 
# 
# From -- ./inp_files/9489.got.cif
#   From: 2010.03.12/outbox.cif.g09.slc.cpg/sg67_5_cif.got.tgz:9489.got - 2010.04.10 22:41:39.
