data_PCOD8281259
_publ_section_title
;
Structure prediction by ZEFSAII (Michael W. Deem and Ramdas Pophale) SiO2 
 PCOD8281259
Probable space group: C M M A
;
_chemical_formula_sum "Si O2"
_cell_formula_units_Z 60
_cell_length_a 13.832232
_cell_length_b 10.838840
_cell_length_c 20.436280
_cell_angle_alpha 90.000000
_cell_angle_beta 90.000000
_cell_angle_gamma 90.000000
_cell_volume 3063.916421
_symmetry_space_group_name_H-M "C M M A"
_symmetry_group_IT_number 67
_symmetry_cell_setting 'orthorhombic'
loop_
_space_group_symop_operation_xyz
x,y,z
-x,1/2-y,z
x,-y,-z
-x,1/2+y,-z
-x,-y,-z
x,1/2+y,-z
-x,y,z
x,1/2-y,z
1/2+x,1/2+y,z
1/2-x,-y,z
1/2+x,1/2-y,-z
1/2-x,y,-z
1/2-x,1/2-y,-z
1/2+x,y,-z
1/2-x,1/2+y,z
1/2+x,-y,z
loop_
_atom_site_type_symbol
_atom_site_label
_atom_site_fract_x
_atom_site_fract_y
_atom_site_fract_z
Si Si1 0.893853 0.894350 0.744730
Si Si2 0.250000 0.500000 0.500000
Si Si3 0.889148 0.609574 0.051085
Si Si4 0.893965 0.893985 0.601579
Si Si5 0.750000 0.500000 0.153076
O O1 0.902151 0.750000 0.738736
O O2 0.862058 0.947619 0.673102
O O3 0.819102 0.921080 0.801521
O O4 0.000000 0.948786 0.762862
O O5 0.183547 0.582354 0.545796
O O6 0.874309 0.750000 0.022412
O O7 0.815402 0.593188 0.110778
O O8 0.000000 0.594795 0.074818
O O9 0.864871 0.500000 0.000000
O O10 0.904574 0.750000 0.608334
O O11 0.000000 0.949652 0.583128
#
# Coordination Sequence:
#
# PCOD8281259 Si02
#       5
#    16   4  16  16   8
#     4   9  19  35  52  73 104 139 172 210 261 319
#     4  12  18  28  52  78  96 128 178 220 260 302
#     4  10  23  41  58  80 113 147 178 218 269 322
#     4   9  19  34  49  70 103 137 170 212 260 311
#     4  12  20  32  58  86 104 130 178 226 264 306
#
# _framework density 19.582778999999999
#
# number of rings (size 3 to 8) (size 9 to 14) (size 15 to 20)
#    0.000    2.133    0.000    5.200    0.000    3.200 
#    0.000    2.667    0.000    0.000    0.000   22.400 
#    0.000    0.000    0.000    0.000    0.000    0.000 
#
# Total GULP energy -371645.681137 kJ/mol
# GULP energy per Si atom -12388.189371 kJ/mol
# Density = 1.953821 g / cm^3
# Si number density = 19.582779 Si / 1000 Ang^3
#
#
#
# Elastic Constant Matrix: (Units=GPa)
#
#
# Indices 1 2 3 4 5 6 
#
# 1 137.3358 36.1467 92.0011 0.0000 0.0000 0.0000
# 2 36.1467 77.3167 45.9700 0.0000 0.0000 0.0000
# 3 92.0011 45.9700 137.9372 0.0000 0.0000 0.0000
# 4 0.0000 0.0000 0.0000 26.8305 0.0000 0.0000
# 5 0.0000 0.0000 0.0000 0.0000 79.9311 0.0000
# 6 0.0000 0.0000 0.0000 0.0000 0.0000 20.6938
#
#
#
# Elastic Compliance Matrix: (Units=1/GPa)
#
#
# Indices 1 2 3 4 5 6 
#
# 1 0.013247 -0.001172 -0.008445 0.000000 0.000000 0.000000
# 2 -0.001172 0.016234 -0.004628 0.000000 0.000000 0.000000
# 3 -0.008445 -0.004628 0.014425 0.000000 0.000000 0.000000
# 4 0.000000 0.000000 0.000000 0.037271 0.000000 0.000000
# 5 0.000000 0.000000 0.000000 0.000000 0.012511 0.000000
# 6 0.000000 0.000000 0.000000 0.000000 0.000000 0.048324
#
#
# Mechanical properties :
#
#
# Convention : Reuss Voigt Hill
#
# Bulk Modulus (GPa) = 64.87312 77.86949 71.37131
# Shear Modulus (GPa) = 28.46730 37.38922 32.92826
#
# Velocity S-wave (km/s) = 3.81687 4.37428 4.10505
# Velocity P-wave (km/s) = 7.25425 8.08474 7.68073
#
# Compressibility (1/GPa) = 0.01541470
#
# Stress axis : x y z
#
# Youngs Moduli (GPa) = 75.48761 61.60028 69.32529
#
# Poissons Ratio (x) = 0.07221 0.58545
# Poissons Ratio (y) = 0.08849 0.32086
# Poissons Ratio (z) = 0.63749 0.28511
#
# Static dielectric constant tensor:
#      x y z
#    x 3.964190 0.000000 0.000000 
#    y 0.000000 3.247130 0.000000 
#    z 0.000000 0.000000 3.703990 
# 
# 
# High freq. dielectric constant tensor:
#      x y z
#    x 1.784680 0.000000 0.000000 
#    y 0.000000 1.733030 0.000000 
#    z 0.000000 0.000000 1.766740 
# 
# From -- ./inp_files/41705.got.cif
#   From: 2010.03.12/outbox.cif.g09.slc.cpg/sg67_21_cif.got.tgz:41705.got - 2010.04.10 22:41:39.
