data_PCOD8281497
_publ_section_title
;
Structure prediction by ZEFSAII (Michael W. Deem and Ramdas Pophale) SiO2 
 PCOD8281497
Probable space group: C M M A
;
_chemical_formula_sum "Si O2"
_cell_formula_units_Z 64
_cell_length_a 17.699247
_cell_length_b 23.735142
_cell_length_c 7.503104
_cell_angle_alpha 90.000000
_cell_angle_beta 90.000000
_cell_angle_gamma 90.000000
_cell_volume 3152.010028
_symmetry_space_group_name_H-M "C M M A"
_symmetry_group_IT_number 67
_symmetry_cell_setting 'orthorhombic'
loop_
_space_group_symop_operation_xyz
x,y,z
-x,1/2-y,z
x,-y,-z
-x,1/2+y,-z
-x,-y,-z
x,1/2+y,-z
-x,y,z
x,1/2-y,z
1/2+x,1/2+y,z
1/2-x,-y,z
1/2+x,1/2-y,-z
1/2-x,y,-z
1/2-x,1/2-y,-z
1/2+x,y,-z
1/2-x,1/2+y,z
1/2+x,-y,z
loop_
_atom_site_type_symbol
_atom_site_label
_atom_site_fract_x
_atom_site_fract_y
_atom_site_fract_z
Si Si1 0.678442 0.131511 0.772673
Si Si2 0.913557 0.064515 0.516334
Si Si3 0.648519 0.629502 0.832104
Si Si4 0.826443 0.250000 0.384545
Si Si5 0.588513 0.250000 0.271080
O O1 0.639194 0.099438 0.613106
O O2 0.766803 0.117922 0.766413
O O3 0.667782 0.197712 0.746973
O O4 0.641015 0.113371 0.960007
O O5 0.904708 0.088197 0.717319
O O6 0.000000 0.071912 0.457125
O O7 0.888326 0.000000 0.500000
O O8 0.626891 0.694764 0.811422
O O9 0.750000 0.250000 0.500000
O O10 0.898076 0.250000 0.516744
O O11 0.500000 0.250000 0.229821
#
# Coordination Sequence:
#
# PCOD8281497 Si02
#       5
#    16  16  16   8   8
#     4  11  23  40  67  94 126 164 210 257 317 372
#     4  11  25  44  64  89 125 167 211 264 322 376
#     4  11  23  41  64  96 126 164 210 260 308 378
#     4  12  19  37  66  94 128 168 202 250 310 378
#     4  12  23  37  61  94 132 165 199 247 309 372
#
# _framework density 20.304504999999999
#
# number of rings (size 3 to 8) (size 9 to 14) (size 15 to 20)
#    0.000    0.750    5.000    2.250    0.000    7.000 
#    0.000    6.250    0.000    0.000    0.000    0.000 
#    0.000    0.000    0.000    0.000    0.000    0.000 
#
# Total GULP energy -396926.517443 kJ/mol
# GULP energy per Si atom -12403.953670 kJ/mol
# Density = 2.025829 g / cm^3
# Si number density = 20.304505 Si / 1000 Ang^3
#
#
#
# Elastic Constant Matrix: (Units=GPa)
#
#
# Indices 1 2 3 4 5 6 
#
# 1 73.2684 24.5931 37.1589 0.0000 0.0000 0.0000
# 2 24.5931 121.2157 36.3292 0.0000 0.0000 0.0000
# 3 37.1589 36.3292 106.2720 0.0000 0.0000 0.0000
# 4 0.0000 0.0000 0.0000 8.8784 0.0000 0.0000
# 5 0.0000 0.0000 0.0000 0.0000 21.5092 0.0000
# 6 0.0000 0.0000 0.0000 0.0000 0.0000 -10.9028
#
#
#
# Elastic Compliance Matrix: (Units=1/GPa)
#
#
# Indices 1 2 3 4 5 6 
#
# 1 0.016956 -0.001853 -0.005295 0.000000 0.000000 0.000000
# 2 -0.001853 0.009394 -0.002563 0.000000 0.000000 0.000000
# 3 -0.005295 -0.002563 0.012138 0.000000 0.000000 0.000000
# 4 0.000000 0.000000 0.000000 0.112633 0.000000 0.000000
# 5 0.000000 0.000000 0.000000 0.000000 0.046492 0.000000
# 6 0.000000 0.000000 0.000000 0.000000 0.000000 -0.091720
#
#
# Mechanical properties :
#
#
# Convention : Reuss Voigt Hill
#
# Bulk Modulus (GPa) = 52.45477 55.21316 53.83397
# Shear Modulus (GPa) = 37.97336 17.40862 27.69099
#
# Velocity S-wave (km/s) = 4.32927 2.93128 3.69695
# Velocity P-wave (km/s) = 7.13304 6.22158 6.69284
#
# Compressibility (1/GPa) = 0.01906404
#
# Stress axis : x y z
#
# Youngs Moduli (GPa) = 58.97596 106.45102 82.38809
#
# Poissons Ratio (x) = 0.19727 0.43627
# Poissons Ratio (y) = 0.10929 0.21119
# Poissons Ratio (z) = 0.31230 0.27288
#
# Static dielectric constant tensor:
#      x y z
#    x 3.693380 0.000000 0.000000 
#    y 0.000000 -2.210200 0.000000 
#    z 0.000000 0.000000 3.778340 
# 
# 
# High freq. dielectric constant tensor:
#      x y z
#    x 1.795230 0.000000 0.000000 
#    y 0.000000 1.791220 0.000000 
#    z 0.000000 0.000000 1.801480 
# 
# From -- ./inp_files/8045.got.cif
#   From: 2010.03.12/outbox.cif.g09.slc.cpg/sg67_5_cif.got.tgz:8045.got - 2010.04.10 22:41:39.
