data_PCOD8281503
_publ_section_title
;
Structure prediction by ZEFSAII (Michael W. Deem and Ramdas Pophale) SiO2 
 PCOD8281503
Probable space group: C M M A
;
_chemical_formula_sum "Si O2"
_cell_formula_units_Z 44
_cell_length_a 18.630675
_cell_length_b 14.075174
_cell_length_c 7.325720
_cell_angle_alpha 90.000000
_cell_angle_beta 90.000000
_cell_angle_gamma 90.000000
_cell_volume 1921.023500
_symmetry_space_group_name_H-M "C M M A"
_symmetry_group_IT_number 67
_symmetry_cell_setting 'orthorhombic'
loop_
_space_group_symop_operation_xyz
x,y,z
-x,1/2-y,z
x,-y,-z
-x,1/2+y,-z
-x,-y,-z
x,1/2+y,-z
-x,y,z
x,1/2-y,z
1/2+x,1/2+y,z
1/2-x,-y,z
1/2+x,1/2-y,-z
1/2-x,y,-z
1/2-x,1/2-y,-z
1/2+x,y,-z
1/2-x,1/2+y,z
1/2+x,-y,z
loop_
_atom_site_type_symbol
_atom_site_label
_atom_site_fract_x
_atom_site_fract_y
_atom_site_fract_z
Si Si1 0.500000 0.438601 0.676537
Si Si2 0.228334 0.250000 0.287512
Si Si3 0.886356 0.250000 0.841097
Si Si4 0.500000 0.750000 0.530231
Si Si5 0.134818 0.589584 0.899363
O O1 0.500000 0.500000 0.500000
O O2 0.500000 0.331311 0.615727
O O3 0.427684 0.461347 0.785594
O O4 0.250000 0.250000 0.500000
O O5 0.300766 0.250000 0.173994
O O6 0.186283 0.346721 0.231417
O O7 0.928038 0.250000 0.650674
O O8 0.905850 0.156067 0.953837
O O9 0.175085 0.500000 0.000000
#
# Coordination Sequence:
#
# PCOD8281503 Si02
#       5
#     8   8   8   4  16
#     4  12  24  40  64  98 130 166 222 272 319 387
#     4  11  25  44  66  97 133 170 221 273 324 396
#     4  11  23  42  66  95 128 170 220 263 324 406
#     4  12  22  40  68  96 128 170 206 272 334 370
#     4  11  23  42  65  93 130 175 217 268 327 389
#
# _framework density 22.904454999999999
#
# number of rings (size 3 to 8) (size 9 to 14) (size 15 to 20)
#    0.000    0.727    0.000   10.364    0.000    2.909 
#    0.000    1.818    0.000    0.000    0.000    0.000 
#    0.000    0.000    0.000    0.000    0.000    0.000 
#
# Total GULP energy -272725.453858 kJ/mol
# GULP energy per Si atom -12396.611539 kJ/mol
# Density = 2.285232 g / cm^3
# Si number density = 22.904455 Si / 1000 Ang^3
#
#
#
# Elastic Constant Matrix: (Units=GPa)
#
#
# Indices 1 2 3 4 5 6 
#
# 1 133.0369 19.5846 31.8436 0.0000 0.0000 0.0000
# 2 19.5846 159.3838 51.9705 0.0000 0.0000 0.0000
# 3 31.8436 51.9705 108.3765 0.0000 0.0000 0.0000
# 4 0.0000 0.0000 0.0000 53.5418 0.0000 0.0000
# 5 0.0000 0.0000 0.0000 0.0000 48.3783 0.0000
# 6 0.0000 0.0000 0.0000 0.0000 0.0000 -63.5713
#
#
#
# Elastic Compliance Matrix: (Units=1/GPa)
#
#
# Indices 1 2 3 4 5 6 
#
# 1 0.008094 -0.000260 -0.002254 0.000000 0.000000 0.000000
# 2 -0.000260 0.007445 -0.003494 0.000000 0.000000 0.000000
# 3 -0.002254 -0.003494 0.011565 0.000000 0.000000 0.000000
# 4 0.000000 0.000000 0.000000 0.018677 0.000000 0.000000
# 5 0.000000 0.000000 0.000000 0.000000 0.020670 0.000000
# 6 0.000000 0.000000 0.000000 0.000000 0.000000 -0.015730
#
#
# Mechanical properties :
#
#
# Convention : Reuss Voigt Hill
#
# Bulk Modulus (GPa) = 66.27100 67.51051 66.89075
# Shear Modulus (GPa) = 73.78270 27.49632 50.63951
#
# Velocity S-wave (km/s) = 5.68183 3.46855 4.70712
# Velocity P-wave (km/s) = 8.48768 6.75129 7.66879
#
# Compressibility (1/GPa) = 0.01508956
#
# Stress axis : x y z
#
# Youngs Moduli (GPa) = 123.54205 134.31152 86.46914
#
# Poissons Ratio (x) = 0.03488 0.19488
# Poissons Ratio (y) = 0.03209 0.30212
# Poissons Ratio (z) = 0.27844 0.46929
#
# Static dielectric constant tensor:
#      x y z
#    x 4.137160 0.000000 0.000000 
#    y 0.000000 4.150190 0.000000 
#    z 0.000000 0.000000 4.270860 
# 
# 
# High freq. dielectric constant tensor:
#      x y z
#    x 1.902110 0.000000 0.000000 
#    y 0.000000 1.918450 0.000000 
#    z 0.000000 0.000000 1.918740 
# 
# From -- ./inp_files/7312.got.cif
#   From: 2010.03.12/outbox.cif.g09.slc.cpg/sg67_4_cif.got.tgz:7312.got - 2010.04.10 22:41:39.
