data_PCOD8281688
_publ_section_title
;
Structure prediction by ZEFSAII (Michael W. Deem and Ramdas Pophale) SiO2 
 PCOD8281688
Probable space group: C C C A
;
_chemical_formula_sum "Si O2"
_cell_formula_units_Z 88
_cell_length_a 23.154086
_cell_length_b 14.111859
_cell_length_c 13.688806
_cell_angle_alpha 90.000000
_cell_angle_beta 90.000000
_cell_angle_gamma 90.000000
_cell_volume 4472.778989
_symmetry_space_group_name_H-M "C C C A"
_symmetry_group_IT_number 68
_space_group.IT_coordinate_system_code '2'
_symmetry_cell_setting 'orthorhombic'
loop_
_space_group_symop_operation_xyz
x,y,z
-x,1/2-y,z
x,1/2-y,1/2-z
-x,y,1/2-z
-x,-y,-z
x,1/2+y,-z
-x,1/2+y,1/2+z
x,-y,1/2+z
1/2+x,1/2+y,z
1/2-x,-y,z
1/2+x,-y,1/2-z
1/2-x,1/2+y,1/2-z
1/2-x,1/2-y,-z
1/2+x,y,-z
1/2-x,y,1/2+z
1/2+x,1/2-y,1/2+z
loop_
_atom_site_type_symbol
_atom_site_label
_atom_site_fract_x
_atom_site_fract_y
_atom_site_fract_z
Si Si1 0.817138 0.987817 0.626935
Si Si2 0.492348 0.644183 0.066377
Si Si3 0.629984 0.658065 0.508269
Si Si4 0.115407 0.375556 0.490718
Si Si5 0.877366 0.021095 0.823196
Si Si6 0.000000 0.514931 0.750000
O O1 0.853704 0.069225 0.575749
O O2 0.750000 0.000000 0.607312
O O3 0.834689 0.886582 0.581792
O O4 0.830743 0.998383 0.740537
O O5 0.500000 0.750000 0.108113
O O6 0.482569 0.578153 0.158468
O O7 0.437272 0.631978 0.998178
O O8 0.546092 0.620286 0.995079
O O9 0.640884 0.769657 0.498913
O O10 0.646262 0.610717 0.613012
O O11 0.125180 0.423936 0.385614
O O12 0.941773 0.043374 0.779243
#
# Coordination Sequence:
#
# PCOD8281688 Si02
#       6
#    16  16  16  16  16   8
#     4  11  24  41  60  85 120 158 204 245 289 351
#     4   9  17  32  58  90 121 148 187 241 291 354
#     4  10  21  40  61  88 123 155 194 244 297 353
#     4   9  22  39  61  90 119 155 195 243 299 351
#     4  10  22  35  60  88 118 158 199 242 293 353
#     4  10  17  30  56  87 118 154 188 238 295 343
#
# _framework density 19.674569000000002
#
# number of rings (size 3 to 8) (size 9 to 14) (size 15 to 20)
#    0.000    2.182    1.818    0.273    2.545    7.273 
#    0.000    1.818    0.000    0.000    0.000    0.000 
#    0.000    0.000    0.000    0.000    0.000    0.000 
#
# Total GULP energy -545372.808367 kJ/mol
# GULP energy per Si atom -12394.836554 kJ/mol
# Density = 1.962979 g / cm^3
# Si number density = 19.674569 Si / 1000 Ang^3
#
#
#
# Elastic Constant Matrix: (Units=GPa)
#
#
# Indices 1 2 3 4 5 6 
#
# 1 68.4304 21.2180 19.4874 0.0000 0.0000 0.0000
# 2 21.2180 92.5113 24.9578 0.0000 0.0000 0.0000
# 3 19.4874 24.9578 85.4094 0.0000 0.0000 0.0000
# 4 0.0000 0.0000 0.0000 13.2639 0.0000 0.0000
# 5 0.0000 0.0000 0.0000 0.0000 22.9567 0.0000
# 6 0.0000 0.0000 0.0000 0.0000 0.0000 9.7344
#
#
#
# Elastic Compliance Matrix: (Units=1/GPa)
#
#
# Indices 1 2 3 4 5 6 
#
# 1 0.016352 -0.002979 -0.002860 0.000000 0.000000 0.000000
# 2 -0.002979 0.012277 -0.002908 0.000000 0.000000 0.000000
# 3 -0.002860 -0.002908 0.013211 0.000000 0.000000 0.000000
# 4 0.000000 0.000000 0.000000 0.075393 0.000000 0.000000
# 5 0.000000 0.000000 0.000000 0.000000 0.043560 0.000000
# 6 0.000000 0.000000 0.000000 0.000000 0.000000 0.102729
#
#
# Mechanical properties :
#
#
# Convention : Reuss Voigt Hill
#
# Bulk Modulus (GPa) = 41.07554 41.96417 41.51986
# Shear Modulus (GPa) = 17.29325 21.23685 19.26505
#
# Velocity S-wave (km/s) = 2.96795 3.28900 3.13259
# Velocity P-wave (km/s) = 5.71557 5.98321 5.85092
#
# Compressibility (1/GPa) = 0.02434539
#
# Stress axis : x y z
#
# Youngs Moduli (GPa) = 61.15624 81.45207 75.69618
#
# Poissons Ratio (x) = 0.24261 0.21653
# Poissons Ratio (y) = 0.18216 0.22012
# Poissons Ratio (z) = 0.17493 0.23686
#
# Static dielectric constant tensor:
#      x y z
#    x 3.544150 0.000000 0.000000 
#    y 0.000000 3.640670 0.000000 
#    z 0.000000 0.000000 3.528870 
# 
# 
# High freq. dielectric constant tensor:
#      x y z
#    x 1.757380 0.000000 0.000000 
#    y 0.000000 1.760570 0.000000 
#    z 0.000000 0.000000 1.766810 
# 
# From -- ./inp_files/13290.got.cif
#   From: 2010.03.12/outbox.cif.g09.slc.cpg/sg68_7_cif.got.tgz:13290.got - 2010.04.10 23:14:56.
