data_PCOD8281475
_publ_section_title
;
Structure prediction by ZEFSAII (Michael W. Deem and Ramdas Pophale) SiO2 
 PCOD8281475
Probable space group: C M M A
;
_chemical_formula_sum "Si O2"
_cell_formula_units_Z 44
_cell_length_a 14.147687
_cell_length_b 13.640763
_cell_length_c 9.911436
_cell_angle_alpha 90.000000
_cell_angle_beta 90.000000
_cell_angle_gamma 90.000000
_cell_volume 1912.760908
_symmetry_space_group_name_H-M "C M M A"
_symmetry_group_IT_number 67
_symmetry_cell_setting 'orthorhombic'
loop_
_space_group_symop_operation_xyz
x,y,z
-x,1/2-y,z
x,-y,-z
-x,1/2+y,-z
-x,-y,-z
x,1/2+y,-z
-x,y,z
x,1/2-y,z
1/2+x,1/2+y,z
1/2-x,-y,z
1/2+x,1/2-y,-z
1/2-x,y,-z
1/2-x,1/2-y,-z
1/2+x,y,-z
1/2-x,1/2+y,z
1/2+x,-y,z
loop_
_atom_site_type_symbol
_atom_site_label
_atom_site_fract_x
_atom_site_fract_y
_atom_site_fract_z
Si Si1 0.000000 0.430963 0.785864
Si Si2 0.500000 0.750000 0.984256
Si Si3 0.811815 0.750000 0.866255
Si Si4 0.339536 0.560900 0.298282
Si Si5 0.000000 0.137765 0.484011
O O1 0.094164 0.497410 0.803328
O O2 0.000000 0.348037 0.897670
O O3 0.000000 0.376603 0.642599
O O4 0.418431 0.750000 0.091249
O O5 0.793315 0.846165 0.776889
O O6 0.750000 0.750000 0.000000
O O7 0.250000 0.500000 0.351845
O O8 0.405112 0.589463 0.424974
O O9 0.000000 0.250000 0.442286
#
# Coordination Sequence:
#
# PCOD8281475 Si02
#       5
#     8   4   8  16   8
#     4  11  25  41  70 100 139 172 227 275 337 408
#     4  12  24  42  64 100 132 186 220 274 332 392
#     4  12  26  43  67  95 137 176 233 274 328 398
#     4  11  24  44  70  99 133 179 225 280 339 394
#     4  11  22  47  73  99 136 176 220 280 339 407
#
# _framework density 23.003399000000002
#
# number of rings (size 3 to 8) (size 9 to 14) (size 15 to 20)
#    0.000    0.727    2.727    6.545    0.000    9.455 
#    0.000    1.818    0.000    0.000    0.000    0.000 
#    0.000    0.000    0.000    0.000    0.000    0.000 
#
# Total GULP energy -272854.002944 kJ/mol
# GULP energy per Si atom -12402.454679 kJ/mol
# Density = 2.295104 g / cm^3
# Si number density = 23.003399 Si / 1000 Ang^3
#
#
#
# Elastic Constant Matrix: (Units=GPa)
#
#
# Indices 1 2 3 4 5 6 
#
# 1 151.5196 50.0458 18.2316 0.0000 0.0000 0.0000
# 2 50.0458 152.9347 23.3327 0.0000 0.0000 0.0000
# 3 18.2316 23.3327 76.5533 0.0000 0.0000 0.0000
# 4 0.0000 0.0000 0.0000 10.9887 0.0000 0.0000
# 5 0.0000 0.0000 0.0000 0.0000 -3.8395 0.0000
# 6 0.0000 0.0000 0.0000 0.0000 0.0000 44.7624
#
#
#
# Elastic Compliance Matrix: (Units=1/GPa)
#
#
# Indices 1 2 3 4 5 6 
#
# 1 0.007485 -0.002284 -0.001087 0.000000 0.000000 0.000000
# 2 -0.002284 0.007554 -0.001759 0.000000 0.000000 0.000000
# 3 -0.001087 -0.001759 0.013858 0.000000 0.000000 0.000000
# 4 0.000000 0.000000 0.000000 0.091002 0.000000 0.000000
# 5 0.000000 0.000000 0.000000 0.000000 -0.260452 0.000000
# 6 0.000000 0.000000 0.000000 0.000000 0.000000 0.022340
#
#
# Mechanical properties :
#
#
# Convention : Reuss Voigt Hill
#
# Bulk Modulus (GPa) = 53.65030 62.69200 58.17115
# Shear Modulus (GPa) = -49.14385 29.67549 -9.73418
#
# Velocity S-wave (km/s) = -4.62711 3.59562 -2.05932
# Velocity P-wave (km/s) = 2.27451 6.67462 4.43718
#
# Compressibility (1/GPa) = 0.01863922
#
# Stress axis : x y z
#
# Youngs Moduli (GPa) = 133.60455 132.37498 72.16272
#
# Poissons Ratio (x) = 0.30228 0.07841
# Poissons Ratio (y) = 0.30509 0.12691
# Poissons Ratio (z) = 0.14517 0.23280
#
# Static dielectric constant tensor:
#      x y z
#    x 4.250510 0.000000 0.000000 
#    y 0.000000 4.660720 0.000000 
#    z 0.000000 0.000000 3.823640 
# 
# 
# High freq. dielectric constant tensor:
#      x y z
#    x 1.917360 0.000000 0.000000 
#    y 0.000000 1.934520 0.000000 
#    z 0.000000 0.000000 1.898730 
# 
# From -- ./inp_files/17108.got.cif
#   From: 2010.03.12/outbox.cif.g09.slc.cpg/sg67_9_cif.got.tgz:17108.got - 2010.04.10 22:41:39.
