data_PCOD8281959
_publ_section_title
;
Structure prediction by ZEFSAII (Michael W. Deem and Ramdas Pophale) SiO2 
 PCOD8281959
Probable space group: C C C A
;
_chemical_formula_sum "Si O2"
_cell_formula_units_Z 96
_cell_length_a 15.831726
_cell_length_b 28.793694
_cell_length_c 10.437219
_cell_angle_alpha 90.000000
_cell_angle_beta 90.000000
_cell_angle_gamma 90.000000
_cell_volume 4757.846714
_symmetry_space_group_name_H-M "C C C A"
_symmetry_group_IT_number 68
_space_group.IT_coordinate_system_code '2'
_symmetry_cell_setting 'orthorhombic'
loop_
_space_group_symop_operation_xyz
x,y,z
-x,1/2-y,z
x,1/2-y,1/2-z
-x,y,1/2-z
-x,-y,-z
x,1/2+y,-z
-x,1/2+y,1/2+z
x,-y,1/2+z
1/2+x,1/2+y,z
1/2-x,-y,z
1/2+x,-y,1/2-z
1/2-x,1/2+y,1/2-z
1/2-x,1/2-y,-z
1/2+x,y,-z
1/2-x,y,1/2+z
1/2+x,1/2-y,1/2+z
loop_
_atom_site_type_symbol
_atom_site_label
_atom_site_fract_x
_atom_site_fract_y
_atom_site_fract_z
Si Si1 0.851801 0.942569 0.517156
Si Si2 0.151843 0.953529 0.486927
Si Si3 0.410994 0.707673 0.319681
Si Si4 0.500000 0.323005 0.250000
Si Si5 0.837744 0.392267 0.225461
Si Si6 0.000000 0.250000 0.545686
Si Si7 0.638007 0.102855 0.255660
O O1 0.752312 0.950368 0.513273
O O2 0.877358 0.912511 0.642615
O O3 0.890021 0.916174 0.394514
O O4 0.887847 0.994875 0.512363
O O5 0.125142 0.925405 0.614211
O O6 0.115224 0.933108 0.355912
O O7 0.360597 0.750000 0.250000
O O8 0.500000 0.700047 0.250000
O O9 0.361910 0.659906 0.310600
O O10 0.425163 0.726208 0.463682
O O11 0.466136 0.291743 0.366891
O O12 0.416605 0.352464 0.217925
O O13 0.737540 0.388568 0.239449
#
# Coordination Sequence:
#
# PCOD8281959 Si02
#       7
#    16  16  16   8  16   8  16
#     4   9  18  31  58  83 112 147 189 231 278 336
#     4   9  17  34  54  83 114 151 185 225 284 343
#     4   9  20  37  60  81 105 139 184 230 285 331
#     4  11  22  38  56  74 114 152 182 228 285 348
#     4  10  19  35  59  87 111 144 192 238 279 325
#     4   9  21  40  58  74 103 155 188 214 292 355
#     4  10  21  34  56  82 115 148 188 228 282 332
#
# _framework density 20.177194
#
# number of rings (size 3 to 8) (size 9 to 14) (size 15 to 20)
#    0.000    2.667    0.000    2.000    4.667    4.000 
#    3.000    1.667    3.667    0.000    0.000    0.000 
#    0.000    0.000    0.000    0.000    0.000    0.000 
#
# Total GULP energy -594688.840100 kJ/mol
# GULP energy per Si atom -12389.350835 kJ/mol
# Density = 2.013127 g / cm^3
# Si number density = 20.177194 Si / 1000 Ang^3
#
#
#
# Elastic Constant Matrix: (Units=GPa)
#
#
# Indices 1 2 3 4 5 6 
#
# 1 30.4606 29.2108 20.7422 0.0000 0.0000 0.0000
# 2 29.2108 173.3836 78.0124 0.0000 0.0000 0.0000
# 3 20.7422 78.0124 171.5228 0.0000 0.0000 0.0000
# 4 0.0000 0.0000 0.0000 27.8088 0.0000 0.0000
# 5 0.0000 0.0000 0.0000 0.0000 9.8981 0.0000
# 6 0.0000 0.0000 0.0000 0.0000 0.0000 46.8661
#
#
#
# Elastic Compliance Matrix: (Units=1/GPa)
#
#
# Indices 1 2 3 4 5 6 
#
# 1 0.039815 -0.005710 -0.002218 0.000000 0.000000 0.000000
# 2 -0.005710 0.008070 -0.002980 0.000000 0.000000 0.000000
# 3 -0.002218 -0.002980 0.007454 0.000000 0.000000 0.000000
# 4 0.000000 0.000000 0.000000 0.035960 0.000000 0.000000
# 5 0.000000 0.000000 0.000000 0.000000 0.101029 0.000000
# 6 0.000000 0.000000 0.000000 0.000000 0.000000 0.021337
#
#
# Mechanical properties :
#
#
# Convention : Reuss Voigt Hill
#
# Bulk Modulus (GPa) = 29.82977 70.14417 49.98697
# Shear Modulus (GPa) = 20.27117 33.40807 26.83962
#
# Velocity S-wave (km/s) = 3.17307 4.07349 3.65114
# Velocity P-wave (km/s) = 5.31418 7.54745 6.52704
#
# Compressibility (1/GPa) = 0.03352356
#
# Stress axis : x y z
#
# Youngs Moduli (GPa) = 25.11606 123.90937 134.16074
#
# Poissons Ratio (x) = 0.70752 0.29754
# Poissons Ratio (y) = 0.14341 0.39981
# Poissons Ratio (z) = 0.05570 0.36926
#
# Static dielectric constant tensor:
#      x y z
#    x 3.215940 0.000000 0.000000 
#    y 0.000000 3.959250 0.000000 
#    z 0.000000 0.000000 4.040850 
# 
# 
# High freq. dielectric constant tensor:
#      x y z
#    x 1.739310 0.000000 0.000000 
#    y 0.000000 1.803830 0.000000 
#    z 0.000000 0.000000 1.807400 
# 
# From -- ./inp_files/14652.got.cif
#   From: 2010.03.12/outbox.cif.g09.slc.cpg/sg68_8_cif.got.tgz:14652.got - 2010.04.10 23:14:56.
