data_PCOD8281282
_publ_section_title
;
Structure prediction by ZEFSAII (Michael W. Deem and Ramdas Pophale) SiO2 
 PCOD8281282
Probable space group: C M M A
;
_chemical_formula_sum "Si O2"
_cell_formula_units_Z 72
_cell_length_a 14.678315
_cell_length_b 9.901772
_cell_length_c 25.362107
_cell_angle_alpha 90.000000
_cell_angle_beta 90.000000
_cell_angle_gamma 90.000000
_cell_volume 3686.162324
_symmetry_space_group_name_H-M "C M M A"
_symmetry_group_IT_number 67
_symmetry_cell_setting 'orthorhombic'
loop_
_space_group_symop_operation_xyz
x,y,z
-x,1/2-y,z
x,-y,-z
-x,1/2+y,-z
-x,-y,-z
x,1/2+y,-z
-x,y,z
x,1/2-y,z
1/2+x,1/2+y,z
1/2-x,-y,z
1/2+x,1/2-y,-z
1/2-x,y,-z
1/2-x,1/2-y,-z
1/2+x,y,-z
1/2-x,1/2+y,z
1/2+x,-y,z
loop_
_atom_site_type_symbol
_atom_site_label
_atom_site_fract_x
_atom_site_fract_y
_atom_site_fract_z
Si Si1 0.107719 0.750000 0.293870
Si Si2 0.896980 0.750000 0.700231
Si Si3 0.000000 0.091148 0.551390
Si Si4 0.605962 0.592352 0.050278
Si Si5 0.256388 0.750000 0.791677
Si Si6 0.351438 0.990676 0.633660
Si Si7 0.250000 0.500000 0.132671
O O1 0.144583 0.750000 0.234937
O O2 0.148733 0.619755 0.321058
O O3 0.000000 0.750000 0.295639
O O4 0.826123 0.750000 0.748945
O O5 0.885820 0.625356 0.661078
O O6 0.000000 0.750000 0.723741
O O7 0.000000 0.250000 0.536830
O O8 0.000000 0.000000 0.500000
O O9 0.911583 0.054641 0.584712
O O10 0.500000 0.584507 0.065089
O O11 0.634459 0.750000 0.040652
O O12 0.660724 0.522988 0.097454
O O13 0.628431 0.500000 0.000000
O O14 0.256109 0.624310 0.829160
O O15 0.250000 0.000000 0.610767
#
# Coordination Sequence:
#
# PCOD8281282 Si02
#       7
#     8   8   8  16   8  16   8
#     4  12  22  44  68  94 129 176 229 272 320 386
#     4  12  24  40  70 100 127 174 231 272 320 388
#     4  12  28  48  70 104 140 172 218 276 345 402
#     4  10  23  44  71  98 129 175 228 275 335 412
#     4  12  26  40  63 102 137 174 228 278 328 398
#     4  12  22  43  72  98 131 172 219 275 327 388
#     4  12  25  42  64  96 146 176 209 282 350 386
#
# _framework density 19.532509999999998
#
# number of rings (size 3 to 8) (size 9 to 14) (size 15 to 20)
#    0.000    0.444    6.667    1.667    3.111    3.111 
#    0.000    1.111    0.000    0.000    0.000    0.000 
#    0.000    0.000    0.000    0.000    0.000    0.000 
#
# Total GULP energy -446377.953679 kJ/mol
# GULP energy per Si atom -12399.387602 kJ/mol
# Density = 1.948805 g / cm^3
# Si number density = 19.532510 Si / 1000 Ang^3
#
#
#
# Elastic Constant Matrix: (Units=GPa)
#
#
# Indices 1 2 3 4 5 6 
#
# 1 124.4239 43.0811 50.0600 0.0000 0.0000 0.0000
# 2 43.0811 174.8089 75.9521 0.0000 0.0000 0.0000
# 3 50.0600 75.9521 134.1557 0.0000 0.0000 0.0000
# 4 0.0000 0.0000 0.0000 48.2669 0.0000 0.0000
# 5 0.0000 0.0000 0.0000 0.0000 -13.9478 0.0000
# 6 0.0000 0.0000 0.0000 0.0000 0.0000 35.1837
#
#
#
# Elastic Compliance Matrix: (Units=1/GPa)
#
#
# Indices 1 2 3 4 5 6 
#
# 1 0.009607 -0.001074 -0.002976 0.000000 0.000000 0.000000
# 2 -0.001074 0.007707 -0.003962 0.000000 0.000000 0.000000
# 3 -0.002976 -0.003962 0.010808 0.000000 0.000000 0.000000
# 4 0.000000 0.000000 0.000000 0.020718 0.000000 0.000000
# 5 0.000000 0.000000 0.000000 0.000000 -0.071696 0.000000
# 6 0.000000 0.000000 0.000000 0.000000 0.000000 0.028422
#
#
# Mechanical properties :
#
#
# Convention : Reuss Voigt Hill
#
# Bulk Modulus (GPa) = 82.67761 85.73053 84.20407
# Shear Modulus (GPa) = 195.12943 31.52024 113.32483
#
# Velocity S-wave (km/s) = 10.00583 4.02149 7.62526
# Velocity P-wave (km/s) = 13.26307 8.09627 10.98769
#
# Compressibility (1/GPa) = 0.01209517
#
# Stress axis : x y z
#
# Youngs Moduli (GPa) = 104.09577 129.75417 92.52408
#
# Poissons Ratio (x) = 0.13939 0.27540
# Poissons Ratio (y) = 0.11183 0.36662
# Poissons Ratio (z) = 0.30984 0.51414
#
# Static dielectric constant tensor:
#      x y z
#    x 3.738790 0.000000 0.000000 
#    y 0.000000 3.866830 0.000000 
#    z 0.000000 0.000000 3.693720 
# 
# 
# High freq. dielectric constant tensor:
#      x y z
#    x 1.777240 0.000000 0.000000 
#    y 0.000000 1.787980 0.000000 
#    z 0.000000 0.000000 1.758050 
# 
# From -- ./inp_files/44280.got.cif
#   From: 2010.03.12/outbox.cif.g09.slc.cpg/sg67_23_cif.got.tgz:44280.got - 2010.04.10 22:41:39.
