data_PCOD8281210
_publ_section_title
;
Structure prediction by ZEFSAII (Michael W. Deem and Ramdas Pophale) SiO2 
 PCOD8281210
Probable space group: C M M A
;
_chemical_formula_sum "Si O2"
_cell_formula_units_Z 92
_cell_length_a 22.208822
_cell_length_b 21.310028
_cell_length_c 8.778824
_cell_angle_alpha 90.000000
_cell_angle_beta 90.000000
_cell_angle_gamma 90.000000
_cell_volume 4154.759466
_symmetry_space_group_name_H-M "C M M A"
_symmetry_group_IT_number 67
_symmetry_cell_setting 'orthorhombic'
loop_
_space_group_symop_operation_xyz
x,y,z
-x,1/2-y,z
x,-y,-z
-x,1/2+y,-z
-x,-y,-z
x,1/2+y,-z
-x,y,z
x,1/2-y,z
1/2+x,1/2+y,z
1/2-x,-y,z
1/2+x,1/2-y,-z
1/2-x,y,-z
1/2-x,1/2-y,-z
1/2+x,y,-z
1/2-x,1/2+y,z
1/2+x,-y,z
loop_
_atom_site_type_symbol
_atom_site_label
_atom_site_fract_x
_atom_site_fract_y
_atom_site_fract_z
Si Si1 0.628142 0.480992 0.177625
Si Si2 0.568021 0.750000 0.758172
Si Si3 0.000000 0.005809 0.825706
Si Si4 0.661214 0.642740 0.678700
Si Si5 0.500000 0.634564 0.277692
Si Si6 0.368487 0.889939 0.345267
Si Si7 0.000000 0.250000 0.050080
Si Si8 0.774269 0.679527 0.843589
O O1 0.560245 0.458820 0.225361
O O2 0.666122 0.419421 0.214757
O O3 0.640516 0.538244 0.292449
O O4 0.636064 0.500000 0.000000
O O5 0.500000 0.750000 0.682714
O O6 0.604039 0.687468 0.710043
O O7 0.559555 0.750000 0.942008
O O8 0.000000 0.933417 0.789833
O O9 0.000000 0.000000 0.000000
O O10 0.663851 0.619876 0.505445
O O11 0.722684 0.679136 0.714289
O O12 0.563191 0.636519 0.369784
O O13 0.500000 0.687992 0.151021
O O14 0.335635 0.851628 0.212777
O O15 0.793055 0.750000 0.881888
O O16 0.750000 0.647514 0.000000
#
# Coordination Sequence:
#
# PCOD8281210 Si02
#       8
#    16   8   8  16   8  16   4  16
#     4  10  22  40  70  98 134 178 232 284 333 403
#     4  10  28  39  67 101 141 185 228 278 339 402
#     4   8  18  33  60  90 127 168 217 268 337 375
#     4  12  25  45  68 100 146 174 231 275 354 410
#     4  10  24  40  64 102 134 173 225 280 335 401
#     4  11  26  44  69 103 139 179 225 280 356 403
#     4  10  26  38  66  98 144 172 242 278 334 382
#     4  11  26  45  72  97 134 184 236 281 332 408
#
# _framework density 22.143280000000001
#
# number of rings (size 3 to 8) (size 9 to 14) (size 15 to 20)
#    0.261    1.217    0.870    2.087   14.609    1.391 
#    0.000    6.087    0.000    0.000    0.000    0.000 
#    0.000    0.000    0.000    0.000    0.000    0.000 
#
# Total GULP energy -569851.245427 kJ/mol
# GULP energy per Si atom -12388.070553 kJ/mol
# Density = 2.209288 g / cm^3
# Si number density = 22.143280 Si / 1000 Ang^3
#
#
#
# Elastic Constant Matrix: (Units=GPa)
#
#
# Indices 1 2 3 4 5 6 
#
# 1 88.9730 22.8830 10.2716 0.0000 0.0000 0.0000
# 2 22.8830 70.1633 26.2240 0.0000 0.0000 0.0000
# 3 10.2716 26.2240 110.0270 0.0000 0.0000 0.0000
# 4 0.0000 0.0000 0.0000 37.3612 0.0000 0.0000
# 5 0.0000 0.0000 0.0000 0.0000 28.9896 0.0000
# 6 0.0000 0.0000 0.0000 0.0000 0.0000 14.3708
#
#
#
# Elastic Compliance Matrix: (Units=1/GPa)
#
#
# Indices 1 2 3 4 5 6 
#
# 1 0.012273 -0.003924 -0.000210 0.000000 0.000000 0.000000
# 2 -0.003924 0.016901 -0.003662 0.000000 0.000000 0.000000
# 3 -0.000210 -0.003662 0.009981 0.000000 0.000000 0.000000
# 4 0.000000 0.000000 0.000000 0.026766 0.000000 0.000000
# 5 0.000000 0.000000 0.000000 0.000000 0.034495 0.000000
# 6 0.000000 0.000000 0.000000 0.000000 0.000000 0.069586
#
#
# Mechanical properties :
#
#
# Convention : Reuss Voigt Hill
#
# Bulk Modulus (GPa) = 42.44088 43.10227 42.77158
# Shear Modulus (GPa) = 25.84675 30.12998 27.98837
#
# Velocity S-wave (km/s) = 3.42021 3.69275 3.55909
# Velocity P-wave (km/s) = 5.89959 6.13916 6.02057
#
# Compressibility (1/GPa) = 0.02356219
#
# Stress axis : x y z
#
# Youngs Moduli (GPa) = 81.48042 59.16850 100.18936
#
# Poissons Ratio (x) = 0.23218 0.02109
# Poissons Ratio (y) = 0.31973 0.36688
# Poissons Ratio (z) = 0.01715 0.21667
#
# Static dielectric constant tensor:
#      x y z
#    x 4.414900 0.000000 0.000000 
#    y 0.000000 4.009350 0.000000 
#    z 0.000000 0.000000 3.816210 
# 
# 
# High freq. dielectric constant tensor:
#      x y z
#    x 1.876840 0.000000 0.000000 
#    y 0.000000 1.875060 0.000000 
#    z 0.000000 0.000000 1.867000 
# 
# From -- ./inp_files/11349.got.cif
#   From: 2010.03.12/outbox.cif.g09.slc.cpg/sg67_6_cif.got.tgz:11349.got - 2010.04.10 22:41:39.
