data_PCOD8281362
_publ_section_title
;
Structure prediction by ZEFSAII (Michael W. Deem and Ramdas Pophale) SiO2 
 PCOD8281362
Probable space group: C M M A
;
_chemical_formula_sum "Si O2"
_cell_formula_units_Z 80
_cell_length_a 25.109174
_cell_length_b 18.166745
_cell_length_c 9.266148
_cell_angle_alpha 90.000000
_cell_angle_beta 90.000000
_cell_angle_gamma 90.000000
_cell_volume 4226.771583
_symmetry_space_group_name_H-M "C M M A"
_symmetry_group_IT_number 67
_symmetry_cell_setting 'orthorhombic'
loop_
_space_group_symop_operation_xyz
x,y,z
-x,1/2-y,z
x,-y,-z
-x,1/2+y,-z
-x,-y,-z
x,1/2+y,-z
-x,y,z
x,1/2-y,z
1/2+x,1/2+y,z
1/2-x,-y,z
1/2+x,1/2-y,-z
1/2-x,y,-z
1/2-x,1/2-y,-z
1/2+x,y,-z
1/2-x,1/2+y,z
1/2+x,-y,z
loop_
_atom_site_type_symbol
_atom_site_label
_atom_site_fract_x
_atom_site_fract_y
_atom_site_fract_z
Si Si1 0.155401 0.834376 0.982155
Si Si2 0.875565 0.922673 0.555789
Si Si3 0.821566 0.335670 0.692804
Si Si4 0.060228 0.165161 0.220386
Si Si5 0.722179 0.424233 0.766092
O O1 0.172062 0.750000 0.952192
O O2 0.097260 0.851798 0.917492
O O3 0.200272 0.885325 0.910063
O O4 0.152635 0.851509 0.151035
O O5 0.860693 0.870381 0.423567
O O6 0.922127 0.883253 0.643997
O O7 0.824718 0.940478 0.654429
O O8 0.898517 0.000000 0.500000
O O9 0.815712 0.250000 0.659375
O O10 0.763119 0.370822 0.684536
O O11 0.065385 0.250000 0.266768
O O12 0.000000 0.144827 0.176903
O O13 0.750000 0.500000 0.812303
#
# Coordination Sequence:
#
# PCOD8281362 Si02
#       5
#    16  16  16  16  16
#     4   9  20  37  56  83 113 145 192 237 281 337
#     4  11  22  37  54  82 118 148 191 234 277 335
#     4  11  22  35  55  82 115 151 187 234 283 333
#     4   9  19  39  64  83 106 147 193 237 290 345
#     4  11  21  35  53  81 115 157 192 223 272 339
#
# _framework density 18.926974000000001
#
# number of rings (size 3 to 8) (size 9 to 14) (size 15 to 20)
#    0.000    1.800    2.000    2.400    0.000    6.800 
#    0.000    1.000    0.000    4.800    0.000    0.000 
#    0.000    0.000    0.000    0.000    0.000    0.000 
#
# Total GULP energy -496185.633880 kJ/mol
# GULP energy per Si atom -12404.640847 kJ/mol
# Density = 1.888390 g / cm^3
# Si number density = 18.926974 Si / 1000 Ang^3
#
#
#
# Elastic Constant Matrix: (Units=GPa)
#
#
# Indices 1 2 3 4 5 6 
#
# 1 89.1376 34.1933 19.1965 0.0000 0.0000 0.0000
# 2 34.1933 94.6187 20.7964 0.0000 0.0000 0.0000
# 3 19.1965 20.7964 57.5350 0.0000 0.0000 0.0000
# 4 0.0000 0.0000 0.0000 20.8738 0.0000 0.0000
# 5 0.0000 0.0000 0.0000 0.0000 15.8680 0.0000
# 6 0.0000 0.0000 0.0000 0.0000 0.0000 24.2409
#
#
#
# Elastic Compliance Matrix: (Units=1/GPa)
#
#
# Indices 1 2 3 4 5 6 
#
# 1 0.013476 -0.004217 -0.002972 0.000000 0.000000 0.000000
# 2 -0.004217 0.012800 -0.003220 0.000000 0.000000 0.000000
# 3 -0.002972 -0.003220 0.019536 0.000000 0.000000 0.000000
# 4 0.000000 0.000000 0.000000 0.047907 0.000000 0.000000
# 5 0.000000 0.000000 0.000000 0.000000 0.063020 0.000000
# 6 0.000000 0.000000 0.000000 0.000000 0.000000 0.041253
#
#
# Mechanical properties :
#
#
# Convention : Reuss Voigt Hill
#
# Bulk Modulus (GPa) = 40.00764 43.29596 41.65180
# Shear Modulus (GPa) = 22.01273 23.33690 22.67481
#
# Velocity S-wave (km/s) = 3.41403 3.51521 3.46499
# Velocity P-wave (km/s) = 6.06008 6.27699 6.16949
#
# Compressibility (1/GPa) = 0.02499522
#
# Stress axis : x y z
#
# Youngs Moduli (GPa) = 74.20465 78.12325 51.18701
#
# Poissons Ratio (x) = 0.32943 0.15214
# Poissons Ratio (y) = 0.31291 0.16481
# Poissons Ratio (z) = 0.22055 0.25154
#
# Static dielectric constant tensor:
#      x y z
#    x 3.364580 0.000000 0.000000 
#    y 0.000000 3.604870 0.000000 
#    z 0.000000 0.000000 3.493120 
# 
# 
# High freq. dielectric constant tensor:
#      x y z
#    x 1.716590 0.000000 0.000000 
#    y 0.000000 1.746550 0.000000 
#    z 0.000000 0.000000 1.740450 
# 
# From -- ./inp_files/9883.got.cif
#   From: 2010.03.12/outbox.cif.g09.slc.cpg/sg67_5_cif.got.tgz:9883.got - 2010.04.10 22:41:39.
