data_PCOD8281779
_publ_section_title
;
Structure prediction by ZEFSAII (Michael W. Deem and Ramdas Pophale) SiO2 
 PCOD8281779
Probable space group: C C C A
;
_chemical_formula_sum "Si O2"
_cell_formula_units_Z 104
_cell_length_a 18.064379
_cell_length_b 20.553654
_cell_length_c 15.293482
_cell_angle_alpha 90.000000
_cell_angle_beta 90.000000
_cell_angle_gamma 90.000000
_cell_volume 5678.301572
_symmetry_space_group_name_H-M "C C C A"
_symmetry_group_IT_number 68
_space_group.IT_coordinate_system_code '2'
_symmetry_cell_setting 'orthorhombic'
loop_
_space_group_symop_operation_xyz
x,y,z
-x,1/2-y,z
x,1/2-y,1/2-z
-x,y,1/2-z
-x,-y,-z
x,1/2+y,-z
-x,1/2+y,1/2+z
x,-y,1/2+z
1/2+x,1/2+y,z
1/2-x,-y,z
1/2+x,-y,1/2-z
1/2-x,1/2+y,1/2-z
1/2-x,1/2-y,-z
1/2+x,y,-z
1/2-x,y,1/2+z
1/2+x,1/2-y,1/2+z
loop_
_atom_site_type_symbol
_atom_site_label
_atom_site_fract_x
_atom_site_fract_y
_atom_site_fract_z
Si Si1 0.335785 0.575551 0.728184
Si Si2 0.664215 0.924449 0.228184
Si Si3 0.421037 0.132799 0.922904
Si Si4 0.923280 0.924728 0.397488
Si Si5 0.076720 0.575272 0.897488
Si Si6 0.500000 0.750000 0.000000
Si Si7 0.921037 0.867201 0.077096
O O1 0.353902 0.500000 0.705921
O O2 0.250000 0.584759 0.749331
O O3 0.381773 0.600951 0.811471
O O4 0.356514 0.623049 0.647630
O O5 0.643486 0.876951 0.147630
O O6 0.618227 0.899049 0.311471
O O7 0.489280 0.088308 0.890309
O O8 0.390237 0.110402 0.017115
O O9 0.448988 0.206926 0.934995
O O10 0.010720 0.911692 0.390309
O O11 0.907209 1.000000 0.408580
O O12 0.109763 0.610402 0.982885
O O13 0.551012 0.706926 0.934995
#
# Coordination Sequence:
#
# PCOD8281779 Si02
#       7
#    16  16  16  16  16   8  16
#     4  10  20  32  50  80 112 136 160 199 257 318
#     4  10  20  32  50  80 112 136 160 199 257 318
#     4  10  18  34  54  72  99 135 174 214 255 290
#     4   9  17  30  51  77 100 127 169 215 256 303
#     4   9  17  30  51  77 100 127 169 215 256 303
#     4   8  20  36  54  76  96 130 184 228 242 276
#     4  10  18  34  54  72  99 135 174 214 255 290
#
# _framework density 18.315335000000001
#
# number of rings (size 3 to 8) (size 9 to 14) (size 15 to 20)
#    0.000    2.769    0.000    4.615    0.000    3.692 
#    0.000   16.154    0.000    9.231    0.000    0.000 
#    0.000    0.000    0.000    0.000    0.000    0.000 
#
# Total GULP energy -644665.189822 kJ/mol
# GULP energy per Si atom -12397.407497 kJ/mol
# Density = 1.827365 g / cm^3
# Si number density = 18.315335 Si / 1000 Ang^3
#
#
#
# Elastic Constant Matrix: (Units=GPa)
#
#
# Indices 1 2 3 4 5 6 
#
# 1 52.6779 13.9711 43.9608 0.0000 0.0000 0.0000
# 2 13.9711 77.3927 38.7654 0.0000 0.0000 0.0000
# 3 43.9608 38.7654 118.1110 0.0000 0.0000 0.0000
# 4 0.0000 0.0000 0.0000 18.0450 0.0000 0.0000
# 5 0.0000 0.0000 0.0000 0.0000 16.8309 0.0000
# 6 0.0000 0.0000 0.0000 0.0000 0.0000 16.9983
#
#
#
# Elastic Compliance Matrix: (Units=1/GPa)
#
#
# Indices 1 2 3 4 5 6 
#
# 1 0.027539 0.000195 -0.010314 0.000000 0.000000 0.000000
# 2 0.000195 0.015465 -0.005148 0.000000 0.000000 0.000000
# 3 -0.010314 -0.005148 0.013995 0.000000 0.000000 0.000000
# 4 0.000000 0.000000 0.000000 0.055417 0.000000 0.000000
# 5 0.000000 0.000000 0.000000 0.000000 0.059415 0.000000
# 6 0.000000 0.000000 0.000000 0.000000 0.000000 0.058829
#
#
# Mechanical properties :
#
#
# Convention : Reuss Voigt Hill
#
# Bulk Modulus (GPa) = 37.78718 49.06404 43.42561
# Shear Modulus (GPa) = 18.51748 20.47379 19.49563
#
# Velocity S-wave (km/s) = 3.18313 3.34705 3.26612
# Velocity P-wave (km/s) = 5.84688 6.46403 6.16318
#
# Compressibility (1/GPa) = 0.02646400
#
# Stress axis : x y z
#
# Youngs Moduli (GPa) = 36.31257 64.66370 71.45374
#
# Poissons Ratio (x) = -0.01259 0.73696
# Poissons Ratio (y) = -0.00707 0.36786
# Poissons Ratio (z) = 0.37452 0.33290
#
# Static dielectric constant tensor:
#      x y z
#    x 3.204120 0.000000 0.000000 
#    y 0.000000 3.186440 0.000000 
#    z 0.000000 0.000000 3.513130 
# 
# 
# High freq. dielectric constant tensor:
#      x y z
#    x 1.688360 0.000000 0.000000 
#    y 0.000000 1.688140 0.000000 
#    z 0.000000 0.000000 1.719940 
# 
# From -- ./inp_files/23818.got.cif
#   From: 2010.03.12/outbox.cif.g09.slc.cpg/sg68_12_cif.got.tgz:23818.got - 2010.04.10 23:14:56.
