data_PCOD8281265
_publ_section_title
;
Structure prediction by ZEFSAII (Michael W. Deem and Ramdas Pophale) SiO2 
 PCOD8281265
Probable space group: C M M A
;
_chemical_formula_sum "Si O2"
_cell_formula_units_Z 88
_cell_length_a 30.836749
_cell_length_b 25.454543
_cell_length_c 5.160280
_cell_angle_alpha 90.000000
_cell_angle_beta 90.000000
_cell_angle_gamma 90.000000
_cell_volume 4050.486205
_symmetry_space_group_name_H-M "C M M A"
_symmetry_group_IT_number 67
_symmetry_cell_setting 'orthorhombic'
loop_
_space_group_symop_operation_xyz
x,y,z
-x,1/2-y,z
x,-y,-z
-x,1/2+y,-z
-x,-y,-z
x,1/2+y,-z
-x,y,z
x,1/2-y,z
1/2+x,1/2+y,z
1/2-x,-y,z
1/2+x,1/2-y,-z
1/2-x,y,-z
1/2-x,1/2-y,-z
1/2+x,y,-z
1/2-x,1/2+y,z
1/2+x,-y,z
loop_
_atom_site_type_symbol
_atom_site_label
_atom_site_fract_x
_atom_site_fract_y
_atom_site_fract_z
Si Si1 0.093602 0.056106 0.116543
Si Si2 0.571167 0.250000 0.450074
Si Si3 0.372990 0.250000 0.951506
Si Si4 0.500000 0.098529 0.858985
Si Si5 0.644587 0.000000 0.500000
Si Si6 0.500000 0.665357 0.639125
Si Si7 0.336401 0.136932 0.930220
Si Si8 0.201655 0.089578 0.589870
O O1 0.118516 0.106298 0.993746
O O2 0.042218 0.062984 0.100777
O O3 0.112841 0.046548 0.400860
O O4 0.107372 0.000000 0.000000
O O5 0.587992 0.250000 0.743930
O O6 0.543139 0.301878 0.408325
O O7 0.609704 0.250000 0.244555
O O8 0.343802 0.198938 0.910591
O O9 0.500000 0.117904 0.563788
O O10 0.500000 0.145728 0.065128
O O11 0.677802 0.965093 0.673905
O O12 0.320589 0.118003 0.652750
O O13 0.300971 0.126553 0.155926
O O14 0.250000 0.077256 0.500000
#
# Coordination Sequence:
#
# PCOD8281265 Si02
#       8
#    16   8   8   8   8   8  16  16
#     4  11  23  42  63  94 134 176 225 267 329 378
#     4  11  22  40  68  88 127 170 236 282 313 376
#     4  12  24  43  69  98 126 178 216 266 336 393
#     4  12  27  38  64  92 139 180 214 268 329 398
#     4  10  23  41  68  94 134 172 226 281 321 394
#     4  11  24  42  58  96 125 173 229 283 326 360
#     4  11  24  42  67  97 135 168 220 273 327 400
#     4  11  23  43  68  99 130 170 216 272 338 399
#
# _framework density 21.725787
#
# number of rings (size 3 to 8) (size 9 to 14) (size 15 to 20)
#    0.000    0.909    1.818    5.455    2.545    3.273 
#    0.000    4.545    0.000    0.000    0.000    0.000 
#    0.000    0.000    0.000    0.000    0.000    0.000 
#
# Total GULP energy -545260.482603 kJ/mol
# GULP energy per Si atom -12392.283696 kJ/mol
# Density = 2.167634 g / cm^3
# Si number density = 21.725787 Si / 1000 Ang^3
#
#
#
# Elastic Constant Matrix: (Units=GPa)
#
#
# Indices 1 2 3 4 5 6 
#
# 1 97.5010 41.4521 11.7972 0.0000 0.0000 0.0000
# 2 41.4521 122.5346 18.7698 0.0000 0.0000 0.0000
# 3 11.7972 18.7698 84.8034 0.0000 0.0000 0.0000
# 4 0.0000 0.0000 0.0000 24.9151 0.0000 0.0000
# 5 0.0000 0.0000 0.0000 0.0000 33.4664 0.0000
# 6 0.0000 0.0000 0.0000 0.0000 0.0000 20.9000
#
#
#
# Elastic Compliance Matrix: (Units=1/GPa)
#
#
# Indices 1 2 3 4 5 6 
#
# 1 0.012031 -0.003948 -0.000800 0.000000 0.000000 0.000000
# 2 -0.003948 0.009743 -0.001607 0.000000 0.000000 0.000000
# 3 -0.000800 -0.001607 0.012259 0.000000 0.000000 0.000000
# 4 0.000000 0.000000 0.000000 0.040136 0.000000 0.000000
# 5 0.000000 0.000000 0.000000 0.000000 0.029881 0.000000
# 6 0.000000 0.000000 0.000000 0.000000 0.000000 0.047847
#
#
# Mechanical properties :
#
#
# Convention : Reuss Voigt Hill
#
# Bulk Modulus (GPa) = 46.89667 49.87523 48.38595
# Shear Modulus (GPa) = 29.11818 31.37764 30.24791
#
# Velocity S-wave (km/s) = 3.66493 3.80446 3.73535
# Velocity P-wave (km/s) = 6.28820 6.50424 6.39713
#
# Compressibility (1/GPa) = 0.02132348
#
# Stress axis : x y z
#
# Youngs Moduli (GPa) = 83.11595 102.64244 81.57271
#
# Poissons Ratio (x) = 0.40519 0.06526
# Poissons Ratio (y) = 0.32810 0.13110
# Poissons Ratio (z) = 0.06649 0.16497
#
# Static dielectric constant tensor:
#      x y z
#    x 3.839370 0.000000 0.000000 
#    y 0.000000 4.016640 0.000000 
#    z 0.000000 0.000000 4.079340 
# 
# 
# High freq. dielectric constant tensor:
#      x y z
#    x 1.852130 0.000000 0.000000 
#    y 0.000000 1.858110 0.000000 
#    z 0.000000 0.000000 1.854820 
# 
# From -- ./inp_files/4805.got.cif
#   From: 2010.03.12/outbox.cif.g09.slc.cpg/sg67_3_cif.got.tgz:4805.got - 2010.04.10 22:41:39.
