data_PCOD8281238
_publ_section_title
;
Structure prediction by ZEFSAII (Michael W. Deem and Ramdas Pophale) SiO2 
 PCOD8281238
Probable space group: C M M A
;
_chemical_formula_sum "Si O2"
_cell_formula_units_Z 112
_cell_length_a 23.078756
_cell_length_b 15.049515
_cell_length_c 14.176124
_cell_angle_alpha 90.000000
_cell_angle_beta 90.000000
_cell_angle_gamma 90.000000
_cell_volume 4923.709292
_symmetry_space_group_name_H-M "C M M A"
_symmetry_group_IT_number 67
_symmetry_cell_setting 'orthorhombic'
loop_
_space_group_symop_operation_xyz
x,y,z
-x,1/2-y,z
x,-y,-z
-x,1/2+y,-z
-x,-y,-z
x,1/2+y,-z
-x,y,z
x,1/2-y,z
1/2+x,1/2+y,z
1/2-x,-y,z
1/2+x,1/2-y,-z
1/2-x,y,-z
1/2-x,1/2-y,-z
1/2+x,y,-z
1/2-x,1/2+y,z
1/2+x,-y,z
loop_
_atom_site_type_symbol
_atom_site_label
_atom_site_fract_x
_atom_site_fract_y
_atom_site_fract_z
Si Si1 0.627914 0.349397 0.643968
Si Si2 0.066653 0.148900 0.888051
Si Si3 0.248817 0.152437 0.845945
Si Si4 0.257057 0.902114 0.649055
Si Si5 0.834177 0.602420 0.991188
Si Si6 0.931730 0.020487 0.717293
Si Si7 0.877099 0.349598 0.571166
O O1 0.607606 0.250000 0.675554
O O2 0.697454 0.348527 0.643215
O O3 0.601281 0.425377 0.712705
O O4 0.607822 0.368847 0.537455
O O5 0.078822 0.250000 0.852379
O O6 0.099558 0.128913 0.986857
O O7 0.086856 0.076544 0.810198
O O8 0.000000 0.136062 0.912623
O O9 0.251049 0.250000 0.801288
O O10 0.227754 0.089249 0.760908
O O11 0.203140 0.151731 0.929763
O O12 0.313297 0.130961 0.886886
O O13 0.308208 0.856310 0.590396
O O14 0.250000 0.000000 0.606321
O O15 0.821423 0.500000 0.000000
O O16 0.914125 0.079447 0.628339
O O17 0.000000 0.002630 0.716114
O O18 0.896892 0.250000 0.598553
#
# Coordination Sequence:
#
# PCOD8281238 Si02
#       7
#    16  16  16  16  16  16  16
#     4  11  25  42  62  92 129 170 214 262 321 390
#     4  10  22  42  67  94 124 164 216 271 322 374
#     4  11  22  37  58  90 126 164 204 250 310 375
#     4  12  23  39  64  93 130 168 213 261 320 388
#     4  11  22  37  60  90 127 160 203 252 309 377
#     4  11  24  42  66  94 125 165 218 272 320 377
#     4  11  23  40  64  94 129 168 210 264 326 383
#
# _framework density 22.747077999999998
#
# number of rings (size 3 to 8) (size 9 to 14) (size 15 to 20)
#    0.000    1.000    1.429    6.857    2.000    4.286 
#    0.000    1.429    0.000    0.000    0.000    0.000 
#    0.000    0.000    0.000    0.000    0.000    0.000 
#
# Total GULP energy -694276.619292 kJ/mol
# GULP energy per Si atom -12397.796773 kJ/mol
# Density = 2.269530 g / cm^3
# Si number density = 22.747078 Si / 1000 Ang^3
#
#
#
# Elastic Constant Matrix: (Units=GPa)
#
#
# Indices 1 2 3 4 5 6 
#
# 1 84.5271 25.9890 15.5921 0.0000 0.0000 0.0000
# 2 25.9890 138.7915 20.2964 0.0000 0.0000 0.0000
# 3 15.5921 20.2964 32.9472 0.0000 0.0000 0.0000
# 4 0.0000 0.0000 0.0000 -11.3495 0.0000 0.0000
# 5 0.0000 0.0000 0.0000 0.0000 33.6068 0.0000
# 6 0.0000 0.0000 0.0000 0.0000 0.0000 32.0398
#
#
#
# Elastic Compliance Matrix: (Units=1/GPa)
#
#
# Indices 1 2 3 4 5 6 
#
# 1 0.013329 -0.001729 -0.005243 0.000000 0.000000 0.000000
# 2 -0.001729 0.008143 -0.004198 0.000000 0.000000 0.000000
# 3 -0.005243 -0.004198 0.035419 0.000000 0.000000 0.000000
# 4 0.000000 0.000000 0.000000 -0.088110 0.000000 0.000000
# 5 0.000000 0.000000 0.000000 0.000000 0.029756 0.000000
# 6 0.000000 0.000000 0.000000 0.000000 0.000000 0.031211
#
#
# Mechanical properties :
#
#
# Convention : Reuss Voigt Hill
#
# Bulk Modulus (GPa) = 28.94262 42.22454 35.58358
# Shear Modulus (GPa) = 78.61066 23.81864 51.21465
#
# Velocity S-wave (km/s) = 5.88503 3.23942 4.75013
# Velocity P-wave (km/s) = 7.67655 5.70917 6.76476
#
# Compressibility (1/GPa) = 0.03455112
#
# Stress axis : x y z
#
# Youngs Moduli (GPa) = 75.02273 122.80888 28.23365
#
# Poissons Ratio (x) = 0.21237 0.14802
# Poissons Ratio (y) = 0.12973 0.11852
# Poissons Ratio (z) = 0.39333 0.51553
#
# Static dielectric constant tensor:
#      x y z
#    x 4.029210 0.000000 0.000000 
#    y 0.000000 4.209610 0.000000 
#    z 0.000000 0.000000 4.172350 
# 
# 
# High freq. dielectric constant tensor:
#      x y z
#    x 1.883000 0.000000 0.000000 
#    y 0.000000 1.914920 0.000000 
#    z 0.000000 0.000000 1.888840 
# 
# From -- ./inp_files/27496.got.cif
#   From: 2010.03.12/outbox.cif.g09.slc.cpg/sg67_14_cif.got.tgz:27496.got - 2010.04.10 22:41:39.
