data_PCOD8281802
_publ_section_title
;
Structure prediction by ZEFSAII (Michael W. Deem and Ramdas Pophale) SiO2 
 PCOD8281802
Probable space group: C C C A
;
_chemical_formula_sum "Si O2"
_cell_formula_units_Z 80
_cell_length_a 26.124471
_cell_length_b 9.187443
_cell_length_c 12.806830
_cell_angle_alpha 90.000000
_cell_angle_beta 90.000000
_cell_angle_gamma 90.000000
_cell_volume 3073.858046
_symmetry_space_group_name_H-M "C C C A"
_symmetry_group_IT_number 68
_space_group.IT_coordinate_system_code '2'
_symmetry_cell_setting 'orthorhombic'
loop_
_space_group_symop_operation_xyz
x,y,z
-x,1/2-y,z
x,1/2-y,1/2-z
-x,y,1/2-z
-x,-y,-z
x,1/2+y,-z
-x,1/2+y,1/2+z
x,-y,1/2+z
1/2+x,1/2+y,z
1/2-x,-y,z
1/2+x,-y,1/2-z
1/2-x,1/2+y,1/2-z
1/2-x,1/2-y,-z
1/2+x,y,-z
1/2-x,y,1/2+z
1/2+x,1/2-y,1/2+z
loop_
_atom_site_type_symbol
_atom_site_label
_atom_site_fract_x
_atom_site_fract_y
_atom_site_fract_z
Si Si1 0.608413 0.540365 0.741002
Si Si2 0.694367 0.051459 0.527141
Si Si3 0.630025 0.696588 0.089479
Si Si4 0.440126 0.775597 0.905212
Si Si5 0.213692 0.630182 0.314702
O O1 0.611251 0.373292 0.700248
O O2 0.574878 0.572268 0.844899
O O3 0.586756 0.638859 0.647873
O O4 0.666530 0.594082 0.763486
O O5 0.659483 0.146220 0.609388
O O6 0.698840 0.173136 0.433259
O O7 0.750000 0.000000 0.574487
O O8 0.666168 0.915807 0.472861
O O9 0.578250 0.720405 0.024136
O O10 0.500000 0.750000 0.901360
O O11 0.245528 0.750000 0.250000
O O12 0.250000 0.500000 0.337166
#
# Coordination Sequence:
#
# PCOD8281802 Si02
#       5
#    16  16  16  16  16
#     4  10  20  41  66  94 139 178 239 283 351 431
#     4  10  21  38  63  97 143 189 228 278 357 430
#     4  11  20  40  67 104 138 184 236 293 345 435
#     4  11  22  42  71  99 131 192 240 300 366 428
#     4  10  18  35  61  90 130 179 228 278 334 416
#
# _framework density 26.025925999999998
#
# number of rings (size 3 to 8) (size 9 to 14) (size 15 to 20)
#    0.000    1.600    6.000    1.800    0.000    0.800 
#    0.000   17.000    0.000    0.000    0.000    0.000 
#    0.000    0.000    0.000    0.000    0.000    0.000 
#
# Total GULP energy -495541.164511 kJ/mol
# GULP energy per Si atom -12388.529113 kJ/mol
# Density = 2.596669 g / cm^3
# Si number density = 26.025926 Si / 1000 Ang^3
#
#
#
# Elastic Constant Matrix: (Units=GPa)
#
#
# Indices 1 2 3 4 5 6 
#
# 1 153.1619 21.7829 23.6542 0.0000 0.0000 0.0000
# 2 21.7829 99.3432 12.5493 0.0000 0.0000 0.0000
# 3 23.6542 12.5493 42.4403 0.0000 0.0000 0.0000
# 4 0.0000 0.0000 0.0000 39.7062 0.0000 0.0000
# 5 0.0000 0.0000 0.0000 0.0000 34.9077 0.0000
# 6 0.0000 0.0000 0.0000 0.0000 0.0000 18.0264
#
#
#
# Elastic Compliance Matrix: (Units=1/GPa)
#
#
# Indices 1 2 3 4 5 6 
#
# 1 0.007263 -0.001123 -0.003716 0.000000 0.000000 0.000000
# 2 -0.001123 0.010630 -0.002517 0.000000 0.000000 0.000000
# 3 -0.003716 -0.002517 0.026378 0.000000 0.000000 0.000000
# 4 0.000000 0.000000 0.000000 0.025185 0.000000 0.000000
# 5 0.000000 0.000000 0.000000 0.000000 0.028647 0.000000
# 6 0.000000 0.000000 0.000000 0.000000 0.000000 0.055474
#
#
# Mechanical properties :
#
#
# Convention : Reuss Voigt Hill
#
# Bulk Modulus (GPa) = 33.83128 45.65759 39.74443
# Shear Modulus (GPa) = 28.06746 34.32533 31.19639
#
# Velocity S-wave (km/s) = 3.28753 3.63559 3.46593
# Velocity P-wave (km/s) = 5.23810 5.93334 5.59653
#
# Compressibility (1/GPa) = 0.02955844
#
# Stress axis : x y z
#
# Youngs Moduli (GPa) = 137.69132 94.07011 37.91058
#
# Poissons Ratio (x) = 0.10565 0.14087
# Poissons Ratio (y) = 0.15464 0.09543
# Poissons Ratio (z) = 0.51163 0.23681
#
# Static dielectric constant tensor:
#      x y z
#    x 4.891080 0.000000 0.000000 
#    y 0.000000 4.931570 0.000000 
#    z 0.000000 0.000000 4.788670 
# 
# 
# High freq. dielectric constant tensor:
#      x y z
#    x 2.021020 0.000000 0.000000 
#    y 0.000000 2.046730 0.000000 
#    z 0.000000 0.000000 2.044080 
# 
# From -- ./inp_files/33943.got.cif
#   From: 2010.03.12/outbox.cif.g09.slc.cpg/sg68_17_cif.got.tgz:33943.got - 2010.04.10 23:14:56.
