data_PCOD8281034
_publ_section_title
;
Structure prediction by ZEFSAII (Michael W. Deem and Ramdas Pophale) SiO2 
 PCOD8281034
Probable space group: C M M A
;
_chemical_formula_sum "Si O2"
_cell_formula_units_Z 96
_cell_length_a 22.330837
_cell_length_b 18.092680
_cell_length_c 11.081914
_cell_angle_alpha 90.000000
_cell_angle_beta 90.000000
_cell_angle_gamma 90.000000
_cell_volume 4477.366846
_symmetry_space_group_name_H-M "C M M A"
_symmetry_group_IT_number 67
_symmetry_cell_setting 'orthorhombic'
loop_
_space_group_symop_operation_xyz
x,y,z
-x,1/2-y,z
x,-y,-z
-x,1/2+y,-z
-x,-y,-z
x,1/2+y,-z
-x,y,z
x,1/2-y,z
1/2+x,1/2+y,z
1/2-x,-y,z
1/2+x,1/2-y,-z
1/2-x,y,-z
1/2-x,1/2-y,-z
1/2+x,y,-z
1/2-x,1/2+y,z
1/2+x,-y,z
loop_
_atom_site_type_symbol
_atom_site_label
_atom_site_fract_x
_atom_site_fract_y
_atom_site_fract_z
Si Si1 0.134806 0.334742 0.322499
Si Si2 0.163667 0.925001 0.445056
Si Si3 0.931774 0.915972 0.871163
Si Si4 0.067856 0.567318 0.249752
Si Si5 0.765912 0.333906 0.744170
Si Si6 0.867115 0.664809 0.079521
O O1 0.116535 0.250000 0.336773
O O2 0.144047 0.366575 0.455093
O O3 0.080711 0.376694 0.256691
O O4 0.194831 0.343644 0.240381
O O5 0.106255 0.949863 0.367688
O O6 0.214386 0.888824 0.361883
O O7 0.190994 0.000000 0.500000
O O8 0.000000 0.898096 0.912587
O O9 0.923800 0.003725 0.852260
O O10 0.883313 0.886044 0.966128
O O11 0.088665 0.644417 0.190109
O O12 0.000000 0.573435 0.292871
O O13 0.781774 0.250000 0.704911
O O14 0.799411 0.350972 0.871640
O O15 0.876166 0.750000 0.042718
#
# Coordination Sequence:
#
# PCOD8281034 Si02
#       6
#    16  16  16  16  16  16
#     4  11  23  39  60  89 123 160 200 247 307 363
#     4  11  21  38  60  89 116 157 204 247 298 359
#     4  11  23  40  61  88 123 162 204 250 301 358
#     4  10  22  40  61  85 121 163 203 249 303 360
#     4   9  21  40  61  87 121 156 196 250 306 362
#     4  10  21  39  63  91 119 154 204 254 303 361
#
# _framework density 21.441174
#
# number of rings (size 3 to 8) (size 9 to 14) (size 15 to 20)
#    0.000    1.667    1.667    2.500    0.000    8.667 
#    0.000    2.500    0.000    2.000    0.000    0.000 
#    0.000    0.000    0.000    0.000    0.000    0.000 
#
# Total GULP energy -595266.374533 kJ/mol
# GULP energy per Si atom -12401.382803 kJ/mol
# Density = 2.139237 g / cm^3
# Si number density = 21.441174 Si / 1000 Ang^3
#
#
#
# Elastic Constant Matrix: (Units=GPa)
#
#
# Indices 1 2 3 4 5 6 
#
# 1 64.8541 24.7614 23.8755 0.0000 0.0000 0.0000
# 2 24.7614 60.7749 3.0089 0.0000 0.0000 0.0000
# 3 23.8755 3.0089 60.5418 0.0000 0.0000 0.0000
# 4 0.0000 0.0000 0.0000 33.1068 0.0000 0.0000
# 5 0.0000 0.0000 0.0000 0.0000 14.5996 0.0000
# 6 0.0000 0.0000 0.0000 0.0000 0.0000 25.6008
#
#
#
# Elastic Compliance Matrix: (Units=1/GPa)
#
#
# Indices 1 2 3 4 5 6 
#
# 1 0.021612 -0.008404 -0.008105 0.000000 0.000000 0.000000
# 2 -0.008404 0.019763 0.002332 0.000000 0.000000 0.000000
# 3 -0.008105 0.002332 0.019598 0.000000 0.000000 0.000000
# 4 0.000000 0.000000 0.000000 0.030205 0.000000 0.000000
# 5 0.000000 0.000000 0.000000 0.000000 0.068495 0.000000
# 6 0.000000 0.000000 0.000000 0.000000 0.000000 0.039061
#
#
# Mechanical properties :
#
#
# Convention : Reuss Voigt Hill
#
# Bulk Modulus (GPa) = 30.65775 32.16248 31.41012
# Shear Modulus (GPa) = 21.01184 23.62977 22.32081
#
# Velocity S-wave (km/s) = 3.13385 3.32335 3.22999
# Velocity P-wave (km/s) = 5.23682 5.45519 5.34712
#
# Compressibility (1/GPa) = 0.03261818
#
# Stress axis : x y z
#
# Youngs Moduli (GPa) = 46.27113 50.60026 51.02561
#
# Poissons Ratio (x) = 0.42524 0.41357
# Poissons Ratio (y) = 0.38886 -0.11899
# Poissons Ratio (z) = 0.37504 -0.11800
#
# Static dielectric constant tensor:
#      x y z
#    x 3.818500 0.000000 0.000000 
#    y 0.000000 3.957930 0.000000 
#    z 0.000000 0.000000 3.770530 
# 
# 
# High freq. dielectric constant tensor:
#      x y z
#    x 1.835450 0.000000 0.000000 
#    y 0.000000 1.848300 0.000000 
#    z 0.000000 0.000000 1.841030 
# 
# From -- ./inp_files/21932.got.cif
#   From: 2010.03.12/outbox.cif.g09.slc.cpg/sg67_11_cif.got.tgz:21932.got - 2010.04.10 22:41:39.
