data_PCOD8281098
_publ_section_title
;
Structure prediction by ZEFSAII (Michael W. Deem and Ramdas Pophale) SiO2 
 PCOD8281098
Probable space group: C M M A
;
_chemical_formula_sum "Si O2"
_cell_formula_units_Z 72
_cell_length_a 26.921345
_cell_length_b 14.041099
_cell_length_c 9.551497
_cell_angle_alpha 90.000000
_cell_angle_beta 90.000000
_cell_angle_gamma 90.000000
_cell_volume 3610.516206
_symmetry_space_group_name_H-M "C M M A"
_symmetry_group_IT_number 67
_symmetry_cell_setting 'orthorhombic'
loop_
_space_group_symop_operation_xyz
x,y,z
-x,1/2-y,z
x,-y,-z
-x,1/2+y,-z
-x,-y,-z
x,1/2+y,-z
-x,y,z
x,1/2-y,z
1/2+x,1/2+y,z
1/2-x,-y,z
1/2+x,1/2-y,-z
1/2-x,y,-z
1/2-x,1/2-y,-z
1/2+x,y,-z
1/2-x,1/2+y,z
1/2+x,-y,z
loop_
_atom_site_type_symbol
_atom_site_label
_atom_site_fract_x
_atom_site_fract_y
_atom_site_fract_z
Si Si1 0.904151 0.138611 0.020407
Si Si2 0.297471 0.862434 0.409894
Si Si3 0.206601 0.361931 0.095721
Si Si4 0.379937 0.000000 0.500000
Si Si5 0.442186 0.014881 0.223065
O O1 0.914530 0.250000 0.038319
O O2 0.924772 0.102956 0.872645
O O3 0.845842 0.113457 0.025018
O O4 0.931749 0.085500 0.147113
O O5 0.305785 0.750000 0.410899
O O6 0.250000 0.893227 0.500000
O O7 0.290431 0.903253 0.252891
O O8 0.346330 0.907233 0.477418
O O9 0.215011 0.250000 0.105984
O O10 0.250000 0.407876 0.000000
O O11 0.414141 0.021502 0.368400
O O12 0.500000 0.024719 0.253598
#
# Coordination Sequence:
#
# PCOD8281098 Si02
#       5
#    16  16  16   8  16
#     4  10  21  42  67  90 121 160 203 254 309 364
#     4  10  22  40  62  90 126 163 199 244 298 364
#     4   9  18  35  61  91 119 153 196 243 299 358
#     4  12  24  42  62  90 126 166 204 244 306 376
#     4  11  25  42  62  90 121 159 208 262 308 354
#
# _framework density 19.941745999999998
#
# number of rings (size 3 to 8) (size 9 to 14) (size 15 to 20)
#    0.000    1.778    2.222    2.000    3.111    2.667 
#    0.000    2.222    0.000    4.000    0.000    0.000 
#    0.000    0.000    0.000    0.000    0.000    0.000 
#
# Total GULP energy -446527.834325 kJ/mol
# GULP energy per Si atom -12403.550953 kJ/mol
# Density = 1.989636 g / cm^3
# Si number density = 19.941746 Si / 1000 Ang^3
#
#
#
# Elastic Constant Matrix: (Units=GPa)
#
#
# Indices 1 2 3 4 5 6 
#
# 1 179.7062 40.8036 95.8828 0.0000 0.0000 0.0000
# 2 40.8036 72.4816 45.6006 0.0000 0.0000 0.0000
# 3 95.8828 45.6006 176.7484 0.0000 0.0000 0.0000
# 4 0.0000 0.0000 0.0000 3.2932 0.0000 0.0000
# 5 0.0000 0.0000 0.0000 0.0000 106.4293 0.0000
# 6 0.0000 0.0000 0.0000 0.0000 0.0000 27.1976
#
#
#
# Elastic Compliance Matrix: (Units=1/GPa)
#
#
# Indices 1 2 3 4 5 6 
#
# 1 0.008101 -0.002144 -0.003842 0.000000 0.000000 0.000000
# 2 -0.002144 0.017037 -0.003233 0.000000 0.000000 0.000000
# 3 -0.003842 -0.003233 0.008576 0.000000 0.000000 0.000000
# 4 0.000000 0.000000 0.000000 0.303652 0.000000 0.000000
# 5 0.000000 0.000000 0.000000 0.000000 0.009396 0.000000
# 6 0.000000 0.000000 0.000000 0.000000 0.000000 0.036768
#
#
# Mechanical properties :
#
#
# Convention : Reuss Voigt Hill
#
# Bulk Modulus (GPa) = 65.45283 88.16781 76.81032
# Shear Modulus (GPa) = 12.28324 43.82731 28.05528
#
# Velocity S-wave (km/s) = 2.48454 4.69312 3.75488
# Velocity P-wave (km/s) = 6.41279 8.58346 7.57627
#
# Compressibility (1/GPa) = 0.01527818
#
# Stress axis : x y z
#
# Youngs Moduli (GPa) = 123.44027 58.69534 116.60720
#
# Poissons Ratio (x) = 0.12582 0.44796
# Poissons Ratio (y) = 0.26461 0.37695
# Poissons Ratio (z) = 0.47421 0.18974
#
# Static dielectric constant tensor:
#      x y z
#    x 3.723590 0.000000 0.000000 
#    y 0.000000 3.502180 0.000000 
#    z 0.000000 0.000000 3.863310 
# 
# 
# High freq. dielectric constant tensor:
#      x y z
#    x 1.786290 0.000000 0.000000 
#    y 0.000000 1.775160 0.000000 
#    z 0.000000 0.000000 1.785950 
# 
# From -- ./inp_files/8274.got.cif
#   From: 2010.03.12/outbox.cif.g09.slc.cpg/sg67_5_cif.got.tgz:8274.got - 2010.04.10 22:41:39.
