data_PCOD8281623
_publ_section_title
;
Structure prediction by ZEFSAII (Michael W. Deem and Ramdas Pophale) SiO2 
 PCOD8281623
Probable space group: C C C A
;
_chemical_formula_sum "Si O2"
_cell_formula_units_Z 64
_cell_length_a 12.089912
_cell_length_b 33.387638
_cell_length_c 5.405742
_cell_angle_alpha 90.000000
_cell_angle_beta 90.000000
_cell_angle_gamma 90.000000
_cell_volume 2182.047248
_symmetry_space_group_name_H-M "C C C A"
_symmetry_group_IT_number 68
_space_group.IT_coordinate_system_code '2'
_symmetry_cell_setting 'orthorhombic'
loop_
_space_group_symop_operation_xyz
x,y,z
-x,1/2-y,z
x,1/2-y,1/2-z
-x,y,1/2-z
-x,-y,-z
x,1/2+y,-z
-x,1/2+y,1/2+z
x,-y,1/2+z
1/2+x,1/2+y,z
1/2-x,-y,z
1/2+x,-y,1/2-z
1/2-x,1/2+y,1/2-z
1/2-x,1/2-y,-z
1/2+x,y,-z
1/2-x,y,1/2+z
1/2+x,1/2-y,1/2+z
loop_
_atom_site_type_symbol
_atom_site_label
_atom_site_fract_x
_atom_site_fract_y
_atom_site_fract_z
Si Si1 0.126464 0.859832 0.397220
Si Si2 0.626572 0.108284 0.605040
Si Si3 0.879323 0.267240 0.997873
Si Si4 0.873307 0.483965 0.393958
O O1 0.250361 0.875151 0.339329
O O2 0.069729 0.886291 0.620199
O O3 0.124910 0.814828 0.493246
O O4 0.070194 0.865821 0.121969
O O5 0.629459 0.062177 0.527462
O O6 0.818960 0.250000 0.750000
O O7 0.000000 0.250000 0.995145
O O8 0.822292 0.250000 0.250000
O O9 0.930449 0.509221 0.621208
O O10 0.750000 0.500000 0.338523
#
# Coordination Sequence:
#
# PCOD8281623 Si02
#       4
#    16  16  16  16
#     4  10  18  32  48  67  97 130 163 203 243 295
#     4  10  19  30  45  72 104 137 163 193 242 294
#     4  10  21  37  54  70  89 122 164 214 257 292
#     4  10  16  25  41  63  96 141 168 186 219 277
#
# _framework density 29.330252999999999
#
# number of rings (size 3 to 8) (size 9 to 14) (size 15 to 20)
#    0.000    2.000    0.000    9.000    0.000    0.000 
#    0.000   15.000    0.000    0.000    0.000    0.000 
#    0.000    0.000    0.000 1098.000    0.000    0.000 
#
# Total GULP energy -396787.034736 kJ/mol
# GULP energy per Si atom -12399.594836 kJ/mol
# Density = 2.926350 g / cm^3
# Si number density = 29.330253 Si / 1000 Ang^3
#
#
#
# Elastic Constant Matrix: (Units=GPa)
#
#
# Indices 1 2 3 4 5 6 
#
# 1 99.1351 6.7255 31.6960 0.0000 0.0000 0.0000
# 2 6.7255 231.2155 71.2522 0.0000 0.0000 0.0000
# 3 31.6960 71.2522 333.7786 0.0000 0.0000 0.0000
# 4 0.0000 0.0000 0.0000 66.4382 0.0000 0.0000
# 5 0.0000 0.0000 0.0000 0.0000 271.8166 0.0000
# 6 0.0000 0.0000 0.0000 0.0000 0.0000 35.3610
#
#
#
# Elastic Compliance Matrix: (Units=1/GPa)
#
#
# Indices 1 2 3 4 5 6 
#
# 1 0.010403 0.000002 -0.000988 0.000000 0.000000 0.000000
# 2 0.000002 0.004630 -0.000988 0.000000 0.000000 0.000000
# 3 -0.000988 -0.000988 0.003301 0.000000 0.000000 0.000000
# 4 0.000000 0.000000 0.000000 0.015052 0.000000 0.000000
# 5 0.000000 0.000000 0.000000 0.000000 0.003679 0.000000
# 6 0.000000 0.000000 0.000000 0.000000 0.000000 0.028280
#
#
# Mechanical properties :
#
#
# Convention : Reuss Voigt Hill
#
# Bulk Modulus (GPa) = 69.52233 98.16405 83.84319
# Shear Modulus (GPa) = 67.48734 111.68686 89.58710
#
# Velocity S-wave (km/s) = 4.80202 6.17752 5.53268
# Velocity P-wave (km/s) = 7.38245 9.18823 8.33439
#
# Compressibility (1/GPa) = 0.01438387
#
# Stress axis : x y z
#
# Youngs Moduli (GPa) = 96.12519 216.00517 302.95175
#
# Poissons Ratio (x) = -0.00042 0.29941
# Poissons Ratio (y) = -0.00019 0.29945
# Poissons Ratio (z) = 0.09500 0.21351
#
# Static dielectric constant tensor:
#      x y z
#    x 6.092050 0.000000 0.000000 
#    y 0.000000 4.355540 0.000000 
#    z 0.000000 0.000000 5.373980 
# 
# 
# High freq. dielectric constant tensor:
#      x y z
#    x 2.297790 0.000000 0.000000 
#    y 0.000000 2.152110 0.000000 
#    z 0.000000 0.000000 2.256510 
# 
# From -- ./inp_files/1096.got.cif
#   From: 2010.03.12/outbox.cif.g09.slc.cpg/sg68_1_cif.got.tgz:1096.got - 2010.04.10 23:14:56.
