data_PCOD8281747
_publ_section_title
;
Structure prediction by ZEFSAII (Michael W. Deem and Ramdas Pophale) SiO2 
 PCOD8281747
Probable space group: C C C A
;
_chemical_formula_sum "Si O2"
_cell_formula_units_Z 96
_cell_length_a 9.808371
_cell_length_b 21.618499
_cell_length_c 26.520985
_cell_angle_alpha 90.000000
_cell_angle_beta 90.000000
_cell_angle_gamma 90.000000
_cell_volume 5623.569561
_symmetry_space_group_name_H-M "C C C A"
_symmetry_group_IT_number 68
_space_group.IT_coordinate_system_code '2'
_symmetry_cell_setting 'orthorhombic'
loop_
_space_group_symop_operation_xyz
x,y,z
-x,1/2-y,z
x,1/2-y,1/2-z
-x,y,1/2-z
-x,-y,-z
x,1/2+y,-z
-x,1/2+y,1/2+z
x,-y,1/2+z
1/2+x,1/2+y,z
1/2-x,-y,z
1/2+x,-y,1/2-z
1/2-x,1/2+y,1/2-z
1/2-x,1/2-y,-z
1/2+x,y,-z
1/2-x,y,1/2+z
1/2+x,1/2-y,1/2+z
loop_
_atom_site_type_symbol
_atom_site_label
_atom_site_fract_x
_atom_site_fract_y
_atom_site_fract_z
Si Si1 0.010459 0.677604 0.194876
Si Si2 0.266050 0.826492 0.878669
Si Si3 0.316923 0.813917 0.605505
Si Si4 0.079182 0.892619 0.015194
Si Si5 0.689053 0.438098 0.452640
Si Si6 0.013173 0.680641 0.918153
O O1 0.159879 0.658115 0.173993
O O2 0.000000 0.750000 0.202930
O O3 0.000000 0.645056 0.250000
O O4 0.890652 0.658378 0.155565
O O5 0.326246 0.760575 0.897626
O O6 0.304915 0.877887 0.918647
O O7 0.101624 0.826298 0.873916
O O8 0.393417 0.840141 0.556682
O O9 0.158917 0.834834 0.606548
O O10 0.970543 0.944383 0.033734
O O11 0.219601 0.927602 0.002751
O O12 0.015500 0.863196 0.965033
O O13 0.750000 0.500000 0.425839
O O14 0.000000 0.750000 0.939429
#
# Coordination Sequence:
#
# PCOD8281747 Si02
#       6
#    16  16  16  16  16  16
#     4   9  17  30  51  75  96 118 153 202 253 299
#     4   9  19  32  49  70 100 129 164 200 243 293
#     4  10  18  31  49  74 100 126 163 202 245 298
#     4  11  20  31  49  69 100 130 165 201 238 285
#     4  11  22  33  45  68 100 137 168 196 235 287
#     4   9  19  28  45  72 101 131 160 192 240 293
#
# _framework density 17.071007999999999
#
# number of rings (size 3 to 8) (size 9 to 14) (size 15 to 20)
#    0.000    2.167    3.333    0.500    2.333    2.000 
#    0.000    0.833    0.000    5.000    0.000    5.833 
#    0.000    0.000    0.000    0.000    0.000    0.000 
#
# Total GULP energy -594729.995035 kJ/mol
# GULP energy per Si atom -12390.208230 kJ/mol
# Density = 1.703215 g / cm^3
# Si number density = 17.071008 Si / 1000 Ang^3
#
#
#
# Elastic Constant Matrix: (Units=GPa)
#
#
# Indices 1 2 3 4 5 6 
#
# 1 128.5058 30.5781 58.8813 0.0000 0.0000 0.0000
# 2 30.5781 45.9768 18.9143 0.0000 0.0000 0.0000
# 3 58.8813 18.9143 97.3058 0.0000 0.0000 0.0000
# 4 0.0000 0.0000 0.0000 3.9245 0.0000 0.0000
# 5 0.0000 0.0000 0.0000 0.0000 17.2119 0.0000
# 6 0.0000 0.0000 0.0000 0.0000 0.0000 19.8198
#
#
#
# Elastic Compliance Matrix: (Units=1/GPa)
#
#
# Indices 1 2 3 4 5 6 
#
# 1 0.011873 -0.005370 -0.006141 0.000000 0.000000 0.000000
# 2 -0.005370 0.026070 -0.001818 0.000000 0.000000 0.000000
# 3 -0.006141 -0.001818 0.014346 0.000000 0.000000 0.000000
# 4 0.000000 0.000000 0.000000 0.254811 0.000000 0.000000
# 5 0.000000 0.000000 0.000000 0.000000 0.058099 0.000000
# 6 0.000000 0.000000 0.000000 0.000000 0.000000 0.050455
#
#
# Mechanical properties :
#
#
# Convention : Reuss Voigt Hill
#
# Bulk Modulus (GPa) = 39.01495 54.28173 46.64834
# Shear Modulus (GPa) = 11.09001 19.08555 15.08778
#
# Velocity S-wave (km/s) = 2.55157 3.34729 2.97614
# Velocity P-wave (km/s) = 5.62004 6.84148 6.26061
#
# Compressibility (1/GPa) = 0.02563120
#
# Stress axis : x y z
#
# Youngs Moduli (GPa) = 84.22189 38.35882 69.70514
#
# Poissons Ratio (x) = 0.20600 0.42805
# Poissons Ratio (y) = 0.45231 0.12670
# Poissons Ratio (z) = 0.51720 0.06972
#
# Static dielectric constant tensor:
#      x y z
#    x 3.723520 0.000000 0.000000 
#    y 0.000000 2.991370 0.000000 
#    z 0.000000 0.000000 3.172410 
# 
# 
# High freq. dielectric constant tensor:
#      x y z
#    x 1.683560 0.000000 0.000000 
#    y 0.000000 1.628830 0.000000 
#    z 0.000000 0.000000 1.621520 
# 
# From -- ./inp_files/44528.got.cif
#   From: 2010.03.12/outbox.cif.g09.slc.cpg/sg68_23_cif.got.tgz:44528.got - 2010.04.10 23:14:56.
