data_PCOD8281206
_publ_section_title
;
Structure prediction by ZEFSAII (Michael W. Deem and Ramdas Pophale) SiO2 
 PCOD8281206
Probable space group: C M M A
;
_chemical_formula_sum "Si O2"
_cell_formula_units_Z 56
_cell_length_a 19.171600
_cell_length_b 13.583406
_cell_length_c 9.502615
_cell_angle_alpha 90.000000
_cell_angle_beta 90.000000
_cell_angle_gamma 90.000000
_cell_volume 2474.629438
_symmetry_space_group_name_H-M "C M M A"
_symmetry_group_IT_number 67
_symmetry_cell_setting 'orthorhombic'
loop_
_space_group_symop_operation_xyz
x,y,z
-x,1/2-y,z
x,-y,-z
-x,1/2+y,-z
-x,-y,-z
x,1/2+y,-z
-x,y,z
x,1/2-y,z
1/2+x,1/2+y,z
1/2-x,-y,z
1/2+x,1/2-y,-z
1/2-x,y,-z
1/2-x,1/2-y,-z
1/2+x,y,-z
1/2-x,1/2+y,z
1/2+x,-y,z
loop_
_atom_site_type_symbol
_atom_site_label
_atom_site_fract_x
_atom_site_fract_y
_atom_site_fract_z
Si Si1 0.354738 0.357971 0.010386
Si Si2 0.148401 0.137204 0.315228
Si Si3 0.500000 0.364163 0.129370
Si Si4 0.750000 0.000000 0.000000
Si Si5 0.500000 0.461662 0.654230
Si Si6 0.250000 0.500000 0.500000
O O1 0.341706 0.250000 0.072513
O O2 0.330938 0.366367 0.848685
O O3 0.434634 0.388002 0.029598
O O4 0.302570 0.431659 0.093959
O O5 0.153479 0.250000 0.370474
O O6 0.068277 0.103448 0.321738
O O7 0.200163 0.068518 0.404750
O O8 0.500000 0.250000 0.181348
O O9 0.500000 0.437068 0.258650
O O10 0.500000 0.500000 0.500000
#
# Coordination Sequence:
#
# PCOD8281206 Si02
#       6
#    16  16   8   4   8   4
#     4  10  22  40  64  97 131 172 221 274 339 396
#     4  11  24  43  67  94 133 177 225 283 334 398
#     4  10  23  44  71 102 135 171 221 285 340 401
#     4  12  20  34  60  92 136 172 202 264 326 394
#     4  12  24  44  67 100 129 169 226 269 338 415
#     4  12  24  46  64 100 136 188 240 272 336 410
#
# _framework density 22.629650999999999
#
# number of rings (size 3 to 8) (size 9 to 14) (size 15 to 20)
#    0.000    1.143    1.429    4.714    0.000    5.143 
#    0.000    2.857    0.000    0.000    0.000    0.000 
#    0.000    0.000    0.000    0.000    0.000    0.000 
#
# Total GULP energy -346948.198763 kJ/mol
# GULP energy per Si atom -12391.007099 kJ/mol
# Density = 2.257815 g / cm^3
# Si number density = 22.629651 Si / 1000 Ang^3
#
#
#
# Elastic Constant Matrix: (Units=GPa)
#
#
# Indices 1 2 3 4 5 6 
#
# 1 216.4038 106.3671 30.8564 0.0000 0.0000 0.0000
# 2 106.3671 189.0316 47.0025 0.0000 0.0000 0.0000
# 3 30.8564 47.0025 80.3143 0.0000 0.0000 0.0000
# 4 0.0000 0.0000 0.0000 34.8754 0.0000 0.0000
# 5 0.0000 0.0000 0.0000 0.0000 24.0930 0.0000
# 6 0.0000 0.0000 0.0000 0.0000 0.0000 51.6758
#
#
#
# Elastic Compliance Matrix: (Units=1/GPa)
#
#
# Indices 1 2 3 4 5 6 
#
# 1 0.006399 -0.003499 -0.000411 0.000000 0.000000 0.000000
# 2 -0.003499 0.008104 -0.003398 0.000000 0.000000 0.000000
# 3 -0.000411 -0.003398 0.014598 0.000000 0.000000 0.000000
# 4 0.000000 0.000000 0.000000 0.028674 0.000000 0.000000
# 5 0.000000 0.000000 0.000000 0.000000 0.041506 0.000000
# 6 0.000000 0.000000 0.000000 0.000000 0.000000 0.019351
#
#
# Mechanical properties :
#
#
# Convention : Reuss Voigt Hill
#
# Bulk Modulus (GPa) = 69.03840 94.91130 81.97485
# Shear Modulus (GPa) = 36.21189 42.23041 39.22115
#
# Velocity S-wave (km/s) = 4.00459 4.32459 4.16766
# Velocity P-wave (km/s) = 7.20808 8.18341 7.71118
#
# Compressibility (1/GPa) = 0.01448469
#
# Stress axis : x y z
#
# Youngs Moduli (GPa) = 156.26837 123.39897 68.50300
#
# Poissons Ratio (x) = 0.43173 0.02816
# Poissons Ratio (y) = 0.54672 0.23280
# Poissons Ratio (z) = 0.06424 0.41937
#
# Static dielectric constant tensor:
#      x y z
#    x 4.419670 0.000000 0.000000 
#    y 0.000000 4.592100 0.000000 
#    z 0.000000 0.000000 3.738040 
# 
# 
# High freq. dielectric constant tensor:
#      x y z
#    x 1.923610 0.000000 0.000000 
#    y 0.000000 1.927970 0.000000 
#    z 0.000000 0.000000 1.852420 
# 
# From -- ./inp_files/18944.got.cif
#   From: 2010.03.12/outbox.cif.g09.slc.cpg/sg67_10_cif.got.tgz:18944.got - 2010.04.10 22:41:39.
