data_PCOD8281408
_publ_section_title
;
Structure prediction by ZEFSAII (Michael W. Deem and Ramdas Pophale) SiO2 
 PCOD8281408
Probable space group: C M M A
;
_chemical_formula_sum "Si O2"
_cell_formula_units_Z 84
_cell_length_a 14.193633
_cell_length_b 19.191782
_cell_length_c 16.524866
_cell_angle_alpha 90.000000
_cell_angle_beta 90.000000
_cell_angle_gamma 90.000000
_cell_volume 4501.391846
_symmetry_space_group_name_H-M "C M M A"
_symmetry_group_IT_number 67
_symmetry_cell_setting 'orthorhombic'
loop_
_space_group_symop_operation_xyz
x,y,z
-x,1/2-y,z
x,-y,-z
-x,1/2+y,-z
-x,-y,-z
x,1/2+y,-z
-x,y,z
x,1/2-y,z
1/2+x,1/2+y,z
1/2-x,-y,z
1/2+x,1/2-y,-z
1/2-x,y,-z
1/2-x,1/2-y,-z
1/2+x,y,-z
1/2-x,1/2+y,z
1/2+x,-y,z
loop_
_atom_site_type_symbol
_atom_site_label
_atom_site_fract_x
_atom_site_fract_y
_atom_site_fract_z
Si Si1 0.103863 0.082270 0.503628
Si Si2 0.898102 0.831112 0.094734
Si Si3 0.752919 0.417596 0.367290
Si Si4 0.250000 0.500000 0.000000
Si Si5 0.891428 0.603833 0.925869
Si Si6 0.270984 0.332863 0.795947
O O1 0.160008 0.105123 0.423870
O O2 0.157432 0.104243 0.585824
O O3 0.000000 0.116756 0.503936
O O4 0.096608 0.000000 0.500000
O O5 0.902027 0.750000 0.109069
O O6 0.816957 0.861796 0.151374
O O7 0.000000 0.864459 0.118020
O O8 0.875933 0.844395 0.001008
O O9 0.750000 0.500000 0.347112
O O10 0.764436 0.372087 0.288154
O O11 0.180322 0.459599 0.060724
O O12 0.865529 0.645187 0.843776
O O13 0.000000 0.578040 0.919239
O O14 0.269727 0.250000 0.782092
#
# Coordination Sequence:
#
# PCOD8281408 Si02
#       6
#    16  16  16   4  16  16
#     4   8  15  33  57  79 104 140 183 227 280 339
#     4   9  18  35  57  77 101 144 196 234 273 330
#     4   9  19  33  55  82 109 140 182 233 282 339
#     4  12  22  40  58  82 112 146 196 248 280 330
#     4  11  23  38  58  81 110 150 192 236 285 333
#     4  11  22  36  55  82 118 153 187 234 289 343
#
# _framework density 18.660893999999999
#
# number of rings (size 3 to 8) (size 9 to 14) (size 15 to 20)
#    0.000    2.286    1.905    2.000    1.333    4.190 
#    0.000    1.905    0.000    1.143    0.000    0.000 
#    0.000    0.000    0.000    0.000    0.000    0.000 
#
# Total GULP energy -520552.712751 kJ/mol
# GULP energy per Si atom -12394.112208 kJ/mol
# Density = 1.861842 g / cm^3
# Si number density = 18.660894 Si / 1000 Ang^3
#
#
#
# Elastic Constant Matrix: (Units=GPa)
#
#
# Indices 1 2 3 4 5 6 
#
# 1 163.7824 41.6763 74.8545 0.0000 0.0000 0.0000
# 2 41.6763 58.7148 45.9913 0.0000 0.0000 0.0000
# 3 74.8545 45.9913 151.4789 0.0000 0.0000 0.0000
# 4 0.0000 0.0000 0.0000 20.4505 0.0000 0.0000
# 5 0.0000 0.0000 0.0000 0.0000 15.0696 0.0000
# 6 0.0000 0.0000 0.0000 0.0000 0.0000 19.6763
#
#
#
# Elastic Compliance Matrix: (Units=1/GPa)
#
#
# Indices 1 2 3 4 5 6 
#
# 1 0.008420 -0.003565 -0.003078 0.000000 0.000000 0.000000
# 2 -0.003565 0.023855 -0.005481 0.000000 0.000000 0.000000
# 3 -0.003078 -0.005481 0.009787 0.000000 0.000000 0.000000
# 4 0.000000 0.000000 0.000000 0.048899 0.000000 0.000000
# 5 0.000000 0.000000 0.000000 0.000000 0.066359 0.000000
# 6 0.000000 0.000000 0.000000 0.000000 0.000000 0.050822
#
#
# Mechanical properties :
#
#
# Convention : Reuss Voigt Hill
#
# Bulk Modulus (GPa) = 56.13895 77.66893 66.90394
# Shear Modulus (GPa) = 20.97944 25.13622 23.05783
#
# Velocity S-wave (km/s) = 3.35662 3.67413 3.51896
# Velocity P-wave (km/s) = 6.72098 7.72726 7.24162
#
# Compressibility (1/GPa) = 0.01781295
#
# Stress axis : x y z
#
# Youngs Moduli (GPa) = 118.76861 41.91913 102.17799
#
# Poissons Ratio (x) = 0.14945 0.31453
# Poissons Ratio (y) = 0.42344 0.56005
# Poissons Ratio (z) = 0.36560 0.22976
#
# Static dielectric constant tensor:
#      x y z
#    x 4.367400 0.000000 0.000000 
#    y 0.000000 3.221230 0.000000 
#    z 0.000000 0.000000 3.275440 
# 
# 
# High freq. dielectric constant tensor:
#      x y z
#    x 1.742400 0.000000 0.000000 
#    y 0.000000 1.695100 0.000000 
#    z 0.000000 0.000000 1.715100 
# 
# From -- ./inp_files/27056.got.cif
#   From: 2010.03.12/outbox.cif.g09.slc.cpg/sg67_14_cif.got.tgz:27056.got - 2010.04.10 22:41:39.
