data_PCOD8281927
_publ_section_title
;
Structure prediction by ZEFSAII (Michael W. Deem and Ramdas Pophale) SiO2 
 PCOD8281927
Probable space group: C C C A
;
_chemical_formula_sum "Si O2"
_cell_formula_units_Z 104
_cell_length_a 11.947069
_cell_length_b 19.568059
_cell_length_c 23.567832
_cell_angle_alpha 90.000000
_cell_angle_beta 90.000000
_cell_angle_gamma 90.000000
_cell_volume 5509.710180
_symmetry_space_group_name_H-M "C C C A"
_symmetry_group_IT_number 68
_space_group.IT_coordinate_system_code '2'
_symmetry_cell_setting 'orthorhombic'
loop_
_space_group_symop_operation_xyz
x,y,z
-x,1/2-y,z
x,1/2-y,1/2-z
-x,y,1/2-z
-x,-y,-z
x,1/2+y,-z
-x,1/2+y,1/2+z
x,-y,1/2+z
1/2+x,1/2+y,z
1/2-x,-y,z
1/2+x,-y,1/2-z
1/2-x,1/2+y,1/2-z
1/2-x,1/2-y,-z
1/2+x,y,-z
1/2-x,y,1/2+z
1/2+x,1/2-y,1/2+z
loop_
_atom_site_type_symbol
_atom_site_label
_atom_site_fract_x
_atom_site_fract_y
_atom_site_fract_z
Si Si1 0.192197 0.315375 0.476593
Si Si2 0.867923 0.830412 0.390356
Si Si3 0.760771 0.577992 0.690982
Si Si4 0.229955 0.425664 0.178412
Si Si5 0.500000 0.750000 0.099276
Si Si6 0.125427 0.831487 0.402536
Si Si7 0.502646 0.637489 0.313722
O O1 0.250000 0.250000 0.500000
O O2 0.284666 0.357740 0.440584
O O3 0.153305 0.355405 0.532921
O O4 0.089549 0.289087 0.438798
O O5 0.829021 0.869206 0.334186
O O6 0.854952 0.748324 0.388029
O O7 0.995852 0.851677 0.397950
O O8 0.750000 0.500000 0.668328
O O9 0.729039 0.580597 0.757005
O O10 0.882742 0.605073 0.672418
O O11 0.250000 0.500000 0.152284
O O12 0.296136 0.371147 0.140974
O O13 0.095879 0.420373 0.180184
O O14 0.548298 0.806597 0.141864
O O15 0.500000 0.668504 0.250000
#
# Coordination Sequence:
#
# PCOD8281927 Si02
#       7
#    16  16  16  16   8  16  16
#     4  10  19  34  57  87 116 154 190 234 295 351
#     4  10  20  38  60  88 118 150 194 247 287 350
#     4  10  22  39  60  84 118 159 196 237 300 358
#     4  10  23  40  59  83 118 160 197 242 294 354
#     4  12  19  34  62  88 116 151 182 252 304 334
#     4  10  22  38  60  90 116 153 201 241 290 352
#     4  10  21  36  58  89 116 149 198 243 293 356
#
# _framework density 18.875765999999999
#
# number of rings (size 3 to 8) (size 9 to 14) (size 15 to 20)
#    0.000    1.846    1.538    3.923    2.154    1.231 
#    0.000    2.308    0.000    2.769    0.000    0.000 
#    0.000    0.000    0.000    0.000    0.000    0.000 
#
# Total GULP energy -644298.959267 kJ/mol
# GULP energy per Si atom -12390.364601 kJ/mol
# Density = 1.883280 g / cm^3
# Si number density = 18.875766 Si / 1000 Ang^3
#
#
#
# Elastic Constant Matrix: (Units=GPa)
#
#
# Indices 1 2 3 4 5 6 
#
# 1 125.4159 31.6823 54.4416 0.0000 0.0000 0.0000
# 2 31.6823 67.3305 43.4271 0.0000 0.0000 0.0000
# 3 54.4416 43.4271 105.3106 0.0000 0.0000 0.0000
# 4 0.0000 0.0000 0.0000 8.7494 0.0000 0.0000
# 5 0.0000 0.0000 0.0000 0.0000 33.3085 0.0000
# 6 0.0000 0.0000 0.0000 0.0000 0.0000 20.3841
#
#
#
# Elastic Compliance Matrix: (Units=1/GPa)
#
#
# Indices 1 2 3 4 5 6 
#
# 1 0.010466 -0.001955 -0.004604 0.000000 0.000000 0.000000
# 2 -0.001955 0.020599 -0.007484 0.000000 0.000000 0.000000
# 3 -0.004604 -0.007484 0.014962 0.000000 0.000000 0.000000
# 4 0.000000 0.000000 0.000000 0.114293 0.000000 0.000000
# 5 0.000000 0.000000 0.000000 0.000000 0.030022 0.000000
# 6 0.000000 0.000000 0.000000 0.000000 0.000000 0.049058
#
#
# Mechanical properties :
#
#
# Convention : Reuss Voigt Hill
#
# Bulk Modulus (GPa) = 55.73885 61.90655 58.82270
# Shear Modulus (GPa) = 18.28374 23.72214 21.00294
#
# Velocity S-wave (km/s) = 3.11567 3.54891 3.33932
# Velocity P-wave (km/s) = 6.52201 7.04706 6.78961
#
# Compressibility (1/GPa) = 0.01794081
#
# Stress axis : x y z
#
# Youngs Moduli (GPa) = 95.54713 48.54614 66.83573
#
# Poissons Ratio (x) = 0.09491 0.30773
# Poissons Ratio (y) = 0.18680 0.50018
# Poissons Ratio (z) = 0.43993 0.36331
#
# Static dielectric constant tensor:
#      x y z
#    x 3.385720 0.000000 0.000000 
#    y 0.000000 3.260130 0.000000 
#    z 0.000000 0.000000 4.854350 
# 
# 
# High freq. dielectric constant tensor:
#      x y z
#    x 1.750030 0.000000 0.000000 
#    y 0.000000 1.705430 0.000000 
#    z 0.000000 0.000000 1.741390 
# 
# From -- ./inp_files/50312.got.cif
#   From: 2010.03.12/outbox.cif.g09.slc.cpg/sg68_26_cif.got.tgz:50312.got - 2010.04.10 23:14:56.
