data_PCOD8281734
_publ_section_title
;
Structure prediction by ZEFSAII (Michael W. Deem and Ramdas Pophale) SiO2 
 PCOD8281734
Probable space group: C C C A
;
_chemical_formula_sum "Si O2"
_cell_formula_units_Z 80
_cell_length_a 16.440050
_cell_length_b 8.523540
_cell_length_c 28.940531
_cell_angle_alpha 90.000000
_cell_angle_beta 90.000000
_cell_angle_gamma 90.000000
_cell_volume 4055.362052
_symmetry_space_group_name_H-M "C C C A"
_symmetry_group_IT_number 68
_space_group.IT_coordinate_system_code '2'
_symmetry_cell_setting 'orthorhombic'
loop_
_space_group_symop_operation_xyz
x,y,z
-x,1/2-y,z
x,1/2-y,1/2-z
-x,y,1/2-z
-x,-y,-z
x,1/2+y,-z
-x,1/2+y,1/2+z
x,-y,1/2+z
1/2+x,1/2+y,z
1/2-x,-y,z
1/2+x,-y,1/2-z
1/2-x,1/2+y,1/2-z
1/2-x,1/2-y,-z
1/2+x,y,-z
1/2-x,y,1/2+z
1/2+x,1/2-y,1/2+z
loop_
_atom_site_type_symbol
_atom_site_label
_atom_site_fract_x
_atom_site_fract_y
_atom_site_fract_z
Si Si1 0.761766 0.183864 0.550682
Si Si2 0.171177 0.104105 0.120157
Si Si3 0.160007 0.317586 0.201982
Si Si4 0.589785 0.699826 0.606123
Si Si5 0.146621 0.171028 0.797930
O O1 0.750000 0.250000 0.500000
O O2 0.694608 0.268927 0.581847
O O3 0.851310 0.212346 0.570620
O O4 0.750000 0.000000 0.551300
O O5 0.130757 0.198463 0.162416
O O6 0.250000 0.000000 0.135371
O O7 0.102340 0.987495 0.100212
O O8 0.128734 0.250000 0.250000
O O9 0.120336 0.489386 0.197543
O O10 0.256913 0.321180 0.198842
O O11 0.500000 0.750000 0.591702
O O12 0.606864 0.738010 0.659659
O O13 0.116203 0.250000 0.750000
#
# Coordination Sequence:
#
# PCOD8281734 Si02
#       5
#    16  16  16  16  16
#     4  11  22  42  67  90 114 151 197 243 297 360
#     4  10  19  35  57  85 117 154 198 244 295 352
#     4  10  18  29  55  86 114 155 213 254 282 339
#     4  11  23  39  60  90 125 157 195 245 303 357
#     4  10  19  32  54  84 122 161 201 248 296 347
#
# _framework density 19.726967999999999
#
# number of rings (size 3 to 8) (size 9 to 14) (size 15 to 20)
#    0.000    1.600    4.000    4.200    2.800    0.400 
#    0.000    8.000    0.000    1.200    0.000    0.000 
#    0.000    0.000    0.000    0.000    0.000    0.000 
#
# Total GULP energy -495987.598518 kJ/mol
# GULP energy per Si atom -12399.689963 kJ/mol
# Density = 1.968207 g / cm^3
# Si number density = 19.726968 Si / 1000 Ang^3
#
#
#
# Elastic Constant Matrix: (Units=GPa)
#
#
# Indices 1 2 3 4 5 6 
#
# 1 83.2922 47.4789 43.3947 0.0000 0.0000 0.0000
# 2 47.4789 194.9737 69.8168 0.0000 0.0000 0.0000
# 3 43.3947 69.8168 149.3198 0.0000 0.0000 0.0000
# 4 0.0000 0.0000 0.0000 41.4455 0.0000 0.0000
# 5 0.0000 0.0000 0.0000 0.0000 8.6262 0.0000
# 6 0.0000 0.0000 0.0000 0.0000 0.0000 20.4023
#
#
#
# Elastic Compliance Matrix: (Units=1/GPa)
#
#
# Indices 1 2 3 4 5 6 
#
# 1 0.015122 -0.002533 -0.003211 0.000000 0.000000 0.000000
# 2 -0.002533 0.006585 -0.002343 0.000000 0.000000 0.000000
# 3 -0.003211 -0.002343 0.008725 0.000000 0.000000 0.000000
# 4 0.000000 0.000000 0.000000 0.024128 0.000000 0.000000
# 5 0.000000 0.000000 0.000000 0.000000 0.115926 0.000000
# 6 0.000000 0.000000 0.000000 0.000000 0.000000 0.049014
#
#
# Mechanical properties :
#
#
# Convention : Reuss Voigt Hill
#
# Bulk Modulus (GPa) = 70.12474 83.21850 76.67162
# Shear Modulus (GPa) = 20.79644 31.88782 26.34213
#
# Velocity S-wave (km/s) = 3.25039 4.02488 3.65819
# Velocity P-wave (km/s) = 7.05064 7.99226 7.53617
#
# Compressibility (1/GPa) = 0.01426030
#
# Stress axis : x y z
#
# Youngs Moduli (GPa) = 66.12704 151.87094 114.60810
#
# Poissons Ratio (x) = 0.38467 0.36795
# Poissons Ratio (y) = 0.16749 0.26848
# Poissons Ratio (z) = 0.21230 0.35577
#
# Static dielectric constant tensor:
#      x y z
#    x 3.266560 0.000000 0.000000 
#    y 0.000000 4.025490 0.000000 
#    z 0.000000 0.000000 4.164450 
# 
# 
# High freq. dielectric constant tensor:
#      x y z
#    x 1.718140 0.000000 0.000000 
#    y 0.000000 1.794430 0.000000 
#    z 0.000000 0.000000 1.770970 
# 
# From -- ./inp_files/49123.got.cif
#   From: 2010.03.12/outbox.cif.g09.slc.cpg/sg68_25_cif.got.tgz:49123.got - 2010.04.10 23:14:56.
