data_PCOD8281901
_publ_section_title
;
Structure prediction by ZEFSAII (Michael W. Deem and Ramdas Pophale) SiO2 
 PCOD8281901
Probable space group: C C C A
;
_chemical_formula_sum "Si O2"
_cell_formula_units_Z 104
_cell_length_a 9.479794
_cell_length_b 19.785898
_cell_length_c 27.953859
_cell_angle_alpha 90.000000
_cell_angle_beta 90.000000
_cell_angle_gamma 90.000000
_cell_volume 5243.200146
_symmetry_space_group_name_H-M "C C C A"
_symmetry_group_IT_number 68
_space_group.IT_coordinate_system_code '2'
_symmetry_cell_setting 'orthorhombic'
loop_
_space_group_symop_operation_xyz
x,y,z
-x,1/2-y,z
x,1/2-y,1/2-z
-x,y,1/2-z
-x,-y,-z
x,1/2+y,-z
-x,1/2+y,1/2+z
x,-y,1/2+z
1/2+x,1/2+y,z
1/2-x,-y,z
1/2+x,-y,1/2-z
1/2-x,1/2+y,1/2-z
1/2-x,1/2-y,-z
1/2+x,y,-z
1/2-x,y,1/2+z
1/2+x,1/2-y,1/2+z
loop_
_atom_site_type_symbol
_atom_site_label
_atom_site_fract_x
_atom_site_fract_y
_atom_site_fract_z
Si Si1 0.644605 0.126482 0.526656
Si Si2 0.016644 0.055705 0.104461
Si Si3 0.074507 0.818313 0.453386
Si Si4 0.154338 0.563053 0.230574
Si Si5 0.254946 0.919387 0.172874
Si Si6 0.250000 0.000000 0.032859
Si Si7 0.960174 0.912089 0.134837
O O1 0.593244 0.106357 0.579853
O O2 0.762415 0.186162 0.529411
O O3 0.513123 0.154815 0.497883
O O4 0.704038 0.060611 0.500956
O O5 0.099885 0.099181 0.145535
O O6 0.122527 0.024648 0.065464
O O7 0.935617 0.992416 0.127722
O O8 0.089936 0.871167 0.410591
O O9 0.000000 0.750000 0.434828
O O10 0.250000 0.500000 0.216128
O O11 0.235740 0.606850 0.272172
O O12 0.129037 0.607699 0.182593
O O13 0.000000 0.539063 0.250000
O O14 0.125159 0.893525 0.140895
O O15 0.250000 0.000000 0.177035
#
# Coordination Sequence:
#
# PCOD8281901 Si02
#       7
#    16  16  16  16  16   8  16
#     4  12  24  38  58  83 112 156 200 247 294 359
#     4  11  18  32  58  86 119 149 191 236 315 360
#     4  12  26  42  55  76 114 161 204 247 283 339
#     4   9  18  31  51  83 119 151 177 221 295 362
#     4   8  15  31  53  79 117 153 173 219 294 365
#     4  12  18  36  58  86 120 148 190 244 310 360
#     4  10  19  33  55  82 114 150 187 239 287 353
#
# _framework density 19.835215000000002
#
# number of rings (size 3 to 8) (size 9 to 14) (size 15 to 20)
#    0.000    1.538    5.385    2.769    2.154    0.000 
#    0.000    0.000    0.000    4.154    0.000    0.000 
#    0.000    0.000    3.692    0.000    0.000    0.000 
#
# Total GULP energy -644383.306457 kJ/mol
# GULP energy per Si atom -12391.986663 kJ/mol
# Density = 1.979007 g / cm^3
# Si number density = 19.835215 Si / 1000 Ang^3
#
#
#
# Elastic Constant Matrix: (Units=GPa)
#
#
# Indices 1 2 3 4 5 6 
#
# 1 95.9600 28.4113 51.0775 0.0000 0.0000 0.0000
# 2 28.4113 35.2273 20.4316 0.0000 0.0000 0.0000
# 3 51.0775 20.4316 124.3799 0.0000 0.0000 0.0000
# 4 0.0000 0.0000 0.0000 1392.7384 0.0000 0.0000
# 5 0.0000 0.0000 0.0000 0.0000 26.2158 0.0000
# 6 0.0000 0.0000 0.0000 0.0000 0.0000 21.5542
#
#
#
# Elastic Compliance Matrix: (Units=1/GPa)
#
#
# Indices 1 2 3 4 5 6 
#
# 1 0.016024 -0.010066 -0.004927 0.000000 0.000000 0.000000
# 2 -0.010066 0.037700 -0.002059 0.000000 0.000000 0.000000
# 3 -0.004927 -0.002059 0.010401 0.000000 0.000000 0.000000
# 4 0.000000 0.000000 0.000000 0.000718 0.000000 0.000000
# 5 0.000000 0.000000 0.000000 0.000000 0.038145 0.000000
# 6 0.000000 0.000000 0.000000 0.000000 0.000000 0.046395
#
#
# Mechanical properties :
#
#
# Convention : Reuss Voigt Hill
#
# Bulk Modulus (GPa) = 33.30998 50.60088 41.95543
# Shear Modulus (GPa) = 25.84076 298.47814 162.15945
#
# Velocity S-wave (km/s) = 3.61331 12.28029 9.05156
# Velocity P-wave (km/s) = 5.85131 15.05457 11.42099
#
# Compressibility (1/GPa) = 0.03002104
#
# Stress axis : x y z
#
# Youngs Moduli (GPa) = 62.40789 26.52550 96.14143
#
# Poissons Ratio (x) = 0.26700 0.47366
# Poissons Ratio (y) = 0.62818 0.19798
# Poissons Ratio (z) = 0.30747 0.05462
#
# Static dielectric constant tensor:
#      x y z
#    x 3.931380 0.000000 0.000000 
#    y 0.000000 3.185800 0.000000 
#    z 0.000000 0.000000 4.192120 
# 
# 
# High freq. dielectric constant tensor:
#      x y z
#    x 1.787310 0.000000 0.000000 
#    y 0.000000 1.690410 0.000000 
#    z 0.000000 0.000000 1.795510 
# 
# From -- ./inp_files/54131.got.cif
#   From: 2010.03.12/outbox.cif.g09.slc.cpg/sg68_28_cif.got.tgz:54131.got - 2010.04.10 23:14:56.
