data_PCOD8281860
_publ_section_title
;
Structure prediction by ZEFSAII (Michael W. Deem and Ramdas Pophale) SiO2 
 PCOD8281860
Probable space group: C C C A
;
_chemical_formula_sum "Si O2"
_cell_formula_units_Z 96
_cell_length_a 18.189165
_cell_length_b 17.501049
_cell_length_c 16.206785
_cell_angle_alpha 90.000000
_cell_angle_beta 90.000000
_cell_angle_gamma 90.000000
_cell_volume 5159.097246
_symmetry_space_group_name_H-M "C C C A"
_symmetry_group_IT_number 68
_space_group.IT_coordinate_system_code '2'
_symmetry_cell_setting 'orthorhombic'
loop_
_space_group_symop_operation_xyz
x,y,z
-x,1/2-y,z
x,1/2-y,1/2-z
-x,y,1/2-z
-x,-y,-z
x,1/2+y,-z
-x,1/2+y,1/2+z
x,-y,1/2+z
1/2+x,1/2+y,z
1/2-x,-y,z
1/2+x,-y,1/2-z
1/2-x,1/2+y,1/2-z
1/2-x,1/2-y,-z
1/2+x,y,-z
1/2-x,y,1/2+z
1/2+x,1/2-y,1/2+z
loop_
_atom_site_type_symbol
_atom_site_label
_atom_site_fract_x
_atom_site_fract_y
_atom_site_fract_z
Si Si1 0.343371 0.750000 0.750000
Si Si2 0.655119 0.052409 0.078281
Si Si3 0.310374 0.599524 0.149030
Si Si4 0.228988 0.361307 0.327071
Si Si5 0.174525 0.747609 0.549015
Si Si6 0.075181 0.797057 0.406272
Si Si7 0.250000 0.000000 0.066866
O O1 0.294074 0.805687 0.696723
O O2 0.392060 0.704990 0.684982
O O3 0.725368 0.093070 0.120851
O O4 0.584767 0.110576 0.074238
O O5 0.639458 0.974942 0.129815
O O6 0.679036 0.023926 0.987120
O O7 0.315703 0.611274 0.246976
O O8 0.342399 0.671052 0.099635
O O9 0.171805 0.318266 0.387244
O O10 0.270034 0.429690 0.374140
O O11 0.250000 0.750000 0.500000
O O12 0.113176 0.752456 0.479994
O O13 0.000000 0.750000 0.401280
#
# Coordination Sequence:
#
# PCOD8281860 Si02
#       7
#     8  16  16  16  16  16   8
#     4  12  23  36  62  90 119 160 208 256 323 376
#     4  10  19  36  53  89 125 156 201 249 321 367
#     4  10  19  31  59  91 123 149 195 272 311 364
#     4  12  18  32  59  98 121 152 207 267 329 368
#     4  12  18  36  59  88 118 158 209 260 310 375
#     4  12  25  41  58  85 127 168 208 253 315 393
#     4  10  20  28  58  96 128 148 198 276 318 364
#
# _framework density 18.607907000000001
#
# number of rings (size 3 to 8) (size 9 to 14) (size 15 to 20)
#    0.000    1.000    8.333    2.250    0.000    0.000 
#    0.000    0.833    0.000    2.000    0.000    0.000 
#    0.000    0.000    0.000    0.000    0.000    0.000 
#
# Total GULP energy -594642.245211 kJ/mol
# GULP energy per Si atom -12388.380109 kJ/mol
# Density = 1.856555 g / cm^3
# Si number density = 18.607907 Si / 1000 Ang^3
#
#
#
# Elastic Constant Matrix: (Units=GPa)
#
#
# Indices 1 2 3 4 5 6 
#
# 1 40.8983 21.2693 5.8720 0.0000 0.0000 0.0000
# 2 21.2693 134.7232 37.3356 0.0000 0.0000 0.0000
# 3 5.8720 37.3356 115.9939 0.0000 0.0000 0.0000
# 4 0.0000 0.0000 0.0000 51.1871 0.0000 0.0000
# 5 0.0000 0.0000 0.0000 0.0000 17.4082 0.0000
# 6 0.0000 0.0000 0.0000 0.0000 0.0000 28.1371
#
#
#
# Elastic Compliance Matrix: (Units=1/GPa)
#
#
# Indices 1 2 3 4 5 6 
#
# 1 0.026638 -0.004207 0.000006 0.000000 0.000000 0.000000
# 2 -0.004207 0.008814 -0.002624 0.000000 0.000000 0.000000
# 3 0.000006 -0.002624 0.009465 0.000000 0.000000 0.000000
# 4 0.000000 0.000000 0.000000 0.019536 0.000000 0.000000
# 5 0.000000 0.000000 0.000000 0.000000 0.057444 0.000000
# 6 0.000000 0.000000 0.000000 0.000000 0.000000 0.035540
#
#
# Mechanical properties :
#
#
# Convention : Reuss Voigt Hill
#
# Bulk Modulus (GPa) = 31.98304 46.72991 39.35648
# Shear Modulus (GPa) = 27.54655 34.48905 31.01780
#
# Velocity S-wave (km/s) = 3.85173 4.30986 4.08722
# Velocity P-wave (km/s) = 6.08328 7.06639 6.59319
#
# Compressibility (1/GPa) = 0.03126658
#
# Stress axis : x y z
#
# Youngs Moduli (GPa) = 37.54045 113.45597 105.64719
#
# Poissons Ratio (x) = 0.47731 -0.00059
# Poissons Ratio (y) = 0.15793 0.27722
# Poissons Ratio (z) = -0.00021 0.29771
#
# Static dielectric constant tensor:
#      x y z
#    x 2.560260 0.000000 0.000000 
#    y 0.000000 3.750460 0.000000 
#    z 0.000000 0.000000 3.780540 
# 
# 
# High freq. dielectric constant tensor:
#      x y z
#    x 1.638910 0.000000 0.000000 
#    y 0.000000 1.746690 0.000000 
#    z 0.000000 0.000000 1.753100 
# 
# From -- ./inp_files/32062.got.cif
#   From: 2010.03.12/outbox.cif.g09.slc.cpg/sg68_17_cif.got.tgz:32062.got - 2010.04.10 23:14:56.
