data_PCOD8281352
_publ_section_title
;
Structure prediction by ZEFSAII (Michael W. Deem and Ramdas Pophale) SiO2 
 PCOD8281352
Probable space group: C M M A
;
_chemical_formula_sum "Si O2"
_cell_formula_units_Z 80
_cell_length_a 8.819971
_cell_length_b 27.781075
_cell_length_c 18.680471
_cell_angle_alpha 90.000000
_cell_angle_beta 90.000000
_cell_angle_gamma 90.000000
_cell_volume 4577.243601
_symmetry_space_group_name_H-M "C M M A"
_symmetry_group_IT_number 67
_symmetry_cell_setting 'orthorhombic'
loop_
_space_group_symop_operation_xyz
x,y,z
-x,1/2-y,z
x,-y,-z
-x,1/2+y,-z
-x,-y,-z
x,1/2+y,-z
-x,y,z
x,1/2-y,z
1/2+x,1/2+y,z
1/2-x,-y,z
1/2+x,1/2-y,-z
1/2-x,y,-z
1/2-x,1/2-y,-z
1/2+x,y,-z
1/2-x,1/2+y,z
1/2+x,-y,z
loop_
_atom_site_type_symbol
_atom_site_label
_atom_site_fract_x
_atom_site_fract_y
_atom_site_fract_z
Si Si1 0.178694 0.104829 0.798037
Si Si2 0.680070 0.449242 0.924178
Si Si3 0.680045 0.196803 0.285917
Si Si4 0.677474 0.449480 0.344416
Si Si5 0.679332 0.143582 0.425015
O O1 0.275206 0.091626 0.867651
O O2 0.229752 0.158685 0.774853
O O3 0.223057 0.067901 0.734952
O O4 0.000000 0.102426 0.814980
O O5 0.500000 0.454022 0.930565
O O6 0.750000 0.500000 0.898793
O O7 0.750000 0.433907 0.000000
O O8 0.500000 0.197221 0.288635
O O9 0.744848 0.250000 0.267932
O O10 0.738811 0.180336 0.364093
O O11 0.500000 0.455854 0.348682
O O12 0.750000 0.500000 0.364069
O O13 0.731807 0.410149 0.402549
O O14 0.500000 0.146092 0.431312
O O15 0.750000 0.158981 0.500000
#
# Coordination Sequence:
#
# PCOD8281352 Si02
#       5
#    16  16  16  16  16
#     4   9  17  31  50  72  97 124 158 198 238 281
#     4  11  21  33  50  74 104 134 162 191 227 272
#     4   8  15  30  52  73  93 122 159 197 240 290
#     4   9  18  30  44  63  89 122 157 193 232 280
#     4   9  18  31  45  65  92 120 154 195 239 285
#
# _framework density 17.477767
#
# number of rings (size 3 to 8) (size 9 to 14) (size 15 to 20)
#    0.000    2.800    0.000    5.400    0.000    4.000 
#    0.000    5.000    0.000    2.400    0.000    0.000 
#    0.000    0.000    0.000    0.000    0.000    0.000 
#
# Total GULP energy -495861.364619 kJ/mol
# GULP energy per Si atom -12396.534115 kJ/mol
# Density = 1.743799 g / cm^3
# Si number density = 17.477767 Si / 1000 Ang^3
#
#
#
# Elastic Constant Matrix: (Units=GPa)
#
#
# Indices 1 2 3 4 5 6 
#
# 1 58.3697 29.5311 37.5467 0.0000 0.0000 0.0000
# 2 29.5311 129.7451 58.3671 0.0000 0.0000 0.0000
# 3 37.5467 58.3671 113.6792 0.0000 0.0000 0.0000
# 4 0.0000 0.0000 0.0000 -21.6339 0.0000 0.0000
# 5 0.0000 0.0000 0.0000 0.0000 28.6891 0.0000
# 6 0.0000 0.0000 0.0000 0.0000 0.0000 16.6324
#
#
#
# Elastic Compliance Matrix: (Units=1/GPa)
#
#
# Indices 1 2 3 4 5 6 
#
# 1 0.022264 -0.002288 -0.006179 0.000000 0.000000 0.000000
# 2 -0.002288 0.010257 -0.004511 0.000000 0.000000 0.000000
# 3 -0.006179 -0.004511 0.013154 0.000000 0.000000 0.000000
# 4 0.000000 0.000000 0.000000 -0.046224 0.000000 0.000000
# 5 0.000000 0.000000 0.000000 0.000000 0.034856 0.000000
# 6 0.000000 0.000000 0.000000 0.000000 0.000000 0.060124
#
#
# Mechanical properties :
#
#
# Convention : Reuss Voigt Hill
#
# Bulk Modulus (GPa) = 50.71017 61.40931 56.05974
# Shear Modulus (GPa) = 39.38240 16.49413 27.93827
#
# Velocity S-wave (km/s) = 4.75203 3.07534 4.00247
# Velocity P-wave (km/s) = 7.69325 6.91536 7.31465
#
# Compressibility (1/GPa) = 0.01971991
#
# Stress axis : x y z
#
# Youngs Moduli (GPa) = 44.91487 97.49031 76.02517
#
# Poissons Ratio (x) = 0.22305 0.46975
# Poissons Ratio (y) = 0.10276 0.34294
# Poissons Ratio (z) = 0.27752 0.43977
#
# Static dielectric constant tensor:
#      x y z
#    x 2.953800 0.000000 0.000000 
#    y 0.000000 4.886810 0.000000 
#    z 0.000000 0.000000 3.240880 
# 
# 
# High freq. dielectric constant tensor:
#      x y z
#    x 1.652850 0.000000 0.000000 
#    y 0.000000 1.670580 0.000000 
#    z 0.000000 0.000000 1.669820 
# 
# From -- ./inp_files/32118.got.cif
#   From: 2010.03.12/outbox.cif.g09.slc.cpg/sg67_17_cif.got.tgz:32118.got - 2010.04.10 22:41:39.
