data_PCOD8281374
_publ_section_title
;
Structure prediction by ZEFSAII (Michael W. Deem and Ramdas Pophale) SiO2 
 PCOD8281374
Probable space group: C M M A
;
_chemical_formula_sum "Si O2"
_cell_formula_units_Z 64
_cell_length_a 16.975655
_cell_length_b 10.280709
_cell_length_c 19.342751
_cell_angle_alpha 90.000000
_cell_angle_beta 90.000000
_cell_angle_gamma 90.000000
_cell_volume 3375.731125
_symmetry_space_group_name_H-M "C M M A"
_symmetry_group_IT_number 67
_symmetry_cell_setting 'orthorhombic'
loop_
_space_group_symop_operation_xyz
x,y,z
-x,1/2-y,z
x,-y,-z
-x,1/2+y,-z
-x,-y,-z
x,1/2+y,-z
-x,y,z
x,1/2-y,z
1/2+x,1/2+y,z
1/2-x,-y,z
1/2+x,1/2-y,-z
1/2-x,y,-z
1/2-x,1/2-y,-z
1/2+x,y,-z
1/2-x,1/2+y,z
1/2+x,-y,z
loop_
_atom_site_type_symbol
_atom_site_label
_atom_site_fract_x
_atom_site_fract_y
_atom_site_fract_z
Si Si1 0.646134 0.250000 0.926066
Si Si2 0.906582 0.393889 0.292616
Si Si3 0.906268 0.397244 0.445387
Si Si4 0.908250 0.504535 0.151203
Si Si5 0.332190 0.750000 0.916778
O O1 0.606145 0.375874 0.893267
O O2 0.738845 0.250000 0.915863
O O3 0.628878 0.250000 0.007664
O O4 0.871575 0.250000 0.279736
O O5 0.879370 0.443394 0.368484
O O6 0.878158 0.486179 0.230391
O O7 0.000000 0.384931 0.290693
O O8 0.869706 0.500000 0.500000
O O9 0.876044 0.250000 0.460663
O O10 0.000000 0.398012 0.450500
O O11 0.858272 0.621809 0.122355
O O12 0.000000 0.540277 0.148595
#
# Coordination Sequence:
#
# PCOD8281374 Si02
#       5
#     8  16  16  16   8
#     4  11  23  41  59  73 104 149 180 208 269 339
#     4   8  14  27  46  68  98 136 174 210 254 312
#     4   8  13  22  37  60  93 132 169 202 246 306
#     4  11  21  36  58  82 107 139 180 222 266 318
#     4  11  25  39  53  81 112 135 170 232 279 305
#
# _framework density 18.958856000000001
#
# number of rings (size 3 to 8) (size 9 to 14) (size 15 to 20)
#    0.000    2.500    1.250    3.750    0.000    5.000 
#    2.250    0.000    0.000    0.000    0.000    0.000 
#    0.000    6.000    0.000    0.000    0.000    0.000 
#
# Total GULP energy -396624.032997 kJ/mol
# GULP energy per Si atom -12394.501031 kJ/mol
# Density = 1.891570 g / cm^3
# Si number density = 18.958856 Si / 1000 Ang^3
#
#
#
# Elastic Constant Matrix: (Units=GPa)
#
#
# Indices 1 2 3 4 5 6 
#
# 1 20.8169 7.0813 17.0164 0.0000 0.0000 0.0000
# 2 7.0813 120.4447 79.5185 0.0000 0.0000 0.0000
# 3 17.0164 79.5185 179.0571 0.0000 0.0000 0.0000
# 4 0.0000 0.0000 0.0000 36.4929 0.0000 0.0000
# 5 0.0000 0.0000 0.0000 0.0000 2.1606 0.0000
# 6 0.0000 0.0000 0.0000 0.0000 0.0000 23.7778
#
#
#
# Elastic Compliance Matrix: (Units=1/GPa)
#
#
# Indices 1 2 3 4 5 6 
#
# 1 0.052091 0.000291 -0.005080 0.000000 0.000000 0.000000
# 2 0.000291 0.011748 -0.005245 0.000000 0.000000 0.000000
# 3 -0.005080 -0.005245 0.008397 0.000000 0.000000 0.000000
# 4 0.000000 0.000000 0.000000 0.027403 0.000000 0.000000
# 5 0.000000 0.000000 0.000000 0.000000 0.462839 0.000000
# 6 0.000000 0.000000 0.000000 0.000000 0.000000 0.042056
#
#
# Mechanical properties :
#
#
# Convention : Reuss Voigt Hill
#
# Bulk Modulus (GPa) = 19.16848 58.61680 38.89264
# Shear Modulus (GPa) = 7.78828 26.93309 17.36068
#
# Velocity S-wave (km/s) = 2.02902 3.77318 3.02934
# Velocity P-wave (km/s) = 3.95243 7.06877 5.72666
#
# Compressibility (1/GPa) = 0.05216897
#
# Stress axis : x y z
#
# Youngs Moduli (GPa) = 19.19712 85.11912 119.09255
#
# Poissons Ratio (x) = -0.02477 0.60495
# Poissons Ratio (y) = -0.00559 0.62464
# Poissons Ratio (z) = 0.09751 0.44645
#
# Static dielectric constant tensor:
#      x y z
#    x 3.006620 0.000000 0.000000 
#    y 0.000000 3.411670 0.000000 
#    z 0.000000 0.000000 4.065520 
# 
# 
# High freq. dielectric constant tensor:
#      x y z
#    x 1.689200 0.000000 0.000000 
#    y 0.000000 1.732970 0.000000 
#    z 0.000000 0.000000 1.756910 
# 
# From -- ./inp_files/33438.got.cif
#   From: 2010.03.12/outbox.cif.g09.slc.cpg/sg67_17_cif.got.tgz:33438.got - 2010.04.10 22:41:39.
