data_PCOD8281242
_publ_section_title
;
Structure prediction by ZEFSAII (Michael W. Deem and Ramdas Pophale) SiO2 
 PCOD8281242
Probable space group: C M M A
;
_chemical_formula_sum "Si O2"
_cell_formula_units_Z 64
_cell_length_a 17.726918
_cell_length_b 30.325883
_cell_length_c 5.149737
_cell_angle_alpha 90.000000
_cell_angle_beta 90.000000
_cell_angle_gamma 90.000000
_cell_volume 2768.418488
_symmetry_space_group_name_H-M "C M M A"
_symmetry_group_IT_number 67
_symmetry_cell_setting 'orthorhombic'
loop_
_space_group_symop_operation_xyz
x,y,z
-x,1/2-y,z
x,-y,-z
-x,1/2+y,-z
-x,-y,-z
x,1/2+y,-z
-x,y,z
x,1/2-y,z
1/2+x,1/2+y,z
1/2-x,-y,z
1/2+x,1/2-y,-z
1/2-x,y,-z
1/2-x,1/2-y,-z
1/2+x,y,-z
1/2-x,1/2+y,z
1/2+x,-y,z
loop_
_atom_site_type_symbol
_atom_site_label
_atom_site_fract_x
_atom_site_fract_y
_atom_site_fract_z
Si Si1 0.588634 0.976505 0.748509
Si Si2 0.085621 0.117607 0.926729
Si Si3 0.200863 0.342873 0.251352
Si Si4 0.915658 0.701199 0.434250
O O1 0.500000 0.985607 0.745135
O O2 0.605454 0.924129 0.746426
O O3 0.626335 0.000000 0.500000
O O4 0.624461 0.000000 0.000000
O O5 0.099378 0.163334 0.776384
O O6 0.000000 0.113706 0.032516
O O7 0.143735 0.117522 0.169118
O O8 0.250000 0.358385 0.500000
O O9 0.146728 0.302423 0.338294
O O10 0.250000 0.328579 0.000000
O O11 0.907746 0.750000 0.308164
O O12 0.000000 0.695204 0.552026
#
# Coordination Sequence:
#
# PCOD8281242 Si02
#       4
#    16  16  16  16
#     4   9  19  34  60  99 132 161 210 273 330 387
#     4  10  22  42  70  99 137 179 223 280 346 400
#     4  12  25  44  65  97 135 181 227 277 327 400
#     4  10  23  44  70 101 134 173 224 278 337 404
#
# _framework density 23.117894
#
# number of rings (size 3 to 8) (size 9 to 14) (size 15 to 20)
#    0.000    1.750    2.500    0.750    3.500    2.000 
#    0.000    2.500    0.000    0.750    6.500    0.000 
#    0.000    0.000    0.000    0.000    0.000    1.250 
#
# Total GULP energy -396496.115075 kJ/mol
# GULP energy per Si atom -12390.503596 kJ/mol
# Density = 2.306528 g / cm^3
# Si number density = 23.117894 Si / 1000 Ang^3
#
#
#
# Elastic Constant Matrix: (Units=GPa)
#
#
# Indices 1 2 3 4 5 6 
#
# 1 135.0317 47.1579 66.2212 0.0000 0.0000 0.0000
# 2 47.1579 171.9561 80.4400 0.0000 0.0000 0.0000
# 3 66.2212 80.4400 166.4646 0.0000 0.0000 0.0000
# 4 0.0000 0.0000 0.0000 35.0610 0.0000 0.0000
# 5 0.0000 0.0000 0.0000 0.0000 10.1193 0.0000
# 6 0.0000 0.0000 0.0000 0.0000 0.0000 -5.1067
#
#
#
# Elastic Compliance Matrix: (Units=1/GPa)
#
#
# Indices 1 2 3 4 5 6 
#
# 1 0.009349 -0.001065 -0.003205 0.000000 0.000000 0.000000
# 2 -0.001065 0.007635 -0.003266 0.000000 0.000000 0.000000
# 3 -0.003205 -0.003266 0.008860 0.000000 0.000000 0.000000
# 4 0.000000 0.000000 0.000000 0.028522 0.000000 0.000000
# 5 0.000000 0.000000 0.000000 0.000000 0.098821 0.000000
# 6 0.000000 0.000000 0.000000 0.000000 0.000000 -0.195821
#
#
# Mechanical properties :
#
#
# Convention : Reuss Voigt Hill
#
# Bulk Modulus (GPa) = 92.81708 95.67671 94.24690
# Shear Modulus (GPa) = -208.58716 26.65694 -90.96511
#
# Velocity S-wave (km/s) = -9.50912 3.39940 -6.27963
# Velocity P-wave (km/s) = 8.96259 7.54216 3.42373
#
# Compressibility (1/GPa) = 0.01077388
#
# Stress axis : x y z
#
# Youngs Moduli (GPa) = 106.96184 130.97138 112.86304
#
# Poissons Ratio (x) = 0.13946 0.36168
# Poissons Ratio (y) = 0.11390 0.36860
# Poissons Ratio (z) = 0.34277 0.42775
#
# Static dielectric constant tensor:
#      x y z
#    x 4.415650 0.000000 0.000000 
#    y 0.000000 3.991260 0.000000 
#    z 0.000000 0.000000 4.240420 
# 
# 
# High freq. dielectric constant tensor:
#      x y z
#    x 1.905140 0.000000 0.000000 
#    y 0.000000 1.898260 0.000000 
#    z 0.000000 0.000000 1.905480 
# 
# From -- ./inp_files/2221.got.cif
#   From: 2010.03.12/outbox.cif.g09.slc.cpg/sg67_2_cif.got.tgz:2221.got - 2010.04.10 22:41:39.
