data_PCOD8281355
_publ_section_title
;
Structure prediction by ZEFSAII (Michael W. Deem and Ramdas Pophale) SiO2 
 PCOD8281355
Probable space group: C M M A
;
_chemical_formula_sum "Si O2"
_cell_formula_units_Z 64
_cell_length_a 14.540954
_cell_length_b 13.741119
_cell_length_c 19.703156
_cell_angle_alpha 90.000000
_cell_angle_beta 90.000000
_cell_angle_gamma 90.000000
_cell_volume 3936.867489
_symmetry_space_group_name_H-M "C M M A"
_symmetry_group_IT_number 67
_symmetry_cell_setting 'orthorhombic'
loop_
_space_group_symop_operation_xyz
x,y,z
-x,1/2-y,z
x,-y,-z
-x,1/2+y,-z
-x,-y,-z
x,1/2+y,-z
-x,y,z
x,1/2-y,z
1/2+x,1/2+y,z
1/2-x,-y,z
1/2+x,1/2-y,-z
1/2-x,y,-z
1/2-x,1/2-y,-z
1/2+x,y,-z
1/2-x,1/2+y,z
1/2+x,-y,z
loop_
_atom_site_type_symbol
_atom_site_label
_atom_site_fract_x
_atom_site_fract_y
_atom_site_fract_z
Si Si1 0.500000 0.250000 0.580579
Si Si2 0.897685 0.361304 0.068556
Si Si3 0.500000 0.054896 0.660562
Si Si4 0.852534 0.461830 0.572442
Si Si5 0.500000 0.640735 0.198039
Si Si6 0.651490 0.750000 0.531011
Si Si7 0.750000 0.000000 0.000000
O O1 0.500000 0.160323 0.629816
O O2 0.588176 0.250000 0.534013
O O3 0.869857 0.250000 0.050719
O O4 0.909379 0.373182 0.150362
O O5 0.000000 0.383474 0.035740
O O6 0.816938 0.432959 0.044986
O O7 0.500000 0.061429 0.742062
O O8 0.409557 0.999193 0.636057
O O9 0.892335 0.500000 0.500000
O O10 0.750000 0.500000 0.581138
O O11 0.861761 0.345385 0.576670
O O12 0.500000 0.750000 0.228439
O O13 0.750000 0.750000 0.500000
#
# Coordination Sequence:
#
# PCOD8281355 Si02
#       7
#     4  16   8  16   8   8   4
#     4  12  20  26  56  76  82 128 180 200 266 310
#     4   8  18  34  51  83 114 139 174 216 257 310
#     4  12  20  34  52  74  95 137 180 209 257 316
#     4  11  21  34  50  75  98 124 171 221 264 312
#     4   8  18  37  52  70 111 143 172 214 251 311
#     4  12  20  34  50  72 106 120 155 239 275 305
#     4  12  16  28  64  88 108 140 178 212 272 304
#
# _framework density 16.25658
#
# number of rings (size 3 to 8) (size 9 to 14) (size 15 to 20)
#    0.750    1.000    5.625    1.875    0.000    0.000 
#    2.250    0.000    0.000    0.000    9.750    0.000 
#    0.000    0.000    0.000    0.000    0.000    0.000 
#
# Total GULP energy -396472.854189 kJ/mol
# GULP energy per Si atom -12389.776693 kJ/mol
# Density = 1.621958 g / cm^3
# Si number density = 16.256580 Si / 1000 Ang^3
#
#
#
# Elastic Constant Matrix: (Units=GPa)
#
#
# Indices 1 2 3 4 5 6 
#
# 1 98.2952 50.6541 48.0816 0.0000 0.0000 0.0000
# 2 50.6541 142.9200 51.1428 0.0000 0.0000 0.0000
# 3 48.0816 51.1428 86.9472 0.0000 0.0000 0.0000
# 4 0.0000 0.0000 0.0000 27.1817 0.0000 0.0000
# 5 0.0000 0.0000 0.0000 0.0000 14.5857 0.0000
# 6 0.0000 0.0000 0.0000 0.0000 0.0000 33.4916
#
#
#
# Elastic Compliance Matrix: (Units=1/GPa)
#
#
# Indices 1 2 3 4 5 6 
#
# 1 0.014865 -0.002947 -0.006487 0.000000 0.000000 0.000000
# 2 -0.002947 0.009447 -0.003927 0.000000 0.000000 0.000000
# 3 -0.006487 -0.003927 0.017398 0.000000 0.000000 0.000000
# 4 0.000000 0.000000 0.000000 0.036789 0.000000 0.000000
# 5 0.000000 0.000000 0.000000 0.000000 0.068560 0.000000
# 6 0.000000 0.000000 0.000000 0.000000 0.000000 0.029858
#
#
# Mechanical properties :
#
#
# Convention : Reuss Voigt Hill
#
# Bulk Modulus (GPa) = 66.71844 69.76883 68.24363
# Shear Modulus (GPa) = 23.96518 26.93741 25.45130
#
# Velocity S-wave (km/s) = 3.84368 4.07506 3.96106
# Velocity P-wave (km/s) = 7.79926 8.07168 7.93664
#
# Compressibility (1/GPa) = 0.01498836
#
# Stress axis : x y z
#
# Youngs Moduli (GPa) = 67.27046 105.85743 57.47734
#
# Poissons Ratio (x) = 0.31200 0.37285
# Poissons Ratio (y) = 0.19827 0.22570
# Poissons Ratio (z) = 0.43637 0.41567
#
# Static dielectric constant tensor:
#      x y z
#    x 3.059860 0.000000 0.000000 
#    y 0.000000 3.323690 0.000000 
#    z 0.000000 0.000000 2.760930 
# 
# 
# High freq. dielectric constant tensor:
#      x y z
#    x 1.627340 0.000000 0.000000 
#    y 0.000000 1.638310 0.000000 
#    z 0.000000 0.000000 1.586700 
# 
# From -- ./inp_files/38282.got.cif
#   From: 2010.03.12/outbox.cif.g09.slc.cpg/sg67_20_cif.got.tgz:38282.got - 2010.04.10 22:41:39.
