data_PCOD8281914
_publ_section_title
;
Structure prediction by ZEFSAII (Michael W. Deem and Ramdas Pophale) SiO2 
 PCOD8281914
Probable space group: C C C A
;
_chemical_formula_sum "Si O2"
_cell_formula_units_Z 88
_cell_length_a 8.203196
_cell_length_b 22.292170
_cell_length_c 23.636585
_cell_angle_alpha 90.000000
_cell_angle_beta 90.000000
_cell_angle_gamma 90.000000
_cell_volume 4322.352329
_symmetry_space_group_name_H-M "C C C A"
_symmetry_group_IT_number 68
_space_group.IT_coordinate_system_code '2'
_symmetry_cell_setting 'orthorhombic'
loop_
_space_group_symop_operation_xyz
x,y,z
-x,1/2-y,z
x,1/2-y,1/2-z
-x,y,1/2-z
-x,-y,-z
x,1/2+y,-z
-x,1/2+y,1/2+z
x,-y,1/2+z
1/2+x,1/2+y,z
1/2-x,-y,z
1/2+x,-y,1/2-z
1/2-x,1/2+y,1/2-z
1/2-x,1/2-y,-z
1/2+x,y,-z
1/2-x,y,1/2+z
1/2+x,1/2-y,1/2+z
loop_
_atom_site_type_symbol
_atom_site_label
_atom_site_fract_x
_atom_site_fract_y
_atom_site_fract_z
Si Si1 0.000000 0.250000 0.529513
Si Si2 0.328804 0.877948 0.769634
Si Si3 0.684313 0.935250 0.121517
Si Si4 0.189815 0.817775 0.935362
Si Si5 0.259273 0.250000 0.750000
Si Si6 0.392192 0.544673 0.300699
Si Si7 0.500000 0.250000 0.842908
O O1 0.096383 0.201143 0.492180
O O2 0.131761 0.286023 0.567447
O O3 0.500000 0.904368 0.750000
O O4 0.298743 0.908001 0.830034
O O5 0.343304 0.805646 0.774654
O O6 0.187318 0.895055 0.725216
O O7 0.699400 0.890270 0.067615
O O8 0.499010 0.940207 0.144128
O O9 0.750000 0.000000 0.102187
O O10 0.081187 0.801090 0.881067
O O11 0.364435 0.278214 0.801564
O O12 0.500000 0.515174 0.250000
O O13 0.250000 0.500000 0.319688
#
# Coordination Sequence:
#
# PCOD8281914 Si02
#       7
#     8  16  16  16   8  16   8
#     4   9  22  41  72  88 114 139 208 255 316 362
#     4  11  21  33  50  79 121 168 208 241 279 337
#     4  11  22  37  58  84 121 159 197 244 297 361
#     4  10  20  42  64  93 113 157 193 255 309 362
#     4  11  21  32  52  87 125 166 200 239 283 350
#     4  10  19  34  53  77 114 169 210 239 275 342
#     4  10  20  35  58  82 124 157 198 236 294 346
#
# _framework density 20.359283999999999
#
# number of rings (size 3 to 8) (size 9 to 14) (size 15 to 20)
#    0.000    1.636    1.818    5.182    5.091    1.455 
#    0.000    8.182    0.000    0.000    0.000    0.000 
#    0.000    0.000    0.000    0.000    0.000    0.000 
#
# Total GULP energy -545394.065232 kJ/mol
# GULP energy per Si atom -12395.319664 kJ/mol
# Density = 2.031295 g / cm^3
# Si number density = 20.359284 Si / 1000 Ang^3
#
#
#
# Elastic Constant Matrix: (Units=GPa)
#
#
# Indices 1 2 3 4 5 6 
#
# 1 117.1625 41.9024 29.9334 0.0000 0.0000 0.0000
# 2 41.9024 157.7504 39.0572 0.0000 0.0000 0.0000
# 3 29.9334 39.0572 56.8361 0.0000 0.0000 0.0000
# 4 0.0000 0.0000 0.0000 25.6892 0.0000 0.0000
# 5 0.0000 0.0000 0.0000 0.0000 13.3578 0.0000
# 6 0.0000 0.0000 0.0000 0.0000 0.0000 16.0527
#
#
#
# Elastic Compliance Matrix: (Units=1/GPa)
#
#
# Indices 1 2 3 4 5 6 
#
# 1 0.010212 -0.001664 -0.004235 0.000000 0.000000 0.000000
# 2 -0.001664 0.007910 -0.004559 0.000000 0.000000 0.000000
# 3 -0.004235 -0.004559 0.022958 0.000000 0.000000 0.000000
# 4 0.000000 0.000000 0.000000 0.038927 0.000000 0.000000
# 5 0.000000 0.000000 0.000000 0.000000 0.074863 0.000000
# 6 0.000000 0.000000 0.000000 0.000000 0.000000 0.062295
#
#
# Mechanical properties :
#
#
# Convention : Reuss Voigt Hill
#
# Bulk Modulus (GPa) = 49.59408 61.50389 55.54898
# Shear Modulus (GPa) = 20.42467 25.74367 23.08417
#
# Velocity S-wave (km/s) = 3.17079 3.55979 3.37091
# Velocity P-wave (km/s) = 6.14959 6.86812 6.51876
#
# Compressibility (1/GPa) = 0.02016370
#
# Stress axis : x y z
#
# Youngs Moduli (GPa) = 97.92153 126.42266 43.55812
#
# Poissons Ratio (x) = 0.21038 0.18446
# Poissons Ratio (y) = 0.16295 0.19859
# Poissons Ratio (z) = 0.41468 0.57639
#
# Static dielectric constant tensor:
#      x y z
#    x 3.871980 0.000000 0.000000 
#    y 0.000000 3.709060 0.000000 
#    z 0.000000 0.000000 3.324190 
# 
# 
# High freq. dielectric constant tensor:
#      x y z
#    x 1.804670 0.000000 0.000000 
#    y 0.000000 1.800620 0.000000 
#    z 0.000000 0.000000 1.749920 
# 
# From -- ./inp_files/43174.got.cif
#   From: 2010.03.12/outbox.cif.g09.slc.cpg/sg68_22_cif.got.tgz:43174.got - 2010.04.10 23:14:56.
