data_PCOD8281645
_publ_section_title
;
Structure prediction by ZEFSAII (Michael W. Deem and Ramdas Pophale) SiO2 
 PCOD8281645
Probable space group: C C C A
;
_chemical_formula_sum "Si O2"
_cell_formula_units_Z 88
_cell_length_a 9.069604
_cell_length_b 27.484901
_cell_length_c 17.634114
_cell_angle_alpha 90.000000
_cell_angle_beta 90.000000
_cell_angle_gamma 90.000000
_cell_volume 4395.781999
_symmetry_space_group_name_H-M "C C C A"
_symmetry_group_IT_number 68
_space_group.IT_coordinate_system_code '2'
_symmetry_cell_setting 'orthorhombic'
loop_
_space_group_symop_operation_xyz
x,y,z
-x,1/2-y,z
x,1/2-y,1/2-z
-x,y,1/2-z
-x,-y,-z
x,1/2+y,-z
-x,1/2+y,1/2+z
x,-y,1/2+z
1/2+x,1/2+y,z
1/2-x,-y,z
1/2+x,-y,1/2-z
1/2-x,1/2+y,1/2-z
1/2-x,1/2-y,-z
1/2+x,y,-z
1/2-x,y,1/2+z
1/2+x,1/2-y,1/2+z
loop_
_atom_site_type_symbol
_atom_site_label
_atom_site_fract_x
_atom_site_fract_y
_atom_site_fract_z
Si Si1 0.167515 0.628914 0.097135
Si Si2 0.637828 0.382182 0.700541
Si Si3 0.000771 0.647584 0.949831
Si Si4 0.759368 0.294293 0.790867
Si Si5 0.340694 0.952005 0.780213
Si Si6 0.000000 0.750000 0.609697
O O1 0.329085 0.636358 0.061980
O O2 0.134601 0.673603 0.155436
O O3 0.154816 0.578524 0.141969
O O4 0.044375 0.628591 0.032567
O O5 0.500000 0.400309 0.750000
O O6 0.595347 0.381496 0.612558
O O7 0.684479 0.328576 0.727793
O O8 0.768091 0.420678 0.712527
O O9 0.041690 0.704756 0.944677
O O10 0.848006 0.250000 0.750000
O O11 0.632230 0.268260 0.838481
O O12 0.500000 0.967239 0.750000
O O13 0.250000 0.000000 0.798846
#
# Coordination Sequence:
#
# PCOD8281645 Si02
#       6
#    16  16  16  16  16   8
#     4  10  25  40  60  94 132 171 207 262 321 388
#     4  11  18  37  66  92 122 169 217 265 306 371
#     4  11  22  38  60  91 138 174 215 257 315 371
#     4  10  16  31  58  89 121 168 226 262 300 356
#     4  11  25  45  71  96 120 153 212 268 325 384
#     4  10  17  30  60  86 123 174 224 252 299 360
#
# _framework density 20.019190999999999
#
# number of rings (size 3 to 8) (size 9 to 14) (size 15 to 20)
#    0.000    1.455    7.273    0.818    2.545    2.909 
#    0.000    1.818    0.000    4.909    0.000    0.000 
#    0.000    0.000    0.000    0.000    0.000    0.000 
#
# Total GULP energy -545536.126373 kJ/mol
# GULP energy per Si atom -12398.548327 kJ/mol
# Density = 1.997363 g / cm^3
# Si number density = 20.019191 Si / 1000 Ang^3
#
#
#
# Elastic Constant Matrix: (Units=GPa)
#
#
# Indices 1 2 3 4 5 6 
#
# 1 68.7952 40.9227 34.1039 0.0000 0.0000 0.0000
# 2 40.9227 135.7017 54.3891 0.0000 0.0000 0.0000
# 3 34.1039 54.3891 109.0476 0.0000 0.0000 0.0000
# 4 0.0000 0.0000 0.0000 12.1974 0.0000 0.0000
# 5 0.0000 0.0000 0.0000 0.0000 19.3860 0.0000
# 6 0.0000 0.0000 0.0000 0.0000 0.0000 19.5372
#
#
#
# Elastic Compliance Matrix: (Units=1/GPa)
#
#
# Indices 1 2 3 4 5 6 
#
# 1 0.018917 -0.004166 -0.003838 0.000000 0.000000 0.000000
# 2 -0.004166 0.010128 -0.003748 0.000000 0.000000 0.000000
# 3 -0.003838 -0.003748 0.012240 0.000000 0.000000 0.000000
# 4 0.000000 0.000000 0.000000 0.081985 0.000000 0.000000
# 5 0.000000 0.000000 0.000000 0.000000 0.051584 0.000000
# 6 0.000000 0.000000 0.000000 0.000000 0.000000 0.051184
#
#
# Mechanical properties :
#
#
# Convention : Reuss Voigt Hill
#
# Bulk Modulus (GPa) = 56.24534 63.59733 59.92134
# Shear Modulus (GPa) = 19.57178 22.49938 21.03558
#
# Velocity S-wave (km/s) = 3.13013 3.35608 3.24508
# Velocity P-wave (km/s) = 6.42031 6.84506 6.63608
#
# Compressibility (1/GPa) = 0.01777925
#
# Stress axis : x y z
#
# Youngs Moduli (GPa) = 52.86279 98.73723 81.69773
#
# Poissons Ratio (x) = 0.41137 0.31356
# Poissons Ratio (y) = 0.22024 0.30624
# Poissons Ratio (z) = 0.20289 0.37011
#
# Static dielectric constant tensor:
#      x y z
#    x 3.435900 0.000000 0.000000 
#    y 0.000000 3.916000 0.000000 
#    z 0.000000 0.000000 3.721170 
# 
# 
# High freq. dielectric constant tensor:
#      x y z
#    x 1.767870 0.000000 0.000000 
#    y 0.000000 1.778640 0.000000 
#    z 0.000000 0.000000 1.774340 
# 
# From -- ./inp_files/28515.got.cif
#   From: 2010.03.12/outbox.cif.g09.slc.cpg/sg68_15_cif.got.tgz:28515.got - 2010.04.10 23:14:56.
