data_PCOD8281682
_publ_section_title
;
Structure prediction by ZEFSAII (Michael W. Deem and Ramdas Pophale) SiO2 
 PCOD8281682
Probable space group: C C C A
;
_chemical_formula_sum "Si O2"
_cell_formula_units_Z 116
_cell_length_a 25.576248
_cell_length_b 9.784481
_cell_length_c 26.427929
_cell_angle_alpha 90.000000
_cell_angle_beta 90.000000
_cell_angle_gamma 90.000000
_cell_volume 6613.597494
_symmetry_space_group_name_H-M "C C C A"
_symmetry_group_IT_number 68
_space_group.IT_coordinate_system_code '2'
_symmetry_cell_setting 'orthorhombic'
loop_
_space_group_symop_operation_xyz
x,y,z
-x,1/2-y,z
x,1/2-y,1/2-z
-x,y,1/2-z
-x,-y,-z
x,1/2+y,-z
-x,1/2+y,1/2+z
x,-y,1/2+z
1/2+x,1/2+y,z
1/2-x,-y,z
1/2+x,-y,1/2-z
1/2-x,1/2+y,1/2-z
1/2-x,1/2-y,-z
1/2+x,y,-z
1/2-x,y,1/2+z
1/2+x,1/2-y,1/2+z
loop_
_atom_site_type_symbol
_atom_site_label
_atom_site_fract_x
_atom_site_fract_y
_atom_site_fract_z
Si Si1 0.612271 0.979034 0.625215
Si Si2 0.442486 0.295846 0.400234
Si Si3 0.000000 0.250000 0.750000
Si Si4 0.939446 0.997928 0.718359
Si Si5 0.559366 0.734915 0.415034
Si Si6 0.955286 0.556635 0.670835
Si Si7 0.688865 0.523313 0.956742
Si Si8 0.871016 0.283965 0.507248
O O1 0.590889 0.826834 0.622580
O O2 0.669598 0.997537 0.601365
O O3 0.613387 0.014573 0.685235
O O4 0.571340 0.076205 0.595565
O O5 0.500000 0.250000 0.416631
O O6 0.446468 0.415334 0.358773
O O7 0.412049 0.339231 0.451148
O O8 0.036988 0.347680 0.716588
O O9 0.984450 0.912891 0.687533
O O10 0.925348 0.948320 0.774824
O O11 0.500000 0.750000 0.433874
O O12 0.568117 0.823815 0.364022
O O13 0.597657 0.783176 0.460048
O O14 0.750000 0.500000 0.958618
O O15 0.670727 0.673367 0.973264
O O16 0.662525 0.414844 0.993180
#
# Coordination Sequence:
#
# PCOD8281682 Si02
#       8
#    16  16   4  16  16  16  16  16
#     4  10  20  31  49  72 101 130 171 204 259 295
#     4  11  18  32  48  76 103 140 165 203 236 311
#     4   8  16  24  48  66 104 132 164 194 236 276
#     4  10  17  30  43  74  97 142 172 204 234 288
#     4  11  19  33  44  74 109 142 160 201 239 315
#     4  10  20  28  50  67 108 140 175 192 239 281
#     4  10  21  38  55  74  95 128 175 227 263 304
#     4  10  22  33  55  75 102 132 172 204 268 303
#
# _framework density 17.539622000000001
#
# number of rings (size 3 to 8) (size 9 to 14) (size 15 to 20)
#    0.000    1.931    2.759    3.310    0.966    0.552 
#    0.000    5.517    0.000    0.000    0.000   23.172 
#    0.000    0.000    0.000    0.000    0.000    0.000 
#
# Total GULP energy -718550.649779 kJ/mol
# GULP energy per Si atom -12388.804307 kJ/mol
# Density = 1.749970 g / cm^3
# Si number density = 17.539622 Si / 1000 Ang^3
#
#
#
# Elastic Constant Matrix: (Units=GPa)
#
#
# Indices 1 2 3 4 5 6 
#
# 1 83.0203 11.1786 48.2396 0.0000 0.0000 0.0000
# 2 11.1786 50.3943 18.1364 0.0000 0.0000 0.0000
# 3 48.2396 18.1364 135.7529 0.0000 0.0000 0.0000
# 4 0.0000 0.0000 0.0000 20.5708 0.0000 0.0000
# 5 0.0000 0.0000 0.0000 0.0000 17.2547 0.0000
# 6 0.0000 0.0000 0.0000 0.0000 0.0000 15.8953
#
#
#
# Elastic Compliance Matrix: (Units=1/GPa)
#
#
# Indices 1 2 3 4 5 6 
#
# 1 0.015288 -0.001509 -0.005231 0.000000 0.000000 0.000000
# 2 -0.001509 0.020995 -0.002269 0.000000 0.000000 0.000000
# 3 -0.005231 -0.002269 0.009528 0.000000 0.000000 0.000000
# 4 0.000000 0.000000 0.000000 0.048613 0.000000 0.000000
# 5 0.000000 0.000000 0.000000 0.000000 0.057955 0.000000
# 6 0.000000 0.000000 0.000000 0.000000 0.000000 0.062912
#
#
# Mechanical properties :
#
#
# Convention : Reuss Voigt Hill
#
# Bulk Modulus (GPa) = 35.97893 47.14185 41.56039
# Shear Modulus (GPa) = 20.61247 23.51837 22.06542
#
# Velocity S-wave (km/s) = 3.43183 3.66576 3.55072
# Velocity P-wave (km/s) = 6.02169 6.69722 6.36842
#
# Compressibility (1/GPa) = 0.02779405
#
# Stress axis : x y z
#
# Youngs Moduli (GPa) = 65.41127 47.63118 104.95113
#
# Poissons Ratio (x) = 0.07186 0.54900
# Poissons Ratio (y) = 0.09868 0.23811
# Poissons Ratio (z) = 0.34216 0.10806
#
# Static dielectric constant tensor:
#      x y z
#    x 2.958350 0.000000 0.000000 
#    y 0.000000 3.345870 0.000000 
#    z 0.000000 0.000000 3.652300 
# 
# 
# High freq. dielectric constant tensor:
#      x y z
#    x 1.622890 0.000000 0.000000 
#    y 0.000000 1.689530 0.000000 
#    z 0.000000 0.000000 1.694430 
# 
# From -- ./inp_files/52211.got.cif
#   From: 2010.03.12/outbox.cif.g09.slc.cpg/sg68_27_cif.got.tgz:52211.got - 2010.04.10 23:14:56.
