data_PCOD8281598
_publ_section_title
;
Structure prediction by ZEFSAII (Michael W. Deem and Ramdas Pophale) SiO2 
 PCOD8281598
Probable space group: C M M A
;
_chemical_formula_sum "Si O2"
_cell_formula_units_Z 80
_cell_length_a 30.563185
_cell_length_b 9.112750
_cell_length_c 20.559479
_cell_angle_alpha 90.000000
_cell_angle_beta 90.000000
_cell_angle_gamma 90.000000
_cell_volume 5726.116388
_symmetry_space_group_name_H-M "C M M A"
_symmetry_group_IT_number 67
_symmetry_cell_setting 'orthorhombic'
loop_
_space_group_symop_operation_xyz
x,y,z
-x,1/2-y,z
x,-y,-z
-x,1/2+y,-z
-x,-y,-z
x,1/2+y,-z
-x,y,z
x,1/2-y,z
1/2+x,1/2+y,z
1/2-x,-y,z
1/2+x,1/2-y,-z
1/2-x,y,-z
1/2-x,1/2-y,-z
1/2+x,y,-z
1/2-x,1/2+y,z
1/2+x,-y,z
loop_
_atom_site_type_symbol
_atom_site_label
_atom_site_fract_x
_atom_site_fract_y
_atom_site_fract_z
Si Si1 0.052051 0.415440 0.810478
Si Si2 0.886850 0.579847 0.568040
Si Si3 0.290095 0.578996 0.430953
Si Si4 0.052182 0.584112 0.936521
Si Si5 0.550503 0.078178 0.681582
O O1 0.070353 0.250000 0.811964
O O2 0.070697 0.502576 0.872695
O O3 0.068167 0.494390 0.745005
O O4 0.000000 0.415939 0.813058
O O5 0.894236 0.500000 0.500000
O O6 0.894488 0.750000 0.553464
O O7 0.838365 0.554552 0.599339
O O8 0.921849 0.521001 0.620098
O O9 0.291851 0.500000 0.500000
O O10 0.279240 0.750000 0.438314
O O11 0.250000 0.500000 0.391039
O O12 0.070139 0.750000 0.937377
O O13 0.000000 0.584016 0.936042
O O14 0.069938 0.500000 0.000000
O O15 0.500000 0.041158 0.667487
O O16 0.557620 0.250000 0.693993
#
# Coordination Sequence:
#
# PCOD8281598 Si02
#       5
#    16  16  16  16  16
#     4   9  16  25  36  50  67  88 117 151 183 215
#     4   9  18  29  40  55  73  92 117 151 187 222
#     4   9  15  24  38  55  73  90 109 136 174 219
#     4   9  15  22  33  49  68  89 113 144 181 217
#     4   9  17  29  41  51  67  94 125 154 185 219
#
# _framework density 13.971075000000001
#
# number of rings (size 3 to 8) (size 9 to 14) (size 15 to 20)
#    0.000    3.000    0.000    2.400    0.000    6.800 
#    0.000    0.000    0.000    0.000    0.000    0.000 
#    0.000    0.000    0.000    0.000    0.000    1.000 
#
# Total GULP energy -495704.039290 kJ/mol
# GULP energy per Si atom -12392.600982 kJ/mol
# Density = 1.393928 g / cm^3
# Si number density = 13.971075 Si / 1000 Ang^3
#
#
#
# Elastic Constant Matrix: (Units=GPa)
#
#
# Indices 1 2 3 4 5 6 
#
# 1 52.0980 31.3872 41.9812 0.0000 0.0000 0.0000
# 2 31.3872 95.9646 56.7221 0.0000 0.0000 0.0000
# 3 41.9812 56.7221 111.2271 0.0000 0.0000 0.0000
# 4 0.0000 0.0000 0.0000 24.1940 0.0000 0.0000
# 5 0.0000 0.0000 0.0000 0.0000 1.3297 0.0000
# 6 0.0000 0.0000 0.0000 0.0000 0.0000 11.9018
#
#
#
# Elastic Compliance Matrix: (Units=1/GPa)
#
#
# Indices 1 2 3 4 5 6 
#
# 1 0.028762 -0.004281 -0.008673 0.000000 0.000000 0.000000
# 2 -0.004281 0.015554 -0.006316 0.000000 0.000000 0.000000
# 3 -0.008673 -0.006316 0.015485 0.000000 0.000000 0.000000
# 4 0.000000 0.000000 0.000000 0.041332 0.000000 0.000000
# 5 0.000000 0.000000 0.000000 0.000000 0.752035 0.000000
# 6 0.000000 0.000000 0.000000 0.000000 0.000000 0.084021
#
#
# Mechanical properties :
#
#
# Convention : Reuss Voigt Hill
#
# Bulk Modulus (GPa) = 47.03355 57.71897 52.37626
# Shear Modulus (GPa) = 5.08742 16.09839 10.59290
#
# Velocity S-wave (km/s) = 1.91031 3.39819 2.75653
# Velocity P-wave (km/s) = 6.21319 7.53656 6.90665
#
# Compressibility (1/GPa) = 0.02126142
#
# Stress axis : x y z
#
# Youngs Moduli (GPa) = 34.76758 64.29191 64.57819
#
# Poissons Ratio (x) = 0.27524 0.56007
# Poissons Ratio (y) = 0.14884 0.40789
# Poissons Ratio (z) = 0.30153 0.40608
#
# Static dielectric constant tensor:
#      x y z
#    x 2.984490 0.000000 0.000000 
#    y 0.000000 2.926700 0.000000 
#    z 0.000000 0.000000 2.695210 
# 
# 
# High freq. dielectric constant tensor:
#      x y z
#    x 1.484200 0.000000 0.000000 
#    y 0.000000 1.548970 0.000000 
#    z 0.000000 0.000000 1.513620 
# 
# From -- ./inp_files/37379.got.cif
#   From: 2010.03.12/outbox.cif.g09.slc.cpg/sg67_19_cif.got.tgz:37379.got - 2010.04.10 22:41:39.
