data_PCOD8281042
_publ_section_title
;
Structure prediction by ZEFSAII (Michael W. Deem and Ramdas Pophale) SiO2 
 PCOD8281042
Probable space group: C M M A
;
_chemical_formula_sum "Si O2"
_cell_formula_units_Z 112
_cell_length_a 15.080914
_cell_length_b 25.280508
_cell_length_c 13.796920
_cell_angle_alpha 90.000000
_cell_angle_beta 90.000000
_cell_angle_gamma 90.000000
_cell_volume 5260.119445
_symmetry_space_group_name_H-M "C M M A"
_symmetry_group_IT_number 67
_symmetry_cell_setting 'orthorhombic'
loop_
_space_group_symop_operation_xyz
x,y,z
-x,1/2-y,z
x,-y,-z
-x,1/2+y,-z
-x,-y,-z
x,1/2+y,-z
-x,y,z
x,1/2-y,z
1/2+x,1/2+y,z
1/2-x,-y,z
1/2+x,1/2-y,-z
1/2-x,y,-z
1/2-x,1/2-y,-z
1/2+x,y,-z
1/2-x,1/2+y,z
1/2+x,-y,z
loop_
_atom_site_type_symbol
_atom_site_label
_atom_site_fract_x
_atom_site_fract_y
_atom_site_fract_z
Si Si1 0.500000 0.986234 0.127788
Si Si2 0.102432 0.010020 0.393870
Si Si3 0.741457 0.188761 0.265520
Si Si4 0.680956 0.869087 0.913847
Si Si5 0.167248 0.529385 0.212647
Si Si6 0.101623 0.811548 0.429302
Si Si7 0.000000 0.902021 0.014106
Si Si8 0.102390 0.866722 0.630189
O O1 0.585979 0.990508 0.192322
O O2 0.500000 0.038216 0.058813
O O3 0.500000 0.924190 0.094834
O O4 0.115621 0.070856 0.365376
O O5 0.000000 0.992216 0.386535
O O6 0.139293 0.000000 0.500000
O O7 0.163930 0.970241 0.329453
O O8 0.762885 0.250000 0.276922
O O9 0.711657 0.179998 0.152497
O O10 0.662954 0.171426 0.338746
O O11 0.832036 0.157579 0.288928
O O12 0.666953 0.913794 0.833560
O O13 0.584072 0.864655 0.962821
O O14 0.750000 0.881396 0.000000
O O15 0.250000 0.500000 0.166460
O O16 0.114848 0.750000 0.454730
O O17 0.128967 0.844653 0.524101
O O18 0.000000 0.823566 0.399104
O O19 0.000000 0.851029 0.653143
#
# Coordination Sequence:
#
# PCOD8281042 Si02
#       8
#     8  16  16  16  16  16   8  16
#     4   9  18  36  59  88 118 159 210 267 311 362
#     4  10  22  39  58  91 135 178 212 258 312 372
#     4  11  24  42  67  94 128 166 213 278 332 387
#     4  11  25  43  63  98 122 165 217 270 330 386
#     4  11  21  37  62  88 124 171 213 258 307 381
#     4   9  19  37  64  95 125 167 218 268 318 379
#     4   9  20  38  63  88 120 159 206 265 324 374
#     4  10  21  39  63  95 133 175 215 261 313 391
#
# _framework density 21.292293000000001
#
# number of rings (size 3 to 8) (size 9 to 14) (size 15 to 20)
#    0.000    1.857    0.714    2.571    3.000    4.000 
#    3.857    0.000    0.000    0.000    0.000    0.000 
#    0.000    0.000    0.000    0.000    0.000    0.000 
#
# Total GULP energy -693960.676046 kJ/mol
# GULP energy per Si atom -12392.154929 kJ/mol
# Density = 2.124383 g / cm^3
# Si number density = 21.292293 Si / 1000 Ang^3
#
#
#
# Elastic Constant Matrix: (Units=GPa)
#
#
# Indices 1 2 3 4 5 6 
#
# 1 122.9185 22.5395 36.2670 0.0000 0.0000 0.0000
# 2 22.5395 53.2325 27.7125 0.0000 0.0000 0.0000
# 3 36.2670 27.7125 98.4681 0.0000 0.0000 0.0000
# 4 0.0000 0.0000 0.0000 37.3352 0.0000 0.0000
# 5 0.0000 0.0000 0.0000 0.0000 45.4044 0.0000
# 6 0.0000 0.0000 0.0000 0.0000 0.0000 28.9984
#
#
#
# Elastic Compliance Matrix: (Units=1/GPa)
#
#
# Indices 1 2 3 4 5 6 
#
# 1 0.009415 -0.002556 -0.002748 0.000000 0.000000 0.000000
# 2 -0.002556 0.022704 -0.005448 0.000000 0.000000 0.000000
# 3 -0.002748 -0.005448 0.012701 0.000000 0.000000 0.000000
# 4 0.000000 0.000000 0.000000 0.026784 0.000000 0.000000
# 5 0.000000 0.000000 0.000000 0.000000 0.022024 0.000000
# 6 0.000000 0.000000 0.000000 0.000000 0.000000 0.034485
#
#
# Mechanical properties :
#
#
# Convention : Reuss Voigt Hill
#
# Bulk Modulus (GPa) = 42.89040 49.73968 46.31504
# Shear Modulus (GPa) = 31.76812 34.88760 33.32786
#
# Velocity S-wave (km/s) = 3.86683 4.05224 3.96062
# Velocity P-wave (km/s) = 6.33434 6.73092 6.53564
#
# Compressibility (1/GPa) = 0.02331524
#
# Stress axis : x y z
#
# Youngs Moduli (GPa) = 106.21334 44.04501 78.73250
#
# Poissons Ratio (x) = 0.11256 0.21639
# Poissons Ratio (y) = 0.27145 0.42897
# Poissons Ratio (z) = 0.29192 0.23998
#
# Static dielectric constant tensor:
#      x y z
#    x 4.074210 0.000000 0.000000 
#    y 0.000000 3.574700 0.000000 
#    z 0.000000 0.000000 4.007360 
# 
# 
# High freq. dielectric constant tensor:
#      x y z
#    x 1.847240 0.000000 0.000000 
#    y 0.000000 1.812290 0.000000 
#    z 0.000000 0.000000 1.836130 
# 
# From -- ./inp_files/27773.got.cif
#   From: 2010.03.12/outbox.cif.g09.slc.cpg/sg67_14_cif.got.tgz:27773.got - 2010.04.10 22:41:39.
