data_PCOD8281023
_publ_section_title
;
Structure prediction by ZEFSAII (Michael W. Deem and Ramdas Pophale) SiO2 
 PCOD8281023
Probable space group: C M M A
;
_chemical_formula_sum "Si O2"
_cell_formula_units_Z 96
_cell_length_a 19.539609
_cell_length_b 28.568178
_cell_length_c 9.140709
_cell_angle_alpha 90.000000
_cell_angle_beta 90.000000
_cell_angle_gamma 90.000000
_cell_volume 5102.444567
_symmetry_space_group_name_H-M "C M M A"
_symmetry_group_IT_number 67
_symmetry_cell_setting 'orthorhombic'
loop_
_space_group_symop_operation_xyz
x,y,z
-x,1/2-y,z
x,-y,-z
-x,1/2+y,-z
-x,-y,-z
x,1/2+y,-z
-x,y,z
x,1/2-y,z
1/2+x,1/2+y,z
1/2-x,-y,z
1/2+x,1/2-y,-z
1/2-x,y,-z
1/2-x,1/2-y,-z
1/2+x,y,-z
1/2-x,1/2+y,z
1/2+x,-y,z
loop_
_atom_site_type_symbol
_atom_site_label
_atom_site_fract_x
_atom_site_fract_y
_atom_site_fract_z
Si Si1 0.420250 0.303956 0.215336
Si Si2 0.578336 0.525850 0.652458
Si Si3 0.673317 0.803400 0.054238
Si Si4 0.697142 0.121531 0.719456
Si Si5 0.651223 0.878559 0.604265
Si Si6 0.316702 0.478150 0.839663
O O1 0.500000 0.312047 0.185125
O O2 0.403814 0.250000 0.252546
O O3 0.396254 0.334498 0.354006
O O4 0.379427 0.320011 0.070561
O O5 0.586864 0.500000 0.500000
O O6 0.500000 0.534571 0.693773
O O7 0.617479 0.574564 0.664333
O O8 0.611428 0.491449 0.769553
O O9 0.658556 0.750000 0.098667
O O10 0.663975 0.834211 0.199125
O O11 0.750000 0.810601 0.000000
O O12 0.654906 0.115624 0.570244
O O13 0.776032 0.129701 0.680150
O O14 0.689436 0.077847 0.830211
O O15 0.250000 0.500000 0.755479
O O16 0.316072 0.500000 0.000000
#
# Coordination Sequence:
#
# PCOD8281023 Si02
#       6
#    16  16  16  16  16  16
#     4  10  22  41  64  90 122 162 203 245 304 367
#     4  11  23  41  61  83 120 161 199 241 295 355
#     4  10  21  39  62  89 123 156 197 253 301 354
#     4  11  23  37  61  92 122 155 202 251 303 355
#     4  11  22  38  61  90 122 158 199 251 301 357
#     4  11  24  38  60  88 118 158 198 247 297 352
#
# _framework density 18.814509999999999
#
# number of rings (size 3 to 8) (size 9 to 14) (size 15 to 20)
#    0.000    1.333    5.000    0.500    4.667    1.333 
#    0.000    4.167    0.000    2.000    0.000    0.000 
#    0.000    0.000    0.000    0.000    0.000    0.000 
#
# Total GULP energy -595251.868895 kJ/mol
# GULP energy per Si atom -12401.080602 kJ/mol
# Density = 1.877169 g / cm^3
# Si number density = 18.814510 Si / 1000 Ang^3
#
#
#
# Elastic Constant Matrix: (Units=GPa)
#
#
# Indices 1 2 3 4 5 6 
#
# 1 94.3729 25.5380 35.7912 0.0000 0.0000 0.0000
# 2 25.5380 94.4412 38.9075 0.0000 0.0000 0.0000
# 3 35.7912 38.9075 81.3382 0.0000 0.0000 0.0000
# 4 0.0000 0.0000 0.0000 35.3917 0.0000 0.0000
# 5 0.0000 0.0000 0.0000 0.0000 20.7570 0.0000
# 6 0.0000 0.0000 0.0000 0.0000 0.0000 27.3415
#
#
#
# Elastic Compliance Matrix: (Units=1/GPa)
#
#
# Indices 1 2 3 4 5 6 
#
# 1 0.012872 -0.001429 -0.004980 0.000000 0.000000 0.000000
# 2 -0.001429 0.013346 -0.005755 0.000000 0.000000 0.000000
# 3 -0.004980 -0.005755 0.017239 0.000000 0.000000 0.000000
# 4 0.000000 0.000000 0.000000 0.028255 0.000000 0.000000
# 5 0.000000 0.000000 0.000000 0.000000 0.048177 0.000000
# 6 0.000000 0.000000 0.000000 0.000000 0.000000 0.036575
#
#
# Mechanical properties :
#
#
# Convention : Reuss Voigt Hill
#
# Bulk Modulus (GPa) = 52.28062 52.29175 52.28619
# Shear Modulus (GPa) = 26.71398 28.02573 27.36986
#
# Velocity S-wave (km/s) = 3.77219 3.86370 3.81822
# Velocity P-wave (km/s) = 6.84254 6.91070 6.87670
#
# Compressibility (1/GPa) = 0.01912755
#
# Stress axis : x y z
#
# Youngs Moduli (GPa) = 77.68931 74.92895 58.00844
#
# Poissons Ratio (x) = 0.10706 0.28891
# Poissons Ratio (y) = 0.11100 0.33385
# Poissons Ratio (z) = 0.38693 0.43123
#
# Static dielectric constant tensor:
#      x y z
#    x 3.588790 0.000000 0.000000 
#    y 0.000000 3.508200 0.000000 
#    z 0.000000 0.000000 3.253920 
# 
# 
# High freq. dielectric constant tensor:
#      x y z
#    x 1.732420 0.000000 0.000000 
#    y 0.000000 1.741640 0.000000 
#    z 0.000000 0.000000 1.720850 
# 
# From -- ./inp_files/11457.got.cif
#   From: 2010.03.12/outbox.cif.g09.slc.cpg/sg67_6_cif.got.tgz:11457.got - 2010.04.10 22:41:39.
