data_PCOD8281415
_publ_section_title
;
Structure prediction by ZEFSAII (Michael W. Deem and Ramdas Pophale) SiO2 
 PCOD8281415
Probable space group: C M M A
;
_chemical_formula_sum "Si O2"
_cell_formula_units_Z 80
_cell_length_a 9.032259
_cell_length_b 19.178438
_cell_length_c 25.825269
_cell_angle_alpha 90.000000
_cell_angle_beta 90.000000
_cell_angle_gamma 90.000000
_cell_volume 4473.572389
_symmetry_space_group_name_H-M "C M M A"
_symmetry_group_IT_number 67
_symmetry_cell_setting 'orthorhombic'
loop_
_space_group_symop_operation_xyz
x,y,z
-x,1/2-y,z
x,-y,-z
-x,1/2+y,-z
-x,-y,-z
x,1/2+y,-z
-x,y,z
x,1/2-y,z
1/2+x,1/2+y,z
1/2-x,-y,z
1/2+x,1/2-y,-z
1/2-x,y,-z
1/2-x,1/2-y,-z
1/2+x,y,-z
1/2-x,1/2+y,z
1/2+x,-y,z
loop_
_atom_site_type_symbol
_atom_site_label
_atom_site_fract_x
_atom_site_fract_y
_atom_site_fract_z
Si Si1 0.334518 0.666775 0.151186
Si Si2 0.171236 0.831849 0.365433
Si Si3 0.163972 0.167175 0.750228
Si Si4 0.833566 0.166849 0.949513
Si Si5 0.677042 0.072831 0.553875
O O1 0.500000 0.638414 0.145499
O O2 0.330606 0.750000 0.151652
O O3 0.270132 0.636816 0.205169
O O4 0.242401 0.637815 0.102516
O O5 0.194222 0.750000 0.373277
O O6 0.216763 0.854928 0.307154
O O7 0.283654 0.870085 0.403463
O O8 0.000000 0.851908 0.376441
O O9 0.159675 0.250000 0.753061
O O10 0.000000 0.137637 0.760758
O O11 0.830064 0.250000 0.949601
O O12 0.000000 0.138455 0.950996
O O13 0.750000 0.137596 0.000000
O O14 0.500000 0.065580 0.548143
O O15 0.750000 0.097211 0.500000
O O16 0.750000 0.000000 0.571087
#
# Coordination Sequence:
#
# PCOD8281415 Si02
#       5
#    16  16  16  16  16
#     4   9  15  21  30  45  66  93 127 168 212 258
#     4   9  18  33  52  74 100 127 157 195 237 280
#     4   8  14  25  40  57  79 108 139 173 216 264
#     4   9  15  21  28  38  55  82 120 166 213 259
#     4  11  22  37  56  75  98 127 160 195 233 280
#
# _framework density 17.882798999999999
#
# number of rings (size 3 to 8) (size 9 to 14) (size 15 to 20)
#    0.000    2.800    0.000    4.800    0.000    6.400 
#    0.000    2.000    0.000    0.000    0.000    0.000 
#    0.000    0.000    0.000    0.000    0.000    1.000 
#
# Total GULP energy -495826.272150 kJ/mol
# GULP energy per Si atom -12395.656804 kJ/mol
# Density = 1.784210 g / cm^3
# Si number density = 17.882799 Si / 1000 Ang^3
#
#
#
# Elastic Constant Matrix: (Units=GPa)
#
#
# Indices 1 2 3 4 5 6 
#
# 1 160.7438 25.9628 88.9600 0.0000 0.0000 0.0000
# 2 25.9628 19.4310 33.7794 0.0000 0.0000 0.0000
# 3 88.9600 33.7794 153.7275 0.0000 0.0000 0.0000
# 4 0.0000 0.0000 0.0000 -1.3926 0.0000 0.0000
# 5 0.0000 0.0000 0.0000 0.0000 38.7966 0.0000
# 6 0.0000 0.0000 0.0000 0.0000 0.0000 13.9773
#
#
#
# Elastic Compliance Matrix: (Units=1/GPa)
#
#
# Indices 1 2 3 4 5 6 
#
# 1 0.009449 -0.005048 -0.004359 0.000000 0.000000 0.000000
# 2 -0.005048 0.085971 -0.015970 0.000000 0.000000 0.000000
# 3 -0.004359 -0.015970 0.012536 0.000000 0.000000 0.000000
# 4 0.000000 0.000000 0.000000 -0.718099 0.000000 0.000000
# 5 0.000000 0.000000 0.000000 0.000000 0.025775 0.000000
# 6 0.000000 0.000000 0.000000 0.000000 0.000000 0.071544
#
#
# Mechanical properties :
#
#
# Convention : Reuss Voigt Hill
#
# Bulk Modulus (GPa) = 17.48133 70.14518 43.81326
# Shear Modulus (GPa) = -11.28661 22.62294 5.66816
#
# Velocity S-wave (km/s) = -2.51498 3.56064 1.78227
# Velocity P-wave (km/s) = 1.16757 7.49762 5.36551
#
# Compressibility (1/GPa) = 0.05720387
#
# Stress axis : x y z
#
# Youngs Moduli (GPa) = 105.83676 11.63182 79.76739
#
# Poissons Ratio (x) = 0.05871 0.34767
# Poissons Ratio (y) = 0.53421 1.27388
# Poissons Ratio (z) = 0.46130 0.18576
#
# Static dielectric constant tensor:
#      x y z
#    x 3.480990 0.000000 0.000000 
#    y 0.000000 2.578500 0.000000 
#    z 0.000000 0.000000 3.582060 
# 
# 
# High freq. dielectric constant tensor:
#      x y z
#    x 1.701540 0.000000 0.000000 
#    y 0.000000 1.608670 0.000000 
#    z 0.000000 0.000000 1.711780 
# 
# From -- ./inp_files/43263.got.cif
#   From: 2010.03.12/outbox.cif.g09.slc.cpg/sg67_22_cif.got.tgz:43263.got - 2010.04.10 22:41:39.
