data_PCOD8281398
_publ_section_title
;
Structure prediction by ZEFSAII (Michael W. Deem and Ramdas Pophale) SiO2 
 PCOD8281398
Probable space group: C M M A
;
_chemical_formula_sum "Si O2"
_cell_formula_units_Z 112
_cell_length_a 18.325021
_cell_length_b 18.689963
_cell_length_c 19.055509
_cell_angle_alpha 90.000000
_cell_angle_beta 90.000000
_cell_angle_gamma 90.000000
_cell_volume 6526.396822
_symmetry_space_group_name_H-M "C M M A"
_symmetry_group_IT_number 67
_symmetry_cell_setting 'orthorhombic'
loop_
_space_group_symop_operation_xyz
x,y,z
-x,1/2-y,z
x,-y,-z
-x,1/2+y,-z
-x,-y,-z
x,1/2+y,-z
-x,y,z
x,1/2-y,z
1/2+x,1/2+y,z
1/2-x,-y,z
1/2+x,1/2-y,-z
1/2-x,y,-z
1/2-x,1/2-y,-z
1/2+x,y,-z
1/2-x,1/2+y,z
1/2+x,-y,z
loop_
_atom_site_type_symbol
_atom_site_label
_atom_site_fract_x
_atom_site_fract_y
_atom_site_fract_z
Si Si1 0.087249 0.831442 0.944947
Si Si2 0.587487 0.547992 0.162482
Si Si3 0.293829 0.670048 0.393908
Si Si4 0.675582 0.039155 0.696602
Si Si5 0.081920 0.971827 0.425066
Si Si6 0.579372 0.937581 0.944265
Si Si7 0.138075 0.329854 0.537988
O O1 0.117548 0.750000 0.938973
O O2 0.111545 0.878989 0.877834
O O3 0.000000 0.831290 0.949306
O O4 0.118706 0.870008 0.016642
O O5 0.500000 0.544649 0.167851
O O6 0.621704 0.546810 0.238617
O O7 0.618306 0.476110 0.122281
O O8 0.297891 0.750000 0.363505
O O9 0.307610 0.618759 0.328810
O O10 0.215834 0.654787 0.427477
O O11 0.355145 0.659596 0.453991
O O12 0.750000 0.000000 0.718912
O O13 0.636777 0.995594 0.634971
O O14 0.080783 0.885519 0.429682
O O15 0.000000 0.999255 0.409380
O O16 0.111058 0.000000 0.500000
O O17 0.500000 0.910430 0.919031
O O18 0.568239 0.000000 0.000000
O O19 0.110352 0.250000 0.555207
#
# Coordination Sequence:
#
# PCOD8281398 Si02
#       7
#    16  16  16  16  16  16  16
#     4   8  13  24  48  79 103 128 163 198 239 294
#     4   9  18  31  46  70 106 135 160 201 253 298
#     4   9  18  32  52  74  94 122 166 213 255 305
#     4  12  22  33  52  72  97 138 177 209 251 306
#     4  11  22  34  51  76 103 128 167 224 271 306
#     4   7  11  23  44  67  92 124 158 193 231 280
#     4   9  17  33  54  73  93 123 164 213 266 310
#
# _framework density 17.161076999999999
#
# number of rings (size 3 to 8) (size 9 to 14) (size 15 to 20)
#    0.000    2.714    2.857    3.000    0.000    1.143 
#    0.000    0.000    0.000    6.857    0.000    3.000 
#    0.000    0.000    0.000    0.000    0.000    0.000 
#
# Total GULP energy -693758.106729 kJ/mol
# GULP energy per Si atom -12388.537620 kJ/mol
# Density = 1.712202 g / cm^3
# Si number density = 17.161077 Si / 1000 Ang^3
#
#
#
# Elastic Constant Matrix: (Units=GPa)
#
#
# Indices 1 2 3 4 5 6 
#
# 1 31.5982 22.7719 21.3843 0.0000 0.0000 0.0000
# 2 22.7719 121.4266 57.5562 0.0000 0.0000 0.0000
# 3 21.3843 57.5562 101.1528 0.0000 0.0000 0.0000
# 4 0.0000 0.0000 0.0000 21.5287 0.0000 0.0000
# 5 0.0000 0.0000 0.0000 0.0000 8.5207 0.0000
# 6 0.0000 0.0000 0.0000 0.0000 0.0000 16.5062
#
#
#
# Elastic Compliance Matrix: (Units=1/GPa)
#
#
# Indices 1 2 3 4 5 6 
#
# 1 0.038746 -0.004633 -0.005555 0.000000 0.000000 0.000000
# 2 -0.004633 0.011831 -0.005752 0.000000 0.000000 0.000000
# 3 -0.005555 -0.005752 0.014333 0.000000 0.000000 0.000000
# 4 0.000000 0.000000 0.000000 0.046450 0.000000 0.000000
# 5 0.000000 0.000000 0.000000 0.000000 0.117361 0.000000
# 6 0.000000 0.000000 0.000000 0.000000 0.000000 0.060583
#
#
# Mechanical properties :
#
#
# Convention : Reuss Voigt Hill
#
# Bulk Modulus (GPa) = 30.27607 50.84469 40.56038
# Shear Modulus (GPa) = 15.05141 19.47546 17.26343
#
# Velocity S-wave (km/s) = 2.96474 3.37243 3.17514
# Velocity P-wave (km/s) = 5.42219 6.69751 6.09331
#
# Compressibility (1/GPa) = 0.03302939
#
# Stress axis : x y z
#
# Youngs Moduli (GPa) = 25.80932 84.52417 69.76702
#
# Poissons Ratio (x) = 0.39162 0.38754
# Poissons Ratio (y) = 0.11958 0.40132
# Poissons Ratio (z) = 0.14336 0.48621
#
# Static dielectric constant tensor:
#      x y z
#    x 2.783670 0.000000 0.000000 
#    y 0.000000 3.509290 0.000000 
#    z 0.000000 0.000000 3.138900 
# 
# 
# High freq. dielectric constant tensor:
#      x y z
#    x 1.621380 0.000000 0.000000 
#    y 0.000000 1.670640 0.000000 
#    z 0.000000 0.000000 1.645220 
# 
# From -- ./inp_files/39398.got.cif
#   From: 2010.03.12/outbox.cif.g09.slc.cpg/sg67_20_cif.got.tgz:39398.got - 2010.04.10 22:41:39.
