data_PCOD8281252
_publ_section_title
;
Structure prediction by ZEFSAII (Michael W. Deem and Ramdas Pophale) SiO2 
 PCOD8281252
Probable space group: C M M A
;
_chemical_formula_sum "Si O2"
_cell_formula_units_Z 88
_cell_length_a 14.473123
_cell_length_b 20.245482
_cell_length_c 16.441954
_cell_angle_alpha 90.000000
_cell_angle_beta 90.000000
_cell_angle_gamma 90.000000
_cell_volume 4817.744925
_symmetry_space_group_name_H-M "C M M A"
_symmetry_group_IT_number 67
_symmetry_cell_setting 'orthorhombic'
loop_
_space_group_symop_operation_xyz
x,y,z
-x,1/2-y,z
x,-y,-z
-x,1/2+y,-z
-x,-y,-z
x,1/2+y,-z
-x,y,z
x,1/2-y,z
1/2+x,1/2+y,z
1/2-x,-y,z
1/2+x,1/2-y,-z
1/2-x,y,-z
1/2-x,1/2-y,-z
1/2+x,y,-z
1/2-x,1/2+y,z
1/2+x,-y,z
loop_
_atom_site_type_symbol
_atom_site_label
_atom_site_fract_x
_atom_site_fract_y
_atom_site_fract_z
Si Si1 0.250000 0.500000 0.710439
Si Si2 0.400001 0.174127 0.881987
Si Si3 0.275313 0.134011 0.205540
Si Si4 0.392514 0.463638 0.418633
Si Si5 0.391890 0.325388 0.060310
Si Si6 0.393800 0.176585 0.355085
O O1 0.248869 0.561136 0.769586
O O2 0.341426 0.500602 0.655200
O O3 0.500000 0.143742 0.854330
O O4 0.417048 0.250000 0.900860
O O5 0.323382 0.167035 0.812763
O O6 0.369378 0.145222 0.970334
O O7 0.338325 0.130414 0.125706
O O8 0.327756 0.172883 0.276996
O O9 0.356775 0.500000 0.500000
O O10 0.500000 0.477443 0.406477
O O11 0.371458 0.383844 0.418037
O O12 0.500000 0.330204 0.078634
O O13 0.356416 0.250000 0.070699
O O14 0.500000 0.169343 0.325921
O O15 0.378977 0.250000 0.395089
#
# Coordination Sequence:
#
# PCOD8281252 Si02
#       6
#     8  16  16  16  16  16
#     4  10  23  34  47  72 100 128 164 200 229 284
#     4   9  18  31  47  68  93 125 165 203 241 289
#     4  11  19  30  47  67  97 134 161 194 246 289
#     4   9  18  35  58  77  97 131 165 192 233 291
#     4   9  17  30  50  73  92 116 159 211 255 293
#     4   9  17  29  50  82 107 120 150 203 252 289
#
# _framework density 18.265806999999999
#
# number of rings (size 3 to 8) (size 9 to 14) (size 15 to 20)
#    0.000    2.545    0.000    4.091    0.000    4.364 
#    0.000    1.818    0.000   13.091    0.000    2.545 
#    0.000    0.000    0.000    0.000    0.000    0.000 
#
# Total GULP energy -545243.028280 kJ/mol
# GULP energy per Si atom -12391.887006 kJ/mol
# Density = 1.822423 g / cm^3
# Si number density = 18.265807 Si / 1000 Ang^3
#
#
#
# Elastic Constant Matrix: (Units=GPa)
#
#
# Indices 1 2 3 4 5 6 
#
# 1 78.0749 41.3729 47.6506 0.0000 0.0000 0.0000
# 2 41.3729 107.5454 55.7807 0.0000 0.0000 0.0000
# 3 47.6506 55.7807 87.0324 0.0000 0.0000 0.0000
# 4 0.0000 0.0000 0.0000 28.3161 0.0000 0.0000
# 5 0.0000 0.0000 0.0000 0.0000 -15.3322 0.0000
# 6 0.0000 0.0000 0.0000 0.0000 0.0000 23.7268
#
#
#
# Elastic Compliance Matrix: (Units=1/GPa)
#
#
# Indices 1 2 3 4 5 6 
#
# 1 0.019860 -0.002997 -0.008953 0.000000 0.000000 0.000000
# 2 -0.002997 0.014381 -0.007576 0.000000 0.000000 0.000000
# 3 -0.008953 -0.007576 0.021248 0.000000 0.000000 0.000000
# 4 0.000000 0.000000 0.000000 0.035316 0.000000 0.000000
# 5 0.000000 0.000000 0.000000 0.000000 -0.065222 0.000000
# 6 0.000000 0.000000 0.000000 0.000000 0.000000 0.042146
#
#
# Mechanical properties :
#
#
# Convention : Reuss Voigt Hill
#
# Bulk Modulus (GPa) = 60.83880 62.47346 61.65613
# Shear Modulus (GPa) = 44.53962 15.86536 30.20249
#
# Velocity S-wave (km/s) = 4.94339 2.95037 4.07073
# Velocity P-wave (km/s) = 8.12173 6.77369 7.47815
#
# Compressibility (1/GPa) = 0.01643688
#
# Stress axis : x y z
#
# Youngs Moduli (GPa) = 50.35145 69.53719 47.06416
#
# Poissons Ratio (x) = 0.20838 0.42137
# Poissons Ratio (y) = 0.15088 0.35657
# Poissons Ratio (z) = 0.45080 0.52683
#
# Static dielectric constant tensor:
#      x y z
#    x 3.497300 0.000000 0.000000 
#    y 0.000000 3.374830 0.000000 
#    z 0.000000 0.000000 3.282380 
# 
# 
# High freq. dielectric constant tensor:
#      x y z
#    x 1.723670 0.000000 0.000000 
#    y 0.000000 1.684880 0.000000 
#    z 0.000000 0.000000 1.688870 
# 
# From -- ./inp_files/27090.got.cif
#   From: 2010.03.12/outbox.cif.g09.slc.cpg/sg67_14_cif.got.tgz:27090.got - 2010.04.10 22:41:39.
