data_PCOD8281356
_publ_section_title
;
Structure prediction by ZEFSAII (Michael W. Deem and Ramdas Pophale) SiO2 
 PCOD8281356
Probable space group: C M M A
;
_chemical_formula_sum "Si O2"
_cell_formula_units_Z 112
_cell_length_a 17.311187
_cell_length_b 23.562644
_cell_length_c 15.562604
_cell_angle_alpha 90.000000
_cell_angle_beta 90.000000
_cell_angle_gamma 90.000000
_cell_volume 6347.944721
_symmetry_space_group_name_H-M "C M M A"
_symmetry_group_IT_number 67
_symmetry_cell_setting 'orthorhombic'
loop_
_space_group_symop_operation_xyz
x,y,z
-x,1/2-y,z
x,-y,-z
-x,1/2+y,-z
-x,-y,-z
x,1/2+y,-z
-x,y,z
x,1/2-y,z
1/2+x,1/2+y,z
1/2-x,-y,z
1/2+x,1/2-y,-z
1/2-x,y,-z
1/2-x,1/2-y,-z
1/2+x,y,-z
1/2-x,1/2+y,z
1/2+x,-y,z
loop_
_atom_site_type_symbol
_atom_site_label
_atom_site_fract_x
_atom_site_fract_y
_atom_site_fract_z
Si Si1 0.408170 0.686839 0.000001
Si Si2 0.841360 0.000000 0.901913
Si Si3 0.591363 0.615023 0.839408
Si Si4 0.908636 0.615023 0.839406
Si Si5 0.157733 0.185043 0.313973
Si Si6 0.842270 0.685043 0.313974
Si Si7 0.666192 0.683187 0.500001
O O1 0.500000 0.689208 0.000001
O O2 0.372939 0.750000 0.000002
O O3 0.377312 0.654684 0.083935
O O4 0.377312 0.654684 0.916066
O O5 0.871171 0.053788 0.849507
O O6 0.750000 0.000000 0.902870
O O7 0.871172 0.946213 0.849507
O O8 0.873727 0.000000 0.000000
O O9 0.500000 0.608684 0.842717
O O10 0.616708 0.642349 0.750261
O O11 0.883289 0.642348 0.750260
O O12 0.000000 0.608686 0.842712
O O13 0.134488 0.250000 0.291773
O O14 0.250001 0.178301 0.310464
O O15 0.124996 0.167550 0.409424
O O16 0.865516 0.750000 0.291776
O O17 0.875006 0.667546 0.409424
O O18 0.679189 0.750000 0.500007
O O19 0.750000 0.653279 0.500000
#
# Coordination Sequence:
#
# PCOD8281356 Si02
#       7
#    16  16  16  16  16  16  16
#     4   9  18  31  47  70 102 137 166 195 242 305
#     4  11  23  39  57  74  97 130 177 225 262 302
#     4  11  21  34  53  75 104 138 174 213 257 308
#     4  11  21  34  53  75 104 138 174 213 257 308
#     4   9  17  31  52  79 109 140 175 213 255 304
#     4   9  17  31  52  79 109 140 175 213 255 304
#     4   7  12  26  49  74 103 140 175 207 249 305
#
# _framework density 17.643505999999999
#
# number of rings (size 3 to 8) (size 9 to 14) (size 15 to 20)
#    0.000    2.429    1.429    3.857    0.000    2.286 
#    0.000    0.714    0.000    6.857    0.000    6.000 
#    0.000    0.000    0.000    0.000    0.000    0.000 
#
# Total GULP energy -694049.087799 kJ/mol
# GULP energy per Si atom -12393.733711 kJ/mol
# Density = 1.760335 g / cm^3
# Si number density = 17.643506 Si / 1000 Ang^3
#
#
#
# Elastic Constant Matrix: (Units=GPa)
#
#
# Indices 1 2 3 4 5 6 
#
# 1 43.5494 29.4961 29.7618 0.0000 0.0000 0.0000
# 2 29.4961 130.5816 72.1388 0.0000 0.0000 0.0000
# 3 29.7618 72.1388 158.2967 0.0000 0.0000 0.0000
# 4 0.0000 0.0000 0.0000 12.2120 0.0000 0.0000
# 5 0.0000 0.0000 0.0000 0.0000 16.3619 0.0000
# 6 0.0000 0.0000 0.0000 0.0000 0.0000 16.7060
#
#
#
# Elastic Compliance Matrix: (Units=1/GPa)
#
#
# Indices 1 2 3 4 5 6 
#
# 1 0.028284 -0.004612 -0.003216 0.000000 0.000000 0.000000
# 2 -0.004612 0.010987 -0.004140 0.000000 0.000000 0.000000
# 3 -0.003216 -0.004140 0.008808 0.000000 0.000000 0.000000
# 4 0.000000 0.000000 0.000000 0.081887 0.000000 0.000000
# 5 0.000000 0.000000 0.000000 0.000000 0.061118 0.000000
# 6 0.000000 0.000000 0.000000 0.000000 0.000000 0.059859
#
#
# Mechanical properties :
#
#
# Convention : Reuss Voigt Hill
#
# Bulk Modulus (GPa) = 41.41892 66.13567 53.77730
# Shear Modulus (GPa) = 17.67246 22.45804 20.06525
#
# Velocity S-wave (km/s) = 3.16830 3.57161 3.37599
# Velocity P-wave (km/s) = 6.07541 7.38745 6.76332
#
# Compressibility (1/GPa) = 0.02414356
#
# Stress axis : x y z
#
# Youngs Moduli (GPa) = 35.35559 91.01787 113.52748
#
# Poissons Ratio (x) = 0.41980 0.36509
# Poissons Ratio (y) = 0.16307 0.46998
# Poissons Ratio (z) = 0.11370 0.37679
#
# Static dielectric constant tensor:
#      x y z
#    x 2.976640 0.000000 0.000000 
#    y 0.000000 3.150810 0.000000 
#    z 0.000000 0.000000 3.735250 
# 
# 
# High freq. dielectric constant tensor:
#      x y z
#    x 1.657900 0.000000 0.000000 
#    y 0.000000 1.663580 0.000000 
#    z 0.000000 0.000000 1.695680 
# 
# From -- ./inp_files/27521.got.cif
#   From: 2010.03.12/outbox.cif.g09.slc.cpg/sg67_14_cif.got.tgz:27521.got - 2010.04.10 22:41:39.
