data_PCOD8281850
_publ_section_title
;
Structure prediction by ZEFSAII (Michael W. Deem and Ramdas Pophale) SiO2 
 PCOD8281850
Probable space group: C C C A
;
_chemical_formula_sum "Si O2"
_cell_formula_units_Z 128
_cell_length_a 25.449272
_cell_length_b 16.253216
_cell_length_c 18.406281
_cell_angle_alpha 90.000000
_cell_angle_beta 90.000000
_cell_angle_gamma 90.000000
_cell_volume 7613.436299
_symmetry_space_group_name_H-M "C C C A"
_symmetry_group_IT_number 68
_space_group.IT_coordinate_system_code '2'
_symmetry_cell_setting 'orthorhombic'
loop_
_space_group_symop_operation_xyz
x,y,z
-x,1/2-y,z
x,1/2-y,1/2-z
-x,y,1/2-z
-x,-y,-z
x,1/2+y,-z
-x,1/2+y,1/2+z
x,-y,1/2+z
1/2+x,1/2+y,z
1/2-x,-y,z
1/2+x,-y,1/2-z
1/2-x,1/2+y,1/2-z
1/2-x,1/2-y,-z
1/2+x,y,-z
1/2-x,y,1/2+z
1/2+x,1/2-y,1/2+z
loop_
_atom_site_type_symbol
_atom_site_label
_atom_site_fract_x
_atom_site_fract_y
_atom_site_fract_z
Si Si1 0.627947 0.040435 0.071794
Si Si2 0.718443 0.332146 0.431137
Si Si3 0.059554 0.153732 0.833474
Si Si4 0.295576 0.934036 0.187956
Si Si5 0.935701 0.158574 0.832138
Si Si6 0.769666 0.344907 0.580458
Si Si7 0.362978 0.032830 0.083291
Si Si8 0.795954 0.932383 0.650946
O O1 0.671452 0.108564 0.086447
O O2 0.578235 0.081541 0.111704
O O3 0.650185 0.959095 0.111056
O O4 0.615861 0.016178 0.987914
O O5 0.728348 0.338235 0.516079
O O6 0.699739 0.240719 0.408571
O O7 0.772277 0.352391 0.388272
O O8 0.077117 0.246864 0.855191
O O9 0.081147 0.139536 0.751309
O O10 0.997391 0.145020 0.837613
O O11 0.267551 0.857386 0.149786
O O12 0.313797 0.908412 0.268030
O O13 0.250000 0.000000 0.195092
O O14 0.346686 0.966421 0.144298
O O15 0.906398 0.095552 0.886007
O O16 0.809971 0.418154 0.563044
O O17 0.750000 0.000000 0.647673
#
# Coordination Sequence:
#
# PCOD8281850 Si02
#       8
#    16  16  16  16  16  16  16  16
#     4  11  19  30  50  74  99 130 159 199 247 296
#     4  10  19  31  46  66  95 132 167 196 232 277
#     4   9  19  36  55  74  97 125 161 207 253 296
#     4   9  18  30  45  67  94 126 163 200 236 279
#     4   9  19  36  55  74  97 125 161 207 253 296
#     4  10  19  31  46  66  95 132 167 196 232 277
#     4  11  19  30  50  74  99 130 159 199 247 296
#     4   9  18  30  45  67  94 126 163 200 236 279
#
# _framework density 16.812381999999999
#
# number of rings (size 3 to 8) (size 9 to 14) (size 15 to 20)
#    0.000    2.250    2.500    2.250    0.000    2.000 
#    0.000    0.000    0.000    0.000    0.000    0.000 
#    0.000    0.000    0.000   16.500    0.000    0.000 
#
# Total GULP energy -793085.210757 kJ/mol
# GULP energy per Si atom -12391.956418 kJ/mol
# Density = 1.677412 g / cm^3
# Si number density = 16.812382 Si / 1000 Ang^3
#
#
#
# Elastic Constant Matrix: (Units=GPa)
#
#
# Indices 1 2 3 4 5 6 
#
# 1 42.8258 11.7997 18.5860 0.0000 0.0000 0.0000
# 2 11.7997 39.7641 20.5292 0.0000 0.0000 0.0000
# 3 18.5860 20.5292 102.9407 0.0000 0.0000 0.0000
# 4 0.0000 0.0000 0.0000 23.1886 0.0000 0.0000
# 5 0.0000 0.0000 0.0000 0.0000 21.8363 0.0000
# 6 0.0000 0.0000 0.0000 0.0000 0.0000 24.4250
#
#
#
# Elastic Compliance Matrix: (Units=1/GPa)
#
#
# Indices 1 2 3 4 5 6 
#
# 1 0.026572 -0.006029 -0.003595 0.000000 0.000000 0.000000
# 2 -0.006029 0.029403 -0.004775 0.000000 0.000000 0.000000
# 3 -0.003595 -0.004775 0.011316 0.000000 0.000000 0.000000
# 4 0.000000 0.000000 0.000000 0.043125 0.000000 0.000000
# 5 0.000000 0.000000 0.000000 0.000000 0.045795 0.000000
# 6 0.000000 0.000000 0.000000 0.000000 0.000000 0.040942
#
#
# Mechanical properties :
#
#
# Convention : Reuss Voigt Hill
#
# Bulk Modulus (GPa) = 25.97963 31.92891 28.95427
# Shear Modulus (GPa) = 20.93970 22.86436 21.90203
#
# Velocity S-wave (km/s) = 3.53298 3.69178 3.61325
# Velocity P-wave (km/s) = 5.66823 6.09958 5.88786
#
# Compressibility (1/GPa) = 0.03849170
#
# Stress axis : x y z
#
# Youngs Moduli (GPa) = 37.63388 34.01053 88.37236
#
# Poissons Ratio (x) = 0.20504 0.31772
# Poissons Ratio (y) = 0.22689 0.42199
# Poissons Ratio (z) = 0.13530 0.16241
#
# Static dielectric constant tensor:
#      x y z
#    x 2.870430 0.000000 0.000000 
#    y 0.000000 3.218800 0.000000 
#    z 0.000000 0.000000 3.286200 
# 
# 
# High freq. dielectric constant tensor:
#      x y z
#    x 1.616980 0.000000 0.000000 
#    y 0.000000 1.639000 0.000000 
#    z 0.000000 0.000000 1.655220 
# 
# From -- ./inp_files/33783.got.cif
#   From: 2010.03.12/outbox.cif.g09.slc.cpg/sg68_17_cif.got.tgz:33783.got - 2010.04.10 23:14:56.
