data_PCOD8281744
_publ_section_title
;
Structure prediction by ZEFSAII (Michael W. Deem and Ramdas Pophale) SiO2 
 PCOD8281744
Probable space group: C C C A
;
_chemical_formula_sum "Si O2"
_cell_formula_units_Z 104
_cell_length_a 18.997955
_cell_length_b 15.838353
_cell_length_c 17.791481
_cell_angle_alpha 90.000000
_cell_angle_beta 90.000000
_cell_angle_gamma 90.000000
_cell_volume 5353.391117
_symmetry_space_group_name_H-M "C C C A"
_symmetry_group_IT_number 68
_space_group.IT_coordinate_system_code '2'
_symmetry_cell_setting 'orthorhombic'
loop_
_space_group_symop_operation_xyz
x,y,z
-x,1/2-y,z
x,1/2-y,1/2-z
-x,y,1/2-z
-x,-y,-z
x,1/2+y,-z
-x,1/2+y,1/2+z
x,-y,1/2+z
1/2+x,1/2+y,z
1/2-x,-y,z
1/2+x,-y,1/2-z
1/2-x,1/2+y,1/2-z
1/2-x,1/2-y,-z
1/2+x,y,-z
1/2-x,y,1/2+z
1/2+x,1/2-y,1/2+z
loop_
_atom_site_type_symbol
_atom_site_label
_atom_site_fract_x
_atom_site_fract_y
_atom_site_fract_z
Si Si1 0.963722 0.093391 0.925756
Si Si2 0.804858 0.933763 0.167214
Si Si3 0.720300 0.253223 0.388193
Si Si4 0.355517 0.198349 0.536067
Si Si5 0.500000 0.750000 0.479902
Si Si6 0.612853 0.664809 0.714032
Si Si7 0.104722 0.475977 0.532130
O O1 0.940731 0.118315 0.841859
O O2 0.999053 0.172235 0.964547
O O3 0.898681 0.055829 0.975041
O O4 0.028976 0.027957 0.925045
O O5 0.766088 0.848706 0.139218
O O6 0.866378 0.905425 0.224263
O O7 0.750000 0.000000 0.204688
O O8 0.837349 0.985896 0.097043
O O9 0.668717 0.253389 0.460212
O O10 0.794991 0.208754 0.402447
O O11 0.684119 0.195299 0.326053
O O12 0.427468 0.242788 0.567563
O O13 0.372173 0.101259 0.520859
O O14 0.577819 0.750000 0.750000
#
# Coordination Sequence:
#
# PCOD8281744 Si02
#       7
#    16  16  16  16   8  16  16
#     4  10  20  36  56  82 119 146 183 242 290 344
#     4  10  22  36  52  79 114 150 192 233 287 343
#     4   9  18  34  53  79 110 147 189 236 278 343
#     4   9  17  31  53  81 109 144 191 228 283 337
#     4  10  18  30  55  86 107 146 184 238 288 336
#     4  10  21  37  56  84 112 151 195 236 288 344
#     4   9  21  36  52  84 117 145 188 235 287 348
#
# _framework density 19.426938
#
# number of rings (size 3 to 8) (size 9 to 14) (size 15 to 20)
#    0.000    2.462    1.538    0.000    4.308    3.077 
#    0.000    0.000    0.000    0.000    0.000    3.769 
#    0.000    0.000    0.000    0.000    0.000    0.000 
#
# Total GULP energy -644442.194412 kJ/mol
# GULP energy per Si atom -12393.119123 kJ/mol
# Density = 1.938272 g / cm^3
# Si number density = 19.426938 Si / 1000 Ang^3
#
#
#
# Elastic Constant Matrix: (Units=GPa)
#
#
# Indices 1 2 3 4 5 6 
#
# 1 87.5642 26.7149 21.0398 0.0000 0.0000 0.0000
# 2 26.7149 64.9709 27.5447 0.0000 0.0000 0.0000
# 3 21.0398 27.5447 68.7548 0.0000 0.0000 0.0000
# 4 0.0000 0.0000 0.0000 25.7170 0.0000 0.0000
# 5 0.0000 0.0000 0.0000 0.0000 26.1128 0.0000
# 6 0.0000 0.0000 0.0000 0.0000 0.0000 25.6154
#
#
#
# Elastic Compliance Matrix: (Units=1/GPa)
#
#
# Indices 1 2 3 4 5 6 
#
# 1 0.013346 -0.004525 -0.002271 0.000000 0.000000 0.000000
# 2 -0.004525 0.020075 -0.006658 0.000000 0.000000 0.000000
# 3 -0.002271 -0.006658 0.017907 0.000000 0.000000 0.000000
# 4 0.000000 0.000000 0.000000 0.038885 0.000000 0.000000
# 5 0.000000 0.000000 0.000000 0.000000 0.038295 0.000000
# 6 0.000000 0.000000 0.000000 0.000000 0.000000 0.039039
#
#
# Mechanical properties :
#
#
# Convention : Reuss Voigt Hill
#
# Bulk Modulus (GPa) = 40.95023 41.32098 41.13560
# Shear Modulus (GPa) = 24.67980 25.22174 24.95077
#
# Velocity S-wave (km/s) = 3.56812 3.60708 3.58766
# Velocity P-wave (km/s) = 6.17253 6.21805 6.19534
#
# Compressibility (1/GPa) = 0.02441989
#
# Stress axis : x y z
#
# Youngs Moduli (GPa) = 74.92632 49.81422 55.84494
#
# Poissons Ratio (x) = 0.22540 0.12685
# Poissons Ratio (y) = 0.33903 0.37180
# Poissons Ratio (z) = 0.17019 0.33165
#
# Static dielectric constant tensor:
#      x y z
#    x 3.698800 0.000000 0.000000 
#    y 0.000000 3.501470 0.000000 
#    z 0.000000 0.000000 3.355450 
# 
# 
# High freq. dielectric constant tensor:
#      x y z
#    x 1.759630 0.000000 0.000000 
#    y 0.000000 1.751200 0.000000 
#    z 0.000000 0.000000 1.724490 
# 
# From -- ./inp_files/38899.got.cif
#   From: 2010.03.12/outbox.cif.g09.slc.cpg/sg68_20_cif.got.tgz:38899.got - 2010.04.10 23:14:56.
