data_PCOD8281254
_publ_section_title
;
Structure prediction by ZEFSAII (Michael W. Deem and Ramdas Pophale) SiO2 
 PCOD8281254
Probable space group: C M M A
;
_chemical_formula_sum "Si O2"
_cell_formula_units_Z 80
_cell_length_a 21.064880
_cell_length_b 14.455591
_cell_length_c 12.630271
_cell_angle_alpha 90.000000
_cell_angle_beta 90.000000
_cell_angle_gamma 90.000000
_cell_volume 3845.984330
_symmetry_space_group_name_H-M "C M M A"
_symmetry_group_IT_number 67
_symmetry_cell_setting 'orthorhombic'
loop_
_space_group_symop_operation_xyz
x,y,z
-x,1/2-y,z
x,-y,-z
-x,1/2+y,-z
-x,-y,-z
x,1/2+y,-z
-x,y,z
x,1/2-y,z
1/2+x,1/2+y,z
1/2-x,-y,z
1/2+x,1/2-y,-z
1/2-x,y,-z
1/2-x,1/2-y,-z
1/2+x,y,-z
1/2-x,1/2+y,z
1/2+x,-y,z
loop_
_atom_site_type_symbol
_atom_site_label
_atom_site_fract_x
_atom_site_fract_y
_atom_site_fract_z
Si Si1 0.344089 0.352514 0.915755
Si Si2 0.068332 0.585506 0.424303
Si Si3 0.358999 0.512459 0.260676
Si Si4 0.815870 0.353970 0.446154
Si Si5 0.697681 0.352895 0.141750
O O1 0.372994 0.250000 0.896814
O O2 0.380513 0.425819 0.840622
O O3 0.270677 0.353133 0.886765
O O4 0.346952 0.378097 0.040254
O O5 0.060327 0.500000 0.500000
O O6 0.081182 0.543584 0.307344
O O7 0.127080 0.646398 0.467250
O O8 0.000000 0.639461 0.420920
O O9 0.327799 0.576812 0.349986
O O10 0.309693 0.432140 0.228798
O O11 0.810144 0.250000 0.400441
O O12 0.750000 0.384588 0.500000
O O13 0.678719 0.250000 0.183611
#
# Coordination Sequence:
#
# PCOD8281254 Si02
#       5
#    16  16  16  16  16
#     4   9  18  32  50  80 117 150 188 233 288 351
#     4   9  21  39  56  77 110 152 198 238 280 344
#     4  11  20  32  58  80 109 147 192 230 295 345
#     4  10  23  38  54  84 119 148 187 243 297 348
#     4   9  19  32  49  80 118 150 187 235 286 351
#
# _framework density 20.800915
#
# number of rings (size 3 to 8) (size 9 to 14) (size 15 to 20)
#    0.000    2.400    0.000    3.000    5.600    5.600 
#    0.000    0.000    0.000    4.800    0.000    2.800 
#    0.000    0.000    0.000    0.000    0.000    0.000 
#
# Total GULP energy -495562.266041 kJ/mol
# GULP energy per Si atom -12389.056651 kJ/mol
# Density = 2.075357 g / cm^3
# Si number density = 20.800915 Si / 1000 Ang^3
#
#
#
# Elastic Constant Matrix: (Units=GPa)
#
#
# Indices 1 2 3 4 5 6 
#
# 1 85.9033 18.9513 24.3850 0.0000 0.0000 0.0000
# 2 18.9513 109.2828 50.9179 0.0000 0.0000 0.0000
# 3 24.3850 50.9179 88.1662 0.0000 0.0000 0.0000
# 4 0.0000 0.0000 0.0000 38.2333 0.0000 0.0000
# 5 0.0000 0.0000 0.0000 0.0000 46.9197 0.0000
# 6 0.0000 0.0000 0.0000 0.0000 0.0000 2.8276
#
#
#
# Elastic Compliance Matrix: (Units=1/GPa)
#
#
# Indices 1 2 3 4 5 6 
#
# 1 0.012680 -0.000773 -0.003061 0.000000 0.000000 0.000000
# 2 -0.000773 0.012566 -0.007044 0.000000 0.000000 0.000000
# 3 -0.003061 -0.007044 0.016257 0.000000 0.000000 0.000000
# 4 0.000000 0.000000 0.000000 0.026155 0.000000 0.000000
# 5 0.000000 0.000000 0.000000 0.000000 0.021313 0.000000
# 6 0.000000 0.000000 0.000000 0.000000 0.000000 0.353660
#
#
# Mechanical properties :
#
#
# Convention : Reuss Voigt Hill
#
# Bulk Modulus (GPa) = 50.63589 52.42897 51.53243
# Shear Modulus (GPa) = 10.61641 30.20265 20.40953
#
# Velocity S-wave (km/s) = 2.26161 3.81463 3.13578
# Velocity P-wave (km/s) = 5.58711 6.68294 6.15944
#
# Compressibility (1/GPa) = 0.01974884
#
# Stress axis : x y z
#
# Youngs Moduli (GPa) = 78.86218 79.57717 61.51347
#
# Poissons Ratio (x) = 0.06150 0.18828
# Poissons Ratio (y) = 0.06095 0.43328
# Poissons Ratio (z) = 0.24138 0.56051
#
# Static dielectric constant tensor:
#      x y z
#    x 3.827880 0.000000 0.000000 
#    y 0.000000 4.135480 0.000000 
#    z 0.000000 0.000000 4.618800 
# 
# 
# High freq. dielectric constant tensor:
#      x y z
#    x 1.756140 0.000000 0.000000 
#    y 0.000000 1.824810 0.000000 
#    z 0.000000 0.000000 1.818000 
# 
# From -- ./inp_files/21651.got.cif
#   From: 2010.03.12/outbox.cif.g09.slc.cpg/sg67_11_cif.got.tgz:21651.got - 2010.04.10 22:41:39.
