data_PCOD8281987
_publ_section_title
;
Structure prediction by ZEFSAII (Michael W. Deem and Ramdas Pophale) SiO2 
 PCOD8281987
Probable space group: C C C A
;
_chemical_formula_sum "Si O2"
_cell_formula_units_Z 88
_cell_length_a 25.584976
_cell_length_b 9.149778
_cell_length_c 18.708801
_cell_angle_alpha 90.000000
_cell_angle_beta 90.000000
_cell_angle_gamma 90.000000
_cell_volume 4379.671391
_symmetry_space_group_name_H-M "C C C A"
_symmetry_group_IT_number 68
_space_group.IT_coordinate_system_code '2'
_symmetry_cell_setting 'orthorhombic'
loop_
_space_group_symop_operation_xyz
x,y,z
-x,1/2-y,z
x,1/2-y,1/2-z
-x,y,1/2-z
-x,-y,-z
x,1/2+y,-z
-x,1/2+y,1/2+z
x,-y,1/2+z
1/2+x,1/2+y,z
1/2-x,-y,z
1/2+x,-y,1/2-z
1/2-x,1/2+y,1/2-z
1/2-x,1/2-y,-z
1/2+x,y,-z
1/2-x,y,1/2+z
1/2+x,1/2-y,1/2+z
loop_
_atom_site_type_symbol
_atom_site_label
_atom_site_fract_x
_atom_site_fract_y
_atom_site_fract_z
Si Si1 0.135482 0.750000 0.250000
Si Si2 0.960794 0.869836 0.999840
Si Si3 0.621930 0.433542 0.380138
Si Si4 0.876749 0.262918 0.100554
Si Si5 0.193179 0.743262 0.465147
Si Si6 0.190287 0.520346 0.345233
O O1 0.103375 0.834042 0.312300
O O2 0.170062 0.622199 0.282768
O O3 0.917103 0.901215 0.056959
O O4 0.000000 0.750000 0.028187
O O5 0.933521 0.830194 0.922560
O O6 0.000000 0.000000 0.000000
O O7 0.620027 0.605502 0.359308
O O8 0.679099 0.377407 0.410200
O O9 0.843794 0.371417 0.151410
O O10 0.848245 0.229675 0.027101
O O11 0.250000 0.750000 0.500000
O O12 0.187100 0.590993 0.423524
O O13 0.250000 0.500000 0.323910
#
# Coordination Sequence:
#
# PCOD8281987 Si02
#       6
#     8  16  16  16  16  16
#     4  10  26  44  57  82 132 174 225 244 300 376
#     4  11  22  40  70 101 127 152 201 266 335 378
#     4  10  23  40  61  92 126 169 204 260 308 376
#     4  11  22  36  64  98 127 156 206 268 321 366
#     4  10  19  36  59  92 127 157 200 258 324 369
#     4  11  23  40  61  88 127 176 213 254 305 375
#
# _framework density 20.092831
#
# number of rings (size 3 to 8) (size 9 to 14) (size 15 to 20)
#    0.000    1.455    3.636    2.182    5.091    2.182 
#    0.000    0.455    0.000    0.000    0.000    0.000 
#    0.000    0.000    0.000    0.000    0.000    0.000 
#
# Total GULP energy -545100.830192 kJ/mol
# GULP energy per Si atom -12388.655232 kJ/mol
# Density = 2.004710 g / cm^3
# Si number density = 20.092831 Si / 1000 Ang^3
#
#
#
# Elastic Constant Matrix: (Units=GPa)
#
#
# Indices 1 2 3 4 5 6 
#
# 1 93.5456 50.0075 13.9402 0.0000 0.0000 0.0000
# 2 50.0075 168.5258 36.5328 0.0000 0.0000 0.0000
# 3 13.9402 36.5328 63.6522 0.0000 0.0000 0.0000
# 4 0.0000 0.0000 0.0000 31.1350 0.0000 0.0000
# 5 0.0000 0.0000 0.0000 0.0000 6.4870 0.0000
# 6 0.0000 0.0000 0.0000 0.0000 0.0000 31.4671
#
#
#
# Elastic Compliance Matrix: (Units=1/GPa)
#
#
# Indices 1 2 3 4 5 6 
#
# 1 0.012733 -0.003625 -0.000708 0.000000 0.000000 0.000000
# 2 -0.003625 0.007809 -0.003688 0.000000 0.000000 0.000000
# 3 -0.000708 -0.003688 0.017982 0.000000 0.000000 0.000000
# 4 0.000000 0.000000 0.000000 0.032118 0.000000 0.000000
# 5 0.000000 0.000000 0.000000 0.000000 0.154154 0.000000
# 6 0.000000 0.000000 0.000000 0.000000 0.000000 0.031779
#
#
# Mechanical properties :
#
#
# Convention : Reuss Voigt Hill
#
# Bulk Modulus (GPa) = 44.47956 58.52050 51.50003
# Shear Modulus (GPa) = 17.85002 28.83403 23.34203
#
# Velocity S-wave (km/s) = 2.98380 3.79230 3.41208
# Velocity P-wave (km/s) = 5.83574 6.95440 6.41948
#
# Compressibility (1/GPa) = 0.02248224
#
# Stress axis : x y z
#
# Youngs Moduli (GPa) = 78.53425 128.05862 55.61055
#
# Poissons Ratio (x) = 0.46420 0.03938
# Poissons Ratio (y) = 0.28468 0.20509
# Poissons Ratio (z) = 0.05562 0.47228
#
# Static dielectric constant tensor:
#      x y z
#    x 11.627720 0.000000 0.000000 
#    y 0.000000 3.885780 0.000000 
#    z 0.000000 0.000000 3.555960 
# 
# 
# High freq. dielectric constant tensor:
#      x y z
#    x 1.772130 0.000000 0.000000 
#    y 0.000000 1.807460 0.000000 
#    z 0.000000 0.000000 1.763380 
# 
# From -- ./inp_files/40728.got.cif
#   From: 2010.03.12/outbox.cif.g09.slc.cpg/sg68_21_cif.got.tgz:40728.got - 2010.04.10 23:14:56.
