data_PCOD8281555
_publ_section_title
;
Structure prediction by ZEFSAII (Michael W. Deem and Ramdas Pophale) SiO2 
 PCOD8281555
Probable space group: C M M A
;
_chemical_formula_sum "Si O2"
_cell_formula_units_Z 72
_cell_length_a 15.306018
_cell_length_b 8.905096
_cell_length_c 24.890713
_cell_angle_alpha 90.000000
_cell_angle_beta 90.000000
_cell_angle_gamma 90.000000
_cell_volume 3392.643003
_symmetry_space_group_name_H-M "C M M A"
_symmetry_group_IT_number 67
_symmetry_cell_setting 'orthorhombic'
loop_
_space_group_symop_operation_xyz
x,y,z
-x,1/2-y,z
x,-y,-z
-x,1/2+y,-z
-x,-y,-z
x,1/2+y,-z
-x,y,z
x,1/2-y,z
1/2+x,1/2+y,z
1/2-x,-y,z
1/2+x,1/2-y,-z
1/2-x,y,-z
1/2-x,1/2-y,-z
1/2+x,y,-z
1/2-x,1/2+y,z
1/2+x,-y,z
loop_
_atom_site_type_symbol
_atom_site_label
_atom_site_fract_x
_atom_site_fract_y
_atom_site_fract_z
Si Si1 0.660663 0.571293 0.620889
Si Si2 0.397238 0.075648 0.724927
Si Si3 0.395742 0.582574 0.947532
Si Si4 0.500000 0.430343 0.558561
Si Si5 0.896091 0.083319 0.156025
O O1 0.658015 0.750000 0.611904
O O2 0.750000 0.500000 0.598317
O O3 0.653102 0.532532 0.684012
O O4 0.584409 0.489142 0.589181
O O5 0.500000 0.053457 0.716637
O O6 0.372510 0.250000 0.714730
O O7 0.368372 0.024150 0.784929
O O8 0.500000 0.572344 0.946767
O O9 0.361375 0.750000 0.951476
O O10 0.356903 0.516149 0.892105
O O11 0.358141 0.500000 0.000000
O O12 0.500000 0.250000 0.556682
O O13 0.500000 0.500000 0.500000
O O14 0.859365 0.250000 0.147515
O O15 0.000000 0.085634 0.153257
#
# Coordination Sequence:
#
# PCOD8281555 Si02
#       5
#    16  16  16   8  16
#     4  12  25  42  66  98 132 172 216 261 312 368
#     4   9  17  32  55  81 114 155 197 248 308 368
#     4   9  15  21  30  47  77 120 170 227 287 349
#     4  12  26  48  74 102 136 172 213 260 309 366
#     4   8  14  24  39  61  90 130 178 228 289 357
#
# _framework density 21.222390999999998
#
# number of rings (size 3 to 8) (size 9 to 14) (size 15 to 20)
#    0.000    2.222    1.111    5.000    0.000    4.000 
#    0.000    4.444    0.000    0.000    0.000    0.000 
#    0.000    0.889    0.000    9.333    0.000   12.889 
#
# Total GULP energy -446290.066985 kJ/mol
# GULP energy per Si atom -12396.946305 kJ/mol
# Density = 2.117409 g / cm^3
# Si number density = 21.222391 Si / 1000 Ang^3
#
#
#
# Elastic Constant Matrix: (Units=GPa)
#
#
# Indices 1 2 3 4 5 6 
#
# 1 76.3561 47.1631 41.4468 0.0000 0.0000 0.0000
# 2 47.1631 171.6162 81.1572 0.0000 0.0000 0.0000
# 3 41.4468 81.1572 163.9905 0.0000 0.0000 0.0000
# 4 0.0000 0.0000 0.0000 46.2721 0.0000 0.0000
# 5 0.0000 0.0000 0.0000 0.0000 -10.9349 0.0000
# 6 0.0000 0.0000 0.0000 0.0000 0.0000 21.9483
#
#
#
# Elastic Compliance Matrix: (Units=1/GPa)
#
#
# Indices 1 2 3 4 5 6 
#
# 1 0.016535 -0.003352 -0.002520 0.000000 0.000000 0.000000
# 2 -0.003352 0.008287 -0.003254 0.000000 0.000000 0.000000
# 3 -0.002520 -0.003254 0.008345 0.000000 0.000000 0.000000
# 4 0.000000 0.000000 0.000000 0.021611 0.000000 0.000000
# 5 0.000000 0.000000 0.000000 0.000000 -0.091450 0.000000
# 6 0.000000 0.000000 0.000000 0.000000 0.000000 0.045562
#
#
# Mechanical properties :
#
#
# Convention : Reuss Voigt Hill
#
# Bulk Modulus (GPa) = 67.04806 83.49964 75.27385
# Shear Modulus (GPa) = 155.69640 27.60349 91.64995
#
# Velocity S-wave (km/s) = 8.57458 3.61040 6.57870
# Velocity P-wave (km/s) = 11.38828 7.53727 9.65669
#
# Compressibility (1/GPa) = 0.01491467
#
# Stress axis : x y z
#
# Youngs Moduli (GPa) = 60.47742 120.67080 119.83064
#
# Poissons Ratio (x) = 0.40454 0.30197
# Poissons Ratio (y) = 0.20275 0.38991
# Poissons Ratio (z) = 0.15240 0.39265
#
# Static dielectric constant tensor:
#      x y z
#    x 3.397620 0.000000 0.000000 
#    y 0.000000 3.867490 0.000000 
#    z 0.000000 0.000000 4.239290 
# 
# 
# High freq. dielectric constant tensor:
#      x y z
#    x 1.800160 0.000000 0.000000 
#    y 0.000000 1.829710 0.000000 
#    z 0.000000 0.000000 1.845070 
# 
# From -- ./inp_files/44260.got.cif
#   From: 2010.03.12/outbox.cif.g09.slc.cpg/sg67_23_cif.got.tgz:44260.got - 2010.04.10 22:41:39.
