data_PCOD8281327
_publ_section_title
;
Structure prediction by ZEFSAII (Michael W. Deem and Ramdas Pophale) SiO2 
 PCOD8281327
Probable space group: C M M A
;
_chemical_formula_sum "Si O2"
_cell_formula_units_Z 112
_cell_length_a 17.919759
_cell_length_b 29.263297
_cell_length_c 12.327353
_cell_angle_alpha 90.000000
_cell_angle_beta 90.000000
_cell_angle_gamma 90.000000
_cell_volume 6464.355800
_symmetry_space_group_name_H-M "C M M A"
_symmetry_group_IT_number 67
_symmetry_cell_setting 'orthorhombic'
loop_
_space_group_symop_operation_xyz
x,y,z
-x,1/2-y,z
x,-y,-z
-x,1/2+y,-z
-x,-y,-z
x,1/2+y,-z
-x,y,z
x,1/2-y,z
1/2+x,1/2+y,z
1/2-x,-y,z
1/2+x,1/2-y,-z
1/2-x,y,-z
1/2-x,1/2-y,-z
1/2+x,y,-z
1/2-x,1/2+y,z
1/2+x,-y,z
loop_
_atom_site_type_symbol
_atom_site_label
_atom_site_fract_x
_atom_site_fract_y
_atom_site_fract_z
Si Si1 0.411510 0.799455 0.287159
Si Si2 0.661885 0.054384 0.831932
Si Si3 0.167109 0.049999 0.793937
Si Si4 0.088063 0.895652 0.033038
Si Si5 0.588450 0.200422 0.956996
Si Si6 0.166473 0.550110 0.461977
Si Si7 0.088013 0.605524 0.632589
O O1 0.500000 0.798888 0.284584
O O2 0.382579 0.750000 0.331831
O O3 0.383974 0.841721 0.360571
O O4 0.381403 0.806991 0.165105
O O5 0.750066 0.062939 0.831324
O O6 0.626128 0.076050 0.725731
O O7 0.644909 0.000632 0.831040
O O8 0.628185 0.075230 0.940410
O O9 0.110114 0.085166 0.849609
O O10 0.159277 0.054869 0.665798
O O11 0.115349 0.842611 0.028698
O O12 0.000000 0.899532 0.014571
O O13 0.500000 0.201532 0.954919
O O14 0.617630 0.250000 0.001727
O O15 0.141392 0.500000 0.500000
O O16 0.250000 0.560399 0.500000
O O17 0.111400 0.586953 0.515294
O O18 0.000000 0.601807 0.648380
#
# Coordination Sequence:
#
# PCOD8281327 Si02
#       7
#    16  16  16  16  16  16  16
#     4   8  14  27  49  78 107 132 167 218 271 317
#     4  11  20  38  54  76 104 146 183 211 256 321
#     4  11  23  37  55  73 107 153 184 205 256 332
#     4  11  22  34  53  83 114 137 171 223 269 311
#     4   8  14  27  49  75 104 137 170 210 264 320
#     4  11  20  39  56  74 103 144 187 219 257 313
#     4  11  20  31  56  85 105 130 175 233 273 297
#
# _framework density 17.325780000000002
#
# number of rings (size 3 to 8) (size 9 to 14) (size 15 to 20)
#    0.000    1.857    4.286    3.000    0.000    3.714 
#    0.000    0.000    0.000    3.857    0.000    4.000 
#    0.000    0.000    0.000    0.000    0.000    0.000 
#
# Total GULP energy -694176.977318 kJ/mol
# GULP energy per Si atom -12396.017452 kJ/mol
# Density = 1.728635 g / cm^3
# Si number density = 17.325780 Si / 1000 Ang^3
#
#
#
# Elastic Constant Matrix: (Units=GPa)
#
#
# Indices 1 2 3 4 5 6 
#
# 1 45.8445 55.4987 26.6078 0.0000 0.0000 0.0000
# 2 55.4987 162.3128 67.2929 0.0000 0.0000 0.0000
# 3 26.6078 67.2929 107.3293 0.0000 0.0000 0.0000
# 4 0.0000 0.0000 0.0000 20.1188 0.0000 0.0000
# 5 0.0000 0.0000 0.0000 0.0000 24.0632 0.0000
# 6 0.0000 0.0000 0.0000 0.0000 0.0000 0.0048
#
#
#
# Elastic Compliance Matrix: (Units=1/GPa)
#
#
# Indices 1 2 3 4 5 6 
#
# 1 0.037446 -0.012100 -0.001697 0.000000 0.000000 0.000000
# 2 -0.012100 0.012235 -0.004671 0.000000 0.000000 0.000000
# 3 -0.001697 -0.004671 0.012666 0.000000 0.000000 0.000000
# 4 0.000000 0.000000 0.000000 0.049705 0.000000 0.000000
# 5 0.000000 0.000000 0.000000 0.000000 0.041557 0.000000
# 6 0.000000 0.000000 0.000000 0.000000 0.000000210.028465
#
#
# Mechanical properties :
#
#
# Convention : Reuss Voigt Hill
#
# Bulk Modulus (GPa) = 39.35279 68.25396 53.80337
# Shear Modulus (GPa) = 0.02378 19.90984 9.96681
#
# Velocity S-wave (km/s) = 0.11729 3.39358 2.40106
# Velocity P-wave (km/s) = 4.77295 7.40508 6.22962
#
# Compressibility (1/GPa) = 0.02541116
#
# Stress axis : x y z
#
# Youngs Moduli (GPa) = 26.70511 81.73276 78.94849
#
# Poissons Ratio (x) = 0.98899 0.13394
# Poissons Ratio (y) = 0.32314 0.36879
# Poissons Ratio (z) = 0.04531 0.38180
#
# Static dielectric constant tensor:
#      x y z
#    x 3.025710 0.000000 0.000000 
#    y 0.000000 3.794870 0.000000 
#    z 0.000000 0.000000 3.170920 
# 
# 
# High freq. dielectric constant tensor:
#      x y z
#    x 1.644210 0.000000 0.000000 
#    y 0.000000 1.682820 0.000000 
#    z 0.000000 0.000000 1.653390 
# 
# From -- ./inp_files/18618.got.cif
#   From: 2010.03.12/outbox.cif.g09.slc.cpg/sg67_10_cif.got.tgz:18618.got - 2010.04.10 22:41:39.
