data_PCOD8281159
_publ_section_title
;
Structure prediction by ZEFSAII (Michael W. Deem and Ramdas Pophale) SiO2 
 PCOD8281159
Probable space group: C M M A
;
_chemical_formula_sum "Si O2"
_cell_formula_units_Z 112
_cell_length_a 27.832079
_cell_length_b 12.911398
_cell_length_c 12.837529
_cell_angle_alpha 90.000000
_cell_angle_beta 90.000000
_cell_angle_gamma 90.000000
_cell_volume 4613.179514
_symmetry_space_group_name_H-M "C M M A"
_symmetry_group_IT_number 67
_symmetry_cell_setting 'orthorhombic'
loop_
_space_group_symop_operation_xyz
x,y,z
-x,1/2-y,z
x,-y,-z
-x,1/2+y,-z
-x,-y,-z
x,1/2+y,-z
-x,y,z
x,1/2-y,z
1/2+x,1/2+y,z
1/2-x,-y,z
1/2+x,1/2-y,-z
1/2-x,y,-z
1/2-x,1/2-y,-z
1/2+x,y,-z
1/2-x,1/2+y,z
1/2+x,-y,z
loop_
_atom_site_type_symbol
_atom_site_label
_atom_site_fract_x
_atom_site_fract_y
_atom_site_fract_z
Si Si1 0.945776 0.373468 0.553281
Si Si2 0.701093 0.521949 0.303881
Si Si3 0.112086 0.127449 0.356484
Si Si4 0.714921 0.130369 0.908893
Si Si5 0.380495 0.373134 0.255895
Si Si6 0.607415 0.370711 0.876651
Si Si7 0.946630 0.874068 0.070295
O O1 0.945434 0.250000 0.552386
O O2 0.925133 0.417059 0.442587
O O3 0.911937 0.413019 0.646171
O O4 0.000000 0.414700 0.568070
O O5 0.750000 0.500000 0.369330
O O6 0.667120 0.592781 0.378161
O O7 0.723242 0.580007 0.203096
O O8 0.672738 0.419184 0.265829
O O9 0.108781 0.250000 0.358822
O O10 0.103130 0.079496 0.239746
O O11 0.727285 0.250000 0.896580
O O12 0.658469 0.112026 0.934597
O O13 0.750000 0.084374 0.000000
O O14 0.376138 0.250000 0.253744
O O15 0.407128 0.415552 0.151880
O O16 0.598530 0.250000 0.858206
O O17 0.566468 0.415914 0.953742
O O18 0.944351 0.750000 0.070495
O O19 0.000000 0.911606 0.100441
#
# Coordination Sequence:
#
# PCOD8281159 Si02
#       7
#    16  16  16  16  16  16  16
#     4   9  18  37  68  96 118 159 214 264 317 380
#     4  11  24  39  58  88 120 162 207 254 312 380
#     4   9  19  39  62  88 122 151 195 266 327 373
#     4   9  19  37  62  89 118 155 205 264 315 364
#     4  10  22  39  58  86 126 164 208 259 307 366
#     4   8  15  29  52  84 117 150 185 238 310 377
#     4   9  17  31  54  82 116 159 198 239 301 374
#
# _framework density 24.278265999999999
#
# number of rings (size 3 to 8) (size 9 to 14) (size 15 to 20)
#    0.000    2.714    0.000    1.714    2.000    4.286 
#    2.571    6.429    0.000    8.143    0.000    0.000 
#    0.000    0.000    0.000    0.000    0.000    0.000 
#
# Total GULP energy -694145.259526 kJ/mol
# GULP energy per Si atom -12395.451063 kJ/mol
# Density = 2.422301 g / cm^3
# Si number density = 24.278266 Si / 1000 Ang^3
#
#
#
# Elastic Constant Matrix: (Units=GPa)
#
#
# Indices 1 2 3 4 5 6 
#
# 1 186.8845 19.3289 81.1655 0.0000 0.0000 0.0000
# 2 19.3289 27.2538 26.3022 0.0000 0.0000 0.0000
# 3 81.1655 26.3022 131.6490 0.0000 0.0000 0.0000
# 4 0.0000 0.0000 0.0000 4.2727 0.0000 0.0000
# 5 0.0000 0.0000 0.0000 0.0000 40.2274 0.0000
# 6 0.0000 0.0000 0.0000 0.0000 0.0000 32.6369
#
#
#
# Elastic Compliance Matrix: (Units=1/GPa)
#
#
# Indices 1 2 3 4 5 6 
#
# 1 0.007331 -0.001037 -0.004313 0.000000 0.000000 0.000000
# 2 -0.001037 0.045604 -0.008472 0.000000 0.000000 0.000000
# 3 -0.004313 -0.008472 0.011947 0.000000 0.000000 0.000000
# 4 0.000000 0.000000 0.000000 0.234047 0.000000 0.000000
# 5 0.000000 0.000000 0.000000 0.000000 0.024859 0.000000
# 6 0.000000 0.000000 0.000000 0.000000 0.000000 0.030640
#
#
# Mechanical properties :
#
#
# Convention : Reuss Voigt Hill
#
# Bulk Modulus (GPa) = 26.85354 66.59784 46.72569
# Shear Modulus (GPa) = 12.67479 30.02678 21.35078
#
# Velocity S-wave (km/s) = 2.28735 3.52060 2.96872
# Velocity P-wave (km/s) = 4.24979 6.63451 5.57124
#
# Compressibility (1/GPa) = 0.03723904
#
# Stress axis : x y z
#
# Youngs Moduli (GPa) = 136.40311 21.92805 83.70037
#
# Poissons Ratio (x) = 0.02275 0.36097
# Poissons Ratio (y) = 0.14150 0.70908
# Poissons Ratio (z) = 0.58826 0.18577
#
# Static dielectric constant tensor:
#      x y z
#    x 4.465970 0.000000 0.000000 
#    y 0.000000 4.466140 0.000000 
#    z 0.000000 0.000000 4.501250 
# 
# 
# High freq. dielectric constant tensor:
#      x y z
#    x 1.956380 0.000000 0.000000 
#    y 0.000000 2.004150 0.000000 
#    z 0.000000 0.000000 1.948220 
# 
# From -- ./inp_files/23787.got.cif
#   From: 2010.03.12/outbox.cif.g09.slc.cpg/sg67_12_cif.got.tgz:23787.got - 2010.04.10 22:41:39.
