data_PCOD8281765
_publ_section_title
;
Structure prediction by ZEFSAII (Michael W. Deem and Ramdas Pophale) SiO2 
 PCOD8281765
Probable space group: C C C A
;
_chemical_formula_sum "Si O2"
_cell_formula_units_Z 104
_cell_length_a 14.008111
_cell_length_b 17.503591
_cell_length_c 20.785913
_cell_angle_alpha 90.000000
_cell_angle_beta 90.000000
_cell_angle_gamma 90.000000
_cell_volume 5096.544686
_symmetry_space_group_name_H-M "C C C A"
_symmetry_group_IT_number 68
_space_group.IT_coordinate_system_code '2'
_symmetry_cell_setting 'orthorhombic'
loop_
_space_group_symop_operation_xyz
x,y,z
-x,1/2-y,z
x,1/2-y,1/2-z
-x,y,1/2-z
-x,-y,-z
x,1/2+y,-z
-x,1/2+y,1/2+z
x,-y,1/2+z
1/2+x,1/2+y,z
1/2-x,-y,z
1/2+x,-y,1/2-z
1/2-x,1/2+y,1/2-z
1/2-x,1/2-y,-z
1/2+x,y,-z
1/2-x,y,1/2+z
1/2+x,1/2-y,1/2+z
loop_
_atom_site_type_symbol
_atom_site_label
_atom_site_fract_x
_atom_site_fract_y
_atom_site_fract_z
Si Si1 0.973173 0.495788 0.105120
Si Si2 0.669060 0.935717 0.584084
Si Si3 0.736268 0.910994 0.716639
Si Si4 0.946510 0.129205 0.188375
Si Si5 0.798507 0.417376 0.643388
Si Si6 0.351231 0.864999 0.044766
Si Si7 0.500000 0.250000 0.585748
O O1 0.906862 0.569522 0.119851
O O2 0.918327 0.437328 0.059140
O O3 0.067244 0.525940 0.069659
O O4 0.006053 0.452892 0.171014
O O5 0.668961 0.894229 0.654413
O O6 0.690484 0.875225 0.527279
O O7 0.750000 0.000000 0.583494
O O8 0.836554 0.872190 0.704373
O O9 0.696544 0.879578 0.785029
O O10 0.750000 0.000000 0.724989
O O11 0.955699 0.183335 0.127762
O O12 0.000000 0.163542 0.250000
O O13 0.750000 0.500000 0.645591
O O14 0.736957 0.362674 0.595806
O O15 0.413064 0.786712 0.044731
#
# Coordination Sequence:
#
# PCOD8281765 Si02
#       7
#    16  16  16  16  16  16   8
#     4  10  19  32  56  83 118 150 183 239 299 355
#     4  11  20  33  56  85 115 149 195 240 300 353
#     4  10  18  32  52  84 116 143 184 237 300 352
#     4  11  19  33  57  86 117 150 188 239 292 355
#     4   9  18  33  52  82 116 148 182 238 304 349
#     4  10  21  37  55  79 116 152 197 241 286 349
#     4  10  23  38  54  82 110 159 202 240 286 338
#
# _framework density 20.405981000000001
#
# number of rings (size 3 to 8) (size 9 to 14) (size 15 to 20)
#    0.000    1.846    3.077    5.769    0.000    0.000 
#    0.000    0.769    0.000    0.000    0.000    0.000 
#    0.000    0.000    0.000    0.000    0.000    0.000 
#
# Total GULP energy -644509.842332 kJ/mol
# GULP energy per Si atom -12394.420045 kJ/mol
# Density = 2.035954 g / cm^3
# Si number density = 20.405981 Si / 1000 Ang^3
#
#
#
# Elastic Constant Matrix: (Units=GPa)
#
#
# Indices 1 2 3 4 5 6 
#
# 1 113.0797 29.3509 32.5514 0.0000 0.0000 0.0000
# 2 29.3509 44.2951 29.8641 0.0000 0.0000 0.0000
# 3 32.5514 29.8641 145.5461 0.0000 0.0000 0.0000
# 4 0.0000 0.0000 0.0000 14.1659 0.0000 0.0000
# 5 0.0000 0.0000 0.0000 0.0000 9.4848 0.0000
# 6 0.0000 0.0000 0.0000 0.0000 0.0000 20.7365
#
#
#
# Elastic Compliance Matrix: (Units=1/GPa)
#
#
# Indices 1 2 3 4 5 6 
#
# 1 0.010830 -0.006433 -0.001102 0.000000 0.000000 0.000000
# 2 -0.006433 0.030022 -0.004721 0.000000 0.000000 0.000000
# 3 -0.001102 -0.004721 0.008086 0.000000 0.000000 0.000000
# 4 0.000000 0.000000 0.000000 0.070592 0.000000 0.000000
# 5 0.000000 0.000000 0.000000 0.000000 0.105432 0.000000
# 6 0.000000 0.000000 0.000000 0.000000 0.000000 0.048224
#
#
# Mechanical properties :
#
#
# Convention : Reuss Voigt Hill
#
# Bulk Modulus (GPa) = 40.94239 54.05042 47.49641
# Shear Modulus (GPa) = 16.34834 22.95441 19.65138
#
# Velocity S-wave (km/s) = 2.83354 3.35757 3.10662
# Velocity P-wave (km/s) = 5.55092 6.44795 6.01618
#
# Compressibility (1/GPa) = 0.02442456
#
# Stress axis : x y z
#
# Youngs Moduli (GPa) = 92.33240 33.30909 123.67177
#
# Poissons Ratio (x) = 0.21429 0.13631
# Poissons Ratio (y) = 0.59401 0.58389
# Poissons Ratio (z) = 0.10177 0.15726
#
# Static dielectric constant tensor:
#      x y z
#    x 3.838310 0.000000 0.000000 
#    y 0.000000 3.272320 0.000000 
#    z 0.000000 0.000000 4.111100 
# 
# 
# High freq. dielectric constant tensor:
#      x y z
#    x 1.797370 0.000000 0.000000 
#    y 0.000000 1.736030 0.000000 
#    z 0.000000 0.000000 1.810640 
# 
# From -- ./inp_files/38814.got.cif
#   From: 2010.03.12/outbox.cif.g09.slc.cpg/sg68_20_cif.got.tgz:38814.got - 2010.04.10 23:14:56.
