data_PCOD8281819
_publ_section_title
;
Structure prediction by ZEFSAII (Michael W. Deem and Ramdas Pophale) SiO2 
 PCOD8281819
Probable space group: C C C A
;
_chemical_formula_sum "Si O2"
_cell_formula_units_Z 104
_cell_length_a 16.100344
_cell_length_b 14.663787
_cell_length_c 23.446631
_cell_angle_alpha 90.000000
_cell_angle_beta 90.000000
_cell_angle_gamma 90.000000
_cell_volume 5535.562359
_symmetry_space_group_name_H-M "C C C A"
_symmetry_group_IT_number 68
_space_group.IT_coordinate_system_code '2'
_symmetry_cell_setting 'orthorhombic'
loop_
_space_group_symop_operation_xyz
x,y,z
-x,1/2-y,z
x,1/2-y,1/2-z
-x,y,1/2-z
-x,-y,-z
x,1/2+y,-z
-x,1/2+y,1/2+z
x,-y,1/2+z
1/2+x,1/2+y,z
1/2-x,-y,z
1/2+x,-y,1/2-z
1/2-x,1/2+y,1/2-z
1/2-x,1/2-y,-z
1/2+x,y,-z
1/2-x,y,1/2+z
1/2+x,1/2-y,1/2+z
loop_
_atom_site_type_symbol
_atom_site_label
_atom_site_fract_x
_atom_site_fract_y
_atom_site_fract_z
Si Si1 0.750000 0.500000 0.758678
Si Si2 0.963679 0.653800 0.162967
Si Si3 0.172759 0.435617 0.047614
Si Si4 0.382360 0.550841 0.651868
Si Si5 0.922272 0.309790 0.534769
Si Si6 0.786512 0.324883 0.701678
Si Si7 0.712218 0.289666 0.402749
O O1 0.669631 0.504708 0.798581
O O2 0.733157 0.412587 0.719215
O O3 0.949661 0.652138 0.095340
O O4 0.880893 0.638460 0.199027
O O5 0.000000 0.750000 0.183420
O O6 0.024765 0.568361 0.174857
O O7 0.250000 0.500000 0.024672
O O8 0.120794 0.490392 0.094685
O O9 0.209037 0.344583 0.075785
O O10 0.106049 0.399103 0.001511
O O11 0.347415 0.651077 0.637693
O O12 0.840770 0.246061 0.543098
O O13 0.000000 0.250000 0.508325
O O14 0.774045 0.250000 0.750000
O O15 0.756662 0.291196 0.639147
#
# Coordination Sequence:
#
# PCOD8281819 Si02
#       7
#     8  16  16  16  16  16  16
#     4  12  22  34  56  84 112 142 192 228 286 346
#     4  10  19  35  56  80 111 141 182 238 282 323
#     4  10  21  35  57  83 113 154 188 226 284 347
#     4  11  18  36  56  79 113 144 183 231 284 337
#     4  10  19  35  57  83 109 145 193 229 278 336
#     4  11  20  35  58  84 109 141 186 238 281 329
#     4  10  18  38  56  76 115 149 181 229 285 332
#
# _framework density 18.787613
#
# number of rings (size 3 to 8) (size 9 to 14) (size 15 to 20)
#    0.000    1.538    8.462    0.462    0.000    2.769 
#    5.538    1.538    0.000    0.000    0.000    1.077 
#    0.000    0.000    0.000    0.000    0.000    0.000 
#
# Total GULP energy -644494.123336 kJ/mol
# GULP energy per Si atom -12394.117756 kJ/mol
# Density = 1.874485 g / cm^3
# Si number density = 18.787613 Si / 1000 Ang^3
#
#
#
# Elastic Constant Matrix: (Units=GPa)
#
#
# Indices 1 2 3 4 5 6 
#
# 1 51.0640 36.0505 6.1496 0.0000 0.0000 0.0000
# 2 36.0505 107.7024 41.9616 0.0000 0.0000 0.0000
# 3 6.1496 41.9616 47.6222 0.0000 0.0000 0.0000
# 4 0.0000 0.0000 0.0000 41.6774 0.0000 0.0000
# 5 0.0000 0.0000 0.0000 0.0000 21.2114 0.0000
# 6 0.0000 0.0000 0.0000 0.0000 0.0000 37.7547
#
#
#
# Elastic Compliance Matrix: (Units=1/GPa)
#
#
# Indices 1 2 3 4 5 6 
#
# 1 0.027024 -0.011704 0.006823 0.000000 0.000000 0.000000
# 2 -0.011704 0.019207 -0.015413 0.000000 0.000000 0.000000
# 3 0.006823 -0.015413 0.033698 0.000000 0.000000 0.000000
# 4 0.000000 0.000000 0.000000 0.023994 0.000000 0.000000
# 5 0.000000 0.000000 0.000000 0.000000 0.047144 0.000000
# 6 0.000000 0.000000 0.000000 0.000000 0.000000 0.026487
#
#
# Mechanical properties :
#
#
# Convention : Reuss Voigt Hill
#
# Bulk Modulus (GPa) = 25.41780 41.63466 33.52623
# Shear Modulus (GPa) = 21.62093 28.27717 24.94905
#
# Velocity S-wave (km/s) = 3.39604 3.88377 3.64806
# Velocity P-wave (km/s) = 5.37920 6.50541 5.96892
#
# Compressibility (1/GPa) = 0.03934251
#
# Stress axis : x y z
#
# Youngs Moduli (GPa) = 37.00350 52.06304 29.67496
#
# Poissons Ratio (x) = 0.60935 -0.20248
# Poissons Ratio (y) = 0.43309 0.45738
# Poissons Ratio (z) = -0.25248 0.80245
#
# Static dielectric constant tensor:
#      x y z
#    x 3.512620 0.000000 0.000000 
#    y 0.000000 3.514730 0.000000 
#    z 0.000000 0.000000 3.406400 
# 
# 
# High freq. dielectric constant tensor:
#      x y z
#    x 1.710770 0.000000 0.000000 
#    y 0.000000 1.721880 0.000000 
#    z 0.000000 0.000000 1.724770 
# 
# From -- ./inp_files/46119.got.cif
#   From: 2010.03.12/outbox.cif.g09.slc.cpg/sg68_24_cif.got.tgz:46119.got - 2010.04.10 23:14:56.
