data_PCOD8281941
_publ_section_title
;
Structure prediction by ZEFSAII (Michael W. Deem and Ramdas Pophale) SiO2 
 PCOD8281941
Probable space group: C C C A
;
_chemical_formula_sum "Si O2"
_cell_formula_units_Z 72
_cell_length_a 24.131909
_cell_length_b 16.004263
_cell_length_c 8.955409
_cell_angle_alpha 90.000000
_cell_angle_beta 90.000000
_cell_angle_gamma 90.000000
_cell_volume 3458.699122
_symmetry_space_group_name_H-M "C C C A"
_symmetry_group_IT_number 68
_space_group.IT_coordinate_system_code '2'
_symmetry_cell_setting 'orthorhombic'
loop_
_space_group_symop_operation_xyz
x,y,z
-x,1/2-y,z
x,1/2-y,1/2-z
-x,y,1/2-z
-x,-y,-z
x,1/2+y,-z
-x,1/2+y,1/2+z
x,-y,1/2+z
1/2+x,1/2+y,z
1/2-x,-y,z
1/2+x,-y,1/2-z
1/2-x,1/2+y,1/2-z
1/2-x,1/2-y,-z
1/2+x,y,-z
1/2-x,y,1/2+z
1/2+x,1/2-y,1/2+z
loop_
_atom_site_type_symbol
_atom_site_label
_atom_site_fract_x
_atom_site_fract_y
_atom_site_fract_z
Si Si1 0.276083 0.087848 0.263221
Si Si2 0.559182 0.920516 0.324824
Si Si3 0.180323 0.353903 0.030915
Si Si4 0.885554 0.250000 0.250000
Si Si5 0.879833 0.516252 0.408070
O O1 0.227671 0.132126 0.349781
O O2 0.327058 0.075707 0.378871
O O3 0.250000 0.000000 0.199937
O O4 0.292966 0.154012 0.133355
O O5 0.500000 0.936838 0.250000
O O6 0.575343 0.826055 0.293017
O O7 0.569574 0.938713 0.501188
O O8 0.599566 0.988716 0.253740
O O9 0.148817 0.273025 0.098820
O O10 0.139105 0.432043 0.008694
#
# Coordination Sequence:
#
# PCOD8281941 Si02
#       5
#    16  16  16   8  16
#     4  10  19  34  61  91 127 164 205 253 306 367
#     4  11  22  41  65  89 116 161 209 263 314 363
#     4  10  21  36  58  89 128 166 197 243 307 381
#     4  10  25  40  58  88 134 160 205 252 322 372
#     4  10  20  37  63  93 118 153 213 258 304 370
#
# _framework density 20.817076
#
# number of rings (size 3 to 8) (size 9 to 14) (size 15 to 20)
#    0.000    1.778    2.222    3.000    6.222    0.889 
#    0.000    0.000    0.000    0.000    5.778    0.000 
#    0.000    0.000    0.000    0.000    0.000    0.000 
#
# Total GULP energy -445977.427844 kJ/mol
# GULP energy per Si atom -12388.261885 kJ/mol
# Density = 2.076970 g / cm^3
# Si number density = 20.817076 Si / 1000 Ang^3
#
#
#
# Elastic Constant Matrix: (Units=GPa)
#
#
# Indices 1 2 3 4 5 6 
#
# 1 77.0462 17.7895 11.0460 0.0000 0.0000 0.0000
# 2 17.7895 49.8761 22.6625 0.0000 0.0000 0.0000
# 3 11.0460 22.6625 79.9858 0.0000 0.0000 0.0000
# 4 0.0000 0.0000 0.0000 25.8055 0.0000 0.0000
# 5 0.0000 0.0000 0.0000 0.0000 32.6385 0.0000
# 6 0.0000 0.0000 0.0000 0.0000 0.0000 19.4012
#
#
#
# Elastic Compliance Matrix: (Units=1/GPa)
#
#
# Indices 1 2 3 4 5 6 
#
# 1 0.014169 -0.004780 -0.000602 0.000000 0.000000 0.000000
# 2 -0.004780 0.024625 -0.006317 0.000000 0.000000 0.000000
# 3 -0.000602 -0.006317 0.014375 0.000000 0.000000 0.000000
# 4 0.000000 0.000000 0.000000 0.038751 0.000000 0.000000
# 5 0.000000 0.000000 0.000000 0.000000 0.030639 0.000000
# 6 0.000000 0.000000 0.000000 0.000000 0.000000 0.051543
#
#
# Mechanical properties :
#
#
# Convention : Reuss Voigt Hill
#
# Bulk Modulus (GPa) = 33.59023 34.43379 34.01201
# Shear Modulus (GPa) = 24.10509 25.92970 25.01740
#
# Velocity S-wave (km/s) = 3.40656 3.53313 3.47042
# Velocity P-wave (km/s) = 5.62528 5.76377 5.69495
#
# Compressibility (1/GPa) = 0.02977056
#
# Stress axis : x y z
#
# Youngs Moduli (GPa) = 70.57525 40.60938 69.56426
#
# Poissons Ratio (x) = 0.19412 0.04191
# Poissons Ratio (y) = 0.33735 0.43943
# Poissons Ratio (z) = 0.04252 0.25652
#
# Static dielectric constant tensor:
#      x y z
#    x 3.816800 0.000000 0.000000 
#    y 0.000000 3.667430 0.000000 
#    z 0.000000 0.000000 3.687760 
# 
# 
# High freq. dielectric constant tensor:
#      x y z
#    x 1.814280 0.000000 0.000000 
#    y 0.000000 1.791510 0.000000 
#    z 0.000000 0.000000 1.815420 
# 
# From -- ./inp_files/6077.got.cif
#   From: 2010.03.12/outbox.cif.g09.slc.cpg/sg68_4_cif.got.tgz:6077.got - 2010.04.10 23:14:56.
