data_PCOD8281249
_publ_section_title
;
Structure prediction by ZEFSAII (Michael W. Deem and Ramdas Pophale) SiO2 
 PCOD8281249
Probable space group: C M M A
;
_chemical_formula_sum "Si O2"
_cell_formula_units_Z 52
_cell_length_a 15.215942
_cell_length_b 11.042057
_cell_length_c 13.800371
_cell_angle_alpha 90.000000
_cell_angle_beta 90.000000
_cell_angle_gamma 90.000000
_cell_volume 2318.673458
_symmetry_space_group_name_H-M "C M M A"
_symmetry_group_IT_number 67
_symmetry_cell_setting 'orthorhombic'
loop_
_space_group_symop_operation_xyz
x,y,z
-x,1/2-y,z
x,-y,-z
-x,1/2+y,-z
-x,-y,-z
x,1/2+y,-z
-x,y,z
x,1/2-y,z
1/2+x,1/2+y,z
1/2-x,-y,z
1/2+x,1/2-y,-z
1/2-x,y,-z
1/2-x,1/2-y,-z
1/2+x,y,-z
1/2-x,1/2+y,z
1/2+x,-y,z
loop_
_atom_site_type_symbol
_atom_site_label
_atom_site_fract_x
_atom_site_fract_y
_atom_site_fract_z
Si Si1 0.660186 0.053661 0.248583
Si Si2 0.500000 0.884805 0.195067
Si Si3 0.602709 0.379719 0.450938
Si Si4 0.000000 0.250000 0.012422
Si Si5 0.681347 0.750000 0.910204
O O1 0.618757 0.129131 0.336004
O O2 0.690673 0.131294 0.155647
O O3 0.750000 0.000000 0.290221
O O4 0.589205 0.951777 0.222569
O O5 0.500000 0.750000 0.244128
O O6 0.500000 0.870578 0.078632
O O7 0.646819 0.500000 0.500000
O O8 0.500000 0.386601 0.471789
O O9 0.637935 0.250000 0.494362
O O10 0.917305 0.250000 0.944572
O O11 0.750000 0.750000 0.000000
#
# Coordination Sequence:
#
# PCOD8281249 Si02
#       5
#    16   8  16   4   8
#     4  12  25  43  73 102 146 189 239 303 367 440
#     4  10  25  45  65 104 142 187 246 296 364 435
#     4  10  22  44  72 106 139 182 238 303 373 444
#     4  10  24  42  68  92 136 186 240 288 356 432
#     4  12  26  44  70 106 142 193 244 307 365 427
#
# _framework density 22.426615999999999
#
# number of rings (size 3 to 8) (size 9 to 14) (size 15 to 20)
#    0.462    0.615    3.077    2.769    2.154    7.385 
#    0.000    1.538    0.000    0.000    0.000    0.000 
#    0.000    0.000    0.000    0.000    0.000    0.000 
#
# Total GULP energy -322116.431338 kJ/mol
# GULP energy per Si atom -12389.093513 kJ/mol
# Density = 2.237557 g / cm^3
# Si number density = 22.426616 Si / 1000 Ang^3
#
#
#
# Elastic Constant Matrix: (Units=GPa)
#
#
# Indices 1 2 3 4 5 6 
#
# 1 87.6075 40.3521 6.4397 0.0000 0.0000 0.0000
# 2 40.3521 199.8587 56.7552 0.0000 0.0000 0.0000
# 3 6.4397 56.7552 97.6987 0.0000 0.0000 0.0000
# 4 0.0000 0.0000 0.0000 5540.9775 0.0000 0.0000
# 5 0.0000 0.0000 0.0000 0.0000 36.6370 0.0000
# 6 0.0000 0.0000 0.0000 0.0000 0.0000 41.1522
#
#
#
# Elastic Compliance Matrix: (Units=1/GPa)
#
#
# Indices 1 2 3 4 5 6 
#
# 1 0.012634 -0.002772 0.000777 0.000000 0.000000 0.000000
# 2 -0.002772 0.006600 -0.003651 0.000000 0.000000 0.000000
# 3 0.000777 -0.003651 0.012305 0.000000 0.000000 0.000000
# 4 0.000000 0.000000 0.000000 0.000180 0.000000 0.000000
# 5 0.000000 0.000000 0.000000 0.000000 0.027295 0.000000
# 6 0.000000 0.000000 0.000000 0.000000 0.000000 0.024300
#
#
# Mechanical properties :
#
#
# Convention : Reuss Voigt Hill
#
# Bulk Modulus (GPa) = 49.38717 65.80654 57.59686
# Shear Modulus (GPa) = 49.33128 1142.52789 595.92958
#
# Velocity S-wave (km/s) = 4.69516 22.59552 16.31874
# Velocity P-wave (km/s) = 7.17371 26.64865 19.51426
#
# Compressibility (1/GPa) = 0.02024817
#
# Stress axis : x y z
#
# Youngs Moduli (GPa) = 79.15146 151.51418 81.26451
#
# Poissons Ratio (x) = 0.41993 -0.06317
# Poissons Ratio (y) = 0.21937 0.29673
# Poissons Ratio (z) = -0.06153 0.55324
#
# Static dielectric constant tensor:
#      x y z
#    x 3.844750 0.000000 0.000000 
#    y 0.000000 4.412850 0.000000 
#    z 0.000000 0.000000 3.978860 
# 
# 
# High freq. dielectric constant tensor:
#      x y z
#    x 1.883960 0.000000 0.000000 
#    y 0.000000 1.899090 0.000000 
#    z 0.000000 0.000000 1.880050 
# 
# From -- ./inp_files/26616.got.cif
#   From: 2010.03.12/outbox.cif.g09.slc.cpg/sg67_14_cif.got.tgz:26616.got - 2010.04.10 22:41:39.
