data_PCOD8281892
_publ_section_title
;
Structure prediction by ZEFSAII (Michael W. Deem and Ramdas Pophale) SiO2 
 PCOD8281892
Probable space group: C C C A
;
_chemical_formula_sum "Si O2"
_cell_formula_units_Z 88
_cell_length_a 30.439062
_cell_length_b 4.972428
_cell_length_c 28.833376
_cell_angle_alpha 90.000000
_cell_angle_beta 90.000000
_cell_angle_gamma 90.000000
_cell_volume 4364.105732
_symmetry_space_group_name_H-M "C C C A"
_symmetry_group_IT_number 68
_space_group.IT_coordinate_system_code '2'
_symmetry_cell_setting 'orthorhombic'
loop_
_space_group_symop_operation_xyz
x,y,z
-x,1/2-y,z
x,1/2-y,1/2-z
-x,y,1/2-z
-x,-y,-z
x,1/2+y,-z
-x,1/2+y,1/2+z
x,-y,1/2+z
1/2+x,1/2+y,z
1/2-x,-y,z
1/2+x,-y,1/2-z
1/2-x,1/2+y,1/2-z
1/2-x,1/2-y,-z
1/2+x,y,-z
1/2-x,y,1/2+z
1/2+x,1/2-y,1/2+z
loop_
_atom_site_type_symbol
_atom_site_label
_atom_site_fract_x
_atom_site_fract_y
_atom_site_fract_z
Si Si1 0.939580 0.342377 0.700175
Si Si2 0.141696 0.191635 0.385923
Si Si3 0.200021 0.505931 0.030382
Si Si4 0.656043 0.311691 0.172280
Si Si5 0.222690 0.250000 0.750000
Si Si6 0.044986 0.664886 0.641631
O O1 0.957994 0.250000 0.750000
O O2 0.887222 0.360603 0.702263
O O3 0.955208 0.639695 0.686617
O O4 0.956772 0.138588 0.660525
O O5 0.164029 0.084227 0.432418
O O6 0.159107 0.487271 0.371950
O O7 0.088261 0.201858 0.390802
O O8 0.155786 0.994347 0.344716
O O9 0.250000 0.500000 0.050338
O O10 0.192743 0.810908 0.013720
O O11 0.695831 0.365158 0.206642
O O12 0.250000 0.500000 0.730701
O O13 0.000000 0.750000 0.613840
#
# Coordination Sequence:
#
# PCOD8281892 Si02
#       6
#    16  16  16  16   8  16
#     4  10  19  33  52  70 103 147 186 235 275 311
#     4  10  21  37  60  79 109 150 178 222 284 333
#     4  10  21  38  61  88 111 133 172 229 283 338
#     4  10  21  37  52  76 108 149 192 223 266 329
#     4  12  24  36  52  76 109 148 191 238 272 306
#     4  10  21  33  50  79 108 141 185 227 273 325
#
# _framework density 20.164496
#
# number of rings (size 3 to 8) (size 9 to 14) (size 15 to 20)
#    0.000    1.818    0.909    3.273    0.000    4.364 
#    0.000    0.000    0.000    1.091    0.000    0.000 
#    0.000    0.000    0.000    0.000    0.000    0.000 
#
# Total GULP energy -545445.305936 kJ/mol
# GULP energy per Si atom -12396.484226 kJ/mol
# Density = 2.011860 g / cm^3
# Si number density = 20.164496 Si / 1000 Ang^3
#
#
#
# Elastic Constant Matrix: (Units=GPa)
#
#
# Indices 1 2 3 4 5 6 
#
# 1 135.6781 25.5305 47.6327 0.0000 0.0000 0.0000
# 2 25.5305 89.5537 2.8272 0.0000 0.0000 0.0000
# 3 47.6327 2.8272 56.7553 0.0000 0.0000 0.0000
# 4 0.0000 0.0000 0.0000 17.1636 0.0000 0.0000
# 5 0.0000 0.0000 0.0000 0.0000 -2.8818 0.0000
# 6 0.0000 0.0000 0.0000 0.0000 0.0000 26.4596
#
#
#
# Elastic Compliance Matrix: (Units=1/GPa)
#
#
# Indices 1 2 3 4 5 6 
#
# 1 0.011148 -0.002887 -0.009212 0.000000 0.000000 0.000000
# 2 -0.002887 0.011932 0.001829 0.000000 0.000000 0.000000
# 3 -0.009212 0.001829 0.025260 0.000000 0.000000 0.000000
# 4 0.000000 0.000000 0.000000 0.058263 0.000000 0.000000
# 5 0.000000 0.000000 0.000000 0.000000 -0.347007 0.000000
# 6 0.000000 0.000000 0.000000 0.000000 0.000000 0.037793
#
#
# Mechanical properties :
#
#
# Convention : Reuss Voigt Hill
#
# Bulk Modulus (GPa) = 35.97337 48.21864 42.09601
# Shear Modulus (GPa) = -28.93445 21.88140 -3.52653
#
# Velocity S-wave (km/s) = -3.79214 3.29773 -1.32389
# Velocity P-wave (km/s) = 1.13804 6.20198 4.31100
#
# Compressibility (1/GPa) = 0.02779834
#
# Stress axis : x y z
#
# Youngs Moduli (GPa) = 89.70374 83.80918 39.58852
#
# Poissons Ratio (x) = 0.24198 0.36470
# Poissons Ratio (y) = 0.25900 -0.07240
# Poissons Ratio (z) = 0.82636 -0.15327
#
# Static dielectric constant tensor:
#      x y z
#    x 4.040670 0.000000 0.000000 
#    y 0.000000 3.867420 0.000000 
#    z 0.000000 0.000000 3.057290 
# 
# 
# High freq. dielectric constant tensor:
#      x y z
#    x 1.801710 0.000000 0.000000 
#    y 0.000000 1.811650 0.000000 
#    z 0.000000 0.000000 1.728230 
# 
# From -- ./inp_files/52467.got.cif
#   From: 2010.03.12/outbox.cif.g09.slc.cpg/sg68_27_cif.got.tgz:52467.got - 2010.04.10 23:14:56.
