data_PCOD8281345
_publ_section_title
;
Structure prediction by ZEFSAII (Michael W. Deem and Ramdas Pophale) SiO2 
 PCOD8281345
Probable space group: C M M A
;
_chemical_formula_sum "Si O2"
_cell_formula_units_Z 96
_cell_length_a 15.393032
_cell_length_b 21.928490
_cell_length_c 13.830743
_cell_angle_alpha 90.000000
_cell_angle_beta 90.000000
_cell_angle_gamma 90.000000
_cell_volume 4668.511261
_symmetry_space_group_name_H-M "C M M A"
_symmetry_group_IT_number 67
_symmetry_cell_setting 'orthorhombic'
loop_
_space_group_symop_operation_xyz
x,y,z
-x,1/2-y,z
x,-y,-z
-x,1/2+y,-z
-x,-y,-z
x,1/2+y,-z
-x,y,z
x,1/2-y,z
1/2+x,1/2+y,z
1/2-x,-y,z
1/2+x,1/2-y,-z
1/2-x,y,-z
1/2-x,1/2-y,-z
1/2+x,y,-z
1/2-x,1/2+y,z
1/2+x,-y,z
loop_
_atom_site_type_symbol
_atom_site_label
_atom_site_fract_x
_atom_site_fract_y
_atom_site_fract_z
Si Si1 0.099210 0.250000 0.238123
Si Si2 0.153276 0.380238 0.212258
Si Si3 0.843591 0.879425 0.467635
Si Si4 0.904442 0.039844 0.373299
Si Si5 0.500000 0.576978 0.082051
Si Si6 0.904589 0.250000 0.464832
Si Si7 0.000000 0.063095 0.868729
Si Si8 0.337568 0.073430 0.267410
O O1 0.156848 0.307295 0.204252
O O2 0.090877 0.250000 0.351504
O O3 0.000000 0.250000 0.194627
O O4 0.108119 0.397348 0.313949
O O5 0.090949 0.400632 0.125792
O O6 0.248430 0.412321 0.209056
O O7 0.750000 0.901025 0.500000
O O8 0.899091 0.935946 0.515098
O O9 0.857785 0.810999 0.501451
O O10 0.853315 0.877145 0.351910
O O11 0.000000 0.012219 0.355245
O O12 0.836624 0.991403 0.326547
O O13 0.500000 0.506052 0.100644
O O14 0.500000 0.599049 0.970460
O O15 0.000000 0.250000 0.511262
O O16 0.914047 0.079270 0.809308
#
# Coordination Sequence:
#
# PCOD8281345 Si02
#       8
#     8  16  16  16   8   8   8  16
#     4  11  20  39  69 101 130 175 224 288 327 368
#     4  12  22  40  71  98 132 165 223 284 333 389
#     4  12  25  37  60  93 137 183 224 268 322 394
#     4  12  22  39  62  96 135 179 217 265 322 396
#     4  11  24  45  71 101 123 165 222 290 352 395
#     4  11  23  37  57  87 131 180 233 270 316 386
#     4  11  26  44  66  96 138 173 216 274 347 413
#     4  12  25  41  64  95 142 178 215 265 337 407
#
# _framework density 20.563300999999999
#
# number of rings (size 3 to 8) (size 9 to 14) (size 15 to 20)
#    0.000    0.333    7.500    1.750    2.333    2.667 
#    0.000    1.667    0.000    5.000    0.000    0.000 
#    0.000    0.000    0.000    0.000    0.000    0.000 
#
# Total GULP energy -594818.238443 kJ/mol
# GULP energy per Si atom -12392.046634 kJ/mol
# Density = 2.051650 g / cm^3
# Si number density = 20.563301 Si / 1000 Ang^3
#
#
#
# Elastic Constant Matrix: (Units=GPa)
#
#
# Indices 1 2 3 4 5 6 
#
# 1 154.5851 54.0344 67.1862 0.0000 0.0000 0.0000
# 2 54.0344 104.5195 16.9170 0.0000 0.0000 0.0000
# 3 67.1862 16.9170 126.6024 0.0000 0.0000 0.0000
# 4 0.0000 0.0000 0.0000 19.1711 0.0000 0.0000
# 5 0.0000 0.0000 0.0000 0.0000 25.1731 0.0000
# 6 0.0000 0.0000 0.0000 0.0000 0.0000 13.2932
#
#
#
# Elastic Compliance Matrix: (Units=1/GPa)
#
#
# Indices 1 2 3 4 5 6 
#
# 1 0.010093 -0.004447 -0.004762 0.000000 0.000000 0.000000
# 2 -0.004447 0.011739 0.000792 0.000000 0.000000 0.000000
# 3 -0.004762 0.000792 0.010320 0.000000 0.000000 0.000000
# 4 0.000000 0.000000 0.000000 0.052162 0.000000 0.000000
# 5 0.000000 0.000000 0.000000 0.000000 0.039725 0.000000
# 6 0.000000 0.000000 0.000000 0.000000 0.000000 0.075226
#
#
# Mechanical properties :
#
#
# Convention : Reuss Voigt Hill
#
# Bulk Modulus (GPa) = 65.28938 73.55357 69.42148
# Shear Modulus (GPa) = 22.60341 28.03213 25.31777
#
# Velocity S-wave (km/s) = 3.31903 3.69617 3.51267
# Velocity P-wave (km/s) = 6.81963 7.35273 7.09119
#
# Compressibility (1/GPa) = 0.01531643
#
# Stress axis : x y z
#
# Youngs Moduli (GPa) = 99.07767 85.18928 96.89808
#
# Poissons Ratio (x) = 0.37885 0.46143
# Poissons Ratio (y) = 0.44061 -0.07670
# Poissons Ratio (z) = 0.47181 -0.06743
#
# Static dielectric constant tensor:
#      x y z
#    x 3.779190 0.000000 0.000000 
#    y 0.000000 3.802730 0.000000 
#    z 0.000000 0.000000 4.070760 
# 
# 
# High freq. dielectric constant tensor:
#      x y z
#    x 1.811670 0.000000 0.000000 
#    y 0.000000 1.800830 0.000000 
#    z 0.000000 0.000000 1.783300 
# 
# From -- ./inp_files/27314.got.cif
#   From: 2010.03.12/outbox.cif.g09.slc.cpg/sg67_14_cif.got.tgz:27314.got - 2010.04.10 22:41:39.
