data_PCOD8281900
_publ_section_title
;
Structure prediction by ZEFSAII (Michael W. Deem and Ramdas Pophale) SiO2 
 PCOD8281900
Probable space group: C C C A
;
_chemical_formula_sum "Si O2"
_cell_formula_units_Z 96
_cell_length_a 27.843756
_cell_length_b 18.592830
_cell_length_c 9.852526
_cell_angle_alpha 90.000000
_cell_angle_beta 90.000000
_cell_angle_gamma 90.000000
_cell_volume 5100.595781
_symmetry_space_group_name_H-M "C C C A"
_symmetry_group_IT_number 68
_space_group.IT_coordinate_system_code '2'
_symmetry_cell_setting 'orthorhombic'
loop_
_space_group_symop_operation_xyz
x,y,z
-x,1/2-y,z
x,1/2-y,1/2-z
-x,y,1/2-z
-x,-y,-z
x,1/2+y,-z
-x,1/2+y,1/2+z
x,-y,1/2+z
1/2+x,1/2+y,z
1/2-x,-y,z
1/2+x,-y,1/2-z
1/2-x,1/2+y,1/2-z
1/2-x,1/2-y,-z
1/2+x,y,-z
1/2-x,y,1/2+z
1/2+x,1/2-y,1/2+z
loop_
_atom_site_type_symbol
_atom_site_label
_atom_site_fract_x
_atom_site_fract_y
_atom_site_fract_z
Si Si1 0.614640 0.583059 0.529848
Si Si2 0.053378 0.588812 0.732613
Si Si3 0.948254 0.421940 0.770070
Si Si4 0.706978 0.334867 0.092693
Si Si5 0.296088 0.334291 0.094142
Si Si6 0.887063 0.416024 0.021169
O O1 0.575589 0.602065 0.414903
O O2 0.591015 0.611427 0.669111
O O3 0.663581 0.626629 0.514349
O O4 0.628884 0.499087 0.532786
O O5 0.047627 0.505388 0.769314
O O6 0.000000 0.624490 0.750000
O O7 0.093111 0.618517 0.839080
O O8 0.932715 0.409688 0.923100
O O9 0.000000 0.384710 0.750000
O O10 0.696939 0.250620 0.087670
O O11 0.713386 0.359704 0.250090
O O12 0.753153 0.357739 0.005195
O O13 0.343323 0.370712 0.035541
#
# Coordination Sequence:
#
# PCOD8281900 Si02
#       6
#    16  16  16  16  16  16
#     4  10  19  33  54  83 111 139 178 221 265 309
#     4   9  18  30  50  81 112 144 177 213 260 313
#     4   9  16  30  52  77 110 144 177 217 260 313
#     4  10  22  40  59  78 103 140 182 221 269 325
#     4  10  22  40  59  78 103 140 182 221 269 325
#     4  10  19  33  54  83 111 139 178 221 265 309
#
# _framework density 18.821331000000001
#
# number of rings (size 3 to 8) (size 9 to 14) (size 15 to 20)
#    0.000    2.333    1.667    1.000    2.333    4.667 
#    0.000    1.667    0.000    6.000    0.000    0.000 
#    0.000    0.000    0.000    0.000    0.000    0.000 
#
# Total GULP energy -595031.894680 kJ/mol
# GULP energy per Si atom -12396.497806 kJ/mol
# Density = 1.877849 g / cm^3
# Si number density = 18.821331 Si / 1000 Ang^3
#
#
#
# Elastic Constant Matrix: (Units=GPa)
#
#
# Indices 1 2 3 4 5 6 
#
# 1 120.3016 28.6801 32.1956 0.0000 0.0000 0.0000
# 2 28.6801 17.1335 13.8043 0.0000 0.0000 0.0000
# 3 32.1956 13.8043 93.2563 0.0000 0.0000 0.0000
# 4 0.0000 0.0000 0.0000 17.1769 0.0000 0.0000
# 5 0.0000 0.0000 0.0000 0.0000 35.6616 0.0000
# 6 0.0000 0.0000 0.0000 0.0000 0.0000 -40.2786
#
#
#
# Elastic Compliance Matrix: (Units=1/GPa)
#
#
# Indices 1 2 3 4 5 6 
#
# 1 0.014028 -0.022231 -0.001552 0.000000 0.000000 0.000000
# 2 -0.022231 0.101499 -0.007350 0.000000 0.000000 0.000000
# 3 -0.001552 -0.007350 0.012347 0.000000 0.000000 0.000000
# 4 0.000000 0.000000 0.000000 0.058218 0.000000 0.000000
# 5 0.000000 0.000000 0.000000 0.000000 0.028041 0.000000
# 6 0.000000 0.000000 0.000000 0.000000 0.000000 -0.024827
#
#
# Mechanical properties :
#
#
# Convention : Reuss Voigt Hill
#
# Bulk Modulus (GPa) = 15.24183 42.22791 28.73487
# Shear Modulus (GPa) = 18.28554 12.91274 15.59914
#
# Velocity S-wave (km/s) = 3.12032 2.62213 2.88201
# Velocity P-wave (km/s) = 4.59322 5.62604 5.13566
#
# Compressibility (1/GPa) = 0.06560891
#
# Stress axis : x y z
#
# Youngs Moduli (GPa) = 71.28778 9.85231 80.99179
#
# Poissons Ratio (x) = 0.21902 0.12571
# Poissons Ratio (y) = 1.58477 0.59526
# Poissons Ratio (z) = 0.11065 0.07241
#
# Static dielectric constant tensor:
#      x y z
#    x 3.507090 0.000000 0.000000 
#    y 0.000000 3.021280 0.000000 
#    z 0.000000 0.000000 3.686210 
# 
# 
# High freq. dielectric constant tensor:
#      x y z
#    x 1.743950 0.000000 0.000000 
#    y 0.000000 1.678360 0.000000 
#    z 0.000000 0.000000 1.749440 
# 
# From -- ./inp_files/8906.got.cif
#   From: 2010.03.12/outbox.cif.g09.slc.cpg/sg68_5_cif.got.tgz:8906.got - 2010.04.10 23:14:56.
