data_PCOD8281296
_publ_section_title
;
Structure prediction by ZEFSAII (Michael W. Deem and Ramdas Pophale) SiO2 
 PCOD8281296
Probable space group: C M M A
;
_chemical_formula_sum "Si O2"
_cell_formula_units_Z 48
_cell_length_a 16.243286
_cell_length_b 9.671058
_cell_length_c 13.483125
_cell_angle_alpha 90.000000
_cell_angle_beta 90.000000
_cell_angle_gamma 90.000000
_cell_volume 2118.060884
_symmetry_space_group_name_H-M "C M M A"
_symmetry_group_IT_number 67
_symmetry_cell_setting 'orthorhombic'
loop_
_space_group_symop_operation_xyz
x,y,z
-x,1/2-y,z
x,-y,-z
-x,1/2+y,-z
-x,-y,-z
x,1/2+y,-z
-x,y,z
x,1/2-y,z
1/2+x,1/2+y,z
1/2-x,-y,z
1/2+x,1/2-y,-z
1/2-x,y,-z
1/2-x,1/2-y,-z
1/2+x,y,-z
1/2-x,1/2+y,z
1/2+x,-y,z
loop_
_atom_site_type_symbol
_atom_site_label
_atom_site_fract_x
_atom_site_fract_y
_atom_site_fract_z
Si Si1 0.407314 0.250000 0.151474
Si Si2 0.903215 0.459680 0.205804
Si Si3 0.162125 0.750000 0.946181
Si Si4 0.167799 0.410805 0.411931
O O1 0.500000 0.250000 0.188021
O O2 0.366381 0.114393 0.198774
O O3 0.405509 0.250000 0.032417
O O4 0.849810 0.381628 0.123676
O O5 0.889855 0.403510 0.315900
O O6 0.000000 0.447334 0.179136
O O7 0.250000 0.750000 0.000000
O O8 0.123242 0.500000 0.500000
O O9 0.185470 0.250000 0.443055
O O10 0.250000 0.500000 0.388997
#
# Coordination Sequence:
#
# PCOD8281296 Si02
#       4
#     8  16   8  16
#     4  10  24  42  65  95 139 186 228 284 348 418
#     4  11  25  45  70 101 143 185 233 294 357 421
#     4  12  26  42  67 103 136 185 236 293 348 418
#     4  11  25  44  72 102 140 183 231 293 356 422
#
# _framework density 22.662237999999999
#
# number of rings (size 3 to 8) (size 9 to 14) (size 15 to 20)
#    0.000    1.000    1.667    4.500    9.333    4.667 
#    0.000    0.000    0.000    0.000    0.000    0.000 
#    0.000    0.000    0.000    0.000    0.000    0.000 
#
# Total GULP energy -297396.118786 kJ/mol
# GULP energy per Si atom -12391.504949 kJ/mol
# Density = 2.261066 g / cm^3
# Si number density = 22.662238 Si / 1000 Ang^3
#
#
#
# Elastic Constant Matrix: (Units=GPa)
#
#
# Indices 1 2 3 4 5 6 
#
# 1 74.7502 41.6063 34.5607 0.0000 0.0000 0.0000
# 2 41.6063 229.5167 57.9717 0.0000 0.0000 0.0000
# 3 34.5607 57.9717 144.3991 0.0000 0.0000 0.0000
# 4 0.0000 0.0000 0.0000 37.2016 0.0000 0.0000
# 5 0.0000 0.0000 0.0000 0.0000 44.5522 0.0000
# 6 0.0000 0.0000 0.0000 0.0000 0.0000 5.4242
#
#
#
# Elastic Compliance Matrix: (Units=1/GPa)
#
#
# Indices 1 2 3 4 5 6 
#
# 1 0.015936 -0.002143 -0.002954 0.000000 0.000000 0.000000
# 2 -0.002143 0.005137 -0.001549 0.000000 0.000000 0.000000
# 3 -0.002954 -0.001549 0.008254 0.000000 0.000000 0.000000
# 4 0.000000 0.000000 0.000000 0.026881 0.000000 0.000000
# 5 0.000000 0.000000 0.000000 0.000000 0.022446 0.000000
# 6 0.000000 0.000000 0.000000 0.000000 0.000000 0.184358
#
#
# Mechanical properties :
#
#
# Convention : Reuss Voigt Hill
#
# Bulk Modulus (GPa) = 62.36313 79.66034 71.01174
# Shear Modulus (GPa) = 17.75260 38.40408 28.07834
#
# Velocity S-wave (km/s) = 2.80189 4.12105 3.52375
# Velocity P-wave (km/s) = 6.16812 7.60734 6.92522
#
# Compressibility (1/GPa) = 0.01603512
#
# Stress axis : x y z
#
# Youngs Moduli (GPa) = 62.74964 194.67486 121.14916
#
# Poissons Ratio (x) = 0.41715 0.35787
# Poissons Ratio (y) = 0.13446 0.18771
# Poissons Ratio (z) = 0.18536 0.30163
#
# Static dielectric constant tensor:
#      x y z
#    x 3.665340 0.000000 0.000000 
#    y 0.000000 4.651010 0.000000 
#    z 0.000000 0.000000 4.260810 
# 
# 
# High freq. dielectric constant tensor:
#      x y z
#    x 1.867880 0.000000 0.000000 
#    y 0.000000 1.923420 0.000000 
#    z 0.000000 0.000000 1.901530 
# 
# From -- ./inp_files/28007.got.cif
#   From: 2010.03.12/outbox.cif.g09.slc.cpg/sg67_15_cif.got.tgz:28007.got - 2010.04.10 22:41:39.
