data_PCOD8281678
_publ_section_title
;
Structure prediction by ZEFSAII (Michael W. Deem and Ramdas Pophale) SiO2 
 PCOD8281678
Probable space group: C C C A
;
_chemical_formula_sum "Si O2"
_cell_formula_units_Z 68
_cell_length_a 13.772051
_cell_length_b 18.432635
_cell_length_c 14.736888
_cell_angle_alpha 90.000000
_cell_angle_beta 90.000000
_cell_angle_gamma 90.000000
_cell_volume 3741.035493
_symmetry_space_group_name_H-M "C C C A"
_symmetry_group_IT_number 68
_space_group.IT_coordinate_system_code '2'
_symmetry_cell_setting 'orthorhombic'
loop_
_space_group_symop_operation_xyz
x,y,z
-x,1/2-y,z
x,1/2-y,1/2-z
-x,y,1/2-z
-x,-y,-z
x,1/2+y,-z
-x,1/2+y,1/2+z
x,-y,1/2+z
1/2+x,1/2+y,z
1/2-x,-y,z
1/2+x,-y,1/2-z
1/2-x,1/2+y,1/2-z
1/2-x,1/2-y,-z
1/2+x,y,-z
1/2-x,y,1/2+z
1/2+x,1/2-y,1/2+z
loop_
_atom_site_type_symbol
_atom_site_label
_atom_site_fract_x
_atom_site_fract_y
_atom_site_fract_z
Si Si1 0.500000 0.250000 0.750000
Si Si2 0.137342 0.630284 0.694108
Si Si3 0.477040 0.489233 0.149597
Si Si4 0.297297 0.422563 0.076792
Si Si5 0.171399 0.056051 0.121668
O O1 0.570864 0.201919 0.685971
O O2 0.078167 0.565214 0.650929
O O3 0.238515 0.637317 0.636943
O O4 0.154770 0.616256 0.801380
O O5 0.500000 0.460873 0.250000
O O6 0.411451 0.426610 0.103686
O O7 0.576997 0.506611 0.096685
O O8 0.250000 0.500000 0.098327
O O9 0.290954 0.404313 0.969708
O O10 0.250000 0.000000 0.160902
#
# Coordination Sequence:
#
# PCOD8281678 Si02
#       5
#     4  16  16  16  16
#     4  12  20  36  56  64  98 146 184 222 244 292
#     4  10  19  33  50  73 100 135 179 207 251 304
#     4   9  15  29  48  76 106 130 160 204 259 313
#     4   9  18  29  49  77 107 129 159 213 269 316
#     4  10  17  29  50  81 107 130 158 208 267 317
#
# _framework density 18.176786
#
# number of rings (size 3 to 8) (size 9 to 14) (size 15 to 20)
#    0.000    2.353    3.529    4.235    0.000    0.000 
#    0.000    1.176    0.000    0.000    0.000    1.647 
#    0.000    0.000    0.000    0.000    0.000    0.000 
#
# Total GULP energy -421333.126540 kJ/mol
# GULP energy per Si atom -12392.150781 kJ/mol
# Density = 1.813541 g / cm^3
# Si number density = 18.176786 Si / 1000 Ang^3
#
#
#
# Elastic Constant Matrix: (Units=GPa)
#
#
# Indices 1 2 3 4 5 6 
#
# 1 117.2475 31.7034 47.7022 0.0000 0.0000 0.0000
# 2 31.7034 49.6201 25.7613 0.0000 0.0000 0.0000
# 3 47.7022 25.7613 75.0452 0.0000 0.0000 0.0000
# 4 0.0000 0.0000 0.0000 9.5295 0.0000 0.0000
# 5 0.0000 0.0000 0.0000 0.0000 22.5039 0.0000
# 6 0.0000 0.0000 0.0000 0.0000 0.0000 29.7289
#
#
#
# Elastic Compliance Matrix: (Units=1/GPa)
#
#
# Indices 1 2 3 4 5 6 
#
# 1 0.012321 -0.004631 -0.006242 0.000000 0.000000 0.000000
# 2 -0.004631 0.026265 -0.006072 0.000000 0.000000 0.000000
# 3 -0.006242 -0.006072 0.019377 0.000000 0.000000 0.000000
# 4 0.000000 0.000000 0.000000 0.104938 0.000000 0.000000
# 5 0.000000 0.000000 0.000000 0.000000 0.044437 0.000000
# 6 0.000000 0.000000 0.000000 0.000000 0.000000 0.033637
#
#
# Mechanical properties :
#
#
# Convention : Reuss Voigt Hill
#
# Bulk Modulus (GPa) = 41.54191 50.24963 45.89577
# Shear Modulus (GPa) = 17.67475 21.46883 19.57179
#
# Velocity S-wave (km/s) = 3.12168 3.44046 3.28494
# Velocity P-wave (km/s) = 5.99143 6.59449 6.30018
#
# Compressibility (1/GPa) = 0.02407208
#
# Stress axis : x y z
#
# Youngs Moduli (GPa) = 81.16378 38.07385 51.60681
#
# Poissons Ratio (x) = 0.17634 0.32212
# Poissons Ratio (y) = 0.37591 0.31336
# Poissons Ratio (z) = 0.50661 0.23119
#
# Static dielectric constant tensor:
#      x y z
#    x 3.982910 0.000000 0.000000 
#    y 0.000000 2.790020 0.000000 
#    z 0.000000 0.000000 3.283530 
# 
# 
# High freq. dielectric constant tensor:
#      x y z
#    x 1.728040 0.000000 0.000000 
#    y 0.000000 1.624000 0.000000 
#    z 0.000000 0.000000 1.704110 
# 
# From -- ./inp_files/20659.got.cif
#   From: 2010.03.12/outbox.cif.g09.slc.cpg/sg68_11_cif.got.tgz:20659.got - 2010.04.10 23:14:56.
