data_PCOD8281937
_publ_section_title
;
Structure prediction by ZEFSAII (Michael W. Deem and Ramdas Pophale) SiO2 
 PCOD8281937
Probable space group: C C C A
;
_chemical_formula_sum "Si O2"
_cell_formula_units_Z 80
_cell_length_a 13.671175
_cell_length_b 14.547570
_cell_length_c 19.104141
_cell_angle_alpha 90.000000
_cell_angle_beta 90.000000
_cell_angle_gamma 90.000000
_cell_volume 3799.476940
_symmetry_space_group_name_H-M "C C C A"
_symmetry_group_IT_number 68
_space_group.IT_coordinate_system_code '2'
_symmetry_cell_setting 'orthorhombic'
loop_
_space_group_symop_operation_xyz
x,y,z
-x,1/2-y,z
x,1/2-y,1/2-z
-x,y,1/2-z
-x,-y,-z
x,1/2+y,-z
-x,1/2+y,1/2+z
x,-y,1/2+z
1/2+x,1/2+y,z
1/2-x,-y,z
1/2+x,-y,1/2-z
1/2-x,1/2+y,1/2-z
1/2-x,1/2-y,-z
1/2+x,y,-z
1/2-x,y,1/2+z
1/2+x,1/2-y,1/2+z
loop_
_atom_site_type_symbol
_atom_site_label
_atom_site_fract_x
_atom_site_fract_y
_atom_site_fract_z
Si Si1 0.397726 0.429571 0.555045
Si Si2 0.261444 0.398771 0.869149
Si Si3 0.189613 0.884015 0.470768
Si Si4 0.969808 0.646716 0.673868
Si Si5 0.405001 0.700462 0.926820
O O1 0.288335 0.395356 0.576401
O O2 0.393767 0.540618 0.547153
O O3 0.478116 0.414556 0.615139
O O4 0.433226 0.377200 0.484293
O O5 0.250000 0.500000 0.836319
O O6 0.352456 0.352468 0.830747
O O7 0.160038 0.340444 0.862461
O O8 0.277565 0.406408 0.951372
O O9 0.154123 0.780205 0.466691
O O10 0.000000 0.750000 0.661108
O O11 0.000000 0.609575 0.750000
O O12 0.500000 0.750000 0.893808
#
# Coordination Sequence:
#
# PCOD8281937 Si02
#       5
#    16  16  16  16  16
#     4  10  19  36  56  89 121 158 197 251 299 365
#     4  11  21  39  60  90 125 156 197 256 309 364
#     4  10  19  34  59  89 126 154 195 249 320 361
#     4  11  24  41  62  84 116 167 216 249 293 357
#     4  11  21  32  58  93 125 156 188 244 318 372
#
# _framework density 21.055530000000001
#
# number of rings (size 3 to 8) (size 9 to 14) (size 15 to 20)
#    0.000    1.400    4.000    6.600    2.800    1.600 
#    3.600    0.000    0.000    0.000    0.000    2.800 
#    0.000    0.000    0.000    0.000    0.000    0.000 
#
# Total GULP energy -495782.454705 kJ/mol
# GULP energy per Si atom -12394.561368 kJ/mol
# Density = 2.100761 g / cm^3
# Si number density = 21.055530 Si / 1000 Ang^3
#
#
#
# Elastic Constant Matrix: (Units=GPa)
#
#
# Indices 1 2 3 4 5 6 
#
# 1 153.0146 44.6686 39.4978 0.0000 0.0000 0.0000
# 2 44.6686 94.9750 5.8568 0.0000 0.0000 0.0000
# 3 39.4978 5.8568 48.4349 0.0000 0.0000 0.0000
# 4 0.0000 0.0000 0.0000 5.8553 0.0000 0.0000
# 5 0.0000 0.0000 0.0000 0.0000 7.0604 0.0000
# 6 0.0000 0.0000 0.0000 0.0000 0.0000 43.4264
#
#
#
# Elastic Compliance Matrix: (Units=1/GPa)
#
#
# Indices 1 2 3 4 5 6 
#
# 1 0.009623 -0.004072 -0.007355 0.000000 0.000000 0.000000
# 2 -0.004072 0.012331 0.001830 0.000000 0.000000 0.000000
# 3 -0.007355 0.001830 0.026423 0.000000 0.000000 0.000000
# 4 0.000000 0.000000 0.000000 0.170786 0.000000 0.000000
# 5 0.000000 0.000000 0.000000 0.000000 0.141635 0.000000
# 6 0.000000 0.000000 0.000000 0.000000 0.000000 0.023027
#
#
# Mechanical properties :
#
#
# Convention : Reuss Voigt Hill
#
# Bulk Modulus (GPa) = 34.26733 52.94122 43.60428
# Shear Modulus (GPa) = 12.11398 25.02851 18.57125
#
# Velocity S-wave (km/s) = 2.40122 3.45148 2.97309
# Velocity P-wave (km/s) = 4.89876 6.40951 5.70437
#
# Compressibility (1/GPa) = 0.02918232
#
# Stress axis : x y z
#
# Youngs Moduli (GPa) = 103.92297 81.09338 37.84649
#
# Poissons Ratio (x) = 0.33022 0.27834
# Poissons Ratio (y) = 0.42319 -0.06924
# Poissons Ratio (z) = 0.76431 -0.14837
#
# Static dielectric constant tensor:
#      x y z
#    x 4.356000 0.000000 0.000000 
#    y 0.000000 3.734060 0.000000 
#    z 0.000000 0.000000 3.237870 
# 
# 
# High freq. dielectric constant tensor:
#      x y z
#    x 1.850640 0.000000 0.000000 
#    y 0.000000 1.844490 0.000000 
#    z 0.000000 0.000000 1.745330 
# 
# From -- ./inp_files/38401.got.cif
#   From: 2010.03.12/outbox.cif.g09.slc.cpg/sg68_20_cif.got.tgz:38401.got - 2010.04.10 23:14:56.
