data_PCOD8281784
_publ_section_title
;
Structure prediction by ZEFSAII (Michael W. Deem and Ramdas Pophale) SiO2 
 PCOD8281784
Probable space group: C C C A
;
_chemical_formula_sum "Si O2"
_cell_formula_units_Z 80
_cell_length_a 8.289106
_cell_length_b 16.737058
_cell_length_c 28.553873
_cell_angle_alpha 90.000000
_cell_angle_beta 90.000000
_cell_angle_gamma 90.000000
_cell_volume 3961.428649
_symmetry_space_group_name_H-M "C C C A"
_symmetry_group_IT_number 68
_space_group.IT_coordinate_system_code '2'
_symmetry_cell_setting 'orthorhombic'
loop_
_space_group_symop_operation_xyz
x,y,z
-x,1/2-y,z
x,1/2-y,1/2-z
-x,y,1/2-z
-x,-y,-z
x,1/2+y,-z
-x,1/2+y,1/2+z
x,-y,1/2+z
1/2+x,1/2+y,z
1/2-x,-y,z
1/2+x,-y,1/2-z
1/2-x,1/2+y,1/2-z
1/2-x,1/2-y,-z
1/2+x,y,-z
1/2-x,y,1/2+z
1/2+x,1/2-y,1/2+z
loop_
_atom_site_type_symbol
_atom_site_label
_atom_site_fract_x
_atom_site_fract_y
_atom_site_fract_z
Si Si1 0.750000 0.000000 0.236399
Si Si2 0.500000 0.250000 0.362570
Si Si3 0.250000 0.500000 0.582431
Si Si4 0.500000 0.750000 0.477131
Si Si5 0.994928 0.536348 0.842840
Si Si6 0.194115 0.332920 0.556285
Si Si7 0.689500 0.609142 0.678855
O O1 0.603434 0.967274 0.205561
O O2 0.810493 0.924918 0.267896
O O3 0.386380 0.196427 0.395429
O O4 0.388814 0.303634 0.327937
O O5 0.122558 0.549470 0.613845
O O6 0.177912 0.428949 0.551641
O O7 0.622353 0.699585 0.444754
O O8 0.600641 0.808690 0.509853
O O9 0.125240 0.608313 0.839823
O O10 0.084672 0.452310 0.851929
#
# Coordination Sequence:
#
# PCOD8281784 Si02
#       7
#     8   8   8   8  16  16  16
#     4   9  18  36  62  83 118 158 210 241 296 344
#     4  11  22  36  57  93 120 152 194 243 302 347
#     4  11  20  36  62  93 114 146 204 245 276 350
#     4   9  22  44  62  81 120 160 176 237 318 354
#     4   9  19  35  59  87 114 161 197 241 290 343
#     4  10  22  40  61  86 118 152 194 238 296 366
#     4  10  18  34  55  87 114 160 194 243 284 345
#
# _framework density 20.194735999999999
#
# number of rings (size 3 to 8) (size 9 to 14) (size 15 to 20)
#    0.000    2.400    2.000    2.400    2.800    0.800 
#    0.000    2.000    0.000    0.000   20.800    0.000 
#    0.000    0.000    0.000    0.000    0.000    0.000 
#
# Total GULP energy -495722.656471 kJ/mol
# GULP energy per Si atom -12393.066412 kJ/mol
# Density = 2.014877 g / cm^3
# Si number density = 20.194736 Si / 1000 Ang^3
#
#
#
# Elastic Constant Matrix: (Units=GPa)
#
#
# Indices 1 2 3 4 5 6 
#
# 1 126.3219 53.4827 32.6423 0.0000 0.0000 0.0000
# 2 53.4827 141.2035 43.2013 0.0000 0.0000 0.0000
# 3 32.6423 43.2013 64.0156 0.0000 0.0000 0.0000
# 4 0.0000 0.0000 0.0000 8.8321 0.0000 0.0000
# 5 0.0000 0.0000 0.0000 0.0000 15.8395 0.0000
# 6 0.0000 0.0000 0.0000 0.0000 0.0000 36.4595
#
#
#
# Elastic Compliance Matrix: (Units=1/GPa)
#
#
# Indices 1 2 3 4 5 6 
#
# 1 0.009916 -0.002784 -0.003178 0.000000 0.000000 0.000000
# 2 -0.002784 0.009706 -0.005131 0.000000 0.000000 0.000000
# 3 -0.003178 -0.005131 0.020704 0.000000 0.000000 0.000000
# 4 0.000000 0.000000 0.000000 0.113223 0.000000 0.000000
# 5 0.000000 0.000000 0.000000 0.000000 0.063133 0.000000
# 6 0.000000 0.000000 0.000000 0.000000 0.000000 0.027428
#
#
# Mechanical properties :
#
#
# Convention : Reuss Voigt Hill
#
# Bulk Modulus (GPa) = 55.12114 65.57708 60.34911
# Shear Modulus (GPa) = 18.35930 25.70721 22.03326
#
# Velocity S-wave (km/s) = 3.01842 3.57174 3.30667
# Velocity P-wave (km/s) = 6.28505 7.03936 6.67287
#
# Compressibility (1/GPa) = 0.01814186
#
# Stress axis : x y z
#
# Youngs Moduli (GPa) = 100.84769 103.02836 48.29952
#
# Poissons Ratio (x) = 0.28679 0.15348
# Poissons Ratio (y) = 0.28072 0.24782
# Poissons Ratio (z) = 0.32047 0.52862
#
# Static dielectric constant tensor:
#      x y z
#    x 4.112160 0.000000 0.000000 
#    y 0.000000 3.404450 0.000000 
#    z 0.000000 0.000000 3.424280 
# 
# 
# High freq. dielectric constant tensor:
#      x y z
#    x 1.811290 0.000000 0.000000 
#    y 0.000000 1.765080 0.000000 
#    z 0.000000 0.000000 1.771990 
# 
# From -- ./inp_files/49217.got.cif
#   From: 2010.03.12/outbox.cif.g09.slc.cpg/sg68_25_cif.got.tgz:49217.got - 2010.04.10 23:14:56.
