data_PCOD8281269
_publ_section_title
;
Structure prediction by ZEFSAII (Michael W. Deem and Ramdas Pophale) SiO2 
 PCOD8281269
Probable space group: C M M A
;
_chemical_formula_sum "Si O2"
_cell_formula_units_Z 56
_cell_length_a 9.857139
_cell_length_b 16.149789
_cell_length_c 17.072888
_cell_angle_alpha 90.000000
_cell_angle_beta 90.000000
_cell_angle_gamma 90.000000
_cell_volume 2717.845248
_symmetry_space_group_name_H-M "C M M A"
_symmetry_group_IT_number 67
_symmetry_cell_setting 'orthorhombic'
loop_
_space_group_symop_operation_xyz
x,y,z
-x,1/2-y,z
x,-y,-z
-x,1/2+y,-z
-x,-y,-z
x,1/2+y,-z
-x,y,z
x,1/2-y,z
1/2+x,1/2+y,z
1/2-x,-y,z
1/2+x,1/2-y,-z
1/2-x,y,-z
1/2-x,1/2-y,-z
1/2+x,y,-z
1/2-x,1/2+y,z
1/2+x,-y,z
loop_
_atom_site_type_symbol
_atom_site_label
_atom_site_fract_x
_atom_site_fract_y
_atom_site_fract_z
Si Si1 0.340174 0.250000 0.076677
Si Si2 0.500000 0.654637 0.551749
Si Si3 0.346353 0.422639 0.159373
Si Si4 0.225010 0.590597 0.336295
Si Si5 0.000000 0.155151 0.380232
O O1 0.500000 0.250000 0.056619
O O2 0.300874 0.334212 0.123297
O O3 0.250000 0.250000 0.000000
O O4 0.500000 0.750000 0.534545
O O5 0.365913 0.635568 0.600192
O O6 0.500000 0.609723 0.466085
O O7 0.500000 0.444513 0.133071
O O8 0.250000 0.500000 0.133206
O O9 0.346652 0.411216 0.252468
O O10 0.250000 0.500000 0.369596
O O11 0.370188 0.633727 0.327955
O O12 0.000000 0.250000 0.397959
#
# Coordination Sequence:
#
# PCOD8281269 Si02
#       5
#     8   8  16  16   8
#     4  10  24  46  70 102 133 171 210 246 315 383
#     4  11  23  39  61  83 119 168 211 262 322 372
#     4  10  23  42  67  98 131 169 214 260 312 376
#     4  11  23  39  60  88 121 162 213 259 316 370
#     4  11  25  39  55  89 123 160 213 270 316 370
#
# _framework density 20.604558999999998
#
# number of rings (size 3 to 8) (size 9 to 14) (size 15 to 20)
#    0.000    1.429    1.429    2.571   10.000    7.429 
#    0.000    2.857    0.000    0.000    0.000    0.000 
#    0.000    0.000    0.000    0.000    0.000    0.000 
#
# Total GULP energy -347111.036672 kJ/mol
# GULP energy per Si atom -12396.822738 kJ/mol
# Density = 2.055766 g / cm^3
# Si number density = 20.604559 Si / 1000 Ang^3
#
#
#
# Elastic Constant Matrix: (Units=GPa)
#
#
# Indices 1 2 3 4 5 6 
#
# 1 118.2364 49.3359 16.1296 0.0000 0.0000 0.0000
# 2 49.3359 139.8020 36.0261 0.0000 0.0000 0.0000
# 3 16.1296 36.0261 45.7928 0.0000 0.0000 0.0000
# 4 0.0000 0.0000 0.0000 20.6895 0.0000 0.0000
# 5 0.0000 0.0000 0.0000 0.0000 40.8742 0.0000
# 6 0.0000 0.0000 0.0000 0.0000 0.0000 43.0455
#
#
#
# Elastic Compliance Matrix: (Units=1/GPa)
#
#
# Indices 1 2 3 4 5 6 
#
# 1 0.009950 -0.003271 -0.000931 0.000000 0.000000 0.000000
# 2 -0.003271 0.010047 -0.006752 0.000000 0.000000 0.000000
# 3 -0.000931 -0.006752 0.027477 0.000000 0.000000 0.000000
# 4 0.000000 0.000000 0.000000 0.048334 0.000000 0.000000
# 5 0.000000 0.000000 0.000000 0.000000 0.024465 0.000000
# 6 0.000000 0.000000 0.000000 0.000000 0.000000 0.023231
#
#
# Mechanical properties :
#
#
# Convention : Reuss Voigt Hill
#
# Bulk Modulus (GPa) = 39.11516 56.31272 47.71394
# Shear Modulus (GPa) = 28.74628 34.41115 31.57871
#
# Velocity S-wave (km/s) = 3.73921 4.09109 3.91910
# Velocity P-wave (km/s) = 6.13736 7.05022 6.60957
#
# Compressibility (1/GPa) = 0.02556553
#
# Stress axis : x y z
#
# Youngs Moduli (GPa) = 100.50623 99.52808 36.39342
#
# Poissons Ratio (x) = 0.32559 0.03388
# Poissons Ratio (y) = 0.32879 0.24574
# Poissons Ratio (z) = 0.09357 0.67204
#
# Static dielectric constant tensor:
#      x y z
#    x 3.763690 0.000000 0.000000 
#    y 0.000000 3.981180 0.000000 
#    z 0.000000 0.000000 3.502280 
# 
# 
# High freq. dielectric constant tensor:
#      x y z
#    x 1.817260 0.000000 0.000000 
#    y 0.000000 1.818130 0.000000 
#    z 0.000000 0.000000 1.792430 
# 
# From -- ./inp_files/26622.got.cif
#   From: 2010.03.12/outbox.cif.g09.slc.cpg/sg67_14_cif.got.tgz:26622.got - 2010.04.10 22:41:39.
