data_PCOD8281621
_publ_section_title
;
Structure prediction by ZEFSAII (Michael W. Deem and Ramdas Pophale) SiO2 
 PCOD8281621
Probable space group: C C C A
;
_chemical_formula_sum "Si O2"
_cell_formula_units_Z 108
_cell_length_a 15.032888
_cell_length_b 18.383646
_cell_length_c 20.599107
_cell_angle_alpha 90.000000
_cell_angle_beta 90.000000
_cell_angle_gamma 90.000000
_cell_volume 5692.754613
_symmetry_space_group_name_H-M "C C C A"
_symmetry_group_IT_number 68
_space_group.IT_coordinate_system_code '2'
_symmetry_cell_setting 'orthorhombic'
loop_
_space_group_symop_operation_xyz
x,y,z
-x,1/2-y,z
x,1/2-y,1/2-z
-x,y,1/2-z
-x,-y,-z
x,1/2+y,-z
-x,1/2+y,1/2+z
x,-y,1/2+z
1/2+x,1/2+y,z
1/2-x,-y,z
1/2+x,-y,1/2-z
1/2-x,1/2+y,1/2-z
1/2-x,1/2-y,-z
1/2+x,y,-z
1/2-x,y,1/2+z
1/2+x,1/2-y,1/2+z
loop_
_atom_site_type_symbol
_atom_site_label
_atom_site_fract_x
_atom_site_fract_y
_atom_site_fract_z
Si Si1 0.723129 0.750000 0.250000
Si Si2 0.860269 0.332802 0.916923
Si Si3 0.631834 0.688335 0.657553
Si Si4 0.534135 0.078457 0.423838
Si Si5 0.410948 0.711414 0.450176
Si Si6 0.500000 0.750000 0.750000
Si Si7 0.017750 0.082220 0.423196
Si Si8 0.171356 0.335750 0.134002
O O1 0.776817 0.799884 0.302412
O O2 0.665637 0.808287 0.208761
O O3 0.883576 0.253527 0.891716
O O4 0.941488 0.386178 0.900582
O O5 0.770312 0.363594 0.884344
O O6 0.849443 0.323690 0.994202
O O7 0.618131 0.613989 0.615420
O O8 0.555577 0.691463 0.710513
O O9 0.547770 0.087156 0.501180
O O10 0.527437 0.993844 0.405311
O O11 0.500000 0.750000 0.479255
O O12 0.445342 0.644356 0.405899
O O13 0.351036 0.766267 0.410190
O O14 0.104378 0.097453 0.378490
#
# Coordination Sequence:
#
# PCOD8281621 Si02
#       8
#     8  16  16  16  16   4  16  16
#     4   9  22  33  53  76 101 136 182 223 255 306
#     4  10  17  28  53  83 103 132 164 219 269 308
#     4  10  17  30  51  78 106 134 171 214 255 304
#     4  10  18  33  55  82 111 133 170 216 266 321
#     4   9  17  31  52  75 101 130 178 216 256 310
#     4  10  16  24  48  76 102 132 172 196 256 288
#     4   9  20  34  54  81 107 140 171 212 267 322
#     4  10  19  34  52  74 106 135 174 220 261 302
#
# _framework density 18.971484
#
# number of rings (size 3 to 8) (size 9 to 14) (size 15 to 20)
#    0.000    2.370    1.481    3.111    0.000    1.778 
#    0.000    3.333    3.259    8.889    0.000    0.000 
#    0.000    0.000    0.000    0.000    0.000    0.000 
#
# Total GULP energy -669115.224466 kJ/mol
# GULP energy per Si atom -12391.022675 kJ/mol
# Density = 1.892830 g / cm^3
# Si number density = 18.971484 Si / 1000 Ang^3
#
#
#
# Elastic Constant Matrix: (Units=GPa)
#
#
# Indices 1 2 3 4 5 6 
#
# 1 51.5379 16.2474 20.6888 0.0000 0.0000 0.0000
# 2 16.2474 95.8294 11.2957 0.0000 0.0000 0.0000
# 3 20.6888 11.2957 62.6797 0.0000 0.0000 0.0000
# 4 0.0000 0.0000 0.0000 18.9092 0.0000 0.0000
# 5 0.0000 0.0000 0.0000 0.0000 28.6694 0.0000
# 6 0.0000 0.0000 0.0000 0.0000 0.0000 18.1051
#
#
#
# Elastic Compliance Matrix: (Units=1/GPa)
#
#
# Indices 1 2 3 4 5 6 
#
# 1 0.023235 -0.003101 -0.007110 0.000000 0.000000 0.000000
# 2 -0.003101 0.011076 -0.000972 0.000000 0.000000 0.000000
# 3 -0.007110 -0.000972 0.018476 0.000000 0.000000 0.000000
# 4 0.000000 0.000000 0.000000 0.052884 0.000000 0.000000
# 5 0.000000 0.000000 0.000000 0.000000 0.034880 0.000000
# 6 0.000000 0.000000 0.000000 0.000000 0.000000 0.055233
#
#
# Mechanical properties :
#
#
# Convention : Reuss Voigt Hill
#
# Bulk Modulus (GPa) = 32.87407 34.05675 33.46541
# Shear Modulus (GPa) = 21.90172 23.92441 22.91306
#
# Velocity S-wave (km/s) = 3.40141 3.55501 3.47906
# Velocity P-wave (km/s) = 5.72642 5.90265 5.81521
#
# Compressibility (1/GPa) = 0.03041912
#
# Stress axis : x y z
#
# Youngs Moduli (GPa) = 43.03821 90.28830 54.12346
#
# Poissons Ratio (x) = 0.28001 0.38484
# Poissons Ratio (y) = 0.13347 0.05263
# Poissons Ratio (z) = 0.30602 0.08779
#
# Static dielectric constant tensor:
#      x y z
#    x 3.417600 0.000000 0.000000 
#    y 0.000000 3.358430 0.000000 
#    z 0.000000 0.000000 3.515110 
# 
# 
# High freq. dielectric constant tensor:
#      x y z
#    x 1.724530 0.000000 0.000000 
#    y 0.000000 1.715560 0.000000 
#    z 0.000000 0.000000 1.727320 
# 
# From -- ./inp_files/39767.got.cif
#   From: 2010.03.12/outbox.cif.g09.slc.cpg/sg68_20_cif.got.tgz:39767.got - 2010.04.10 23:14:56.
