data_PCOD8281196
_publ_section_title
;
Structure prediction by ZEFSAII (Michael W. Deem and Ramdas Pophale) SiO2 
 PCOD8281196
Probable space group: C M M A
;
_chemical_formula_sum "Si O2"
_cell_formula_units_Z 52
_cell_length_a 9.368496
_cell_length_b 13.574549
_cell_length_c 16.996752
_cell_angle_alpha 90.000000
_cell_angle_beta 90.000000
_cell_angle_gamma 90.000000
_cell_volume 2161.529778
_symmetry_space_group_name_H-M "C M M A"
_symmetry_group_IT_number 67
_symmetry_cell_setting 'orthorhombic'
loop_
_space_group_symop_operation_xyz
x,y,z
-x,1/2-y,z
x,-y,-z
-x,1/2+y,-z
-x,-y,-z
x,1/2+y,-z
-x,y,z
x,1/2-y,z
1/2+x,1/2+y,z
1/2-x,-y,z
1/2+x,1/2-y,-z
1/2-x,y,-z
1/2-x,1/2-y,-z
1/2+x,y,-z
1/2-x,1/2+y,z
1/2+x,-y,z
loop_
_atom_site_type_symbol
_atom_site_label
_atom_site_fract_x
_atom_site_fract_y
_atom_site_fract_z
Si Si1 0.250000 0.000000 0.000000
Si Si2 0.157830 0.361611 0.868850
Si Si3 0.839411 0.367152 0.277178
Si Si4 0.161517 0.632653 0.425103
O O1 0.345959 0.070238 0.054218
O O2 0.198880 0.250000 0.893489
O O3 0.270117 0.402537 0.804853
O O4 0.000000 0.363073 0.830761
O O5 0.841533 0.250000 0.280942
O O6 0.743350 0.408417 0.348348
O O7 0.000000 0.409448 0.282903
O O8 0.157447 0.750000 0.424643
O O9 0.250000 0.593717 0.500000
O O10 0.000000 0.590993 0.427514
#
# Coordination Sequence:
#
# PCOD8281196 Si02
#       4
#     4  16  16  16
#     4  12  24  40  64  92 116 148 194 246 298 358
#     4  10  22  40  61  86 118 155 195 242 297 356
#     4   9  17  30  49  74 107 148 192 238 290 346
#     4   9  15  23  39  67 105 147 191 238 286 338
#
# _framework density 24.057034999999999
#
# number of rings (size 3 to 8) (size 9 to 14) (size 15 to 20)
#    0.000    2.462    0.000    2.769    0.000    9.846 
#    0.000    3.077    0.000    0.000    0.000    1.077 
#    0.000    7.385    0.000    0.923    0.000    0.308 
#
# Total GULP energy -322402.121578 kJ/mol
# GULP energy per Si atom -12400.081599 kJ/mol
# Density = 2.400228 g / cm^3
# Si number density = 24.057035 Si / 1000 Ang^3
#
#
#
# Elastic Constant Matrix: (Units=GPa)
#
#
# Indices 1 2 3 4 5 6 
#
# 1 224.2901 33.1779 101.6620 0.0000 0.0000 0.0000
# 2 33.1779 63.6354 34.9852 0.0000 0.0000 0.0000
# 3 101.6620 34.9852 193.6677 0.0000 0.0000 0.0000
# 4 0.0000 0.0000 0.0000 -46.0940 0.0000 0.0000
# 5 0.0000 0.0000 0.0000 0.0000 43.8195 0.0000
# 6 0.0000 0.0000 0.0000 0.0000 0.0000 6.5733
#
#
#
# Elastic Compliance Matrix: (Units=1/GPa)
#
#
# Indices 1 2 3 4 5 6 
#
# 1 0.005985 -0.001547 -0.002862 0.000000 0.000000 0.000000
# 2 -0.001547 0.017847 -0.002412 0.000000 0.000000 0.000000
# 3 -0.002862 -0.002412 0.007102 0.000000 0.000000 0.000000
# 4 0.000000 0.000000 0.000000 -0.021695 0.000000 0.000000
# 5 0.000000 0.000000 0.000000 0.000000 0.022821 0.000000
# 6 0.000000 0.000000 0.000000 0.000000 0.000000 0.152131
#
#
# Mechanical properties :
#
#
# Convention : Reuss Voigt Hill
#
# Bulk Modulus (GPa) = 57.83191 91.24926 74.54059
# Shear Modulus (GPa) = 24.55843 21.64429 23.10136
#
# Velocity S-wave (km/s) = 3.19853 3.00277 3.10219
# Velocity P-wave (km/s) = 6.14268 7.07353 6.62447
#
# Compressibility (1/GPa) = 0.01729149
#
# Stress axis : x y z
#
# Youngs Moduli (GPa) = 167.09619 56.03176 140.81322
#
# Poissons Ratio (x) = 0.08666 0.40302
# Poissons Ratio (y) = 0.25845 0.33965
# Poissons Ratio (z) = 0.47824 0.13515
#
# Static dielectric constant tensor:
#      x y z
#    x 4.391410 0.000000 0.000000 
#    y 0.000000 4.019850 0.000000 
#    z 0.000000 0.000000 4.219880 
# 
# 
# High freq. dielectric constant tensor:
#      x y z
#    x 1.955280 0.000000 0.000000 
#    y 0.000000 1.957000 0.000000 
#    z 0.000000 0.000000 1.946200 
# 
# From -- ./inp_files/31551.got.cif
#   From: 2010.03.12/outbox.cif.g09.slc.cpg/sg67_16_cif.got.tgz:31551.got - 2010.04.10 22:41:39.
