data_PCOD8281164
_publ_section_title
;
Structure prediction by ZEFSAII (Michael W. Deem and Ramdas Pophale) SiO2 
 PCOD8281164
Probable space group: C M M A
;
_chemical_formula_sum "Si O2"
_cell_formula_units_Z 112
_cell_length_a 14.101591
_cell_length_b 13.993743
_cell_length_c 25.645668
_cell_angle_alpha 90.000000
_cell_angle_beta 90.000000
_cell_angle_gamma 90.000000
_cell_volume 5060.763284
_symmetry_space_group_name_H-M "C M M A"
_symmetry_group_IT_number 67
_symmetry_cell_setting 'orthorhombic'
loop_
_space_group_symop_operation_xyz
x,y,z
-x,1/2-y,z
x,-y,-z
-x,1/2+y,-z
-x,-y,-z
x,1/2+y,-z
-x,y,z
x,1/2-y,z
1/2+x,1/2+y,z
1/2-x,-y,z
1/2+x,1/2-y,-z
1/2-x,y,-z
1/2-x,1/2-y,-z
1/2+x,y,-z
1/2-x,1/2+y,z
1/2+x,-y,z
loop_
_atom_site_type_symbol
_atom_site_label
_atom_site_fract_x
_atom_site_fract_y
_atom_site_fract_z
Si Si1 0.606333 0.460156 0.770376
Si Si2 0.387929 0.014248 0.888699
Si Si3 0.887690 0.957579 0.578400
Si Si4 0.113037 0.644422 0.475826
Si Si5 0.302665 0.640949 0.324216
Si Si6 0.247039 0.359817 0.938788
Si Si7 0.102363 0.143858 0.706845
O O1 0.500000 0.418425 0.766012
O O2 0.641907 0.462640 0.829365
O O3 0.673150 0.394456 0.734241
O O4 0.609360 0.570384 0.753735
O O5 0.500000 0.000828 0.895728
O O6 0.350879 0.106799 0.919668
O O7 0.335603 0.920197 0.910563
O O8 0.850972 0.884063 0.533961
O O9 0.853694 0.928071 0.635316
O O10 0.000000 0.957589 0.578442
O O11 0.849615 0.064678 0.565124
O O12 0.152889 0.750000 0.461488
O O13 0.000000 0.645164 0.475767
O O14 0.336855 0.750000 0.331593
O O15 0.189435 0.630399 0.333185
O O16 0.229551 0.250000 0.924528
O O17 0.250000 0.378057 0.000000
O O18 0.108749 0.250000 0.731494
O O19 0.000000 0.131029 0.677126
#
# Coordination Sequence:
#
# PCOD8281164 Si02
#       7
#    16  16  16  16  16  16  16
#     4  10  22  39  59  88 125 162 202 248 301 371
#     4  10  22  40  64  93 129 175 220 267 327 393
#     4   9  17  29  48  82 127 168 207 255 312 377
#     4   8  14  27  49  77 116 167 214 257 311 374
#     4  11  22  34  56  88 124 166 205 250 309 371
#     4  10  23  41  63  95 131 169 221 281 333 385
#     4   9  20  39  60  83 114 155 205 255 299 352
#
# _framework density 22.131048
#
# number of rings (size 3 to 8) (size 9 to 14) (size 15 to 20)
#    0.000    2.429    0.000    3.000    4.000    4.571 
#    0.000    5.000    0.000    4.286    0.000   10.000 
#    0.000   37.714    0.000   40.000    0.000    0.571 
#
# Total GULP energy -694155.020763 kJ/mol
# GULP energy per Si atom -12395.625371 kJ/mol
# Density = 2.208068 g / cm^3
# Si number density = 22.131048 Si / 1000 Ang^3
#
#
#
# Elastic Constant Matrix: (Units=GPa)
#
#
# Indices 1 2 3 4 5 6 
#
# 1 92.7175 51.4222 40.2878 0.0000 0.0000 0.0000
# 2 51.4222 162.1725 82.9284 0.0000 0.0000 0.0000
# 3 40.2878 82.9284 128.1449 0.0000 0.0000 0.0000
# 4 0.0000 0.0000 0.0000 20.2083 0.0000 0.0000
# 5 0.0000 0.0000 0.0000 0.0000 23.3867 0.0000
# 6 0.0000 0.0000 0.0000 0.0000 0.0000 22.6047
#
#
#
# Elastic Compliance Matrix: (Units=1/GPa)
#
#
# Indices 1 2 3 4 5 6 
#
# 1 0.013490 -0.003152 -0.002202 0.000000 0.000000 0.000000
# 2 -0.003152 0.009952 -0.005450 0.000000 0.000000 0.000000
# 3 -0.002202 -0.005450 0.012023 0.000000 0.000000 0.000000
# 4 0.000000 0.000000 0.000000 0.049485 0.000000 0.000000
# 5 0.000000 0.000000 0.000000 0.000000 0.042759 0.000000
# 6 0.000000 0.000000 0.000000 0.000000 0.000000 0.044239
#
#
# Mechanical properties :
#
#
# Convention : Reuss Voigt Hill
#
# Bulk Modulus (GPa) = 72.15527 81.36795 76.76161
# Shear Modulus (GPa) = 25.23042 27.13304 26.18173
#
# Velocity S-wave (km/s) = 3.38012 3.50525 3.44325
# Velocity P-wave (km/s) = 6.92156 7.29579 7.11114
#
# Compressibility (1/GPa) = 0.01385900
#
# Stress axis : x y z
#
# Youngs Moduli (GPa) = 74.12881 100.47799 83.17635
#
# Poissons Ratio (x) = 0.31667 0.18312
# Poissons Ratio (y) = 0.23363 0.45330
# Poissons Ratio (z) = 0.16320 0.54759
#
# Static dielectric constant tensor:
#      x y z
#    x 4.141690 0.000000 0.000000 
#    y 0.000000 4.265660 0.000000 
#    z 0.000000 0.000000 3.845670 
# 
# 
# High freq. dielectric constant tensor:
#      x y z
#    x 1.880210 0.000000 0.000000 
#    y 0.000000 1.879860 0.000000 
#    z 0.000000 0.000000 1.858230 
# 
# From -- ./inp_files/41904.got.cif
#   From: 2010.03.12/outbox.cif.g09.slc.cpg/sg67_21_cif.got.tgz:41904.got - 2010.04.10 22:41:39.
