data_PCOD8281310
_publ_section_title
;
Structure prediction by ZEFSAII (Michael W. Deem and Ramdas Pophale) SiO2 
 PCOD8281310
Probable space group: C M M A
;
_chemical_formula_sum "Si O2"
_cell_formula_units_Z 88
_cell_length_a 15.918027
_cell_length_b 8.914013
_cell_length_c 29.637234
_cell_angle_alpha 90.000000
_cell_angle_beta 90.000000
_cell_angle_gamma 90.000000
_cell_volume 4205.330851
_symmetry_space_group_name_H-M "C M M A"
_symmetry_group_IT_number 67
_symmetry_cell_setting 'orthorhombic'
loop_
_space_group_symop_operation_xyz
x,y,z
-x,1/2-y,z
x,-y,-z
-x,1/2+y,-z
-x,-y,-z
x,1/2+y,-z
-x,y,z
x,1/2-y,z
1/2+x,1/2+y,z
1/2-x,-y,z
1/2+x,1/2-y,-z
1/2-x,y,-z
1/2-x,1/2-y,-z
1/2+x,y,-z
1/2-x,1/2+y,z
1/2+x,-y,z
loop_
_atom_site_type_symbol
_atom_site_label
_atom_site_fract_x
_atom_site_fract_y
_atom_site_fract_z
Si Si1 0.837557 0.573006 0.271371
Si Si2 0.164609 0.427993 0.896581
Si Si3 0.000000 0.072838 0.951484
Si Si4 0.094941 0.578680 0.811612
Si Si5 0.404756 0.574825 0.456886
Si Si6 0.900059 0.920199 0.642013
O O1 0.834869 0.750000 0.265402
O O2 0.750000 0.500000 0.257617
O O3 0.904518 0.500948 0.237191
O O4 0.860547 0.534935 0.322757
O O5 0.173489 0.250000 0.895669
O O6 0.250000 0.500000 0.917185
O O7 0.084282 0.480332 0.925772
O O8 0.154144 0.488909 0.845891
O O9 0.000000 0.250000 0.956576
O O10 0.000000 0.000000 0.000000
O O11 0.126511 0.750000 0.807613
O O12 0.000000 0.572687 0.829706
O O13 0.357236 0.500000 0.500000
O O14 0.500000 0.514462 0.455932
O O15 0.402012 0.750000 0.464555
O O16 0.364970 0.535217 0.407890
O O17 0.872675 0.750000 0.654247
O O18 0.000000 0.931722 0.642509
#
# Coordination Sequence:
#
# PCOD8281310 Si02
#       6
#    16  16   8  16  16  16
#     4  12  25  39  56  79 111 150 192 239 291 350
#     4  11  23  42  66  97 133 172 217 267 320 375
#     4  10  24  44  68  96 134 176 220 272 323 376
#     4  11  23  40  64  92 122 159 200 247 303 364
#     4   8  14  25  44  71 102 135 171 217 272 331
#     4   9  18  34  54  77 108 143 180 226 282 343
#
# _framework density 20.925820999999999
#
# number of rings (size 3 to 8) (size 9 to 14) (size 15 to 20)
#    0.000    1.818    0.909    4.909    0.000    6.182 
#    0.000    3.636    0.000    0.545    0.000    3.818 
#    0.000    0.000    0.000    0.000    0.000    0.000 
#
# Total GULP energy -545549.923240 kJ/mol
# GULP energy per Si atom -12398.861892 kJ/mol
# Density = 2.087819 g / cm^3
# Si number density = 20.925821 Si / 1000 Ang^3
#
#
#
# Elastic Constant Matrix: (Units=GPa)
#
#
# Indices 1 2 3 4 5 6 
#
# 1 92.2610 42.5477 40.9331 0.0000 0.0000 0.0000
# 2 42.5477 114.0121 55.7892 0.0000 0.0000 0.0000
# 3 40.9331 55.7892 136.3029 0.0000 0.0000 0.0000
# 4 0.0000 0.0000 0.0000 42.3285 0.0000 0.0000
# 5 0.0000 0.0000 0.0000 0.0000 12.3622 0.0000
# 6 0.0000 0.0000 0.0000 0.0000 0.0000 29.8302
#
#
#
# Elastic Compliance Matrix: (Units=1/GPa)
#
#
# Indices 1 2 3 4 5 6 
#
# 1 0.013761 -0.003893 -0.002539 0.000000 0.000000 0.000000
# 2 -0.003893 0.012069 -0.003771 0.000000 0.000000 0.000000
# 3 -0.002539 -0.003771 0.009643 0.000000 0.000000 0.000000
# 4 0.000000 0.000000 0.000000 0.023625 0.000000 0.000000
# 5 0.000000 0.000000 0.000000 0.000000 0.080892 0.000000
# 6 0.000000 0.000000 0.000000 0.000000 0.000000 0.033523
#
#
# Mechanical properties :
#
#
# Convention : Reuss Voigt Hill
#
# Bulk Modulus (GPa) = 66.37203 69.01291 67.69247
# Shear Modulus (GPa) = 25.13333 30.45791 27.79562
#
# Velocity S-wave (km/s) = 3.46940 3.81926 3.64853
# Velocity P-wave (km/s) = 6.91633 7.24572 7.08294
#
# Compressibility (1/GPa) = 0.01506659
#
# Stress axis : x y z
#
# Youngs Moduli (GPa) = 72.67142 82.85774 103.70743
#
# Poissons Ratio (x) = 0.32255 0.26332
# Poissons Ratio (y) = 0.28290 0.39106
# Poissons Ratio (z) = 0.18452 0.31244
#
# Static dielectric constant tensor:
#      x y z
#    x 3.672120 0.000000 0.000000 
#    y 0.000000 3.695870 0.000000 
#    z 0.000000 0.000000 3.967690 
# 
# 
# High freq. dielectric constant tensor:
#      x y z
#    x 1.803250 0.000000 0.000000 
#    y 0.000000 1.816690 0.000000 
#    z 0.000000 0.000000 1.827630 
# 
# From -- ./inp_files/45793.got.cif
#   From: 2010.03.12/outbox.cif.g09.slc.cpg/sg67_23_cif.got.tgz:45793.got - 2010.04.10 22:41:39.
