data_PCOD8281052
_publ_section_title
;
Structure prediction by ZEFSAII (Michael W. Deem and Ramdas Pophale) SiO2 
 PCOD8281052
Probable space group: C M M A
;
_chemical_formula_sum "Si O2"
_cell_formula_units_Z 96
_cell_length_a 11.565808
_cell_length_b 16.943422
_cell_length_c 24.254918
_cell_angle_alpha 90.000000
_cell_angle_beta 90.000000
_cell_angle_gamma 90.000000
_cell_volume 4753.099621
_symmetry_space_group_name_H-M "C M M A"
_symmetry_group_IT_number 67
_symmetry_cell_setting 'orthorhombic'
loop_
_space_group_symop_operation_xyz
x,y,z
-x,1/2-y,z
x,-y,-z
-x,1/2+y,-z
-x,-y,-z
x,1/2+y,-z
-x,y,z
x,1/2-y,z
1/2+x,1/2+y,z
1/2-x,-y,z
1/2+x,1/2-y,-z
1/2-x,y,-z
1/2-x,1/2-y,-z
1/2+x,y,-z
1/2-x,1/2+y,z
1/2+x,-y,z
loop_
_atom_site_type_symbol
_atom_site_label
_atom_site_fract_x
_atom_site_fract_y
_atom_site_fract_z
Si Si1 0.129097 0.089625 0.479153
Si Si2 0.870367 0.339769 0.363151
Si Si3 0.635971 0.837680 0.837156
Si Si4 0.500000 0.836075 0.093669
Si Si5 0.229959 0.409385 0.260395
Si Si6 0.765534 0.907733 0.939126
Si Si7 0.000000 0.837815 0.779466
O O1 0.250000 0.131319 0.500000
O O2 0.137107 0.098576 0.413358
O O3 0.000000 0.124650 0.497392
O O4 0.132091 0.000000 0.500000
O O5 0.850152 0.250000 0.384077
O O6 0.772146 0.361613 0.318379
O O7 0.000000 0.347813 0.336377
O O8 0.500000 0.835677 0.839048
O O9 0.689514 0.750000 0.832991
O O10 0.670505 0.883468 0.781641
O O11 0.676567 0.874814 0.894378
O O12 0.500000 0.750000 0.063561
O O13 0.606384 0.889582 0.078366
O O14 0.500000 0.818139 0.157249
O O15 0.250000 0.500000 0.274865
O O16 0.108856 0.392910 0.231847
O O17 0.750000 0.000000 0.941785
O O18 0.750000 0.870075 0.000000
O O19 0.000000 0.750000 0.749582
#
# Coordination Sequence:
#
# PCOD8281052 Si02
#       7
#    16  16  16   8  16  16   8
#     4   9  19  36  61  90 127 168 211 263 320 381
#     4  10  21  39  65  95 127 168 222 274 320 379
#     4  11  25  43  63  90 131 173 208 261 337 405
#     4  11  24  41  69  97 121 163 223 270 312 387
#     4  12  25  38  66  96 127 165 213 274 328 389
#     4  11  26  42  65  94 130 166 213 270 328 387
#     4  11  22  42  67  93 124 166 221 274 322 381
#
# _framework density 20.197347000000001
#
# number of rings (size 3 to 8) (size 9 to 14) (size 15 to 20)
#    0.000    1.333    2.500    2.500    5.833    2.333 
#    0.000    0.833    0.000    1.000    0.000    0.000 
#    0.000    0.000    0.000    0.000    0.000    0.000 
#
# Total GULP energy -594711.894425 kJ/mol
# GULP energy per Si atom -12389.831134 kJ/mol
# Density = 2.015138 g / cm^3
# Si number density = 20.197347 Si / 1000 Ang^3
#
#
#
# Elastic Constant Matrix: (Units=GPa)
#
#
# Indices 1 2 3 4 5 6 
#
# 1 121.6985 24.6068 33.9183 0.0000 0.0000 0.0000
# 2 24.6068 106.9285 46.2796 0.0000 0.0000 0.0000
# 3 33.9183 46.2796 128.9939 0.0000 0.0000 0.0000
# 4 0.0000 0.0000 0.0000 28.8343 0.0000 0.0000
# 5 0.0000 0.0000 0.0000 0.0000 67.6121 0.0000
# 6 0.0000 0.0000 0.0000 0.0000 0.0000 33.9130
#
#
#
# Elastic Compliance Matrix: (Units=1/GPa)
#
#
# Indices 1 2 3 4 5 6 
#
# 1 0.009004 -0.001240 -0.001923 0.000000 0.000000 0.000000
# 2 -0.001240 0.011242 -0.003707 0.000000 0.000000 0.000000
# 3 -0.001923 -0.003707 0.009588 0.000000 0.000000 0.000000
# 4 0.000000 0.000000 0.000000 0.034681 0.000000 0.000000
# 5 0.000000 0.000000 0.000000 0.000000 0.014790 0.000000
# 6 0.000000 0.000000 0.000000 0.000000 0.000000 0.029487
#
#
# Mechanical properties :
#
#
# Convention : Reuss Voigt Hill
#
# Bulk Modulus (GPa) = 62.13523 63.02559 62.58041
# Shear Modulus (GPa) = 39.09429 42.92628 41.01029
#
# Velocity S-wave (km/s) = 4.40434 4.61515 4.51097
# Velocity P-wave (km/s) = 7.52961 7.72477 7.62781
#
# Compressibility (1/GPa) = 0.01609393
#
# Stress axis : x y z
#
# Youngs Moduli (GPa) = 111.06712 88.95292 104.29777
#
# Poissons Ratio (x) = 0.11028 0.20053
# Poissons Ratio (y) = 0.13770 0.38666
# Poissons Ratio (z) = 0.21354 0.32978
#
# Static dielectric constant tensor:
#      x y z
#    x 3.967210 0.000000 0.000000 
#    y 0.000000 3.666500 0.000000 
#    z 0.000000 0.000000 3.883680 
# 
# 
# High freq. dielectric constant tensor:
#      x y z
#    x 1.793630 0.000000 0.000000 
#    y 0.000000 1.784560 0.000000 
#    z 0.000000 0.000000 1.795440 
# 
# From -- ./inp_files/44090.got.cif
#   From: 2010.03.12/outbox.cif.g09.slc.cpg/sg67_23_cif.got.tgz:44090.got - 2010.04.10 22:41:39.
