data_PCOD8281131
_publ_section_title
;
Structure prediction by ZEFSAII (Michael W. Deem and Ramdas Pophale) SiO2 
 PCOD8281131
Probable space group: C M M A
;
_chemical_formula_sum "Si O2"
_cell_formula_units_Z 52
_cell_length_a 18.193779
_cell_length_b 23.621918
_cell_length_c 6.623860
_cell_angle_alpha 90.000000
_cell_angle_beta 90.000000
_cell_angle_gamma 90.000000
_cell_volume 2846.749266
_symmetry_space_group_name_H-M "C M M A"
_symmetry_group_IT_number 67
_symmetry_cell_setting 'orthorhombic'
loop_
_space_group_symop_operation_xyz
x,y,z
-x,1/2-y,z
x,-y,-z
-x,1/2+y,-z
-x,-y,-z
x,1/2+y,-z
-x,y,z
x,1/2-y,z
1/2+x,1/2+y,z
1/2-x,-y,z
1/2+x,1/2-y,-z
1/2-x,y,-z
1/2-x,1/2-y,-z
1/2+x,y,-z
1/2-x,1/2+y,z
1/2+x,-y,z
loop_
_atom_site_type_symbol
_atom_site_label
_atom_site_fract_x
_atom_site_fract_y
_atom_site_fract_z
Si Si1 0.820550 0.554473 0.374910
Si Si2 0.336012 0.750000 0.971066
Si Si3 0.750000 0.000000 0.000000
Si Si4 0.420806 0.750000 0.362035
Si Si5 0.584037 0.339207 0.298559
O O1 0.850156 0.500000 0.500000
O O2 0.750000 0.578598 0.500000
O O3 0.885104 0.599435 0.353328
O O4 0.799774 0.538820 0.145172
O O5 0.365754 0.806896 0.865029
O O6 0.250000 0.750000 0.000000
O O7 0.357926 0.750000 0.201501
O O8 0.500000 0.750000 0.252589
O O9 0.413144 0.805661 0.494644
O O10 0.500000 0.343829 0.217881
#
# Coordination Sequence:
#
# PCOD8281131 Si02
#       5
#    16   8   4   8  16
#     4   9  20  36  57  81 111 147 194 236 284 343
#     4  11  24  34  57  89 112 150 191 234 280 346
#     4   8  18  36  54  80 112 148 180 248 288 324
#     4   9  20  39  56  77 116 153 177 226 291 333
#     4  10  22  38  57  83 118 149 189 241 285 344
#
# _framework density 18.266449999999999
#
# number of rings (size 3 to 8) (size 9 to 14) (size 15 to 20)
#    0.000    2.769    0.000    2.308    6.462    4.308 
#    0.000    0.769    0.000    0.000    0.000    0.000 
#    0.000    0.000    0.000    0.000    0.000    0.000 
#
# Total GULP energy -322252.784311 kJ/mol
# GULP energy per Si atom -12394.337858 kJ/mol
# Density = 1.822487 g / cm^3
# Si number density = 18.266450 Si / 1000 Ang^3
#
#
#
# Elastic Constant Matrix: (Units=GPa)
#
#
# Indices 1 2 3 4 5 6 
#
# 1 161.8491 72.4738 61.6202 0.0000 0.0000 0.0000
# 2 72.4738 126.8055 38.8371 0.0000 0.0000 0.0000
# 3 61.6202 38.8371 112.5471 0.0000 0.0000 0.0000
# 4 0.0000 0.0000 0.0000 -0.7731 0.0000 0.0000
# 5 0.0000 0.0000 0.0000 0.0000 29.7089 0.0000
# 6 0.0000 0.0000 0.0000 0.0000 0.0000 162.9313
#
#
#
# Elastic Compliance Matrix: (Units=1/GPa)
#
#
# Indices 1 2 3 4 5 6 
#
# 1 0.009525 -0.004301 -0.003731 0.000000 0.000000 0.000000
# 2 -0.004301 0.010760 -0.001358 0.000000 0.000000 0.000000
# 3 -0.003731 -0.001358 0.011396 0.000000 0.000000 0.000000
# 4 0.000000 0.000000 0.000000 -1.293536 0.000000 0.000000
# 5 0.000000 0.000000 0.000000 0.000000 0.033660 0.000000
# 6 0.000000 0.000000 0.000000 0.000000 0.000000 0.006138
#
#
# Mechanical properties :
#
#
# Convention : Reuss Voigt Hill
#
# Bulk Modulus (GPa) = 77.51036 83.00710 80.25873
# Shear Modulus (GPa) = -4.17023 53.59146 24.71062
#
# Velocity S-wave (km/s) = -1.51260 5.42240 3.68202
# Velocity P-wave (km/s) = 6.28289 9.20567 7.88096
#
# Compressibility (1/GPa) = 0.01290150
#
# Stress axis : x y z
#
# Youngs Moduli (GPa) = 104.98634 92.93342 87.74659
#
# Poissons Ratio (x) = 0.39973 0.32736
# Poissons Ratio (y) = 0.45157 0.11917
# Poissons Ratio (z) = 0.39168 0.12622
#
# Static dielectric constant tensor:
#      x y z
#    x 3.224770 0.000000 0.000000 
#    y 0.000000 3.553390 0.000000 
#    z 0.000000 0.000000 3.372130 
# 
# 
# High freq. dielectric constant tensor:
#      x y z
#    x 1.704550 0.000000 0.000000 
#    y 0.000000 1.704520 0.000000 
#    z 0.000000 0.000000 1.715940 
# 
# From -- ./inp_files/2001.got.cif
#   From: 2010.03.12/outbox.cif.g09.slc.cpg/sg67_2_cif.got.tgz:2001.got - 2010.04.10 22:41:39.
