data_PCOD8281915
_publ_section_title
;
Structure prediction by ZEFSAII (Michael W. Deem and Ramdas Pophale) SiO2 
 PCOD8281915
Probable space group: C C C A
;
_chemical_formula_sum "Si O2"
_cell_formula_units_Z 96
_cell_length_a 4.942833
_cell_length_b 30.730016
_cell_length_c 33.352775
_cell_angle_alpha 90.000000
_cell_angle_beta 90.000000
_cell_angle_gamma 90.000000
_cell_volume 5066.064299
_symmetry_space_group_name_H-M "C C C A"
_symmetry_group_IT_number 68
_space_group.IT_coordinate_system_code '2'
_symmetry_cell_setting 'orthorhombic'
loop_
_space_group_symop_operation_xyz
x,y,z
-x,1/2-y,z
x,1/2-y,1/2-z
-x,y,1/2-z
-x,-y,-z
x,1/2+y,-z
-x,1/2+y,1/2+z
x,-y,1/2+z
1/2+x,1/2+y,z
1/2-x,-y,z
1/2+x,-y,1/2-z
1/2-x,1/2+y,1/2-z
1/2-x,1/2-y,-z
1/2+x,y,-z
1/2-x,y,1/2+z
1/2+x,1/2-y,1/2+z
loop_
_atom_site_type_symbol
_atom_site_label
_atom_site_fract_x
_atom_site_fract_y
_atom_site_fract_z
Si Si1 0.410665 0.333721 0.204468
Si Si2 0.588185 0.298084 0.663066
Si Si3 0.750000 0.500000 0.374259
Si Si4 0.072411 0.089466 0.853010
Si Si5 0.750000 0.000000 0.931062
Si Si6 0.571841 0.624414 0.105904
Si Si7 0.224419 0.090961 0.525935
O O1 0.500000 0.335273 0.250000
O O2 0.609845 0.301271 0.180550
O O3 0.409423 0.383023 0.187780
O O4 0.109798 0.315334 0.198308
O O5 0.500000 0.250000 0.650522
O O6 0.581150 0.326520 0.622648
O O7 0.836359 0.539846 0.345169
O O8 0.503855 0.511069 0.403366
O O9 0.264512 0.108129 0.888546
O O10 0.765636 0.091945 0.868706
O O11 0.778984 0.041407 0.959433
O O12 0.674417 0.624119 0.060334
O O13 0.419044 0.099764 0.488019
#
# Coordination Sequence:
#
# PCOD8281915 Si02
#       7
#    16  16   8  16   8  16  16
#     4  10  21  35  55  83 115 139 167 216 273 323
#     4  10  21  36  59  83 105 138 176 217 266 324
#     4  12  18  33  56  73 102 142 190 222 248 303
#     4  10  19  34  54  74 102 144 182 213 254 309
#     4  12  22  33  50  77 108 136 176 234 262 311
#     4  10  20  37  52  74 105 140 179 214 261 320
#     4  12  22  34  50  75 110 141 171 220 276 318
#
# _framework density 18.949622999999999
#
# number of rings (size 3 to 8) (size 9 to 14) (size 15 to 20)
#    0.000    1.333    3.333    3.500    0.000    2.000 
#    0.000    0.000    0.000    8.000    0.000    0.000 
#    0.000    0.000    0.000    0.000    0.000    0.000 
#
# Total GULP energy -595111.128161 kJ/mol
# GULP energy per Si atom -12398.148503 kJ/mol
# Density = 1.890649 g / cm^3
# Si number density = 18.949623 Si / 1000 Ang^3
#
#
#
# Elastic Constant Matrix: (Units=GPa)
#
#
# Indices 1 2 3 4 5 6 
#
# 1 71.2282 14.1564 1.6580 0.0000 0.0000 0.0000
# 2 14.1564 114.1700 45.2674 0.0000 0.0000 0.0000
# 3 1.6580 45.2674 70.3423 0.0000 0.0000 0.0000
# 4 0.0000 0.0000 0.0000 18.2249 0.0000 0.0000
# 5 0.0000 0.0000 0.0000 0.0000 23.5617 0.0000
# 6 0.0000 0.0000 0.0000 0.0000 0.0000 27.5601
#
#
#
# Elastic Compliance Matrix: (Units=1/GPa)
#
#
# Indices 1 2 3 4 5 6 
#
# 1 0.014456 -0.002225 0.001091 0.000000 0.000000 0.000000
# 2 -0.002225 0.012102 -0.007735 0.000000 0.000000 0.000000
# 3 0.001091 -0.007735 0.019168 0.000000 0.000000 0.000000
# 4 0.000000 0.000000 0.000000 0.054870 0.000000 0.000000
# 5 0.000000 0.000000 0.000000 0.000000 0.042442 0.000000
# 6 0.000000 0.000000 0.000000 0.000000 0.000000 0.036284
#
#
# Mechanical properties :
#
#
# Convention : Reuss Voigt Hill
#
# Bulk Modulus (GPa) = 35.72990 41.98934 38.85962
# Shear Modulus (GPa) = 24.22591 26.84658 25.53625
#
# Velocity S-wave (km/s) = 3.57940 3.76804 3.67493
# Velocity P-wave (km/s) = 5.99825 6.41384 6.20952
#
# Compressibility (1/GPa) = 0.02798777
#
# Stress axis : x y z
#
# Youngs Moduli (GPa) = 69.17436 82.63230 52.16903
#
# Poissons Ratio (x) = 0.18387 -0.05693
# Poissons Ratio (y) = 0.15392 0.40355
# Poissons Ratio (z) = -0.07548 0.63920
#
# Static dielectric constant tensor:
#      x y z
#    x 3.810010 0.000000 0.000000 
#    y 0.000000 3.430300 0.000000 
#    z 0.000000 0.000000 3.238370 
# 
# 
# High freq. dielectric constant tensor:
#      x y z
#    x 1.765260 0.000000 0.000000 
#    y 0.000000 1.719910 0.000000 
#    z 0.000000 0.000000 1.708370 
# 
# From -- ./inp_files/53468.got.cif
#   From: 2010.03.12/outbox.cif.g09.slc.cpg/sg68_27_cif.got.tgz:53468.got - 2010.04.10 23:14:56.
