data_PCOD8281073
_publ_section_title
;
Structure prediction by ZEFSAII (Michael W. Deem and Ramdas Pophale) SiO2 
 PCOD8281073
Probable space group: C M M A
;
_chemical_formula_sum "Si O2"
_cell_formula_units_Z 72
_cell_length_a 22.570076
_cell_length_b 9.226753
_cell_length_c 17.536771
_cell_angle_alpha 90.000000
_cell_angle_beta 90.000000
_cell_angle_gamma 90.000000
_cell_volume 3652.006544
_symmetry_space_group_name_H-M "C M M A"
_symmetry_group_IT_number 67
_symmetry_cell_setting 'orthorhombic'
loop_
_space_group_symop_operation_xyz
x,y,z
-x,1/2-y,z
x,-y,-z
-x,1/2+y,-z
-x,-y,-z
x,1/2+y,-z
-x,y,z
x,1/2-y,z
1/2+x,1/2+y,z
1/2-x,-y,z
1/2+x,1/2-y,-z
1/2-x,y,-z
1/2-x,1/2-y,-z
1/2+x,y,-z
1/2-x,1/2+y,z
1/2+x,-y,z
loop_
_atom_site_type_symbol
_atom_site_label
_atom_site_fract_x
_atom_site_fract_y
_atom_site_fract_z
Si Si1 0.603522 0.000000 0.500000
Si Si2 0.313368 0.074223 0.924826
Si Si3 0.309254 0.086674 0.369135
Si Si4 0.372835 0.421534 0.213245
Si Si5 0.500000 0.899030 0.406535
Si Si6 0.000000 0.917745 0.263810
O O1 0.644799 0.079155 0.438470
O O2 0.559229 0.109985 0.542110
O O3 0.309262 0.250000 0.931736
O O4 0.250000 0.000000 0.913968
O O5 0.351025 0.027766 0.852404
O O6 0.342542 0.000000 0.000000
O O7 0.288364 0.250000 0.358404
O O8 0.339851 0.033060 0.291049
O O9 0.250000 0.000000 0.387942
O O10 0.364079 0.250000 0.194856
O O11 0.441619 0.465909 0.219012
O O12 0.500000 0.750000 0.358016
O O13 0.500000 0.033034 0.350867
O O14 0.000000 0.750000 0.275306
#
# Coordination Sequence:
#
# PCOD8281073 Si02
#       6
#     8  16  16  16   8   8
#     4  11  23  40  58  84 117 161 202 252 308 361
#     4  11  22  39  65  96 128 161 198 243 292 353
#     4  11  24  40  59  83 118 159 202 250 306 363
#     4  10  21  40  63  89 120 159 201 246 299 361
#     4  11  23  37  62  89 112 148 206 263 304 355
#     4  10  21  41  65  86 119 160 198 243 308 364
#
# _framework density 19.71519
#
# number of rings (size 3 to 8) (size 9 to 14) (size 15 to 20)
#    0.000    1.333    2.222    4.333    0.000    8.000 
#    0.000    0.556    0.000    0.000    0.000    0.000 
#    0.000    0.000    0.000    0.000    0.000    0.000 
#
# Total GULP energy -446161.355335 kJ/mol
# GULP energy per Si atom -12393.370982 kJ/mol
# Density = 1.967032 g / cm^3
# Si number density = 19.715190 Si / 1000 Ang^3
#
#
#
# Elastic Constant Matrix: (Units=GPa)
#
#
# Indices 1 2 3 4 5 6 
#
# 1 127.8514 56.1095 60.6365 0.0000 0.0000 0.0000
# 2 56.1095 94.9338 56.9214 0.0000 0.0000 0.0000
# 3 60.6365 56.9214 142.8519 0.0000 0.0000 0.0000
# 4 0.0000 0.0000 0.0000 15.4637 0.0000 0.0000
# 5 0.0000 0.0000 0.0000 0.0000 16.8291 0.0000
# 6 0.0000 0.0000 0.0000 0.0000 0.0000 40.1566
#
#
#
# Elastic Compliance Matrix: (Units=1/GPa)
#
#
# Indices 1 2 3 4 5 6 
#
# 1 0.011365 -0.005025 -0.002822 0.000000 0.000000 0.000000
# 2 -0.005025 0.016062 -0.004267 0.000000 0.000000 0.000000
# 3 -0.002822 -0.004267 0.009898 0.000000 0.000000 0.000000
# 4 0.000000 0.000000 0.000000 0.064668 0.000000 0.000000
# 5 0.000000 0.000000 0.000000 0.000000 0.059421 0.000000
# 6 0.000000 0.000000 0.000000 0.000000 0.000000 0.024903
#
#
# Mechanical properties :
#
#
# Convention : Reuss Voigt Hill
#
# Bulk Modulus (GPa) = 76.35142 79.21911 77.78527
# Shear Modulus (GPa) = 23.26537 27.28786 25.27662
#
# Velocity S-wave (km/s) = 3.43895 3.72439 3.58451
# Velocity P-wave (km/s) = 7.38781 7.66575 7.52806
#
# Compressibility (1/GPa) = 0.01309733
#
# Stress axis : x y z
#
# Youngs Moduli (GPa) = 87.98646 62.25711 101.02707
#
# Poissons Ratio (x) = 0.31287 0.28508
# Poissons Ratio (y) = 0.44217 0.43110
# Poissons Ratio (z) = 0.24828 0.26566
#
# Static dielectric constant tensor:
#      x y z
#    x 3.039720 0.000000 0.000000 
#    y 0.000000 3.509440 0.000000 
#    z 0.000000 0.000000 3.725860 
# 
# 
# High freq. dielectric constant tensor:
#      x y z
#    x 1.773620 0.000000 0.000000 
#    y 0.000000 1.768890 0.000000 
#    z 0.000000 0.000000 1.769460 
# 
# From -- ./inp_files/35375.got.cif
#   From: 2010.03.12/outbox.cif.g09.slc.cpg/sg67_18_cif.got.tgz:35375.got - 2010.04.10 22:41:39.
