data_PCOD8281411
_publ_section_title
;
Structure prediction by ZEFSAII (Michael W. Deem and Ramdas Pophale) SiO2 
 PCOD8281411
Probable space group: C M M A
;
_chemical_formula_sum "Si O2"
_cell_formula_units_Z 64
_cell_length_a 17.175244
_cell_length_b 10.261442
_cell_length_c 17.952936
_cell_angle_alpha 90.000000
_cell_angle_beta 90.000000
_cell_angle_gamma 90.000000
_cell_volume 3164.075173
_symmetry_space_group_name_H-M "C M M A"
_symmetry_group_IT_number 67
_symmetry_cell_setting 'orthorhombic'
loop_
_space_group_symop_operation_xyz
x,y,z
-x,1/2-y,z
x,-y,-z
-x,1/2+y,-z
-x,-y,-z
x,1/2+y,-z
-x,y,z
x,1/2-y,z
1/2+x,1/2+y,z
1/2-x,-y,z
1/2+x,1/2-y,-z
1/2-x,y,-z
1/2-x,1/2-y,-z
1/2+x,y,-z
1/2-x,1/2+y,z
1/2+x,-y,z
loop_
_atom_site_type_symbol
_atom_site_label
_atom_site_fract_x
_atom_site_fract_y
_atom_site_fract_z
Si Si1 0.910453 0.992772 0.843362
Si Si2 0.149483 0.250000 0.072327
Si Si3 0.172847 0.250000 0.897918
Si Si4 0.832671 0.389075 0.456976
Si Si5 0.685917 0.900327 0.285076
O O1 0.895098 0.880977 0.904285
O O2 0.891431 0.932337 0.761968
O O3 0.000000 0.034008 0.845179
O O4 0.860007 0.120972 0.859223
O O5 0.234004 0.250000 0.111262
O O6 0.151251 0.250000 0.984058
O O7 0.882675 0.500000 0.500000
O O8 0.875688 0.250000 0.462692
O O9 0.750000 0.379901 0.500000
O O10 0.826156 0.430632 0.371652
O O11 0.711836 0.750000 0.273633
O O12 0.750000 0.000000 0.253568
#
# Coordination Sequence:
#
# PCOD8281411 Si02
#       5
#    16   8   8  16  16
#     4  12  26  42  61  94 135 170 209 253 316 389
#     4  11  23  45  73  93 123 162 215 268 312 367
#     4  11  25  45  69  97 123 162 213 272 316 357
#     4   9  16  30  51  85 120 150 200 266 309 360
#     4  11  22  36  61  90 124 166 212 264 315 370
#
# _framework density 20.227079
#
# number of rings (size 3 to 8) (size 9 to 14) (size 15 to 20)
#    0.000    1.250    3.750    3.750    1.750    5.000 
#    0.000    0.000    0.000    0.750    0.000    0.000 
#    0.000    0.000    0.000    0.000    0.000    0.000 
#
# Total GULP energy -396617.820512 kJ/mol
# GULP energy per Si atom -12394.306891 kJ/mol
# Density = 2.018104 g / cm^3
# Si number density = 20.227079 Si / 1000 Ang^3
#
#
#
# Elastic Constant Matrix: (Units=GPa)
#
#
# Indices 1 2 3 4 5 6 
#
# 1 71.5437 25.6793 24.1130 0.0000 0.0000 0.0000
# 2 25.6793 157.0380 32.6350 0.0000 0.0000 0.0000
# 3 24.1130 32.6350 108.3064 0.0000 0.0000 0.0000
# 4 0.0000 0.0000 0.0000 38.3545 0.0000 0.0000
# 5 0.0000 0.0000 0.0000 0.0000 11.3503 0.0000
# 6 0.0000 0.0000 0.0000 0.0000 0.0000 5.5557
#
#
#
# Elastic Compliance Matrix: (Units=1/GPa)
#
#
# Indices 1 2 3 4 5 6 
#
# 1 0.015656 -0.001958 -0.002896 0.000000 0.000000 0.000000
# 2 -0.001958 0.007038 -0.001685 0.000000 0.000000 0.000000
# 3 -0.002896 -0.001685 0.010385 0.000000 0.000000 0.000000
# 4 0.000000 0.000000 0.000000 0.026073 0.000000 0.000000
# 5 0.000000 0.000000 0.000000 0.000000 0.088103 0.000000
# 6 0.000000 0.000000 0.000000 0.000000 0.000000 0.179996
#
#
# Mechanical properties :
#
#
# Convention : Reuss Voigt Hill
#
# Bulk Modulus (GPa) = 49.99381 55.74918 52.87150
# Shear Modulus (GPa) = 14.40937 28.01617 21.21277
#
# Velocity S-wave (km/s) = 2.67194 3.72571 3.24193
# Velocity P-wave (km/s) = 5.85568 6.79186 6.34107
#
# Compressibility (1/GPa) = 0.02000248
#
# Stress axis : x y z
#
# Youngs Moduli (GPa) = 63.87196 142.08078 96.28927
#
# Poissons Ratio (x) = 0.27825 0.27881
# Poissons Ratio (y) = 0.12509 0.16222
# Poissons Ratio (z) = 0.18495 0.23937
#
# Static dielectric constant tensor:
#      x y z
#    x 3.275880 0.000000 0.000000 
#    y 0.000000 4.947000 0.000000 
#    z 0.000000 0.000000 3.792600 
# 
# 
# High freq. dielectric constant tensor:
#      x y z
#    x 1.737500 0.000000 0.000000 
#    y 0.000000 1.822320 0.000000 
#    z 0.000000 0.000000 1.808430 
# 
# From -- ./inp_files/33447.got.cif
#   From: 2010.03.12/outbox.cif.g09.slc.cpg/sg67_17_cif.got.tgz:33447.got - 2010.04.10 22:41:39.
