data_PCOD8281794
_publ_section_title
;
Structure prediction by ZEFSAII (Michael W. Deem and Ramdas Pophale) SiO2 
 PCOD8281794
Probable space group: C C C A
;
_chemical_formula_sum "Si O2"
_cell_formula_units_Z 80
_cell_length_a 18.991268
_cell_length_b 18.184523
_cell_length_c 11.670683
_cell_angle_alpha 90.000000
_cell_angle_beta 90.000000
_cell_angle_gamma 90.000000
_cell_volume 4030.437110
_symmetry_space_group_name_H-M "C C C A"
_symmetry_group_IT_number 68
_space_group.IT_coordinate_system_code '2'
_symmetry_cell_setting 'orthorhombic'
loop_
_space_group_symop_operation_xyz
x,y,z
-x,1/2-y,z
x,1/2-y,1/2-z
-x,y,1/2-z
-x,-y,-z
x,1/2+y,-z
-x,1/2+y,1/2+z
x,-y,1/2+z
1/2+x,1/2+y,z
1/2-x,-y,z
1/2+x,-y,1/2-z
1/2-x,1/2+y,1/2-z
1/2-x,1/2-y,-z
1/2+x,y,-z
1/2-x,y,1/2+z
1/2+x,1/2-y,1/2+z
loop_
_atom_site_type_symbol
_atom_site_label
_atom_site_fract_x
_atom_site_fract_y
_atom_site_fract_z
Si Si1 0.509577 0.585999 0.491683
Si Si2 0.218257 0.319763 0.441603
Si Si3 0.000000 0.644178 0.750000
Si Si4 0.368519 0.841212 0.621044
Si Si5 0.120767 0.250000 0.250000
Si Si6 0.110688 0.833239 0.382056
O O1 0.500000 0.500000 0.500000
O O2 0.483021 0.597444 0.361812
O O3 0.588426 0.609626 0.529523
O O4 0.462786 0.634912 0.576143
O O5 0.250000 0.250000 0.500000
O O6 0.286220 0.363724 0.396006
O O7 0.168341 0.290818 0.341572
O O8 0.173183 0.365422 0.536037
O O9 0.932781 0.689208 0.798907
O O10 0.387188 0.755161 0.604228
O O11 0.382625 0.861729 0.752893
#
# Coordination Sequence:
#
# PCOD8281794 Si02
#       6
#    16  16   8  16   8  16
#     4  12  26  41  60  86 128 172 214 254 309 380
#     4  10  18  34  61  97 126 150 194 260 323 368
#     4  11  24  38  62  92 121 168 204 258 321 378
#     4  10  22  38  67  95 122 160 207 265 319 366
#     4  11  20  36  64  96 127 146 206 264 325 382
#     4  10  20  40  64  92 122 158 208 263 313 369
#
# _framework density 19.848963000000001
#
# number of rings (size 3 to 8) (size 9 to 14) (size 15 to 20)
#    0.000    1.400    2.000    6.000    5.600    1.600 
#    0.000    1.000    0.000    2.400    0.000    0.000 
#    0.000    0.000    0.000    0.000    0.000    0.000 
#
# Total GULP energy -495532.433903 kJ/mol
# GULP energy per Si atom -12388.310848 kJ/mol
# Density = 1.980379 g / cm^3
# Si number density = 19.848963 Si / 1000 Ang^3
#
#
#
# Elastic Constant Matrix: (Units=GPa)
#
#
# Indices 1 2 3 4 5 6 
#
# 1 143.5458 31.4044 51.5757 0.0000 0.0000 0.0000
# 2 31.4044 65.3660 26.1098 0.0000 0.0000 0.0000
# 3 51.5757 26.1098 136.7219 0.0000 0.0000 0.0000
# 4 0.0000 0.0000 0.0000 14.9802 0.0000 0.0000
# 5 0.0000 0.0000 0.0000 0.0000 39.8120 0.0000
# 6 0.0000 0.0000 0.0000 0.0000 0.0000 2.6094
#
#
#
# Elastic Compliance Matrix: (Units=1/GPa)
#
#
# Indices 1 2 3 4 5 6 
#
# 1 0.008591 -0.003067 -0.002655 0.000000 0.000000 0.000000
# 2 -0.003067 0.017657 -0.002215 0.000000 0.000000 0.000000
# 3 -0.002655 -0.002215 0.008739 0.000000 0.000000 0.000000
# 4 0.000000 0.000000 0.000000 0.066755 0.000000 0.000000
# 5 0.000000 0.000000 0.000000 0.000000 0.025118 0.000000
# 6 0.000000 0.000000 0.000000 0.000000 0.000000 0.383232
#
#
# Mechanical properties :
#
#
# Convention : Reuss Voigt Hill
#
# Bulk Modulus (GPa) = 52.32183 62.64594 57.48388
# Shear Modulus (GPa) = 9.39254 27.24991 18.32123
#
# Velocity S-wave (km/s) = 2.17768 3.70924 3.04144
# Velocity P-wave (km/s) = 5.72191 7.06926 6.43097
#
# Compressibility (1/GPa) = 0.01911248
#
# Stress axis : x y z
#
# Youngs Moduli (GPa) = 116.39498 56.63560 114.43301
#
# Poissons Ratio (x) = 0.17370 0.30385
# Poissons Ratio (y) = 0.35699 0.25346
# Poissons Ratio (z) = 0.30906 0.12544
#
# Static dielectric constant tensor:
#      x y z
#    x 5.522370 0.000000 0.000000 
#    y 0.000000 3.154890 0.000000 
#    z 0.000000 0.000000 3.904160 
# 
# 
# High freq. dielectric constant tensor:
#      x y z
#    x 1.794690 0.000000 0.000000 
#    y 0.000000 1.717840 0.000000 
#    z 0.000000 0.000000 1.795400 
# 
# From -- ./inp_files/14356.got.cif
#   From: 2010.03.12/outbox.cif.g09.slc.cpg/sg68_8_cif.got.tgz:14356.got - 2010.04.10 23:14:56.
