data_PCOD8281724
_publ_section_title
;
Structure prediction by ZEFSAII (Michael W. Deem and Ramdas Pophale) SiO2 
 PCOD8281724
Probable space group: C C C A
;
_chemical_formula_sum "Si O2"
_cell_formula_units_Z 84
_cell_length_a 24.335576
_cell_length_b 20.131052
_cell_length_c 10.164574
_cell_angle_alpha 90.000000
_cell_angle_beta 90.000000
_cell_angle_gamma 90.000000
_cell_volume 4979.632384
_symmetry_space_group_name_H-M "C C C A"
_symmetry_group_IT_number 68
_space_group.IT_coordinate_system_code '2'
_symmetry_cell_setting 'orthorhombic'
loop_
_space_group_symop_operation_xyz
x,y,z
-x,1/2-y,z
x,1/2-y,1/2-z
-x,y,1/2-z
-x,-y,-z
x,1/2+y,-z
-x,1/2+y,1/2+z
x,-y,1/2+z
1/2+x,1/2+y,z
1/2-x,-y,z
1/2+x,-y,1/2-z
1/2-x,1/2+y,1/2-z
1/2-x,1/2-y,-z
1/2+x,y,-z
1/2-x,y,1/2+z
1/2+x,1/2-y,1/2+z
loop_
_atom_site_type_symbol
_atom_site_label
_atom_site_fract_x
_atom_site_fract_y
_atom_site_fract_z
Si Si1 0.164047 0.932685 0.124843
Si Si2 0.311794 0.524813 0.602533
Si Si3 0.242561 0.642960 0.991432
Si Si4 0.500000 0.250000 0.250000
Si Si5 0.825315 0.236761 0.106204
Si Si6 0.395014 0.295938 0.365942
O O1 0.159106 0.977792 0.255597
O O2 0.120801 0.873069 0.137828
O O3 0.225912 0.903351 0.114794
O O4 0.152493 0.980336 0.998931
O O5 0.250000 0.500000 0.612867
O O6 0.306974 0.602019 0.558515
O O7 0.289737 0.668551 0.094161
O O8 0.217412 0.704389 0.916090
O O9 0.461187 0.293988 0.346532
O O10 0.850733 0.250000 0.250000
O O11 0.875776 0.236055 0.003794
O O12 0.367456 0.250000 0.250000
#
# Coordination Sequence:
#
# PCOD8281724 Si02
#       6
#    16  16  16   4  16  16
#     4  10  19  30  47  72 103 140 178 203 244 313
#     4  10  18  28  42  67 106 145 169 196 235 300
#     4   9  18  28  43  70 114 148 168 192 242 316
#     4   8  20  40  62  72  88 132 182 228 290 350
#     4  10  18  28  48  79 106 134 172 220 256 295
#     4   9  19  36  56  74  92 130 177 223 281 332
#
# _framework density 16.868715999999999
#
# number of rings (size 3 to 8) (size 9 to 14) (size 15 to 20)
#    0.571    1.905    0.000    4.000    0.000    8.381 
#    0.000    0.476    0.000    1.143    0.000    0.000 
#    0.000    0.000    0.000    0.000    0.000    0.000 
#
# Total GULP energy -520406.569578 kJ/mol
# GULP energy per Si atom -12390.632609 kJ/mol
# Density = 1.683032 g / cm^3
# Si number density = 16.868716 Si / 1000 Ang^3
#
#
#
# Elastic Constant Matrix: (Units=GPa)
#
#
# Indices 1 2 3 4 5 6 
#
# 1 64.7318 24.0616 45.8336 0.0000 0.0000 0.0000
# 2 24.0616 87.4121 55.2288 0.0000 0.0000 0.0000
# 3 45.8336 55.2288 150.2438 0.0000 0.0000 0.0000
# 4 0.0000 0.0000 0.0000 25.4333 0.0000 0.0000
# 5 0.0000 0.0000 0.0000 0.0000 17.5284 0.0000
# 6 0.0000 0.0000 0.0000 0.0000 0.0000 13.8990
#
#
#
# Elastic Compliance Matrix: (Units=1/GPa)
#
#
# Indices 1 2 3 4 5 6 
#
# 1 0.020010 -0.002151 -0.005314 0.000000 0.000000 0.000000
# 2 -0.002151 0.015132 -0.004906 0.000000 0.000000 0.000000
# 3 -0.005314 -0.004906 0.010080 0.000000 0.000000 0.000000
# 4 0.000000 0.000000 0.000000 0.039319 0.000000 0.000000
# 5 0.000000 0.000000 0.000000 0.000000 0.057050 0.000000
# 6 0.000000 0.000000 0.000000 0.000000 0.000000 0.071948
#
#
# Mechanical properties :
#
#
# Convention : Reuss Voigt Hill
#
# Bulk Modulus (GPa) = 48.82586 61.40395 55.11491
# Shear Modulus (GPa) = 20.39919 23.18973 21.79446
#
# Velocity S-wave (km/s) = 3.48126 3.71174 3.59835
# Velocity P-wave (km/s) = 6.72059 7.40604 7.07163
#
# Compressibility (1/GPa) = 0.02048095
#
# Stress axis : x y z
#
# Youngs Moduli (GPa) = 49.97439 66.08506 99.20248
#
# Poissons Ratio (x) = 0.14214 0.52713
# Poissons Ratio (y) = 0.10749 0.48672
# Poissons Ratio (z) = 0.26555 0.32423
#
# Static dielectric constant tensor:
#      x y z
#    x 2.611440 0.000000 0.000000 
#    y 0.000000 3.475500 0.000000 
#    z 0.000000 0.000000 3.262080 
# 
# 
# High freq. dielectric constant tensor:
#      x y z
#    x 1.580370 0.000000 0.000000 
#    y 0.000000 1.661940 0.000000 
#    z 0.000000 0.000000 1.655090 
# 
# From -- ./inp_files/8884.got.cif
#   From: 2010.03.12/outbox.cif.g09.slc.cpg/sg68_5_cif.got.tgz:8884.got - 2010.04.10 23:14:56.
