data_PCOD8281649
_publ_section_title
;
Structure prediction by ZEFSAII (Michael W. Deem and Ramdas Pophale) SiO2 
 PCOD8281649
Probable space group: C C C A
;
_chemical_formula_sum "Si O2"
_cell_formula_units_Z 76
_cell_length_a 17.391321
_cell_length_b 13.885956
_cell_length_c 16.376198
_cell_angle_alpha 90.000000
_cell_angle_beta 90.000000
_cell_angle_gamma 90.000000
_cell_volume 3954.771871
_symmetry_space_group_name_H-M "C C C A"
_symmetry_group_IT_number 68
_space_group.IT_coordinate_system_code '2'
_symmetry_cell_setting 'orthorhombic'
loop_
_space_group_symop_operation_xyz
x,y,z
-x,1/2-y,z
x,1/2-y,1/2-z
-x,y,1/2-z
-x,-y,-z
x,1/2+y,-z
-x,1/2+y,1/2+z
x,-y,1/2+z
1/2+x,1/2+y,z
1/2-x,-y,z
1/2+x,-y,1/2-z
1/2-x,1/2+y,1/2-z
1/2-x,1/2-y,-z
1/2+x,y,-z
1/2-x,y,1/2+z
1/2+x,1/2-y,1/2+z
loop_
_atom_site_type_symbol
_atom_site_label
_atom_site_fract_x
_atom_site_fract_y
_atom_site_fract_z
Si Si1 0.913412 0.537833 0.997118
Si Si2 0.625575 0.322461 0.139362
Si Si3 0.753744 0.750000 0.750000
Si Si4 0.829730 0.157126 0.521744
Si Si5 0.169368 0.686428 0.596050
Si Si6 0.000000 0.250000 0.750000
O O1 0.860306 0.449442 0.974383
O O2 0.902734 0.616288 0.923754
O O3 0.883747 0.584350 0.082041
O O4 0.000000 0.500000 0.000000
O O5 0.702085 0.324282 0.196382
O O6 0.628007 0.223017 0.088930
O O7 0.551016 0.321327 0.195876
O O8 0.808405 0.814249 0.691405
O O9 0.847427 0.203730 0.432725
O O10 0.738792 0.150043 0.537919
#
# Coordination Sequence:
#
# PCOD8281649 Si02
#       6
#    16  16   8  16  16   4
#     4  11  21  34  56  85 113 146 184 220 269 334
#     4   9  19  33  54  79 108 143 180 227 273 323
#     4   9  18  37  56  77 106 141 186 236 282 315
#     4   9  18  36  56  78 105 140 187 227 264 316
#     4   9  19  35  57  79 105 142 184 230 271 316
#     4  10  16  32  52  76 116 142 168 218 280 330
#
# _framework density 19.217289999999998
#
# number of rings (size 3 to 8) (size 9 to 14) (size 15 to 20)
#    0.000    2.526    0.000    3.158    0.000    2.526 
#    0.000   12.632    0.000    1.263    0.000    0.000 
#    0.000    0.000    0.000    0.000    0.000    0.000 
#
# Total GULP energy -471004.305671 kJ/mol
# GULP energy per Si atom -12394.850149 kJ/mol
# Density = 1.917355 g / cm^3
# Si number density = 19.217290 Si / 1000 Ang^3
#
#
#
# Elastic Constant Matrix: (Units=GPa)
#
#
# Indices 1 2 3 4 5 6 
#
# 1 75.9672 22.0133 38.2941 0.0000 0.0000 0.0000
# 2 22.0133 81.1731 39.8013 0.0000 0.0000 0.0000
# 3 38.2941 39.8013 126.3741 0.0000 0.0000 0.0000
# 4 0.0000 0.0000 0.0000 22.6967 0.0000 0.0000
# 5 0.0000 0.0000 0.0000 0.0000 32.7505 0.0000
# 6 0.0000 0.0000 0.0000 0.0000 0.0000 26.2549
#
#
#
# Elastic Compliance Matrix: (Units=1/GPa)
#
#
# Indices 1 2 3 4 5 6 
#
# 1 0.015893 -0.002305 -0.004090 0.000000 0.000000 0.000000
# 2 -0.002305 0.014903 -0.003995 0.000000 0.000000 0.000000
# 3 -0.004090 -0.003995 0.010411 0.000000 0.000000 0.000000
# 4 0.000000 0.000000 0.000000 0.044059 0.000000 0.000000
# 5 0.000000 0.000000 0.000000 0.000000 0.030534 0.000000
# 6 0.000000 0.000000 0.000000 0.000000 0.000000 0.038088
#
#
# Mechanical properties :
#
#
# Convention : Reuss Voigt Hill
#
# Bulk Modulus (GPa) = 48.95482 53.74797 51.35140
# Shear Modulus (GPa) = 27.55157 28.56749 28.05953
#
# Velocity S-wave (km/s) = 3.79051 3.85976 3.82530
# Velocity P-wave (km/s) = 6.68483 6.92048 6.80367
#
# Compressibility (1/GPa) = 0.02042700
#
# Stress axis : x y z
#
# Youngs Moduli (GPa) = 62.92008 67.09882 96.05422
#
# Poissons Ratio (x) = 0.15463 0.39288
# Poissons Ratio (y) = 0.14500 0.38378
# Poissons Ratio (z) = 0.25735 0.26809
#
# Static dielectric constant tensor:
#      x y z
#    x 3.696280 0.000000 0.000000 
#    y 0.000000 3.384940 0.000000 
#    z 0.000000 0.000000 3.759510 
# 
# 
# High freq. dielectric constant tensor:
#      x y z
#    x 1.741430 0.000000 0.000000 
#    y 0.000000 1.728350 0.000000 
#    z 0.000000 0.000000 1.745630 
# 
# From -- ./inp_files/31813.got.cif
#   From: 2010.03.12/outbox.cif.g09.slc.cpg/sg68_16_cif.got.tgz:31813.got - 2010.04.10 23:14:56.
