data_PCOD8281965
_publ_section_title
;
Structure prediction by ZEFSAII (Michael W. Deem and Ramdas Pophale) SiO2 
 PCOD8281965
Probable space group: C C C A
;
_chemical_formula_sum "Si O2"
_cell_formula_units_Z 108
_cell_length_a 5.364662
_cell_length_b 27.501645
_cell_length_c 31.272582
_cell_angle_alpha 90.000000
_cell_angle_beta 90.000000
_cell_angle_gamma 90.000000
_cell_volume 4613.863865
_symmetry_space_group_name_H-M "C C C A"
_symmetry_group_IT_number 68
_space_group.IT_coordinate_system_code '2'
_symmetry_cell_setting 'orthorhombic'
loop_
_space_group_symop_operation_xyz
x,y,z
-x,1/2-y,z
x,1/2-y,1/2-z
-x,y,1/2-z
-x,-y,-z
x,1/2+y,-z
-x,1/2+y,1/2+z
x,-y,1/2+z
1/2+x,1/2+y,z
1/2-x,-y,z
1/2+x,-y,1/2-z
1/2-x,1/2+y,1/2-z
1/2-x,1/2-y,-z
1/2+x,y,-z
1/2-x,y,1/2+z
1/2+x,1/2-y,1/2+z
loop_
_atom_site_type_symbol
_atom_site_label
_atom_site_fract_x
_atom_site_fract_y
_atom_site_fract_z
Si Si1 0.613040 0.071934 0.023522
Si Si2 0.306975 0.291007 0.823447
Si Si3 0.000000 0.250000 0.750000
Si Si4 0.480448 0.068173 0.383525
Si Si5 0.499179 0.511239 0.191646
Si Si6 0.632570 0.187498 0.024551
Si Si7 0.500000 0.250000 0.399054
Si Si8 0.981575 0.608280 0.647955
O O1 0.557748 0.046996 0.069095
O O2 0.620490 0.129835 0.029569
O O3 0.883523 0.054697 0.006651
O O4 0.500000 0.250000 0.813128
O O5 0.134673 0.288761 0.781420
O O6 0.453138 0.341472 0.827085
O O7 0.177234 0.281822 0.868922
O O8 0.487683 0.021905 0.351691
O O9 0.740595 0.098296 0.382246
O O10 0.248427 0.105365 0.375818
O O11 0.250000 0.500000 0.218933
O O12 0.509648 0.567978 0.184200
O O13 0.750000 0.500000 0.218049
O O14 0.652716 0.212171 0.071277
O O15 0.374326 0.204948 0.002286
#
# Coordination Sequence:
#
# PCOD8281965 Si02
#       8
#    16  16   4  16  16  16   8  16
#     4  10  20  32  48  75 110 165 216 258 318 390
#     4  11  26  42  68  96 131 170 213 269 318 395
#     4  10  26  52  64  94 144 168 210 256 334 402
#     4  10  19  35  60  89 128 160 208 276 326 370
#     4   8  16  32  55  86 121 152 192 251 322 365
#     4  10  22  36  53  78 122 170 215 274 333 374
#     4  11  24  37  58  88 120 160 230 275 324 379
#     4  10  21  36  63  91 121 157 203 256 320 371
#
# _framework density 23.407715
#
# number of rings (size 3 to 8) (size 9 to 14) (size 15 to 20)
#    0.000    2.074    0.000    2.444    8.296    1.185 
#    0.000    0.000    0.000   24.000    0.000    0.000 
#   40.000    0.000    0.000    0.000    0.000    0.000 
#
# Total GULP energy -669056.531044 kJ/mol
# GULP energy per Si atom -12389.935760 kJ/mol
# Density = 2.335444 g / cm^3
# Si number density = 23.407715 Si / 1000 Ang^3
#
#
#
# Elastic Constant Matrix: (Units=GPa)
#
#
# Indices 1 2 3 4 5 6 
#
# 1 185.1264 31.0114 28.2666 0.0000 0.0000 0.0000
# 2 31.0114 71.3871 27.0838 0.0000 0.0000 0.0000
# 3 28.2666 27.0838 141.3990 0.0000 0.0000 0.0000
# 4 0.0000 0.0000 0.0000 14.4202 0.0000 0.0000
# 5 0.0000 0.0000 0.0000 0.0000 106.8352 0.0000
# 6 0.0000 0.0000 0.0000 0.0000 0.0000 32.2885
#
#
#
# Elastic Compliance Matrix: (Units=1/GPa)
#
#
# Indices 1 2 3 4 5 6 
#
# 1 0.005897 -0.002280 -0.000742 0.000000 0.000000 0.000000
# 2 -0.002280 0.015988 -0.002606 0.000000 0.000000 0.000000
# 3 -0.000742 -0.002606 0.007720 0.000000 0.000000 0.000000
# 4 0.000000 0.000000 0.000000 0.069347 0.000000 0.000000
# 5 0.000000 0.000000 0.000000 0.000000 0.009360 0.000000
# 6 0.000000 0.000000 0.000000 0.000000 0.000000 0.030971
#
#
# Mechanical properties :
#
#
# Convention : Reuss Voigt Hill
#
# Bulk Modulus (GPa) = 54.50529 63.40402 58.95466
# Shear Modulus (GPa) = 31.91716 51.47883 41.69800
#
# Velocity S-wave (km/s) = 3.69661 4.69468 4.22522
# Velocity P-wave (km/s) = 6.44637 7.51879 7.00314
#
# Compressibility (1/GPa) = 0.01834684
#
# Stress axis : x y z
#
# Youngs Moduli (GPa) = 169.57813 62.54875 129.53738
#
# Poissons Ratio (x) = 0.14262 0.09613
# Poissons Ratio (y) = 0.38667 0.33763
# Poissons Ratio (z) = 0.12584 0.16303
#
# Static dielectric constant tensor:
#      x y z
#    x 5.091830 0.000000 0.000000 
#    y 0.000000 3.854650 0.000000 
#    z 0.000000 0.000000 3.933680 
# 
# 
# High freq. dielectric constant tensor:
#      x y z
#    x 1.949320 0.000000 0.000000 
#    y 0.000000 1.923260 0.000000 
#    z 0.000000 0.000000 1.916400 
# 
# From -- ./inp_files/53541.got.cif
#   From: 2010.03.12/outbox.cif.g09.slc.cpg/sg68_27_cif.got.tgz:53541.got - 2010.04.10 23:14:56.
