data_PCOD8281053
_publ_section_title
;
Structure prediction by ZEFSAII (Michael W. Deem and Ramdas Pophale) SiO2 
 PCOD8281053
Probable space group: C M M A
;
_chemical_formula_sum "Si O2"
_cell_formula_units_Z 112
_cell_length_a 14.170182
_cell_length_b 28.938004
_cell_length_c 12.111163
_cell_angle_alpha 90.000000
_cell_angle_beta 90.000000
_cell_angle_gamma 90.000000
_cell_volume 4966.264543
_symmetry_space_group_name_H-M "C M M A"
_symmetry_group_IT_number 67
_symmetry_cell_setting 'orthorhombic'
loop_
_space_group_symop_operation_xyz
x,y,z
-x,1/2-y,z
x,-y,-z
-x,1/2+y,-z
-x,-y,-z
x,1/2+y,-z
-x,y,z
x,1/2-y,z
1/2+x,1/2+y,z
1/2-x,-y,z
1/2+x,1/2-y,-z
1/2-x,y,-z
1/2-x,1/2-y,-z
1/2+x,y,-z
1/2-x,1/2+y,z
1/2+x,-y,z
loop_
_atom_site_type_symbol
_atom_site_label
_atom_site_fract_x
_atom_site_fract_y
_atom_site_fract_z
Si Si1 0.101432 0.396627 0.654531
Si Si2 0.147035 0.637645 0.961764
Si Si3 0.900689 0.683057 0.180198
Si Si4 0.693715 0.698369 0.244950
Si Si5 0.718170 0.953160 0.313228
Si Si6 0.610274 0.129776 0.586399
Si Si7 0.104913 0.036068 0.093281
O O1 0.087451 0.363841 0.756189
O O2 0.182207 0.428784 0.699716
O O3 0.129539 0.367971 0.544432
O O4 0.000000 0.422242 0.632575
O O5 0.146615 0.666605 0.848248
O O6 0.094528 0.588960 0.948788
O O7 0.250000 0.623555 0.000000
O O8 0.101198 0.671760 0.050300
O O9 0.805333 0.707417 0.222573
O O10 0.000000 0.711546 0.198829
O O11 0.648627 0.750000 0.250244
O O12 0.672450 0.670523 0.358097
O O13 0.643514 0.921563 0.377780
O O14 0.677292 0.966456 0.194202
O O15 0.750000 0.000000 0.377210
O O16 0.500000 0.136347 0.616548
O O17 0.000000 0.020669 0.131487
O O18 0.140716 0.000000 0.000000
#
# Coordination Sequence:
#
# PCOD8281053 Si02
#       7
#    16  16  16  16  16  16  16
#     4  10  23  44  70  99 134 181 232 285 351 423
#     4  10  21  39  66  95 134 179 230 286 347 413
#     4  10  21  39  65  96 133 179 225 281 346 415
#     4  11  24  43  71 104 138 183 238 296 357 426
#     4  12  25  41  69 100 136 179 231 283 353 423
#     4  11  24  46  72  98 137 180 231 298 357 414
#     4  11  25  40  63 100 140 182 230 285 348 415
#
# _framework density 22.552161999999999
#
# number of rings (size 3 to 8) (size 9 to 14) (size 15 to 20)
#    0.000    1.286    2.857    2.143    4.000    6.000 
#    0.000    2.857    0.000    3.000    0.000    0.000 
#    0.000    0.000    0.000    0.000    0.000    0.000 
#
# Total GULP energy -693748.524481 kJ/mol
# GULP energy per Si atom -12388.366509 kJ/mol
# Density = 2.250083 g / cm^3
# Si number density = 22.552162 Si / 1000 Ang^3
#
#
#
# Elastic Constant Matrix: (Units=GPa)
#
#
# Indices 1 2 3 4 5 6 
#
# 1 121.2859 35.5460 52.2115 0.0000 0.0000 0.0000
# 2 35.5460 119.3873 13.8269 0.0000 0.0000 0.0000
# 3 52.2115 13.8269 75.0258 0.0000 0.0000 0.0000
# 4 0.0000 0.0000 0.0000 3.3832 0.0000 0.0000
# 5 0.0000 0.0000 0.0000 0.0000 33.8503 0.0000
# 6 0.0000 0.0000 0.0000 0.0000 0.0000 6.2249
#
#
#
# Elastic Compliance Matrix: (Units=1/GPa)
#
#
# Indices 1 2 3 4 5 6 
#
# 1 0.012626 -0.002801 -0.008271 0.000000 0.000000 0.000000
# 2 -0.002801 0.009180 0.000258 0.000000 0.000000 0.000000
# 3 -0.008271 0.000258 0.019037 0.000000 0.000000 0.000000
# 4 0.000000 0.000000 0.000000 0.295581 0.000000 0.000000
# 5 0.000000 0.000000 0.000000 0.000000 0.029542 0.000000
# 6 0.000000 0.000000 0.000000 0.000000 0.000000 0.160646
#
#
# Mechanical properties :
#
#
# Convention : Reuss Voigt Hill
#
# Bulk Modulus (GPa) = 52.04302 57.65199 54.84751
# Shear Modulus (GPa) = 9.01477 22.96597 15.99037
#
# Velocity S-wave (km/s) = 2.00149 3.19462 2.66567
# Velocity P-wave (km/s) = 5.33555 6.26313 5.81786
#
# Compressibility (1/GPa) = 0.01921487
#
# Stress axis : x y z
#
# Youngs Moduli (GPa) = 79.19941 108.92820 52.52973
#
# Poissons Ratio (x) = 0.30516 0.43445
# Poissons Ratio (y) = 0.22187 -0.01354
# Poissons Ratio (z) = 0.65502 -0.02807
#
# Static dielectric constant tensor:
#      x y z
#    x 4.245940 0.000000 0.000000 
#    y 0.000000 3.467420 0.000000 
#    z 0.000000 0.000000 4.052250 
# 
# 
# High freq. dielectric constant tensor:
#      x y z
#    x 1.912000 0.000000 0.000000 
#    y 0.000000 1.873730 0.000000 
#    z 0.000000 0.000000 1.885890 
# 
# From -- ./inp_files/18624.got.cif
#   From: 2010.03.12/outbox.cif.g09.slc.cpg/sg67_10_cif.got.tgz:18624.got - 2010.04.10 22:41:39.
