data_PCOD8281993
_publ_section_title
;
Structure prediction by ZEFSAII (Michael W. Deem and Ramdas Pophale) SiO2 
 PCOD8281993
Probable space group: C C C A
;
_chemical_formula_sum "Si O2"
_cell_formula_units_Z 88
_cell_length_a 28.409430
_cell_length_b 13.706595
_cell_length_c 10.268849
_cell_angle_alpha 90.000000
_cell_angle_beta 90.000000
_cell_angle_gamma 90.000000
_cell_volume 3998.654385
_symmetry_space_group_name_H-M "C C C A"
_symmetry_group_IT_number 68
_space_group.IT_coordinate_system_code '2'
_symmetry_cell_setting 'orthorhombic'
loop_
_space_group_symop_operation_xyz
x,y,z
-x,1/2-y,z
x,1/2-y,1/2-z
-x,y,1/2-z
-x,-y,-z
x,1/2+y,-z
-x,1/2+y,1/2+z
x,-y,1/2+z
1/2+x,1/2+y,z
1/2-x,-y,z
1/2+x,-y,1/2-z
1/2-x,1/2+y,1/2-z
1/2-x,1/2-y,-z
1/2+x,y,-z
1/2-x,y,1/2+z
1/2+x,1/2-y,1/2+z
loop_
_atom_site_type_symbol
_atom_site_label
_atom_site_fract_x
_atom_site_fract_y
_atom_site_fract_z
Si Si1 0.829269 0.750000 0.750000
Si Si2 0.857468 0.047814 0.915323
Si Si3 0.435471 0.565753 0.531641
Si Si4 0.106113 0.757915 0.994305
Si Si5 0.974401 0.117435 0.120434
Si Si6 0.801423 0.459300 0.319027
O O1 0.860022 0.774339 0.876786
O O2 0.797623 0.845543 0.722321
O O3 0.870344 0.162882 0.910830
O O4 0.830839 0.025666 0.050237
O O5 0.905419 0.984086 0.914164
O O6 0.825563 0.023423 0.792837
O O7 0.406957 0.661737 0.579813
O O8 0.487039 0.598264 0.489070
O O9 0.442763 0.481690 0.641690
O O10 0.058506 0.795461 0.926454
O O11 0.000000 0.150831 0.250000
O O12 0.750000 0.500000 0.345032
#
# Coordination Sequence:
#
# PCOD8281993 Si02
#       6
#     8  16  16  16  16  16
#     4  10  20  38  69  92 122 172 218 253 310 404
#     4  10  23  40  67  91 127 168 205 265 321 378
#     4  10  20  36  57  88 128 160 213 258 313 371
#     4  10  19  36  61  90 123 169 216 252 310 383
#     4  10  21  33  60  89 122 168 214 263 300 370
#     4  11  23  45  67  95 126 162 213 270 325 386
#
# _framework density 22.007403
#
# number of rings (size 3 to 8) (size 9 to 14) (size 15 to 20)
#    0.000    1.818    1.818    2.182    5.091    0.727 
#    3.273    2.727    4.000    0.000    0.000    0.000 
#    0.000    0.000    0.000    0.000    0.000    0.000 
#
# Total GULP energy -545396.174283 kJ/mol
# GULP energy per Si atom -12395.367597 kJ/mol
# Density = 2.195731 g / cm^3
# Si number density = 22.007403 Si / 1000 Ang^3
#
#
#
# Elastic Constant Matrix: (Units=GPa)
#
#
# Indices 1 2 3 4 5 6 
#
# 1 80.3129 34.1180 4.9140 0.0000 0.0000 0.0000
# 2 34.1180 147.0042 10.7740 0.0000 0.0000 0.0000
# 3 4.9140 10.7740 51.0465 0.0000 0.0000 0.0000
# 4 0.0000 0.0000 0.0000 15.6272 0.0000 0.0000
# 5 0.0000 0.0000 0.0000 0.0000 18.0245 0.0000
# 6 0.0000 0.0000 0.0000 0.0000 0.0000 39.8996
#
#
#
# Elastic Compliance Matrix: (Units=1/GPa)
#
#
# Indices 1 2 3 4 5 6 
#
# 1 0.013835 -0.003162 -0.000664 0.000000 0.000000 0.000000
# 2 -0.003162 0.007632 -0.001306 0.000000 0.000000 0.000000
# 3 -0.000664 -0.001306 0.019930 0.000000 0.000000 0.000000
# 4 0.000000 0.000000 0.000000 0.063991 0.000000 0.000000
# 5 0.000000 0.000000 0.000000 0.000000 0.055480 0.000000
# 6 0.000000 0.000000 0.000000 0.000000 0.000000 0.025063
#
#
# Mechanical properties :
#
#
# Convention : Reuss Voigt Hill
#
# Bulk Modulus (GPa) = 32.12249 41.99730 37.05989
# Shear Modulus (GPa) = 24.20433 29.94743 27.07588
#
# Velocity S-wave (km/s) = 3.31996 3.69289 3.51138
# Velocity P-wave (km/s) = 5.41517 6.10802 5.77200
#
# Compressibility (1/GPa) = 0.03113084
#
# Stress axis : x y z
#
# Youngs Moduli (GPa) = 72.27866 131.02357 50.17645
#
# Poissons Ratio (x) = 0.41434 0.03334
# Poissons Ratio (y) = 0.22857 0.06555
# Poissons Ratio (z) = 0.04802 0.17118
#
# Static dielectric constant tensor:
#      x y z
#    x 3.999630 0.000000 0.000000 
#    y 0.000000 4.384060 0.000000 
#    z 0.000000 0.000000 3.582760 
# 
# 
# High freq. dielectric constant tensor:
#      x y z
#    x 1.866120 0.000000 0.000000 
#    y 0.000000 1.890910 0.000000 
#    z 0.000000 0.000000 1.828540 
# 
# From -- ./inp_files/16328.got.cif
#   From: 2010.03.12/outbox.cif.g09.slc.cpg/sg68_9_cif.got.tgz:16328.got - 2010.04.10 23:14:56.
