data_PCOD8281370
_publ_section_title
;
Structure prediction by ZEFSAII (Michael W. Deem and Ramdas Pophale) SiO2 
 PCOD8281370
Probable space group: C M M A
;
_chemical_formula_sum "Si O2"
_cell_formula_units_Z 112
_cell_length_a 16.841665
_cell_length_b 29.357193
_cell_length_c 11.467904
_cell_angle_alpha 90.000000
_cell_angle_beta 90.000000
_cell_angle_gamma 90.000000
_cell_volume 5670.007080
_symmetry_space_group_name_H-M "C M M A"
_symmetry_group_IT_number 67
_symmetry_cell_setting 'orthorhombic'
loop_
_space_group_symop_operation_xyz
x,y,z
-x,1/2-y,z
x,-y,-z
-x,1/2+y,-z
-x,-y,-z
x,1/2+y,-z
-x,y,z
x,1/2-y,z
1/2+x,1/2+y,z
1/2-x,-y,z
1/2+x,1/2-y,-z
1/2-x,y,-z
1/2-x,1/2-y,-z
1/2+x,y,-z
1/2-x,1/2+y,z
1/2+x,-y,z
loop_
_atom_site_type_symbol
_atom_site_label
_atom_site_fract_x
_atom_site_fract_y
_atom_site_fract_z
Si Si1 0.091243 0.415986 0.703940
Si Si2 0.160090 0.512349 0.679661
Si Si3 0.413692 0.438787 0.874925
Si Si4 0.658856 0.599839 0.468402
Si Si5 0.412601 0.152208 0.728052
Si Si6 0.335303 0.612533 0.938150
Si Si7 0.906005 0.698945 0.951809
O O1 0.105204 0.468302 0.667521
O O2 0.107727 0.389111 0.583697
O O3 0.155851 0.398202 0.800031
O O4 0.000000 0.407945 0.744297
O O5 0.250000 0.500000 0.651841
O O6 0.151197 0.529273 0.813036
O O7 0.131473 0.551907 0.590749
O O8 0.500000 0.463069 0.875114
O O9 0.418959 0.391506 0.808900
O O10 0.389510 0.427228 0.006646
O O11 0.750000 0.596776 0.500000
O O12 0.645436 0.642225 0.380201
O O13 0.500000 0.165096 0.679389
O O14 0.379433 0.191042 0.816143
O O15 0.250000 0.607111 0.000000
O O16 0.364218 0.664113 0.959639
O O17 0.881119 0.750000 0.988106
O O18 0.000000 0.691452 0.961006
#
# Coordination Sequence:
#
# PCOD8281370 Si02
#       7
#    16  16  16  16  16  16  16
#     4  12  25  37  55  84 117 157 201 244 296 353
#     4  11  21  36  55  80 111 149 201 251 292 340
#     4   9  18  35  56  75 105 146 189 238 290 338
#     4  11  22  35  57  79 116 157 195 245 293 339
#     4   8  16  32  56  83 109 142 189 234 281 340
#     4  11  23  38  58  84 118 152 190 238 295 358
#     4   9  18  36  65  93 116 146 186 234 286 352
#
# _framework density 19.753062
#
# number of rings (size 3 to 8) (size 9 to 14) (size 15 to 20)
#    0.000    1.857    1.429    4.286    4.000    3.143 
#    0.000    2.857    0.000    1.286    0.000    2.000 
#    0.000    0.000    0.000    0.000    0.000    0.000 
#
# Total GULP energy -693971.748535 kJ/mol
# GULP energy per Si atom -12392.352652 kJ/mol
# Density = 1.970810 g / cm^3
# Si number density = 19.753062 Si / 1000 Ang^3
#
#
#
# Elastic Constant Matrix: (Units=GPa)
#
#
# Indices 1 2 3 4 5 6 
#
# 1 73.0611 17.2405 24.9839 0.0000 0.0000 0.0000
# 2 17.2405 44.3752 28.3352 0.0000 0.0000 0.0000
# 3 24.9839 28.3352 111.0912 0.0000 0.0000 0.0000
# 4 0.0000 0.0000 0.0000 21.3943 0.0000 0.0000
# 5 0.0000 0.0000 0.0000 0.0000 28.7577 0.0000
# 6 0.0000 0.0000 0.0000 0.0000 0.0000 17.9411
#
#
#
# Elastic Compliance Matrix: (Units=1/GPa)
#
#
# Indices 1 2 3 4 5 6 
#
# 1 0.015561 -0.004553 -0.002338 0.000000 0.000000 0.000000
# 2 -0.004553 0.028251 -0.006182 0.000000 0.000000 0.000000
# 3 -0.002338 -0.006182 0.011104 0.000000 0.000000 0.000000
# 4 0.000000 0.000000 0.000000 0.046741 0.000000 0.000000
# 5 0.000000 0.000000 0.000000 0.000000 0.034773 0.000000
# 6 0.000000 0.000000 0.000000 0.000000 0.000000 0.055738
#
#
# Mechanical properties :
#
#
# Convention : Reuss Voigt Hill
#
# Bulk Modulus (GPa) = 34.75755 41.07185 37.91470
# Shear Modulus (GPa) = 21.93889 24.14980 23.04435
#
# Velocity S-wave (km/s) = 3.33627 3.50034 3.41929
# Velocity P-wave (km/s) = 5.69870 6.09707 5.90125
#
# Compressibility (1/GPa) = 0.02877073
#
# Stress axis : x y z
#
# Youngs Moduli (GPa) = 64.26276 35.39659 90.05508
#
# Poissons Ratio (x) = 0.16115 0.21059
# Poissons Ratio (y) = 0.29256 0.55672
# Poissons Ratio (z) = 0.15027 0.21882
#
# Static dielectric constant tensor:
#      x y z
#    x 3.682460 0.000000 0.000000 
#    y 0.000000 3.522960 0.000000 
#    z 0.000000 0.000000 3.814660 
# 
# 
# High freq. dielectric constant tensor:
#      x y z
#    x 1.766110 0.000000 0.000000 
#    y 0.000000 1.731970 0.000000 
#    z 0.000000 0.000000 1.771620 
# 
# From -- ./inp_files/18613.got.cif
#   From: 2010.03.12/outbox.cif.g09.slc.cpg/sg67_10_cif.got.tgz:18613.got - 2010.04.10 22:41:39.
