data_PCOD8281928
_publ_section_title
;
Structure prediction by ZEFSAII (Michael W. Deem and Ramdas Pophale) SiO2 
 PCOD8281928
Probable space group: C C C A
;
_chemical_formula_sum "Si O2"
_cell_formula_units_Z 80
_cell_length_a 8.615207
_cell_length_b 16.452673
_cell_length_c 28.671255
_cell_angle_alpha 90.000000
_cell_angle_beta 90.000000
_cell_angle_gamma 90.000000
_cell_volume 4063.954961
_symmetry_space_group_name_H-M "C C C A"
_symmetry_group_IT_number 68
_space_group.IT_coordinate_system_code '2'
_symmetry_cell_setting 'orthorhombic'
loop_
_space_group_symop_operation_xyz
x,y,z
-x,1/2-y,z
x,1/2-y,1/2-z
-x,y,1/2-z
-x,-y,-z
x,1/2+y,-z
-x,1/2+y,1/2+z
x,-y,1/2+z
1/2+x,1/2+y,z
1/2-x,-y,z
1/2+x,-y,1/2-z
1/2-x,1/2+y,1/2-z
1/2-x,1/2-y,-z
1/2+x,y,-z
1/2-x,y,1/2+z
1/2+x,1/2-y,1/2+z
loop_
_atom_site_type_symbol
_atom_site_label
_atom_site_fract_x
_atom_site_fract_y
_atom_site_fract_z
Si Si1 0.816724 0.157271 0.800664
Si Si2 0.335114 0.650640 0.696273
Si Si3 0.898535 0.829661 0.880236
Si Si4 0.302093 0.410763 0.603855
Si Si5 0.817607 0.760660 0.050969
O O1 0.772263 0.130511 0.748172
O O2 0.824413 0.253299 0.809337
O O3 0.683238 0.126864 0.835802
O O4 0.987274 0.121444 0.811331
O O5 0.231447 0.605042 0.658491
O O6 0.764600 0.806292 0.916644
O O7 0.000000 0.750000 0.866097
O O8 0.013022 0.896810 0.902869
O O9 0.250000 0.500000 0.588853
O O10 0.210406 0.350736 0.570023
O O11 0.000000 0.750000 0.050722
O O12 0.750000 0.750000 0.000000
#
# Coordination Sequence:
#
# PCOD8281928 Si02
#       5
#    16  16  16  16  16
#     4   9  16  31  55  83 112 160 213 244 276 339
#     4   9  17  31  54  82 119 157 202 248 288 339
#     4  10  19  34  57  87 116 155 206 240 283 355
#     4  11  23  39  57  90 129 154 187 251 308 346
#     4  11  22  42  68  90 113 150 201 244 287 363
#
# _framework density 19.685258000000001
#
# number of rings (size 3 to 8) (size 9 to 14) (size 15 to 20)
#    0.000    2.000    4.000    4.200    0.000    0.800 
#    0.000   12.000    0.000    0.000    0.000    0.000 
#    0.000    0.000    0.000    0.000    0.000    0.000 
#
# Total GULP energy -495853.441328 kJ/mol
# GULP energy per Si atom -12396.336033 kJ/mol
# Density = 1.964045 g / cm^3
# Si number density = 19.685258 Si / 1000 Ang^3
#
#
#
# Elastic Constant Matrix: (Units=GPa)
#
#
# Indices 1 2 3 4 5 6 
#
# 1 162.5550 46.0947 70.3447 0.0000 0.0000 0.0000
# 2 46.0947 85.9838 36.8964 0.0000 0.0000 0.0000
# 3 70.3447 36.8964 131.8316 0.0000 0.0000 0.0000
# 4 0.0000 0.0000 0.0000 8.9370 0.0000 0.0000
# 5 0.0000 0.0000 0.0000 0.0000 40.2795 0.0000
# 6 0.0000 0.0000 0.0000 0.0000 0.0000 21.1233
#
#
#
# Elastic Compliance Matrix: (Units=1/GPa)
#
#
# Indices 1 2 3 4 5 6 
#
# 1 0.008635 -0.003014 -0.003764 0.000000 0.000000 0.000000
# 2 -0.003014 0.014269 -0.002385 0.000000 0.000000 0.000000
# 3 -0.003764 -0.002385 0.010262 0.000000 0.000000 0.000000
# 4 0.000000 0.000000 0.000000 0.111895 0.000000 0.000000
# 5 0.000000 0.000000 0.000000 0.000000 0.024827 0.000000
# 6 0.000000 0.000000 0.000000 0.000000 0.000000 0.047341
#
#
# Mechanical properties :
#
#
# Convention : Reuss Voigt Hill
#
# Bulk Modulus (GPa) = 67.38939 76.33802 71.86371
# Shear Modulus (GPa) = 20.78978 29.20359 24.99669
#
# Velocity S-wave (km/s) = 3.25331 3.85584 3.56732
# Velocity P-wave (km/s) = 6.95843 7.66073 7.31801
#
# Compressibility (1/GPa) = 0.01483913
#
# Stress axis : x y z
#
# Youngs Moduli (GPa) = 115.80254 70.07962 97.45039
#
# Poissons Ratio (x) = 0.21122 0.36683
# Poissons Ratio (y) = 0.34903 0.23246
# Poissons Ratio (z) = 0.43591 0.16717
#
# Static dielectric constant tensor:
#      x y z
#    x 4.034150 0.000000 0.000000 
#    y 0.000000 3.101030 0.000000 
#    z 0.000000 0.000000 3.748040 
# 
# 
# High freq. dielectric constant tensor:
#      x y z
#    x 1.781770 0.000000 0.000000 
#    y 0.000000 1.714850 0.000000 
#    z 0.000000 0.000000 1.768180 
# 
# From -- ./inp_files/49120.got.cif
#   From: 2010.03.12/outbox.cif.g09.slc.cpg/sg68_25_cif.got.tgz:49120.got - 2010.04.10 23:14:56.
