data_PCOD8281133
_publ_section_title
;
Structure prediction by ZEFSAII (Michael W. Deem and Ramdas Pophale) SiO2 
 PCOD8281133
Probable space group: C M M A
;
_chemical_formula_sum "Si O2"
_cell_formula_units_Z 80
_cell_length_a 18.137659
_cell_length_b 24.825547
_cell_length_c 8.975280
_cell_angle_alpha 90.000000
_cell_angle_beta 90.000000
_cell_angle_gamma 90.000000
_cell_volume 4041.364899
_symmetry_space_group_name_H-M "C M M A"
_symmetry_group_IT_number 67
_symmetry_cell_setting 'orthorhombic'
loop_
_space_group_symop_operation_xyz
x,y,z
-x,1/2-y,z
x,-y,-z
-x,1/2+y,-z
-x,-y,-z
x,1/2+y,-z
-x,y,z
x,1/2-y,z
1/2+x,1/2+y,z
1/2-x,-y,z
1/2+x,1/2-y,-z
1/2-x,y,-z
1/2-x,1/2-y,-z
1/2+x,y,-z
1/2-x,1/2+y,z
1/2+x,-y,z
loop_
_atom_site_type_symbol
_atom_site_label
_atom_site_fract_x
_atom_site_fract_y
_atom_site_fract_z
Si Si1 0.172246 0.309560 0.435038
Si Si2 0.915189 0.620535 0.358892
Si Si3 0.228978 0.060726 0.668957
Si Si4 0.196062 0.351026 0.130187
Si Si5 0.415980 0.689269 0.927473
O O1 0.151415 0.250000 0.491879
O O2 0.250000 0.329620 0.500000
O O3 0.109153 0.351878 0.485130
O O4 0.182647 0.306958 0.257639
O O5 0.859398 0.571560 0.316496
O O6 0.905151 0.667797 0.239392
O O7 0.000000 0.599499 0.368589
O O8 0.250000 0.075226 0.500000
O O9 0.275606 0.094566 0.790504
O O10 0.250000 0.000000 0.707847
O O11 0.250000 0.329989 0.000000
O O12 0.118832 0.354276 0.042119
O O13 0.500000 0.691547 0.973373
O O14 0.382152 0.750000 0.936314
#
# Coordination Sequence:
#
# PCOD8281133 Si02
#       5
#    16  16  16  16  16
#     4  11  21  35  58  89 124 162 208 248 288 353
#     4  11  21  41  65  90 122 162 207 253 307 364
#     4  11  23  45  67  87 115 154 206 267 312 358
#     4  12  21  38  61  90 123 162 206 246 304 365
#     4  10  22  38  57  88 131 169 198 242 306 368
#
# _framework density 19.795293000000001
#
# number of rings (size 3 to 8) (size 9 to 14) (size 15 to 20)
#    0.000    1.000    6.000    1.200    0.000    5.600 
#    0.000    3.000    0.000    2.400    0.000    0.000 
#    0.000    0.000    0.000    0.000    0.000    0.000 
#
# Total GULP energy -495579.934694 kJ/mol
# GULP energy per Si atom -12389.498367 kJ/mol
# Density = 1.975024 g / cm^3
# Si number density = 19.795293 Si / 1000 Ang^3
#
#
#
# Elastic Constant Matrix: (Units=GPa)
#
#
# Indices 1 2 3 4 5 6 
#
# 1 130.4526 71.0124 48.3525 0.0000 0.0000 0.0000
# 2 71.0124 105.9293 21.2813 0.0000 0.0000 0.0000
# 3 48.3525 21.2813 117.0475 0.0000 0.0000 0.0000
# 4 0.0000 0.0000 0.0000 31.0557 0.0000 0.0000
# 5 0.0000 0.0000 0.0000 0.0000 34.5048 0.0000
# 6 0.0000 0.0000 0.0000 0.0000 0.0000 14.8076
#
#
#
# Elastic Compliance Matrix: (Units=1/GPa)
#
#
# Indices 1 2 3 4 5 6 
#
# 1 0.013785 -0.008404 -0.004166 0.000000 0.000000 0.000000
# 2 -0.008404 0.014922 0.000759 0.000000 0.000000 0.000000
# 3 -0.004166 0.000759 0.010127 0.000000 0.000000 0.000000
# 4 0.000000 0.000000 0.000000 0.032200 0.000000 0.000000
# 5 0.000000 0.000000 0.000000 0.000000 0.028981 0.000000
# 6 0.000000 0.000000 0.000000 0.000000 0.000000 0.067533
#
#
# Mechanical properties :
#
#
# Convention : Reuss Voigt Hill
#
# Bulk Modulus (GPa) = 65.74789 70.52465 68.13627
# Shear Modulus (GPa) = 25.47891 30.25916 27.86903
#
# Velocity S-wave (km/s) = 3.59154 3.91398 3.75622
# Velocity P-wave (km/s) = 7.10527 7.49199 7.30119
#
# Compressibility (1/GPa) = 0.01520961
#
# Stress axis : x y z
#
# Youngs Moduli (GPa) = 72.54495 67.01726 98.74804
#
# Poissons Ratio (x) = 0.56320 0.41143
# Poissons Ratio (y) = 0.60965 -0.07491
# Poissons Ratio (z) = 0.30226 -0.05084
#
# Static dielectric constant tensor:
#      x y z
#    x 3.797950 0.000000 0.000000 
#    y 0.000000 3.366140 0.000000 
#    z 0.000000 0.000000 3.813110 
# 
# 
# High freq. dielectric constant tensor:
#      x y z
#    x 1.768570 0.000000 0.000000 
#    y 0.000000 1.750160 0.000000 
#    z 0.000000 0.000000 1.781140 
# 
# From -- ./inp_files/9966.got.cif
#   From: 2010.03.12/outbox.cif.g09.slc.cpg/sg67_5_cif.got.tgz:9966.got - 2010.04.10 22:41:39.
