data_PCOD8281663
_publ_section_title
;
Structure prediction by ZEFSAII (Michael W. Deem and Ramdas Pophale) SiO2 
 PCOD8281663
Probable space group: C C C A
;
_chemical_formula_sum "Si O2"
_cell_formula_units_Z 72
_cell_length_a 8.881631
_cell_length_b 30.174571
_cell_length_c 13.521348
_cell_angle_alpha 90.000000
_cell_angle_beta 90.000000
_cell_angle_gamma 90.000000
_cell_volume 3623.713222
_symmetry_space_group_name_H-M "C C C A"
_symmetry_group_IT_number 68
_space_group.IT_coordinate_system_code '2'
_symmetry_cell_setting 'orthorhombic'
loop_
_space_group_symop_operation_xyz
x,y,z
-x,1/2-y,z
x,1/2-y,1/2-z
-x,y,1/2-z
-x,-y,-z
x,1/2+y,-z
-x,1/2+y,1/2+z
x,-y,1/2+z
1/2+x,1/2+y,z
1/2-x,-y,z
1/2+x,-y,1/2-z
1/2-x,1/2+y,1/2-z
1/2-x,1/2-y,-z
1/2+x,y,-z
1/2-x,y,1/2+z
1/2+x,1/2-y,1/2+z
loop_
_atom_site_type_symbol
_atom_site_label
_atom_site_fract_x
_atom_site_fract_y
_atom_site_fract_z
Si Si1 0.381278 0.116136 0.438845
Si Si2 0.500000 0.250000 0.750000
Si Si3 0.836505 0.954722 0.214667
Si Si4 0.252264 0.188447 0.307880
Si Si5 0.500000 0.250000 0.250000
Si Si6 0.219103 0.378478 0.864115
O O1 0.338839 0.068556 0.392656
O O2 0.266577 0.152351 0.393612
O O3 0.351537 0.115906 0.555661
O O4 0.555009 0.126186 0.414108
O O5 0.397401 0.281616 0.680498
O O6 0.765763 0.921295 0.294552
O O7 0.000000 0.968321 0.250000
O O8 0.750000 0.000000 0.204138
O O9 0.396452 0.219950 0.320057
O O10 0.251952 0.165577 0.199595
#
# Coordination Sequence:
#
# PCOD8281663 Si02
#       6
#    16   4  16  16   4  16
#     4  10  21  38  60  83 115 151 188 229 281 336
#     4  10  24  34  62  86 110 144 196 242 270 342
#     4   9  20  39  59  84 114 150 185 228 279 330
#     4  10  20  40  57  81 115 150 187 230 289 328
#     4  10  16  38  66  70 106 160 180 226 286 330
#     4  10  21  38  60  83 115 151 188 229 281 336
#
# _framework density 19.869122000000001
#
# number of rings (size 3 to 8) (size 9 to 14) (size 15 to 20)
#    0.000    2.222    2.222    1.333    3.111    2.667 
#    4.000   11.111    0.000    0.000    0.000    0.000 
#    0.000    0.000    0.000    0.000    0.000    0.000 
#
# Total GULP energy -446319.450334 kJ/mol
# GULP energy per Si atom -12397.762509 kJ/mol
# Density = 1.982390 g / cm^3
# Si number density = 19.869122 Si / 1000 Ang^3
#
#
#
# Elastic Constant Matrix: (Units=GPa)
#
#
# Indices 1 2 3 4 5 6 
#
# 1 75.9693 46.7796 12.7033 0.0000 0.0000 0.0000
# 2 46.7796 121.6769 20.3045 0.0000 0.0000 0.0000
# 3 12.7033 20.3045 84.9052 0.0000 0.0000 0.0000
# 4 0.0000 0.0000 0.0000 2.4862 0.0000 0.0000
# 5 0.0000 0.0000 0.0000 0.0000 25.6465 0.0000
# 6 0.0000 0.0000 0.0000 0.0000 0.0000 4.7819
#
#
#
# Elastic Compliance Matrix: (Units=1/GPa)
#
#
# Indices 1 2 3 4 5 6 
#
# 1 0.017334 -0.006490 -0.001041 0.000000 0.000000 0.000000
# 2 -0.006490 0.010990 -0.001657 0.000000 0.000000 0.000000
# 3 -0.001041 -0.001657 0.012330 0.000000 0.000000 0.000000
# 4 0.000000 0.000000 0.000000 0.402217 0.000000 0.000000
# 5 0.000000 0.000000 0.000000 0.000000 0.038992 0.000000
# 6 0.000000 0.000000 0.000000 0.000000 0.000000 0.209123
#
#
# Mechanical properties :
#
#
# Convention : Reuss Voigt Hill
#
# Bulk Modulus (GPa) = 44.89059 49.12512 47.00786
# Shear Modulus (GPa) = 6.97555 20.10053 13.53804
#
# Velocity S-wave (km/s) = 1.87573 3.18409 2.61312
# Velocity P-wave (km/s) = 5.22813 6.18837 5.72841
#
# Compressibility (1/GPa) = 0.02227638
#
# Stress axis : x y z
#
# Youngs Moduli (GPa) = 57.69033 90.98935 81.10339
#
# Poissons Ratio (x) = 0.59056 0.08446
# Poissons Ratio (y) = 0.37443 0.13440
# Poissons Ratio (z) = 0.06007 0.15079
#
# Static dielectric constant tensor:
#      x y z
#    x 3.598820 0.000000 0.000000 
#    y 0.000000 3.693060 0.000000 
#    z 0.000000 0.000000 3.396260 
# 
# 
# High freq. dielectric constant tensor:
#      x y z
#    x 1.778320 0.000000 0.000000 
#    y 0.000000 1.786150 0.000000 
#    z 0.000000 0.000000 1.749040 
# 
# From -- ./inp_files/9453.got.cif
#   From: 2010.03.12/outbox.cif.g09.slc.cpg/sg68_5_cif.got.tgz:9453.got - 2010.04.10 23:14:56.
