data_PCOD8281541
_publ_section_title
;
Structure prediction by ZEFSAII (Michael W. Deem and Ramdas Pophale) SiO2 
 PCOD8281541
Probable space group: C M M A
;
_chemical_formula_sum "Si O2"
_cell_formula_units_Z 72
_cell_length_a 9.784007
_cell_length_b 26.701550
_cell_length_c 13.358814
_cell_angle_alpha 90.000000
_cell_angle_beta 90.000000
_cell_angle_gamma 90.000000
_cell_volume 3489.965472
_symmetry_space_group_name_H-M "C M M A"
_symmetry_group_IT_number 67
_symmetry_cell_setting 'orthorhombic'
loop_
_space_group_symop_operation_xyz
x,y,z
-x,1/2-y,z
x,-y,-z
-x,1/2+y,-z
-x,-y,-z
x,1/2+y,-z
-x,y,z
x,1/2-y,z
1/2+x,1/2+y,z
1/2-x,-y,z
1/2+x,1/2-y,-z
1/2-x,y,-z
1/2-x,1/2-y,-z
1/2+x,y,-z
1/2-x,1/2+y,z
1/2+x,-y,z
loop_
_atom_site_type_symbol
_atom_site_label
_atom_site_fract_x
_atom_site_fract_y
_atom_site_fract_z
Si Si1 0.159512 0.750000 0.102494
Si Si2 0.000000 0.883787 0.912480
Si Si3 0.000000 0.097282 0.867830
Si Si4 0.000000 0.007515 0.177291
Si Si5 0.750273 0.849034 0.206597
Si Si6 0.335910 0.603956 0.407197
Si Si7 0.250000 0.000000 0.322593
O O1 0.188635 0.704622 0.179059
O O2 0.000000 0.750000 0.070546
O O3 0.250000 0.750000 0.000000
O O4 0.000000 0.941877 0.884348
O O5 0.134165 0.857457 0.874380
O O6 0.000000 0.871918 0.029856
O O7 0.133075 0.109088 0.802546
O O8 0.000000 0.038883 0.899492
O O9 0.124015 0.001104 0.250213
O O10 0.686344 0.856340 0.316845
O O11 0.500000 0.599103 0.426980
O O12 0.250000 0.626816 0.500000
O O13 0.265410 0.549792 0.389636
#
# Coordination Sequence:
#
# PCOD8281541 Si02
#       7
#     8   8   8   8  16  16   8
#     4  12  28  46  75 110 137 184 235 282 344 406
#     4  12  23  43  62  99 141 187 234 273 340 413
#     4  12  23  37  70  97 135 195 226 279 336 409
#     4  12  21  38  63  96 142 184 231 268 343 408
#     4  12  25  46  67  99 144 175 229 295 338 404
#     4  12  27  45  70 100 134 182 233 286 351 410
#     4  12  21  40  63  94 136 182 227 290 335 404
#
# _framework density 20.630576999999999
#
# number of rings (size 3 to 8) (size 9 to 14) (size 15 to 20)
#    0.000    0.000    7.778    2.667    4.667    0.889 
#    0.000    3.889    0.000    0.000    0.000    0.000 
#    0.000    0.000    0.000    0.000    0.000    0.000 
#
# Total GULP energy -446211.947857 kJ/mol
# GULP energy per Si atom -12394.776329 kJ/mol
# Density = 2.058362 g / cm^3
# Si number density = 20.630577 Si / 1000 Ang^3
#
#
#
# Elastic Constant Matrix: (Units=GPa)
#
#
# Indices 1 2 3 4 5 6 
#
# 1 114.3166 0.3533 14.8016 0.0000 0.0000 0.0000
# 2 0.3533 90.5746 5.4266 0.0000 0.0000 0.0000
# 3 14.8016 5.4266 95.0672 0.0000 0.0000 0.0000
# 4 0.0000 0.0000 0.0000 23.3018 0.0000 0.0000
# 5 0.0000 0.0000 0.0000 0.0000 40.4528 0.0000
# 6 0.0000 0.0000 0.0000 0.0000 0.0000 21.9658
#
#
#
# Elastic Compliance Matrix: (Units=1/GPa)
#
#
# Indices 1 2 3 4 5 6 
#
# 1 0.008928 0.000049 -0.001393 0.000000 0.000000 0.000000
# 2 0.000049 0.011079 -0.000640 0.000000 0.000000 0.000000
# 3 -0.001393 -0.000640 0.010772 0.000000 0.000000 0.000000
# 4 0.000000 0.000000 0.000000 0.042915 0.000000 0.000000
# 5 0.000000 0.000000 0.000000 0.000000 0.024720 0.000000
# 6 0.000000 0.000000 0.000000 0.000000 0.000000 0.045525
#
#
# Mechanical properties :
#
#
# Convention : Reuss Voigt Hill
#
# Bulk Modulus (GPa) = 37.29871 37.90236 37.60054
# Shear Modulus (GPa) = 31.87869 35.76921 33.82395
#
# Velocity S-wave (km/s) = 3.93519 4.16840 4.05347
# Velocity P-wave (km/s) = 6.22625 6.44820 6.33820
#
# Compressibility (1/GPa) = 0.02681058
#
# Stress axis : x y z
#
# Youngs Moduli (GPa) = 112.00935 90.26269 92.83108
#
# Poissons Ratio (x) = -0.00439 0.12930
# Poissons Ratio (y) = -0.00545 0.05941
# Poissons Ratio (z) = 0.15601 0.05776
#
# Static dielectric constant tensor:
#      x y z
#    x 3.919750 0.000000 0.000000 
#    y 0.000000 3.855050 0.000000 
#    z 0.000000 0.000000 3.718260 
# 
# 
# High freq. dielectric constant tensor:
#      x y z
#    x 1.832980 0.000000 0.000000 
#    y 0.000000 1.797760 0.000000 
#    z 0.000000 0.000000 1.804410 
# 
# From -- ./inp_files/25157.got.cif
#   From: 2010.03.12/outbox.cif.g09.slc.cpg/sg67_13_cif.got.tgz:25157.got - 2010.04.10 22:41:39.
