data_PCOD8281115
_publ_section_title
;
Structure prediction by ZEFSAII (Michael W. Deem and Ramdas Pophale) SiO2 
 PCOD8281115
Probable space group: C M M A
;
_chemical_formula_sum "Si O2"
_cell_formula_units_Z 72
_cell_length_a 9.513759
_cell_length_b 24.547884
_cell_length_c 15.857137
_cell_angle_alpha 90.000000
_cell_angle_beta 90.000000
_cell_angle_gamma 90.000000
_cell_volume 3703.317833
_symmetry_space_group_name_H-M "C M M A"
_symmetry_group_IT_number 67
_symmetry_cell_setting 'orthorhombic'
loop_
_space_group_symop_operation_xyz
x,y,z
-x,1/2-y,z
x,-y,-z
-x,1/2+y,-z
-x,-y,-z
x,1/2+y,-z
-x,y,z
x,1/2-y,z
1/2+x,1/2+y,z
1/2-x,-y,z
1/2+x,1/2-y,-z
1/2-x,y,-z
1/2-x,1/2-y,-z
1/2+x,y,-z
1/2-x,1/2+y,z
1/2+x,-y,z
loop_
_atom_site_type_symbol
_atom_site_label
_atom_site_fract_x
_atom_site_fract_y
_atom_site_fract_z
Si Si1 0.500000 0.312925 0.780959
Si Si2 0.000000 0.456454 0.109034
Si Si3 0.658945 0.946166 0.656280
Si Si4 0.250000 0.621606 0.500000
Si Si5 0.000000 0.583292 0.073810
Si Si6 0.500000 0.313404 0.582563
Si Si7 0.738920 0.892492 0.180301
O O1 0.500000 0.250000 0.804825
O O2 0.500000 0.323974 0.681803
O O3 0.358291 0.338649 0.820430
O O4 0.859046 0.444314 0.160593
O O5 0.000000 0.520151 0.096682
O O6 0.000000 0.416516 0.027288
O O7 0.500000 0.965657 0.668156
O O8 0.675127 0.917161 0.566934
O O9 0.695294 0.902172 0.728066
O O10 0.750000 0.000000 0.662017
O O11 0.362312 0.660025 0.455954
O O12 0.138159 0.613175 0.110444
O O13 0.500000 0.250000 0.560068
#
# Coordination Sequence:
#
# PCOD8281115 Si02
#       7
#     8   8  16   8   8   8  16
#     4  10  23  43  65  87 116 159 209 258 316 368
#     4  10  22  36  59  95 130 166 194 232 297 372
#     4  12  26  39  60  89 127 167 203 245 300 373
#     4  12  24  42  60  90 124 158 208 258 304 372
#     4  11  20  37  61  94 132 158 195 246 296 354
#     4  11  23  42  64  86 117 160 210 270 323 356
#     4  11  22  38  62  88 122 162 205 246 300 362
#
# _framework density 19.442025000000001
#
# number of rings (size 3 to 8) (size 9 to 14) (size 15 to 20)
#    0.000    0.889    4.444    3.333    4.667    2.667 
#    0.000    0.556    0.000   10.667    0.000    0.000 
#    0.000    0.000    0.000    0.000    0.000    0.000 
#
# Total GULP energy -446515.108193 kJ/mol
# GULP energy per Si atom -12403.197450 kJ/mol
# Density = 1.939777 g / cm^3
# Si number density = 19.442025 Si / 1000 Ang^3
#
#
#
# Elastic Constant Matrix: (Units=GPa)
#
#
# Indices 1 2 3 4 5 6 
#
# 1 162.5971 54.5552 34.3145 0.0000 0.0000 0.0000
# 2 54.5552 100.7277 29.4980 0.0000 0.0000 0.0000
# 3 34.3145 29.4980 85.4444 0.0000 0.0000 0.0000
# 4 0.0000 0.0000 0.0000 27.0652 0.0000 0.0000
# 5 0.0000 0.0000 0.0000 0.0000 -241.5352 0.0000
# 6 0.0000 0.0000 0.0000 0.0000 0.0000 43.9038
#
#
#
# Elastic Compliance Matrix: (Units=1/GPa)
#
#
# Indices 1 2 3 4 5 6 
#
# 1 0.007772 -0.003666 -0.001856 0.000000 0.000000 0.000000
# 2 -0.003666 0.012773 -0.002938 0.000000 0.000000 0.000000
# 3 -0.001856 -0.002938 0.013463 0.000000 0.000000 0.000000
# 4 0.000000 0.000000 0.000000 0.036948 0.000000 0.000000
# 5 0.000000 0.000000 0.000000 0.000000 -0.004140 0.000000
# 6 0.000000 0.000000 0.000000 0.000000 0.000000 0.022777
#
#
# Mechanical properties :
#
#
# Convention : Reuss Voigt Hill
#
# Bulk Modulus (GPa) = 58.51352 65.05607 61.78480
# Shear Modulus (GPa) = 44.56027 -18.75314 12.90356
#
# Velocity S-wave (km/s) = 4.79263 -3.10912 2.57902
# Velocity P-wave (km/s) = 7.79663 4.54372 6.38094
#
# Compressibility (1/GPa) = 0.01709007
#
# Stress axis : x y z
#
# Youngs Moduli (GPa) = 128.67106 78.28710 74.27846
#
# Poissons Ratio (x) = 0.28699 0.13783
# Poissons Ratio (y) = 0.47169 0.21820
# Poissons Ratio (z) = 0.23876 0.22997
#
# Static dielectric constant tensor:
#      x y z
#    x 3.709910 0.000000 0.000000 
#    y 0.000000 3.295360 0.000000 
#    z 0.000000 0.000000 3.876740 
# 
# 
# High freq. dielectric constant tensor:
#      x y z
#    x 1.776740 0.000000 0.000000 
#    y 0.000000 1.731840 0.000000 
#    z 0.000000 0.000000 1.770950 
# 
# From -- ./inp_files/25156.got.cif
#   From: 2010.03.12/outbox.cif.g09.slc.cpg/sg67_13_cif.got.tgz:25156.got - 2010.04.10 22:41:39.
