data_PCOD8281426
_publ_section_title
;
Structure prediction by ZEFSAII (Michael W. Deem and Ramdas Pophale) SiO2 
 PCOD8281426
Probable space group: C M M A
;
_chemical_formula_sum "Si O2"
_cell_formula_units_Z 80
_cell_length_a 10.049660
_cell_length_b 17.932152
_cell_length_c 24.436088
_cell_angle_alpha 90.000000
_cell_angle_beta 90.000000
_cell_angle_gamma 90.000000
_cell_volume 4403.677040
_symmetry_space_group_name_H-M "C M M A"
_symmetry_group_IT_number 67
_symmetry_cell_setting 'orthorhombic'
loop_
_space_group_symop_operation_xyz
x,y,z
-x,1/2-y,z
x,-y,-z
-x,1/2+y,-z
-x,-y,-z
x,1/2+y,-z
-x,y,z
x,1/2-y,z
1/2+x,1/2+y,z
1/2-x,-y,z
1/2+x,1/2-y,-z
1/2-x,y,-z
1/2-x,1/2-y,-z
1/2+x,y,-z
1/2-x,1/2+y,z
1/2+x,-y,z
loop_
_atom_site_type_symbol
_atom_site_label
_atom_site_fract_x
_atom_site_fract_y
_atom_site_fract_z
Si Si1 0.735259 0.589261 0.615996
Si Si2 0.500000 0.162768 0.448264
Si Si3 0.848475 0.837217 0.046192
Si Si4 0.650709 0.567725 0.730155
Si Si5 0.348230 0.068943 0.150303
Si Si6 0.000000 0.664171 0.577470
O O1 0.750000 0.500000 0.611382
O O2 0.630110 0.620649 0.572858
O O3 0.688920 0.616350 0.676862
O O4 0.874815 0.625637 0.604364
O O5 0.500000 0.250000 0.431064
O O6 0.500000 0.153686 0.512898
O O7 0.826156 0.750000 0.052358
O O8 0.810054 0.871024 0.104725
O O9 0.000000 0.856464 0.029360
O O10 0.750000 0.870372 0.000000
O O11 0.500000 0.538491 0.722609
O O12 0.750000 0.500000 0.731406
O O13 0.665731 0.608182 0.789417
O O14 0.500000 0.040537 0.142399
O O15 0.250000 0.000000 0.143805
O O16 0.000000 0.750000 0.593995
#
# Coordination Sequence:
#
# PCOD8281426 Si02
#       6
#    16   8  16  16  16   8
#     4  11  22  37  61  87 109 142 189 233 272 325
#     4  11  23  41  59  81 113 149 184 223 278 337
#     4   9  18  33  52  73 103 141 179 220 265 311
#     4   9  18  33  55  82 109 139 176 223 274 319
#     4   9  18  33  53  79 106 138 176 216 265 317
#     4  11  25  41  57  79 117 153 176 221 288 339
#
# _framework density 18.166636
#
# number of rings (size 3 to 8) (size 9 to 14) (size 15 to 20)
#    0.000    2.200    1.000    1.800    4.200    5.200 
#    0.000    4.000    0.000    0.000    0.000    0.000 
#    0.000    0.000    0.000    0.000    0.000    0.000 
#
# Total GULP energy -495729.021131 kJ/mol
# GULP energy per Si atom -12393.225528 kJ/mol
# Density = 1.812529 g / cm^3
# Si number density = 18.166636 Si / 1000 Ang^3
#
#
#
# Elastic Constant Matrix: (Units=GPa)
#
#
# Indices 1 2 3 4 5 6 
#
# 1 142.6566 50.6876 74.7546 0.0000 0.0000 0.0000
# 2 50.6876 73.6196 57.6874 0.0000 0.0000 0.0000
# 3 74.7546 57.6874 145.2052 0.0000 0.0000 0.0000
# 4 0.0000 0.0000 0.0000 12.0949 0.0000 0.0000
# 5 0.0000 0.0000 0.0000 0.0000 34.6850 0.0000
# 6 0.0000 0.0000 0.0000 0.0000 0.0000 20.9329
#
#
#
# Elastic Compliance Matrix: (Units=1/GPa)
#
#
# Indices 1 2 3 4 5 6 
#
# 1 0.010473 -0.004336 -0.003669 0.000000 0.000000 0.000000
# 2 -0.004336 0.021518 -0.006317 0.000000 0.000000 0.000000
# 3 -0.003669 -0.006317 0.011285 0.000000 0.000000 0.000000
# 4 0.000000 0.000000 0.000000 0.082680 0.000000 0.000000
# 5 0.000000 0.000000 0.000000 0.000000 0.028831 0.000000
# 6 0.000000 0.000000 0.000000 0.000000 0.000000 0.047772
#
#
# Mechanical properties :
#
#
# Convention : Reuss Voigt Hill
#
# Bulk Modulus (GPa) = 68.33700 80.86004 74.59852
# Shear Modulus (GPa) = 21.17928 25.43267 23.30597
#
# Velocity S-wave (km/s) = 3.41813 3.74567 3.58564
# Velocity P-wave (km/s) = 7.29908 7.95698 7.63512
#
# Compressibility (1/GPa) = 0.01463336
#
# Stress axis : x y z
#
# Youngs Moduli (GPa) = 95.48257 46.47254 88.61030
#
# Poissons Ratio (x) = 0.20148 0.32514
# Poissons Ratio (y) = 0.41397 0.55973
# Poissons Ratio (z) = 0.35036 0.29355
#
# Static dielectric constant tensor:
#      x y z
#    x 3.476390 0.000000 0.000000 
#    y 0.000000 3.173000 0.000000 
#    z 0.000000 0.000000 4.065120 
# 
# 
# High freq. dielectric constant tensor:
#      x y z
#    x 1.723920 0.000000 0.000000 
#    y 0.000000 1.668680 0.000000 
#    z 0.000000 0.000000 1.726010 
# 
# From -- ./inp_files/43368.got.cif
#   From: 2010.03.12/outbox.cif.g09.slc.cpg/sg67_22_cif.got.tgz:43368.got - 2010.04.10 22:41:39.
