data_PCOD8281693
_publ_section_title
;
Structure prediction by ZEFSAII (Michael W. Deem and Ramdas Pophale) SiO2 
 PCOD8281693
Probable space group: C C C A
;
_chemical_formula_sum "Si O2"
_cell_formula_units_Z 120
_cell_length_a 23.138772
_cell_length_b 21.705883
_cell_length_c 14.902165
_cell_angle_alpha 90.000000
_cell_angle_beta 90.000000
_cell_angle_gamma 90.000000
_cell_volume 7484.574785
_symmetry_space_group_name_H-M "C C C A"
_symmetry_group_IT_number 68
_space_group.IT_coordinate_system_code '2'
_symmetry_cell_setting 'orthorhombic'
loop_
_space_group_symop_operation_xyz
x,y,z
-x,1/2-y,z
x,1/2-y,1/2-z
-x,y,1/2-z
-x,-y,-z
x,1/2+y,-z
-x,1/2+y,1/2+z
x,-y,1/2+z
1/2+x,1/2+y,z
1/2-x,-y,z
1/2+x,-y,1/2-z
1/2-x,1/2+y,1/2-z
1/2-x,1/2-y,-z
1/2+x,y,-z
1/2-x,y,1/2+z
1/2+x,1/2-y,1/2+z
loop_
_atom_site_type_symbol
_atom_site_label
_atom_site_fract_x
_atom_site_fract_y
_atom_site_fract_z
Si Si1 0.293986 0.945320 0.543804
Si Si2 0.198622 0.377624 0.778927
Si Si3 0.215046 0.937883 0.843161
Si Si4 0.613378 0.513302 0.777259
Si Si5 0.640955 0.250000 0.250000
Si Si6 0.035170 0.568611 0.072723
Si Si7 0.418266 0.004003 0.081005
Si Si8 0.964397 0.803681 0.158050
O O1 0.285005 0.893786 0.619021
O O2 0.281872 0.915881 0.446367
O O3 0.358507 0.970770 0.543348
O O4 0.250000 0.000000 0.566349
O O5 0.255948 0.384652 0.717364
O O6 0.148422 0.423179 0.742027
O O7 0.180378 0.306426 0.783071
O O8 0.250000 0.000000 0.828612
O O9 0.150502 0.955471 0.812921
O O10 0.563814 0.527411 0.849189
O O11 0.584899 0.488247 0.685999
O O12 0.599957 0.221936 0.173313
O O13 0.042214 0.639991 0.091962
O O14 0.967318 0.555189 0.065689
O O15 0.065746 0.556299 0.977142
O O16 0.000000 0.750000 0.107663
O O17 0.000000 0.820697 0.250000
#
# Coordination Sequence:
#
# PCOD8281693 Si02
#       8
#    16  16  16  16   8  16  16  16
#     4  10  19  33  51  73  99 131 172 209 256 316
#     4  10  19  31  50  72  99 131 174 215 248 301
#     4   9  18  32  50  73  95 132 170 207 260 304
#     4  10  17  32  50  72 105 137 161 208 266 311
#     4  10  19  32  48  74  98 136 173 206 256 302
#     4  11  19  32  47  78 108 134 167 214 256 310
#     4  10  21  28  49  77 105 133 165 211 264 303
#     4   9  19  30  47  69  99 143 170 200 254 307
#
# _framework density 16.032975
#
# number of rings (size 3 to 8) (size 9 to 14) (size 15 to 20)
#    0.000    2.267    2.667    3.200    5.600    0.000 
#    0.000    0.667    0.000    0.000    0.000    0.000 
#    0.000    8.533    0.000    0.000    0.000    0.000 
#
# Total GULP energy -743731.179919 kJ/mol
# GULP energy per Si atom -12395.519665 kJ/mol
# Density = 1.599648 g / cm^3
# Si number density = 16.032975 Si / 1000 Ang^3
#
#
#
# Elastic Constant Matrix: (Units=GPa)
#
#
# Indices 1 2 3 4 5 6 
#
# 1 88.6743 49.0401 38.3592 0.0000 0.0000 0.0000
# 2 49.0401 109.6724 60.9453 0.0000 0.0000 0.0000
# 3 38.3592 60.9453 96.0776 0.0000 0.0000 0.0000
# 4 0.0000 0.0000 0.0000 19.6297 0.0000 0.0000
# 5 0.0000 0.0000 0.0000 0.0000 70.7073 0.0000
# 6 0.0000 0.0000 0.0000 0.0000 0.0000 17.3767
#
#
#
# Elastic Compliance Matrix: (Units=1/GPa)
#
#
# Indices 1 2 3 4 5 6 
#
# 1 0.015441 -0.005372 -0.002757 0.000000 0.000000 0.000000
# 2 -0.005372 0.015951 -0.007973 0.000000 0.000000 0.000000
# 3 -0.002757 -0.007973 0.016567 0.000000 0.000000 0.000000
# 4 0.000000 0.000000 0.000000 0.050943 0.000000 0.000000
# 5 0.000000 0.000000 0.000000 0.000000 0.014143 0.000000
# 6 0.000000 0.000000 0.000000 0.000000 0.000000 0.057548
#
#
# Mechanical properties :
#
#
# Convention : Reuss Voigt Hill
#
# Bulk Modulus (GPa) = 63.47841 65.67927 64.57884
# Shear Modulus (GPa) = 24.03269 31.28139 27.65704
#
# Velocity S-wave (km/s) = 3.87583 4.42188 4.15783
# Velocity P-wave (km/s) = 7.72708 8.19297 7.96343
#
# Compressibility (1/GPa) = 0.01575339
#
# Stress axis : x y z
#
# Youngs Moduli (GPa) = 64.76274 62.69115 60.36163
#
# Poissons Ratio (x) = 0.33680 0.16641
# Poissons Ratio (y) = 0.34793 0.48129
# Poissons Ratio (z) = 0.17855 0.49987
#
# Static dielectric constant tensor:
#      x y z
#    x 3.224460 0.000000 0.000000 
#    y 0.000000 2.788420 0.000000 
#    z 0.000000 0.000000 3.126410 
# 
# 
# High freq. dielectric constant tensor:
#      x y z
#    x 1.626800 0.000000 0.000000 
#    y 0.000000 1.577510 0.000000 
#    z 0.000000 0.000000 1.613210 
# 
# From -- ./inp_files/24837.got.cif
#   From: 2010.03.12/outbox.cif.g09.slc.cpg/sg68_13_cif.got.tgz:24837.got - 2010.04.10 23:14:56.
