data_PCOD8281748
_publ_section_title
;
Structure prediction by ZEFSAII (Michael W. Deem and Ramdas Pophale) SiO2 
 PCOD8281748
Probable space group: C C C A
;
_chemical_formula_sum "Si O2"
_cell_formula_units_Z 104
_cell_length_a 12.696431
_cell_length_b 24.651785
_cell_length_c 18.733160
_cell_angle_alpha 90.000000
_cell_angle_beta 90.000000
_cell_angle_gamma 90.000000
_cell_volume 5863.285890
_symmetry_space_group_name_H-M "C C C A"
_symmetry_group_IT_number 68
_space_group.IT_coordinate_system_code '2'
_symmetry_cell_setting 'orthorhombic'
loop_
_space_group_symop_operation_xyz
x,y,z
-x,1/2-y,z
x,1/2-y,1/2-z
-x,y,1/2-z
-x,-y,-z
x,1/2+y,-z
-x,1/2+y,1/2+z
x,-y,1/2+z
1/2+x,1/2+y,z
1/2-x,-y,z
1/2+x,-y,1/2-z
1/2-x,1/2+y,1/2-z
1/2-x,1/2-y,-z
1/2+x,y,-z
1/2-x,y,1/2+z
1/2+x,1/2-y,1/2+z
loop_
_atom_site_type_symbol
_atom_site_label
_atom_site_fract_x
_atom_site_fract_y
_atom_site_fract_z
Si Si1 0.956384 0.940436 0.485932
Si Si2 0.722572 0.060919 0.718009
Si Si3 0.999376 0.189050 0.370601
Si Si4 0.691956 0.625547 0.415887
Si Si5 0.715074 0.561384 0.626808
Si Si6 0.141716 0.366881 0.471771
Si Si7 0.500000 0.895005 0.250000
O O1 0.873435 0.923825 0.547851
O O2 0.900170 0.933524 0.408896
O O3 0.055671 0.901422 0.485981
O O4 0.000000 0.000000 0.500000
O O5 0.752047 0.101438 0.653444
O O6 0.788271 0.077076 0.789188
O O7 0.596807 0.065832 0.730983
O O8 0.750000 0.000000 0.694561
O O9 0.117211 0.175261 0.395239
O O10 0.963583 0.144569 0.313310
O O11 0.000000 0.250000 0.339955
O O12 0.915820 0.184720 0.435690
O O13 0.775125 0.652678 0.469483
O O14 0.750000 0.500000 0.617976
O O15 0.801449 0.598173 0.588760
#
# Coordination Sequence:
#
# PCOD8281748 Si02
#       7
#    16  16  16  16  16  16   8
#     4  10  19  30  53  72 105 147 183 209 261 328
#     4  10  21  33  51  76 114 145 174 219 265 319
#     4  10  20  36  59  80 101 140 183 237 285 308
#     4   9  22  34  49  79 109 137 181 224 265 329
#     4  10  18  31  49  75 105 145 180 214 262 316
#     4  10  19  35  51  77 108 137 176 226 261 330
#     4  10  19  38  56  80 114 136 183 226 270 330
#
# _framework density 17.737494999999999
#
# number of rings (size 3 to 8) (size 9 to 14) (size 15 to 20)
#    0.000    2.154    3.077    0.231    2.154    0.615 
#    0.000    0.000    0.000    0.000    0.000    0.000 
#    0.000    0.000    0.000    0.000    0.000    0.000 
#
# Total GULP energy -644634.944634 kJ/mol
# GULP energy per Si atom -12396.825858 kJ/mol
# Density = 1.769712 g / cm^3
# Si number density = 17.737495 Si / 1000 Ang^3
#
#
#
# Elastic Constant Matrix: (Units=GPa)
#
#
# Indices 1 2 3 4 5 6 
#
# 1 69.9609 31.7171 32.3136 0.0000 0.0000 0.0000
# 2 31.7171 77.2629 20.7547 0.0000 0.0000 0.0000
# 3 32.3136 20.7547 91.9215 0.0000 0.0000 0.0000
# 4 0.0000 0.0000 0.0000 21.9878 0.0000 0.0000
# 5 0.0000 0.0000 0.0000 0.0000 41.3273 0.0000
# 6 0.0000 0.0000 0.0000 0.0000 0.0000 12.5829
#
#
#
# Elastic Compliance Matrix: (Units=1/GPa)
#
#
# Indices 1 2 3 4 5 6 
#
# 1 0.019847 -0.006678 -0.005469 0.000000 0.000000 0.000000
# 2 -0.006678 0.016026 -0.001271 0.000000 0.000000 0.000000
# 3 -0.005469 -0.001271 0.013088 0.000000 0.000000 0.000000
# 4 0.000000 0.000000 0.000000 0.045480 0.000000 0.000000
# 5 0.000000 0.000000 0.000000 0.000000 0.024197 0.000000
# 6 0.000000 0.000000 0.000000 0.000000 0.000000 0.079473
#
#
# Mechanical properties :
#
#
# Convention : Reuss Voigt Hill
#
# Bulk Modulus (GPa) = 45.19780 45.41289 45.30535
# Shear Modulus (GPa) = 21.52175 25.47025 23.49600
#
# Velocity S-wave (km/s) = 3.48709 3.79351 3.64352
# Velocity P-wave (km/s) = 6.46142 6.69671 6.58012
#
# Compressibility (1/GPa) = 0.02212497
#
# Stress axis : x y z
#
# Youngs Moduli (GPa) = 50.38422 62.39975 76.40374
#
# Poissons Ratio (x) = 0.41673 0.41787
# Poissons Ratio (y) = 0.33649 0.09709
# Poissons Ratio (z) = 0.27556 0.07929
#
# Static dielectric constant tensor:
#      x y z
#    x 3.345960 0.000000 0.000000 
#    y 0.000000 3.106000 0.000000 
#    z 0.000000 0.000000 3.579170 
# 
# 
# High freq. dielectric constant tensor:
#      x y z
#    x 1.683510 0.000000 0.000000 
#    y 0.000000 1.654640 0.000000 
#    z 0.000000 0.000000 1.695640 
# 
# From -- ./inp_files/29984.got.cif
#   From: 2010.03.12/outbox.cif.g09.slc.cpg/sg68_15_cif.got.tgz:29984.got - 2010.04.10 23:14:56.
