data_PCOD8281095
_publ_section_title
;
Structure prediction by ZEFSAII (Michael W. Deem and Ramdas Pophale) SiO2 
 PCOD8281095
Probable space group: C M M A
;
_chemical_formula_sum "Si O2"
_cell_formula_units_Z 72
_cell_length_a 14.401771
_cell_length_b 9.357676
_cell_length_c 26.430371
_cell_angle_alpha 90.000000
_cell_angle_beta 90.000000
_cell_angle_gamma 90.000000
_cell_volume 3561.944632
_symmetry_space_group_name_H-M "C M M A"
_symmetry_group_IT_number 67
_symmetry_cell_setting 'orthorhombic'
loop_
_space_group_symop_operation_xyz
x,y,z
-x,1/2-y,z
x,-y,-z
-x,1/2+y,-z
-x,-y,-z
x,1/2+y,-z
-x,y,z
x,1/2-y,z
1/2+x,1/2+y,z
1/2-x,-y,z
1/2+x,1/2-y,-z
1/2-x,y,-z
1/2-x,1/2-y,-z
1/2+x,y,-z
1/2-x,1/2+y,z
1/2+x,-y,z
loop_
_atom_site_type_symbol
_atom_site_label
_atom_site_fract_x
_atom_site_fract_y
_atom_site_fract_z
Si Si1 0.149073 0.476352 0.623144
Si Si2 0.611679 0.750000 0.543414
Si Si3 0.650796 0.078499 0.133789
Si Si4 0.500000 0.423162 0.800540
Si Si5 0.500000 0.411997 0.050694
Si Si6 0.100488 0.250000 0.433392
Si Si7 0.000000 0.905407 0.297184
O O1 0.250000 0.500000 0.646750
O O2 0.154895 0.383860 0.572326
O O3 0.108047 0.622941 0.605182
O O4 0.089825 0.407942 0.667521
O O5 0.500000 0.750000 0.548941
O O6 0.656665 0.750000 0.486496
O O7 0.660993 0.250000 0.145235
O O8 0.593254 0.054542 0.082265
O O9 0.750000 0.000000 0.128653
O O10 0.592761 0.996893 0.177160
O O11 0.500000 0.250000 0.808165
O O12 0.500000 0.461909 0.741301
O O13 0.500000 0.250000 0.033187
O O14 0.500000 0.500000 0.000000
O O15 0.000000 0.250000 0.458408
O O16 0.000000 0.750000 0.269244
#
# Coordination Sequence:
#
# PCOD8281095 Si02
#       7
#    16   8  16   8   8   8   8
#     4  12  24  40  62  87 117 153 192 238 298 360
#     4  11  21  43  61  86 117 159 190 227 299 362
#     4  10  21  41  66  97 134 175 226 278 329 385
#     4  11  25  43  69  94 121 161 213 272 335 394
#     4   9  20  36  58  93 140 191 232 277 328 375
#     4  11  23  37  65  88 119 149 192 245 283 354
#     4  12  25  47  63  84 122 158 193 248 317 383
#
# _framework density 20.213676
#
# number of rings (size 3 to 8) (size 9 to 14) (size 15 to 20)
#    0.000    1.111    3.333    3.667    1.556    8.444 
#    0.000    4.444    0.000    0.000    0.000    0.000 
#    0.000    0.000    0.000    0.000    0.000    0.000 
#
# Total GULP energy -446094.227769 kJ/mol
# GULP energy per Si atom -12391.506327 kJ/mol
# Density = 2.016767 g / cm^3
# Si number density = 20.213676 Si / 1000 Ang^3
#
#
#
# Elastic Constant Matrix: (Units=GPa)
#
#
# Indices 1 2 3 4 5 6 
#
# 1 145.4855 41.2693 34.8254 0.0000 0.0000 0.0000
# 2 41.2693 161.8372 47.9667 0.0000 0.0000 0.0000
# 3 34.8254 47.9667 103.6945 0.0000 0.0000 0.0000
# 4 0.0000 0.0000 0.0000 41.0631 0.0000 0.0000
# 5 0.0000 0.0000 0.0000 0.0000 -125.3613 0.0000
# 6 0.0000 0.0000 0.0000 0.0000 0.0000 34.4370
#
#
#
# Elastic Compliance Matrix: (Units=1/GPa)
#
#
# Indices 1 2 3 4 5 6 
#
# 1 0.007737 -0.001394 -0.001954 0.000000 0.000000 0.000000
# 2 -0.001394 0.007412 -0.002960 0.000000 0.000000 0.000000
# 3 -0.001954 -0.002960 0.011669 0.000000 0.000000 0.000000
# 4 0.000000 0.000000 0.000000 0.024353 0.000000 0.000000
# 5 0.000000 0.000000 0.000000 0.000000 -0.007977 0.000000
# 6 0.000000 0.000000 0.000000 0.000000 0.000000 0.029039
#
#
# Mechanical properties :
#
#
# Convention : Reuss Voigt Hill
#
# Bulk Modulus (GPa) = 70.41250 73.23779 71.82515
# Shear Modulus (GPa) = 55.81486 9.15813 32.48650
#
# Velocity S-wave (km/s) = 5.26045 2.13084 4.01328
# Velocity P-wave (km/s) = 8.47385 6.50880 7.55548
#
# Compressibility (1/GPa) = 0.01420202
#
# Stress axis : x y z
#
# Youngs Moduli (GPa) = 129.25660 134.91747 85.69532
#
# Poissons Ratio (x) = 0.18806 0.16741
# Poissons Ratio (y) = 0.18016 0.25370
# Poissons Ratio (z) = 0.25251 0.39942
#
# Static dielectric constant tensor:
#      x y z
#    x 3.725360 0.000000 0.000000 
#    y 0.000000 3.809590 0.000000 
#    z 0.000000 0.000000 3.441660 
# 
# 
# High freq. dielectric constant tensor:
#      x y z
#    x 1.798820 0.000000 0.000000 
#    y 0.000000 1.807850 0.000000 
#    z 0.000000 0.000000 1.775850 
# 
# From -- ./inp_files/43164.got.cif
#   From: 2010.03.12/outbox.cif.g09.slc.cpg/sg67_22_cif.got.tgz:43164.got - 2010.04.10 22:41:39.
