data_PCOD8281409
_publ_section_title
;
Structure prediction by ZEFSAII (Michael W. Deem and Ramdas Pophale) SiO2 
 PCOD8281409
Probable space group: C M M A
;
_chemical_formula_sum "Si O2"
_cell_formula_units_Z 112
_cell_length_a 17.171795
_cell_length_b 14.011130
_cell_length_c 22.649931
_cell_angle_alpha 90.000000
_cell_angle_beta 90.000000
_cell_angle_gamma 90.000000
_cell_volume 5449.488508
_symmetry_space_group_name_H-M "C M M A"
_symmetry_group_IT_number 67
_symmetry_cell_setting 'orthorhombic'
loop_
_space_group_symop_operation_xyz
x,y,z
-x,1/2-y,z
x,-y,-z
-x,1/2+y,-z
-x,-y,-z
x,1/2+y,-z
-x,y,z
x,1/2-y,z
1/2+x,1/2+y,z
1/2-x,-y,z
1/2+x,1/2-y,-z
1/2-x,y,-z
1/2-x,1/2-y,-z
1/2+x,y,-z
1/2-x,1/2+y,z
1/2+x,-y,z
loop_
_atom_site_type_symbol
_atom_site_label
_atom_site_fract_x
_atom_site_fract_y
_atom_site_fract_z
Si Si1 0.165377 0.390037 0.013976
Si Si2 0.658528 0.017334 0.404721
Si Si3 0.158085 0.143783 0.488246
Si Si4 0.161580 0.473606 0.807124
Si Si5 0.407720 0.360917 0.299551
Si Si6 0.088340 0.643225 0.862276
Si Si7 0.086749 0.145375 0.900366
O O1 0.143368 0.368723 0.081147
O O2 0.165188 0.500000 0.000000
O O3 0.250000 0.345588 0.000000
O O4 0.103015 0.342921 0.969948
O O5 0.627437 0.091915 0.453445
O O6 0.621571 0.058716 0.345478
O O7 0.750000 0.000000 0.395736
O O8 0.631264 0.912923 0.428853
O O9 0.123562 0.250000 0.482975
O O10 0.250000 0.144572 0.500000
O O11 0.250000 0.500000 0.793113
O O12 0.128037 0.396409 0.761672
O O13 0.114010 0.572943 0.809094
O O14 0.151004 0.424083 0.871143
O O15 0.500000 0.364938 0.296167
O O16 0.381247 0.250000 0.312744
O O17 0.097212 0.750000 0.837048
O O18 0.000000 0.621318 0.881088
O O19 0.090884 0.250000 0.870920
O O20 0.000000 0.102414 0.890818
#
# Coordination Sequence:
#
# PCOD8281409 Si02
#       7
#    16  16  16  16  16  16  16
#     4  11  22  36  57  88 119 152 188 232 284 340
#     4   9  17  32  56  89 123 159 204 251 292 339
#     4   8  14  27  52  87 127 166 202 242 290 341
#     4  12  25  42  63  86 111 144 192 245 296 347
#     4  11  24  42  63  86 116 156 199 247 301 354
#     4  11  24  41  61  85 115 151 186 227 290 361
#     4  11  23  39  62  89 116 149 188 234 290 350
#
# _framework density 20.552387
#
# number of rings (size 3 to 8) (size 9 to 14) (size 15 to 20)
#    0.000    1.571    1.429    5.143    0.000    6.857 
#    0.000    2.143    0.000    2.143    0.000    0.000 
#    0.000    0.000    0.000    0.000    0.000    0.000 
#
# Total GULP energy -693858.825532 kJ/mol
# GULP energy per Si atom -12390.336170 kJ/mol
# Density = 2.050561 g / cm^3
# Si number density = 20.552387 Si / 1000 Ang^3
#
#
#
# Elastic Constant Matrix: (Units=GPa)
#
#
# Indices 1 2 3 4 5 6 
#
# 1 95.0912 42.3115 23.9157 0.0000 0.0000 0.0000
# 2 42.3115 151.4012 38.4258 0.0000 0.0000 0.0000
# 3 23.9157 38.4258 74.8179 0.0000 0.0000 0.0000
# 4 0.0000 0.0000 0.0000 27.7542 0.0000 0.0000
# 5 0.0000 0.0000 0.0000 0.0000 3.7779 0.0000
# 6 0.0000 0.0000 0.0000 0.0000 0.0000 29.2981
#
#
#
# Elastic Compliance Matrix: (Units=1/GPa)
#
#
# Indices 1 2 3 4 5 6 
#
# 1 0.012407 -0.002830 -0.002513 0.000000 0.000000 0.000000
# 2 -0.002830 0.008240 -0.003328 0.000000 0.000000 0.000000
# 3 -0.002513 -0.003328 0.015878 0.000000 0.000000 0.000000
# 4 0.000000 0.000000 0.000000 0.036031 0.000000 0.000000
# 5 0.000000 0.000000 0.000000 0.000000 0.264697 0.000000
# 6 0.000000 0.000000 0.000000 0.000000 0.000000 0.034132
#
#
# Mechanical properties :
#
#
# Convention : Reuss Voigt Hill
#
# Bulk Modulus (GPa) = 52.12256 58.95735 55.53995
# Shear Modulus (GPa) = 12.65439 26.60988 19.63213
#
# Velocity S-wave (km/s) = 2.48405 3.60214 3.09402
# Velocity P-wave (km/s) = 5.80028 6.78596 6.31239
#
# Compressibility (1/GPa) = 0.01918555
#
# Stress axis : x y z
#
# Youngs Moduli (GPa) = 80.59796 121.35451 62.98015
#
# Poissons Ratio (x) = 0.34339 0.15825
# Poissons Ratio (y) = 0.22807 0.20958
# Poissons Ratio (z) = 0.20252 0.40382
#
# Static dielectric constant tensor:
#      x y z
#    x 3.609910 0.000000 0.000000 
#    y 0.000000 4.224600 0.000000 
#    z 0.000000 0.000000 3.569610 
# 
# 
# High freq. dielectric constant tensor:
#      x y z
#    x 1.786380 0.000000 0.000000 
#    y 0.000000 1.826810 0.000000 
#    z 0.000000 0.000000 1.780360 
# 
# From -- ./inp_files/41957.got.cif
#   From: 2010.03.12/outbox.cif.g09.slc.cpg/sg67_21_cif.got.tgz:41957.got - 2010.04.10 22:41:39.
