data_PCOD8281084
_publ_section_title
;
Structure prediction by ZEFSAII (Michael W. Deem and Ramdas Pophale) SiO2 
 PCOD8281084
Probable space group: C M M A
;
_chemical_formula_sum "Si O2"
_cell_formula_units_Z 64
_cell_length_a 16.323074
_cell_length_b 10.653257
_cell_length_c 18.082555
_cell_angle_alpha 90.000000
_cell_angle_beta 90.000000
_cell_angle_gamma 90.000000
_cell_volume 3144.446053
_symmetry_space_group_name_H-M "C M M A"
_symmetry_group_IT_number 67
_symmetry_cell_setting 'orthorhombic'
loop_
_space_group_symop_operation_xyz
x,y,z
-x,1/2-y,z
x,-y,-z
-x,1/2+y,-z
-x,-y,-z
x,1/2+y,-z
-x,y,z
x,1/2-y,z
1/2+x,1/2+y,z
1/2-x,-y,z
1/2+x,1/2-y,-z
1/2-x,y,-z
1/2-x,1/2-y,-z
1/2+x,y,-z
1/2-x,1/2+y,z
1/2+x,-y,z
loop_
_atom_site_type_symbol
_atom_site_label
_atom_site_fract_x
_atom_site_fract_y
_atom_site_fract_z
Si Si1 0.592466 0.608971 0.808378
Si Si2 0.844617 0.003867 0.663963
Si Si3 0.594941 0.750000 0.409502
Si Si4 0.339987 0.614886 0.962860
Si Si5 0.404262 0.250000 0.417539
O O1 0.500000 0.587429 0.838437
O O2 0.601746 0.750000 0.775974
O O3 0.609146 0.512243 0.742416
O O4 0.658188 0.590368 0.874688
O O5 0.864613 0.123343 0.613417
O O6 0.750000 0.000000 0.682359
O O7 0.867694 0.875277 0.624530
O O8 0.500000 0.750000 0.391967
O O9 0.613577 0.750000 0.495884
O O10 0.382292 0.750000 0.978589
O O11 0.390075 0.500000 0.000000
O O12 0.250000 0.616389 0.000000
O O13 0.500000 0.250000 0.398367
#
# Coordination Sequence:
#
# PCOD8281084 Si02
#       5
#    16  16   8  16   8
#     4  10  21  40  66  89 123 172 219 250 302 393
#     4  12  25  40  64  98 130 170 215 270 321 376
#     4  11  25  43  65  97 133 164 211 278 327 365
#     4   9  19  36  59  87 118 157 197 257 306 372
#     4  11  23  45  71  89 123 180 221 252 319 403
#
# _framework density 20.353345999999998
#
# number of rings (size 3 to 8) (size 9 to 14) (size 15 to 20)
#    0.000    1.500    1.250    3.750    3.500    5.500 
#    2.250    0.000    0.000    0.000    0.000    0.000 
#    0.000    0.000    0.000    0.000    0.000    0.000 
#
# Total GULP energy -396572.197431 kJ/mol
# GULP energy per Si atom -12392.881170 kJ/mol
# Density = 2.030702 g / cm^3
# Si number density = 20.353346 Si / 1000 Ang^3
#
#
#
# Elastic Constant Matrix: (Units=GPa)
#
#
# Indices 1 2 3 4 5 6 
#
# 1 90.2314 21.0733 50.7285 0.0000 0.0000 0.0000
# 2 21.0733 168.3131 41.7931 0.0000 0.0000 0.0000
# 3 50.7285 41.7931 74.3636 0.0000 0.0000 0.0000
# 4 0.0000 0.0000 0.0000 43.6788 0.0000 0.0000
# 5 0.0000 0.0000 0.0000 0.0000 36.4408 0.0000
# 6 0.0000 0.0000 0.0000 0.0000 0.0000 35.5608
#
#
#
# Elastic Compliance Matrix: (Units=1/GPa)
#
#
# Indices 1 2 3 4 5 6 
#
# 1 0.018101 0.000929 -0.012871 0.000000 0.000000 0.000000
# 2 0.000929 0.006953 -0.004542 0.000000 0.000000 0.000000
# 3 -0.012871 -0.004542 0.024780 0.000000 0.000000 0.000000
# 4 0.000000 0.000000 0.000000 0.022894 0.000000 0.000000
# 5 0.000000 0.000000 0.000000 0.000000 0.027442 0.000000
# 6 0.000000 0.000000 0.000000 0.000000 0.000000 0.028121
#
#
# Mechanical properties :
#
#
# Convention : Reuss Voigt Hill
#
# Bulk Modulus (GPa) = 59.28197 62.23310 60.75754
# Shear Modulus (GPa) = 29.96185 37.75696 33.85940
#
# Velocity S-wave (km/s) = 3.84094 4.31173 4.08312
# Velocity P-wave (km/s) = 6.99000 7.44518 7.22118
#
# Compressibility (1/GPa) = 0.01686853
#
# Stress axis : x y z
#
# Youngs Moduli (GPa) = 55.24422 143.83071 40.35557
#
# Poissons Ratio (x) = -0.13369 0.51940
# Poissons Ratio (y) = -0.05135 0.18328
# Poissons Ratio (z) = 0.71103 0.65321
#
# Static dielectric constant tensor:
#      x y z
#    x 3.634730 0.000000 0.000000 
#    y 0.000000 4.420570 0.000000 
#    z 0.000000 0.000000 3.740270 
# 
# 
# High freq. dielectric constant tensor:
#      x y z
#    x 1.783260 0.000000 0.000000 
#    y 0.000000 1.811860 0.000000 
#    z 0.000000 0.000000 1.802780 
# 
# From -- ./inp_files/32664.got.cif
#   From: 2010.03.12/outbox.cif.g09.slc.cpg/sg67_17_cif.got.tgz:32664.got - 2010.04.10 22:41:39.
