data_PCOD8281012
_publ_section_title
;
Structure prediction by ZEFSAII (Michael W. Deem and Ramdas Pophale) SiO2 
 PCOD8281012
Probable space group: C M M A
;
_chemical_formula_sum "Si O2"
_cell_formula_units_Z 64
_cell_length_a 14.998993
_cell_length_b 8.567817
_cell_length_c 24.296455
_cell_angle_alpha 90.000000
_cell_angle_beta 90.000000
_cell_angle_gamma 90.000000
_cell_volume 3122.304078
_symmetry_space_group_name_H-M "C M M A"
_symmetry_group_IT_number 67
_symmetry_cell_setting 'orthorhombic'
loop_
_space_group_symop_operation_xyz
x,y,z
-x,1/2-y,z
x,-y,-z
-x,1/2+y,-z
-x,-y,-z
x,1/2+y,-z
-x,y,z
x,1/2-y,z
1/2+x,1/2+y,z
1/2-x,-y,z
1/2+x,1/2-y,-z
1/2-x,y,-z
1/2-x,1/2-y,-z
1/2+x,y,-z
1/2-x,1/2+y,z
1/2+x,-y,z
loop_
_atom_site_type_symbol
_atom_site_label
_atom_site_fract_x
_atom_site_fract_y
_atom_site_fract_z
Si Si1 0.347592 0.069612 0.946794
Si Si2 0.346829 0.065066 0.441545
Si Si3 0.650712 0.566005 0.174678
Si Si4 0.500000 0.067563 0.249792
Si Si5 0.500000 0.933108 0.368789
O O1 0.340649 0.250000 0.957441
O O2 0.389824 0.035051 0.886792
O O3 0.250000 0.000000 0.945761
O O4 0.401072 0.000000 0.000000
O O5 0.343190 0.250000 0.444775
O O6 0.380852 0.000000 0.500000
O O7 0.250000 0.000000 0.426746
O O8 0.412524 0.011112 0.394016
O O9 0.650693 0.750000 0.187889
O O10 0.750000 0.500000 0.180783
O O11 0.588574 0.474163 0.216451
O O12 0.500000 0.250000 0.264346
O O13 0.500000 0.964585 0.304326
O O14 0.500000 0.750000 0.380924
#
# Coordination Sequence:
#
# PCOD8281012 Si02
#       5
#    16  16  16   8   8
#     4   9  16  27  49  79 111 144 184 231 288 351
#     4  11  22  40  65  97 131 165 203 245 294 350
#     4  10  21  39  61  86 116 154 195 243 298 356
#     4  12  26  43  62  87 116 154 203 252 297 352
#     4  12  25  43  64  89 122 162 203 250 300 350
#
# _framework density 20.497682999999999
#
# number of rings (size 3 to 8) (size 9 to 14) (size 15 to 20)
#    0.000    1.500    0.000    7.875    0.000    4.000 
#    0.000    5.625    0.000    0.000    0.000    0.000 
#    0.000    0.000    0.000    0.000    0.000    0.000 
#
# Total GULP energy -396700.679736 kJ/mol
# GULP energy per Si atom -12396.896242 kJ/mol
# Density = 2.045103 g / cm^3
# Si number density = 20.497683 Si / 1000 Ang^3
#
#
#
# Elastic Constant Matrix: (Units=GPa)
#
#
# Indices 1 2 3 4 5 6 
#
# 1 89.3521 35.1115 52.5623 0.0000 0.0000 0.0000
# 2 35.1115 148.7047 43.5901 0.0000 0.0000 0.0000
# 3 52.5623 43.5901 130.4465 0.0000 0.0000 0.0000
# 4 0.0000 0.0000 0.0000 35.8176 0.0000 0.0000
# 5 0.0000 0.0000 0.0000 0.0000 31.9193 0.0000
# 6 0.0000 0.0000 0.0000 0.0000 0.0000 31.7409
#
#
#
# Elastic Compliance Matrix: (Units=1/GPa)
#
#
# Indices 1 2 3 4 5 6 
#
# 1 0.015180 -0.001986 -0.005453 0.000000 0.000000 0.000000
# 2 -0.001986 0.007715 -0.001778 0.000000 0.000000 0.000000
# 3 -0.005453 -0.001778 0.010457 0.000000 0.000000 0.000000
# 4 0.000000 0.000000 0.000000 0.027919 0.000000 0.000000
# 5 0.000000 0.000000 0.000000 0.000000 0.031329 0.000000
# 6 0.000000 0.000000 0.000000 0.000000 0.000000 0.031505
#
#
# Mechanical properties :
#
#
# Convention : Reuss Voigt Hill
#
# Bulk Modulus (GPa) = 67.03007 70.11458 68.57232
# Shear Modulus (GPa) = 33.89572 35.71150 34.80361
#
# Velocity S-wave (km/s) = 4.07090 4.17852 4.12506
# Velocity P-wave (km/s) = 7.40734 7.58686 7.49763
#
# Compressibility (1/GPa) = 0.01491868
#
# Stress axis : x y z
#
# Youngs Moduli (GPa) = 65.87712 129.62197 95.62698
#
# Poissons Ratio (x) = 0.25740 0.52145
# Poissons Ratio (y) = 0.13081 0.17001
# Poissons Ratio (z) = 0.35923 0.23045
#
# Static dielectric constant tensor:
#      x y z
#    x 3.531150 0.000000 0.000000 
#    y 0.000000 3.891910 0.000000 
#    z 0.000000 0.000000 4.293230 
# 
# 
# High freq. dielectric constant tensor:
#      x y z
#    x 1.788290 0.000000 0.000000 
#    y 0.000000 1.821920 0.000000 
#    z 0.000000 0.000000 1.813320 
# 
# From -- ./inp_files/40443.got.cif
#   From: 2010.03.12/outbox.cif.g09.slc.cpg/sg67_21_cif.got.tgz:40443.got - 2010.04.10 22:41:39.
