data_PCOD8281600
_publ_section_title
;
Structure prediction by ZEFSAII (Michael W. Deem and Ramdas Pophale) SiO2 
 PCOD8281600
Probable space group: C M M A
;
_chemical_formula_sum "Si O2"
_cell_formula_units_Z 96
_cell_length_a 19.894329
_cell_length_b 9.218500
_cell_length_c 30.415205
_cell_angle_alpha 90.000000
_cell_angle_beta 90.000000
_cell_angle_gamma 90.000000
_cell_volume 5578.023040
_symmetry_space_group_name_H-M "C M M A"
_symmetry_group_IT_number 67
_symmetry_cell_setting 'orthorhombic'
loop_
_space_group_symop_operation_xyz
x,y,z
-x,1/2-y,z
x,-y,-z
-x,1/2+y,-z
-x,-y,-z
x,1/2+y,-z
-x,y,z
x,1/2-y,z
1/2+x,1/2+y,z
1/2-x,-y,z
1/2+x,1/2-y,-z
1/2-x,y,-z
1/2-x,1/2-y,-z
1/2+x,y,-z
1/2-x,1/2+y,z
1/2+x,-y,z
loop_
_atom_site_type_symbol
_atom_site_label
_atom_site_fract_x
_atom_site_fract_y
_atom_site_fract_z
Si Si1 0.580157 0.085523 0.042591
Si Si2 0.183469 0.080752 0.714768
Si Si3 0.922847 0.581048 0.213065
Si Si4 0.423468 0.580158 0.543584
Si Si5 0.316793 0.080018 0.385099
Si Si6 0.579957 0.413890 0.872977
O O1 0.500000 0.086836 0.042974
O O2 0.607807 0.250000 0.041837
O O3 0.608444 0.003564 0.085589
O O4 0.607094 0.000000 0.000000
O O5 0.198386 0.250000 0.718313
O O6 0.120526 0.035288 0.744710
O O7 0.165668 0.035281 0.664892
O O8 0.250000 0.000000 0.731587
O O9 0.914949 0.750000 0.201514
O O10 0.895573 0.490792 0.171585
O O11 0.000000 0.542647 0.223965
O O12 0.397558 0.500000 0.500000
O O13 0.500000 0.535960 0.554507
O O14 0.416600 0.750000 0.534913
O O15 0.378690 0.529636 0.584718
O O16 0.303635 0.250000 0.389233
O O17 0.250000 0.000000 0.401635
O O18 0.500000 0.413353 0.874816
O O19 0.608165 0.250000 0.874572
#
# Coordination Sequence:
#
# PCOD8281600 Si02
#       6
#    16  16  16  16  16  16
#     4   9  15  22  33  50  75 109 147 184 223 269
#     4   9  18  32  49  68  91 119 150 186 228 272
#     4   9  17  29  45  65  88 115 148 185 225 269
#     4   9  18  32  49  69  94 123 154 188 226 268
#     4   9  18  32  49  69  92 119 151 187 227 270
#     4   9  16  25  37  55  81 112 145 182 224 269
#
# _framework density 17.210398999999999
#
# number of rings (size 3 to 8) (size 9 to 14) (size 15 to 20)
#    0.000    3.000    0.000    1.000    0.000    6.333 
#    0.000    5.000    0.000    0.000    0.000    9.333 
#    0.000    0.667    0.000    7.000    0.000   10.500 
#
# Total GULP energy -595189.796601 kJ/mol
# GULP energy per Si atom -12399.787429 kJ/mol
# Density = 1.717123 g / cm^3
# Si number density = 17.210399 Si / 1000 Ang^3
#
#
#
# Elastic Constant Matrix: (Units=GPa)
#
#
# Indices 1 2 3 4 5 6 
#
# 1 68.1721 36.9256 67.0046 0.0000 0.0000 0.0000
# 2 36.9256 80.9856 62.4559 0.0000 0.0000 0.0000
# 3 67.0046 62.4559 139.7506 0.0000 0.0000 0.0000
# 4 0.0000 0.0000 0.0000 31.2645 0.0000 0.0000
# 5 0.0000 0.0000 0.0000 0.0000 5.7160 0.0000
# 6 0.0000 0.0000 0.0000 0.0000 0.0000 19.9252
#
#
#
# Elastic Compliance Matrix: (Units=1/GPa)
#
#
# Indices 1 2 3 4 5 6 
#
# 1 0.028467 -0.003744 -0.011976 0.000000 0.000000 0.000000
# 2 -0.003744 0.019334 -0.006845 0.000000 0.000000 0.000000
# 3 -0.011976 -0.006845 0.015957 0.000000 0.000000 0.000000
# 4 0.000000 0.000000 0.000000 0.031985 0.000000 0.000000
# 5 0.000000 0.000000 0.000000 0.000000 0.174947 0.000000
# 6 0.000000 0.000000 0.000000 0.000000 0.000000 0.050188
#
#
# Mechanical properties :
#
#
# Convention : Reuss Voigt Hill
#
# Bulk Modulus (GPa) = 53.68337 69.07564 61.37950
# Shear Modulus (GPa) = 13.43300 19.54930 16.49115
#
# Velocity S-wave (km/s) = 2.79680 3.37397 3.09885
# Velocity P-wave (km/s) = 6.45675 7.44321 6.96746
#
# Compressibility (1/GPa) = 0.01862774
#
# Stress axis : x y z
#
# Youngs Moduli (GPa) = 35.12806 51.72161 62.66966
#
# Poissons Ratio (x) = 0.19366 0.75050
# Poissons Ratio (y) = 0.13153 0.42900
# Poissons Ratio (z) = 0.42068 0.35406
#
# Static dielectric constant tensor:
#      x y z
#    x 2.897250 0.000000 0.000000 
#    y 0.000000 3.273420 0.000000 
#    z 0.000000 0.000000 3.385410 
# 
# 
# High freq. dielectric constant tensor:
#      x y z
#    x 1.618620 0.000000 0.000000 
#    y 0.000000 1.667530 0.000000 
#    z 0.000000 0.000000 1.673310 
# 
# From -- ./inp_files/40800.got.cif
#   From: 2010.03.12/outbox.cif.g09.slc.cpg/sg67_21_cif.got.tgz:40800.got - 2010.04.10 22:41:39.
