data_PCOD8281792
_publ_section_title
;
Structure prediction by ZEFSAII (Michael W. Deem and Ramdas Pophale) SiO2 
 PCOD8281792
Probable space group: C C C A
;
_chemical_formula_sum "Si O2"
_cell_formula_units_Z 72
_cell_length_a 18.114996
_cell_length_b 8.448868
_cell_length_c 21.791845
_cell_angle_alpha 90.000000
_cell_angle_beta 90.000000
_cell_angle_gamma 90.000000
_cell_volume 3335.268246
_symmetry_space_group_name_H-M "C C C A"
_symmetry_group_IT_number 68
_space_group.IT_coordinate_system_code '2'
_symmetry_cell_setting 'orthorhombic'
loop_
_space_group_symop_operation_xyz
x,y,z
-x,1/2-y,z
x,1/2-y,1/2-z
-x,y,1/2-z
-x,-y,-z
x,1/2+y,-z
-x,1/2+y,1/2+z
x,-y,1/2+z
1/2+x,1/2+y,z
1/2-x,-y,z
1/2+x,-y,1/2-z
1/2-x,1/2+y,1/2-z
1/2-x,1/2-y,-z
1/2+x,y,-z
1/2-x,y,1/2+z
1/2+x,1/2-y,1/2+z
loop_
_atom_site_type_symbol
_atom_site_label
_atom_site_fract_x
_atom_site_fract_y
_atom_site_fract_z
Si Si1 0.666574 0.046458 0.523230
Si Si2 0.915085 0.757644 0.426846
Si Si3 0.750000 0.500000 0.780213
Si Si4 0.302612 0.237226 0.631330
Si Si5 0.159797 0.415712 0.831033
O O1 0.620817 0.094551 0.463442
O O2 0.668101 0.201682 0.566397
O O3 0.750000 0.000000 0.505884
O O4 0.625915 0.906193 0.559604
O O5 0.908978 0.806982 0.353559
O O6 0.000000 0.750000 0.445509
O O7 0.702133 0.382526 0.821278
O O8 0.809084 0.401145 0.738547
O O9 0.223231 0.154548 0.623630
O O10 0.357777 0.101537 0.656741
#
# Coordination Sequence:
#
# PCOD8281792 Si02
#       5
#    16  16   8  16  16
#     4  12  23  39  64  88 120 161 216 257 302 363
#     4  12  26  41  58  91 133 169 201 252 318 375
#     4  10  18  34  60  96 120 146 204 272 310 352
#     4  10  19  35  61  95 117 151 206 268 304 354
#     4  10  20  34  59  88 125 155 200 248 315 361
#
# _framework density 21.58747
#
# number of rings (size 3 to 8) (size 9 to 14) (size 15 to 20)
#    0.000    1.333    3.333    5.333    4.667    0.000 
#    0.000    0.000    0.000   10.667    0.000   18.667 
#    0.000    0.000    0.000    0.000    0.000    0.000 
#
# Total GULP energy -446012.487145 kJ/mol
# GULP energy per Si atom -12389.235754 kJ/mol
# Density = 2.153834 g / cm^3
# Si number density = 21.587470 Si / 1000 Ang^3
#
#
#
# Elastic Constant Matrix: (Units=GPa)
#
#
# Indices 1 2 3 4 5 6 
#
# 1 102.6990 24.4624 18.5169 0.0000 0.0000 0.0000
# 2 24.4624 96.3428 7.8435 0.0000 0.0000 0.0000
# 3 18.5169 7.8435 74.7993 0.0000 0.0000 0.0000
# 4 0.0000 0.0000 0.0000 37.1879 0.0000 0.0000
# 5 0.0000 0.0000 0.0000 0.0000 11.4880 0.0000
# 6 0.0000 0.0000 0.0000 0.0000 0.0000 15.6020
#
#
#
# Elastic Compliance Matrix: (Units=1/GPa)
#
#
# Indices 1 2 3 4 5 6 
#
# 1 0.010775 -0.002540 -0.002401 0.000000 0.000000 0.000000
# 2 -0.002540 0.011068 -0.000532 0.000000 0.000000 0.000000
# 3 -0.002401 -0.000532 0.014019 0.000000 0.000000 0.000000
# 4 0.000000 0.000000 0.000000 0.026890 0.000000 0.000000
# 5 0.000000 0.000000 0.000000 0.000000 0.087047 0.000000
# 6 0.000000 0.000000 0.000000 0.000000 0.000000 0.064095
#
#
# Mechanical properties :
#
#
# Convention : Reuss Voigt Hill
#
# Bulk Modulus (GPa) = 40.13485 41.72074 40.92780
# Shear Modulus (GPa) = 21.44576 27.72346 24.58461
#
# Velocity S-wave (km/s) = 3.15530 3.58752 3.37833
# Velocity P-wave (km/s) = 5.64860 6.04390 5.84959
#
# Compressibility (1/GPa) = 0.02491600
#
# Stress axis : x y z
#
# Youngs Moduli (GPa) = 92.80538 90.35102 71.33045
#
# Poissons Ratio (x) = 0.22953 0.17127
# Poissons Ratio (y) = 0.23577 0.03793
# Poissons Ratio (z) = 0.22283 0.04804
#
# Static dielectric constant tensor:
#      x y z
#    x 3.478030 0.000000 0.000000 
#    y 0.000000 4.406510 0.000000 
#    z 0.000000 0.000000 3.885640 
# 
# 
# High freq. dielectric constant tensor:
#      x y z
#    x 1.781590 0.000000 0.000000 
#    y 0.000000 1.879710 0.000000 
#    z 0.000000 0.000000 1.852470 
# 
# From -- ./inp_files/45867.got.cif
#   From: 2010.03.12/outbox.cif.g09.slc.cpg/sg68_23_cif.got.tgz:45867.got - 2010.04.10 23:14:56.
