data_PCOD8281846
_publ_section_title
;
Structure prediction by ZEFSAII (Michael W. Deem and Ramdas Pophale) SiO2 
 PCOD8281846
Probable space group: C C C A
;
_chemical_formula_sum "Si O2"
_cell_formula_units_Z 80
_cell_length_a 24.505008
_cell_length_b 4.846902
_cell_length_c 34.202652
_cell_angle_alpha 90.000000
_cell_angle_beta 90.000000
_cell_angle_gamma 90.000000
_cell_volume 4062.364319
_symmetry_space_group_name_H-M "C C C A"
_symmetry_group_IT_number 68
_space_group.IT_coordinate_system_code '2'
_symmetry_cell_setting 'orthorhombic'
loop_
_space_group_symop_operation_xyz
x,y,z
-x,1/2-y,z
x,1/2-y,1/2-z
-x,y,1/2-z
-x,-y,-z
x,1/2+y,-z
-x,1/2+y,1/2+z
x,-y,1/2+z
1/2+x,1/2+y,z
1/2-x,-y,z
1/2+x,-y,1/2-z
1/2-x,1/2+y,1/2-z
1/2-x,1/2-y,-z
1/2+x,y,-z
1/2-x,y,1/2+z
1/2+x,1/2-y,1/2+z
loop_
_atom_site_type_symbol
_atom_site_label
_atom_site_fract_x
_atom_site_fract_y
_atom_site_fract_z
Si Si1 0.803913 0.686664 0.337182
Si Si2 0.937443 0.772827 0.474065
Si Si3 0.059410 0.643784 0.848941
Si Si4 0.103140 0.657044 0.108199
Si Si5 0.653575 0.806968 0.295366
O O1 0.750000 0.500000 0.343178
O O2 0.834942 0.739845 0.378358
O O3 0.843526 0.500787 0.311627
O O4 0.800228 0.981627 0.313599
O O5 0.925430 0.581216 0.511570
O O6 0.898291 0.691424 0.438391
O O7 0.000000 0.750000 0.459858
O O8 0.057865 0.353145 0.871453
O O9 0.093367 0.594143 0.808624
O O10 0.000000 0.750000 0.837244
O O11 0.089468 0.845832 0.879549
O O12 0.661694 0.750000 0.250000
#
# Coordination Sequence:
#
# PCOD8281846 Si02
#       5
#    16  16  16  16  16
#     4  10  21  37  56  75  98 135 177 218 265 309
#     4  10  19  30  48  75 105 135 165 204 257 309
#     4  10  19  32  52  75 103 141 174 205 253 313
#     4  10  20  34  52  75 104 136 176 216 251 309
#     4  10  21  35  52  78 106 131 169 218 265 315
#
# _framework density 19.692965000000001
#
# number of rings (size 3 to 8) (size 9 to 14) (size 15 to 20)
#    0.000    2.000    0.000    4.200    0.000    3.600 
#    0.000    0.000    0.000    8.400    0.000    0.000 
#    0.000    0.000    0.000    0.000    0.000    0.000 
#
# Total GULP energy -495602.840230 kJ/mol
# GULP energy per Si atom -12390.071006 kJ/mol
# Density = 1.964814 g / cm^3
# Si number density = 19.692965 Si / 1000 Ang^3
#
#
#
# Elastic Constant Matrix: (Units=GPa)
#
#
# Indices 1 2 3 4 5 6 
#
# 1 83.9116 4.4402 40.1899 0.0000 0.0000 0.0000
# 2 4.4402 81.1245 16.7449 0.0000 0.0000 0.0000
# 3 40.1899 16.7449 117.8570 0.0000 0.0000 0.0000
# 4 0.0000 0.0000 0.0000 14.2777 0.0000 0.0000
# 5 0.0000 0.0000 0.0000 0.0000 12.2044 0.0000
# 6 0.0000 0.0000 0.0000 0.0000 0.0000 30.4610
#
#
#
# Elastic Compliance Matrix: (Units=1/GPa)
#
#
# Indices 1 2 3 4 5 6 
#
# 1 0.014248 0.000230 -0.004891 0.000000 0.000000 0.000000
# 2 0.000230 0.012703 -0.001883 0.000000 0.000000 0.000000
# 3 -0.004891 -0.001883 0.010420 0.000000 0.000000 0.000000
# 4 0.000000 0.000000 0.000000 0.070039 0.000000 0.000000
# 5 0.000000 0.000000 0.000000 0.000000 0.081938 0.000000
# 6 0.000000 0.000000 0.000000 0.000000 0.000000 0.032829
#
#
# Mechanical properties :
#
#
# Convention : Reuss Voigt Hill
#
# Bulk Modulus (GPa) = 41.18311 45.07147 43.12729
# Shear Modulus (GPa) = 20.54569 26.15649 23.35109
#
# Velocity S-wave (km/s) = 3.23352 3.64842 3.44722
# Velocity P-wave (km/s) = 5.90753 6.37846 6.14750
#
# Compressibility (1/GPa) = 0.02428180
#
# Stress axis : x y z
#
# Youngs Moduli (GPa) = 70.18616 78.72241 95.96609
#
# Poissons Ratio (x) = -0.01809 0.46939
# Poissons Ratio (y) = -0.01613 0.18072
# Poissons Ratio (z) = 0.34330 0.14825
#
# Static dielectric constant tensor:
#      x y z
#    x 3.453910 0.000000 0.000000 
#    y 0.000000 3.901220 0.000000 
#    z 0.000000 0.000000 3.464890 
# 
# 
# High freq. dielectric constant tensor:
#      x y z
#    x 1.740190 0.000000 0.000000 
#    y 0.000000 1.794950 0.000000 
#    z 0.000000 0.000000 1.745760 
# 
# From -- ./inp_files/53153.got.cif
#   From: 2010.03.12/outbox.cif.g09.slc.cpg/sg68_27_cif.got.tgz:53153.got - 2010.04.10 23:14:56.
