data_PCOD8281899
_publ_section_title
;
Structure prediction by ZEFSAII (Michael W. Deem and Ramdas Pophale) SiO2 
 PCOD8281899
Probable space group: C C C A
;
_chemical_formula_sum "Si O2"
_cell_formula_units_Z 104
_cell_length_a 21.034361
_cell_length_b 14.650099
_cell_length_c 17.525577
_cell_angle_alpha 90.000000
_cell_angle_beta 90.000000
_cell_angle_gamma 90.000000
_cell_volume 5400.602436
_symmetry_space_group_name_H-M "C C C A"
_symmetry_group_IT_number 68
_space_group.IT_coordinate_system_code '2'
_symmetry_cell_setting 'orthorhombic'
loop_
_space_group_symop_operation_xyz
x,y,z
-x,1/2-y,z
x,1/2-y,1/2-z
-x,y,1/2-z
-x,-y,-z
x,1/2+y,-z
-x,1/2+y,1/2+z
x,-y,1/2+z
1/2+x,1/2+y,z
1/2-x,-y,z
1/2+x,-y,1/2-z
1/2-x,1/2+y,1/2-z
1/2-x,1/2-y,-z
1/2+x,y,-z
1/2-x,y,1/2+z
1/2+x,1/2-y,1/2+z
loop_
_atom_site_type_symbol
_atom_site_label
_atom_site_fract_x
_atom_site_fract_y
_atom_site_fract_z
Si Si1 0.431496 0.789577 0.426955
Si Si2 0.621467 0.651236 0.278360
Si Si3 0.726975 0.346409 0.152357
Si Si4 0.633196 0.392300 0.615475
Si Si5 0.742744 0.858865 0.677138
Si Si6 0.750000 0.500000 0.434849
Si Si7 0.638866 0.072772 0.465681
O O1 0.500000 0.750000 0.447492
O O2 0.433466 0.838598 0.342742
O O3 0.383302 0.703822 0.425172
O O4 0.412375 0.864482 0.490413
O O5 0.646615 0.750000 0.250000
O O6 0.600073 0.599722 0.200177
O O7 0.683497 0.607611 0.317096
O O8 0.790236 0.400408 0.124659
O O9 0.710539 0.367320 0.240415
O O10 0.738440 0.240005 0.139892
O O11 0.663556 0.374220 0.108413
O O12 0.608803 0.476109 0.562657
O O13 0.710632 0.928471 0.617783
O O14 0.699990 0.556986 0.482724
#
# Coordination Sequence:
#
# PCOD8281899 Si02
#       7
#    16  16  16  16  16   8  16
#     4  11  24  41  60  82 119 161 210 256 297 356
#     4   9  16  35  56  82 110 151 199 245 293 346
#     4  10  19  36  55  84 121 157 189 238 310 370
#     4  10  20  36  59  86 121 152 195 254 296 366
#     4  10  19  33  54  82 120 155 190 239 292 378
#     4  12  22  28  54  92 126 152 190 238 308 386
#     4  12  24  34  57  94 121 162 190 242 329 369
#
# _framework density 19.257110999999998
#
# number of rings (size 3 to 8) (size 9 to 14) (size 15 to 20)
#    0.000    1.538    7.692    0.000    6.462    4.615 
#    0.000    0.000    0.000    0.000    0.000    0.000 
#    0.000    0.000    0.000    0.000    0.000    0.000 
#
# Total GULP energy -644463.039813 kJ/mol
# GULP energy per Si atom -12393.519996 kJ/mol
# Density = 1.921328 g / cm^3
# Si number density = 19.257111 Si / 1000 Ang^3
#
#
#
# Elastic Constant Matrix: (Units=GPa)
#
#
# Indices 1 2 3 4 5 6 
#
# 1 47.5399 16.7345 30.0835 0.0000 0.0000 0.0000
# 2 16.7345 98.1253 65.9031 0.0000 0.0000 0.0000
# 3 30.0835 65.9031 105.3319 0.0000 0.0000 0.0000
# 4 0.0000 0.0000 0.0000 42.0736 0.0000 0.0000
# 5 0.0000 0.0000 0.0000 0.0000 15.7211 0.0000
# 6 0.0000 0.0000 0.0000 0.0000 0.0000 20.8816
#
#
#
# Elastic Compliance Matrix: (Units=1/GPa)
#
#
# Indices 1 2 3 4 5 6 
#
# 1 0.025726 0.000944 -0.007938 0.000000 0.000000 0.000000
# 2 0.000944 0.017612 -0.011289 0.000000 0.000000 0.000000
# 3 -0.007938 -0.011289 0.018824 0.000000 0.000000 0.000000
# 4 0.000000 0.000000 0.000000 0.023768 0.000000 0.000000
# 5 0.000000 0.000000 0.000000 0.000000 0.063609 0.000000
# 6 0.000000 0.000000 0.000000 0.000000 0.000000 0.047889
#
#
# Mechanical properties :
#
#
# Convention : Reuss Voigt Hill
#
# Bulk Modulus (GPa) = 39.06857 52.93770 46.00313
# Shear Modulus (GPa) = 20.61637 24.95366 22.78501
#
# Velocity S-wave (km/s) = 3.27553 3.60365 3.44350
# Velocity P-wave (km/s) = 5.88535 6.69811 6.30484
#
# Compressibility (1/GPa) = 0.02559602
#
# Stress axis : x y z
#
# Youngs Moduli (GPa) = 38.87121 56.77967 53.12322
#
# Poissons Ratio (x) = -0.05361 0.42170
# Poissons Ratio (y) = -0.03670 0.59970
# Poissons Ratio (z) = 0.30857 0.64098
#
# Static dielectric constant tensor:
#      x y z
#    x 2.936140 0.000000 0.000000 
#    y 0.000000 3.545460 0.000000 
#    z 0.000000 0.000000 3.779910 
# 
# 
# High freq. dielectric constant tensor:
#      x y z
#    x 1.683120 0.000000 0.000000 
#    y 0.000000 1.750460 0.000000 
#    z 0.000000 0.000000 1.763950 
# 
# From -- ./inp_files/31128.got.cif
#   From: 2010.03.12/outbox.cif.g09.slc.cpg/sg68_16_cif.got.tgz:31128.got - 2010.04.10 23:14:56.
