data_PCOD8281360
_publ_section_title
;
Structure prediction by ZEFSAII (Michael W. Deem and Ramdas Pophale) SiO2 
 PCOD8281360
Probable space group: C M M A
;
_chemical_formula_sum "Si O2"
_cell_formula_units_Z 88
_cell_length_a 7.963606
_cell_length_b 25.167170
_cell_length_c 28.227751
_cell_angle_alpha 90.000000
_cell_angle_beta 90.000000
_cell_angle_gamma 90.000000
_cell_volume 5657.446109
_symmetry_space_group_name_H-M "C M M A"
_symmetry_group_IT_number 67
_symmetry_cell_setting 'orthorhombic'
loop_
_space_group_symop_operation_xyz
x,y,z
-x,1/2-y,z
x,-y,-z
-x,1/2+y,-z
-x,-y,-z
x,1/2+y,-z
-x,y,z
x,1/2-y,z
1/2+x,1/2+y,z
1/2-x,-y,z
1/2+x,1/2-y,-z
1/2-x,y,-z
1/2-x,1/2-y,-z
1/2+x,y,-z
1/2-x,1/2+y,z
1/2+x,-y,z
loop_
_atom_site_type_symbol
_atom_site_label
_atom_site_fract_x
_atom_site_fract_y
_atom_site_fract_z
Si Si1 0.000000 0.186599 0.613881
Si Si2 0.307192 0.687321 0.215249
Si Si3 0.303576 0.939986 0.947653
Si Si4 0.809830 0.813203 0.551201
Si Si5 0.500000 0.687077 0.720238
Si Si6 0.314463 0.750000 0.947816
Si Si7 0.309158 0.154425 0.887126
O O1 0.171316 0.165695 0.588794
O O2 0.000000 0.250000 0.612796
O O3 0.000000 0.163770 0.667174
O O4 0.500000 0.673269 0.230657
O O5 0.291471 0.750000 0.205819
O O6 0.172419 0.667957 0.254395
O O7 0.251327 0.656781 0.167494
O O8 0.500000 0.933756 0.942492
O O9 0.216579 0.904366 0.907684
O O10 0.250000 0.000000 0.938164
O O11 0.250000 0.921182 0.000000
O O12 0.812718 0.750000 0.551480
O O13 0.750000 0.834020 0.500000
O O14 0.000000 0.834128 0.562628
O O15 0.500000 0.750000 0.718258
O O16 0.500000 0.750000 0.962156
O O17 0.283555 0.803044 0.918732
O O18 0.250000 0.750000 0.000000
O O19 0.500000 0.171829 0.888922
#
# Coordination Sequence:
#
# PCOD8281360 Si02
#       7
#     8  16  16  16   8   8  16
#     4   9  16  24  32  50  70  98 129 171 218 258
#     4   9  18  31  47  64  84 111 143 182 224 267
#     4  11  22  37  54  72  94 120 145 174 216 271
#     4   9  14  20  31  45  65  92 127 167 213 262
#     4   9  18  28  42  56  82 105 141 181 218 270
#     4  12  24  34  48  70  96 118 144 180 220 269
#     4  11  21  35  52  70  92 117 148 182 222 271
#
# _framework density 15.554721000000001
#
# number of rings (size 3 to 8) (size 9 to 14) (size 15 to 20)
#    0.000    2.000    1.818    4.091    2.545    0.727 
#    0.000    3.636    0.000    0.000    0.000    0.000 
#    0.000    0.000    0.000    0.000    0.000    0.000 
#
# Total GULP energy -545321.801508 kJ/mol
# GULP energy per Si atom -12393.677307 kJ/mol
# Density = 1.551932 g / cm^3
# Si number density = 15.554721 Si / 1000 Ang^3
#
#
#
# Elastic Constant Matrix: (Units=GPa)
#
#
# Indices 1 2 3 4 5 6 
#
# 1 122.8353 8.6816 73.0357 0.0000 0.0000 0.0000
# 2 8.6816 32.1546 26.0008 0.0000 0.0000 0.0000
# 3 73.0357 26.0008 134.8805 0.0000 0.0000 0.0000
# 4 0.0000 0.0000 0.0000 9.8633 0.0000 0.0000
# 5 0.0000 0.0000 0.0000 0.0000 29.7078 0.0000
# 6 0.0000 0.0000 0.0000 0.0000 0.0000 13.5701
#
#
#
# Elastic Compliance Matrix: (Units=1/GPa)
#
#
# Indices 1 2 3 4 5 6 
#
# 1 0.012163 0.002419 -0.007053 0.000000 0.000000 0.000000
# 2 0.002419 0.037324 -0.008505 0.000000 0.000000 0.000000
# 3 -0.007053 -0.008505 0.012872 0.000000 0.000000 0.000000
# 4 0.000000 0.000000 0.000000 0.101386 0.000000 0.000000
# 5 0.000000 0.000000 0.000000 0.000000 0.033661 0.000000
# 6 0.000000 0.000000 0.000000 0.000000 0.000000 0.073691
#
#
# Mechanical properties :
#
#
# Convention : Reuss Voigt Hill
#
# Bulk Modulus (GPa) = 27.71429 56.14518 41.92974
# Shear Modulus (GPa) = 16.16020 22.77173 19.46597
#
# Velocity S-wave (km/s) = 3.22673 3.83034 3.54142
# Velocity P-wave (km/s) = 5.63368 7.46563 6.61340
#
# Compressibility (1/GPa) = 0.03608246
#
# Stress axis : x y z
#
# Youngs Moduli (GPa) = 82.21433 26.79274 77.68684
#
# Poissons Ratio (x) = -0.06480 0.54789
# Poissons Ratio (y) = -0.19885 0.66069
# Poissons Ratio (z) = 0.57982 0.22786
#
# Static dielectric constant tensor:
#      x y z
#    x 3.333340 0.000000 0.000000 
#    y 0.000000 2.453130 0.000000 
#    z 0.000000 0.000000 3.081250 
# 
# 
# High freq. dielectric constant tensor:
#      x y z
#    x 1.624850 0.000000 0.000000 
#    y 0.000000 1.527050 0.000000 
#    z 0.000000 0.000000 1.591720 
# 
# From -- ./inp_files/40728.got.cif
#   From: 2010.03.12/outbox.cif.g09.slc.cpg/sg67_21_cif.got.tgz:40728.got - 2010.04.10 22:41:39.
