data_PCOD8281473
_publ_section_title
;
Structure prediction by ZEFSAII (Michael W. Deem and Ramdas Pophale) SiO2 
 PCOD8281473
Probable space group: C M M A
;
_chemical_formula_sum "Si O2"
_cell_formula_units_Z 72
_cell_length_a 9.510836
_cell_length_b 18.177713
_cell_length_c 19.465287
_cell_angle_alpha 90.000000
_cell_angle_beta 90.000000
_cell_angle_gamma 90.000000
_cell_volume 3365.260955
_symmetry_space_group_name_H-M "C M M A"
_symmetry_group_IT_number 67
_symmetry_cell_setting 'orthorhombic'
loop_
_space_group_symop_operation_xyz
x,y,z
-x,1/2-y,z
x,-y,-z
-x,1/2+y,-z
-x,-y,-z
x,1/2+y,-z
-x,y,z
x,1/2-y,z
1/2+x,1/2+y,z
1/2-x,-y,z
1/2+x,1/2-y,-z
1/2-x,y,-z
1/2-x,1/2-y,-z
1/2+x,y,-z
1/2-x,1/2+y,z
1/2+x,-y,z
loop_
_atom_site_type_symbol
_atom_site_label
_atom_site_fract_x
_atom_site_fract_y
_atom_site_fract_z
Si Si1 0.250000 0.500000 0.699869
Si Si2 0.658235 0.370002 0.786926
Si Si3 0.500000 0.029080 0.392462
Si Si4 0.833111 0.250000 0.712524
Si Si5 0.851697 0.750000 0.585929
Si Si6 0.500000 0.877216 0.472752
Si Si7 0.160885 0.164882 0.063054
O O1 0.339556 0.447527 0.749013
O O2 0.360498 0.543515 0.652120
O O3 0.500000 0.336678 0.781579
O O4 0.774300 0.320703 0.750642
O O5 0.697625 0.379033 0.867228
O O6 0.500000 0.090627 0.451086
O O7 0.500000 0.945217 0.419672
O O8 0.784998 0.250000 0.632984
O O9 0.000000 0.250000 0.714423
O O10 0.861644 0.824760 0.539113
O O11 0.000000 0.750000 0.630766
O O12 0.199548 0.250000 0.076431
O O13 0.000000 0.155247 0.041863
O O14 0.250000 0.131960 0.000000
#
# Coordination Sequence:
#
# PCOD8281473 Si02
#       7
#     8  16   8   8   8   8  16
#     4  12  26  41  69  98 130 174 226 274 324 398
#     4  11  23  44  66  96 136 186 219 264 335 402
#     4  11  22  44  66  96 123 169 219 273 326 395
#     4  12  24  36  69 106 134 164 225 286 333 382
#     4   8  18  40  68  95 123 177 200 266 338 414
#     4   8  20  40  74  88 122 171 215 255 332 418
#     4   9  18  36  63  95 129 175 217 265 323 390
#
# _framework density 21.395071999999999
#
# number of rings (size 3 to 8) (size 9 to 14) (size 15 to 20)
#    0.667    1.111    2.222    2.333    1.556    2.667 
#    0.000    2.778    2.444    9.333    0.000    0.000 
#    0.000    0.000    0.000    0.000    0.000    0.000 
#
# Total GULP energy -446211.727812 kJ/mol
# GULP energy per Si atom -12394.770217 kJ/mol
# Density = 2.134638 g / cm^3
# Si number density = 21.395072 Si / 1000 Ang^3
#
#
#
# Elastic Constant Matrix: (Units=GPa)
#
#
# Indices 1 2 3 4 5 6 
#
# 1 140.2747 29.5328 79.8388 0.0000 0.0000 0.0000
# 2 29.5328 86.3050 57.5602 0.0000 0.0000 0.0000
# 3 79.8388 57.5602 179.4594 0.0000 0.0000 0.0000
# 4 0.0000 0.0000 0.0000 27.6074 0.0000 0.0000
# 5 0.0000 0.0000 0.0000 0.0000 35.3725 0.0000
# 6 0.0000 0.0000 0.0000 0.0000 0.0000 8.1435
#
#
#
# Elastic Compliance Matrix: (Units=1/GPa)
#
#
# Indices 1 2 3 4 5 6 
#
# 1 0.009567 -0.000553 -0.004079 0.000000 0.000000 0.000000
# 2 -0.000553 0.014772 -0.004492 0.000000 0.000000 0.000000
# 3 -0.004079 -0.004492 0.008827 0.000000 0.000000 0.000000
# 4 0.000000 0.000000 0.000000 0.036222 0.000000 0.000000
# 5 0.000000 0.000000 0.000000 0.000000 0.028271 0.000000
# 6 0.000000 0.000000 0.000000 0.000000 0.000000 0.122798
#
#
# Mechanical properties :
#
#
# Convention : Reuss Voigt Hill
#
# Bulk Modulus (GPa) = 67.03064 82.21140 74.62102
# Shear Modulus (GPa) = 20.51895 30.16517 25.34206
#
# Velocity S-wave (km/s) = 3.10021 3.75895 3.44536
# Velocity P-wave (km/s) = 6.64929 7.57288 7.12606
#
# Compressibility (1/GPa) = 0.01491855
#
# Stress axis : x y z
#
# Youngs Moduli (GPa) = 104.52853 67.69592 113.28255
#
# Poissons Ratio (x) = 0.03747 0.46203
# Poissons Ratio (y) = 0.05786 0.50884
# Poissons Ratio (z) = 0.42633 0.30407
#
# Static dielectric constant tensor:
#      x y z
#    x 3.732090 0.000000 0.000000 
#    y 0.000000 4.630910 0.000000 
#    z 0.000000 0.000000 3.935050 
# 
# 
# High freq. dielectric constant tensor:
#      x y z
#    x 1.836170 0.000000 0.000000 
#    y 0.000000 1.819680 0.000000 
#    z 0.000000 0.000000 1.845330 
# 
# From -- ./inp_files/36813.got.cif
#   From: 2010.03.12/outbox.cif.g09.slc.cpg/sg67_19_cif.got.tgz:36813.got - 2010.04.10 22:41:39.
