data_PCOD8281701
_publ_section_title
;
Structure prediction by ZEFSAII (Michael W. Deem and Ramdas Pophale) SiO2 
 PCOD8281701
Probable space group: C C C A
;
_chemical_formula_sum "Si O2"
_cell_formula_units_Z 96
_cell_length_a 19.027764
_cell_length_b 13.620932
_cell_length_c 19.451657
_cell_angle_alpha 90.000000
_cell_angle_beta 90.000000
_cell_angle_gamma 90.000000
_cell_volume 5041.400312
_symmetry_space_group_name_H-M "C C C A"
_symmetry_group_IT_number 68
_space_group.IT_coordinate_system_code '2'
_symmetry_cell_setting 'orthorhombic'
loop_
_space_group_symop_operation_xyz
x,y,z
-x,1/2-y,z
x,1/2-y,1/2-z
-x,y,1/2-z
-x,-y,-z
x,1/2+y,-z
-x,1/2+y,1/2+z
x,-y,1/2+z
1/2+x,1/2+y,z
1/2-x,-y,z
1/2+x,-y,1/2-z
1/2-x,1/2+y,1/2-z
1/2-x,1/2-y,-z
1/2+x,y,-z
1/2-x,y,1/2+z
1/2+x,1/2-y,1/2+z
loop_
_atom_site_type_symbol
_atom_site_label
_atom_site_fract_x
_atom_site_fract_y
_atom_site_fract_z
Si Si1 0.682551 0.364651 0.948839
Si Si2 0.828145 0.988369 0.858529
Si Si3 0.640861 0.694675 0.679041
Si Si4 0.804782 0.720768 0.673287
Si Si5 0.830278 0.067753 0.511781
Si Si6 0.919047 0.757001 0.041403
O O1 0.671120 0.305214 0.878777
O O2 0.737319 0.139789 0.021362
O O3 0.667263 0.479916 0.932037
O O4 0.627240 0.325229 0.004270
O O5 0.874672 0.075976 0.823507
O O6 0.750000 0.000000 0.828594
O O7 0.851278 0.877428 0.839367
O O8 0.828306 0.994045 0.941057
O O9 0.622654 0.750000 0.750000
O O10 0.722309 0.706277 0.659663
O O11 0.592423 0.747720 0.623013
O O12 0.822151 0.750000 0.750000
O O13 0.898599 0.134052 0.516944
O O14 0.000000 0.750000 0.021646
#
# Coordination Sequence:
#
# PCOD8281701 Si02
#       6
#    16  16  16  16  16  16
#     4  11  20  37  62  88 117 151 205 253 295 353
#     4  10  17  32  58  86 115 153 188 248 310 345
#     4  10  21  37  56  84 122 159 200 242 296 366
#     4  10  20  34  58  90 122 148 193 254 308 354
#     4  11  20  35  64  88 116 155 200 255 298 350
#     4  12  24  37  58  89 121 160 197 246 301 359
#
# _framework density 19.042328000000001
#
# number of rings (size 3 to 8) (size 9 to 14) (size 15 to 20)
#    0.000    1.333    6.667    1.500    0.000    2.333 
#    6.000    0.000    0.000    0.500    0.000    0.000 
#    0.000    0.000    0.000    0.000    0.000    0.000 
#
# Total GULP energy -594873.530352 kJ/mol
# GULP energy per Si atom -12393.198549 kJ/mol
# Density = 1.899899 g / cm^3
# Si number density = 19.042328 Si / 1000 Ang^3
#
#
#
# Elastic Constant Matrix: (Units=GPa)
#
#
# Indices 1 2 3 4 5 6 
#
# 1 77.8367 44.1116 31.6794 0.0000 0.0000 0.0000
# 2 44.1116 151.8068 57.1025 0.0000 0.0000 0.0000
# 3 31.6794 57.1025 106.1434 0.0000 0.0000 0.0000
# 4 0.0000 0.0000 0.0000 35.7036 0.0000 0.0000
# 5 0.0000 0.0000 0.0000 0.0000 10.8478 0.0000
# 6 0.0000 0.0000 0.0000 0.0000 0.0000 16.5341
#
#
#
# Elastic Compliance Matrix: (Units=1/GPa)
#
#
# Indices 1 2 3 4 5 6 
#
# 1 0.016044 -0.003587 -0.002859 0.000000 0.000000 0.000000
# 2 -0.003587 0.009060 -0.003804 0.000000 0.000000 0.000000
# 3 -0.002859 -0.003804 0.012321 0.000000 0.000000 0.000000
# 4 0.000000 0.000000 0.000000 0.028008 0.000000 0.000000
# 5 0.000000 0.000000 0.000000 0.000000 0.092184 0.000000
# 6 0.000000 0.000000 0.000000 0.000000 0.000000 0.060481
#
#
# Mechanical properties :
#
#
# Convention : Reuss Voigt Hill
#
# Bulk Modulus (GPa) = 59.07970 66.84155 62.96062
# Shear Modulus (GPa) = 20.47176 26.14332 23.30754
#
# Velocity S-wave (km/s) = 3.28238 3.70929 3.50235
# Velocity P-wave (km/s) = 6.74227 7.31594 7.03495
#
# Compressibility (1/GPa) = 0.01692629
#
# Stress axis : x y z
#
# Youngs Moduli (GPa) = 62.33049 110.37182 81.16346
#
# Poissons Ratio (x) = 0.39585 0.23204
# Poissons Ratio (y) = 0.22355 0.30873
# Poissons Ratio (z) = 0.17819 0.41983
#
# Static dielectric constant tensor:
#      x y z
#    x 3.013550 0.000000 0.000000 
#    y 0.000000 3.853480 0.000000 
#    z 0.000000 0.000000 3.326390 
# 
# 
# High freq. dielectric constant tensor:
#      x y z
#    x 1.681200 0.000000 0.000000 
#    y 0.000000 1.767750 0.000000 
#    z 0.000000 0.000000 1.728160 
# 
# From -- ./inp_files/33533.got.cif
#   From: 2010.03.12/outbox.cif.g09.slc.cpg/sg68_17_cif.got.tgz:33533.got - 2010.04.10 23:14:56.
