data_PCOD8281317
_publ_section_title
;
Structure prediction by ZEFSAII (Michael W. Deem and Ramdas Pophale) SiO2 
 PCOD8281317
Probable space group: C M M A
;
_chemical_formula_sum "Si O2"
_cell_formula_units_Z 60
_cell_length_a 27.413267
_cell_length_b 10.269330
_cell_length_c 10.197077
_cell_angle_alpha 90.000000
_cell_angle_beta 90.000000
_cell_angle_gamma 90.000000
_cell_volume 2870.639158
_symmetry_space_group_name_H-M "C M M A"
_symmetry_group_IT_number 67
_symmetry_cell_setting 'orthorhombic'
loop_
_space_group_symop_operation_xyz
x,y,z
-x,1/2-y,z
x,-y,-z
-x,1/2+y,-z
-x,-y,-z
x,1/2+y,-z
-x,y,z
x,1/2-y,z
1/2+x,1/2+y,z
1/2-x,-y,z
1/2+x,1/2-y,-z
1/2-x,y,-z
1/2-x,1/2-y,-z
1/2+x,y,-z
1/2-x,1/2+y,z
1/2+x,-y,z
loop_
_atom_site_type_symbol
_atom_site_label
_atom_site_fract_x
_atom_site_fract_y
_atom_site_fract_z
Si Si1 0.000000 0.392926 0.672529
Si Si2 0.764071 0.750000 0.647798
Si Si3 0.376649 0.750000 0.365212
Si Si4 0.250000 0.500000 0.798629
Si Si5 0.500000 0.250000 0.073895
Si Si6 0.335809 0.000000 0.000000
Si Si7 0.918786 0.500000 0.500000
Si Si8 0.897626 0.750000 0.934613
O O1 0.951749 0.467385 0.626285
O O2 0.000000 0.250000 0.604085
O O3 0.000000 0.378262 0.830813
O O4 0.750000 0.750000 0.500000
O O5 0.820923 0.750000 0.672748
O O6 0.739991 0.624845 0.711589
O O7 0.386857 0.877374 0.453941
O O8 0.403207 0.750000 0.223766
O O9 0.300170 0.488220 0.876913
O O10 0.452882 0.250000 0.983678
O O11 0.370055 0.126037 0.995827
#
# Coordination Sequence:
#
# PCOD8281317 Si02
#       8
#     8   8   8   8   4   8   8   8
#     4   9  21  45  67 102 133 186 235 280 354 404
#     4  12  27  43  67 103 141 174 230 289 358 417
#     4  12  27  46  69 107 138 184 240 286 352 429
#     4  11  23  48  72 100 135 185 228 292 354 423
#     4  10  26  42  68 104 146 182 228 292 354 398
#     4  11  24  47  74  98 140 183 236 283 352 432
#     4  11  24  46  73  96 140 186 239 288 342 417
#     4  12  27  44  69 110 140 187 234 286 352 423
#
# _framework density 20.901268000000002
#
# number of rings (size 3 to 8) (size 9 to 14) (size 15 to 20)
#    0.400    0.533    4.000    1.200    7.467    4.800 
#    4.800    0.000    0.000    0.000    0.000    0.000 
#    0.000    0.000    0.000    0.000    0.000    0.000 
#
# Total GULP energy -371943.053533 kJ/mol
# GULP energy per Si atom -12398.101784 kJ/mol
# Density = 2.085370 g / cm^3
# Si number density = 20.901268 Si / 1000 Ang^3
#
#
#
# Elastic Constant Matrix: (Units=GPa)
#
#
# Indices 1 2 3 4 5 6 
#
# 1 106.3873 29.3086 30.3073 0.0000 0.0000 0.0000
# 2 29.3086 158.9625 39.4107 0.0000 0.0000 0.0000
# 3 30.3073 39.4107 124.1496 0.0000 0.0000 0.0000
# 4 0.0000 0.0000 0.0000 39.0331 0.0000 0.0000
# 5 0.0000 0.0000 0.0000 0.0000 -32.6612 0.0000
# 6 0.0000 0.0000 0.0000 0.0000 0.0000 20.0633
#
#
#
# Elastic Compliance Matrix: (Units=1/GPa)
#
#
# Indices 1 2 3 4 5 6 
#
# 1 0.010380 -0.001395 -0.002091 0.000000 0.000000 0.000000
# 2 -0.001395 0.007016 -0.001886 0.000000 0.000000 0.000000
# 3 -0.002091 -0.001886 0.009164 0.000000 0.000000 0.000000
# 4 0.000000 0.000000 0.000000 0.025619 0.000000 0.000000
# 5 0.000000 0.000000 0.000000 0.000000 -0.030617 0.000000
# 6 0.000000 0.000000 0.000000 0.000000 0.000000 0.049842
#
#
# Mechanical properties :
#
#
# Convention : Reuss Voigt Hill
#
# Bulk Modulus (GPa) = 63.23514 65.28362 64.25938
# Shear Modulus (GPa) = 57.19480 24.65190 40.92335
#
# Velocity S-wave (km/s) = 5.23676 3.43803 4.42966
# Velocity P-wave (km/s) = 8.17831 6.86019 7.54808
#
# Compressibility (1/GPa) = 0.01581399
#
# Stress axis : x y z
#
# Youngs Moduli (GPa) = 96.34209 142.53614 109.12159
#
# Poissons Ratio (x) = 0.19889 0.22817
# Poissons Ratio (y) = 0.13443 0.20586
# Poissons Ratio (z) = 0.20144 0.26889
#
# Static dielectric constant tensor:
#      x y z
#    x 3.110660 0.000000 0.000000 
#    y 0.000000 3.017540 0.000000 
#    z 0.000000 0.000000 3.712800 
# 
# 
# High freq. dielectric constant tensor:
#      x y z
#    x 1.824250 0.000000 0.000000 
#    y 0.000000 1.833250 0.000000 
#    z 0.000000 0.000000 1.822660 
# 
# From -- ./inp_files/13202.got.cif
#   From: 2010.03.12/outbox.cif.g09.slc.cpg/sg67_7_cif.got.tgz:13202.got - 2010.04.10 22:41:39.
