data_PCOD8281595
_publ_section_title
;
Structure prediction by ZEFSAII (Michael W. Deem and Ramdas Pophale) SiO2 
 PCOD8281595
Probable space group: C M M A
;
_chemical_formula_sum "Si O2"
_cell_formula_units_Z 80
_cell_length_a 19.782192
_cell_length_b 15.067410
_cell_length_c 14.575608
_cell_angle_alpha 90.000000
_cell_angle_beta 90.000000
_cell_angle_gamma 90.000000
_cell_volume 4344.498969
_symmetry_space_group_name_H-M "C M M A"
_symmetry_group_IT_number 67
_symmetry_cell_setting 'orthorhombic'
loop_
_space_group_symop_operation_xyz
x,y,z
-x,1/2-y,z
x,-y,-z
-x,1/2+y,-z
-x,-y,-z
x,1/2+y,-z
-x,y,z
x,1/2-y,z
1/2+x,1/2+y,z
1/2-x,-y,z
1/2+x,1/2-y,-z
1/2-x,y,-z
1/2-x,1/2-y,-z
1/2+x,y,-z
1/2-x,1/2+y,z
1/2+x,-y,z
loop_
_atom_site_type_symbol
_atom_site_label
_atom_site_fract_x
_atom_site_fract_y
_atom_site_fract_z
Si Si1 0.830245 0.503420 0.897150
Si Si2 0.424584 0.355384 0.407462
Si Si3 0.347471 0.349156 0.226758
Si Si4 0.812554 0.149820 0.244557
Si Si5 0.817300 0.644154 0.550534
O O1 0.750000 0.500000 0.900490
O O2 0.864935 0.416623 0.854234
O O3 0.847468 0.590318 0.835318
O O4 0.859978 0.500000 0.000000
O O5 0.500000 0.396210 0.409789
O O6 0.427712 0.250000 0.410961
O O7 0.385802 0.384899 0.316073
O O8 0.382348 0.390270 0.494559
O O9 0.371797 0.250000 0.199869
O O10 0.267934 0.350199 0.242211
O O11 0.840352 0.250000 0.231227
O O12 0.828782 0.109866 0.345428
O O13 0.811404 0.750000 0.553487
O O14 0.750000 0.606390 0.500000
#
# Coordination Sequence:
#
# PCOD8281595 Si02
#       5
#    16  16  16  16  16
#     4   9  18  30  44  66  95 121 154 203 248 288
#     4   9  16  26  44  71  99 127 159 194 234 282
#     4   9  16  28  46  66  92 126 158 193 238 285
#     4   9  16  27  46  69  94 125 160 194 235 286
#     4   9  14  24  44  68  94 126 158 191 232 283
#
# _framework density 18.414092
#
# number of rings (size 3 to 8) (size 9 to 14) (size 15 to 20)
#    0.000    3.000    2.000    0.000    0.000    0.800 
#    0.000    5.000    0.000    3.000    0.000    0.000 
#    0.000    6.400    0.000    0.000    0.000    0.000 
#
# Total GULP energy -495644.490998 kJ/mol
# GULP energy per Si atom -12391.112275 kJ/mol
# Density = 1.837218 g / cm^3
# Si number density = 18.414092 Si / 1000 Ang^3
#
#
#
# Elastic Constant Matrix: (Units=GPa)
#
#
# Indices 1 2 3 4 5 6 
#
# 1 42.3656 15.9961 30.7178 0.0000 0.0000 0.0000
# 2 15.9961 74.0990 70.2995 0.0000 0.0000 0.0000
# 3 30.7178 70.2995 186.5902 0.0000 0.0000 0.0000
# 4 0.0000 0.0000 0.0000 25.2561 0.0000 0.0000
# 5 0.0000 0.0000 0.0000 0.0000 10.5706 0.0000
# 6 0.0000 0.0000 0.0000 0.0000 0.0000 4.9768
#
#
#
# Elastic Compliance Matrix: (Units=1/GPa)
#
#
# Indices 1 2 3 4 5 6 
#
# 1 0.027102 -0.002518 -0.003513 0.000000 0.000000 0.000000
# 2 -0.002518 0.021237 -0.007587 0.000000 0.000000 0.000000
# 3 -0.003513 -0.007587 0.008796 0.000000 0.000000 0.000000
# 4 0.000000 0.000000 0.000000 0.039594 0.000000 0.000000
# 5 0.000000 0.000000 0.000000 0.000000 0.094602 0.000000
# 6 0.000000 0.000000 0.000000 0.000000 0.000000 0.200934
#
#
# Mechanical properties :
#
#
# Convention : Reuss Voigt Hill
#
# Bulk Modulus (GPa) = 33.44505 59.67570 46.56038
# Shear Modulus (GPa) = 11.64235 20.56345 16.10290
#
# Velocity S-wave (km/s) = 2.51719 3.34537 2.96038
# Velocity P-wave (km/s) = 5.16241 6.88476 6.08484
#
# Compressibility (1/GPa) = 0.02989979
#
# Stress axis : x y z
#
# Youngs Moduli (GPa) = 36.89774 47.08869 113.68780
#
# Poissons Ratio (x) = 0.11855 0.39941
# Poissons Ratio (y) = 0.09289 0.86250
# Poissons Ratio (z) = 0.12963 0.35724
#
# Static dielectric constant tensor:
#      x y z
#    x 3.128530 0.000000 0.000000 
#    y 0.000000 3.373800 0.000000 
#    z 0.000000 0.000000 3.679870 
# 
# 
# High freq. dielectric constant tensor:
#      x y z
#    x 1.661030 0.000000 0.000000 
#    y 0.000000 1.699180 0.000000 
#    z 0.000000 0.000000 1.717710 
# 
# From -- ./inp_files/26947.got.cif
#   From: 2010.03.12/outbox.cif.g09.slc.cpg/sg67_14_cif.got.tgz:26947.got - 2010.04.10 22:41:39.
