data_PCOD8281760
_publ_section_title
;
Structure prediction by ZEFSAII (Michael W. Deem and Ramdas Pophale) SiO2 
 PCOD8281760
Probable space group: C C C A
;
_chemical_formula_sum "Si O2"
_cell_formula_units_Z 104
_cell_length_a 8.012296
_cell_length_b 29.210526
_cell_length_c 23.247297
_cell_angle_alpha 90.000000
_cell_angle_beta 90.000000
_cell_angle_gamma 90.000000
_cell_volume 5440.875980
_symmetry_space_group_name_H-M "C C C A"
_symmetry_group_IT_number 68
_space_group.IT_coordinate_system_code '2'
_symmetry_cell_setting 'orthorhombic'
loop_
_space_group_symop_operation_xyz
x,y,z
-x,1/2-y,z
x,1/2-y,1/2-z
-x,y,1/2-z
-x,-y,-z
x,1/2+y,-z
-x,1/2+y,1/2+z
x,-y,1/2+z
1/2+x,1/2+y,z
1/2-x,-y,z
1/2+x,-y,1/2-z
1/2-x,1/2+y,1/2-z
1/2-x,1/2-y,-z
1/2+x,y,-z
1/2-x,y,1/2+z
1/2+x,1/2-y,1/2+z
loop_
_atom_site_type_symbol
_atom_site_label
_atom_site_fract_x
_atom_site_fract_y
_atom_site_fract_z
Si Si1 0.670351 0.327835 0.949764
Si Si2 0.281246 0.821780 0.170406
Si Si3 0.568139 0.608042 0.361867
Si Si4 0.500000 0.750000 0.125935
Si Si5 0.035641 0.303927 0.929556
Si Si6 0.689325 0.114958 0.238685
Si Si7 0.112889 0.964335 0.699625
O O1 0.603153 0.377947 0.928524
O O2 0.577889 0.288122 0.914939
O O3 0.864091 0.330139 0.935791
O O4 0.651858 0.317600 0.016780
O O5 0.427305 0.857499 0.159060
O O6 0.357266 0.770769 0.167156
O O7 0.128469 0.824301 0.125729
O O8 0.210440 0.834181 0.233446
O O9 0.742608 0.615979 0.326630
O O10 0.501607 0.555589 0.353126
O O11 0.000000 0.250000 0.925885
O O12 0.500000 0.099149 0.250000
O O13 0.802143 0.079185 0.272291
O O14 0.000000 0.987928 0.750000
O O15 0.250000 0.000000 0.675637
#
# Coordination Sequence:
#
# PCOD8281760 Si02
#       7
#    16  16  16   8  16  16  16
#     4  11  20  33  50  73 103 136 176 232 284 325
#     4  10  20  33  51  69  98 139 177 225 274 319
#     4   9  20  35  52  75 108 143 173 214 275 336
#     4  10  18  32  47  62  92 130 171 220 272 312
#     4  12  21  33  54  78 101 135 190 249 280 310
#     4  10  19  35  54  74 106 141 173 218 269 332
#     4   9  17  31  54  84 109 136 174 217 269 325
#
# _framework density 19.114568999999999
#
# number of rings (size 3 to 8) (size 9 to 14) (size 15 to 20)
#    0.000    1.846    2.308    5.077    0.000    0.000 
#    0.000    6.154    0.000    0.000    0.000    9.692 
#    0.000   11.077    0.000   26.462    0.000   12.000 
#
# Total GULP energy -644191.522672 kJ/mol
# GULP energy per Si atom -12388.298513 kJ/mol
# Density = 1.907106 g / cm^3
# Si number density = 19.114569 Si / 1000 Ang^3
#
#
#
# Elastic Constant Matrix: (Units=GPa)
#
#
# Indices 1 2 3 4 5 6 
#
# 1 104.6678 15.2876 10.7540 0.0000 0.0000 0.0000
# 2 15.2876 54.2880 21.6052 0.0000 0.0000 0.0000
# 3 10.7540 21.6052 43.7997 0.0000 0.0000 0.0000
# 4 0.0000 0.0000 0.0000 2.6558 0.0000 0.0000
# 5 0.0000 0.0000 0.0000 0.0000 24.8821 0.0000
# 6 0.0000 0.0000 0.0000 0.0000 0.0000 27.5120
#
#
#
# Elastic Compliance Matrix: (Units=1/GPa)
#
#
# Indices 1 2 3 4 5 6 
#
# 1 0.010026 -0.002294 -0.001330 0.000000 0.000000 0.000000
# 2 -0.002294 0.023444 -0.011001 0.000000 0.000000 0.000000
# 3 -0.001330 -0.011001 0.028584 0.000000 0.000000 0.000000
# 4 0.000000 0.000000 0.000000 0.376528 0.000000 0.000000
# 5 0.000000 0.000000 0.000000 0.000000 0.040190 0.000000
# 6 0.000000 0.000000 0.000000 0.000000 0.000000 0.036348
#
#
# Mechanical properties :
#
#
# Convention : Reuss Voigt Hill
#
# Bulk Modulus (GPa) = 30.48405 33.11658 31.80031
# Shear Modulus (GPa) = 9.00406 21.35057 15.17731
#
# Velocity S-wave (km/s) = 2.17274 3.34575 2.82089
# Velocity P-wave (km/s) = 4.71986 5.68228 5.22328
#
# Compressibility (1/GPa) = 0.03280404
#
# Stress axis : x y z
#
# Youngs Moduli (GPa) = 99.74324 42.65397 34.98415
#
# Poissons Ratio (x) = 0.09785 0.04653
# Poissons Ratio (y) = 0.22881 0.38487
# Poissons Ratio (z) = 0.13266 0.46925
#
# Static dielectric constant tensor:
#      x y z
#    x 4.990480 0.000000 0.000000 
#    y 0.000000 3.561940 0.000000 
#    z 0.000000 0.000000 3.692210 
# 
# 
# High freq. dielectric constant tensor:
#      x y z
#    x 1.767140 0.000000 0.000000 
#    y 0.000000 1.713000 0.000000 
#    z 0.000000 0.000000 1.713300 
# 
# From -- ./inp_files/49696.got.cif
#   From: 2010.03.12/outbox.cif.g09.slc.cpg/sg68_25_cif.got.tgz:49696.got - 2010.04.10 23:14:56.
