data_PCOD8281615
_publ_section_title
;
Structure prediction by ZEFSAII (Michael W. Deem and Ramdas Pophale) SiO2 
 PCOD8281615
Probable space group: C C C A
;
_chemical_formula_sum "Si O2"
_cell_formula_units_Z 60
_cell_length_a 17.204767
_cell_length_b 33.132106
_cell_length_c 5.400128
_cell_angle_alpha 90.000000
_cell_angle_beta 90.000000
_cell_angle_gamma 90.000000
_cell_volume 3078.235849
_symmetry_space_group_name_H-M "C C C A"
_symmetry_group_IT_number 68
_space_group.IT_coordinate_system_code '2'
_symmetry_cell_setting 'orthorhombic'
loop_
_space_group_symop_operation_xyz
x,y,z
-x,1/2-y,z
x,1/2-y,1/2-z
-x,y,1/2-z
-x,-y,-z
x,1/2+y,-z
-x,1/2+y,1/2+z
x,-y,1/2+z
1/2+x,1/2+y,z
1/2-x,-y,z
1/2+x,-y,1/2-z
1/2-x,1/2+y,1/2-z
1/2-x,1/2-y,-z
1/2+x,y,-z
1/2-x,y,1/2+z
1/2+x,1/2-y,1/2+z
loop_
_atom_site_type_symbol
_atom_site_label
_atom_site_fract_x
_atom_site_fract_y
_atom_site_fract_z
Si Si1 0.951087 0.894788 0.500978
Si Si2 0.920729 0.190222 0.895800
Si Si3 0.799339 0.750000 0.250000
Si Si4 0.088514 0.983623 0.994107
Si Si5 0.000000 0.750000 0.750000
O O1 0.896565 0.854619 0.488903
O O2 0.901696 0.935469 0.525659
O O3 0.000000 0.899590 0.250000
O O4 0.000000 0.889530 0.750000
O O5 0.851731 0.209360 0.733738
O O6 0.000000 0.184045 0.750000
O O7 0.939000 0.222290 0.107424
O O8 0.750000 0.750000 0.500000
O O9 0.129959 0.998240 0.248200
O O10 0.000000 0.000000 0.000000
#
# Coordination Sequence:
#
# PCOD8281615 Si02
#       5
#    16  16   8  16   4
#     4  11  19  28  46  75 104 146 173 224 269 340
#     4  11  23  36  58  84 112 147 195 238 290 346
#     4  12  26  42  61  81 114 154 196 242 296 348
#     4  10  15  25  40  63 107 142 167 199 275 336
#     4  12  16  36  60  76 116 142 190 238 290 346
#
# _framework density 19.491682999999998
#
# number of rings (size 3 to 8) (size 9 to 14) (size 15 to 20)
#    0.000    1.067    9.333    0.800    0.000    0.000 
#    0.000    0.000    0.000    0.000    0.000    0.000 
#    0.000    6.400    0.000    0.000    0.000    0.000 
#
# Total GULP energy -371664.735492 kJ/mol
# GULP energy per Si atom -12388.824516 kJ/mol
# Density = 1.944732 g / cm^3
# Si number density = 19.491683 Si / 1000 Ang^3
#
#
#
# Elastic Constant Matrix: (Units=GPa)
#
#
# Indices 1 2 3 4 5 6 
#
# 1 48.7976 34.3641 24.4242 0.0000 0.0000 0.0000
# 2 34.3641 222.9336 54.7937 0.0000 0.0000 0.0000
# 3 24.4242 54.7937 159.4347 0.0000 0.0000 0.0000
# 4 0.0000 0.0000 0.0000 45.3958 0.0000 0.0000
# 5 0.0000 0.0000 0.0000 0.0000 21.9770 0.0000
# 6 0.0000 0.0000 0.0000 0.0000 0.0000 -2.3719
#
#
#
# Elastic Compliance Matrix: (Units=1/GPa)
#
#
# Indices 1 2 3 4 5 6 
#
# 1 0.023951 -0.003048 -0.002622 0.000000 0.000000 0.000000
# 2 -0.003048 0.005287 -0.001350 0.000000 0.000000 0.000000
# 3 -0.002622 -0.001350 0.007138 0.000000 0.000000 0.000000
# 4 0.000000 0.000000 0.000000 0.022028 0.000000 0.000000
# 5 0.000000 0.000000 0.000000 0.000000 0.045502 0.000000
# 6 0.000000 0.000000 0.000000 0.000000 0.000000 -0.421595
#
#
# Mechanical properties :
#
#
# Convention : Reuss Voigt Hill
#
# Bulk Modulus (GPa) = 44.76843 73.14777 58.95810
# Shear Modulus (GPa) = -16.88032 34.17243 8.64606
#
# Velocity S-wave (km/s) = -2.94603 4.19164 2.10841
# Velocity P-wave (km/s) = 3.38315 7.81253 6.02002
#
# Compressibility (1/GPa) = 0.02233717
#
# Stress axis : x y z
#
# Youngs Moduli (GPa) = 41.75148 189.13324 140.09842
#
# Poissons Ratio (x) = 0.57640 0.36731
# Poissons Ratio (y) = 0.12724 0.18917
# Poissons Ratio (z) = 0.10946 0.25537
#
# Static dielectric constant tensor:
#      x y z
#    x 2.969020 0.000000 0.000000 
#    y 0.000000 4.618980 0.000000 
#    z 0.000000 0.000000 4.367240 
# 
# 
# High freq. dielectric constant tensor:
#      x y z
#    x 1.666450 0.000000 0.000000 
#    y 0.000000 1.786860 0.000000 
#    z 0.000000 0.000000 1.789440 
# 
# From -- ./inp_files/1060.got.cif
#   From: 2010.03.12/outbox.cif.g09.slc.cpg/sg68_1_cif.got.tgz:1060.got - 2010.04.10 23:14:56.
