data_PCOD8281432
_publ_section_title
;
Structure prediction by ZEFSAII (Michael W. Deem and Ramdas Pophale) SiO2 
 PCOD8281432
Probable space group: C M M A
;
_chemical_formula_sum "Si O2"
_cell_formula_units_Z 64
_cell_length_a 15.243063
_cell_length_b 8.659215
_cell_length_c 24.512255
_cell_angle_alpha 90.000000
_cell_angle_beta 90.000000
_cell_angle_gamma 90.000000
_cell_volume 3235.445088
_symmetry_space_group_name_H-M "C M M A"
_symmetry_group_IT_number 67
_symmetry_cell_setting 'orthorhombic'
loop_
_space_group_symop_operation_xyz
x,y,z
-x,1/2-y,z
x,-y,-z
-x,1/2+y,-z
-x,-y,-z
x,1/2+y,-z
-x,y,z
x,1/2-y,z
1/2+x,1/2+y,z
1/2-x,-y,z
1/2+x,1/2-y,-z
1/2-x,y,-z
1/2-x,1/2-y,-z
1/2+x,y,-z
1/2-x,1/2+y,z
1/2+x,-y,z
loop_
_atom_site_type_symbol
_atom_site_label
_atom_site_fract_x
_atom_site_fract_y
_atom_site_fract_z
Si Si1 0.155643 0.565624 0.441339
Si Si2 0.500000 0.566245 0.371954
Si Si3 0.346012 0.569782 0.052620
Si Si4 0.345488 0.568405 0.172541
Si Si5 0.000000 0.933069 0.753340
O O1 0.127406 0.500000 0.500000
O O2 0.158500 0.750000 0.443774
O O3 0.250000 0.500000 0.423874
O O4 0.086297 0.507814 0.397550
O O5 0.500000 0.750000 0.380172
O O6 0.500000 0.515676 0.309134
O O7 0.341652 0.750000 0.043689
O O8 0.250000 0.500000 0.052479
O O9 0.385476 0.528751 0.112231
O O10 0.398686 0.500000 0.000000
O O11 0.335061 0.750000 0.178843
O O12 0.250000 0.500000 0.183315
O O13 0.413151 0.500342 0.217012
O O14 0.000000 0.750000 0.759298
#
# Coordination Sequence:
#
# PCOD8281432 Si02
#       5
#    16   8  16  16   8
#     4  11  22  39  62  90 121 152 187 228 275 329
#     4  11  22  38  59  84 115 153 192 233 278 327
#     4   9  15  24  43  69  97 126 163 208 261 320
#     4   9  18  34  54  75 100 136 176 219 268 320
#     4   9  20  38  57  76 104 143 186 223 264 319
#
# _framework density 19.780895000000001
#
# number of rings (size 3 to 8) (size 9 to 14) (size 15 to 20)
#    0.000    2.250    0.000    5.250    0.000    2.000 
#    0.000    6.250    0.000    0.000    0.000    0.000 
#    0.000    0.000    0.000    0.000    0.000    0.000 
#
# Total GULP energy -396571.051489 kJ/mol
# GULP energy per Si atom -12392.845359 kJ/mol
# Density = 1.973587 g / cm^3
# Si number density = 19.780895 Si / 1000 Ang^3
#
#
#
# Elastic Constant Matrix: (Units=GPa)
#
#
# Indices 1 2 3 4 5 6 
#
# 1 122.8891 42.7860 100.4827 0.0000 0.0000 0.0000
# 2 42.7860 102.9994 66.9241 0.0000 0.0000 0.0000
# 3 100.4827 66.9241 190.3065 0.0000 0.0000 0.0000
# 4 0.0000 0.0000 0.0000 18.4054 0.0000 0.0000
# 5 0.0000 0.0000 0.0000 0.0000 -98.7053 0.0000
# 6 0.0000 0.0000 0.0000 0.0000 0.0000 23.3220
#
#
#
# Elastic Compliance Matrix: (Units=1/GPa)
#
#
# Indices 1 2 3 4 5 6 
#
# 1 0.014464 -0.001356 -0.007160 0.000000 0.000000 0.000000
# 2 -0.001356 0.012711 -0.003754 0.000000 0.000000 0.000000
# 3 -0.007160 -0.003754 0.010356 0.000000 0.000000 0.000000
# 4 0.000000 0.000000 0.000000 0.054332 0.000000 0.000000
# 5 0.000000 0.000000 0.000000 0.000000 -0.010131 0.000000
# 6 0.000000 0.000000 0.000000 0.000000 0.000000 0.042878
#
#
# Mechanical properties :
#
#
# Convention : Reuss Voigt Hill
#
# Bulk Modulus (GPa) = 76.98109 92.95339 84.96724
# Shear Modulus (GPa) = 32.57728 2.33790 17.45759
#
# Velocity S-wave (km/s) = 4.06261 1.08833 2.97399
# Velocity P-wave (km/s) = 7.81075 6.97659 7.40542
#
# Compressibility (1/GPa) = 0.01299020
#
# Stress axis : x y z
#
# Youngs Moduli (GPa) = 69.13540 78.66986 96.56617
#
# Poissons Ratio (x) = 0.10668 0.69145
# Poissons Ratio (y) = 0.09375 0.36252
# Poissons Ratio (z) = 0.49504 0.29534
#
# Static dielectric constant tensor:
#      x y z
#    x 3.521350 0.000000 0.000000 
#    y 0.000000 3.566640 0.000000 
#    z 0.000000 0.000000 4.410140 
# 
# 
# High freq. dielectric constant tensor:
#      x y z
#    x 1.758320 0.000000 0.000000 
#    y 0.000000 1.766450 0.000000 
#    z 0.000000 0.000000 1.783470 
# 
# From -- ./inp_files/40439.got.cif
#   From: 2010.03.12/outbox.cif.g09.slc.cpg/sg67_21_cif.got.tgz:40439.got - 2010.04.10 22:41:39.
