data_PCOD8281992
_publ_section_title
;
Structure prediction by ZEFSAII (Michael W. Deem and Ramdas Pophale) SiO2 
 PCOD8281992
Probable space group: C C C A
;
_chemical_formula_sum "Si O2"
_cell_formula_units_Z 104
_cell_length_a 19.223954
_cell_length_b 19.460031
_cell_length_c 13.279009
_cell_angle_alpha 90.000000
_cell_angle_beta 90.000000
_cell_angle_gamma 90.000000
_cell_volume 4967.660546
_symmetry_space_group_name_H-M "C C C A"
_symmetry_group_IT_number 68
_space_group.IT_coordinate_system_code '2'
_symmetry_cell_setting 'orthorhombic'
loop_
_space_group_symop_operation_xyz
x,y,z
-x,1/2-y,z
x,1/2-y,1/2-z
-x,y,1/2-z
-x,-y,-z
x,1/2+y,-z
-x,1/2+y,1/2+z
x,-y,1/2+z
1/2+x,1/2+y,z
1/2-x,-y,z
1/2+x,-y,1/2-z
1/2-x,1/2+y,1/2-z
1/2-x,1/2-y,-z
1/2+x,y,-z
1/2-x,y,1/2+z
1/2+x,1/2-y,1/2+z
loop_
_atom_site_type_symbol
_atom_site_label
_atom_site_fract_x
_atom_site_fract_y
_atom_site_fract_z
Si Si1 0.673732 0.088272 0.438957
Si Si2 0.433376 0.476815 0.596770
Si Si3 0.960835 0.110023 0.483282
Si Si4 0.821811 0.532070 0.279384
Si Si5 0.850247 0.760874 0.361639
Si Si6 0.000000 0.250000 0.574293
Si Si7 0.686388 0.630506 0.958336
O O1 0.617311 0.050584 0.507369
O O2 0.681847 0.044443 0.338454
O O3 0.652879 0.163811 0.405908
O O4 0.747540 0.093024 0.495205
O O5 0.466800 0.551426 0.570750
O O6 0.496729 0.422535 0.611680
O O7 0.387097 0.481285 0.697918
O O8 0.001584 0.180582 0.507647
O O9 0.878584 0.121655 0.463652
O O10 0.750000 0.500000 0.316598
O O11 0.833441 0.598999 0.349178
O O12 0.819093 0.750000 0.250000
O O13 0.805853 0.711806 0.436823
O O14 0.931667 0.741388 0.357470
#
# Coordination Sequence:
#
# PCOD8281992 Si02
#       7
#    16  16  16  16  16   8  16
#     4  12  23  39  66  88 125 168 206 270 329 373
#     4  10  21  41  59  89 126 162 208 258 325 387
#     4   9  20  37  61  86 122 164 208 257 317 392
#     4  11  23  37  61  90 119 161 210 261 309 380
#     4  11  21  38  59  95 127 163 211 263 319 393
#     4  10  19  36  60  90 127 168 210 263 326 380
#     4  10  22  40  61  92 126 161 214 259 322 390
#
# _framework density 20.935407000000001
#
# number of rings (size 3 to 8) (size 9 to 14) (size 15 to 20)
#    0.000    1.538    4.615    0.692    4.308    0.000 
#    0.000    6.923    0.000    0.000    0.000    1.077 
#    0.000    0.154    0.000    0.000    0.000    0.000 
#
# Total GULP energy -644247.524943 kJ/mol
# GULP energy per Si atom -12389.375480 kJ/mol
# Density = 2.088776 g / cm^3
# Si number density = 20.935407 Si / 1000 Ang^3
#
#
#
# Elastic Constant Matrix: (Units=GPa)
#
#
# Indices 1 2 3 4 5 6 
#
# 1 94.0770 29.5871 32.8244 0.0000 0.0000 0.0000
# 2 29.5871 121.1065 31.3003 0.0000 0.0000 0.0000
# 3 32.8244 31.3003 80.3512 0.0000 0.0000 0.0000
# 4 0.0000 0.0000 0.0000 24.8328 0.0000 0.0000
# 5 0.0000 0.0000 0.0000 0.0000 11.2137 0.0000
# 6 0.0000 0.0000 0.0000 0.0000 0.0000 34.1231
#
#
#
# Elastic Compliance Matrix: (Units=1/GPa)
#
#
# Indices 1 2 3 4 5 6 
#
# 1 0.012808 -0.001976 -0.004463 0.000000 0.000000 0.000000
# 2 -0.001976 0.009486 -0.002888 0.000000 0.000000 0.000000
# 3 -0.004463 -0.002888 0.015393 0.000000 0.000000 0.000000
# 4 0.000000 0.000000 0.000000 0.040269 0.000000 0.000000
# 5 0.000000 0.000000 0.000000 0.000000 0.089176 0.000000
# 6 0.000000 0.000000 0.000000 0.000000 0.000000 0.029306
#
#
# Mechanical properties :
#
#
# Convention : Reuss Voigt Hill
#
# Bulk Modulus (GPa) = 52.53554 53.66204 53.09879
# Shear Modulus (GPa) = 22.57976 27.48878 25.03427
#
# Velocity S-wave (km/s) = 3.28768 3.62750 3.46177
# Velocity P-wave (km/s) = 6.28971 6.57517 6.43402
#
# Compressibility (1/GPa) = 0.01903473
#
# Stress axis : x y z
#
# Youngs Moduli (GPa) = 78.07622 105.41461 64.96253
#
# Poissons Ratio (x) = 0.20827 0.28990
# Poissons Ratio (y) = 0.15426 0.18763
# Poissons Ratio (z) = 0.34842 0.30446
#
# Static dielectric constant tensor:
#      x y z
#    x 4.018780 0.000000 0.000000 
#    y 0.000000 4.015960 0.000000 
#    z 0.000000 0.000000 3.382710 
# 
# 
# High freq. dielectric constant tensor:
#      x y z
#    x 1.832950 0.000000 0.000000 
#    y 0.000000 1.834520 0.000000 
#    z 0.000000 0.000000 1.774810 
# 
# From -- ./inp_files/24631.got.cif
#   From: 2010.03.12/outbox.cif.g09.slc.cpg/sg68_13_cif.got.tgz:24631.got - 2010.04.10 23:14:56.
