data_PCOD8281874
_publ_section_title
;
Structure prediction by ZEFSAII (Michael W. Deem and Ramdas Pophale) SiO2 
 PCOD8281874
Probable space group: C C C A
;
_chemical_formula_sum "Si O2"
_cell_formula_units_Z 112
_cell_length_a 4.959162
_cell_length_b 33.542286
_cell_length_c 32.033237
_cell_angle_alpha 90.000000
_cell_angle_beta 90.000000
_cell_angle_gamma 90.000000
_cell_volume 5328.460861
_symmetry_space_group_name_H-M "C C C A"
_symmetry_group_IT_number 68
_space_group.IT_coordinate_system_code '2'
_symmetry_cell_setting 'orthorhombic'
loop_
_space_group_symop_operation_xyz
x,y,z
-x,1/2-y,z
x,1/2-y,1/2-z
-x,y,1/2-z
-x,-y,-z
x,1/2+y,-z
-x,1/2+y,1/2+z
x,-y,1/2+z
1/2+x,1/2+y,z
1/2-x,-y,z
1/2+x,-y,1/2-z
1/2-x,1/2+y,1/2-z
1/2-x,1/2-y,-z
1/2+x,y,-z
1/2-x,y,1/2+z
1/2+x,1/2-y,1/2+z
loop_
_atom_site_type_symbol
_atom_site_label
_atom_site_fract_x
_atom_site_fract_y
_atom_site_fract_z
Si Si1 0.752671 0.723625 0.109866
Si Si2 0.714250 0.678592 0.526591
Si Si3 0.164447 0.648342 0.837849
Si Si4 0.850350 0.931089 0.883471
Si Si5 0.807881 0.914608 0.473460
Si Si6 0.835449 0.542538 0.336460
Si Si7 0.335496 0.621892 0.707736
O O1 0.500000 0.750000 0.097073
O O2 0.859461 0.701231 0.068882
O O3 0.645049 0.692892 0.144708
O O4 0.000000 0.750000 0.127729
O O5 0.506402 0.690788 0.490330
O O6 0.701380 0.632009 0.536653
O O7 0.099220 0.615635 0.873279
O O8 0.475966 0.640914 0.827349
O O9 0.958597 0.643088 0.798002
O O10 0.757796 0.937826 0.930885
O O11 0.641443 0.953215 0.852430
O O12 0.140238 0.951137 0.876355
O O13 0.600790 0.926823 0.509965
O O14 0.750000 0.500000 0.316812
O O15 0.787278 0.574787 0.299665
O O16 0.500000 0.629845 0.750000
#
# Coordination Sequence:
#
# PCOD8281874 Si02
#       7
#    16  16  16  16  16  16  16
#     4  12  24  37  57  83 119 160 198 247 302 344
#     4  10  21  35  52  78 116 154 197 248 303 351
#     4  10  21  39  59  86 116 149 200 236 276 353
#     4  10  19  36  59  79 113 158 197 238 282 337
#     4  10  19  32  54  80 107 147 204 255 289 326
#     4  10  21  36  59  90 121 149 182 225 288 357
#     4  10  21  39  66  91 116 149 184 228 287 344
#
# _framework density 21.019203000000001
#
# number of rings (size 3 to 8) (size 9 to 14) (size 15 to 20)
#    0.000    1.714    1.429    3.429    0.000    1.714 
#    0.000    4.286    0.000   15.000    0.000    0.000 
#    0.000    0.000    0.000    0.000    0.000    0.000 
#
# Total GULP energy -694304.903578 kJ/mol
# GULP energy per Si atom -12398.301850 kJ/mol
# Density = 2.097136 g / cm^3
# Si number density = 21.019203 Si / 1000 Ang^3
#
#
#
# Elastic Constant Matrix: (Units=GPa)
#
#
# Indices 1 2 3 4 5 6 
#
# 1 99.2026 20.1980 0.8224 0.0000 0.0000 0.0000
# 2 20.1980 63.2080 21.8979 0.0000 0.0000 0.0000
# 3 0.8224 21.8979 57.3875 0.0000 0.0000 0.0000
# 4 0.0000 0.0000 0.0000 13.6592 0.0000 0.0000
# 5 0.0000 0.0000 0.0000 0.0000 21.7410 0.0000
# 6 0.0000 0.0000 0.0000 0.0000 0.0000 24.2771
#
#
#
# Elastic Compliance Matrix: (Units=1/GPa)
#
#
# Indices 1 2 3 4 5 6 
#
# 1 0.010872 -0.003941 0.001348 0.000000 0.000000 0.000000
# 2 -0.003941 0.019659 -0.007445 0.000000 0.000000 0.000000
# 3 0.001348 -0.007445 0.020247 0.000000 0.000000 0.000000
# 4 0.000000 0.000000 0.000000 0.073211 0.000000 0.000000
# 5 0.000000 0.000000 0.000000 0.000000 0.045996 0.000000
# 6 0.000000 0.000000 0.000000 0.000000 0.000000 0.041191
#
#
# Mechanical properties :
#
#
# Convention : Reuss Voigt Hill
#
# Bulk Modulus (GPa) = 32.57149 33.95944 33.26546
# Shear Modulus (GPa) = 20.70511 23.72745 22.21628
#
# Velocity S-wave (km/s) = 3.14197 3.36348 3.25461
# Velocity P-wave (km/s) = 5.35652 5.59244 5.47575
#
# Compressibility (1/GPa) = 0.03070170
#
# Stress axis : x y z
#
# Youngs Moduli (GPa) = 91.98273 50.86608 49.39002
#
# Poissons Ratio (x) = 0.20046 -0.06658
# Poissons Ratio (y) = 0.36250 0.36772
# Poissons Ratio (z) = -0.12399 0.37871
#
# Static dielectric constant tensor:
#      x y z
#    x 3.984400 0.000000 0.000000 
#    y 0.000000 3.704330 0.000000 
#    z 0.000000 0.000000 3.425080 
# 
# 
# High freq. dielectric constant tensor:
#      x y z
#    x 1.843620 0.000000 0.000000 
#    y 0.000000 1.803880 0.000000 
#    z 0.000000 0.000000 1.798090 
# 
# From -- ./inp_files/53507.got.cif
#   From: 2010.03.12/outbox.cif.g09.slc.cpg/sg68_27_cif.got.tgz:53507.got - 2010.04.10 23:14:56.
