data_PCOD8281816
_publ_section_title
;
Structure prediction by ZEFSAII (Michael W. Deem and Ramdas Pophale) SiO2 
 PCOD8281816
Probable space group: C C C A
;
_chemical_formula_sum "Si O2"
_cell_formula_units_Z 96
_cell_length_a 18.866157
_cell_length_b 26.363377
_cell_length_c 9.812573
_cell_angle_alpha 90.000000
_cell_angle_beta 90.000000
_cell_angle_gamma 90.000000
_cell_volume 4880.534477
_symmetry_space_group_name_H-M "C C C A"
_symmetry_group_IT_number 68
_space_group.IT_coordinate_system_code '2'
_symmetry_cell_setting 'orthorhombic'
loop_
_space_group_symop_operation_xyz
x,y,z
-x,1/2-y,z
x,1/2-y,1/2-z
-x,y,1/2-z
-x,-y,-z
x,1/2+y,-z
-x,1/2+y,1/2+z
x,-y,1/2+z
1/2+x,1/2+y,z
1/2-x,-y,z
1/2+x,-y,1/2-z
1/2-x,1/2+y,1/2-z
1/2-x,1/2-y,-z
1/2+x,y,-z
1/2-x,y,1/2+z
1/2+x,1/2-y,1/2+z
loop_
_atom_site_type_symbol
_atom_site_label
_atom_site_fract_x
_atom_site_fract_y
_atom_site_fract_z
Si Si1 0.055139 0.446792 0.363446
Si Si2 0.020382 0.803315 0.594304
Si Si3 0.776780 0.785800 0.380567
Si Si4 0.889126 0.353328 0.495700
Si Si5 0.348684 0.644199 0.315701
Si Si6 0.958729 0.559777 0.122161
O O1 0.127209 0.412680 0.359695
O O2 0.074143 0.505338 0.331887
O O3 0.000000 0.424932 0.250000
O O4 0.018760 0.445753 0.508811
O O5 0.103078 0.816708 0.595660
O O6 0.000000 0.750000 0.525307
O O7 0.000000 0.802477 0.750000
O O8 0.973983 0.844644 0.515233
O O9 0.781589 0.750000 0.250000
O O10 0.750000 0.750000 0.500000
O O11 0.853351 0.809084 0.415381
O O12 0.729104 0.836749 0.357713
O O13 0.852952 0.352706 0.347805
O O14 0.890008 0.407474 0.573223
O O15 0.000000 0.584600 0.250000
#
# Coordination Sequence:
#
# PCOD8281816 Si02
#       6
#    16  16  16  16  16  16
#     4  10  18  37  66  94 123 163 206 260 319 382
#     4   9  17  30  58  87 110 145 212 265 291 358
#     4  12  26  43  64  89 129 174 210 258 319 378
#     4  11  21  41  61  90 125 169 212 258 317 379
#     4  11  20  38  66  89 116 172 220 249 311 390
#     4  10  21  35  61  99 131 154 199 270 333 361
#
# _framework density 19.669976999999999
#
# number of rings (size 3 to 8) (size 9 to 14) (size 15 to 20)
#    0.000    1.500    5.000    1.500    2.333    1.333 
#    3.000    0.833    0.000    2.000    0.000    0.000 
#    0.000    0.000    0.000    0.000    0.000    0.000 
#
# Total GULP energy -594694.946125 kJ/mol
# GULP energy per Si atom -12389.478044 kJ/mol
# Density = 1.962521 g / cm^3
# Si number density = 19.669977 Si / 1000 Ang^3
#
#
#
# Elastic Constant Matrix: (Units=GPa)
#
#
# Indices 1 2 3 4 5 6 
#
# 1 56.8664 27.5425 24.8551 0.0000 0.0000 0.0000
# 2 27.5425 121.9279 31.9245 0.0000 0.0000 0.0000
# 3 24.8551 31.9245 99.9187 0.0000 0.0000 0.0000
# 4 0.0000 0.0000 0.0000 30.2137 0.0000 0.0000
# 5 0.0000 0.0000 0.0000 0.0000 20.4116 0.0000
# 6 0.0000 0.0000 0.0000 0.0000 0.0000 30.3166
#
#
#
# Elastic Compliance Matrix: (Units=1/GPa)
#
#
# Indices 1 2 3 4 5 6 
#
# 1 0.021166 -0.003713 -0.004079 0.000000 0.000000 0.000000
# 2 -0.003713 0.009602 -0.002144 0.000000 0.000000 0.000000
# 3 -0.004079 -0.002144 0.011708 0.000000 0.000000 0.000000
# 4 0.000000 0.000000 0.000000 0.033098 0.000000 0.000000
# 5 0.000000 0.000000 0.000000 0.000000 0.048992 0.000000
# 6 0.000000 0.000000 0.000000 0.000000 0.000000 0.032985
#
#
# Mechanical properties :
#
#
# Convention : Reuss Voigt Hill
#
# Bulk Modulus (GPa) = 44.24103 49.70637 46.97370
# Shear Modulus (GPa) = 27.03324 29.14776 28.09050
#
# Velocity S-wave (km/s) = 3.71123 3.85364 3.78311
# Velocity P-wave (km/s) = 6.39569 6.71757 6.55860
#
# Compressibility (1/GPa) = 0.02260345
#
# Stress axis : x y z
#
# Youngs Moduli (GPa) = 47.24487 104.14734 85.41317
#
# Poissons Ratio (x) = 0.38674 0.34838
# Poissons Ratio (y) = 0.17544 0.18314
# Poissons Ratio (z) = 0.19270 0.22330
#
# Static dielectric constant tensor:
#      x y z
#    x 3.508680 0.000000 0.000000 
#    y 0.000000 4.401700 0.000000 
#    z 0.000000 0.000000 3.930630 
# 
# 
# High freq. dielectric constant tensor:
#      x y z
#    x 1.727160 0.000000 0.000000 
#    y 0.000000 1.782210 0.000000 
#    z 0.000000 0.000000 1.763350 
# 
# From -- ./inp_files/7286.got.cif
#   From: 2010.03.12/outbox.cif.g09.slc.cpg/sg68_4_cif.got.tgz:7286.got - 2010.04.10 23:14:56.
