data_PCOD8281705
_publ_section_title
;
Structure prediction by ZEFSAII (Michael W. Deem and Ramdas Pophale) SiO2 
 PCOD8281705
Probable space group: C C C A
;
_chemical_formula_sum "Si O2"
_cell_formula_units_Z 80
_cell_length_a 15.968726
_cell_length_b 16.932040
_cell_length_c 14.559893
_cell_angle_alpha 90.000000
_cell_angle_beta 90.000000
_cell_angle_gamma 90.000000
_cell_volume 3936.749112
_symmetry_space_group_name_H-M "C C C A"
_symmetry_group_IT_number 68
_space_group.IT_coordinate_system_code '2'
_symmetry_cell_setting 'orthorhombic'
loop_
_space_group_symop_operation_xyz
x,y,z
-x,1/2-y,z
x,1/2-y,1/2-z
-x,y,1/2-z
-x,-y,-z
x,1/2+y,-z
-x,1/2+y,1/2+z
x,-y,1/2+z
1/2+x,1/2+y,z
1/2-x,-y,z
1/2+x,-y,1/2-z
1/2-x,1/2+y,1/2-z
1/2-x,1/2-y,-z
1/2+x,y,-z
1/2-x,y,1/2+z
1/2+x,1/2-y,1/2+z
loop_
_atom_site_type_symbol
_atom_site_label
_atom_site_fract_x
_atom_site_fract_y
_atom_site_fract_z
Si Si1 0.500000 0.250000 0.886435
Si Si2 0.142011 0.641258 0.912038
Si Si3 0.069800 0.472732 0.930966
Si Si4 0.876725 0.368068 0.291585
Si Si5 0.500000 0.995058 0.750000
Si Si6 0.283080 0.589248 0.034923
O O1 0.565006 0.196981 0.947391
O O2 0.551586 0.308589 0.822542
O O3 0.121636 0.549705 0.905289
O O4 0.161821 0.663676 0.805318
O O5 0.219461 0.648481 0.982429
O O6 0.028838 0.440226 0.835965
O O7 0.130371 0.408212 0.976780
O O8 0.000000 0.500000 0.000000
O O9 0.801020 0.374120 0.364940
O O10 0.921636 0.452809 0.284315
O O11 0.250000 0.500000 0.045606
#
# Coordination Sequence:
#
# PCOD8281705 Si02
#       6
#     8  16  16  16   8  16
#     4  12  19  36  60  78 103 138 195 230 254 326
#     4  10  21  33  52  82 106 141 179 226 273 311
#     4  10  17  33  51  76 110 140 180 218 263 332
#     4  11  19  34  57  80 103 142 181 224 268 318
#     4  10  18  29  56  80  96 145 186 212 272 316
#     4  10  22  35  51  81 117 138 171 229 276 325
#
# _framework density 20.321335000000001
#
# number of rings (size 3 to 8) (size 9 to 14) (size 15 to 20)
#    0.000    1.600    6.000    1.200    0.000    4.800 
#    0.000    0.000    0.000    0.000    0.000    1.400 
#    0.000    0.000    0.000    0.000    0.000    0.000 
#
# Total GULP energy -495642.536469 kJ/mol
# GULP energy per Si atom -12391.063412 kJ/mol
# Density = 2.027508 g / cm^3
# Si number density = 20.321335 Si / 1000 Ang^3
#
#
#
# Elastic Constant Matrix: (Units=GPa)
#
#
# Indices 1 2 3 4 5 6 
#
# 1 124.6212 22.0115 74.4299 0.0000 0.0000 0.0000
# 2 22.0115 32.1483 12.9244 0.0000 0.0000 0.0000
# 3 74.4299 12.9244 123.8632 0.0000 0.0000 0.0000
# 4 0.0000 0.0000 0.0000 13.2064 0.0000 0.0000
# 5 0.0000 0.0000 0.0000 0.0000 37.9746 0.0000
# 6 0.0000 0.0000 0.0000 0.0000 0.0000 27.9908
#
#
#
# Elastic Compliance Matrix: (Units=1/GPa)
#
#
# Indices 1 2 3 4 5 6 
#
# 1 0.013641 -0.006309 -0.007539 0.000000 0.000000 0.000000
# 2 -0.006309 0.035386 0.000099 0.000000 0.000000 0.000000
# 3 -0.007539 0.000099 0.012593 0.000000 0.000000 0.000000
# 4 0.000000 0.000000 0.000000 0.075721 0.000000 0.000000
# 5 0.000000 0.000000 0.000000 0.000000 0.026333 0.000000
# 6 0.000000 0.000000 0.000000 0.000000 0.000000 0.035726
#
#
# Mechanical properties :
#
#
# Convention : Reuss Voigt Hill
#
# Bulk Modulus (GPa) = 29.30637 55.48493 42.39565
# Shear Modulus (GPa) = 20.98437 27.25215 24.11826
#
# Velocity S-wave (km/s) = 3.21694 3.66602 3.44880
# Velocity P-wave (km/s) = 5.31517 6.72924 6.06357
#
# Compressibility (1/GPa) = 0.03412227
#
# Stress axis : x y z
#
# Youngs Moduli (GPa) = 73.30738 28.25979 79.40827
#
# Poissons Ratio (x) = 0.17830 0.59864
# Poissons Ratio (y) = 0.46251 -0.00785
# Poissons Ratio (z) = 0.55264 -0.00280
#
# Static dielectric constant tensor:
#      x y z
#    x 3.938570 0.000000 0.000000 
#    y 0.000000 3.170650 0.000000 
#    z 0.000000 0.000000 4.080660 
# 
# 
# High freq. dielectric constant tensor:
#      x y z
#    x 1.785320 0.000000 0.000000 
#    y 0.000000 1.751660 0.000000 
#    z 0.000000 0.000000 1.796530 
# 
# From -- ./inp_files/23528.got.cif
#   From: 2010.03.12/outbox.cif.g09.slc.cpg/sg68_12_cif.got.tgz:23528.got - 2010.04.10 23:14:56.
