data_PCOD8281471
_publ_section_title
;
Structure prediction by ZEFSAII (Michael W. Deem and Ramdas Pophale) SiO2 
 PCOD8281471
Probable space group: C M M A
;
_chemical_formula_sum "Si O2"
_cell_formula_units_Z 96
_cell_length_a 14.314593
_cell_length_b 16.424690
_cell_length_c 19.875119
_cell_angle_alpha 90.000000
_cell_angle_beta 90.000000
_cell_angle_gamma 90.000000
_cell_volume 4672.893934
_symmetry_space_group_name_H-M "C M M A"
_symmetry_group_IT_number 67
_symmetry_cell_setting 'orthorhombic'
loop_
_space_group_symop_operation_xyz
x,y,z
-x,1/2-y,z
x,-y,-z
-x,1/2+y,-z
-x,-y,-z
x,1/2+y,-z
-x,y,z
x,1/2-y,z
1/2+x,1/2+y,z
1/2-x,-y,z
1/2+x,1/2-y,-z
1/2-x,y,-z
1/2-x,1/2-y,-z
1/2+x,y,-z
1/2-x,1/2+y,z
1/2+x,-y,z
loop_
_atom_site_type_symbol
_atom_site_label
_atom_site_fract_x
_atom_site_fract_y
_atom_site_fract_z
Si Si1 0.897561 0.153844 0.085854
Si Si2 0.688852 0.343932 0.316960
Si Si3 0.297423 0.089447 0.564566
Si Si4 0.000000 0.655024 0.373782
Si Si5 0.110389 0.157700 0.936962
Si Si6 0.264031 0.091790 0.174040
Si Si7 0.500000 0.848459 0.468366
O O1 0.904568 0.250000 0.085860
O O2 0.832655 0.124388 0.145312
O O3 0.000000 0.116027 0.098679
O O4 0.860842 0.127352 0.011731
O O5 0.678217 0.250000 0.330900
O O6 0.773394 0.373746 0.363117
O O7 0.591564 0.386414 0.340087
O O8 0.708072 0.357470 0.238915
O O9 0.250000 0.135798 0.500000
O O10 0.409601 0.102137 0.559714
O O11 0.250000 0.000000 0.563336
O O12 0.000000 0.638356 0.452421
O O13 0.000000 0.750000 0.357149
O O14 0.146919 0.250000 0.924484
O O15 0.156373 0.098256 0.882680
O O16 0.000000 0.154294 0.928256
O O17 0.250000 0.000000 0.197018
O O18 0.500000 0.750000 0.450660
#
# Coordination Sequence:
#
# PCOD8281471 Si02
#       7
#    16  16  16   8  16  16   8
#     4   9  19  39  63  86 116 157 206 254 303 367
#     4  11  23  42  64  90 123 168 218 265 309 378
#     4  11  24  41  66  99 139 171 211 266 338 392
#     4   9  20  37  65  95 119 153 209 271 315 354
#     4   9  19  37  64  92 114 149 205 260 305 363
#     4  12  25  38  56  87 128 163 200 248 319 377
#     4  11  22  42  72 104 131 172 227 274 320 394
#
# _framework density 20.544015000000002
#
# number of rings (size 3 to 8) (size 9 to 14) (size 15 to 20)
#    0.000    1.667    1.667    4.000    1.167    6.000 
#    1.500    1.667    0.000    0.000    0.000    0.000 
#    0.000    0.000    0.000    0.000    0.000    0.000 
#
# Total GULP energy -594923.985230 kJ/mol
# GULP energy per Si atom -12394.249692 kJ/mol
# Density = 2.049726 g / cm^3
# Si number density = 20.544015 Si / 1000 Ang^3
#
#
#
# Elastic Constant Matrix: (Units=GPa)
#
#
# Indices 1 2 3 4 5 6 
#
# 1 152.5146 32.1450 68.9873 0.0000 0.0000 0.0000
# 2 32.1450 51.4142 18.9990 0.0000 0.0000 0.0000
# 3 68.9873 18.9990 128.4794 0.0000 0.0000 0.0000
# 4 0.0000 0.0000 0.0000 25.2897 0.0000 0.0000
# 5 0.0000 0.0000 0.0000 0.0000 -56.5852 0.0000
# 6 0.0000 0.0000 0.0000 0.0000 0.0000 -35.2423
#
#
#
# Elastic Compliance Matrix: (Units=1/GPa)
#
#
# Indices 1 2 3 4 5 6 
#
# 1 0.009473 -0.004277 -0.004454 0.000000 0.000000 0.000000
# 2 -0.004277 0.022505 -0.001032 0.000000 0.000000 0.000000
# 3 -0.004454 -0.001032 0.010328 0.000000 0.000000 0.000000
# 4 0.000000 0.000000 0.000000 0.039542 0.000000 0.000000
# 5 0.000000 0.000000 0.000000 0.000000 -0.017672 0.000000
# 6 0.000000 0.000000 0.000000 0.000000 0.000000 -0.028375
#
#
# Mechanical properties :
#
#
# Convention : Reuss Voigt Hill
#
# Bulk Modulus (GPa) = 43.89679 63.63008 53.76343
# Shear Modulus (GPa) = 79.46882 0.84424 40.15653
#
# Velocity S-wave (km/s) = 6.22625 0.64174 4.42595
# Velocity P-wave (km/s) = 8.54996 5.62040 7.23501
#
# Compressibility (1/GPa) = 0.02278071
#
# Stress axis : x y z
#
# Youngs Moduli (GPa) = 105.56494 44.43469 96.82884
#
# Poissons Ratio (x) = 0.19003 0.43128
# Poissons Ratio (y) = 0.45147 0.09988
# Poissons Ratio (z) = 0.47019 0.04584
#
# Static dielectric constant tensor:
#      x y z
#    x 3.818280 0.000000 0.000000 
#    y 0.000000 3.557540 0.000000 
#    z 0.000000 0.000000 3.755170 
# 
# 
# High freq. dielectric constant tensor:
#      x y z
#    x 1.817810 0.000000 0.000000 
#    y 0.000000 1.780750 0.000000 
#    z 0.000000 0.000000 1.803970 
# 
# From -- ./inp_files/38541.got.cif
#   From: 2010.03.12/outbox.cif.g09.slc.cpg/sg67_20_cif.got.tgz:38541.got - 2010.04.10 22:41:39.
