data_PCOD8281698
_publ_section_title
;
Structure prediction by ZEFSAII (Michael W. Deem and Ramdas Pophale) SiO2 
 PCOD8281698
Probable space group: C C C A
;
_chemical_formula_sum "Si O2"
_cell_formula_units_Z 100
_cell_length_a 35.516318
_cell_length_b 11.221758
_cell_length_c 13.270687
_cell_angle_alpha 90.000000
_cell_angle_beta 90.000000
_cell_angle_gamma 90.000000
_cell_volume 5289.105633
_symmetry_space_group_name_H-M "C C C A"
_symmetry_group_IT_number 68
_space_group.IT_coordinate_system_code '2'
_symmetry_cell_setting 'orthorhombic'
loop_
_space_group_symop_operation_xyz
x,y,z
-x,1/2-y,z
x,1/2-y,1/2-z
-x,y,1/2-z
-x,-y,-z
x,1/2+y,-z
-x,1/2+y,1/2+z
x,-y,1/2+z
1/2+x,1/2+y,z
1/2-x,-y,z
1/2+x,-y,1/2-z
1/2-x,1/2+y,1/2-z
1/2-x,1/2-y,-z
1/2+x,y,-z
1/2-x,y,1/2+z
1/2+x,1/2-y,1/2+z
loop_
_atom_site_type_symbol
_atom_site_label
_atom_site_fract_x
_atom_site_fract_y
_atom_site_fract_z
Si Si1 0.927844 0.168357 0.662666
Si Si2 0.819304 0.609232 0.464308
Si Si3 0.621524 0.303512 0.019488
Si Si4 0.226627 0.379547 0.721966
Si Si5 0.122804 0.954218 0.839367
Si Si6 0.162396 0.519282 0.347789
Si Si7 0.000000 0.250000 0.750000
O O1 0.908703 0.250000 0.750000
O O2 0.913749 0.223943 0.556825
O O3 0.973341 0.170737 0.676261
O O4 0.914690 0.032989 0.674470
O O5 0.838744 0.736052 0.479569
O O6 0.781320 0.623145 0.398566
O O7 0.846770 0.522253 0.405611
O O8 0.811101 0.554602 0.575025
O O9 0.628312 0.416478 0.092464
O O10 0.611760 0.337332 0.903430
O O11 0.245747 0.250000 0.750000
O O12 0.250000 0.500000 0.747209
O O13 0.187946 0.386520 0.786193
O O14 0.141761 0.928365 0.730629
#
# Coordination Sequence:
#
# PCOD8281698 Si02
#       7
#    16  16  16  16  16  16   4
#     4   9  16  30  53  74 110 151 186 226 274 333
#     4   9  20  34  57  79 105 138 183 233 292 342
#     4  10  17  32  56  82 103 140 181 241 288 338
#     4  11  23  42  60  79 112 153 192 233 289 357
#     4   9  18  29  54  83 105 130 186 234 292 326
#     4  10  18  36  56  79 103 141 179 238 291 345
#     4   8  16  28  52  76 108 164 200 216 260 340
#
# _framework density 18.906787999999999
#
# number of rings (size 3 to 8) (size 9 to 14) (size 15 to 20)
#    0.480    1.920    3.200    0.000    0.000    1.280 
#    8.640    2.400    0.000    0.000    0.000    0.000 
#    0.000    3.840    0.000    0.000    0.000    0.000 
#
# Total GULP energy -619406.796265 kJ/mol
# GULP energy per Si atom -12388.135925 kJ/mol
# Density = 1.886376 g / cm^3
# Si number density = 18.906788 Si / 1000 Ang^3
#
#
#
# Elastic Constant Matrix: (Units=GPa)
#
#
# Indices 1 2 3 4 5 6 
#
# 1 58.8149 25.6878 22.3170 0.0000 0.0000 0.0000
# 2 25.6878 73.0594 42.3812 0.0000 0.0000 0.0000
# 3 22.3170 42.3812 107.9753 0.0000 0.0000 0.0000
# 4 0.0000 0.0000 0.0000 32.7082 0.0000 0.0000
# 5 0.0000 0.0000 0.0000 0.0000 17.0854 0.0000
# 6 0.0000 0.0000 0.0000 0.0000 0.0000 18.1936
#
#
#
# Elastic Compliance Matrix: (Units=1/GPa)
#
#
# Indices 1 2 3 4 5 6 
#
# 1 0.020357 -0.006107 -0.001810 0.000000 0.000000 0.000000
# 2 -0.006107 0.019555 -0.006413 0.000000 0.000000 0.000000
# 3 -0.001810 -0.006413 0.012153 0.000000 0.000000 0.000000
# 4 0.000000 0.000000 0.000000 0.030573 0.000000 0.000000
# 5 0.000000 0.000000 0.000000 0.000000 0.058529 0.000000
# 6 0.000000 0.000000 0.000000 0.000000 0.000000 0.054965
#
#
# Mechanical properties :
#
#
# Convention : Reuss Voigt Hill
#
# Bulk Modulus (GPa) = 42.72964 46.73575 44.73269
# Shear Modulus (GPa) = 21.49660 23.56166 22.52913
#
# Velocity S-wave (km/s) = 3.37557 3.53399 3.45569
# Velocity P-wave (km/s) = 6.15157 6.43621 6.29550
#
# Compressibility (1/GPa) = 0.02340296
#
# Stress axis : x y z
#
# Youngs Moduli (GPa) = 49.12354 51.13742 82.28559
#
# Poissons Ratio (x) = 0.31232 0.14896
# Poissons Ratio (y) = 0.30002 0.52772
# Poissons Ratio (z) = 0.08893 0.32796
#
# Static dielectric constant tensor:
#      x y z
#    x 2.984370 0.000000 0.000000 
#    y 0.000000 3.363610 0.000000 
#    z 0.000000 0.000000 3.861800 
# 
# 
# High freq. dielectric constant tensor:
#      x y z
#    x 1.681940 0.000000 0.000000 
#    y 0.000000 1.718970 0.000000 
#    z 0.000000 0.000000 1.745400 
# 
# From -- ./inp_files/26364.got.cif
#   From: 2010.03.12/outbox.cif.g09.slc.cpg/sg68_14_cif.got.tgz:26364.got - 2010.04.10 23:14:56.
