data_PCOD8281304
_publ_section_title
;
Structure prediction by ZEFSAII (Michael W. Deem and Ramdas Pophale) SiO2 
 PCOD8281304
Probable space group: C M M A
;
_chemical_formula_sum "Si O2"
_cell_formula_units_Z 88
_cell_length_a 9.214680
_cell_length_b 15.374902
_cell_length_c 29.932088
_cell_angle_alpha 90.000000
_cell_angle_beta 90.000000
_cell_angle_gamma 90.000000
_cell_volume 4240.622640
_symmetry_space_group_name_H-M "C M M A"
_symmetry_group_IT_number 67
_symmetry_cell_setting 'orthorhombic'
loop_
_space_group_symop_operation_xyz
x,y,z
-x,1/2-y,z
x,-y,-z
-x,1/2+y,-z
-x,-y,-z
x,1/2+y,-z
-x,y,z
x,1/2-y,z
1/2+x,1/2+y,z
1/2-x,-y,z
1/2+x,1/2-y,-z
1/2-x,y,-z
1/2-x,1/2-y,-z
1/2+x,y,-z
1/2-x,1/2+y,z
1/2+x,-y,z
loop_
_atom_site_type_symbol
_atom_site_label
_atom_site_fract_x
_atom_site_fract_y
_atom_site_fract_z
Si Si1 0.671520 0.915730 0.104434
Si Si2 0.335977 0.853758 0.542998
Si Si3 0.838787 0.646467 0.287744
Si Si4 0.330166 0.750000 0.046555
Si Si5 0.668625 0.148549 0.188142
Si Si6 0.337017 0.646138 0.371331
O O1 0.500000 0.929594 0.105557
O O2 0.717540 0.834243 0.074359
O O3 0.728957 0.903818 0.154701
O O4 0.750000 0.000000 0.083327
O O5 0.500000 0.889449 0.541815
O O6 0.335806 0.750000 0.542850
O O7 0.250000 0.889662 0.500000
O O8 0.257321 0.889520 0.587355
O O9 0.841276 0.750000 0.288928
O O10 0.790806 0.616598 0.238180
O O11 0.729276 0.609390 0.325019
O O12 0.000000 0.611584 0.298638
O O13 0.500000 0.750000 0.037115
O O14 0.250000 0.750000 0.000000
O O15 0.500000 0.129456 0.177663
O O16 0.702497 0.250000 0.182747
O O17 0.500000 0.610634 0.376101
O O18 0.335340 0.750000 0.371201
#
# Coordination Sequence:
#
# PCOD8281304 Si02
#       6
#    16  16  16   8  16  16
#     4  11  23  40  61  90 123 157 199 244 292 346
#     4   9  15  21  28  37  53  83 126 180 242 306
#     4   8  14  24  38  58  84 115 154 199 251 313
#     4  10  24  44  66  92 124 160 200 246 295 346
#     4   9  17  31  53  79 107 143 184 227 280 338
#     4   9  15  21  29  44  67  96 136 187 244 305
#
# _framework density 20.751670000000001
#
# number of rings (size 3 to 8) (size 9 to 14) (size 15 to 20)
#    0.000    2.727    0.909    2.727    0.000    6.909 
#    0.000    3.636    0.000    0.000    0.000    0.000 
#    0.000    0.000    0.000    0.000    0.000    0.909 
#
# Total GULP energy -545565.560279 kJ/mol
# GULP energy per Si atom -12399.217279 kJ/mol
# Density = 2.070444 g / cm^3
# Si number density = 20.751670 Si / 1000 Ang^3
#
#
#
# Elastic Constant Matrix: (Units=GPa)
#
#
# Indices 1 2 3 4 5 6 
#
# 1 146.8701 39.7613 88.4728 0.0000 0.0000 0.0000
# 2 39.7613 62.2280 40.3078 0.0000 0.0000 0.0000
# 3 88.4728 40.3078 169.2431 0.0000 0.0000 0.0000
# 4 0.0000 0.0000 0.0000 -0.6136 0.0000 0.0000
# 5 0.0000 0.0000 0.0000 0.0000 45.3742 0.0000
# 6 0.0000 0.0000 0.0000 0.0000 0.0000 18.5427
#
#
#
# Elastic Compliance Matrix: (Units=1/GPa)
#
#
# Indices 1 2 3 4 5 6 
#
# 1 0.010640 -0.003779 -0.004662 0.000000 0.000000 0.000000
# 2 -0.003779 0.020343 -0.002870 0.000000 0.000000 0.000000
# 3 -0.004662 -0.002870 0.009029 0.000000 0.000000 0.000000
# 4 0.000000 0.000000 0.000000 -1.629674 0.000000 0.000000
# 5 0.000000 0.000000 0.000000 0.000000 0.022039 0.000000
# 6 0.000000 0.000000 0.000000 0.000000 0.000000 0.053929
#
#
# Mechanical properties :
#
#
# Convention : Reuss Voigt Hill
#
# Bulk Modulus (GPa) = 57.49965 79.49166 68.49565
# Shear Modulus (GPa) = -3.36638 26.64728 11.64045
#
# Velocity S-wave (km/s) = -1.27505 3.58733 2.37099
# Velocity P-wave (km/s) = 5.05974 7.45304 6.36980
#
# Compressibility (1/GPa) = 0.01739141
#
# Stress axis : x y z
#
# Youngs Moduli (GPa) = 93.98289 49.15637 110.74991
#
# Poissons Ratio (x) = 0.18575 0.51635
# Poissons Ratio (y) = 0.35514 0.31782
# Poissons Ratio (z) = 0.43817 0.14106
#
# Static dielectric constant tensor:
#      x y z
#    x 3.812330 0.000000 0.000000 
#    y 0.000000 3.360740 0.000000 
#    z 0.000000 0.000000 3.869270 
# 
# 
# High freq. dielectric constant tensor:
#      x y z
#    x 1.813730 0.000000 0.000000 
#    y 0.000000 1.771710 0.000000 
#    z 0.000000 0.000000 1.817060 
# 
# From -- ./inp_files/45206.got.cif
#   From: 2010.03.12/outbox.cif.g09.slc.cpg/sg67_23_cif.got.tgz:45206.got - 2010.04.10 22:41:39.
