data_PCOD8281412
_publ_section_title
;
Structure prediction by ZEFSAII (Michael W. Deem and Ramdas Pophale) SiO2 
 PCOD8281412
Probable space group: C M M A
;
_chemical_formula_sum "Si O2"
_cell_formula_units_Z 88
_cell_length_a 23.439306
_cell_length_b 15.117877
_cell_length_c 11.709533
_cell_angle_alpha 90.000000
_cell_angle_beta 90.000000
_cell_angle_gamma 90.000000
_cell_volume 4149.302820
_symmetry_space_group_name_H-M "C M M A"
_symmetry_group_IT_number 67
_symmetry_cell_setting 'orthorhombic'
loop_
_space_group_symop_operation_xyz
x,y,z
-x,1/2-y,z
x,-y,-z
-x,1/2+y,-z
-x,-y,-z
x,1/2+y,-z
-x,y,z
x,1/2-y,z
1/2+x,1/2+y,z
1/2-x,-y,z
1/2+x,1/2-y,-z
1/2-x,y,-z
1/2-x,1/2-y,-z
1/2+x,y,-z
1/2-x,1/2+y,z
1/2+x,-y,z
loop_
_atom_site_type_symbol
_atom_site_label
_atom_site_fract_x
_atom_site_fract_y
_atom_site_fract_z
Si Si1 0.605680 0.500000 0.500000
Si Si2 0.367666 0.852774 0.898263
Si Si3 0.760155 0.898346 0.213330
Si Si4 0.133417 0.151419 0.160107
Si Si5 0.564954 0.492427 0.253146
Si Si6 0.190218 0.849801 0.448009
O O1 0.566612 0.481617 0.389765
O O2 0.644900 0.413049 0.509085
O O3 0.376637 0.750000 0.866654
O O4 0.301220 0.882599 0.894578
O O5 0.406883 0.910715 0.814039
O O6 0.382096 0.871581 0.029664
O O7 0.700438 0.850458 0.192037
O O8 0.800870 0.858922 0.312614
O O9 0.750000 0.000000 0.239636
O O10 0.112087 0.250000 0.188820
O O11 0.098637 0.082742 0.234158
O O12 0.500000 0.499866 0.211718
O O13 0.171782 0.750000 0.478450
O O14 0.250000 0.876858 0.500000
#
# Coordination Sequence:
#
# PCOD8281412 Si02
#       6
#     8  16  16  16  16  16
#     4  12  24  44  66  92 126 173 229 276 334 388
#     4  11  24  43  68 100 135 173 216 268 333 405
#     4  12  21  37  65 103 139 171 209 259 327 406
#     4  11  24  42  68 101 137 173 215 268 332 403
#     4  12  27  46  68  93 127 175 234 287 331 382
#     4  11  22  36  61  96 136 174 210 260 325 401
#
# _framework density 21.208382
#
# number of rings (size 3 to 8) (size 9 to 14) (size 15 to 20)
#    0.000    0.545    3.636    5.455    0.000    6.545 
#    0.000    1.818    0.000    3.273    0.000    0.000 
#    0.000    0.000    0.000    0.000    0.000    0.000 
#
# Total GULP energy -545564.081261 kJ/mol
# GULP energy per Si atom -12399.183665 kJ/mol
# Density = 2.116011 g / cm^3
# Si number density = 21.208382 Si / 1000 Ang^3
#
#
#
# Elastic Constant Matrix: (Units=GPa)
#
#
# Indices 1 2 3 4 5 6 
#
# 1 108.6952 42.7183 8.4202 0.0000 0.0000 0.0000
# 2 42.7183 91.2937 23.9133 0.0000 0.0000 0.0000
# 3 8.4202 23.9133 63.0026 0.0000 0.0000 0.0000
# 4 0.0000 0.0000 0.0000 29.6857 0.0000 0.0000
# 5 0.0000 0.0000 0.0000 0.0000 11.6546 0.0000
# 6 0.0000 0.0000 0.0000 0.0000 0.0000 9.7817
#
#
#
# Elastic Compliance Matrix: (Units=1/GPa)
#
#
# Indices 1 2 3 4 5 6 
#
# 1 0.011290 -0.005427 0.000551 0.000000 0.000000 0.000000
# 2 -0.005427 0.014772 -0.004881 0.000000 0.000000 0.000000
# 3 0.000551 -0.004881 0.017652 0.000000 0.000000 0.000000
# 4 0.000000 0.000000 0.000000 0.033686 0.000000 0.000000
# 5 0.000000 0.000000 0.000000 0.000000 0.085803 0.000000
# 6 0.000000 0.000000 0.000000 0.000000 0.000000 0.102232
#
#
# Mechanical properties :
#
#
# Convention : Reuss Voigt Hill
#
# Bulk Modulus (GPa) = 41.32527 45.89946 43.61237
# Shear Modulus (GPa) = 17.06387 22.75369 19.90878
#
# Velocity S-wave (km/s) = 2.83959 3.27901 3.06718
# Velocity P-wave (km/s) = 5.50261 6.00208 5.75776
#
# Compressibility (1/GPa) = 0.02419827
#
# Stress axis : x y z
#
# Youngs Moduli (GPa) = 88.57111 67.69612 56.65229
#
# Poissons Ratio (x) = 0.36741 -0.03122
# Poissons Ratio (y) = 0.48071 0.27655
# Poissons Ratio (z) = -0.04881 0.33046
#
# Static dielectric constant tensor:
#      x y z
#    x 3.655420 0.000000 0.000000 
#    y 0.000000 3.953050 0.000000 
#    z 0.000000 0.000000 4.265470 
# 
# 
# High freq. dielectric constant tensor:
#      x y z
#    x 1.808470 0.000000 0.000000 
#    y 0.000000 1.845880 0.000000 
#    z 0.000000 0.000000 1.844540 
# 
# From -- ./inp_files/22817.got.cif
#   From: 2010.03.12/outbox.cif.g09.slc.cpg/sg67_12_cif.got.tgz:22817.got - 2010.04.10 22:41:39.
