data_PCOD8281707
_publ_section_title
;
Structure prediction by ZEFSAII (Michael W. Deem and Ramdas Pophale) SiO2 
 PCOD8281707
Probable space group: C C C A
;
_chemical_formula_sum "Si O2"
_cell_formula_units_Z 116
_cell_length_a 14.377118
_cell_length_b 18.184474
_cell_length_c 23.081521
_cell_angle_alpha 90.000000
_cell_angle_beta 90.000000
_cell_angle_gamma 90.000000
_cell_volume 6034.440432
_symmetry_space_group_name_H-M "C C C A"
_symmetry_group_IT_number 68
_space_group.IT_coordinate_system_code '2'
_symmetry_cell_setting 'orthorhombic'
loop_
_space_group_symop_operation_xyz
x,y,z
-x,1/2-y,z
x,1/2-y,1/2-z
-x,y,1/2-z
-x,-y,-z
x,1/2+y,-z
-x,1/2+y,1/2+z
x,-y,1/2+z
1/2+x,1/2+y,z
1/2-x,-y,z
1/2+x,-y,1/2-z
1/2-x,1/2+y,1/2-z
1/2-x,1/2-y,-z
1/2+x,y,-z
1/2-x,y,1/2+z
1/2+x,1/2-y,1/2+z
loop_
_atom_site_type_symbol
_atom_site_label
_atom_site_fract_x
_atom_site_fract_y
_atom_site_fract_z
Si Si1 0.170313 0.446305 0.403612
Si Si2 0.607862 0.885280 0.705831
Si Si3 0.579413 0.151101 0.993115
Si Si4 0.869842 0.313140 0.478645
Si Si5 0.292353 0.162256 0.398212
Si Si6 0.693670 0.673630 0.604589
Si Si7 0.000000 0.750000 0.250000
Si Si8 0.917060 0.934425 0.327742
O O1 0.250000 0.500000 0.429193
O O2 0.106812 0.420894 0.456842
O O3 0.218194 0.374893 0.374688
O O4 0.112752 0.487275 0.353759
O O5 0.692041 0.887845 0.659025
O O6 0.565273 0.802750 0.710988
O O7 0.526571 0.939065 0.683142
O O8 0.640118 0.916489 0.768258
O O9 0.614620 0.227064 0.963696
O O10 0.467430 0.148119 0.992615
O O11 0.622394 0.146536 0.057499
O O12 0.809891 0.350488 0.426594
O O13 0.805099 0.322193 0.534714
O O14 0.299041 0.244288 0.372187
O O15 0.601487 0.633239 0.628133
#
# Coordination Sequence:
#
# PCOD8281707 Si02
#       8
#    16  16  16  16  16  16   4  16
#     4  10  19  35  58  75 105 153 199 217 249 343
#     4  10  19  33  53  85 113 138 183 245 292 315
#     4  10  19  34  55  87 118 148 179 223 289 335
#     4  10  19  31  57  90 120 140 175 236 288 337
#     4  11  18  32  58  87 121 138 174 248 292 328
#     4  10  17  33  55  86 109 145 189 222 274 339
#     4   8  16  32  52  84 112 142 184 238 292 334
#     4   9  20  34  55  78 107 153 196 225 270 336
#
# _framework density 19.222992999999999
#
# number of rings (size 3 to 8) (size 9 to 14) (size 15 to 20)
#    0.000    2.207    2.759    3.310    0.000    2.207 
#    0.000    6.207   18.207    0.000    0.000    0.000 
#    0.000    0.000    0.000    0.000    0.000    0.000 
#
# Total GULP energy -718751.641417 kJ/mol
# GULP energy per Si atom -12392.269680 kJ/mol
# Density = 1.917924 g / cm^3
# Si number density = 19.222993 Si / 1000 Ang^3
#
#
#
# Elastic Constant Matrix: (Units=GPa)
#
#
# Indices 1 2 3 4 5 6 
#
# 1 80.9394 29.5008 29.9787 0.0000 0.0000 0.0000
# 2 29.5008 77.6318 45.1454 0.0000 0.0000 0.0000
# 3 29.9787 45.1454 94.0608 0.0000 0.0000 0.0000
# 4 0.0000 0.0000 0.0000 26.3602 0.0000 0.0000
# 5 0.0000 0.0000 0.0000 0.0000 35.9224 0.0000
# 6 0.0000 0.0000 0.0000 0.0000 0.0000 20.8141
#
#
#
# Elastic Compliance Matrix: (Units=1/GPa)
#
#
# Indices 1 2 3 4 5 6 
#
# 1 0.014858 -0.004012 -0.002810 0.000000 0.000000 0.000000
# 2 -0.004012 0.018952 -0.007817 0.000000 0.000000 0.000000
# 3 -0.002810 -0.007817 0.015279 0.000000 0.000000 0.000000
# 4 0.000000 0.000000 0.000000 0.037936 0.000000 0.000000
# 5 0.000000 0.000000 0.000000 0.000000 0.027838 0.000000
# 6 0.000000 0.000000 0.000000 0.000000 0.000000 0.048044
#
#
# Mechanical properties :
#
#
# Convention : Reuss Voigt Hill
#
# Bulk Modulus (GPa) = 50.47910 51.32018 50.89964
# Shear Modulus (GPa) = 25.15221 26.48647 25.81934
#
# Velocity S-wave (km/s) = 3.62117 3.71597 3.66888
# Velocity P-wave (km/s) = 6.61820 6.72060 6.66960
#
# Compressibility (1/GPa) = 0.01981018
#
# Stress axis : x y z
#
# Youngs Moduli (GPa) = 67.30392 52.76457 65.44922
#
# Poissons Ratio (x) = 0.21170 0.18390
# Poissons Ratio (y) = 0.27004 0.51165
# Poissons Ratio (z) = 0.18911 0.41249
#
# Static dielectric constant tensor:
#      x y z
#    x 3.442650 0.000000 0.000000 
#    y 0.000000 3.407270 0.000000 
#    z 0.000000 0.000000 3.424780 
# 
# 
# High freq. dielectric constant tensor:
#      x y z
#    x 1.737310 0.000000 0.000000 
#    y 0.000000 1.727580 0.000000 
#    z 0.000000 0.000000 1.732440 
# 
# From -- ./inp_files/51053.got.cif
#   From: 2010.03.12/outbox.cif.g09.slc.cpg/sg68_26_cif.got.tgz:51053.got - 2010.04.10 23:14:56.
