data_PCOD8281247
_publ_section_title
;
Structure prediction by ZEFSAII (Michael W. Deem and Ramdas Pophale) SiO2 
 PCOD8281247
Probable space group: C M M A
;
_chemical_formula_sum "Si O2"
_cell_formula_units_Z 68
_cell_length_a 24.842153
_cell_length_b 19.762748
_cell_length_c 5.673185
_cell_angle_alpha 90.000000
_cell_angle_beta 90.000000
_cell_angle_gamma 90.000000
_cell_volume 2785.245691
_symmetry_space_group_name_H-M "C M M A"
_symmetry_group_IT_number 67
_symmetry_cell_setting 'orthorhombic'
loop_
_space_group_symop_operation_xyz
x,y,z
-x,1/2-y,z
x,-y,-z
-x,1/2+y,-z
-x,-y,-z
x,1/2+y,-z
-x,y,z
x,1/2-y,z
1/2+x,1/2+y,z
1/2-x,-y,z
1/2+x,1/2-y,-z
1/2-x,y,-z
1/2-x,1/2-y,-z
1/2+x,y,-z
1/2-x,1/2+y,z
1/2+x,-y,z
loop_
_atom_site_type_symbol
_atom_site_label
_atom_site_fract_x
_atom_site_fract_y
_atom_site_fract_z
Si Si1 0.681123 0.250000 0.271064
Si Si2 0.119865 0.250000 0.234015
Si Si3 0.297264 0.604913 0.826399
Si Si4 0.750000 0.500000 0.500000
Si Si5 0.000000 0.670674 0.330061
Si Si6 0.914369 0.120552 0.029771
Si Si7 0.000000 0.058862 0.309562
O O1 0.647669 0.250000 0.511963
O O2 0.714966 0.180343 0.276627
O O3 0.652605 0.250000 0.014838
O O4 0.086558 0.319582 0.226386
O O5 0.293073 0.547861 0.629385
O O6 0.250000 0.585369 0.000000
O O7 0.355065 0.597813 0.951612
O O8 0.000000 0.750000 0.382873
O O9 0.000000 0.632183 0.574892
O O10 0.945992 0.649573 0.193795
O O11 0.946549 0.056801 0.144212
O O12 0.000000 0.000000 0.500000
#
# Coordination Sequence:
#
# PCOD8281247 Si02
#       7
#     8   8  16   4   8  16   8
#     4  10  25  45  82 112 158 199 269 334 402 468
#     4  10  22  43  78 125 144 204 258 339 407 462
#     4  11  27  53  75 118 154 209 268 335 408 488
#     4  12  30  50  76 108 160 218 270 320 418 500
#     4  11  24  47  78 115 145 201 262 330 391 476
#     4  10  25  47  78 109 158 195 264 334 399 470
#     4  11  28  48  73 110 155 216 259 317 407 485
#
# _framework density 24.414362000000001
#
# number of rings (size 3 to 8) (size 9 to 14) (size 15 to 20)
#    0.000    1.412    1.176    0.706   14.824    2.353 
#   12.706    0.000    0.000    0.000    0.000    0.000 
#    0.000    0.000    0.000    0.000    0.000    0.000 
#
# Total GULP energy -421280.383626 kJ/mol
# GULP energy per Si atom -12390.599518 kJ/mol
# Density = 2.435879 g / cm^3
# Si number density = 24.414362 Si / 1000 Ang^3
#
#
#
# Elastic Constant Matrix: (Units=GPa)
#
#
# Indices 1 2 3 4 5 6 
#
# 1 169.0130 60.3635 50.2715 0.0000 0.0000 0.0000
# 2 60.3635 165.8678 56.7225 0.0000 0.0000 0.0000
# 3 50.2715 56.7225 118.2007 0.0000 0.0000 0.0000
# 4 0.0000 0.0000 0.0000 66.9310 0.0000 0.0000
# 5 0.0000 0.0000 0.0000 0.0000 20.9527 0.0000
# 6 0.0000 0.0000 0.0000 0.0000 0.0000 16.1992
#
#
#
# Elastic Compliance Matrix: (Units=1/GPa)
#
#
# Indices 1 2 3 4 5 6 
#
# 1 0.007238 -0.001892 -0.002171 0.000000 0.000000 0.000000
# 2 -0.001892 0.007707 -0.002894 0.000000 0.000000 0.000000
# 3 -0.002171 -0.002894 0.010772 0.000000 0.000000 0.000000
# 4 0.000000 0.000000 0.000000 0.014941 0.000000 0.000000
# 5 0.000000 0.000000 0.000000 0.000000 0.047726 0.000000
# 6 0.000000 0.000000 0.000000 0.000000 0.000000 0.061731
#
#
# Mechanical properties :
#
#
# Convention : Reuss Voigt Hill
#
# Bulk Modulus (GPa) = 84.71245 87.53294 86.12270
# Shear Modulus (GPa) = 29.76846 39.86485 34.81666
#
# Velocity S-wave (km/s) = 3.49564 4.04523 3.78043
# Velocity P-wave (km/s) = 7.14603 7.59930 7.37615
#
# Compressibility (1/GPa) = 0.01180464
#
# Stress axis : x y z
#
# Youngs Moduli (GPa) = 138.16020 129.75210 92.83303
#
# Poissons Ratio (x) = 0.24547 0.20149
# Poissons Ratio (y) = 0.26138 0.26865
# Poissons Ratio (z) = 0.29988 0.37548
#
# Static dielectric constant tensor:
#      x y z
#    x 4.291710 0.000000 0.000000 
#    y 0.000000 4.815810 0.000000 
#    z 0.000000 0.000000 4.473890 
# 
# 
# High freq. dielectric constant tensor:
#      x y z
#    x 1.963040 0.000000 0.000000 
#    y 0.000000 1.984430 0.000000 
#    z 0.000000 0.000000 1.984170 
# 
# From -- ./inp_files/4100.got.cif
#   From: 2010.03.12/outbox.cif.g09.slc.cpg/sg67_3_cif.got.tgz:4100.got - 2010.04.10 22:41:39.
