data_PCOD8281590
_publ_section_title
;
Structure prediction by ZEFSAII (Michael W. Deem and Ramdas Pophale) SiO2 
 PCOD8281590
Probable space group: C M M A
;
_chemical_formula_sum "Si O2"
_cell_formula_units_Z 80
_cell_length_a 10.060139
_cell_length_b 18.962418
_cell_length_c 24.664965
_cell_angle_alpha 90.000000
_cell_angle_beta 90.000000
_cell_angle_gamma 90.000000
_cell_volume 4705.201217
_symmetry_space_group_name_H-M "C M M A"
_symmetry_group_IT_number 67
_symmetry_cell_setting 'orthorhombic'
loop_
_space_group_symop_operation_xyz
x,y,z
-x,1/2-y,z
x,-y,-z
-x,1/2+y,-z
-x,-y,-z
x,1/2+y,-z
-x,y,z
x,1/2-y,z
1/2+x,1/2+y,z
1/2-x,-y,z
1/2+x,1/2-y,-z
1/2-x,y,-z
1/2-x,1/2-y,-z
1/2+x,y,-z
1/2-x,1/2+y,z
1/2+x,-y,z
loop_
_atom_site_type_symbol
_atom_site_label
_atom_site_fract_x
_atom_site_fract_y
_atom_site_fract_z
Si Si1 0.346955 0.434609 0.262976
Si Si2 0.240706 0.915558 0.374337
Si Si3 0.652617 0.168501 0.047458
Si Si4 0.151535 0.434594 0.856325
Si Si5 0.000000 0.582982 0.445308
Si Si6 0.500000 0.415045 0.567209
O O1 0.500000 0.457520 0.275457
O O2 0.250000 0.500000 0.258714
O O3 0.293853 0.387009 0.313464
O O4 0.337181 0.398446 0.203678
O O5 0.129656 0.887895 0.415497
O O6 0.377069 0.885577 0.398116
O O7 0.250000 0.000000 0.371614
O O8 0.500000 0.155709 0.029497
O O9 0.678889 0.250000 0.060850
O O10 0.689488 0.125562 0.101174
O O11 0.750000 0.142011 0.000000
O O12 0.250000 0.500000 0.864412
O O13 0.000000 0.461574 0.865086
O O14 0.000000 0.614391 0.506018
O O15 0.000000 0.498717 0.440770
#
# Coordination Sequence:
#
# PCOD8281590 Si02
#       6
#    16  16  16  16   8   8
#     4   9  16  25  37  51  71 100 134 171 209 252
#     4   9  15  21  30  42  60  89 125 166 206 247
#     4   9  18  33  52  71  93 121 151 182 218 264
#     4   9  18  31  46  67  92 118 151 187 223 261
#     4   9  14  22  28  40  58  86 124 167 206 242
#     4   9  16  20  28  40  60  86 124 167 208 242
#
# _framework density 17.002461
#
# number of rings (size 3 to 8) (size 9 to 14) (size 15 to 20)
#    0.000    3.000    1.000    0.600    4.200    3.600 
#    0.000    2.000    0.000    0.000    0.000    0.000 
#    0.000    0.000    0.000    0.000    0.000    6.000 
#
# Total GULP energy -495529.641265 kJ/mol
# GULP energy per Si atom -12388.241032 kJ/mol
# Density = 1.696376 g / cm^3
# Si number density = 17.002461 Si / 1000 Ang^3
#
#
#
# Elastic Constant Matrix: (Units=GPa)
#
#
# Indices 1 2 3 4 5 6 
#
# 1 133.2164 23.9412 88.6846 0.0000 0.0000 0.0000
# 2 23.9412 21.8044 37.3883 0.0000 0.0000 0.0000
# 3 88.6846 37.3883 187.4917 0.0000 0.0000 0.0000
# 4 0.0000 0.0000 0.0000 0.7806 0.0000 0.0000
# 5 0.0000 0.0000 0.0000 0.0000 33.0153 0.0000
# 6 0.0000 0.0000 0.0000 0.0000 0.0000 9.8436
#
#
#
# Elastic Compliance Matrix: (Units=1/GPa)
#
#
# Indices 1 2 3 4 5 6 
#
# 1 0.011294 -0.004925 -0.004360 0.000000 0.000000 0.000000
# 2 -0.004925 0.071840 -0.011996 0.000000 0.000000 0.000000
# 3 -0.004360 -0.011996 0.009788 0.000000 0.000000 0.000000
# 4 0.000000 0.000000 0.000000 1.281076 0.000000 0.000000
# 5 0.000000 0.000000 0.000000 0.000000 0.030289 0.000000
# 6 0.000000 0.000000 0.000000 0.000000 0.000000 0.101589
#
#
# Mechanical properties :
#
#
# Convention : Reuss Voigt Hill
#
# Bulk Modulus (GPa) = 19.85703 71.39340 45.62522
# Shear Modulus (GPa) = 3.19443 21.56112 12.37777
#
# Velocity S-wave (km/s) = 1.37218 3.56493 2.70107
# Velocity P-wave (km/s) = 3.77025 7.68285 6.05148
#
# Compressibility (1/GPa) = 0.05035999
#
# Stress axis : x y z
#
# Youngs Moduli (GPa) = 88.54015 13.91981 102.16337
#
# Poissons Ratio (x) = 0.06855 0.44546
# Poissons Ratio (y) = 0.43602 1.22560
# Poissons Ratio (z) = 0.38606 0.16699
#
# Static dielectric constant tensor:
#      x y z
#    x 3.453520 0.000000 0.000000 
#    y 0.000000 2.411410 0.000000 
#    z 0.000000 0.000000 3.763520 
# 
# 
# High freq. dielectric constant tensor:
#      x y z
#    x 1.675510 0.000000 0.000000 
#    y 0.000000 1.560790 0.000000 
#    z 0.000000 0.000000 1.681730 
# 
# From -- ./inp_files/40756.got.cif
#   From: 2010.03.12/outbox.cif.g09.slc.cpg/sg67_21_cif.got.tgz:40756.got - 2010.04.10 22:41:39.
