data_PCOD8281504
_publ_section_title
;
Structure prediction by ZEFSAII (Michael W. Deem and Ramdas Pophale) SiO2 
 PCOD8281504
Probable space group: C M M A
;
_chemical_formula_sum "Si O2"
_cell_formula_units_Z 72
_cell_length_a 15.262391
_cell_length_b 9.100970
_cell_length_c 25.033484
_cell_angle_alpha 90.000000
_cell_angle_beta 90.000000
_cell_angle_gamma 90.000000
_cell_volume 3477.215079
_symmetry_space_group_name_H-M "C M M A"
_symmetry_group_IT_number 67
_symmetry_cell_setting 'orthorhombic'
loop_
_space_group_symop_operation_xyz
x,y,z
-x,1/2-y,z
x,-y,-z
-x,1/2+y,-z
-x,-y,-z
x,1/2+y,-z
-x,y,z
x,1/2-y,z
1/2+x,1/2+y,z
1/2-x,-y,z
1/2+x,1/2-y,-z
1/2-x,y,-z
1/2-x,1/2-y,-z
1/2+x,y,-z
1/2-x,1/2+y,z
1/2+x,-y,z
loop_
_atom_site_type_symbol
_atom_site_label
_atom_site_fract_x
_atom_site_fract_y
_atom_site_fract_z
Si Si1 0.395671 0.915303 0.050242
Si Si2 0.161198 0.075723 0.616361
Si Si3 0.104102 0.416327 0.166189
Si Si4 0.901149 0.419273 0.732383
Si Si5 0.000000 0.572071 0.557709
O O1 0.500000 0.921135 0.046880
O O2 0.361913 0.750000 0.046033
O O3 0.365683 0.980882 0.108164
O O4 0.353227 0.000000 0.000000
O O5 0.157730 0.250000 0.602409
O O6 0.155173 0.049579 0.679764
O O7 0.250000 0.000000 0.595692
O O8 0.084475 0.987677 0.587977
O O9 0.136489 0.250000 0.171179
O O10 0.144320 0.503419 0.216462
O O11 0.000000 0.426569 0.169303
O O12 0.903956 0.250000 0.746692
O O13 0.000000 0.477821 0.722072
O O14 0.000000 0.500000 0.500000
O O15 0.000000 0.750000 0.555253
#
# Coordination Sequence:
#
# PCOD8281504 Si02
#       5
#    16  16  16  16   8
#     4   8  13  20  29  45  75 116 163 218 276 334
#     4  11  23  42  65  95 131 166 208 257 303 359
#     4   8  14  23  36  58  88 125 174 228 280 342
#     4   9  17  31  51  75 108 147 186 237 294 347
#     4  12  26  46  72 100 130 170 209 250 303 354
#
# _framework density 20.706225
#
# number of rings (size 3 to 8) (size 9 to 14) (size 15 to 20)
#    0.000    2.667    1.111    3.000    0.000    3.111 
#    0.000    6.667    0.000    0.000    0.000    0.000 
#    0.000    0.889    0.000    9.778    0.000   16.000 
#
# Total GULP energy -446088.924679 kJ/mol
# GULP energy per Si atom -12391.359019 kJ/mol
# Density = 2.065910 g / cm^3
# Si number density = 20.706225 Si / 1000 Ang^3
#
#
#
# Elastic Constant Matrix: (Units=GPa)
#
#
# Indices 1 2 3 4 5 6 
#
# 1 76.0667 43.5419 32.8718 0.0000 0.0000 0.0000
# 2 43.5419 117.7985 79.8050 0.0000 0.0000 0.0000
# 3 32.8718 79.8050 145.3184 0.0000 0.0000 0.0000
# 4 0.0000 0.0000 0.0000 43.6041 0.0000 0.0000
# 5 0.0000 0.0000 0.0000 0.0000 -50.0080 0.0000
# 6 0.0000 0.0000 0.0000 0.0000 0.0000 20.1937
#
#
#
# Elastic Compliance Matrix: (Units=1/GPa)
#
#
# Indices 1 2 3 4 5 6 
#
# 1 0.016709 -0.005758 -0.000618 0.000000 0.000000 0.000000
# 2 -0.005758 0.015503 -0.007211 0.000000 0.000000 0.000000
# 3 -0.000618 -0.007211 0.010981 0.000000 0.000000 0.000000
# 4 0.000000 0.000000 0.000000 0.022934 0.000000 0.000000
# 5 0.000000 0.000000 0.000000 0.000000 -0.019997 0.000000
# 6 0.000000 0.000000 0.000000 0.000000 0.000000 0.049520
#
#
# Mechanical properties :
#
#
# Convention : Reuss Voigt Hill
#
# Bulk Modulus (GPa) = 62.42247 72.40233 67.41240
# Shear Modulus (GPa) = 39.01259 14.95563 26.98411
#
# Velocity S-wave (km/s) = 4.34533 2.69044 3.61389
# Velocity P-wave (km/s) = 7.44231 6.68533 7.07395
#
# Compressibility (1/GPa) = 0.01601987
#
# Stress axis : x y z
#
# Youngs Moduli (GPa) = 59.84756 64.50490 91.06320
#
# Poissons Ratio (x) = 0.37140 0.05625
# Poissons Ratio (y) = 0.34459 0.65668
# Poissons Ratio (z) = 0.03697 0.46516
#
# Static dielectric constant tensor:
#      x y z
#    x 3.301030 0.000000 0.000000 
#    y 0.000000 3.783750 0.000000 
#    z 0.000000 0.000000 4.253770 
# 
# 
# High freq. dielectric constant tensor:
#      x y z
#    x 1.773760 0.000000 0.000000 
#    y 0.000000 1.800960 0.000000 
#    z 0.000000 0.000000 1.826680 
# 
# From -- ./inp_files/44247.got.cif
#   From: 2010.03.12/outbox.cif.g09.slc.cpg/sg67_23_cif.got.tgz:44247.got - 2010.04.10 22:41:39.
