data_PCOD8281463
_publ_section_title
;
Structure prediction by ZEFSAII (Michael W. Deem and Ramdas Pophale) SiO2 
 PCOD8281463
Probable space group: C M M A
;
_chemical_formula_sum "Si O2"
_cell_formula_units_Z 48
_cell_length_a 17.237038
_cell_length_b 16.940357
_cell_length_c 7.306958
_cell_angle_alpha 90.000000
_cell_angle_beta 90.000000
_cell_angle_gamma 90.000000
_cell_volume 2133.643262
_symmetry_space_group_name_H-M "C M M A"
_symmetry_group_IT_number 67
_symmetry_cell_setting 'orthorhombic'
loop_
_space_group_symop_operation_xyz
x,y,z
-x,1/2-y,z
x,-y,-z
-x,1/2+y,-z
-x,-y,-z
x,1/2+y,-z
-x,y,z
x,1/2-y,z
1/2+x,1/2+y,z
1/2-x,-y,z
1/2+x,1/2-y,-z
1/2-x,y,-z
1/2-x,1/2-y,-z
1/2+x,y,-z
1/2-x,1/2+y,z
1/2+x,-y,z
loop_
_atom_site_type_symbol
_atom_site_label
_atom_site_fract_x
_atom_site_fract_y
_atom_site_fract_z
Si Si1 0.086690 0.589848 0.464845
Si Si2 0.195885 0.160704 0.244212
Si Si3 0.346957 0.414256 0.093250
O O1 0.108898 0.500000 0.500000
O O2 0.150412 0.642978 0.568111
O O3 0.087741 0.601030 0.245552
O O4 0.000000 0.610806 0.534423
O O5 0.227134 0.250000 0.255478
O O6 0.265399 0.099272 0.201874
O O7 0.139322 0.149782 0.068425
O O8 0.351479 0.500000 0.000000
#
# Coordination Sequence:
#
# PCOD8281463 Si02
#       3
#    16  16  16
#     4  11  25  42  64  94 130 174 218 261 318 388
#     4  11  24  42  66  99 132 164 214 276 327 380
#     4  11  22  40  70  97 127 170 218 270 321 384
#
# _framework density 22.496732000000002
#
# number of rings (size 3 to 8) (size 9 to 14) (size 15 to 20)
#    0.000    1.000    3.333    5.000    0.000    8.000 
#    0.000    0.000    0.000    0.000    0.000    0.000 
#    0.000    0.000    0.000    0.000    0.000    0.000 
#
# Total GULP energy -297437.992623 kJ/mol
# GULP energy per Si atom -12393.249693 kJ/mol
# Density = 2.244553 g / cm^3
# Si number density = 22.496732 Si / 1000 Ang^3
#
#
#
# Elastic Constant Matrix: (Units=GPa)
#
#
# Indices 1 2 3 4 5 6 
#
# 1 53.1152 25.9401 21.8603 0.0000 0.0000 0.0000
# 2 25.9401 84.1758 24.2020 0.0000 0.0000 0.0000
# 3 21.8603 24.2020 142.3424 0.0000 0.0000 0.0000
# 4 0.0000 0.0000 0.0000 30.2203 0.0000 0.0000
# 5 0.0000 0.0000 0.0000 0.0000 34.3599 0.0000
# 6 0.0000 0.0000 0.0000 0.0000 0.0000 10.2872
#
#
#
# Elastic Compliance Matrix: (Units=1/GPa)
#
#
# Indices 1 2 3 4 5 6 
#
# 1 0.022941 -0.006368 -0.002441 0.000000 0.000000 0.000000
# 2 -0.006368 0.014258 -0.001446 0.000000 0.000000 0.000000
# 3 -0.002441 -0.001446 0.007646 0.000000 0.000000 0.000000
# 4 0.000000 0.000000 0.000000 0.033090 0.000000 0.000000
# 5 0.000000 0.000000 0.000000 0.000000 0.029104 0.000000
# 6 0.000000 0.000000 0.000000 0.000000 0.000000 0.097208
#
#
# Mechanical properties :
#
#
# Convention : Reuss Voigt Hill
#
# Bulk Modulus (GPa) = 41.09156 47.07089 44.08123
# Shear Modulus (GPa) = 21.47126 28.81557 25.14341
#
# Velocity S-wave (km/s) = 3.09272 3.58282 3.34675
# Velocity P-wave (km/s) = 5.57301 6.17125 5.87974
#
# Compressibility (1/GPa) = 0.02433590
#
# Stress axis : x y z
#
# Youngs Moduli (GPa) = 43.58926 70.13536 130.78699
#
# Poissons Ratio (x) = 0.44663 0.31919
# Poissons Ratio (y) = 0.27758 0.18915
# Poissons Ratio (z) = 0.10638 0.10144
#
# Static dielectric constant tensor:
#      x y z
#    x 3.729070 0.000000 0.000000 
#    y 0.000000 3.902040 0.000000 
#    z 0.000000 0.000000 4.839600 
# 
# 
# High freq. dielectric constant tensor:
#      x y z
#    x 1.854620 0.000000 0.000000 
#    y 0.000000 1.872530 0.000000 
#    z 0.000000 0.000000 1.913140 
# 
# From -- ./inp_files/8932.got.cif
#   From: 2010.03.12/outbox.cif.g09.slc.cpg/sg67_5_cif.got.tgz:8932.got - 2010.04.10 22:41:39.
