data_PCOD8281422
_publ_section_title
;
Structure prediction by ZEFSAII (Michael W. Deem and Ramdas Pophale) SiO2 
 PCOD8281422
Probable space group: C M M A
;
_chemical_formula_sum "Si O2"
_cell_formula_units_Z 80
_cell_length_a 16.587051
_cell_length_b 10.084481
_cell_length_c 24.121909
_cell_angle_alpha 90.000000
_cell_angle_beta 90.000000
_cell_angle_gamma 90.000000
_cell_volume 4034.915154
_symmetry_space_group_name_H-M "C M M A"
_symmetry_group_IT_number 67
_symmetry_cell_setting 'orthorhombic'
loop_
_space_group_symop_operation_xyz
x,y,z
-x,1/2-y,z
x,-y,-z
-x,1/2+y,-z
-x,-y,-z
x,1/2+y,-z
-x,y,z
x,1/2-y,z
1/2+x,1/2+y,z
1/2-x,-y,z
1/2+x,1/2-y,-z
1/2-x,y,-z
1/2-x,1/2-y,-z
1/2+x,y,-z
1/2-x,1/2+y,z
1/2+x,-y,z
loop_
_atom_site_type_symbol
_atom_site_label
_atom_site_fract_x
_atom_site_fract_y
_atom_site_fract_z
Si Si1 0.595941 0.898495 0.668371
Si Si2 0.169978 0.250000 0.927861
Si Si3 0.407539 0.004036 0.877901
Si Si4 0.358753 0.250000 0.947114
Si Si5 0.903960 0.898104 0.758661
Si Si6 0.404032 0.898219 0.544619
O O1 0.500000 0.902133 0.670702
O O2 0.625754 0.750000 0.683577
O O3 0.625213 0.937430 0.606470
O O4 0.632423 0.003269 0.712137
O O5 0.146361 0.379892 0.894183
O O6 0.265071 0.250000 0.933846
O O7 0.125924 0.250000 0.987176
O O8 0.500000 0.957948 0.873653
O O9 0.400758 0.119944 0.922912
O O10 0.374603 0.055361 0.818973
O O11 0.871032 0.750000 0.747095
O O12 0.000000 0.897971 0.756794
O O13 0.500000 0.903563 0.542463
O O14 0.374438 0.750000 0.529700
O O15 0.366231 0.000000 0.500000
#
# Coordination Sequence:
#
# PCOD8281422 Si02
#       6
#    16   8  16   8  16  16
#     4   8  14  23  36  54  80 115 155 203 254 300
#     4  11  25  39  59  83 107 141 178 211 262 328
#     4  11  22  37  58  84 109 136 177 225 265 310
#     4  11  23  43  59  77 111 145 172 211 266 326
#     4   9  17  29  44  65  93 123 158 205 260 308
#     4   8  13  20  29  45  71 107 153 200 242 289
#
# _framework density 19.826934000000001
#
# number of rings (size 3 to 8) (size 9 to 14) (size 15 to 20)
#    0.000    2.600    1.000    3.000    1.400    4.800 
#    0.000    4.000    0.000    0.000    0.000    0.000 
#    0.000    0.000    0.000    0.000    0.000    6.000 
#
# Total GULP energy -495944.710806 kJ/mol
# GULP energy per Si atom -12398.617770 kJ/mol
# Density = 1.978181 g / cm^3
# Si number density = 19.826934 Si / 1000 Ang^3
#
#
#
# Elastic Constant Matrix: (Units=GPa)
#
#
# Indices 1 2 3 4 5 6 
#
# 1 17.2325 7.2914 7.3345 0.0000 0.0000 0.0000
# 2 7.2914 165.7404 98.4388 0.0000 0.0000 0.0000
# 3 7.3345 98.4388 160.6719 0.0000 0.0000 0.0000
# 4 0.0000 0.0000 0.0000 48.1377 0.0000 0.0000
# 5 0.0000 0.0000 0.0000 0.0000 2.6557 0.0000
# 6 0.0000 0.0000 0.0000 0.0000 0.0000 25.5226
#
#
#
# Elastic Compliance Matrix: (Units=1/GPa)
#
#
# Indices 1 2 3 4 5 6 
#
# 1 0.059441 -0.001577 -0.001747 0.000000 0.000000 0.000000
# 2 -0.001577 0.009527 -0.005765 0.000000 0.000000 0.000000
# 3 -0.001747 -0.005765 0.009836 0.000000 0.000000 0.000000
# 4 0.000000 0.000000 0.000000 0.020774 0.000000 0.000000
# 5 0.000000 0.000000 0.000000 0.000000 0.376550 0.000000
# 6 0.000000 0.000000 0.000000 0.000000 0.000000 0.039181
#
#
# Mechanical properties :
#
#
# Convention : Reuss Voigt Hill
#
# Bulk Modulus (GPa) = 16.49485 63.30823 39.90154
# Shear Modulus (GPa) = 9.03024 30.63519 19.83272
#
# Velocity S-wave (km/s) = 2.13645 3.93508 3.16617
# Velocity P-wave (km/s) = 3.79781 7.25577 5.79092
#
# Compressibility (1/GPa) = 0.06062500
#
# Stress axis : x y z
#
# Youngs Moduli (GPa) = 16.82341 104.96668 101.67218
#
# Poissons Ratio (x) = 0.16557 0.17762
# Poissons Ratio (y) = 0.02654 0.58612
# Poissons Ratio (z) = 0.02939 0.60511
#
# Static dielectric constant tensor:
#      x y z
#    x 2.943340 0.000000 0.000000 
#    y 0.000000 3.753880 0.000000 
#    z 0.000000 0.000000 3.945720 
# 
# 
# High freq. dielectric constant tensor:
#      x y z
#    x 1.712320 0.000000 0.000000 
#    y 0.000000 1.784420 0.000000 
#    z 0.000000 0.000000 1.783330 
# 
# From -- ./inp_files/44456.got.cif
#   From: 2010.03.12/outbox.cif.g09.slc.cpg/sg67_23_cif.got.tgz:44456.got - 2010.04.10 22:41:39.
