data_PCOD8281298
_publ_section_title
;
Structure prediction by ZEFSAII (Michael W. Deem and Ramdas Pophale) SiO2 
 PCOD8281298
Probable space group: C M M A
;
_chemical_formula_sum "Si O2"
_cell_formula_units_Z 64
_cell_length_a 8.539408
_cell_length_b 15.438002
_cell_length_c 23.779044
_cell_angle_alpha 90.000000
_cell_angle_beta 90.000000
_cell_angle_gamma 90.000000
_cell_volume 3134.824608
_symmetry_space_group_name_H-M "C M M A"
_symmetry_group_IT_number 67
_symmetry_cell_setting 'orthorhombic'
loop_
_space_group_symop_operation_xyz
x,y,z
-x,1/2-y,z
x,-y,-z
-x,1/2+y,-z
-x,-y,-z
x,1/2+y,-z
-x,y,z
x,1/2-y,z
1/2+x,1/2+y,z
1/2-x,-y,z
1/2+x,1/2-y,-z
1/2-x,y,-z
1/2-x,1/2-y,-z
1/2+x,y,-z
1/2-x,1/2+y,z
1/2+x,-y,z
loop_
_atom_site_type_symbol
_atom_site_label
_atom_site_fract_x
_atom_site_fract_y
_atom_site_fract_z
Si Si1 0.683593 0.408250 0.131542
Si Si2 0.816681 0.649499 0.753220
Si Si3 0.315579 0.250000 0.437998
Si Si4 0.686165 0.590004 0.636665
Si Si5 0.315909 0.750000 0.062069
O O1 0.500000 0.405503 0.121554
O O2 0.750000 0.500000 0.110946
O O3 0.720850 0.394388 0.196898
O O4 0.762241 0.334675 0.094642
O O5 0.771464 0.750000 0.749104
O O6 0.766897 0.602392 0.696588
O O7 0.000000 0.636059 0.764448
O O8 0.500000 0.250000 0.441450
O O9 0.250000 0.250000 0.500000
O O10 0.255886 0.165230 0.405148
O O11 0.500000 0.589719 0.643459
O O12 0.750000 0.500000 0.611114
O O13 0.500000 0.750000 0.059256
O O14 0.250000 0.750000 0.000000
#
# Coordination Sequence:
#
# PCOD8281298 Si02
#       5
#    16  16   8  16   8
#     4  12  25  43  68  98 133 173 214 264 320 379
#     4  11  22  38  64  96 130 168 209 257 315 380
#     4  10  24  43  64  87 120 161 207 259 311 370
#     4  11  23  41  63  92 126 163 207 256 313 375
#     4  12  26  47  70  97 130 169 219 269 321 380
#
# _framework density 20.415816
#
# number of rings (size 3 to 8) (size 9 to 14) (size 15 to 20)
#    0.000    0.750    2.500    5.625    0.000    4.000 
#    0.000    5.000    0.000    0.000    0.000    0.000 
#    0.000    0.000    0.000    0.000    0.000    0.000 
#
# Total GULP energy -397037.255731 kJ/mol
# GULP energy per Si atom -12407.414242 kJ/mol
# Density = 2.036935 g / cm^3
# Si number density = 20.415816 Si / 1000 Ang^3
#
#
#
# Elastic Constant Matrix: (Units=GPa)
#
#
# Indices 1 2 3 4 5 6 
#
# 1 123.5583 54.5030 36.0503 0.0000 0.0000 0.0000
# 2 54.5030 186.8879 69.3470 0.0000 0.0000 0.0000
# 3 36.0503 69.3470 144.5366 0.0000 0.0000 0.0000
# 4 0.0000 0.0000 0.0000 -32.7759 0.0000 0.0000
# 5 0.0000 0.0000 0.0000 0.0000 38.7539 0.0000
# 6 0.0000 0.0000 0.0000 0.0000 0.0000 36.1463
#
#
#
# Elastic Compliance Matrix: (Units=1/GPa)
#
#
# Indices 1 2 3 4 5 6 
#
# 1 0.009474 -0.002295 -0.001262 0.000000 0.000000 0.000000
# 2 -0.002295 0.007065 -0.002818 0.000000 0.000000 0.000000
# 3 -0.001262 -0.002818 0.008585 0.000000 0.000000 0.000000
# 4 0.000000 0.000000 0.000000 -0.030510 0.000000 0.000000
# 5 0.000000 0.000000 0.000000 0.000000 0.025804 0.000000
# 6 0.000000 0.000000 0.000000 0.000000 0.000000 0.027665
#
#
# Mechanical properties :
#
#
# Convention : Reuss Voigt Hill
#
# Bulk Modulus (GPa) = 80.80112 86.08702 83.44407
# Shear Modulus (GPa) = 76.97366 28.09704 52.53535
#
# Velocity S-wave (km/s) = 6.14693 3.71379 5.07824
# Velocity P-wave (km/s) = 9.48912 7.78769 8.68019
#
# Compressibility (1/GPa) = 0.01237607
#
# Stress axis : x y z
#
# Youngs Moduli (GPa) = 105.55504 141.53287 116.47813
#
# Poissons Ratio (x) = 0.32476 0.14700
# Poissons Ratio (y) = 0.24220 0.32819
# Poissons Ratio (z) = 0.13321 0.39879
#
# Static dielectric constant tensor:
#      x y z
#    x 3.759230 0.000000 0.000000 
#    y 0.000000 4.141680 0.000000 
#    z 0.000000 0.000000 3.556150 
# 
# 
# High freq. dielectric constant tensor:
#      x y z
#    x 1.810850 0.000000 0.000000 
#    y 0.000000 1.821900 0.000000 
#    z 0.000000 0.000000 1.794970 
# 
# From -- ./inp_files/40419.got.cif
#   From: 2010.03.12/outbox.cif.g09.slc.cpg/sg67_21_cif.got.tgz:40419.got - 2010.04.10 22:41:39.
