data_PCOD8281418
_publ_section_title
;
Structure prediction by ZEFSAII (Michael W. Deem and Ramdas Pophale) SiO2 
 PCOD8281418
Probable space group: C M M A
;
_chemical_formula_sum "Si O2"
_cell_formula_units_Z 80
_cell_length_a 18.315366
_cell_length_b 8.726880
_cell_length_c 25.916778
_cell_angle_alpha 90.000000
_cell_angle_beta 90.000000
_cell_angle_gamma 90.000000
_cell_volume 4142.434160
_symmetry_space_group_name_H-M "C M M A"
_symmetry_group_IT_number 67
_symmetry_cell_setting 'orthorhombic'
loop_
_space_group_symop_operation_xyz
x,y,z
-x,1/2-y,z
x,-y,-z
-x,1/2+y,-z
-x,-y,-z
x,1/2+y,-z
-x,y,z
x,1/2-y,z
1/2+x,1/2+y,z
1/2-x,-y,z
1/2+x,1/2-y,-z
1/2-x,y,-z
1/2-x,1/2-y,-z
1/2+x,y,-z
1/2-x,1/2+y,z
1/2+x,-y,z
loop_
_atom_site_type_symbol
_atom_site_label
_atom_site_fract_x
_atom_site_fract_y
_atom_site_fract_z
Si Si1 0.086882 0.418524 0.949953
Si Si2 0.170429 0.432189 0.740170
Si Si3 0.672629 0.932294 0.555289
Si Si4 0.586153 0.073936 0.645735
Si Si5 0.918484 0.067156 0.838116
O O1 0.120701 0.250000 0.950982
O O2 0.106806 0.496892 0.894578
O O3 0.000000 0.413008 0.954523
O O4 0.121389 0.500000 0.000000
O O5 0.173389 0.250000 0.736774
O O6 0.250000 0.500000 0.733115
O O7 0.119069 0.494504 0.695668
O O8 0.137602 0.489913 0.794670
O O9 0.677962 0.750000 0.551841
O O10 0.650632 0.000000 0.500000
O O11 0.750000 0.000000 0.573952
O O12 0.611114 0.982516 0.595263
O O13 0.500000 0.060921 0.649640
O O14 0.612070 0.250000 0.642322
O O15 0.920643 0.250000 0.841040
O O16 0.000000 0.006708 0.824681
#
# Coordination Sequence:
#
# PCOD8281418 Si02
#       5
#    16  16  16  16  16
#     4   8  13  23  41  67  97 127 162 206 257 312
#     4  11  22  37  57  79 106 141 182 224 271 327
#     4  11  22  39  63  89 119 153 190 227 267 317
#     4  11  24  41  60  84 114 145 181 227 275 322
#     4   8  15  29  50  74 100 133 173 216 263 318
#
# _framework density 19.312317
#
# number of rings (size 3 to 8) (size 9 to 14) (size 15 to 20)
#    0.000    2.200    0.000    6.000    0.000    2.800 
#    0.000    2.000    0.000    5.400    0.000    4.200 
#    0.000    0.000    0.000    0.000    0.000    0.000 
#
# Total GULP energy -495868.544596 kJ/mol
# GULP energy per Si atom -12396.713615 kJ/mol
# Density = 1.926836 g / cm^3
# Si number density = 19.312317 Si / 1000 Ang^3
#
#
#
# Elastic Constant Matrix: (Units=GPa)
#
#
# Indices 1 2 3 4 5 6 
#
# 1 65.6981 35.6817 54.3107 0.0000 0.0000 0.0000
# 2 35.6817 110.6025 56.2968 0.0000 0.0000 0.0000
# 3 54.3107 56.2968 157.5183 0.0000 0.0000 0.0000
# 4 0.0000 0.0000 0.0000 32.2537 0.0000 0.0000
# 5 0.0000 0.0000 0.0000 0.0000 8.1245 0.0000
# 6 0.0000 0.0000 0.0000 0.0000 0.0000 16.9599
#
#
#
# Elastic Compliance Matrix: (Units=1/GPa)
#
#
# Indices 1 2 3 4 5 6 
#
# 1 0.022703 -0.004083 -0.006369 0.000000 0.000000 0.000000
# 2 -0.004083 0.011786 -0.002805 0.000000 0.000000 0.000000
# 3 -0.006369 -0.002805 0.009547 0.000000 0.000000 0.000000
# 4 0.000000 0.000000 0.000000 0.031004 0.000000 0.000000
# 5 0.000000 0.000000 0.000000 0.000000 0.123084 0.000000
# 6 0.000000 0.000000 0.000000 0.000000 0.000000 0.058963
#
#
# Mechanical properties :
#
#
# Convention : Reuss Voigt Hill
#
# Bulk Modulus (GPa) = 57.06457 69.59969 63.33213
# Shear Modulus (GPa) = 17.27471 23.96961 20.62216
#
# Velocity S-wave (km/s) = 2.99405 3.52683 3.27130
# Velocity P-wave (km/s) = 6.44708 7.25961 6.86538
#
# Compressibility (1/GPa) = 0.01752401
#
# Stress axis : x y z
#
# Youngs Moduli (GPa) = 44.04637 84.84584 104.74795
#
# Poissons Ratio (x) = 0.34640 0.66711
# Poissons Ratio (y) = 0.17983 0.29378
# Poissons Ratio (z) = 0.28052 0.23796
#
# Static dielectric constant tensor:
#      x y z
#    x 3.310030 0.000000 0.000000 
#    y 0.000000 3.547330 0.000000 
#    z 0.000000 0.000000 3.977930 
# 
# 
# High freq. dielectric constant tensor:
#      x y z
#    x 1.725150 0.000000 0.000000 
#    y 0.000000 1.740520 0.000000 
#    z 0.000000 0.000000 1.775670 
# 
# From -- ./inp_files/44416.got.cif
#   From: 2010.03.12/outbox.cif.g09.slc.cpg/sg67_23_cif.got.tgz:44416.got - 2010.04.10 22:41:39.
