data_PCOD8281061
_publ_section_title
;
Structure prediction by ZEFSAII (Michael W. Deem and Ramdas Pophale) SiO2 
 PCOD8281061
Probable space group: C M M A
;
_chemical_formula_sum "Si O2"
_cell_formula_units_Z 88
_cell_length_a 23.157467
_cell_length_b 20.719348
_cell_length_c 8.763752
_cell_angle_alpha 90.000000
_cell_angle_beta 90.000000
_cell_angle_gamma 90.000000
_cell_volume 4204.914968
_symmetry_space_group_name_H-M "C M M A"
_symmetry_group_IT_number 67
_symmetry_cell_setting 'orthorhombic'
loop_
_space_group_symop_operation_xyz
x,y,z
-x,1/2-y,z
x,-y,-z
-x,1/2+y,-z
-x,-y,-z
x,1/2+y,-z
-x,y,z
x,1/2-y,z
1/2+x,1/2+y,z
1/2-x,-y,z
1/2+x,1/2-y,-z
1/2-x,y,-z
1/2-x,1/2-y,-z
1/2+x,y,-z
1/2-x,1/2+y,z
1/2+x,-y,z
loop_
_atom_site_type_symbol
_atom_site_label
_atom_site_fract_x
_atom_site_fract_y
_atom_site_fract_z
Si Si1 0.158369 0.427225 0.493219
Si Si2 0.285343 0.323001 0.715291
Si Si3 0.169400 0.618693 0.175429
Si Si4 0.858338 0.500000 0.000000
Si Si5 0.064610 0.435755 0.246335
Si Si6 0.604208 0.179140 0.925148
O O1 0.184976 0.500000 0.500000
O O2 0.203304 0.376918 0.415438
O O3 0.145050 0.404438 0.663091
O O4 0.096984 0.427356 0.407165
O O5 0.281531 0.250000 0.645584
O O6 0.226944 0.339762 0.804317
O O7 0.335107 0.326016 0.838840
O O8 0.181596 0.558794 0.058318
O O9 0.118051 0.661035 0.100658
O O10 0.898972 0.515623 0.856774
O O11 0.059072 0.368087 0.155885
O O12 0.000000 0.461930 0.275965
O O13 0.576896 0.250000 0.918163
#
# Coordination Sequence:
#
# PCOD8281061 Si02
#       6
#    16  16  16   8  16  16
#     4  11  23  41  55  90 128 159 204 250 300 360
#     4  10  22  40  62  87 122 169 206 243 300 366
#     4  11  21  36  58  85 122 160 203 242 305 359
#     4  10  21  40  57  88 118 150 200 256 302 356
#     4  10  21  40  64  85 111 154 199 249 310 362
#     4   9  20  39  60  88 118 149 202 256 296 356
#
# _framework density 20.927890999999999
#
# number of rings (size 3 to 8) (size 9 to 14) (size 15 to 20)
#    0.000    1.818    1.818    1.909    0.000    5.818 
#    3.273    0.909    0.000    0.000    0.000    0.000 
#    0.000    0.000    0.000    0.000    0.000    0.000 
#
# Total GULP energy -545453.908061 kJ/mol
# GULP energy per Si atom -12396.679729 kJ/mol
# Density = 2.088026 g / cm^3
# Si number density = 20.927891 Si / 1000 Ang^3
#
#
#
# Elastic Constant Matrix: (Units=GPa)
#
#
# Indices 1 2 3 4 5 6 
#
# 1 68.3785 15.6789 18.5953 0.0000 0.0000 0.0000
# 2 15.6789 147.5663 20.9982 0.0000 0.0000 0.0000
# 3 18.5953 20.9982 92.1090 0.0000 0.0000 0.0000
# 4 0.0000 0.0000 0.0000 31.1536 0.0000 0.0000
# 5 0.0000 0.0000 0.0000 0.0000 14.4746 0.0000
# 6 0.0000 0.0000 0.0000 0.0000 0.0000 15.1399
#
#
#
# Elastic Compliance Matrix: (Units=1/GPa)
#
#
# Indices 1 2 3 4 5 6 
#
# 1 0.015697 -0.001258 -0.002882 0.000000 0.000000 0.000000
# 2 -0.001258 0.007105 -0.001366 0.000000 0.000000 0.000000
# 3 -0.002882 -0.001366 0.011750 0.000000 0.000000 0.000000
# 4 0.000000 0.000000 0.000000 0.032099 0.000000 0.000000
# 5 0.000000 0.000000 0.000000 0.000000 0.069087 0.000000
# 6 0.000000 0.000000 0.000000 0.000000 0.000000 0.066051
#
#
# Mechanical properties :
#
#
# Convention : Reuss Voigt Hill
#
# Bulk Modulus (GPa) = 42.48088 46.51097 44.49592
# Shear Modulus (GPa) = 22.66081 29.00571 25.83326
#
# Velocity S-wave (km/s) = 3.29417 3.72692 3.51721
# Velocity P-wave (km/s) = 5.90013 6.38690 6.14833
#
# Compressibility (1/GPa) = 0.02354000
#
# Stress axis : x y z
#
# Youngs Moduli (GPa) = 63.70782 140.75426 85.10699
#
# Poissons Ratio (x) = 0.17702 0.24529
# Poissons Ratio (y) = 0.08012 0.11623
# Poissons Ratio (z) = 0.18362 0.19223
#
# Static dielectric constant tensor:
#      x y z
#    x 3.309640 0.000000 0.000000 
#    y 0.000000 4.223360 0.000000 
#    z 0.000000 0.000000 3.900320 
# 
# 
# High freq. dielectric constant tensor:
#      x y z
#    x 1.785730 0.000000 0.000000 
#    y 0.000000 1.832420 0.000000 
#    z 0.000000 0.000000 1.828860 
# 
# From -- ./inp_files/12438.got.cif
#   From: 2010.03.12/outbox.cif.g09.slc.cpg/sg67_7_cif.got.tgz:12438.got - 2010.04.10 22:41:39.
