data_PCOD8281773
_publ_section_title
;
Structure prediction by ZEFSAII (Michael W. Deem and Ramdas Pophale) SiO2 
 PCOD8281773
Probable space group: C C C A
;
_chemical_formula_sum "Si O2"
_cell_formula_units_Z 112
_cell_length_a 22.927625
_cell_length_b 24.142474
_cell_length_c 11.726902
_cell_angle_alpha 90.000000
_cell_angle_beta 90.000000
_cell_angle_gamma 90.000000
_cell_volume 6491.187261
_symmetry_space_group_name_H-M "C C C A"
_symmetry_group_IT_number 68
_space_group.IT_coordinate_system_code '2'
_symmetry_cell_setting 'orthorhombic'
loop_
_space_group_symop_operation_xyz
x,y,z
-x,1/2-y,z
x,1/2-y,1/2-z
-x,y,1/2-z
-x,-y,-z
x,1/2+y,-z
-x,1/2+y,1/2+z
x,-y,1/2+z
1/2+x,1/2+y,z
1/2-x,-y,z
1/2+x,-y,1/2-z
1/2-x,1/2+y,1/2-z
1/2-x,1/2-y,-z
1/2+x,y,-z
1/2-x,y,1/2+z
1/2+x,1/2-y,1/2+z
loop_
_atom_site_type_symbol
_atom_site_label
_atom_site_fract_x
_atom_site_fract_y
_atom_site_fract_z
Si Si1 0.831710 0.552179 0.858726
Si Si2 0.379891 0.060443 0.614807
Si Si3 0.701873 0.065884 0.088576
Si Si4 0.117304 0.366681 0.720676
Si Si5 0.500000 0.250000 0.440447
Si Si6 0.415592 0.561249 0.933265
Si Si7 0.029754 0.370731 0.522301
Si Si8 0.406742 0.750000 0.750000
O O1 0.857898 0.575771 0.741091
O O2 0.770382 0.577471 0.901363
O O3 0.820738 0.487060 0.840221
O O4 0.877664 0.567516 0.954202
O O5 0.320090 0.057386 0.541187
O O6 0.423089 0.108864 0.570969
O O7 0.416044 0.002763 0.607952
O O8 0.671800 0.118093 0.143945
O O9 0.112274 0.402512 0.833749
O O10 0.057217 0.369733 0.649161
O O11 0.133484 0.303688 0.748458
O O12 0.492011 0.191938 0.511824
O O13 0.556193 0.241763 0.363683
O O14 0.478954 0.583676 0.968286
#
# Coordination Sequence:
#
# PCOD8281773 Si02
#       8
#    16  16  16  16   8  16  16   8
#     4  10  21  33  53  78 106 146 179 210 270 330
#     4  10  21  35  50  79 114 143 174 216 276 328
#     4   9  20  34  53  75 105 141 180 223 258 316
#     4  10  18  33  55  82 105 135 178 226 271 303
#     4   9  16  30  52  79 100 140 181 218 263 304
#     4  11  20  33  52  81 110 143 174 220 275 322
#     4  10  20  34  53  80 112 139 175 225 265 320
#     4   9  16  28  54  80 102 130 180 233 262 302
#
# _framework density 17.254162000000001
#
# number of rings (size 3 to 8) (size 9 to 14) (size 15 to 20)
#    0.000    2.143    2.857    0.857    2.000    1.714 
#    2.571    0.000    0.000    4.286    0.000    0.000 
#    0.000    0.000    0.000    0.000    0.000    0.000 
#
# Total GULP energy -694014.271761 kJ/mol
# GULP energy per Si atom -12393.111996 kJ/mol
# Density = 1.721489 g / cm^3
# Si number density = 17.254162 Si / 1000 Ang^3
#
#
#
# Elastic Constant Matrix: (Units=GPa)
#
#
# Indices 1 2 3 4 5 6 
#
# 1 82.2839 39.4289 29.6603 0.0000 0.0000 0.0000
# 2 39.4289 114.6832 33.2578 0.0000 0.0000 0.0000
# 3 29.6603 33.2578 89.0382 0.0000 0.0000 0.0000
# 4 0.0000 0.0000 0.0000 21.8689 0.0000 0.0000
# 5 0.0000 0.0000 0.0000 0.0000 20.5637 0.0000
# 6 0.0000 0.0000 0.0000 0.0000 0.0000 18.5483
#
#
#
# Elastic Compliance Matrix: (Units=1/GPa)
#
#
# Indices 1 2 3 4 5 6 
#
# 1 0.015493 -0.004295 -0.003557 0.000000 0.000000 0.000000
# 2 -0.004295 0.010970 -0.002667 0.000000 0.000000 0.000000
# 3 -0.003557 -0.002667 0.013412 0.000000 0.000000 0.000000
# 4 0.000000 0.000000 0.000000 0.045727 0.000000 0.000000
# 5 0.000000 0.000000 0.000000 0.000000 0.048629 0.000000
# 6 0.000000 0.000000 0.000000 0.000000 0.000000 0.053913
#
#
# Mechanical properties :
#
#
# Convention : Reuss Voigt Hill
#
# Bulk Modulus (GPa) = 53.08473 54.52215 53.80344
# Shear Modulus (GPa) = 23.20605 24.44008 23.82306
#
# Velocity S-wave (km/s) = 3.67134 3.76769 3.71983
# Velocity P-wave (km/s) = 6.98604 7.11304 7.04983
#
# Compressibility (1/GPa) = 0.01883781
#
# Stress axis : x y z
#
# Youngs Moduli (GPa) = 64.54386 91.15996 74.56018
#
# Poissons Ratio (x) = 0.39156 0.26519
# Poissons Ratio (y) = 0.27723 0.19882
# Poissons Ratio (z) = 0.22957 0.24309
#
# Static dielectric constant tensor:
#      x y z
#    x 3.149560 0.000000 0.000000 
#    y 0.000000 3.268210 0.000000 
#    z 0.000000 0.000000 3.090710 
# 
# 
# High freq. dielectric constant tensor:
#      x y z
#    x 1.658970 0.000000 0.000000 
#    y 0.000000 1.658210 0.000000 
#    z 0.000000 0.000000 1.655260 
# 
# From -- ./inp_files/16666.got.cif
#   From: 2010.03.12/outbox.cif.g09.slc.cpg/sg68_9_cif.got.tgz:16666.got - 2010.04.10 23:14:56.
