data_PCOD8281539
_publ_section_title
;
Structure prediction by ZEFSAII (Michael W. Deem and Ramdas Pophale) SiO2 
 PCOD8281539
Probable space group: C M M A
;
_chemical_formula_sum "Si O2"
_cell_formula_units_Z 96
_cell_length_a 26.921473
_cell_length_b 10.005985
_cell_length_c 21.401575
_cell_angle_alpha 90.000000
_cell_angle_beta 90.000000
_cell_angle_gamma 90.000000
_cell_volume 5765.067564
_symmetry_space_group_name_H-M "C M M A"
_symmetry_group_IT_number 67
_symmetry_cell_setting 'orthorhombic'
loop_
_space_group_symop_operation_xyz
x,y,z
-x,1/2-y,z
x,-y,-z
-x,1/2+y,-z
-x,-y,-z
x,1/2+y,-z
-x,y,z
x,1/2-y,z
1/2+x,1/2+y,z
1/2-x,-y,z
1/2+x,1/2-y,-z
1/2-x,y,-z
1/2-x,1/2-y,-z
1/2+x,y,-z
1/2-x,1/2+y,z
1/2+x,-y,z
loop_
_atom_site_type_symbol
_atom_site_label
_atom_site_fract_x
_atom_site_fract_y
_atom_site_fract_z
Si Si1 0.101468 0.019579 0.313786
Si Si2 0.942720 0.750000 0.361095
Si Si3 0.055968 0.591729 0.809875
Si Si4 0.944611 0.750000 0.612155
Si Si5 0.829230 0.000000 0.500000
Si Si6 0.206432 0.094003 0.370671
Si Si7 0.559106 0.101206 0.948766
Si Si8 0.892440 0.250000 0.517203
O O1 0.094588 0.028532 0.239117
O O2 0.062777 0.119591 0.346227
O O3 0.156981 0.059012 0.332676
O O4 0.087678 0.872795 0.334387
O O5 0.939766 0.750000 0.436766
O O6 0.000000 0.750000 0.340319
O O7 0.056057 0.750000 0.803552
O O8 0.074096 0.551031 0.879418
O O9 0.000000 0.537657 0.797337
O O10 0.906300 0.750000 0.555323
O O11 0.000000 0.750000 0.585014
O O12 0.797191 0.065746 0.444890
O O13 0.861980 0.115827 0.531958
O O14 0.219656 0.250000 0.361207
O O15 0.250000 0.000000 0.343231
O O16 0.500000 0.105866 0.953223
O O17 0.580360 0.250000 0.961615
O O18 0.581770 0.000000 0.000000
#
# Coordination Sequence:
#
# PCOD8281539 Si02
#       8
#    16   8  16   8   8  16  16   8
#     4  12  22  39  54  77 108 132 177 223 258 319
#     4  12  25  36  52  78 111 144 167 211 273 312
#     4   9  16  29  52  74  98 140 180 208 245 299
#     4  12  21  36  60  76  97 140 179 213 255 316
#     4  12  21  40  59  74  98 128 169 216 269 326
#     4  12  26  41  61  80  96 129 170 219 282 327
#     4   8  14  25  42  67  99 135 174 209 240 280
#     4  12  21  38  55  76 104 134 169 216 261 322
#
# _framework density 16.652016
#
# number of rings (size 3 to 8) (size 9 to 14) (size 15 to 20)
#    0.000    1.167    5.833    3.000    2.333    0.667 
#    1.500    2.500    0.000    0.000    0.000    0.000 
#    0.000    0.667    0.000    5.333    0.000    0.333 
#
# Total GULP energy -595187.168447 kJ/mol
# GULP energy per Si atom -12399.732676 kJ/mol
# Density = 1.661412 g / cm^3
# Si number density = 16.652016 Si / 1000 Ang^3
#
#
#
# Elastic Constant Matrix: (Units=GPa)
#
#
# Indices 1 2 3 4 5 6 
#
# 1 69.1482 35.5039 23.4452 0.0000 0.0000 0.0000
# 2 35.5039 123.7403 41.9625 0.0000 0.0000 0.0000
# 3 23.4452 41.9625 119.6605 0.0000 0.0000 0.0000
# 4 0.0000 0.0000 0.0000 18.4242 0.0000 0.0000
# 5 0.0000 0.0000 0.0000 0.0000 10.5770 0.0000
# 6 0.0000 0.0000 0.0000 0.0000 0.0000 27.8758
#
#
#
# Elastic Compliance Matrix: (Units=1/GPa)
#
#
# Indices 1 2 3 4 5 6 
#
# 1 0.017323 -0.004335 -0.001874 0.000000 0.000000 0.000000
# 2 -0.004335 0.010257 -0.002748 0.000000 0.000000 0.000000
# 3 -0.001874 -0.002748 0.009688 0.000000 0.000000 0.000000
# 4 0.000000 0.000000 0.000000 0.054277 0.000000 0.000000
# 5 0.000000 0.000000 0.000000 0.000000 0.094544 0.000000
# 6 0.000000 0.000000 0.000000 0.000000 0.000000 0.035873
#
#
# Mechanical properties :
#
#
# Convention : Reuss Voigt Hill
#
# Bulk Modulus (GPa) = 51.66698 57.15246 54.40972
# Shear Modulus (GPa) = 20.29830 25.48456 22.89143
#
# Velocity S-wave (km/s) = 3.49516 3.91630 3.71171
# Velocity P-wave (km/s) = 6.88353 7.40581 7.14944
#
# Compressibility (1/GPa) = 0.01935472
#
# Stress axis : x y z
#
# Youngs Moduli (GPa) = 57.72755 97.49491 103.22414
#
# Poissons Ratio (x) = 0.42262 0.19344
# Poissons Ratio (y) = 0.25024 0.28362
# Poissons Ratio (z) = 0.10818 0.26788
#
# Static dielectric constant tensor:
#      x y z
#    x 2.908180 0.000000 0.000000 
#    y 0.000000 3.294600 0.000000 
#    z 0.000000 0.000000 3.273350 
# 
# 
# High freq. dielectric constant tensor:
#      x y z
#    x 1.604370 0.000000 0.000000 
#    y 0.000000 1.651740 0.000000 
#    z 0.000000 0.000000 1.628700 
# 
# From -- ./inp_files/42736.got.cif
#   From: 2010.03.12/outbox.cif.g09.slc.cpg/sg67_22_cif.got.tgz:42736.got - 2010.04.10 22:41:39.
