data_PCOD8281654
_publ_section_title
;
Structure prediction by ZEFSAII (Michael W. Deem and Ramdas Pophale) SiO2 
 PCOD8281654
Probable space group: C C C A
;
_chemical_formula_sum "Si O2"
_cell_formula_units_Z 88
_cell_length_a 14.357605
_cell_length_b 22.807355
_cell_length_c 13.599487
_cell_angle_alpha 90.000000
_cell_angle_beta 90.000000
_cell_angle_gamma 90.000000
_cell_volume 4453.274334
_symmetry_space_group_name_H-M "C C C A"
_symmetry_group_IT_number 68
_space_group.IT_coordinate_system_code '2'
_symmetry_cell_setting 'orthorhombic'
loop_
_space_group_symop_operation_xyz
x,y,z
-x,1/2-y,z
x,1/2-y,1/2-z
-x,y,1/2-z
-x,-y,-z
x,1/2+y,-z
-x,1/2+y,1/2+z
x,-y,1/2+z
1/2+x,1/2+y,z
1/2-x,-y,z
1/2+x,-y,1/2-z
1/2-x,1/2+y,1/2-z
1/2-x,1/2-y,-z
1/2+x,y,-z
1/2-x,y,1/2+z
1/2+x,1/2-y,1/2+z
loop_
_atom_site_type_symbol
_atom_site_label
_atom_site_fract_x
_atom_site_fract_y
_atom_site_fract_z
Si Si1 0.708497 0.750000 0.250000
Si Si2 0.756547 0.932120 0.876120
Si Si3 0.610354 0.628290 0.492316
Si Si4 0.854465 0.755063 0.961307
Si Si5 0.596136 0.879710 0.513006
Si Si6 0.258540 0.125242 0.323779
O O1 0.643500 0.736008 0.156700
O O2 0.768731 0.691596 0.279149
O O3 0.851807 0.907815 0.920678
O O4 0.755467 0.922910 0.759849
O O5 0.750000 0.000000 0.903254
O O6 0.670169 0.895680 0.917954
O O7 0.591748 0.697812 0.499126
O O8 0.509799 0.596855 0.503814
O O9 0.666092 0.618230 0.390751
O O10 0.905381 0.809741 0.008155
O O11 0.750000 0.750000 0.000000
O O12 0.649260 0.894201 0.615304
#
# Coordination Sequence:
#
# PCOD8281654 Si02
#       6
#     8  16  16  16  16  16
#     4  10  16  32  61  83 118 160 194 238 295 359
#     4  11  24  43  63  84 122 164 206 250 299 358
#     4  10  23  39  62  95 120 158 204 246 307 359
#     4  11  17  36  61  91 127 157 192 246 302 364
#     4  11  22  39  64  91 126 158 199 254 300 358
#     4  10  21  38  62  87 123 161 199 248 303 358
#
# _framework density 19.760739999999998
#
# number of rings (size 3 to 8) (size 9 to 14) (size 15 to 20)
#    0.000    1.455    7.273    0.545    0.000    5.091 
#    0.000    2.727    0.000    0.000    0.000    0.000 
#    0.000    0.000    0.000    0.000    0.000    0.000 
#
# Total GULP energy -545344.047894 kJ/mol
# GULP energy per Si atom -12394.182907 kJ/mol
# Density = 1.971576 g / cm^3
# Si number density = 19.760740 Si / 1000 Ang^3
#
#
#
# Elastic Constant Matrix: (Units=GPa)
#
#
# Indices 1 2 3 4 5 6 
#
# 1 136.8695 11.7474 33.0855 0.0000 0.0000 0.0000
# 2 11.7474 67.2196 27.8792 0.0000 0.0000 0.0000
# 3 33.0855 27.8792 98.1717 0.0000 0.0000 0.0000
# 4 0.0000 0.0000 0.0000 22.1917 0.0000 0.0000
# 5 0.0000 0.0000 0.0000 0.0000 -3.5569 0.0000
# 6 0.0000 0.0000 0.0000 0.0000 0.0000 2.4597
#
#
#
# Elastic Compliance Matrix: (Units=1/GPa)
#
#
# Indices 1 2 3 4 5 6 
#
# 1 0.007960 -0.000316 -0.002593 0.000000 0.000000 0.000000
# 2 -0.000316 0.016875 -0.004686 0.000000 0.000000 0.000000
# 3 -0.002593 -0.004686 0.012391 0.000000 0.000000 0.000000
# 4 0.000000 0.000000 0.000000 0.045062 0.000000 0.000000
# 5 0.000000 0.000000 0.000000 0.000000 -0.281141 0.000000
# 6 0.000000 0.000000 0.000000 0.000000 0.000000 0.406561
#
#
# Mechanical properties :
#
#
# Convention : Reuss Voigt Hill
#
# Bulk Modulus (GPa) = 45.37823 49.74276 47.56050
# Shear Modulus (GPa) = 21.71618 19.52214 20.61916
#
# Velocity S-wave (km/s) = 3.31865 3.14654 3.23374
# Velocity P-wave (km/s) = 6.13989 6.19904 6.16954
#
# Compressibility (1/GPa) = 0.02203700
#
# Stress axis : x y z
#
# Youngs Moduli (GPa) = 125.62594 59.25833 80.70462
#
# Poissons Ratio (x) = 0.01871 0.20927
# Poissons Ratio (y) = 0.03965 0.37818
# Poissons Ratio (z) = 0.32575 0.27768
#
# Static dielectric constant tensor:
#      x y z
#    x 4.034830 0.000000 0.000000 
#    y 0.000000 3.722700 0.000000 
#    z 0.000000 0.000000 3.756610 
# 
# 
# High freq. dielectric constant tensor:
#      x y z
#    x 1.753320 0.000000 0.000000 
#    y 0.000000 1.760380 0.000000 
#    z 0.000000 0.000000 1.775790 
# 
# From -- ./inp_files/22264.got.cif
#   From: 2010.03.12/outbox.cif.g09.slc.cpg/sg68_12_cif.got.tgz:22264.got - 2010.04.10 23:14:56.
