data_PCOD8281103
_publ_section_title
;
Structure prediction by ZEFSAII (Michael W. Deem and Ramdas Pophale) SiO2 
 PCOD8281103
Probable space group: C M M A
;
_chemical_formula_sum "Si O2"
_cell_formula_units_Z 60
_cell_length_a 13.968224
_cell_length_b 15.683948
_cell_length_c 11.231530
_cell_angle_alpha 90.000000
_cell_angle_beta 90.000000
_cell_angle_gamma 90.000000
_cell_volume 2460.568762
_symmetry_space_group_name_H-M "C M M A"
_symmetry_group_IT_number 67
_symmetry_cell_setting 'orthorhombic'
loop_
_space_group_symop_operation_xyz
x,y,z
-x,1/2-y,z
x,-y,-z
-x,1/2+y,-z
-x,-y,-z
x,1/2+y,-z
-x,y,z
x,1/2-y,z
1/2+x,1/2+y,z
1/2-x,-y,z
1/2+x,1/2-y,-z
1/2-x,y,-z
1/2-x,1/2-y,-z
1/2+x,y,-z
1/2-x,1/2+y,z
1/2+x,-y,z
loop_
_atom_site_type_symbol
_atom_site_label
_atom_site_fract_x
_atom_site_fract_y
_atom_site_fract_z
Si Si1 0.000000 0.044601 0.630489
Si Si2 0.294359 0.750000 0.374887
Si Si3 0.105923 0.153392 0.955995
Si Si4 0.304051 0.911149 0.728154
Si Si5 0.000000 0.907681 0.835865
Si Si6 0.500000 0.750000 0.330081
O O1 0.900104 0.096142 0.644810
O O2 0.000000 0.000000 0.500000
O O3 0.000000 0.988097 0.751039
O O4 0.250000 0.750000 0.500000
O O5 0.266854 0.834892 0.304305
O O6 0.406033 0.750000 0.409489
O O7 0.144428 0.250000 0.979620
O O8 0.173831 0.101290 0.867754
O O9 0.000000 0.160082 0.897222
O O10 0.095310 0.099217 0.079835
O O11 0.250000 0.000000 0.704775
O O12 0.000000 0.828576 0.753821
#
# Coordination Sequence:
#
# PCOD8281103 Si02
#       6
#     8   8  16  16   8   4
#     4  12  29  47  75 108 160 215 265 342 403 478
#     4  12  32  51  80 115 159 218 282 331 409 502
#     4   9  18  44  79 110 156 201 258 327 399 481
#     4  12  27  49  78 118 159 212 278 335 411 488
#     4  10  21  45  84 113 155 219 250 327 430 472
#     4  12  24  52  74 114 160 196 256 342 402 454
#
# _framework density 24.384604
#
# number of rings (size 3 to 8) (size 9 to 14) (size 15 to 20)
#    0.800    0.267    4.000    1.600    7.467    2.667 
#    0.000   10.667    0.000    0.000    0.000    0.000 
#    0.000    0.000    0.000    0.000    0.000    0.000 
#
# Total GULP energy -371654.895732 kJ/mol
# GULP energy per Si atom -12388.496524 kJ/mol
# Density = 2.432910 g / cm^3
# Si number density = 24.384604 Si / 1000 Ang^3
#
#
#
# Elastic Constant Matrix: (Units=GPa)
#
#
# Indices 1 2 3 4 5 6 
#
# 1 158.5518 43.7075 44.0609 0.0000 0.0000 0.0000
# 2 43.7075 132.2101 30.4843 0.0000 0.0000 0.0000
# 3 44.0609 30.4843 139.8153 0.0000 0.0000 0.0000
# 4 0.0000 0.0000 0.0000 36.8100 0.0000 0.0000
# 5 0.0000 0.0000 0.0000 0.0000 19.2818 0.0000
# 6 0.0000 0.0000 0.0000 0.0000 0.0000 37.9097
#
#
#
# Elastic Compliance Matrix: (Units=1/GPa)
#
#
# Indices 1 2 3 4 5 6 
#
# 1 0.007385 -0.002006 -0.001890 0.000000 0.000000 0.000000
# 2 -0.002006 0.008509 -0.001223 0.000000 0.000000 0.000000
# 3 -0.001890 -0.001223 0.008015 0.000000 0.000000 0.000000
# 4 0.000000 0.000000 0.000000 0.027167 0.000000 0.000000
# 5 0.000000 0.000000 0.000000 0.000000 0.051862 0.000000
# 6 0.000000 0.000000 0.000000 0.000000 0.000000 0.026379
#
#
# Mechanical properties :
#
#
# Convention : Reuss Voigt Hill
#
# Bulk Modulus (GPa) = 73.14814 74.12029 73.63421
# Shear Modulus (GPa) = 34.69555 39.62193 37.15874
#
# Velocity S-wave (km/s) = 3.77616 4.03535 3.90790
# Velocity P-wave (km/s) = 7.00537 7.22318 7.11511
#
# Compressibility (1/GPa) = 0.01367089
#
# Stress axis : x y z
#
# Youngs Moduli (GPa) = 135.40544 117.52528 124.77230
#
# Poissons Ratio (x) = 0.23572 0.23583
# Poissons Ratio (y) = 0.27158 0.15261
# Poissons Ratio (z) = 0.25592 0.14375
#
# Static dielectric constant tensor:
#      x y z
#    x 3.377450 0.000000 0.000000 
#    y 0.000000 4.206510 0.000000 
#    z 0.000000 0.000000 4.482480 
# 
# 
# High freq. dielectric constant tensor:
#      x y z
#    x 1.973520 0.000000 0.000000 
#    y 0.000000 1.967270 0.000000 
#    z 0.000000 0.000000 1.966640 
# 
# From -- ./inp_files/17475.got.cif
#   From: 2010.03.12/outbox.cif.g09.slc.cpg/sg67_9_cif.got.tgz:17475.got - 2010.04.10 22:41:39.
