data_PCOD8281506
_publ_section_title
;
Structure prediction by ZEFSAII (Michael W. Deem and Ramdas Pophale) SiO2 
 PCOD8281506
Probable space group: C M M A
;
_chemical_formula_sum "Si O2"
_cell_formula_units_Z 72
_cell_length_a 8.988147
_cell_length_b 15.299931
_cell_length_c 24.733230
_cell_angle_alpha 90.000000
_cell_angle_beta 90.000000
_cell_angle_gamma 90.000000
_cell_volume 3401.265038
_symmetry_space_group_name_H-M "C M M A"
_symmetry_group_IT_number 67
_symmetry_cell_setting 'orthorhombic'
loop_
_space_group_symop_operation_xyz
x,y,z
-x,1/2-y,z
x,-y,-z
-x,1/2+y,-z
-x,-y,-z
x,1/2+y,-z
-x,y,z
x,1/2-y,z
1/2+x,1/2+y,z
1/2-x,-y,z
1/2+x,1/2-y,-z
1/2-x,y,-z
1/2-x,1/2-y,-z
1/2+x,y,-z
1/2-x,1/2+y,z
1/2+x,-y,z
loop_
_atom_site_type_symbol
_atom_site_label
_atom_site_fract_x
_atom_site_fract_y
_atom_site_fract_z
Si Si1 0.324814 0.089024 0.381569
Si Si2 0.332550 0.354307 0.052959
Si Si3 0.178647 0.250000 0.441400
Si Si4 0.670500 0.150437 0.263727
Si Si5 0.167590 0.645791 0.841532
O O1 0.500000 0.093056 0.396352
O O2 0.236313 0.165563 0.410362
O O3 0.300326 0.094713 0.317299
O O4 0.250000 0.000000 0.402439
O O5 0.500000 0.389116 0.051677
O O6 0.326776 0.250000 0.053174
O O7 0.255086 0.391979 0.106831
O O8 0.250000 0.391174 0.000000
O O9 0.250000 0.250000 0.500000
O O10 0.000000 0.250000 0.444394
O O11 0.500000 0.147321 0.245671
O O12 0.719200 0.250000 0.276012
O O13 0.764153 0.109453 0.214366
O O14 0.178111 0.750000 0.841239
O O15 0.000000 0.612242 0.845801
#
# Coordination Sequence:
#
# PCOD8281506 Si02
#       5
#    16  16   8  16  16
#     4  11  23  42  66  97 132 169 212 260 311 369
#     4   9  15  22  32  48  77 120 169 223 285 349
#     4  12  26  46  72 100 132 172 213 258 309 364
#     4   9  17  32  53  76 109 151 192 240 298 358
#     4   9  16  24  37  61  91 127 177 232 286 350
#
# _framework density 21.168593999999999
#
# number of rings (size 3 to 8) (size 9 to 14) (size 15 to 20)
#    0.000    2.222    1.111    3.000    0.000    7.556 
#    0.000    2.222    0.000    0.000    0.000    0.000 
#    0.000    0.889    0.000    9.333    0.000   14.000 
#
# Total GULP energy -446434.445902 kJ/mol
# GULP energy per Si atom -12400.956831 kJ/mol
# Density = 2.112041 g / cm^3
# Si number density = 21.168594 Si / 1000 Ang^3
#
#
#
# Elastic Constant Matrix: (Units=GPa)
#
#
# Indices 1 2 3 4 5 6 
#
# 1 191.2348 46.6886 89.9409 0.0000 0.0000 0.0000
# 2 46.6886 75.6078 31.0843 0.0000 0.0000 0.0000
# 3 89.9409 31.0843 130.3656 0.0000 0.0000 0.0000
# 4 0.0000 0.0000 0.0000 -95.9378 0.0000 0.0000
# 5 0.0000 0.0000 0.0000 0.0000 44.6552 0.0000
# 6 0.0000 0.0000 0.0000 0.0000 0.0000 20.3993
#
#
#
# Elastic Compliance Matrix: (Units=1/GPa)
#
#
# Indices 1 2 3 4 5 6 
#
# 1 0.008344 -0.003089 -0.005020 0.000000 0.000000 0.000000
# 2 -0.003089 0.015807 -0.001638 0.000000 0.000000 0.000000
# 3 -0.005020 -0.001638 0.011525 0.000000 0.000000 0.000000
# 4 0.000000 0.000000 0.000000 -0.010423 0.000000 0.000000
# 5 0.000000 0.000000 0.000000 0.000000 0.022394 0.000000
# 6 0.000000 0.000000 0.000000 0.000000 0.000000 0.049021
#
#
# Mechanical properties :
#
#
# Convention : Reuss Voigt Hill
#
# Bulk Modulus (GPa) = 61.79750 81.40397 71.60073
# Shear Modulus (GPa) = 41.13306 9.12295 25.12800
#
# Velocity S-wave (km/s) = 4.41286 2.07822 3.44908
# Velocity P-wave (km/s) = 7.43107 6.65562 7.05401
#
# Compressibility (1/GPa) = 0.01618188
#
# Stress axis : x y z
#
# Youngs Moduli (GPa) = 119.83949 63.26340 86.76784
#
# Poissons Ratio (x) = 0.19541 0.43562
# Poissons Ratio (y) = 0.37016 0.14213
# Poissons Ratio (z) = 0.60165 0.10363
#
# Static dielectric constant tensor:
#      x y z
#    x 3.933650 0.000000 0.000000 
#    y 0.000000 3.341900 0.000000 
#    z 0.000000 0.000000 3.980870 
# 
# 
# High freq. dielectric constant tensor:
#      x y z
#    x 1.838420 0.000000 0.000000 
#    y 0.000000 1.795050 0.000000 
#    z 0.000000 0.000000 1.837810 
# 
# From -- ./inp_files/42113.got.cif
#   From: 2010.03.12/outbox.cif.g09.slc.cpg/sg67_22_cif.got.tgz:42113.got - 2010.04.10 22:41:39.
