data_PCOD8281047
_publ_section_title
;
Structure prediction by ZEFSAII (Michael W. Deem and Ramdas Pophale) SiO2 
 PCOD8281047
Probable space group: C M M A
;
_chemical_formula_sum "Si O2"
_cell_formula_units_Z 56
_cell_length_a 30.763512
_cell_length_b 16.230579
_cell_length_c 4.978620
_cell_angle_alpha 90.000000
_cell_angle_beta 90.000000
_cell_angle_gamma 90.000000
_cell_volume 2485.872820
_symmetry_space_group_name_H-M "C M M A"
_symmetry_group_IT_number 67
_symmetry_cell_setting 'orthorhombic'
loop_
_space_group_symop_operation_xyz
x,y,z
-x,1/2-y,z
x,-y,-z
-x,1/2+y,-z
-x,-y,-z
x,1/2+y,-z
-x,y,z
x,1/2-y,z
1/2+x,1/2+y,z
1/2-x,-y,z
1/2+x,1/2-y,-z
1/2-x,y,-z
1/2-x,1/2-y,-z
1/2+x,y,-z
1/2-x,1/2+y,z
1/2+x,-y,z
loop_
_atom_site_type_symbol
_atom_site_label
_atom_site_fract_x
_atom_site_fract_y
_atom_site_fract_z
Si Si1 0.720859 0.843156 0.759477
Si Si2 0.869731 0.590370 0.387466
Si Si3 0.585083 0.655703 0.128265
Si Si4 0.500000 0.440889 0.751459
O O1 0.705279 0.750000 0.828598
O O2 0.750000 0.844308 0.500000
O O3 0.679215 0.900380 0.718446
O O4 0.750000 0.879614 0.000000
O O5 0.878636 0.500000 0.500000
O O6 0.878440 0.651935 0.636782
O O7 0.901677 0.605631 0.137661
O O8 0.577929 0.750000 0.043977
O O9 0.541571 0.618171 0.252732
O O10 0.500000 0.500000 0.500000
O O11 0.500000 0.500000 0.000000
#
# Coordination Sequence:
#
# PCOD8281047 Si02
#       4
#    16  16  16   8
#     4  10  21  39  64  93 127 169 217 270 330 396
#     4  12  25  43  67  98 136 176 224 281 339 396
#     4  12  25  44  69  98 133 178 227 273 331 403
#     4  12  25  44  69  98 135 170 213 272 333 388
#
# _framework density 22.5273
#
# number of rings (size 3 to 8) (size 9 to 14) (size 15 to 20)
#    0.000    0.571    0.000    9.857    0.000    2.857 
#    0.000    5.714    0.000    0.000    0.000    0.000 
#    0.000    0.000    0.000    0.000    0.000    0.000 
#
# Total GULP energy -347397.884096 kJ/mol
# GULP energy per Si atom -12407.067289 kJ/mol
# Density = 2.247603 g / cm^3
# Si number density = 22.527300 Si / 1000 Ang^3
#
#
#
# Elastic Constant Matrix: (Units=GPa)
#
#
# Indices 1 2 3 4 5 6 
#
# 1 126.6401 72.7800 60.0447 0.0000 0.0000 0.0000
# 2 72.7800 122.6775 60.2987 0.0000 0.0000 0.0000
# 3 60.0447 60.2987 177.8378 0.0000 0.0000 0.0000
# 4 0.0000 0.0000 0.0000 38.0118 0.0000 0.0000
# 5 0.0000 0.0000 0.0000 0.0000 44.5756 0.0000
# 6 0.0000 0.0000 0.0000 0.0000 0.0000 37.2558
#
#
#
# Elastic Compliance Matrix: (Units=1/GPa)
#
#
# Indices 1 2 3 4 5 6 
#
# 1 0.012581 -0.006451 -0.002060 0.000000 0.000000 0.000000
# 2 -0.006451 0.013089 -0.002260 0.000000 0.000000 0.000000
# 3 -0.002060 -0.002260 0.007085 0.000000 0.000000 0.000000
# 4 0.000000 0.000000 0.000000 0.026308 0.000000 0.000000
# 5 0.000000 0.000000 0.000000 0.000000 0.022434 0.000000
# 6 0.000000 0.000000 0.000000 0.000000 0.000000 0.026841
#
#
# Mechanical properties :
#
#
# Convention : Reuss Voigt Hill
#
# Bulk Modulus (GPa) = 89.18757 90.37802 89.78279
# Shear Modulus (GPa) = 37.42003 39.57079 38.49541
#
# Velocity S-wave (km/s) = 4.08008 4.19569 4.13829
# Velocity P-wave (km/s) = 7.86593 7.97986 7.92310
#
# Compressibility (1/GPa) = 0.01121233
#
# Stress axis : x y z
#
# Youngs Moduli (GPa) = 79.48722 76.39752 141.14117
#
# Poissons Ratio (x) = 0.49283 0.29081
# Poissons Ratio (y) = 0.51276 0.31900
# Poissons Ratio (z) = 0.16378 0.17267
#
# Static dielectric constant tensor:
#      x y z
#    x 4.169880 0.000000 0.000000 
#    y 0.000000 4.014970 0.000000 
#    z 0.000000 0.000000 4.253300 
# 
# 
# High freq. dielectric constant tensor:
#      x y z
#    x 1.895640 0.000000 0.000000 
#    y 0.000000 1.884400 0.000000 
#    z 0.000000 0.000000 1.911020 
# 
# From -- ./inp_files/1374.got.cif
#   From: 2010.03.12/outbox.cif.g09.slc.cpg/sg67_1_cif.got.tgz:1374.got - 2010.04.10 22:41:39.
