data_PCOD8281639
_publ_section_title
;
Structure prediction by ZEFSAII (Michael W. Deem and Ramdas Pophale) SiO2 
 PCOD8281639
Probable space group: C C C A
;
_chemical_formula_sum "Si O2"
_cell_formula_units_Z 112
_cell_length_a 32.364178
_cell_length_b 33.484592
_cell_length_c 5.169235
_cell_angle_alpha 90.000000
_cell_angle_beta 90.000000
_cell_angle_gamma 90.000000
_cell_volume 5601.906668
_symmetry_space_group_name_H-M "C C C A"
_symmetry_group_IT_number 68
_space_group.IT_coordinate_system_code '2'
_symmetry_cell_setting 'orthorhombic'
loop_
_space_group_symop_operation_xyz
x,y,z
-x,1/2-y,z
x,1/2-y,1/2-z
-x,y,1/2-z
-x,-y,-z
x,1/2+y,-z
-x,1/2+y,1/2+z
x,-y,1/2+z
1/2+x,1/2+y,z
1/2-x,-y,z
1/2+x,-y,1/2-z
1/2-x,1/2+y,1/2-z
1/2-x,1/2-y,-z
1/2+x,y,-z
1/2-x,y,1/2+z
1/2+x,1/2-y,1/2+z
loop_
_atom_site_type_symbol
_atom_site_label
_atom_site_fract_x
_atom_site_fract_y
_atom_site_fract_z
Si Si1 0.232674 0.043997 0.289724
Si Si2 0.091521 0.292128 0.833736
Si Si3 0.360609 0.186557 0.669940
Si Si4 0.767222 0.794901 0.941483
Si Si5 0.405916 0.392954 0.812817
Si Si6 0.639501 0.025750 0.753015
Si Si7 0.046790 0.129854 0.680736
O O1 0.241895 0.066481 0.561451
O O2 0.185114 0.043285 0.217788
O O3 0.250000 0.000000 0.359360
O O4 0.072141 0.250000 0.750000
O O5 0.124137 0.304982 0.617575
O O6 0.053278 0.322531 0.843009
O O7 0.115200 0.288553 0.108783
O O8 0.313277 0.200738 0.670869
O O9 0.368908 0.139397 0.731984
O O10 0.738480 0.816098 0.720452
O O11 0.750000 0.750000 0.000000
O O12 0.390871 0.437833 0.792588
O O13 0.441417 0.388508 0.596383
O O14 0.424391 0.388102 0.097361
O O15 0.631632 0.007276 0.471673
O O16 0.000000 0.119866 0.750000
#
# Coordination Sequence:
#
# PCOD8281639 Si02
#       7
#    16  16  16  16  16  16  16
#     4  10  16  30  49  78 112 144 185 223 285 334
#     4  10  21  33  60  90 111 149 187 240 294 335
#     4  10  21  38  53  77 123 154 197 243 284 347
#     4  10  21  32  50  76 105 155 211 243 276 328
#     4  10  23  40  60  90 114 154 196 228 300 360
#     4  12  21  35  61  87 118 152 195 252 283 351
#     4  10  21  42  65  86 118 153 185 229 292 366
#
# _framework density 19.993190999999999
#
# number of rings (size 3 to 8) (size 9 to 14) (size 15 to 20)
#    0.000    1.714    2.857    2.571    6.000    0.286 
#    0.000    1.429    0.000   13.714    0.000    0.000 
#    0.000    0.000    0.000    0.000    0.000    0.000 
#
# Total GULP energy -693975.390784 kJ/mol
# GULP energy per Si atom -12392.417693 kJ/mol
# Density = 1.994769 g / cm^3
# Si number density = 19.993191 Si / 1000 Ang^3
#
#
#
# Elastic Constant Matrix: (Units=GPa)
#
#
# Indices 1 2 3 4 5 6 
#
# 1 76.9348 26.1902 4.4804 0.0000 0.0000 0.0000
# 2 26.1902 60.6590 6.4232 0.0000 0.0000 0.0000
# 3 4.4804 6.4232 126.3003 0.0000 0.0000 0.0000
# 4 0.0000 0.0000 0.0000 6.9416 0.0000 0.0000
# 5 0.0000 0.0000 0.0000 0.0000 21.1583 0.0000
# 6 0.0000 0.0000 0.0000 0.0000 0.0000 15.6126
#
#
#
# Elastic Compliance Matrix: (Units=1/GPa)
#
#
# Indices 1 2 3 4 5 6 
#
# 1 0.015243 -0.006559 -0.000207 0.000000 0.000000 0.000000
# 2 -0.006559 0.019398 -0.000754 0.000000 0.000000 0.000000
# 3 -0.000207 -0.000754 0.007963 0.000000 0.000000 0.000000
# 4 0.000000 0.000000 0.000000 0.144059 0.000000 0.000000
# 5 0.000000 0.000000 0.000000 0.000000 0.047263 0.000000
# 6 0.000000 0.000000 0.000000 0.000000 0.000000 0.064051
#
#
# Mechanical properties :
#
#
# Convention : Reuss Voigt Hill
#
# Bulk Modulus (GPa) = 36.28031 37.56464 36.92248
# Shear Modulus (GPa) = 15.51805 23.86251 19.69028
#
# Velocity S-wave (km/s) = 2.78900 3.45850 3.14164
# Velocity P-wave (km/s) = 5.34388 5.89727 5.62738
#
# Compressibility (1/GPa) = 0.02756316
#
# Stress axis : x y z
#
# Youngs Moduli (GPa) = 65.60375 51.55298 125.57572
#
# Poissons Ratio (x) = 0.33816 0.02601
# Poissons Ratio (y) = 0.43032 0.09466
# Poissons Ratio (z) = 0.01359 0.03886
#
# Static dielectric constant tensor:
#      x y z
#    x 3.393230 0.000000 0.000000 
#    y 0.000000 3.503510 0.000000 
#    z 0.000000 0.000000 14.065300 
# 
# 
# High freq. dielectric constant tensor:
#      x y z
#    x 1.756010 0.000000 0.000000 
#    y 0.000000 1.745940 0.000000 
#    z 0.000000 0.000000 1.820320 
# 
# From -- ./inp_files/2948.got.cif
#   From: 2010.03.12/outbox.cif.g09.slc.cpg/sg68_2_cif.got.tgz:2948.got - 2010.04.10 23:14:56.
