data_PCOD8281605
_publ_section_title
;
Structure prediction by ZEFSAII (Michael W. Deem and Ramdas Pophale) SiO2 
 PCOD8281605
Probable space group: C M M A
;
_chemical_formula_sum "Si O2"
_cell_formula_units_Z 96
_cell_length_a 18.611115
_cell_length_b 27.276055
_cell_length_c 10.970766
_cell_angle_alpha 90.000000
_cell_angle_beta 90.000000
_cell_angle_gamma 90.000000
_cell_volume 5569.175477
_symmetry_space_group_name_H-M "C M M A"
_symmetry_group_IT_number 67
_symmetry_cell_setting 'orthorhombic'
loop_
_space_group_symop_operation_xyz
x,y,z
-x,1/2-y,z
x,-y,-z
-x,1/2+y,-z
-x,-y,-z
x,1/2+y,-z
-x,y,z
x,1/2-y,z
1/2+x,1/2+y,z
1/2-x,-y,z
1/2+x,1/2-y,-z
1/2-x,y,-z
1/2-x,1/2-y,-z
1/2+x,y,-z
1/2-x,1/2+y,z
1/2+x,-y,z
loop_
_atom_site_type_symbol
_atom_site_label
_atom_site_fract_x
_atom_site_fract_y
_atom_site_fract_z
Si Si1 0.920670 0.510432 0.357922
Si Si2 0.919823 0.193667 0.971153
Si Si3 0.814973 0.573480 0.668144
Si Si4 0.838166 0.400978 0.594155
Si Si5 0.323771 0.194659 0.254636
Si Si6 0.703332 0.644387 0.113087
O O1 0.921805 0.500000 0.500000
O O2 0.858696 0.476129 0.300522
O O3 0.901700 0.568242 0.340386
O O4 0.000000 0.500625 0.300568
O O5 0.919534 0.250000 0.009571
O O6 0.871445 0.165886 0.068329
O O7 0.000000 0.171652 0.976148
O O8 0.891232 0.187511 0.834022
O O9 0.850829 0.601438 0.551991
O O10 0.732028 0.566616 0.629697
O O11 0.818680 0.602771 0.793204
O O12 0.832168 0.344896 0.637765
O O13 0.322242 0.250000 0.308821
O O14 0.250388 0.186331 0.179370
O O15 0.750000 0.622759 0.000000
#
# Coordination Sequence:
#
# PCOD8281605 Si02
#       6
#    16  16  16  16  16  16
#     4   9  17  29  47  70  94 121 153 189 230 279
#     4   9  17  29  46  66  88 121 163 198 228 271
#     4   9  17  30  48  71  94 121 155 191 235 283
#     4   9  17  30  48  71  96 122 154 192 235 282
#     4   9  17  30  48  69  94 123 154 190 233 279
#     4   9  17  30  48  69  93 124 158 194 234 275
#
# _framework density 17.237741
#
# number of rings (size 3 to 8) (size 9 to 14) (size 15 to 20)
#    0.000    3.000    0.000    1.000    0.000    5.333 
#    0.000    7.500    0.000   17.000    0.000   14.000 
#    0.000    0.000    0.000    0.000    0.000    0.000 
#
# Total GULP energy -594732.506369 kJ/mol
# GULP energy per Si atom -12390.260549 kJ/mol
# Density = 1.719851 g / cm^3
# Si number density = 17.237741 Si / 1000 Ang^3
#
#
#
# Elastic Constant Matrix: (Units=GPa)
#
#
# Indices 1 2 3 4 5 6 
#
# 1 106.3342 47.8773 29.0031 0.0000 0.0000 0.0000
# 2 47.8773 109.0442 47.1014 0.0000 0.0000 0.0000
# 3 29.0031 47.1014 74.6112 0.0000 0.0000 0.0000
# 4 0.0000 0.0000 0.0000 17.3187 0.0000 0.0000
# 5 0.0000 0.0000 0.0000 0.0000 14.5762 0.0000
# 6 0.0000 0.0000 0.0000 0.0000 0.0000 21.9583
#
#
#
# Elastic Compliance Matrix: (Units=1/GPa)
#
#
# Indices 1 2 3 4 5 6 
#
# 1 0.011900 -0.004436 -0.001825 0.000000 0.000000 0.000000
# 2 -0.004436 0.014263 -0.007279 0.000000 0.000000 0.000000
# 3 -0.001825 -0.007279 0.018708 0.000000 0.000000 0.000000
# 4 0.000000 0.000000 0.000000 0.057741 0.000000 0.000000
# 5 0.000000 0.000000 0.000000 0.000000 0.068605 0.000000
# 6 0.000000 0.000000 0.000000 0.000000 0.000000 0.045541
#
#
# Mechanical properties :
#
#
# Convention : Reuss Voigt Hill
#
# Bulk Modulus (GPa) = 56.21637 59.77257 57.99447
# Shear Modulus (GPa) = 20.01854 21.83780 20.92817
#
# Velocity S-wave (km/s) = 3.41151 3.56316 3.48816
# Velocity P-wave (km/s) = 6.94270 7.18880 7.06682
#
# Compressibility (1/GPa) = 0.01778841
#
# Stress axis : x y z
#
# Youngs Moduli (GPa) = 84.03660 70.11257 53.45390
#
# Poissons Ratio (x) = 0.31104 0.09755
# Poissons Ratio (y) = 0.37282 0.38912
# Poissons Ratio (z) = 0.15337 0.51038
#
# Static dielectric constant tensor:
#      x y z
#    x 3.482850 0.000000 0.000000 
#    y 0.000000 3.108630 0.000000 
#    z 0.000000 0.000000 3.012220 
# 
# 
# High freq. dielectric constant tensor:
#      x y z
#    x 1.668520 0.000000 0.000000 
#    y 0.000000 1.651970 0.000000 
#    z 0.000000 0.000000 1.640180 
# 
# From -- ./inp_files/19805.got.cif
#   From: 2010.03.12/outbox.cif.g09.slc.cpg/sg67_10_cif.got.tgz:19805.got - 2010.04.10 22:41:39.
