data_PCOD8281826
_publ_section_title
;
Structure prediction by ZEFSAII (Michael W. Deem and Ramdas Pophale) SiO2 
 PCOD8281826
Probable space group: C C C A
;
_chemical_formula_sum "Si O2"
_cell_formula_units_Z 84
_cell_length_a 10.451917
_cell_length_b 26.674363
_cell_length_c 14.761712
_cell_angle_alpha 90.000000
_cell_angle_beta 90.000000
_cell_angle_gamma 90.000000
_cell_volume 4115.539149
_symmetry_space_group_name_H-M "C C C A"
_symmetry_group_IT_number 68
_space_group.IT_coordinate_system_code '2'
_symmetry_cell_setting 'orthorhombic'
loop_
_space_group_symop_operation_xyz
x,y,z
-x,1/2-y,z
x,1/2-y,1/2-z
-x,y,1/2-z
-x,-y,-z
x,1/2+y,-z
-x,1/2+y,1/2+z
x,-y,1/2+z
1/2+x,1/2+y,z
1/2-x,-y,z
1/2+x,-y,1/2-z
1/2-x,1/2+y,1/2-z
1/2-x,1/2-y,-z
1/2+x,y,-z
1/2-x,y,1/2+z
1/2+x,1/2-y,1/2+z
loop_
_atom_site_type_symbol
_atom_site_label
_atom_site_fract_x
_atom_site_fract_y
_atom_site_fract_z
Si Si1 0.883442 0.717531 0.924713
Si Si2 0.750000 0.000000 0.828310
Si Si3 0.500000 0.037771 0.750000
Si Si4 0.702153 0.202968 0.375464
Si Si5 0.000000 0.250000 0.750000
Si Si6 0.233546 0.100902 0.062601
Si Si7 0.549118 0.889478 0.084935
O O1 0.800582 0.751304 0.854268
O O2 0.930889 0.666864 0.875157
O O3 0.000000 0.750000 0.960227
O O4 0.810452 0.702709 0.015778
O O5 0.620881 0.002140 0.769091
O O6 0.757562 0.049030 0.888495
O O7 0.456703 0.072124 0.833151
O O8 0.578740 0.212772 0.314543
O O9 0.746238 0.145382 0.361759
O O10 0.085370 0.106428 0.029191
O O11 0.330444 0.099291 0.978835
#
# Coordination Sequence:
#
# PCOD8281826 Si02
#       7
#    16   8   8  16   4  16  16
#     4  10  18  38  61  83 118 167 191 233 295 369
#     4  10  24  42  62  86 122 160 208 254 316 352
#     4  10  24  43  61  92 122 156 204 268 306 356
#     4  10  22  35  60  89 124 155 201 241 301 357
#     4  12  24  38  54  96 124 152 200 262 292 366
#     4  10  22  40  62  91 118 166 205 249 296 378
#     4  10  22  39  65  92 126 154 208 248 305 366
#
# _framework density 20.410447000000001
#
# number of rings (size 3 to 8) (size 9 to 14) (size 15 to 20)
#    0.000    1.905    2.857    0.000    0.000    9.143 
#    0.000    0.000    0.000    0.000    0.000    0.000 
#    0.000    0.000    0.000    0.000    0.000    0.000 
#
# Total GULP energy -520416.583437 kJ/mol
# GULP energy per Si atom -12390.871034 kJ/mol
# Density = 2.036399 g / cm^3
# Si number density = 20.410447 Si / 1000 Ang^3
#
#
#
# Elastic Constant Matrix: (Units=GPa)
#
#
# Indices 1 2 3 4 5 6 
#
# 1 150.8112 65.9956 51.3232 0.0000 0.0000 0.0000
# 2 65.9956 159.5998 35.4594 0.0000 0.0000 0.0000
# 3 51.3232 35.4594 61.0916 0.0000 0.0000 0.0000
# 4 0.0000 0.0000 0.0000 -0.5464 0.0000 0.0000
# 5 0.0000 0.0000 0.0000 0.0000 23.3259 0.0000
# 6 0.0000 0.0000 0.0000 0.0000 0.0000 34.4527
#
#
#
# Elastic Compliance Matrix: (Units=1/GPa)
#
#
# Indices 1 2 3 4 5 6 
#
# 1 0.010177 -0.002650 -0.007011 0.000000 0.000000 0.000000
# 2 -0.002650 0.007884 -0.002349 0.000000 0.000000 0.000000
# 3 -0.007011 -0.002349 0.023622 0.000000 0.000000 0.000000
# 4 0.000000 0.000000 0.000000 -1.830275 0.000000 0.000000
# 5 0.000000 0.000000 0.000000 0.000000 0.042871 0.000000
# 6 0.000000 0.000000 0.000000 0.000000 0.000000 0.029025
#
#
# Mechanical properties :
#
#
# Convention : Reuss Voigt Hill
#
# Bulk Modulus (GPa) = 56.62112 75.22876 65.92494
# Shear Modulus (GPa) = -2.96421 26.02808 11.53193
#
# Velocity S-wave (km/s) = -1.20642 3.57491 2.37955
# Velocity P-wave (km/s) = 5.08536 7.34697 6.31818
#
# Compressibility (1/GPa) = 0.01766125
#
# Stress axis : x y z
#
# Youngs Moduli (GPa) = 98.26481 126.84585 42.33270
#
# Poissons Ratio (x) = 0.33619 0.29679
# Poissons Ratio (y) = 0.26044 0.09945
# Poissons Ratio (z) = 0.68893 0.29799
#
# Static dielectric constant tensor:
#      x y z
#    x 4.050580 0.000000 0.000000 
#    y 0.000000 4.084570 0.000000 
#    z 0.000000 0.000000 3.252930 
# 
# 
# High freq. dielectric constant tensor:
#      x y z
#    x 1.813920 0.000000 0.000000 
#    y 0.000000 1.816280 0.000000 
#    z 0.000000 0.000000 1.762730 
# 
# From -- ./inp_files/21023.got.cif
#   From: 2010.03.12/outbox.cif.g09.slc.cpg/sg68_11_cif.got.tgz:21023.got - 2010.04.10 23:14:56.
