data_PCOD8281220
_publ_section_title
;
Structure prediction by ZEFSAII (Michael W. Deem and Ramdas Pophale) SiO2 
 PCOD8281220
Probable space group: C M M A
;
_chemical_formula_sum "Si O2"
_cell_formula_units_Z 72
_cell_length_a 13.920442
_cell_length_b 25.799876
_cell_length_c 11.041022
_cell_angle_alpha 90.000000
_cell_angle_beta 90.000000
_cell_angle_gamma 90.000000
_cell_volume 3965.335326
_symmetry_space_group_name_H-M "C M M A"
_symmetry_group_IT_number 67
_symmetry_cell_setting 'orthorhombic'
loop_
_space_group_symop_operation_xyz
x,y,z
-x,1/2-y,z
x,-y,-z
-x,1/2+y,-z
-x,-y,-z
x,1/2+y,-z
-x,y,z
x,1/2-y,z
1/2+x,1/2+y,z
1/2-x,-y,z
1/2+x,1/2-y,-z
1/2-x,y,-z
1/2-x,1/2-y,-z
1/2+x,y,-z
1/2-x,1/2+y,z
1/2+x,-y,z
loop_
_atom_site_type_symbol
_atom_site_label
_atom_site_fract_x
_atom_site_fract_y
_atom_site_fract_z
Si Si1 0.000000 0.423363 0.564789
Si Si2 0.000000 0.475603 0.309414
Si Si3 0.191955 0.131241 0.614223
Si Si4 0.250000 0.627963 0.000000
Si Si5 0.388690 0.310948 0.163956
Si Si6 0.701672 0.945270 0.217519
O O1 0.000000 0.456309 0.444834
O O2 0.000000 0.461476 0.682269
O O3 0.908900 0.386824 0.563474
O O4 0.909699 0.454648 0.237503
O O5 0.250000 0.155346 0.500000
O O6 0.172254 0.174461 0.716238
O O7 0.249367 0.081588 0.666167
O O8 0.338238 0.662844 0.951860
O O9 0.208145 0.592096 0.896059
O O10 0.500000 0.329818 0.173896
O O11 0.384174 0.250000 0.145810
O O12 0.750000 0.000000 0.189653
#
# Coordination Sequence:
#
# PCOD8281220 Si02
#       6
#     8   8  16   8  16  16
#     4  11  20  34  54  85 119 156 187 226 276 338
#     4  11  22  32  58  82 120 159 192 231 270 332
#     4  11  21  36  58  85 119 149 188 232 286 345
#     4  10  24  40  60  80 116 152 192 238 288 338
#     4  10  22  41  64  86 109 145 194 244 296 348
#     4  11  22  37  53  85 119 155 191 229 275 336
#
# _framework density 18.157354000000002
#
# number of rings (size 3 to 8) (size 9 to 14) (size 15 to 20)
#    0.000    1.333    5.556    0.667    1.556    0.889 
#    0.000    1.111    0.000    0.000    0.000    0.000 
#    0.000    0.000    0.000    0.000    0.000    0.000 
#
# Total GULP energy -446441.832749 kJ/mol
# GULP energy per Si atom -12401.162021 kJ/mol
# Density = 1.811603 g / cm^3
# Si number density = 18.157354 Si / 1000 Ang^3
#
#
#
# Elastic Constant Matrix: (Units=GPa)
#
#
# Indices 1 2 3 4 5 6 
#
# 1 153.3187 47.1211 54.3025 0.0000 0.0000 0.0000
# 2 47.1211 84.1151 38.6758 0.0000 0.0000 0.0000
# 3 54.3025 38.6758 99.9605 0.0000 0.0000 0.0000
# 4 0.0000 0.0000 0.0000 13.1342 0.0000 0.0000
# 5 0.0000 0.0000 0.0000 0.0000 35.4653 0.0000
# 6 0.0000 0.0000 0.0000 0.0000 0.0000 27.3577
#
#
#
# Elastic Compliance Matrix: (Units=1/GPa)
#
#
# Indices 1 2 3 4 5 6 
#
# 1 0.008775 -0.003313 -0.003485 0.000000 0.000000 0.000000
# 2 -0.003313 0.015712 -0.004279 0.000000 0.000000 0.000000
# 3 -0.003485 -0.004279 0.013553 0.000000 0.000000 0.000000
# 4 0.000000 0.000000 0.000000 0.076137 0.000000 0.000000
# 5 0.000000 0.000000 0.000000 0.000000 0.028197 0.000000
# 6 0.000000 0.000000 0.000000 0.000000 0.000000 0.036553
#
#
# Mechanical properties :
#
#
# Convention : Reuss Voigt Hill
#
# Bulk Modulus (GPa) = 62.95310 68.62146 65.78728
# Shear Modulus (GPa) = 24.22754 28.34443 26.28598
#
# Velocity S-wave (km/s) = 3.65678 3.95529 3.80896
# Velocity P-wave (km/s) = 7.25090 7.66380 7.46021
#
# Compressibility (1/GPa) = 0.01588484
#
# Stress axis : x y z
#
# Youngs Moduli (GPa) = 113.96011 63.64474 73.78545
#
# Poissons Ratio (x) = 0.21088 0.25714
# Poissons Ratio (y) = 0.37759 0.31575
# Poissons Ratio (z) = 0.39714 0.27235
#
# Static dielectric constant tensor:
#      x y z
#    x 3.600310 0.000000 0.000000 
#    y 0.000000 3.279610 0.000000 
#    z 0.000000 0.000000 3.381970 
# 
# 
# High freq. dielectric constant tensor:
#      x y z
#    x 1.718050 0.000000 0.000000 
#    y 0.000000 1.695960 0.000000 
#    z 0.000000 0.000000 1.704100 
# 
# From -- ./inp_files/16625.got.cif
#   From: 2010.03.12/outbox.cif.g09.slc.cpg/sg67_9_cif.got.tgz:16625.got - 2010.04.10 22:41:39.
