data_PCOD8281756
_publ_section_title
;
Structure prediction by ZEFSAII (Michael W. Deem and Ramdas Pophale) SiO2 
 PCOD8281756
Probable space group: C C C A
;
_chemical_formula_sum "Si O2"
_cell_formula_units_Z 104
_cell_length_a 13.160035
_cell_length_b 20.390365
_cell_length_c 17.742770
_cell_angle_alpha 90.000000
_cell_angle_beta 90.000000
_cell_angle_gamma 90.000000
_cell_volume 4761.057945
_symmetry_space_group_name_H-M "C C C A"
_symmetry_group_IT_number 68
_space_group.IT_coordinate_system_code '2'
_symmetry_cell_setting 'orthorhombic'
loop_
_space_group_symop_operation_xyz
x,y,z
-x,1/2-y,z
x,1/2-y,1/2-z
-x,y,1/2-z
-x,-y,-z
x,1/2+y,-z
-x,1/2+y,1/2+z
x,-y,1/2+z
1/2+x,1/2+y,z
1/2-x,-y,z
1/2+x,-y,1/2-z
1/2-x,1/2+y,1/2-z
1/2-x,1/2-y,-z
1/2+x,y,-z
1/2-x,y,1/2+z
1/2+x,1/2-y,1/2+z
loop_
_atom_site_type_symbol
_atom_site_label
_atom_site_fract_x
_atom_site_fract_y
_atom_site_fract_z
Si Si1 0.393023 0.030504 0.726749
Si Si2 0.123384 0.880046 0.934573
Si Si3 0.250000 0.000000 0.454986
Si Si4 0.104124 0.570574 0.933716
Si Si5 0.808716 0.897254 0.256197
Si Si6 0.217734 0.837497 0.089895
Si Si7 0.776030 0.286699 0.326299
O O1 0.500000 0.061630 0.750000
O O2 0.388476 0.021774 0.637188
O O3 0.308647 0.081513 0.751968
O O4 0.379607 0.958791 0.765699
O O5 0.200420 0.939482 0.909081
O O6 0.132401 0.825556 0.868583
O O7 0.011011 0.907449 0.947021
O O8 0.154291 0.847737 0.014114
O O9 0.346691 0.027161 0.500950
O O10 0.167691 0.636822 0.921196
O O11 0.835944 0.876106 0.341394
O O12 0.816085 0.835979 0.198825
O O13 0.225485 0.761316 0.112537
O O14 0.816932 0.250000 0.250000
#
# Coordination Sequence:
#
# PCOD8281756 Si02
#       7
#    16  16   8  16  16  16  16
#     4  10  18  31  55  84 116 150 186 234 293 349
#     4  11  21  36  61  89 115 149 192 238 291 348
#     4  10  22  38  58  86 118 148 184 238 298 352
#     4  10  20  36  58  88 117 144 185 241 296 344
#     4   9  19  36  56  81 115 154 191 233 290 345
#     4   9  20  39  59  80 113 155 194 238 288 339
#     4  10  21  38  58  81 116 156 196 240 283 336
#
# _framework density 21.843885
#
# number of rings (size 3 to 8) (size 9 to 14) (size 15 to 20)
#    0.000    2.154    0.000    4.615    0.000    3.077 
#    0.000    6.923    0.000   11.538    0.000    0.000 
#    0.000    0.000    0.000    0.000    0.000    0.000 
#
# Total GULP energy -644364.590369 kJ/mol
# GULP energy per Si atom -12391.626738 kJ/mol
# Density = 2.179417 g / cm^3
# Si number density = 21.843885 Si / 1000 Ang^3
#
#
#
# Elastic Constant Matrix: (Units=GPa)
#
#
# Indices 1 2 3 4 5 6 
#
# 1 89.8258 26.7595 21.9947 0.0000 0.0000 0.0000
# 2 26.7595 124.5128 48.3898 0.0000 0.0000 0.0000
# 3 21.9947 48.3898 73.2559 0.0000 0.0000 0.0000
# 4 0.0000 0.0000 0.0000 17.2639 0.0000 0.0000
# 5 0.0000 0.0000 0.0000 0.0000 16.5209 0.0000
# 6 0.0000 0.0000 0.0000 0.0000 0.0000 21.0736
#
#
#
# Elastic Compliance Matrix: (Units=1/GPa)
#
#
# Indices 1 2 3 4 5 6 
#
# 1 0.012254 -0.001619 -0.002609 0.000000 0.000000 0.000000
# 2 -0.001619 0.011019 -0.006793 0.000000 0.000000 0.000000
# 3 -0.002609 -0.006793 0.018921 0.000000 0.000000 0.000000
# 4 0.000000 0.000000 0.000000 0.057924 0.000000 0.000000
# 5 0.000000 0.000000 0.000000 0.000000 0.060529 0.000000
# 6 0.000000 0.000000 0.000000 0.000000 0.000000 0.047453
#
#
# Mechanical properties :
#
#
# Convention : Reuss Voigt Hill
#
# Bulk Modulus (GPa) = 49.62437 53.54248 51.58343
# Shear Modulus (GPa) = 21.10943 23.66838 22.38891
#
# Velocity S-wave (km/s) = 3.11203 3.29526 3.20496
# Velocity P-wave (km/s) = 5.97328 6.24844 6.11241
#
# Compressibility (1/GPa) = 0.02015139
#
# Stress axis : x y z
#
# Youngs Moduli (GPa) = 81.60567 90.75103 52.85090
#
# Poissons Ratio (x) = 0.14697 0.13791
# Poissons Ratio (y) = 0.13215 0.35899
# Poissons Ratio (z) = 0.21295 0.61643
#
# Static dielectric constant tensor:
#      x y z
#    x 3.649440 0.000000 0.000000 
#    y 0.000000 4.166910 0.000000 
#    z 0.000000 0.000000 4.005340 
# 
# 
# High freq. dielectric constant tensor:
#      x y z
#    x 1.821430 0.000000 0.000000 
#    y 0.000000 1.869680 0.000000 
#    z 0.000000 0.000000 1.867470 
# 
# From -- ./inp_files/31114.got.cif
#   From: 2010.03.12/outbox.cif.g09.slc.cpg/sg68_16_cif.got.tgz:31114.got - 2010.04.10 23:14:56.
