data_PCOD8281029
_publ_section_title
;
Structure prediction by ZEFSAII (Michael W. Deem and Ramdas Pophale) SiO2 
 PCOD8281029
Probable space group: C M M A
;
_chemical_formula_sum "Si O2"
_cell_formula_units_Z 72
_cell_length_a 15.317076
_cell_length_b 8.540198
_cell_length_c 27.776282
_cell_angle_alpha 90.000000
_cell_angle_beta 90.000000
_cell_angle_gamma 90.000000
_cell_volume 3633.439387
_symmetry_space_group_name_H-M "C M M A"
_symmetry_group_IT_number 67
_symmetry_cell_setting 'orthorhombic'
loop_
_space_group_symop_operation_xyz
x,y,z
-x,1/2-y,z
x,-y,-z
-x,1/2+y,-z
-x,-y,-z
x,1/2+y,-z
-x,y,z
x,1/2-y,z
1/2+x,1/2+y,z
1/2-x,-y,z
1/2+x,1/2-y,-z
1/2-x,y,-z
1/2-x,1/2-y,-z
1/2+x,y,-z
1/2-x,1/2+y,z
1/2+x,-y,z
loop_
_atom_site_type_symbol
_atom_site_label
_atom_site_fract_x
_atom_site_fract_y
_atom_site_fract_z
Si Si1 0.342689 0.931889 0.887639
Si Si2 0.000000 0.433112 0.612365
Si Si3 0.656472 0.066778 0.224307
Si Si4 0.155884 0.935351 0.551896
Si Si5 0.500000 0.567228 0.052935
Si Si6 0.500000 0.932179 0.283907
O O1 0.344730 0.750000 0.899488
O O2 0.361240 0.964711 0.831719
O O3 0.250000 0.000000 0.903368
O O4 0.414872 0.015984 0.918717
O O5 0.086192 0.511721 0.590971
O O6 0.000000 0.460993 0.669011
O O7 0.000000 0.250000 0.600650
O O8 0.650767 0.250000 0.236748
O O9 0.750000 0.000000 0.239869
O O10 0.585256 0.970696 0.253338
O O11 0.160272 0.750000 0.549207
O O12 0.127428 0.000000 0.500000
O O13 0.250000 0.000000 0.567629
O O14 0.500000 0.750000 0.048275
O O15 0.500000 0.500000 0.000000
O O16 0.500000 0.750000 0.298081
#
# Coordination Sequence:
#
# PCOD8281029 Si02
#       6
#    16   8  16  16   8   8
#     4  10  21  39  63  90 119 152 195 242 291 345
#     4  12  25  42  61  86 120 159 199 244 297 352
#     4  10  21  39  63  90 119 154 195 242 291 345
#     4  11  22  40  64  92 121 155 198 244 293 347
#     4  12  25  40  59  85 119 157 197 240 293 350
#     4  12  25  40  59  87 121 158 198 242 293 352
#
# _framework density 19.815936000000001
#
# number of rings (size 3 to 8) (size 9 to 14) (size 15 to 20)
#    0.000    1.111    0.000    8.000    0.000    6.667 
#    0.000    6.667    0.000    0.000    0.000    0.000 
#    0.000    0.000    0.000    0.000    0.000    0.000 
#
# Total GULP energy -446641.938482 kJ/mol
# GULP energy per Si atom -12406.720513 kJ/mol
# Density = 1.977083 g / cm^3
# Si number density = 19.815936 Si / 1000 Ang^3
#
#
#
# Elastic Constant Matrix: (Units=GPa)
#
#
# Indices 1 2 3 4 5 6 
#
# 1 151.8464 62.6763 73.7879 0.0000 0.0000 0.0000
# 2 62.6763 155.6411 49.1763 0.0000 0.0000 0.0000
# 3 73.7879 49.1763 85.7777 0.0000 0.0000 0.0000
# 4 0.0000 0.0000 0.0000 34.3035 0.0000 0.0000
# 5 0.0000 0.0000 0.0000 0.0000 48.2831 0.0000
# 6 0.0000 0.0000 0.0000 0.0000 0.0000 37.0448
#
#
#
# Elastic Compliance Matrix: (Units=1/GPa)
#
#
# Indices 1 2 3 4 5 6 
#
# 1 0.011749 -0.001878 -0.009030 0.000000 0.000000 0.000000
# 2 -0.001878 0.008147 -0.003055 0.000000 0.000000 0.000000
# 3 -0.009030 -0.003055 0.021177 0.000000 0.000000 0.000000
# 4 0.000000 0.000000 0.000000 0.029152 0.000000 0.000000
# 5 0.000000 0.000000 0.000000 0.000000 0.020711 0.000000
# 6 0.000000 0.000000 0.000000 0.000000 0.000000 0.026994
#
#
# Mechanical properties :
#
#
# Convention : Reuss Voigt Hill
#
# Bulk Modulus (GPa) = 76.06402 84.94959 80.50680
# Shear Modulus (GPa) = 33.28072 37.76791 35.52431
#
# Velocity S-wave (km/s) = 4.10261 4.37044 4.23864
# Velocity P-wave (km/s) = 7.80452 8.27225 8.04178
#
# Compressibility (1/GPa) = 0.01314682
#
# Stress axis : x y z
#
# Youngs Moduli (GPa) = 85.11549 122.75130 47.22108
#
# Poissons Ratio (x) = 0.23054 0.42640
# Poissons Ratio (y) = 0.15986 0.14425
# Poissons Ratio (z) = 0.76858 0.37498
#
# Static dielectric constant tensor:
#      x y z
#    x 5.457780 0.000000 0.000000 
#    y 0.000000 3.824960 0.000000 
#    z 0.000000 0.000000 3.592570 
# 
# 
# High freq. dielectric constant tensor:
#      x y z
#    x 1.791330 0.000000 0.000000 
#    y 0.000000 1.795720 0.000000 
#    z 0.000000 0.000000 1.770190 
# 
# From -- ./inp_files/44278.got.cif
#   From: 2010.03.12/outbox.cif.g09.slc.cpg/sg67_23_cif.got.tgz:44278.got - 2010.04.10 22:41:39.
