data_PCOD8281113
_publ_section_title
;
Structure prediction by ZEFSAII (Michael W. Deem and Ramdas Pophale) SiO2 
 PCOD8281113
Probable space group: C M M A
;
_chemical_formula_sum "Si O2"
_cell_formula_units_Z 64
_cell_length_a 8.108345
_cell_length_b 38.715944
_cell_length_c 9.188626
_cell_angle_alpha 90.000000
_cell_angle_beta 90.000000
_cell_angle_gamma 90.000000
_cell_volume 2884.513973
_symmetry_space_group_name_H-M "C M M A"
_symmetry_group_IT_number 67
_symmetry_cell_setting 'orthorhombic'
loop_
_space_group_symop_operation_xyz
x,y,z
-x,1/2-y,z
x,-y,-z
-x,1/2+y,-z
-x,-y,-z
x,1/2+y,-z
-x,y,z
x,1/2-y,z
1/2+x,1/2+y,z
1/2-x,-y,z
1/2+x,1/2-y,-z
1/2-x,y,-z
1/2-x,1/2-y,-z
1/2+x,y,-z
1/2-x,1/2+y,z
1/2+x,-y,z
loop_
_atom_site_type_symbol
_atom_site_label
_atom_site_fract_x
_atom_site_fract_y
_atom_site_fract_z
Si Si1 0.819946 0.175089 0.275528
Si Si2 0.000000 0.709311 0.964522
Si Si3 0.693260 0.963100 0.836252
Si Si4 0.804519 0.102787 0.665237
Si Si5 0.500000 0.709789 0.695723
O O1 0.779748 0.134840 0.252403
O O2 0.669623 0.192897 0.366623
O O3 0.000000 0.179187 0.357373
O O4 0.838012 0.193384 0.116824
O O5 0.000000 0.750000 0.938336
O O6 0.000000 0.700211 0.133515
O O7 0.500000 0.961969 0.831353
O O8 0.765173 0.932266 0.737716
O O9 0.750000 0.000000 0.772741
O O10 0.750000 0.957747 0.000000
O O11 0.750000 0.103212 0.500000
O O12 0.000000 0.106024 0.680094
O O13 0.500000 0.750000 0.659273
#
# Coordination Sequence:
#
# PCOD8281113 Si02
#       5
#    16   8  16  16   8
#     4  10  22  36  57  88 123 165 209 263 319 373
#     4   9  20  36  57  89 126 165 210 261 321 384
#     4  10  22  40  65  97 134 167 208 260 318 382
#     4  11  24  44  65  91 126 170 220 268 316 380
#     4  11  20  36  59  89 130 167 212 267 319 390
#
# _framework density 22.187449000000001
#
# number of rings (size 3 to 8) (size 9 to 14) (size 15 to 20)
#    0.750    1.000    1.250    3.750    0.000    8.500 
#    0.000    2.500    0.000    4.500    0.000    0.000 
#    0.000    0.000    0.000    0.000    0.000    0.000 
#
# Total GULP energy -396614.881889 kJ/mol
# GULP energy per Si atom -12394.215059 kJ/mol
# Density = 2.213695 g / cm^3
# Si number density = 22.187449 Si / 1000 Ang^3
#
#
#
# Elastic Constant Matrix: (Units=GPa)
#
#
# Indices 1 2 3 4 5 6 
#
# 1 148.1262 63.9218 6.5910 0.0000 0.0000 0.0000
# 2 63.9218 208.0944 48.1038 0.0000 0.0000 0.0000
# 3 6.5910 48.1038 44.7927 0.0000 0.0000 0.0000
# 4 0.0000 0.0000 0.0000 10.8224 0.0000 0.0000
# 5 0.0000 0.0000 0.0000 0.0000 18.2147 0.0000
# 6 0.0000 0.0000 0.0000 0.0000 0.0000 103.3230
#
#
#
# Elastic Compliance Matrix: (Units=1/GPa)
#
#
# Indices 1 2 3 4 5 6 
#
# 1 0.007905 -0.002872 0.001922 0.000000 0.000000 0.000000
# 2 -0.002872 0.007436 -0.007563 0.000000 0.000000 0.000000
# 3 0.001922 -0.007563 0.030165 0.000000 0.000000 0.000000
# 4 0.000000 0.000000 0.000000 0.092401 0.000000 0.000000
# 5 0.000000 0.000000 0.000000 0.000000 0.054901 0.000000
# 6 0.000000 0.000000 0.000000 0.000000 0.000000 0.009678
#
#
# Mechanical properties :
#
#
# Convention : Reuss Voigt Hill
#
# Bulk Modulus (GPa) = 35.11519 70.91629 53.01574
# Shear Modulus (GPa) = 21.83346 45.29848 33.56597
#
# Velocity S-wave (km/s) = 3.14035 4.52334 3.89374
# Velocity P-wave (km/s) = 5.38610 7.70146 6.64540
#
# Compressibility (1/GPa) = 0.02847771
#
# Stress axis : x y z
#
# Youngs Moduli (GPa) = 126.50118 134.47724 33.15146
#
# Poissons Ratio (x) = 0.38628 -0.06370
# Poissons Ratio (y) = 0.36337 0.25073
# Poissons Ratio (z) = -0.24309 1.01708
#
# Static dielectric constant tensor:
#      x y z
#    x 4.296850 0.000000 0.000000 
#    y 0.000000 5.024300 0.000000 
#    z 0.000000 0.000000 3.470680 
# 
# 
# High freq. dielectric constant tensor:
#      x y z
#    x 1.897520 0.000000 0.000000 
#    y 0.000000 1.883780 0.000000 
#    z 0.000000 0.000000 1.846050 
# 
# From -- ./inp_files/15834.got.cif
#   From: 2010.03.12/outbox.cif.g09.slc.cpg/sg67_8_cif.got.tgz:15834.got - 2010.04.10 22:41:39.
