data_PCOD8281125
_publ_section_title
;
Structure prediction by ZEFSAII (Michael W. Deem and Ramdas Pophale) SiO2 
 PCOD8281125
Probable space group: C M M A
;
_chemical_formula_sum "Si O2"
_cell_formula_units_Z 80
_cell_length_a 9.677269
_cell_length_b 22.626879
_cell_length_c 18.037506
_cell_angle_alpha 90.000000
_cell_angle_beta 90.000000
_cell_angle_gamma 90.000000
_cell_volume 3949.607658
_symmetry_space_group_name_H-M "C M M A"
_symmetry_group_IT_number 67
_symmetry_cell_setting 'orthorhombic'
loop_
_space_group_symop_operation_xyz
x,y,z
-x,1/2-y,z
x,-y,-z
-x,1/2+y,-z
-x,-y,-z
x,1/2+y,-z
-x,y,z
x,1/2-y,z
1/2+x,1/2+y,z
1/2-x,-y,z
1/2+x,1/2-y,-z
1/2-x,y,-z
1/2-x,1/2-y,-z
1/2+x,y,-z
1/2-x,1/2+y,z
1/2+x,-y,z
loop_
_atom_site_type_symbol
_atom_site_label
_atom_site_fract_x
_atom_site_fract_y
_atom_site_fract_z
Si Si1 0.705800 0.250000 0.719573
Si Si2 0.000000 0.123421 0.608453
Si Si3 0.000000 0.118738 0.442321
Si Si4 0.661367 0.682086 0.926327
Si Si5 0.152290 0.132969 0.194936
Si Si6 0.500000 0.750000 0.659486
Si Si7 0.000000 0.750000 0.592494
Si Si8 0.730027 0.931282 0.335983
O O1 0.647618 0.306982 0.759686
O O2 0.870967 0.250000 0.715521
O O3 0.642080 0.250000 0.638055
O O4 0.000000 0.194202 0.604995
O O5 0.872241 0.102718 0.657001
O O6 0.000000 0.094371 0.526546
O O7 0.000000 0.189502 0.453908
O O8 0.132231 0.095263 0.399023
O O9 0.500000 0.666285 0.939647
O O10 0.675983 0.750000 0.898464
O O11 0.727168 0.637095 0.866598
O O12 0.750000 0.673340 0.000000
O O13 0.176464 0.079179 0.252257
O O14 0.000000 0.124125 0.158160
O O15 0.750000 0.000000 0.350365
#
# Coordination Sequence:
#
# PCOD8281125 Si02
#       8
#     8   8   8  16  16   4   4  16
#     4  12  20  34  60  86 124 162 205 258 323 377
#     4  12  26  40  65  89 126 160 209 277 330 392
#     4  12  24  44  63  91 120 166 211 267 338 388
#     4  10  22  37  60  98 139 175 208 250 312 379
#     4  12  22  39  64  90 124 170 214 263 314 373
#     4  12  23  38  56  98 125 154 200 272 341 390
#     4  12  19  42  64  86 125 158 208 262 325 410
#     4  12  26  44  63  88 122 169 223 267 316 380
#
# _framework density 20.255178000000001
#
# number of rings (size 3 to 8) (size 9 to 14) (size 15 to 20)
#    0.000    0.400    7.000    2.100    2.800    3.200 
#    0.000    3.000    0.000    0.600    0.000    2.800 
#    0.000    0.000    0.000    0.000    0.000    0.000 
#
# Total GULP energy -496026.422439 kJ/mol
# GULP energy per Si atom -12400.660561 kJ/mol
# Density = 2.020908 g / cm^3
# Si number density = 20.255178 Si / 1000 Ang^3
#
#
#
# Elastic Constant Matrix: (Units=GPa)
#
#
# Indices 1 2 3 4 5 6 
#
# 1 173.1323 24.2835 40.3212 0.0000 0.0000 0.0000
# 2 24.2835 108.2267 16.4220 0.0000 0.0000 0.0000
# 3 40.3212 16.4220 83.3924 0.0000 0.0000 0.0000
# 4 0.0000 0.0000 0.0000 17.9973 0.0000 0.0000
# 5 0.0000 0.0000 0.0000 0.0000 32.8769 0.0000
# 6 0.0000 0.0000 0.0000 0.0000 0.0000 100.8559
#
#
#
# Elastic Compliance Matrix: (Units=1/GPa)
#
#
# Indices 1 2 3 4 5 6 
#
# 1 0.006618 -0.001030 -0.002997 0.000000 0.000000 0.000000
# 2 -0.001030 0.009685 -0.001409 0.000000 0.000000 0.000000
# 3 -0.002997 -0.001409 0.013718 0.000000 0.000000 0.000000
# 4 0.000000 0.000000 0.000000 0.055564 0.000000 0.000000
# 5 0.000000 0.000000 0.000000 0.000000 0.030417 0.000000
# 6 0.000000 0.000000 0.000000 0.000000 0.000000 0.009915
#
#
# Mechanical properties :
#
#
# Convention : Reuss Voigt Hill
#
# Bulk Modulus (GPa) = 52.22355 58.53386 55.37871
# Shear Modulus (GPa) = 34.92279 49.26097 42.09188
#
# Velocity S-wave (km/s) = 4.15678 4.93690 4.56354
# Velocity P-wave (km/s) = 6.99123 7.83953 7.42750
#
# Compressibility (1/GPa) = 0.01914845
#
# Stress axis : x y z
#
# Youngs Moduli (GPa) = 151.09246 103.25425 72.89599
#
# Poissons Ratio (x) = 0.10638 0.21849
# Poissons Ratio (y) = 0.15566 0.10271
# Poissons Ratio (z) = 0.45286 0.14549
#
# Static dielectric constant tensor:
#      x y z
#    x 3.954850 0.000000 0.000000 
#    y 0.000000 3.504190 0.000000 
#    z 0.000000 0.000000 3.525550 
# 
# 
# High freq. dielectric constant tensor:
#      x y z
#    x 1.815880 0.000000 0.000000 
#    y 0.000000 1.764590 0.000000 
#    z 0.000000 0.000000 1.779930 
# 
# From -- ./inp_files/36924.got.cif
#   From: 2010.03.12/outbox.cif.g09.slc.cpg/sg67_19_cif.got.tgz:36924.got - 2010.04.10 22:41:39.
