data_PCOD8281116
_publ_section_title
;
Structure prediction by ZEFSAII (Michael W. Deem and Ramdas Pophale) SiO2 
 PCOD8281116
Probable space group: C M M A
;
_chemical_formula_sum "Si O2"
_cell_formula_units_Z 80
_cell_length_a 26.279026
_cell_length_b 15.791345
_cell_length_c 9.986695
_cell_angle_alpha 90.000000
_cell_angle_beta 90.000000
_cell_angle_gamma 90.000000
_cell_volume 4144.290334
_symmetry_space_group_name_H-M "C M M A"
_symmetry_group_IT_number 67
_symmetry_cell_setting 'orthorhombic'
loop_
_space_group_symop_operation_xyz
x,y,z
-x,1/2-y,z
x,-y,-z
-x,1/2+y,-z
-x,-y,-z
x,1/2+y,-z
-x,y,z
x,1/2-y,z
1/2+x,1/2+y,z
1/2-x,-y,z
1/2+x,1/2-y,-z
1/2-x,y,-z
1/2-x,1/2-y,-z
1/2+x,y,-z
1/2-x,1/2+y,z
1/2+x,-y,z
loop_
_atom_site_type_symbol
_atom_site_label
_atom_site_fract_x
_atom_site_fract_y
_atom_site_fract_z
Si Si1 0.728259 0.750000 0.147273
Si Si2 0.704002 0.250000 0.401073
Si Si3 0.860655 0.906781 0.501373
Si Si4 0.443297 0.850834 0.987671
Si Si5 0.867579 0.343232 0.207920
Si Si6 0.559283 0.846644 0.688599
O O1 0.775955 0.750000 0.248697
O O2 0.692349 0.666623 0.167355
O O3 0.750000 0.750000 0.000000
O O4 0.750000 0.250000 0.500000
O O5 0.674128 0.163979 0.432269
O O6 0.873155 0.893192 0.655966
O O7 0.912943 0.907220 0.417537
O O8 0.835079 0.000000 0.500000
O O9 0.500000 0.882251 0.029314
O O10 0.442187 0.750000 0.983311
O O11 0.429758 0.882164 0.838029
O O12 0.401095 0.887594 0.090765
O O13 0.891177 0.250000 0.233133
O O14 0.500000 0.849302 0.656348
O O15 0.579770 0.750000 0.673924
#
# Coordination Sequence:
#
# PCOD8281116 Si02
#       6
#     8   8  16  16  16  16
#     4  10  22  36  65  90 105 155 196 247 306 356
#     4  12  22  46  63  84 121 153 198 251 298 360
#     4  12  24  38  62  91 120 160 199 244 298 353
#     4   8  15  29  56  88 117 155 197 238 291 354
#     4   9  18  36  55  86 117 144 198 240 291 356
#     4   9  18  35  60  89 121 161 201 239 293 354
#
# _framework density 19.303666
#
# number of rings (size 3 to 8) (size 9 to 14) (size 15 to 20)
#    0.600    1.600    4.000    1.200    2.800    1.600 
#    0.000    3.000    0.000    3.600    0.000    0.000 
#    0.000    0.000    0.000    0.000    0.000    0.000 
#
# Total GULP energy -495658.426717 kJ/mol
# GULP energy per Si atom -12391.460668 kJ/mol
# Density = 1.925973 g / cm^3
# Si number density = 19.303666 Si / 1000 Ang^3
#
#
#
# Elastic Constant Matrix: (Units=GPa)
#
#
# Indices 1 2 3 4 5 6 
#
# 1 91.5114 38.3635 75.5891 0.0000 0.0000 0.0000
# 2 38.3635 80.9446 41.4374 0.0000 0.0000 0.0000
# 3 75.5891 41.4374 172.8021 0.0000 0.0000 0.0000
# 4 0.0000 0.0000 0.0000 3.7163 0.0000 0.0000
# 5 0.0000 0.0000 0.0000 0.0000 48.2961 0.0000
# 6 0.0000 0.0000 0.0000 0.0000 0.0000 3.3986
#
#
#
# Elastic Compliance Matrix: (Units=1/GPa)
#
#
# Indices 1 2 3 4 5 6 
#
# 1 0.018983 -0.005410 -0.007006 0.000000 0.000000 0.000000
# 2 -0.005410 0.015625 -0.001380 0.000000 0.000000 0.000000
# 3 -0.007006 -0.001380 0.009183 0.000000 0.000000 0.000000
# 4 0.000000 0.000000 0.000000 0.269088 0.000000 0.000000
# 5 0.000000 0.000000 0.000000 0.000000 0.020706 0.000000
# 6 0.000000 0.000000 0.000000 0.000000 0.000000 0.294236
#
#
# Mechanical properties :
#
#
# Convention : Reuss Voigt Hill
#
# Bulk Modulus (GPa) = 61.73990 72.89312 67.31651
# Shear Modulus (GPa) = 7.56644 23.74009 15.65326
#
# Velocity S-wave (km/s) = 1.98197 3.51069 2.85071
# Velocity P-wave (km/s) = 6.10660 7.36726 6.76635
#
# Compressibility (1/GPa) = 0.01619698
#
# Stress axis : x y z
#
# Youngs Moduli (GPa) = 52.67867 64.00069 108.89978
#
# Poissons Ratio (x) = 0.34626 0.76300
# Poissons Ratio (y) = 0.28500 0.15030
# Poissons Ratio (z) = 0.36909 0.08833
#
# Static dielectric constant tensor:
#      x y z
#    x 3.443030 0.000000 0.000000 
#    y 0.000000 3.122680 0.000000 
#    z 0.000000 0.000000 3.682140 
# 
# 
# High freq. dielectric constant tensor:
#      x y z
#    x 1.746780 0.000000 0.000000 
#    y 0.000000 1.707350 0.000000 
#    z 0.000000 0.000000 1.764180 
# 
# From -- ./inp_files/14601.got.cif
#   From: 2010.03.12/outbox.cif.g09.slc.cpg/sg67_8_cif.got.tgz:14601.got - 2010.04.10 22:41:39.
