data_PCOD8281735
_publ_section_title
;
Structure prediction by ZEFSAII (Michael W. Deem and Ramdas Pophale) SiO2 
 PCOD8281735
Probable space group: C C C A
;
_chemical_formula_sum "Si O2"
_cell_formula_units_Z 84
_cell_length_a 18.052289
_cell_length_b 23.692102
_cell_length_c 12.290665
_cell_angle_alpha 90.000000
_cell_angle_beta 90.000000
_cell_angle_gamma 90.000000
_cell_volume 5256.676521
_symmetry_space_group_name_H-M "C C C A"
_symmetry_group_IT_number 68
_space_group.IT_coordinate_system_code '2'
_symmetry_cell_setting 'orthorhombic'
loop_
_space_group_symop_operation_xyz
x,y,z
-x,1/2-y,z
x,1/2-y,1/2-z
-x,y,1/2-z
-x,-y,-z
x,1/2+y,-z
-x,1/2+y,1/2+z
x,-y,1/2+z
1/2+x,1/2+y,z
1/2-x,-y,z
1/2+x,-y,1/2-z
1/2-x,1/2+y,1/2-z
1/2-x,1/2-y,-z
1/2+x,y,-z
1/2-x,y,1/2+z
1/2+x,1/2-y,1/2+z
loop_
_atom_site_type_symbol
_atom_site_label
_atom_site_fract_x
_atom_site_fract_y
_atom_site_fract_z
Si Si1 0.846326 0.946338 0.279893
Si Si2 0.928701 0.357990 0.310358
Si Si3 0.822163 0.926781 0.826893
Si Si4 0.500000 0.250000 0.750000
Si Si5 0.396011 0.050677 0.457340
Si Si6 0.566483 0.572308 0.515083
O O1 0.765191 0.924911 0.310013
O O2 0.867901 0.927409 0.158958
O O3 0.902073 0.916422 0.364464
O O4 0.855250 0.013963 0.284615
O O5 0.857440 0.374309 0.238149
O O6 0.944605 0.290549 0.318904
O O7 0.914258 0.377386 0.433217
O O8 0.000000 0.387398 0.250000
O O9 0.840952 0.921314 0.954727
O O10 0.478698 0.070232 0.479277
O O11 0.394112 0.982983 0.465367
#
# Coordination Sequence:
#
# PCOD8281735 Si02
#       6
#    16  16  16   4  16  16
#     4  10  21  28  45  76 108 146 158 190 255 327
#     4  10  18  35  52  77  92 130 175 226 245 287
#     4  10  20  30  45  71 110 138 167 201 246 304
#     4   8  20  32  60  76  86 124 190 228 264 260
#     4  10  18  30  44  71 106 141 168 194 240 321
#     4  10  19  29  50  69 102 134 173 207 249 295
#
# _framework density 15.979678
#
# number of rings (size 3 to 8) (size 9 to 14) (size 15 to 20)
#    0.571    1.524    3.810    0.571    2.667    1.524 
#    0.000    0.000    0.000    1.143    0.000    5.333 
#    0.000    0.000    0.000    0.000    0.000    0.000 
#
# Total GULP energy -520604.605153 kJ/mol
# GULP energy per Si atom -12395.347742 kJ/mol
# Density = 1.594331 g / cm^3
# Si number density = 15.979678 Si / 1000 Ang^3
#
#
#
# Elastic Constant Matrix: (Units=GPa)
#
#
# Indices 1 2 3 4 5 6 
#
# 1 60.4755 27.3869 37.5144 0.0000 0.0000 0.0000
# 2 27.3869 73.1926 39.1951 0.0000 0.0000 0.0000
# 3 37.5144 39.1951 143.7708 0.0000 0.0000 0.0000
# 4 0.0000 0.0000 0.0000 13.2708 0.0000 0.0000
# 5 0.0000 0.0000 0.0000 0.0000 25.2973 0.0000
# 6 0.0000 0.0000 0.0000 0.0000 0.0000 19.8820
#
#
#
# Elastic Compliance Matrix: (Units=1/GPa)
#
#
# Indices 1 2 3 4 5 6 
#
# 1 0.021750 -0.005971 -0.004048 0.000000 0.000000 0.000000
# 2 -0.005971 0.017637 -0.003250 0.000000 0.000000 0.000000
# 3 -0.004048 -0.003250 0.008898 0.000000 0.000000 0.000000
# 4 0.000000 0.000000 0.000000 0.075354 0.000000 0.000000
# 5 0.000000 0.000000 0.000000 0.000000 0.039530 0.000000
# 6 0.000000 0.000000 0.000000 0.000000 0.000000 0.050297
#
#
# Mechanical properties :
#
#
# Convention : Reuss Voigt Hill
#
# Bulk Modulus (GPa) = 45.98159 53.95907 49.97033
# Shear Modulus (GPa) = 20.22219 23.24616 21.73417
#
# Velocity S-wave (km/s) = 3.56124 3.81823 3.69197
# Velocity P-wave (km/s) = 6.76368 7.29926 7.03657
#
# Compressibility (1/GPa) = 0.02174783
#
# Stress axis : x y z
#
# Youngs Moduli (GPa) = 45.97605 56.69784 112.38781
#
# Poissons Ratio (x) = 0.33854 0.45490
# Poissons Ratio (y) = 0.27452 0.36530
# Poissons Ratio (z) = 0.18609 0.18429
#
# Static dielectric constant tensor:
#      x y z
#    x 2.976950 0.000000 0.000000 
#    y 0.000000 2.563580 0.000000 
#    z 0.000000 0.000000 3.098040 
# 
# 
# High freq. dielectric constant tensor:
#      x y z
#    x 1.618800 0.000000 0.000000 
#    y 0.000000 1.549680 0.000000 
#    z 0.000000 0.000000 1.624960 
# 
# From -- ./inp_files/14565.got.cif
#   From: 2010.03.12/outbox.cif.g09.slc.cpg/sg68_8_cif.got.tgz:14565.got - 2010.04.10 23:14:56.
