data_PCOD8281405
_publ_section_title
;
Structure prediction by ZEFSAII (Michael W. Deem and Ramdas Pophale) SiO2 
 PCOD8281405
Probable space group: C M M A
;
_chemical_formula_sum "Si O2"
_cell_formula_units_Z 112
_cell_length_a 15.723830
_cell_length_b 14.415415
_cell_length_c 23.321799
_cell_angle_alpha 90.000000
_cell_angle_beta 90.000000
_cell_angle_gamma 90.000000
_cell_volume 5286.248044
_symmetry_space_group_name_H-M "C M M A"
_symmetry_group_IT_number 67
_symmetry_cell_setting 'orthorhombic'
loop_
_space_group_symop_operation_xyz
x,y,z
-x,1/2-y,z
x,-y,-z
-x,1/2+y,-z
-x,-y,-z
x,1/2+y,-z
-x,y,z
x,1/2-y,z
1/2+x,1/2+y,z
1/2-x,-y,z
1/2+x,1/2-y,-z
1/2-x,y,-z
1/2-x,1/2-y,-z
1/2+x,y,-z
1/2-x,1/2+y,z
1/2+x,-y,z
loop_
_atom_site_type_symbol
_atom_site_label
_atom_site_fract_x
_atom_site_fract_y
_atom_site_fract_z
Si Si1 0.094166 0.860337 0.582360
Si Si2 0.594546 0.359987 0.453473
Si Si3 0.213023 0.646062 0.059288
Si Si4 0.732925 0.639421 0.635329
Si Si5 0.593908 0.451537 0.143104
Si Si6 0.794754 0.643992 0.237286
Si Si7 0.853726 0.649501 0.844349
O O1 0.095694 0.750000 0.581623
O O2 0.109592 0.897921 0.517794
O O3 0.171809 0.898300 0.621370
O O4 0.000000 0.893509 0.604160
O O5 0.500000 0.389213 0.432280
O O6 0.602908 0.250000 0.454105
O O7 0.665045 0.401732 0.410312
O O8 0.175612 0.750000 0.049595
O O9 0.140214 0.578770 0.084263
O O10 0.288119 0.650253 0.104054
O O11 0.250000 0.605105 0.000000
O O12 0.733222 0.750000 0.633689
O O13 0.705244 0.604750 0.698137
O O14 0.500000 0.408414 0.142464
O O15 0.642574 0.417334 0.199288
O O16 0.583852 0.563222 0.146494
O O17 0.827100 0.750000 0.234260
O O18 0.698476 0.636461 0.214521
O O19 0.901914 0.750000 0.842959
#
# Coordination Sequence:
#
# PCOD8281405 Si02
#       7
#    16  16  16  16  16  16  16
#     4   8  13  21  33  52  83 126 177 227 269 316
#     4   8  13  20  31  51  84 128 174 219 268 322
#     4   9  18  35  60  86 114 152 190 220 255 308
#     4   9  15  23  38  61  91 132 179 223 270 324
#     4  11  22  35  56  84 113 145 181 230 285 329
#     4   9  18  32  51  75 105 144 187 227 270 329
#     4   9  19  37  57  76 104 145 188 227 273 328
#
# _framework density 21.187051
#
# number of rings (size 3 to 8) (size 9 to 14) (size 15 to 20)
#    0.000    3.000    0.000    4.286    0.000    4.857 
#    0.000    3.571    0.000    5.143    0.000    0.000 
#    0.000    9.143    0.000   20.000    0.000   36.857 
#
# Total GULP energy -693961.197684 kJ/mol
# GULP energy per Si atom -12392.164244 kJ/mol
# Density = 2.113883 g / cm^3
# Si number density = 21.187051 Si / 1000 Ang^3
#
#
#
# Elastic Constant Matrix: (Units=GPa)
#
#
# Indices 1 2 3 4 5 6 
#
# 1 128.5750 22.3890 62.2261 0.0000 0.0000 0.0000
# 2 22.3890 79.9065 19.0367 0.0000 0.0000 0.0000
# 3 62.2261 19.0367 126.1338 0.0000 0.0000 0.0000
# 4 0.0000 0.0000 0.0000 12.0807 0.0000 0.0000
# 5 0.0000 0.0000 0.0000 0.0000 13.7084 0.0000
# 6 0.0000 0.0000 0.0000 0.0000 0.0000 9.0707
#
#
#
# Elastic Compliance Matrix: (Units=1/GPa)
#
#
# Indices 1 2 3 4 5 6 
#
# 1 0.010451 -0.001763 -0.004890 0.000000 0.000000 0.000000
# 2 -0.001763 0.013279 -0.001134 0.000000 0.000000 0.000000
# 3 -0.004890 -0.001134 0.010512 0.000000 0.000000 0.000000
# 4 0.000000 0.000000 0.000000 0.082777 0.000000 0.000000
# 5 0.000000 0.000000 0.000000 0.000000 0.072948 0.000000
# 6 0.000000 0.000000 0.000000 0.000000 0.000000 0.110245
#
#
# Mechanical properties :
#
#
# Convention : Reuss Voigt Hill
#
# Bulk Modulus (GPa) = 53.57064 60.21322 56.89193
# Shear Modulus (GPa) = 15.52757 22.36953 18.94855
#
# Velocity S-wave (km/s) = 2.71011 3.25285 2.99381
# Velocity P-wave (km/s) = 5.92726 6.52607 6.23386
#
# Compressibility (1/GPa) = 0.01866694
#
# Stress axis : x y z
#
# Youngs Moduli (GPa) = 95.68375 75.30739 95.13347
#
# Poissons Ratio (x) = 0.13279 0.46518
# Poissons Ratio (y) = 0.16873 0.10790
# Poissons Ratio (z) = 0.46787 0.08541
#
# Static dielectric constant tensor:
#      x y z
#    x 3.778440 0.000000 0.000000 
#    y 0.000000 3.795290 0.000000 
#    z 0.000000 0.000000 3.963830 
# 
# 
# High freq. dielectric constant tensor:
#      x y z
#    x 1.807480 0.000000 0.000000 
#    y 0.000000 1.824740 0.000000 
#    z 0.000000 0.000000 1.821240 
# 
# From -- ./inp_files/41980.got.cif
#   From: 2010.03.12/outbox.cif.g09.slc.cpg/sg67_21_cif.got.tgz:41980.got - 2010.04.10 22:41:39.
