data_PCOD8281596
_publ_section_title
;
Structure prediction by ZEFSAII (Michael W. Deem and Ramdas Pophale) SiO2 
 PCOD8281596
Probable space group: C M M A
;
_chemical_formula_sum "Si O2"
_cell_formula_units_Z 96
_cell_length_a 9.101796
_cell_length_b 30.572415
_cell_length_c 25.795128
_cell_angle_alpha 90.000000
_cell_angle_beta 90.000000
_cell_angle_gamma 90.000000
_cell_volume 7177.852520
_symmetry_space_group_name_H-M "C M M A"
_symmetry_group_IT_number 67
_symmetry_cell_setting 'orthorhombic'
loop_
_space_group_symop_operation_xyz
x,y,z
-x,1/2-y,z
x,-y,-z
-x,1/2+y,-z
-x,-y,-z
x,1/2+y,-z
-x,y,z
x,1/2-y,z
1/2+x,1/2+y,z
1/2-x,-y,z
1/2+x,1/2-y,-z
1/2-x,y,-z
1/2-x,1/2-y,-z
1/2+x,y,-z
1/2-x,1/2+y,z
1/2+x,-y,z
loop_
_atom_site_type_symbol
_atom_site_label
_atom_site_fract_x
_atom_site_fract_y
_atom_site_fract_z
Si Si1 0.833860 0.697863 0.449407
Si Si2 0.166104 0.302172 0.348142
Si Si3 0.671193 0.459864 0.944927
Si Si4 0.672081 0.300475 0.855285
Si Si5 0.329596 0.136851 0.945709
Si Si6 0.165627 0.302035 0.752445
O O1 0.834248 0.750000 0.449516
O O2 0.750000 0.679897 0.500000
O O3 0.751062 0.680012 0.398570
O O4 0.000000 0.679858 0.449569
O O5 0.166287 0.250000 0.347855
O O6 0.247037 0.320662 0.297128
O O7 0.000000 0.320093 0.349066
O O8 0.500000 0.470655 0.950758
O O9 0.750000 0.500000 0.913133
O O10 0.695959 0.411618 0.920786
O O11 0.750000 0.458134 0.000000
O O12 0.500000 0.307514 0.845508
O O13 0.709466 0.250000 0.866497
O O14 0.729463 0.328150 0.904247
O O15 0.755542 0.318164 0.804659
O O16 0.500000 0.144467 0.957209
O O17 0.250000 0.144250 0.000000
O O18 0.166227 0.250000 0.750408
O O19 0.000000 0.320320 0.751191
#
# Coordination Sequence:
#
# PCOD8281596 Si02
#       6
#    16  16  16  16  16  16
#     4   9  15  21  28  39  56  76  97 123 157 198
#     4   9  15  22  32  44  57  75  99 127 161 200
#     4   9  15  24  38  55  73  90 108 130 158 193
#     4   9  17  29  41  51  66  89 114 139 169 204
#     4   9  18  29  40  55  73  91 111 136 166 202
#     4   9  16  25  36  49  62  77 102 136 169 198
#
# _framework density 13.374473999999999
#
# number of rings (size 3 to 8) (size 9 to 14) (size 15 to 20)
#    0.000    3.000    0.000    2.500    0.000    7.667 
#    0.000    0.000    0.000    0.000    0.000    0.000 
#    0.000    0.000    0.000    0.000    0.000    0.000 
#
# Total GULP energy -594877.828889 kJ/mol
# GULP energy per Si atom -12393.288102 kJ/mol
# Density = 1.334403 g / cm^3
# Si number density = 13.374474 Si / 1000 Ang^3
#
#
#
# Elastic Constant Matrix: (Units=GPa)
#
#
# Indices 1 2 3 4 5 6 
#
# 1 102.5217 26.0318 59.7431 0.0000 0.0000 0.0000
# 2 26.0318 39.4390 34.5848 0.0000 0.0000 0.0000
# 3 59.7431 34.5848 114.8189 0.0000 0.0000 0.0000
# 4 0.0000 0.0000 0.0000 0.5190 0.0000 0.0000
# 5 0.0000 0.0000 0.0000 0.0000 24.7774 0.0000
# 6 0.0000 0.0000 0.0000 0.0000 0.0000 9.4715
#
#
#
# Elastic Compliance Matrix: (Units=1/GPa)
#
#
# Indices 1 2 3 4 5 6 
#
# 1 0.014449 -0.004001 -0.006313 0.000000 0.000000 0.000000
# 2 -0.004001 0.035565 -0.008631 0.000000 0.000000 0.000000
# 3 -0.006313 -0.008631 0.014594 0.000000 0.000000 0.000000
# 4 0.000000 0.000000 0.000000 1.926928 0.000000 0.000000
# 5 0.000000 0.000000 0.000000 0.000000 0.040359 0.000000
# 6 0.000000 0.000000 0.000000 0.000000 0.000000 0.105580
#
#
# Mechanical properties :
#
#
# Convention : Reuss Voigt Hill
#
# Bulk Modulus (GPa) = 37.42772 55.27765 46.35268
# Shear Modulus (GPa) = 2.28909 16.04822 9.16865
#
# Velocity S-wave (km/s) = 1.30968 3.46774 2.62111
# Velocity P-wave (km/s) = 5.50747 7.57984 6.62519
#
# Compressibility (1/GPa) = 0.02671816
#
# Stress axis : x y z
#
# Youngs Moduli (GPa) = 69.21044 28.11759 68.52233
#
# Poissons Ratio (x) = 0.11250 0.43257
# Poissons Ratio (y) = 0.27691 0.59140
# Poissons Ratio (z) = 0.43692 0.24268
#
# Static dielectric constant tensor:
#      x y z
#    x 2.860160 0.000000 0.000000 
#    y 0.000000 2.684090 0.000000 
#    z 0.000000 0.000000 2.678100 
# 
# 
# High freq. dielectric constant tensor:
#      x y z
#    x 1.527340 0.000000 0.000000 
#    y 0.000000 1.443310 0.000000 
#    z 0.000000 0.000000 1.498560 
# 
# From -- ./inp_files/40912.got.cif
#   From: 2010.03.12/outbox.cif.g09.slc.cpg/sg67_21_cif.got.tgz:40912.got - 2010.04.10 22:41:39.
