data_PCOD8281602
_publ_section_title
;
Structure prediction by ZEFSAII (Michael W. Deem and Ramdas Pophale) SiO2 
 PCOD8281602
Probable space group: C M M A
;
_chemical_formula_sum "Si O2"
_cell_formula_units_Z 80
_cell_length_a 19.859296
_cell_length_b 9.334716
_cell_length_c 25.122042
_cell_angle_alpha 90.000000
_cell_angle_beta 90.000000
_cell_angle_gamma 90.000000
_cell_volume 4657.146457
_symmetry_space_group_name_H-M "C M M A"
_symmetry_group_IT_number 67
_symmetry_cell_setting 'orthorhombic'
loop_
_space_group_symop_operation_xyz
x,y,z
-x,1/2-y,z
x,-y,-z
-x,1/2+y,-z
-x,-y,-z
x,1/2+y,-z
-x,y,z
x,1/2-y,z
1/2+x,1/2+y,z
1/2-x,-y,z
1/2+x,1/2-y,-z
1/2-x,y,-z
1/2-x,1/2-y,-z
1/2+x,y,-z
1/2-x,1/2+y,z
1/2+x,-y,z
loop_
_atom_site_type_symbol
_atom_site_label
_atom_site_fract_x
_atom_site_fract_y
_atom_site_fract_z
Si Si1 0.315961 0.417317 0.861590
Si Si2 0.422612 0.916230 0.346870
Si Si3 0.315651 0.583490 0.259508
Si Si4 0.080111 0.412033 0.550178
Si Si5 0.923221 0.082835 0.052044
O O1 0.300959 0.250000 0.867092
O O2 0.250000 0.500000 0.881560
O O3 0.333823 0.459585 0.800964
O O4 0.378666 0.464869 0.897732
O O5 0.500000 0.951602 0.333230
O O6 0.414018 0.750000 0.362261
O O7 0.379359 0.958932 0.295398
O O8 0.395904 0.009825 0.396146
O O9 0.298800 0.750000 0.264233
O O10 0.250000 0.500000 0.279839
O O11 0.109433 0.500000 0.500000
O O12 0.108507 0.250000 0.549083
O O13 0.000000 0.410695 0.547415
O O14 0.915711 0.250000 0.040102
O O15 0.000000 0.041235 0.065653
O O16 0.897501 0.000000 0.000000
#
# Coordination Sequence:
#
# PCOD8281602 Si02
#       5
#    16  16  16  16  16
#     4   9  18  32  49  69  92 120 155 192 229 271
#     4   9  17  29  46  69  94 119 151 190 229 271
#     4   9  18  32  49  68  92 123 155 188 229 275
#     4   9  16  26  42  65  93 123 153 187 228 272
#     4   9  18  32  49  69  94 123 154 189 230 275
#
# _framework density 17.177900999999999
#
# number of rings (size 3 to 8) (size 9 to 14) (size 15 to 20)
#    0.000    3.000    0.000    0.600    0.000    5.200 
#    0.000    6.000    0.000    0.600    0.000   15.400 
#    0.000    0.000    0.000    0.000    0.000    0.000 
#
# Total GULP energy -496019.123382 kJ/mol
# GULP energy per Si atom -12400.478085 kJ/mol
# Density = 1.713880 g / cm^3
# Si number density = 17.177901 Si / 1000 Ang^3
#
#
#
# Elastic Constant Matrix: (Units=GPa)
#
#
# Indices 1 2 3 4 5 6 
#
# 1 85.6483 42.8964 73.7245 0.0000 0.0000 0.0000
# 2 42.8964 66.8181 58.2946 0.0000 0.0000 0.0000
# 3 73.7245 58.2946 127.1569 0.0000 0.0000 0.0000
# 4 0.0000 0.0000 0.0000 30.1450 0.0000 0.0000
# 5 0.0000 0.0000 0.0000 0.0000 12.5599 0.0000
# 6 0.0000 0.0000 0.0000 0.0000 0.0000 24.0625
#
#
#
# Elastic Compliance Matrix: (Units=1/GPa)
#
#
# Indices 1 2 3 4 5 6 
#
# 1 0.024486 -0.005556 -0.011650 0.000000 0.000000 0.000000
# 2 -0.005556 0.026203 -0.008791 0.000000 0.000000 0.000000
# 3 -0.011650 -0.008791 0.018649 0.000000 0.000000 0.000000
# 4 0.000000 0.000000 0.000000 0.033173 0.000000 0.000000
# 5 0.000000 0.000000 0.000000 0.000000 0.079618 0.000000
# 6 0.000000 0.000000 0.000000 0.000000 0.000000 0.041558
#
#
# Mechanical properties :
#
#
# Convention : Reuss Voigt Hill
#
# Bulk Modulus (GPa) = 57.65720 69.93937 63.79828
# Shear Modulus (GPa) = 17.76431 20.33401 19.04916
#
# Velocity S-wave (km/s) = 3.21929 3.44427 3.33368
# Velocity P-wave (km/s) = 6.88884 7.52466 7.21375
#
# Compressibility (1/GPa) = 0.01734389
#
# Stress axis : x y z
#
# Youngs Moduli (GPa) = 40.83907 38.16398 53.62231
#
# Poissons Ratio (x) = 0.21205 0.62469
# Poissons Ratio (y) = 0.22691 0.47140
# Poissons Ratio (z) = 0.47576 0.33550
#
# Static dielectric constant tensor:
#      x y z
#    x 3.042300 0.000000 0.000000 
#    y 0.000000 3.245740 0.000000 
#    z 0.000000 0.000000 3.325580 
# 
# 
# High freq. dielectric constant tensor:
#      x y z
#    x 1.636840 0.000000 0.000000 
#    y 0.000000 1.663060 0.000000 
#    z 0.000000 0.000000 1.667710 
# 
# From -- ./inp_files/41318.got.cif
#   From: 2010.03.12/outbox.cif.g09.slc.cpg/sg67_21_cif.got.tgz:41318.got - 2010.04.10 22:41:39.
