data_PCOD8281622
_publ_section_title
;
Structure prediction by ZEFSAII (Michael W. Deem and Ramdas Pophale) SiO2 
 PCOD8281622
Probable space group: C C C A
;
_chemical_formula_sum "Si O2"
_cell_formula_units_Z 64
_cell_length_a 33.703750
_cell_length_b 12.961598
_cell_length_c 5.317948
_cell_angle_alpha 90.000000
_cell_angle_beta 90.000000
_cell_angle_gamma 90.000000
_cell_volume 2323.169294
_symmetry_space_group_name_H-M "C C C A"
_symmetry_group_IT_number 68
_space_group.IT_coordinate_system_code '2'
_symmetry_cell_setting 'orthorhombic'
loop_
_space_group_symop_operation_xyz
x,y,z
-x,1/2-y,z
x,1/2-y,1/2-z
-x,y,1/2-z
-x,-y,-z
x,1/2+y,-z
-x,1/2+y,1/2+z
x,-y,1/2+z
1/2+x,1/2+y,z
1/2-x,-y,z
1/2+x,-y,1/2-z
1/2-x,1/2+y,1/2-z
1/2-x,1/2-y,-z
1/2+x,y,-z
1/2-x,y,1/2+z
1/2+x,1/2-y,1/2+z
loop_
_atom_site_type_symbol
_atom_site_label
_atom_site_fract_x
_atom_site_fract_y
_atom_site_fract_z
Si Si1 0.109303 0.385768 0.104867
Si Si2 0.141783 0.116672 0.890033
Si Si3 0.732372 0.866911 0.687118
Si Si4 0.017030 0.385837 0.002574
O O1 0.118065 0.330277 0.374541
O O2 0.126072 0.500502 0.155473
O O3 0.132573 0.327240 0.878174
O O4 0.064065 0.388005 0.019720
O O5 0.188665 0.119707 0.927284
O O6 0.744404 0.750000 0.750000
O O7 0.760767 0.917018 0.467076
O O8 0.000000 0.330232 0.750000
O O9 0.000000 0.327875 0.250000
O O10 0.000000 0.500000 0.000000
#
# Coordination Sequence:
#
# PCOD8281622 Si02
#       4
#    16  16  16  16
#     4  10  19  30  45  72 104 129 155 191 237 289
#     4  10  18  32  48  67  97 127 152 195 244 284
#     4  10  21  37  54  70  89 119 162 206 243 285
#     4  10  16  25  41  63  96 133 160 182 215 268
#
# _framework density 27.548572
#
# number of rings (size 3 to 8) (size 9 to 14) (size 15 to 20)
#    0.000    2.000    0.000    9.000    0.000    0.000 
#    0.000   15.000    0.000    0.000    0.000    0.000 
#    0.000   48.000    0.000    0.000    0.000    0.000 
#
# Total GULP energy -396447.160171 kJ/mol
# GULP energy per Si atom -12388.973755 kJ/mol
# Density = 2.748587 g / cm^3
# Si number density = 27.548572 Si / 1000 Ang^3
#
#
#
# Elastic Constant Matrix: (Units=GPa)
#
#
# Indices 1 2 3 4 5 6 
#
# 1 187.6392 -8.7077 84.3884 0.0000 0.0000 0.0000
# 2 -8.7077 44.7477 -4.1080 0.0000 0.0000 0.0000
# 3 84.3884 -4.1080 335.1732 0.0000 0.0000 0.0000
# 4 0.0000 0.0000 0.0000 290.8255 0.0000 0.0000
# 5 0.0000 0.0000 0.0000 0.0000 66.1244 0.0000
# 6 0.0000 0.0000 0.0000 0.0000 0.0000 7.6303
#
#
#
# Elastic Compliance Matrix: (Units=1/GPa)
#
#
# Indices 1 2 3 4 5 6 
#
# 1 0.006058 0.001040 -0.001512 0.000000 0.000000 0.000000
# 2 0.001040 0.022551 0.000015 0.000000 0.000000 0.000000
# 3 -0.001512 0.000015 0.003365 0.000000 0.000000 0.000000
# 4 0.000000 0.000000 0.000000 0.003438 0.000000 0.000000
# 5 0.000000 0.000000 0.000000 0.000000 0.015123 0.000000
# 6 0.000000 0.000000 0.000000 0.000000 0.000000 0.131057
#
#
# Mechanical properties :
#
#
# Convention : Reuss Voigt Hill
#
# Bulk Modulus (GPa) = 32.19810 78.96727 55.58269
# Shear Modulus (GPa) = 25.92552 105.98185 65.95369
#
# Velocity S-wave (km/s) = 3.07104 6.20922 4.89825
# Velocity P-wave (km/s) = 4.92830 8.95170 7.22568
#
# Compressibility (1/GPa) = 0.03105773
#
# Stress axis : x y z
#
# Youngs Moduli (GPa) = 165.07497 44.34346 297.21972
#
# Poissons Ratio (x) = -0.04612 0.44954
# Poissons Ratio (y) = -0.17167 -0.00433
# Poissons Ratio (z) = 0.24967 -0.00065
#
# Static dielectric constant tensor:
#      x y z
#    x 4.469810 0.000000 0.000000 
#    y 0.000000 4.672420 0.000000 
#    z 0.000000 0.000000 5.925470 
# 
# 
# High freq. dielectric constant tensor:
#      x y z
#    x 2.087050 0.000000 0.000000 
#    y 0.000000 2.126840 0.000000 
#    z 0.000000 0.000000 2.162430 
# 
# From -- ./inp_files/1490.got.cif
#   From: 2010.03.12/outbox.cif.g09.slc.cpg/sg68_1_cif.got.tgz:1490.got - 2010.04.10 23:14:56.
