data_PCOD8281451
_publ_section_title
;
Structure prediction by ZEFSAII (Michael W. Deem and Ramdas Pophale) SiO2 
 PCOD8281451
Probable space group: C M M A
;
_chemical_formula_sum "Si O2"
_cell_formula_units_Z 64
_cell_length_a 10.202133
_cell_length_b 32.094648
_cell_length_c 9.976730
_cell_angle_alpha 90.000000
_cell_angle_beta 90.000000
_cell_angle_gamma 90.000000
_cell_volume 3266.719289
_symmetry_space_group_name_H-M "C M M A"
_symmetry_group_IT_number 67
_symmetry_cell_setting 'orthorhombic'
loop_
_space_group_symop_operation_xyz
x,y,z
-x,1/2-y,z
x,-y,-z
-x,1/2+y,-z
-x,-y,-z
x,1/2+y,-z
-x,y,z
x,1/2-y,z
1/2+x,1/2+y,z
1/2-x,-y,z
1/2+x,1/2-y,-z
1/2-x,y,-z
1/2-x,1/2-y,-z
1/2+x,y,-z
1/2-x,1/2+y,z
1/2+x,-y,z
loop_
_atom_site_type_symbol
_atom_site_label
_atom_site_fract_x
_atom_site_fract_y
_atom_site_fract_z
Si Si1 0.250000 0.657179 0.500000
Si Si2 0.000000 0.956753 0.672018
Si Si3 0.000000 0.447329 0.644650
Si Si4 0.250000 0.849081 0.000000
Si Si5 0.000000 0.299608 0.927405
Si Si6 0.737824 0.902890 0.264888
Si Si7 0.000000 0.201191 0.617927
O O1 0.304324 0.629277 0.379528
O O2 0.129933 0.685238 0.453275
O O3 0.000000 0.946143 0.515283
O O4 0.128290 0.938570 0.743729
O O5 0.000000 0.005837 0.698431
O O6 0.875447 0.423449 0.700428
O O7 0.252994 0.879097 0.126287
O O8 0.125576 0.818762 0.999639
O O9 0.000000 0.313259 0.772095
O O10 0.000000 0.250000 0.945629
O O11 0.000000 0.250000 0.605847
#
# Coordination Sequence:
#
# PCOD8281451 Si02
#       7
#     8   8   8   8   8  16   8
#     4  12  21  42  67  94 128 166 216 260 323 376
#     4  11  22  39  64  97 122 165 211 258 314 381
#     4  11  22  40  64  92 130 161 207 264 320 367
#     4  12  25  44  65  94 128 170 214 260 317 380
#     4  11  24  45  65  92 130 171 213 262 321 381
#     4  12  23  40  64  93 124 165 212 257 310 376
#     4  11  24  42  65  97 132 164 206 270 327 376
#
# _framework density 19.591519000000002
#
# number of rings (size 3 to 8) (size 9 to 14) (size 15 to 20)
#    0.000    0.500    5.000    4.500    0.000    2.000 
#    0.000    5.000    0.000    0.000    0.000    0.000 
#    0.000    0.000    0.000    0.000    0.000    0.000 
#
# Total GULP energy -396998.615860 kJ/mol
# GULP energy per Si atom -12406.206746 kJ/mol
# Density = 1.954693 g / cm^3
# Si number density = 19.591519 Si / 1000 Ang^3
#
#
#
# Elastic Constant Matrix: (Units=GPa)
#
#
# Indices 1 2 3 4 5 6 
#
# 1 155.0639 59.0331 16.3899 0.0000 0.0000 0.0000
# 2 59.0331 114.5480 50.4318 0.0000 0.0000 0.0000
# 3 16.3899 50.4318 85.9504 0.0000 0.0000 0.0000
# 4 0.0000 0.0000 0.0000 36.5827 0.0000 0.0000
# 5 0.0000 0.0000 0.0000 0.0000 32.6378 0.0000
# 6 0.0000 0.0000 0.0000 0.0000 0.0000 89.9465
#
#
#
# Elastic Compliance Matrix: (Units=1/GPa)
#
#
# Indices 1 2 3 4 5 6 
#
# 1 0.008117 -0.004721 0.001222 0.000000 0.000000 0.000000
# 2 -0.004721 0.014517 -0.007618 0.000000 0.000000 0.000000
# 3 0.001222 -0.007618 0.015871 0.000000 0.000000 0.000000
# 4 0.000000 0.000000 0.000000 0.027335 0.000000 0.000000
# 5 0.000000 0.000000 0.000000 0.000000 0.030639 0.000000
# 6 0.000000 0.000000 0.000000 0.000000 0.000000 0.011118
#
#
# Mechanical properties :
#
#
# Convention : Reuss Voigt Hill
#
# Bulk Modulus (GPa) = 61.45447 67.47464 64.46456
# Shear Modulus (GPa) = 36.96721 47.14723 42.05722
#
# Velocity S-wave (km/s) = 4.34856 4.91094 4.63828
# Velocity P-wave (km/s) = 7.52657 8.16529 7.85243
#
# Compressibility (1/GPa) = 0.01627221
#
# Stress axis : x y z
#
# Youngs Moduli (GPa) = 123.19488 68.88476 63.00738
#
# Poissons Ratio (x) = 0.32524 -0.07703
# Poissons Ratio (y) = 0.58166 0.47996
# Poissons Ratio (z) = -0.15060 0.52474
#
# Static dielectric constant tensor:
#      x y z
#    x 3.708910 0.000000 0.000000 
#    y 0.000000 3.770090 0.000000 
#    z 0.000000 0.000000 3.533930 
# 
# 
# High freq. dielectric constant tensor:
#      x y z
#    x 1.783430 0.000000 0.000000 
#    y 0.000000 1.782550 0.000000 
#    z 0.000000 0.000000 1.758260 
# 
# From -- ./inp_files/15896.got.cif
#   From: 2010.03.12/outbox.cif.g09.slc.cpg/sg67_8_cif.got.tgz:15896.got - 2010.04.10 22:41:39.
