data_PCOD8281807
_publ_section_title
;
Structure prediction by ZEFSAII (Michael W. Deem and Ramdas Pophale) SiO2 
 PCOD8281807
Probable space group: C C C A
;
_chemical_formula_sum "Si O2"
_cell_formula_units_Z 80
_cell_length_a 16.182097
_cell_length_b 14.108415
_cell_length_c 17.474262
_cell_angle_alpha 90.000000
_cell_angle_beta 90.000000
_cell_angle_gamma 90.000000
_cell_volume 3989.439369
_symmetry_space_group_name_H-M "C C C A"
_symmetry_group_IT_number 68
_space_group.IT_coordinate_system_code '2'
_symmetry_cell_setting 'orthorhombic'
loop_
_space_group_symop_operation_xyz
x,y,z
-x,1/2-y,z
x,1/2-y,1/2-z
-x,y,1/2-z
-x,-y,-z
x,1/2+y,-z
-x,1/2+y,1/2+z
x,-y,1/2+z
1/2+x,1/2+y,z
1/2-x,-y,z
1/2+x,-y,1/2-z
1/2-x,1/2+y,1/2-z
1/2-x,1/2-y,-z
1/2+x,y,-z
1/2-x,y,1/2+z
1/2+x,1/2-y,1/2+z
loop_
_atom_site_type_symbol
_atom_site_label
_atom_site_fract_x
_atom_site_fract_y
_atom_site_fract_z
Si Si1 0.430088 0.122460 0.029069
Si Si2 0.993393 0.511542 0.169377
Si Si3 0.105340 0.674190 0.988278
Si Si4 0.340523 0.491630 0.079643
Si Si5 0.580976 0.193197 0.823977
O O1 0.517590 0.115531 0.982632
O O2 0.405554 0.231827 0.038835
O O3 0.439687 0.074460 0.111750
O O4 0.356736 0.071639 0.983949
O O5 0.087621 0.498418 0.141675
O O6 0.000000 0.567269 0.250000
O O7 0.944469 0.414810 0.192055
O O8 0.166600 0.608876 0.035827
O O9 0.137388 0.695937 0.901322
O O10 0.250000 0.500000 0.118495
O O11 0.500000 0.250000 0.848622
O O12 0.620338 0.250000 0.750000
#
# Coordination Sequence:
#
# PCOD8281807 Si02
#       5
#    16  16  16  16  16
#     4  10  19  35  58  85 111 154 201 240 287 349
#     4  11  20  36  59  85 117 150 200 250 289 352
#     4  10  18  36  60  87 116 148 209 249 277 353
#     4  11  22  37  58  87 125 158 189 243 307 362
#     4  11  17  27  56  95 108 132 191 260 299 310
#
# _framework density 20.052942000000002
#
# number of rings (size 3 to 8) (size 9 to 14) (size 15 to 20)
#    0.000    1.400    8.000    1.200    0.000    0.800 
#    0.000    9.000    0.000    2.400    0.000    0.000 
#    0.000    0.000    0.000    0.000    0.000    0.000 
#
# Total GULP energy -495564.875307 kJ/mol
# GULP energy per Si atom -12389.121883 kJ/mol
# Density = 2.000730 g / cm^3
# Si number density = 20.052942 Si / 1000 Ang^3
#
#
#
# Elastic Constant Matrix: (Units=GPa)
#
#
# Indices 1 2 3 4 5 6 
#
# 1 65.9910 24.8882 17.4588 0.0000 0.0000 0.0000
# 2 24.8882 95.8385 48.9792 0.0000 0.0000 0.0000
# 3 17.4588 48.9792 136.5318 0.0000 0.0000 0.0000
# 4 0.0000 0.0000 0.0000 25.5859 0.0000 0.0000
# 5 0.0000 0.0000 0.0000 0.0000 10.4255 0.0000
# 6 0.0000 0.0000 0.0000 0.0000 0.0000 8.1006
#
#
#
# Elastic Compliance Matrix: (Units=1/GPa)
#
#
# Indices 1 2 3 4 5 6 
#
# 1 0.016856 -0.004011 -0.000716 0.000000 0.000000 0.000000
# 2 -0.004011 0.013731 -0.004413 0.000000 0.000000 0.000000
# 3 -0.000716 -0.004413 0.008999 0.000000 0.000000 0.000000
# 4 0.000000 0.000000 0.000000 0.039084 0.000000 0.000000
# 5 0.000000 0.000000 0.000000 0.000000 0.095919 0.000000
# 6 0.000000 0.000000 0.000000 0.000000 0.000000 0.123448
#
#
# Mechanical properties :
#
#
# Convention : Reuss Voigt Hill
#
# Bulk Modulus (GPa) = 46.93750 53.44596 50.19173
# Shear Modulus (GPa) = 15.45981 22.62475 19.04228
#
# Velocity S-wave (km/s) = 2.77961 3.36259 3.08490
# Velocity P-wave (km/s) = 5.81027 6.46423 6.14596
#
# Compressibility (1/GPa) = 0.02130493
#
# Stress axis : x y z
#
# Youngs Moduli (GPa) = 59.32636 72.82708 111.12321
#
# Poissons Ratio (x) = 0.29212 0.07962
# Poissons Ratio (y) = 0.23797 0.49038
# Poissons Ratio (z) = 0.04251 0.32138
#
# Static dielectric constant tensor:
#      x y z
#    x 3.085880 0.000000 0.000000 
#    y 0.000000 3.817990 0.000000 
#    z 0.000000 0.000000 3.796130 
# 
# 
# High freq. dielectric constant tensor:
#      x y z
#    x 1.718650 0.000000 0.000000 
#    y 0.000000 1.795310 0.000000 
#    z 0.000000 0.000000 1.782000 
# 
# From -- ./inp_files/31776.got.cif
#   From: 2010.03.12/outbox.cif.g09.slc.cpg/sg68_16_cif.got.tgz:31776.got - 2010.04.10 23:14:56.
