data_PCOD8281141
_publ_section_title
;
Structure prediction by ZEFSAII (Michael W. Deem and Ramdas Pophale) SiO2 
 PCOD8281141
Probable space group: C M M A
;
_chemical_formula_sum "Si O2"
_cell_formula_units_Z 96
_cell_length_a 19.814254
_cell_length_b 16.997120
_cell_length_c 14.690768
_cell_angle_alpha 90.000000
_cell_angle_beta 90.000000
_cell_angle_gamma 90.000000
_cell_volume 4947.634017
_symmetry_space_group_name_H-M "C M M A"
_symmetry_group_IT_number 67
_symmetry_cell_setting 'orthorhombic'
loop_
_space_group_symop_operation_xyz
x,y,z
-x,1/2-y,z
x,-y,-z
-x,1/2+y,-z
-x,-y,-z
x,1/2+y,-z
-x,y,z
x,1/2-y,z
1/2+x,1/2+y,z
1/2-x,-y,z
1/2+x,1/2-y,-z
1/2-x,y,-z
1/2-x,1/2-y,-z
1/2+x,y,-z
1/2-x,1/2+y,z
1/2+x,-y,z
loop_
_atom_site_type_symbol
_atom_site_label
_atom_site_fract_x
_atom_site_fract_y
_atom_site_fract_z
Si Si1 0.843651 0.086476 0.461105
Si Si2 0.576101 0.158884 0.884350
Si Si3 0.921893 0.057726 0.288774
Si Si4 0.214066 0.340182 0.620367
Si Si5 0.313557 0.558904 0.783661
Si Si6 0.175900 0.840421 0.040339
O O1 0.903854 0.095105 0.387542
O O2 0.848061 0.145608 0.548486
O O3 0.774142 0.102469 0.409130
O O4 0.844137 0.000000 0.500000
O O5 0.500000 0.138677 0.914392
O O6 0.587840 0.250000 0.868857
O O7 0.594502 0.121445 0.788026
O O8 0.625121 0.128049 0.963046
O O9 0.000000 0.032566 0.289671
O O10 0.877040 0.982379 0.264283
O O11 0.236621 0.250000 0.617552
O O12 0.198974 0.363902 0.723111
O O13 0.250000 0.500000 0.791088
O O14 0.332615 0.595556 0.880577
O O15 0.158664 0.750000 0.070227
O O16 0.250000 0.843622 0.000000
#
# Coordination Sequence:
#
# PCOD8281141 Si02
#       6
#    16  16  16  16  16  16
#     4  11  20  39  61  87 122 152 193 241 300 352
#     4   9  20  40  61  84 118 157 198 243 293 355
#     4  11  24  39  62  90 120 160 201 244 300 354
#     4  11  22  37  62  92 117 154 201 245 292 357
#     4  12  22  40  60  87 122 159 198 248 300 356
#     4  10  22  38  59  89 119 153 196 249 308 353
#
# _framework density 19.403213000000001
#
# number of rings (size 3 to 8) (size 9 to 14) (size 15 to 20)
#    0.000    1.333    3.333    3.500    0.000    4.667 
#    0.000    1.667    0.000    2.500    0.000    0.000 
#    0.000    0.000    0.000    0.000    0.000    0.000 
#
# Total GULP energy -594989.350708 kJ/mol
# GULP energy per Si atom -12395.611473 kJ/mol
# Density = 1.935905 g / cm^3
# Si number density = 19.403213 Si / 1000 Ang^3
#
#
#
# Elastic Constant Matrix: (Units=GPa)
#
#
# Indices 1 2 3 4 5 6 
#
# 1 88.4026 31.9859 50.8520 0.0000 0.0000 0.0000
# 2 31.9859 54.5306 56.1995 0.0000 0.0000 0.0000
# 3 50.8520 56.1995 129.4941 0.0000 0.0000 0.0000
# 4 0.0000 0.0000 0.0000 37.7344 0.0000 0.0000
# 5 0.0000 0.0000 0.0000 0.0000 35.6012 0.0000
# 6 0.0000 0.0000 0.0000 0.0000 0.0000 14.2774
#
#
#
# Elastic Compliance Matrix: (Units=1/GPa)
#
#
# Indices 1 2 3 4 5 6 
#
# 1 0.015344 -0.005048 -0.003835 0.000000 0.000000 0.000000
# 2 -0.005048 0.034839 -0.013137 0.000000 0.000000 0.000000
# 3 -0.003835 -0.013137 0.014930 0.000000 0.000000 0.000000
# 4 0.000000 0.000000 0.000000 0.026501 0.000000 0.000000
# 5 0.000000 0.000000 0.000000 0.000000 0.028089 0.000000
# 6 0.000000 0.000000 0.000000 0.000000 0.000000 0.070041
#
#
# Mechanical properties :
#
#
# Convention : Reuss Voigt Hill
#
# Bulk Modulus (GPa) = 47.45612 61.16692 54.31152
# Shear Modulus (GPa) = 20.76333 26.41526 23.58929
#
# Velocity S-wave (km/s) = 3.27478 3.69370 3.49053
# Velocity P-wave (km/s) = 6.22976 7.05576 6.65559
#
# Compressibility (1/GPa) = 0.02107210
#
# Stress axis : x y z
#
# Youngs Moduli (GPa) = 65.17047 28.70340 66.98026
#
# Poissons Ratio (x) = 0.14491 0.25685
# Poissons Ratio (y) = 0.32901 0.87995
# Poissons Ratio (z) = 0.24991 0.37709
#
# Static dielectric constant tensor:
#      x y z
#    x 3.814570 0.000000 0.000000 
#    y 0.000000 3.475800 0.000000 
#    z 0.000000 0.000000 4.013960 
# 
# 
# High freq. dielectric constant tensor:
#      x y z
#    x 1.734610 0.000000 0.000000 
#    y 0.000000 1.753160 0.000000 
#    z 0.000000 0.000000 1.775340 
# 
# From -- ./inp_files/27208.got.cif
#   From: 2010.03.12/outbox.cif.g09.slc.cpg/sg67_14_cif.got.tgz:27208.got - 2010.04.10 22:41:39.
