data_PCOD8281755
_publ_section_title
;
Structure prediction by ZEFSAII (Michael W. Deem and Ramdas Pophale) SiO2 
 PCOD8281755
Probable space group: C C C A
;
_chemical_formula_sum "Si O2"
_cell_formula_units_Z 128
_cell_length_a 25.206560
_cell_length_b 12.036992
_cell_length_c 23.573005
_cell_angle_alpha 90.000000
_cell_angle_beta 90.000000
_cell_angle_gamma 90.000000
_cell_volume 7152.312817
_symmetry_space_group_name_H-M "C C C A"
_symmetry_group_IT_number 68
_space_group.IT_coordinate_system_code '2'
_symmetry_cell_setting 'orthorhombic'
loop_
_space_group_symop_operation_xyz
x,y,z
-x,1/2-y,z
x,1/2-y,1/2-z
-x,y,1/2-z
-x,-y,-z
x,1/2+y,-z
-x,1/2+y,1/2+z
x,-y,1/2+z
1/2+x,1/2+y,z
1/2-x,-y,z
1/2+x,-y,1/2-z
1/2-x,1/2+y,1/2-z
1/2-x,1/2-y,-z
1/2+x,y,-z
1/2-x,y,1/2+z
1/2+x,1/2-y,1/2+z
loop_
_atom_site_type_symbol
_atom_site_label
_atom_site_fract_x
_atom_site_fract_y
_atom_site_fract_z
Si Si1 0.365904 0.253275 0.183826
Si Si2 0.118670 0.541833 0.021155
Si Si3 0.564408 0.540820 0.683130
Si Si4 0.443749 0.544942 0.687676
Si Si5 0.446076 0.384560 0.591915
Si Si6 0.782698 0.097790 0.007154
Si Si7 0.804422 0.704964 0.423765
Si Si8 0.569127 0.136031 0.910445
O O1 0.348031 0.250000 0.250000
O O2 0.395708 0.139865 0.166784
O O3 0.405852 0.353783 0.171050
O O4 0.314093 0.268121 0.143069
O O5 0.068201 0.483969 0.048953
O O6 0.160918 0.443614 0.027469
O O7 0.141086 0.649543 0.053629
O O8 0.104444 0.575667 0.957526
O O9 0.504045 0.583012 0.673638
O O10 0.568352 0.508407 0.748549
O O11 0.579887 0.430344 0.647969
O O12 0.432634 0.431897 0.653897
O O13 0.507115 0.366947 0.576964
O O14 0.414727 0.266697 0.590124
O O15 0.748026 0.131482 0.063341
O O16 0.750000 0.000000 0.975968
O O17 0.792256 0.186298 0.959075
#
# Coordination Sequence:
#
# PCOD8281755 Si02
#       8
#    16  16  16  16  16  16  16  16
#     4  10  18  31  54  81 106 137 175 223 271 319
#     4  11  19  34  53  74 104 141 175 222 266 323
#     4   9  18  30  49  74 109 143 184 223 255 318
#     4   9  17  32  49  74 105 146 184 217 265 312
#     4  10  20  34  49  74 111 146 182 222 262 327
#     4   9  20  34  54  77  99 128 171 222 267 328
#     4  10  19  34  54  80 100 133 176 218 276 324
#     4  10  21  32  48  77 110 148 183 219 270 310
#
# _framework density 17.896308999999999
#
# number of rings (size 3 to 8) (size 9 to 14) (size 15 to 20)
#    0.000    2.250    1.250    2.250    0.000    2.000 
#    0.000    3.750    0.000    2.250    9.750    0.000 
#    0.000    0.000    0.000    0.000    0.000    0.000 
#
# Total GULP energy -792939.458887 kJ/mol
# GULP energy per Si atom -12389.679045 kJ/mol
# Density = 1.785558 g / cm^3
# Si number density = 17.896309 Si / 1000 Ang^3
#
#
#
# Elastic Constant Matrix: (Units=GPa)
#
#
# Indices 1 2 3 4 5 6 
#
# 1 53.0669 40.4014 48.6489 0.0000 0.0000 0.0000
# 2 40.4014 113.3923 50.5799 0.0000 0.0000 0.0000
# 3 48.6489 50.5799 110.8906 0.0000 0.0000 0.0000
# 4 0.0000 0.0000 0.0000 26.3815 0.0000 0.0000
# 5 0.0000 0.0000 0.0000 0.0000 33.5312 0.0000
# 6 0.0000 0.0000 0.0000 0.0000 0.0000 21.9391
#
#
#
# Elastic Compliance Matrix: (Units=1/GPa)
#
#
# Indices 1 2 3 4 5 6 
#
# 1 0.035648 -0.007188 -0.012361 0.000000 0.000000 0.000000
# 2 -0.007188 0.012521 -0.002558 0.000000 0.000000 0.000000
# 3 -0.012361 -0.002558 0.015607 0.000000 0.000000 0.000000
# 4 0.000000 0.000000 0.000000 0.037905 0.000000 0.000000
# 5 0.000000 0.000000 0.000000 0.000000 0.029823 0.000000
# 6 0.000000 0.000000 0.000000 0.000000 0.000000 0.045581
#
#
# Mechanical properties :
#
#
# Convention : Reuss Voigt Hill
#
# Bulk Modulus (GPa) = 51.11453 61.84557 56.48005
# Shear Modulus (GPa) = 21.94730 25.55167 23.74948
#
# Velocity S-wave (km/s) = 3.50574 3.78267 3.64684
# Velocity P-wave (km/s) = 6.70898 7.32877 7.02572
#
# Compressibility (1/GPa) = 0.01956391
#
# Stress axis : x y z
#
# Youngs Moduli (GPa) = 28.05213 79.86709 64.07259
#
# Poissons Ratio (x) = 0.57406 0.79198
# Poissons Ratio (y) = 0.20163 0.16388
# Poissons Ratio (z) = 0.34674 0.20428
#
# Static dielectric constant tensor:
#      x y z
#    x 3.281840 0.000000 0.000000 
#    y 0.000000 3.552670 0.000000 
#    z 0.000000 0.000000 3.253590 
# 
# 
# High freq. dielectric constant tensor:
#      x y z
#    x 1.674550 0.000000 0.000000 
#    y 0.000000 1.706850 0.000000 
#    z 0.000000 0.000000 1.682470 
# 
# From -- ./inp_files/47061.got.cif
#   From: 2010.03.12/outbox.cif.g09.slc.cpg/sg68_24_cif.got.tgz:47061.got - 2010.04.10 23:14:56.
