data_PCOD8281764
_publ_section_title
;
Structure prediction by ZEFSAII (Michael W. Deem and Ramdas Pophale) SiO2 
 PCOD8281764
Probable space group: C C C A
;
_chemical_formula_sum "Si O2"
_cell_formula_units_Z 128
_cell_length_a 18.347153
_cell_length_b 17.858547
_cell_length_c 22.031338
_cell_angle_alpha 90.000000
_cell_angle_beta 90.000000
_cell_angle_gamma 90.000000
_cell_volume 7218.644877
_symmetry_space_group_name_H-M "C C C A"
_symmetry_group_IT_number 68
_space_group.IT_coordinate_system_code '2'
_symmetry_cell_setting 'orthorhombic'
loop_
_space_group_symop_operation_xyz
x,y,z
-x,1/2-y,z
x,1/2-y,1/2-z
-x,y,1/2-z
-x,-y,-z
x,1/2+y,-z
-x,1/2+y,1/2+z
x,-y,1/2+z
1/2+x,1/2+y,z
1/2-x,-y,z
1/2+x,-y,1/2-z
1/2-x,1/2+y,1/2-z
1/2-x,1/2-y,-z
1/2+x,y,-z
1/2-x,y,1/2+z
1/2+x,1/2-y,1/2+z
loop_
_atom_site_type_symbol
_atom_site_label
_atom_site_fract_x
_atom_site_fract_y
_atom_site_fract_z
Si Si1 0.375448 0.605529 0.165451
Si Si2 0.012909 0.665300 0.898893
Si Si3 0.326127 0.964851 0.903288
Si Si4 0.332550 0.477256 0.378377
Si Si5 0.280021 0.830979 0.825803
Si Si6 0.783973 0.336965 0.687625
Si Si7 0.073713 0.961155 0.518147
Si Si8 0.121605 0.113501 0.196258
O O1 0.434270 0.631283 0.116232
O O2 0.356384 0.520541 0.148036
O O3 0.306083 0.659967 0.162661
O O4 0.404247 0.608001 0.234250
O O5 0.055226 0.618490 0.950726
O O6 0.060981 0.662432 0.837976
O O7 0.000000 0.750000 0.921309
O O8 0.321172 0.883944 0.872499
O O9 0.250000 0.000000 0.927115
O O10 0.378803 0.948653 0.958829
O O11 0.250000 0.500000 0.393486
O O12 0.331090 0.392652 0.353836
O O13 0.381355 0.482913 0.438394
O O14 0.370332 0.528882 0.327673
O O15 0.303921 0.852408 0.757593
O O16 0.303368 0.745365 0.836775
O O17 0.697295 0.345380 0.683431
O O18 0.000000 0.000000 0.500000
#
# Coordination Sequence:
#
# PCOD8281764 Si02
#       8
#    16  16  16  16  16  16  16  16
#     4  10  18  32  52  79 109 141 171 208 266 326
#     4  11  22  35  52  76 109 139 174 219 266 319
#     4  10  20  36  56  77 103 141 187 222 261 310
#     4   9  18  33  56  77 102 137 179 217 260 311
#     4   9  18  30  54  82 111 135 166 221 267 316
#     4   9  16  32  52  84 112 131 168 217 271 317
#     4  11  22  40  55  71 101 144 186 225 258 302
#     4   9  18  30  53  81 110 139 168 208 266 331
#
# _framework density 17.731860000000001
#
# number of rings (size 3 to 8) (size 9 to 14) (size 15 to 20)
#    0.000    2.250    1.250    2.250    0.000    5.000 
#    2.250    0.000    0.000    5.250    0.000    1.750 
#    0.000    0.000    0.000    0.000    0.000    0.000 
#
# Total GULP energy -793469.908586 kJ/mol
# GULP energy per Si atom -12397.967322 kJ/mol
# Density = 1.769150 g / cm^3
# Si number density = 17.731860 Si / 1000 Ang^3
#
#
#
# Elastic Constant Matrix: (Units=GPa)
#
#
# Indices 1 2 3 4 5 6 
#
# 1 71.5324 47.1162 47.7157 0.0000 0.0000 0.0000
# 2 47.1162 125.4413 60.9828 0.0000 0.0000 0.0000
# 3 47.7157 60.9828 106.9731 0.0000 0.0000 0.0000
# 4 0.0000 0.0000 0.0000 22.0083 0.0000 0.0000
# 5 0.0000 0.0000 0.0000 0.0000 22.2433 0.0000
# 6 0.0000 0.0000 0.0000 0.0000 0.0000 23.0154
#
#
#
# Elastic Compliance Matrix: (Units=1/GPa)
#
#
# Indices 1 2 3 4 5 6 
#
# 1 0.021798 -0.004787 -0.006994 0.000000 0.000000 0.000000
# 2 -0.004787 0.012080 -0.004751 0.000000 0.000000 0.000000
# 3 -0.006994 -0.004751 0.015176 0.000000 0.000000 0.000000
# 4 0.000000 0.000000 0.000000 0.045437 0.000000 0.000000
# 5 0.000000 0.000000 0.000000 0.000000 0.044957 0.000000
# 6 0.000000 0.000000 0.000000 0.000000 0.000000 0.043449
#
#
# Mechanical properties :
#
#
# Convention : Reuss Voigt Hill
#
# Bulk Modulus (GPa) = 62.54076 68.39735 65.46905
# Shear Modulus (GPa) = 22.59450 23.32887 22.96169
#
# Velocity S-wave (km/s) = 3.57351 3.63112 3.60243
# Velocity P-wave (km/s) = 7.23695 7.49913 7.36921
#
# Compressibility (1/GPa) = 0.01598957
#
# Stress axis : x y z
#
# Youngs Moduli (GPa) = 45.87493 82.78394 65.89250
#
# Poissons Ratio (x) = 0.39632 0.46086
# Poissons Ratio (y) = 0.21962 0.31305
# Poissons Ratio (z) = 0.32085 0.39330
#
# Static dielectric constant tensor:
#      x y z
#    x 3.215900 0.000000 0.000000 
#    y 0.000000 3.270170 0.000000 
#    z 0.000000 0.000000 3.298110 
# 
# 
# High freq. dielectric constant tensor:
#      x y z
#    x 1.677480 0.000000 0.000000 
#    y 0.000000 1.685080 0.000000 
#    z 0.000000 0.000000 1.681770 
# 
# From -- ./inp_files/46189.got.cif
#   From: 2010.03.12/outbox.cif.g09.slc.cpg/sg68_24_cif.got.tgz:46189.got - 2010.04.10 23:14:56.
