data_PCOD8281251
_publ_section_title
;
Structure prediction by ZEFSAII (Michael W. Deem and Ramdas Pophale) SiO2 
 PCOD8281251
Probable space group: C M M A
;
_chemical_formula_sum "Si O2"
_cell_formula_units_Z 64
_cell_length_a 14.807223
_cell_length_b 22.924241
_cell_length_c 7.911223
_cell_angle_alpha 90.000000
_cell_angle_beta 90.000000
_cell_angle_gamma 90.000000
_cell_volume 2685.419938
_symmetry_space_group_name_H-M "C M M A"
_symmetry_group_IT_number 67
_symmetry_cell_setting 'orthorhombic'
loop_
_space_group_symop_operation_xyz
x,y,z
-x,1/2-y,z
x,-y,-z
-x,1/2+y,-z
-x,-y,-z
x,1/2+y,-z
-x,y,z
x,1/2-y,z
1/2+x,1/2+y,z
1/2-x,-y,z
1/2+x,1/2-y,-z
1/2-x,y,-z
1/2-x,1/2-y,-z
1/2+x,y,-z
1/2-x,1/2+y,z
1/2+x,-y,z
loop_
_atom_site_type_symbol
_atom_site_label
_atom_site_fract_x
_atom_site_fract_y
_atom_site_fract_z
Si Si1 0.750000 0.648919 0.500000
Si Si2 0.103762 0.435914 0.567359
Si Si3 0.500000 0.645113 0.118483
Si Si4 0.657966 0.250000 0.355425
Si Si5 0.000000 0.750000 0.622175
Si Si6 0.646688 0.933501 0.962615
Si Si7 0.000000 0.750000 0.114654
O O1 0.835523 0.607952 0.544826
O O2 0.721915 0.692680 0.652112
O O3 0.128455 0.500000 0.500000
O O4 0.124223 0.424525 0.764403
O O5 0.000000 0.421129 0.526545
O O6 0.500000 0.687959 0.279972
O O7 0.411928 0.604529 0.094180
O O8 0.500000 0.688364 0.966247
O O9 0.592509 0.250000 0.518198
O O10 0.596505 0.250000 0.197029
O O11 0.750000 0.917986 0.000000
O O12 0.623418 0.000000 0.000000
#
# Coordination Sequence:
#
# PCOD8281251 Si02
#       7
#     8  16   8   8   4  16   4
#     4  11  25  42  72  98 135 177 232 290 348 403
#     4  11  26  46  72 106 140 185 232 285 346 415
#     4  11  23  46  69  95 138 183 229 277 353 413
#     4  10  24  44  67  99 131 176 237 292 346 401
#     4  10  26  40  66 100 132 176 232 290 332 418
#     4  11  26  44  68 102 139 183 224 280 348 422
#     4  10  22  48  70  94 132 182 236 292 352 402
#
# _framework density 23.832398000000001
#
# number of rings (size 3 to 8) (size 9 to 14) (size 15 to 20)
#    0.000    1.250    1.250    2.250   14.000    0.000 
#    0.000    1.250    0.000    0.000    0.000    0.000 
#    0.000    0.000    0.000    0.000    0.000    0.000 
#
# Total GULP energy -396457.703851 kJ/mol
# GULP energy per Si atom -12389.303245 kJ/mol
# Density = 2.377815 g / cm^3
# Si number density = 23.832398 Si / 1000 Ang^3
#
#
#
# Elastic Constant Matrix: (Units=GPa)
#
#
# Indices 1 2 3 4 5 6 
#
# 1 156.0039 93.4030 18.7373 0.0000 0.0000 0.0000
# 2 93.4030 176.0609 17.0416 0.0000 0.0000 0.0000
# 3 18.7373 17.0416 58.0291 0.0000 0.0000 0.0000
# 4 0.0000 0.0000 0.0000 -3.0532 0.0000 0.0000
# 5 0.0000 0.0000 0.0000 0.0000 11.0472 0.0000
# 6 0.0000 0.0000 0.0000 0.0000 0.0000 38.3569
#
#
#
# Elastic Compliance Matrix: (Units=1/GPa)
#
#
# Indices 1 2 3 4 5 6 
#
# 1 0.009543 -0.004904 -0.001641 0.000000 0.000000 0.000000
# 2 -0.004904 0.008366 -0.000873 0.000000 0.000000 0.000000
# 3 -0.001641 -0.000873 0.018019 0.000000 0.000000 0.000000
# 4 0.000000 0.000000 0.000000 -0.327524 0.000000 0.000000
# 5 0.000000 0.000000 0.000000 0.000000 0.090521 0.000000
# 6 0.000000 0.000000 0.000000 0.000000 0.000000 0.026071
#
#
# Mechanical properties :
#
#
# Convention : Reuss Voigt Hill
#
# Bulk Modulus (GPa) = 47.41332 72.05084 59.73208
# Shear Modulus (GPa) = -32.65088 26.66432 -2.99328
#
# Velocity S-wave (km/s) = -3.70539 3.34852 -1.12192
# Velocity P-wave (km/s) = 1.27713 6.72666 4.84144
#
# Compressibility (1/GPa) = 0.02109112
#
# Stress axis : x y z
#
# Youngs Moduli (GPa) = 104.78462 119.53058 55.49639
#
# Poissons Ratio (x) = 0.58618 0.09109
# Poissons Ratio (y) = 0.51387 0.04847
# Poissons Ratio (z) = 0.17198 0.10440
#
# Static dielectric constant tensor:
#      x y z
#    x 4.496510 0.000000 0.000000 
#    y 0.000000 4.661030 0.000000 
#    z 0.000000 0.000000 4.105700 
# 
# 
# High freq. dielectric constant tensor:
#      x y z
#    x 1.965750 0.000000 0.000000 
#    y 0.000000 1.973810 0.000000 
#    z 0.000000 0.000000 1.920360 
# 
# From -- ./inp_files/8113.got.cif
#   From: 2010.03.12/outbox.cif.g09.slc.cpg/sg67_5_cif.got.tgz:8113.got - 2010.04.10 22:41:39.
