data_PCOD8281010
_publ_section_title
;
Structure prediction by ZEFSAII (Michael W. Deem and Ramdas Pophale) SiO2 
 PCOD8281010
Probable space group: C M M A
;
_chemical_formula_sum "Si O2"
_cell_formula_units_Z 96
_cell_length_a 14.913199
_cell_length_b 15.790848
_cell_length_c 20.566782
_cell_angle_alpha 90.000000
_cell_angle_beta 90.000000
_cell_angle_gamma 90.000000
_cell_volume 4843.313832
_symmetry_space_group_name_H-M "C M M A"
_symmetry_group_IT_number 67
_symmetry_cell_setting 'orthorhombic'
loop_
_space_group_symop_operation_xyz
x,y,z
-x,1/2-y,z
x,-y,-z
-x,1/2+y,-z
-x,-y,-z
x,1/2+y,-z
-x,y,z
x,1/2-y,z
1/2+x,1/2+y,z
1/2-x,-y,z
1/2+x,1/2-y,-z
1/2-x,y,-z
1/2-x,1/2-y,-z
1/2+x,y,-z
1/2-x,1/2+y,z
1/2+x,-y,z
loop_
_atom_site_type_symbol
_atom_site_label
_atom_site_fract_x
_atom_site_fract_y
_atom_site_fract_z
Si Si1 0.855594 0.250000 0.926234
Si Si2 0.400469 0.597016 0.500000
Si Si3 0.899243 0.904209 0.836668
Si Si4 0.399243 0.095791 0.163332
Si Si5 0.750000 0.597992 0.264644
Si Si6 0.144407 0.250000 0.073766
Si Si7 0.250000 0.345048 0.592261
O O1 0.891415 0.336386 0.894294
O O2 0.750000 0.250000 0.921632
O O3 0.890204 0.250000 0.000000
O O4 0.422547 0.500000 0.500000
O O5 0.500000 0.642718 0.500000
O O6 0.341660 0.615643 0.435788
O O7 0.341660 0.615643 0.564212
O O8 0.836912 0.876679 0.777005
O O9 0.891414 0.836386 0.894294
O O10 0.000000 0.903530 0.809876
O O11 0.873523 1.000000 0.861065
O O12 0.500000 0.096470 0.190124
O O13 0.336912 0.123321 0.222995
O O14 0.750000 0.500000 0.283741
O O15 0.750000 0.650973 0.330213
O O16 0.250000 0.250000 0.568153
#
# Coordination Sequence:
#
# PCOD8281010 Si02
#       7
#     8  16  16  16  16   8  16
#     4  11  23  39  63  90 121 159 198 246 303 363
#     4  10  21  40  63  85 116 158 201 241 284 343
#     4  10  22  40  62  87 118 158 202 250 302 356
#     4  10  22  40  62  87 118 158 202 250 302 356
#     4  10  21  39  60  85 119 155 198 243 291 353
#     4  11  23  39  63  90 121 159 198 246 303 363
#     4  11  23  36  59  90 121 155 190 241 300 346
#
# _framework density 19.82114
#
# number of rings (size 3 to 8) (size 9 to 14) (size 15 to 20)
#    0.000    1.667    1.667    3.500    2.333    4.667 
#    0.000    6.667    0.000    0.000    0.000    0.000 
#    0.000    0.000    0.000    0.000    0.000    0.000 
#
# Total GULP energy -595039.407810 kJ/mol
# GULP energy per Si atom -12396.654329 kJ/mol
# Density = 1.977603 g / cm^3
# Si number density = 19.821140 Si / 1000 Ang^3
#
#
#
# Elastic Constant Matrix: (Units=GPa)
#
#
# Indices 1 2 3 4 5 6 
#
# 1 165.4124 34.9262 63.8705 0.0000 0.0000 0.0000
# 2 34.9262 103.8499 53.4040 0.0000 0.0000 0.0000
# 3 63.8705 53.4040 146.7887 0.0000 0.0000 0.0000
# 4 0.0000 0.0000 0.0000 22.5969 0.0000 0.0000
# 5 0.0000 0.0000 0.0000 0.0000 -12.3493 0.0000
# 6 0.0000 0.0000 0.0000 0.0000 0.0000 101.8023
#
#
#
# Elastic Compliance Matrix: (Units=1/GPa)
#
#
# Indices 1 2 3 4 5 6 
#
# 1 0.007353 -0.001018 -0.002829 0.000000 0.000000 0.000000
# 2 -0.001018 0.011986 -0.003918 0.000000 0.000000 0.000000
# 3 -0.002829 -0.003918 0.009469 0.000000 0.000000 0.000000
# 4 0.000000 0.000000 0.000000 0.044254 0.000000 0.000000
# 5 0.000000 0.000000 0.000000 0.000000 -0.080976 0.000000
# 6 0.000000 0.000000 0.000000 0.000000 0.000000 0.009823
#
#
# Mechanical properties :
#
#
# Convention : Reuss Voigt Hill
#
# Bulk Modulus (GPa) = 75.31113 80.05028 77.68071
# Shear Modulus (GPa) = 228.68313 40.00001 134.34157
#
# Velocity S-wave (km/s) = 10.75285 4.49714 8.24160
# Velocity P-wave (km/s) = 13.86517 8.21217 11.39479
#
# Compressibility (1/GPa) = 0.01327825
#
# Stress axis : x y z
#
# Youngs Moduli (GPa) = 136.00266 83.42782 105.60987
#
# Poissons Ratio (x) = 0.08494 0.29876
# Poissons Ratio (y) = 0.13846 0.41376
# Poissons Ratio (z) = 0.38474 0.32686
#
# Static dielectric constant tensor:
#      x y z
#    x 4.058650 0.000000 0.000000 
#    y 0.000000 3.771680 0.000000 
#    z 0.000000 0.000000 3.419320 
# 
# 
# High freq. dielectric constant tensor:
#      x y z
#    x 1.791070 0.000000 0.000000 
#    y 0.000000 1.783440 0.000000 
#    z 0.000000 0.000000 1.755420 
# 
# From -- ./inp_files/38445.got.cif
#   From: 2010.03.12/outbox.cif.g09.slc.cpg/sg67_20_cif.got.tgz:38445.got - 2010.04.10 22:41:39.
