data_PCOD8281911
_publ_section_title
;
Structure prediction by ZEFSAII (Michael W. Deem and Ramdas Pophale) SiO2 
 PCOD8281911
Probable space group: C C C A
;
_chemical_formula_sum "Si O2"
_cell_formula_units_Z 104
_cell_length_a 20.726750
_cell_length_b 14.547616
_cell_length_c 17.396532
_cell_angle_alpha 90.000000
_cell_angle_beta 90.000000
_cell_angle_gamma 90.000000
_cell_volume 5245.485831
_symmetry_space_group_name_H-M "C C C A"
_symmetry_group_IT_number 68
_space_group.IT_coordinate_system_code '2'
_symmetry_cell_setting 'orthorhombic'
loop_
_space_group_symop_operation_xyz
x,y,z
-x,1/2-y,z
x,1/2-y,1/2-z
-x,y,1/2-z
-x,-y,-z
x,1/2+y,-z
-x,1/2+y,1/2+z
x,-y,1/2+z
1/2+x,1/2+y,z
1/2-x,-y,z
1/2+x,-y,1/2-z
1/2-x,1/2+y,1/2-z
1/2-x,1/2-y,-z
1/2+x,y,-z
1/2-x,y,1/2+z
1/2+x,1/2-y,1/2+z
loop_
_atom_site_type_symbol
_atom_site_label
_atom_site_fract_x
_atom_site_fract_y
_atom_site_fract_z
Si Si1 0.124180 0.566277 0.749961
Si Si2 0.000000 0.056738 0.750000
Si Si3 0.323855 0.629285 0.101426
Si Si4 0.000000 0.250000 0.029198
Si Si5 0.005546 0.089851 0.584823
Si Si6 0.629931 0.321717 0.597284
Si Si7 0.750000 0.000000 0.694325
Si Si8 0.890476 0.488554 0.003176
O O1 0.060360 0.509180 0.760916
O O2 0.121026 0.619440 0.668016
O O3 0.135079 0.641172 0.816414
O O4 0.185876 0.495361 0.747227
O O5 0.001771 0.120522 0.826077
O O6 0.319766 0.737720 0.082294
O O7 0.256680 0.589996 0.137806
O O8 0.343046 0.568180 0.027029
O O9 0.942446 0.285153 0.082461
O O10 0.975162 0.170859 0.972557
O O11 0.064989 0.019156 0.575372
O O12 0.937372 0.042422 0.565777
O O13 0.649271 0.401154 0.535948
#
# Coordination Sequence:
#
# PCOD8281911 Si02
#       8
#    16   8  16   8  16  16   8  16
#     4  10  22  37  60  93 126 163 215 265 330 395
#     4  12  20  35  65  94 126 176 218 258 330 396
#     4  10  20  41  59  84 127 170 208 263 331 387
#     4  10  22  33  57  94 140 168 204 274 330 382
#     4  10  19  34  51  85 135 173 205 254 323 380
#     4  11  21  34  63  97 124 163 219 266 325 404
#     4   8  22  40  60  76 134 170 196 272 344 390
#     4  10  19  34  55  87 131 168 202 267 320 378
#
# _framework density 19.826571999999999
#
# number of rings (size 3 to 8) (size 9 to 14) (size 15 to 20)
#    0.923    0.923    4.615    0.462    2.154    0.308 
#    0.000    1.538    0.000   12.923    0.000    0.000 
#    0.000    0.000    0.000    0.000    0.000    0.000 
#
# Total GULP energy -644235.748241 kJ/mol
# GULP energy per Si atom -12389.149005 kJ/mol
# Density = 1.978145 g / cm^3
# Si number density = 19.826572 Si / 1000 Ang^3
#
#
#
# Elastic Constant Matrix: (Units=GPa)
#
#
# Indices 1 2 3 4 5 6 
#
# 1 71.0726 39.1554 20.2043 0.0000 0.0000 0.0000
# 2 39.1554 119.9925 40.8063 0.0000 0.0000 0.0000
# 3 20.2043 40.8063 115.8776 0.0000 0.0000 0.0000
# 4 0.0000 0.0000 0.0000 39.8569 0.0000 0.0000
# 5 0.0000 0.0000 0.0000 0.0000 18.1407 0.0000
# 6 0.0000 0.0000 0.0000 0.0000 0.0000 31.3346
#
#
#
# Elastic Compliance Matrix: (Units=1/GPa)
#
#
# Indices 1 2 3 4 5 6 
#
# 1 0.017292 -0.005245 -0.001168 0.000000 0.000000 0.000000
# 2 -0.005245 0.011059 -0.002980 0.000000 0.000000 0.000000
# 3 -0.001168 -0.002980 0.009883 0.000000 0.000000 0.000000
# 4 0.000000 0.000000 0.000000 0.025090 0.000000 0.000000
# 5 0.000000 0.000000 0.000000 0.000000 0.055125 0.000000
# 6 0.000000 0.000000 0.000000 0.000000 0.000000 0.031914
#
#
# Mechanical properties :
#
#
# Convention : Reuss Voigt Hill
#
# Bulk Modulus (GPa) = 51.42072 56.36385 53.89229
# Shear Modulus (GPa) = 28.46889 31.65156 30.06023
#
# Velocity S-wave (km/s) = 3.79343 3.99986 3.89801
# Velocity P-wave (km/s) = 6.72149 7.05847 6.89204
#
# Compressibility (1/GPa) = 0.01944741
#
# Stress axis : x y z
#
# Youngs Moduli (GPa) = 57.83037 90.42505 101.18650
#
# Poissons Ratio (x) = 0.47432 0.11817
# Poissons Ratio (y) = 0.30335 0.30151
# Poissons Ratio (z) = 0.06753 0.26945
#
# Static dielectric constant tensor:
#      x y z
#    x 3.167690 0.000000 0.000000 
#    y 0.000000 3.623580 0.000000 
#    z 0.000000 0.000000 3.629390 
# 
# 
# High freq. dielectric constant tensor:
#      x y z
#    x 1.738010 0.000000 0.000000 
#    y 0.000000 1.762900 0.000000 
#    z 0.000000 0.000000 1.779440 
# 
# From -- ./inp_files/33689.got.cif
#   From: 2010.03.12/outbox.cif.g09.slc.cpg/sg68_17_cif.got.tgz:33689.got - 2010.04.10 23:14:56.
