data_PCOD8281184
_publ_section_title
;
Structure prediction by ZEFSAII (Michael W. Deem and Ramdas Pophale) SiO2 
 PCOD8281184
Probable space group: C M M A
;
_chemical_formula_sum "Si O2"
_cell_formula_units_Z 84
_cell_length_a 24.425187
_cell_length_b 14.527695
_cell_length_c 11.036454
_cell_angle_alpha 90.000000
_cell_angle_beta 90.000000
_cell_angle_gamma 90.000000
_cell_volume 3916.193736
_symmetry_space_group_name_H-M "C M M A"
_symmetry_group_IT_number 67
_symmetry_cell_setting 'orthorhombic'
loop_
_space_group_symop_operation_xyz
x,y,z
-x,1/2-y,z
x,-y,-z
-x,1/2+y,-z
-x,-y,-z
x,1/2+y,-z
-x,y,z
x,1/2-y,z
1/2+x,1/2+y,z
1/2-x,-y,z
1/2+x,1/2-y,-z
1/2-x,y,-z
1/2-x,1/2-y,-z
1/2+x,y,-z
1/2-x,1/2+y,z
1/2+x,-y,z
loop_
_atom_site_type_symbol
_atom_site_label
_atom_site_fract_x
_atom_site_fract_y
_atom_site_fract_z
Si Si1 0.500000 0.896454 0.464875
Si Si2 0.896907 0.098166 0.299455
Si Si3 0.633055 0.453820 0.119505
Si Si4 0.750000 0.500000 0.811912
Si Si5 0.000000 0.750000 0.327506
Si Si6 0.220555 0.642995 0.621994
Si Si7 0.561989 0.750000 0.137779
Si Si8 0.092705 0.750000 0.128413
O O1 0.553372 0.877430 0.386436
O O2 0.500000 0.838750 0.587484
O O3 0.500000 0.000000 0.500000
O O4 0.843739 0.119063 0.380607
O O5 0.902776 0.163045 0.182296
O O6 0.894682 0.995087 0.242892
O O7 0.695729 0.488355 0.108831
O O8 0.629147 0.343088 0.127411
O O9 0.604555 0.500000 0.000000
O O10 0.750952 0.591947 0.732300
O O11 0.946240 0.750000 0.244692
O O12 0.230711 0.750000 0.642028
O O13 0.250000 0.608600 0.500000
O O14 0.500000 0.750000 0.189859
O O15 0.557043 0.750000 0.993162
#
# Coordination Sequence:
#
# PCOD8281184 Si02
#       8
#     8  16  16   8   4  16   8   8
#     4  12  26  45  68  98 139 184 226 284 347 416
#     4  11  23  43  69 101 137 184 231 284 345 415
#     4  11  24  44  68 102 139 178 232 290 353 421
#     4  10  24  42  62  94 140 176 232 280 352 414
#     4  12  28  46  64 108 148 176 238 284 344 424
#     4  10  22  39  65  97 132 179 235 281 337 405
#     4  12  21  42  72 100 138 177 238 284 349 415
#     4  12  26  45  70 103 141 184 226 298 353 418
#
# _framework density 21.449400000000001
#
# number of rings (size 3 to 8) (size 9 to 14) (size 15 to 20)
#    0.000    0.952    4.286    2.286    1.333    4.571 
#    0.000    2.857    0.000    0.000    0.000    0.000 
#    0.000    0.000    0.000    0.000    0.000    0.000 
#
# Total GULP energy -520702.296099 kJ/mol
# GULP energy per Si atom -12397.673717 kJ/mol
# Density = 2.140058 g / cm^3
# Si number density = 21.449400 Si / 1000 Ang^3
#
#
#
# Elastic Constant Matrix: (Units=GPa)
#
#
# Indices 1 2 3 4 5 6 
#
# 1 100.5284 25.8072 57.8269 0.0000 0.0000 0.0000
# 2 25.8072 153.0348 55.8329 0.0000 0.0000 0.0000
# 3 57.8269 55.8329 133.8472 0.0000 0.0000 0.0000
# 4 0.0000 0.0000 0.0000 40.7465 0.0000 0.0000
# 5 0.0000 0.0000 0.0000 0.0000 31.6600 0.0000
# 6 0.0000 0.0000 0.0000 0.0000 0.0000 25.9724
#
#
#
# Elastic Compliance Matrix: (Units=1/GPa)
#
#
# Indices 1 2 3 4 5 6 
#
# 1 0.013241 -0.000172 -0.005649 0.000000 0.000000 0.000000
# 2 -0.000172 0.007710 -0.003142 0.000000 0.000000 0.000000
# 3 -0.005649 -0.003142 0.011222 0.000000 0.000000 0.000000
# 4 0.000000 0.000000 0.000000 0.024542 0.000000 0.000000
# 5 0.000000 0.000000 0.000000 0.000000 0.031586 0.000000
# 6 0.000000 0.000000 0.000000 0.000000 0.000000 0.038502
#
#
# Mechanical properties :
#
#
# Convention : Reuss Voigt Hill
#
# Bulk Modulus (GPa) = 70.18619 74.03826 72.11222
# Shear Modulus (GPa) = 33.44992 36.20535 34.82763
#
# Velocity S-wave (km/s) = 3.95331 4.11291 4.03390
# Velocity P-wave (km/s) = 7.32332 7.55958 7.44239
#
# Compressibility (1/GPa) = 0.01424782
#
# Stress axis : x y z
#
# Youngs Moduli (GPa) = 75.52318 129.70720 89.10885
#
# Poissons Ratio (x) = 0.02231 0.50336
# Poissons Ratio (y) = 0.01299 0.27995
# Poissons Ratio (z) = 0.42662 0.40750
#
# Static dielectric constant tensor:
#      x y z
#    x 3.822470 0.000000 0.000000 
#    y 0.000000 3.968280 0.000000 
#    z 0.000000 0.000000 4.047150 
# 
# 
# High freq. dielectric constant tensor:
#      x y z
#    x 1.836170 0.000000 0.000000 
#    y 0.000000 1.853470 0.000000 
#    z 0.000000 0.000000 1.851120 
# 
# From -- ./inp_files/21833.got.cif
#   From: 2010.03.12/outbox.cif.g09.slc.cpg/sg67_11_cif.got.tgz:21833.got - 2010.04.10 22:41:39.
