data_PCOD8281338
_publ_section_title
;
Structure prediction by ZEFSAII (Michael W. Deem and Ramdas Pophale) SiO2 
 PCOD8281338
Probable space group: C M M A
;
_chemical_formula_sum "Si O2"
_cell_formula_units_Z 96
_cell_length_a 19.534697
_cell_length_b 21.319361
_cell_length_c 11.792304
_cell_angle_alpha 90.000000
_cell_angle_beta 90.000000
_cell_angle_gamma 90.000000
_cell_volume 4911.108505
_symmetry_space_group_name_H-M "C M M A"
_symmetry_group_IT_number 67
_symmetry_cell_setting 'orthorhombic'
loop_
_space_group_symop_operation_xyz
x,y,z
-x,1/2-y,z
x,-y,-z
-x,1/2+y,-z
-x,-y,-z
x,1/2+y,-z
-x,y,z
x,1/2-y,z
1/2+x,1/2+y,z
1/2-x,-y,z
1/2+x,1/2-y,-z
1/2-x,y,-z
1/2-x,1/2-y,-z
1/2+x,y,-z
1/2-x,1/2+y,z
1/2+x,-y,z
loop_
_atom_site_type_symbol
_atom_site_label
_atom_site_fract_x
_atom_site_fract_y
_atom_site_fract_z
Si Si1 0.373132 0.393851 0.191328
Si Si2 0.000000 0.679015 0.551579
Si Si3 0.351279 0.370419 0.571138
Si Si4 0.000000 0.678865 0.284084
Si Si5 0.677460 0.927952 0.032010
Si Si6 0.213962 0.677306 0.347334
Si Si7 0.327485 0.023646 0.734327
O O1 0.435312 0.354639 0.234620
O O2 0.304575 0.355879 0.228959
O O3 0.375836 0.463405 0.247135
O O4 0.377213 0.396220 0.053740
O O5 0.929872 0.647901 0.597749
O O6 0.000000 0.750000 0.594270
O O7 0.000000 0.673846 0.417808
O O8 0.295743 0.326890 0.636425
O O9 0.330702 0.362653 0.439411
O O10 0.342597 0.442345 0.614429
O O11 0.000000 0.750000 0.242529
O O12 0.658797 0.924501 0.165467
O O13 0.750000 0.896308 0.000000
O O14 0.682163 0.000000 0.000000
O O15 0.191110 0.750000 0.352835
O O16 0.250000 0.000000 0.740844
#
# Coordination Sequence:
#
# PCOD8281338 Si02
#       7
#    16   8  16   8  16  16  16
#     4  11  21  37  64  94 117 163 212 261 310 371
#     4  11  22  41  60  81 122 179 216 247 309 376
#     4  11  22  36  59  90 122 167 206 256 313 378
#     4  11  24  43  61  85 125 173 217 256 312 373
#     4   9  15  33  62  88 116 151 191 243 307 372
#     4  11  21  37  59  87 120 164 221 265 304 368
#     4  11  20  38  61  94 129 159 197 258 325 378
#
# _framework density 19.547521
#
# number of rings (size 3 to 8) (size 9 to 14) (size 15 to 20)
#    0.000    1.333    6.667    2.500    0.000    1.333 
#    0.000    5.417    0.000   14.000    0.000    0.000 
#    0.000    0.000    0.000    0.000    0.000    0.000 
#
# Total GULP energy -594746.867526 kJ/mol
# GULP energy per Si atom -12390.559740 kJ/mol
# Density = 1.950303 g / cm^3
# Si number density = 19.547521 Si / 1000 Ang^3
#
#
#
# Elastic Constant Matrix: (Units=GPa)
#
#
# Indices 1 2 3 4 5 6 
#
# 1 105.4713 40.1359 30.6354 0.0000 0.0000 0.0000
# 2 40.1359 111.5261 58.2046 0.0000 0.0000 0.0000
# 3 30.6354 58.2046 76.3083 0.0000 0.0000 0.0000
# 4 0.0000 0.0000 0.0000 19.3004 0.0000 0.0000
# 5 0.0000 0.0000 0.0000 0.0000 53.1121 0.0000
# 6 0.0000 0.0000 0.0000 0.0000 0.0000 25.8882
#
#
#
# Elastic Compliance Matrix: (Units=1/GPa)
#
#
# Indices 1 2 3 4 5 6 
#
# 1 0.011238 -0.002807 -0.002371 0.000000 0.000000 0.000000
# 2 -0.002807 0.015598 -0.010770 0.000000 0.000000 0.000000
# 3 -0.002371 -0.010770 0.022271 0.000000 0.000000 0.000000
# 4 0.000000 0.000000 0.000000 0.051813 0.000000 0.000000
# 5 0.000000 0.000000 0.000000 0.000000 0.018828 0.000000
# 6 0.000000 0.000000 0.000000 0.000000 0.000000 0.038628
#
#
# Mechanical properties :
#
#
# Convention : Reuss Voigt Hill
#
# Bulk Modulus (GPa) = 58.10125 61.25083 59.67604
# Shear Modulus (GPa) = 25.50911 30.61545 28.06228
#
# Velocity S-wave (km/s) = 3.61637 3.96183 3.79303
# Velocity P-wave (km/s) = 6.87205 7.23398 7.05534
#
# Compressibility (1/GPa) = 0.01721133
#
# Stress axis : x y z
#
# Youngs Moduli (GPa) = 88.98355 64.11222 44.90045
#
# Poissons Ratio (x) = 0.17997 0.10644
# Poissons Ratio (y) = 0.24979 0.48359
# Poissons Ratio (z) = 0.21094 0.69050
#
# Static dielectric constant tensor:
#      x y z
#    x 3.398730 0.000000 0.000000 
#    y 0.000000 3.549170 0.000000 
#    z 0.000000 0.000000 4.006940 
# 
# 
# High freq. dielectric constant tensor:
#      x y z
#    x 1.746630 0.000000 0.000000 
#    y 0.000000 1.748530 0.000000 
#    z 0.000000 0.000000 1.753370 
# 
# From -- ./inp_files/20907.got.cif
#   From: 2010.03.12/outbox.cif.g09.slc.cpg/sg67_11_cif.got.tgz:20907.got - 2010.04.10 22:41:39.
