data_PCOD8281470
_publ_section_title
;
Structure prediction by ZEFSAII (Michael W. Deem and Ramdas Pophale) SiO2 
 PCOD8281470
Probable space group: C M M A
;
_chemical_formula_sum "Si O2"
_cell_formula_units_Z 84
_cell_length_a 14.581757
_cell_length_b 12.071501
_cell_length_c 24.079569
_cell_angle_alpha 90.000000
_cell_angle_beta 90.000000
_cell_angle_gamma 90.000000
_cell_volume 4238.574690
_symmetry_space_group_name_H-M "C M M A"
_symmetry_group_IT_number 67
_symmetry_cell_setting 'orthorhombic'
loop_
_space_group_symop_operation_xyz
x,y,z
-x,1/2-y,z
x,-y,-z
-x,1/2+y,-z
-x,-y,-z
x,1/2+y,-z
-x,y,z
x,1/2-y,z
1/2+x,1/2+y,z
1/2-x,-y,z
1/2+x,1/2-y,-z
1/2-x,y,-z
1/2-x,1/2-y,-z
1/2+x,y,-z
1/2-x,1/2+y,z
1/2+x,-y,z
loop_
_atom_site_type_symbol
_atom_site_label
_atom_site_fract_x
_atom_site_fract_y
_atom_site_fract_z
Si Si1 0.897534 0.878533 0.074762
Si Si2 0.390705 0.250000 0.261903
Si Si3 0.353111 0.035590 0.192758
Si Si4 0.250000 0.500000 0.000000
Si Si5 0.000000 0.621973 0.757038
Si Si6 0.644032 0.019314 0.437235
Si Si7 0.895287 0.250000 0.615018
Si Si8 0.000000 0.377630 0.374205
O O1 0.877115 0.750000 0.084204
O O2 0.898290 0.937977 0.133925
O O3 0.000000 0.896033 0.048667
O O4 0.816769 0.923952 0.036255
O O5 0.500000 0.250000 0.258832
O O6 0.353090 0.140979 0.232665
O O7 0.347690 0.250000 0.324302
O O8 0.250000 0.000000 0.182608
O O9 0.408741 0.934843 0.219729
O O10 0.000000 0.608734 0.691254
O O11 0.000000 0.750000 0.775324
O O12 0.627479 0.145621 0.422293
O O13 0.610734 0.000000 0.500000
O O14 0.750000 0.000000 0.429194
O O15 0.590605 0.936203 0.397266
O O16 0.000000 0.250000 0.631260
O O17 0.000000 0.250000 0.392853
#
# Coordination Sequence:
#
# PCOD8281470 Si02
#       8
#    16   8  16   4   8  16   8   8
#     4  11  23  43  69  99 132 176 223 273 326 381
#     4  11  22  42  69  95 127 173 222 281 323 381
#     4  12  24  42  69  98 134 173 227 268 326 397
#     4  12  24  44  68 100 140 172 220 280 322 392
#     4  11  26  44  62  97 139 173 208 273 335 395
#     4  11  26  43  66  94 127 170 217 272 330 395
#     4  11  24  41  67  98 127 166 226 274 323 393
#     4  11  25  44  66  94 133 170 212 264 338 399
#
# _framework density 19.817982000000001
#
# number of rings (size 3 to 8) (size 9 to 14) (size 15 to 20)
#    0.000    0.762    4.762    2.000    4.000    3.810 
#    0.000    0.000    0.000    0.000    0.000    0.000 
#    0.000    0.000    0.000    0.000    0.000    0.000 
#
# Total GULP energy -520916.354308 kJ/mol
# GULP energy per Si atom -12402.770341 kJ/mol
# Density = 1.977288 g / cm^3
# Si number density = 19.817982 Si / 1000 Ang^3
#
#
#
# Elastic Constant Matrix: (Units=GPa)
#
#
# Indices 1 2 3 4 5 6 
#
# 1 118.1151 54.3645 37.3242 0.0000 0.0000 0.0000
# 2 54.3645 169.0671 67.8075 0.0000 0.0000 0.0000
# 3 37.3242 67.8075 119.3781 0.0000 0.0000 0.0000
# 4 0.0000 0.0000 0.0000 38.4331 0.0000 0.0000
# 5 0.0000 0.0000 0.0000 0.0000 36.8196 0.0000
# 6 0.0000 0.0000 0.0000 0.0000 0.0000 16.8679
#
#
#
# Elastic Compliance Matrix: (Units=1/GPa)
#
#
# Indices 1 2 3 4 5 6 
#
# 1 0.010202 -0.002592 -0.001718 0.000000 0.000000 0.000000
# 2 -0.002592 0.008318 -0.003914 0.000000 0.000000 0.000000
# 3 -0.001718 -0.003914 0.011137 0.000000 0.000000 0.000000
# 4 0.000000 0.000000 0.000000 0.026019 0.000000 0.000000
# 5 0.000000 0.000000 0.000000 0.000000 0.027159 0.000000
# 6 0.000000 0.000000 0.000000 0.000000 0.000000 0.059284
#
#
# Mechanical properties :
#
#
# Convention : Reuss Voigt Hill
#
# Bulk Modulus (GPa) = 75.70109 80.61696 78.15903
# Shear Modulus (GPa) = 30.68036 34.89507 32.78771
#
# Velocity S-wave (km/s) = 3.93887 4.20071 4.07190
# Velocity P-wave (km/s) = 7.67902 8.01842 7.85055
#
# Compressibility (1/GPa) = 0.01320985
#
# Stress axis : x y z
#
# Youngs Moduli (GPa) = 98.02080 120.21946 89.78907
#
# Poissons Ratio (x) = 0.31156 0.15423
# Poissons Ratio (y) = 0.25403 0.35148
# Poissons Ratio (z) = 0.16836 0.47060
#
# Static dielectric constant tensor:
#      x y z
#    x 3.653750 0.000000 0.000000 
#    y 0.000000 3.720740 0.000000 
#    z 0.000000 0.000000 3.759470 
# 
# 
# High freq. dielectric constant tensor:
#      x y z
#    x 1.784060 0.000000 0.000000 
#    y 0.000000 1.785950 0.000000 
#    z 0.000000 0.000000 1.783170 
# 
# From -- ./inp_files/41883.got.cif
#   From: 2010.03.12/outbox.cif.g09.slc.cpg/sg67_21_cif.got.tgz:41883.got - 2010.04.10 22:41:39.
