data_PCOD8281257
_publ_section_title
;
Structure prediction by ZEFSAII (Michael W. Deem and Ramdas Pophale) SiO2 
 PCOD8281257
Probable space group: C M M A
;
_chemical_formula_sum "Si O2"
_cell_formula_units_Z 64
_cell_length_a 15.618958
_cell_length_b 16.738560
_cell_length_c 11.033811
_cell_angle_alpha 90.000000
_cell_angle_beta 90.000000
_cell_angle_gamma 90.000000
_cell_volume 2884.667031
_symmetry_space_group_name_H-M "C M M A"
_symmetry_group_IT_number 67
_symmetry_cell_setting 'orthorhombic'
loop_
_space_group_symop_operation_xyz
x,y,z
-x,1/2-y,z
x,-y,-z
-x,1/2+y,-z
-x,-y,-z
x,1/2+y,-z
-x,y,z
x,1/2-y,z
1/2+x,1/2+y,z
1/2-x,-y,z
1/2+x,1/2-y,-z
1/2-x,y,-z
1/2-x,1/2-y,-z
1/2+x,y,-z
1/2-x,1/2+y,z
1/2+x,-y,z
loop_
_atom_site_type_symbol
_atom_site_label
_atom_site_fract_x
_atom_site_fract_y
_atom_site_fract_z
Si Si1 0.654514 0.891493 0.042269
Si Si2 0.097663 0.458774 0.813220
Si Si3 0.403589 0.250000 0.795868
Si Si4 0.654176 0.918603 0.552787
Si Si5 0.152482 0.250000 0.465417
O O1 0.614369 0.825484 0.124596
O O2 0.651606 0.969650 0.126974
O O3 0.750000 0.872204 0.000000
O O4 0.596034 0.893842 0.921141
O O5 0.149571 0.425090 0.698063
O O6 0.000000 0.481810 0.777664
O O7 0.500000 0.250000 0.747683
O O8 0.344712 0.250000 0.678596
O O9 0.750000 0.917010 0.500000
O O10 0.609341 0.833574 0.514649
O O11 0.609058 0.000000 0.500000
O O12 0.250000 0.250000 0.500000
#
# Coordination Sequence:
#
# PCOD8281257 Si02
#       5
#    16  16   8  16   8
#     4  11  25  41  70  99 131 177 228 277 353 427
#     4  11  23  42  67  98 134 171 225 293 348 410
#     4  12  25  44  68  99 140 179 224 292 357 408
#     4  10  23  39  67  92 135 183 231 283 351 415
#     4  10  24  42  66  96 142 178 240 287 343 421
#
# _framework density 22.18627
#
# number of rings (size 3 to 8) (size 9 to 14) (size 15 to 20)
#    0.000    1.250    0.000    6.375   14.000    2.500 
#    0.000    1.250    0.000    0.000    0.000    0.000 
#    0.000    0.000    0.000    0.000    0.000    0.000 
#
# Total GULP energy -396515.512554 kJ/mol
# GULP energy per Si atom -12391.109767 kJ/mol
# Density = 2.213577 g / cm^3
# Si number density = 22.186270 Si / 1000 Ang^3
#
#
#
# Elastic Constant Matrix: (Units=GPa)
#
#
# Indices 1 2 3 4 5 6 
#
# 1 83.4060 3.0262 19.6281 0.0000 0.0000 0.0000
# 2 3.0262 153.2568 85.4391 0.0000 0.0000 0.0000
# 3 19.6281 85.4391 204.0193 0.0000 0.0000 0.0000
# 4 0.0000 0.0000 0.0000 -80.5408 0.0000 0.0000
# 5 0.0000 0.0000 0.0000 0.0000 21.5548 0.0000
# 6 0.0000 0.0000 0.0000 0.0000 0.0000 8.8449
#
#
#
# Elastic Compliance Matrix: (Units=1/GPa)
#
#
# Indices 1 2 3 4 5 6 
#
# 1 0.012302 0.000544 -0.001411 0.000000 0.000000 0.000000
# 2 0.000544 0.008536 -0.003627 0.000000 0.000000 0.000000
# 3 -0.001411 -0.003627 0.006556 0.000000 0.000000 0.000000
# 4 0.000000 0.000000 0.000000 -0.012416 0.000000 0.000000
# 5 0.000000 0.000000 0.000000 0.000000 0.046393 0.000000
# 6 0.000000 0.000000 0.000000 0.000000 0.000000 0.113059
#
#
# Mechanical properties :
#
#
# Convention : Reuss Voigt Hill
#
# Bulk Modulus (GPa) = 54.33201 72.98543 63.65872
# Shear Modulus (GPa) = 26.37750 12.14437 19.26093
#
# Velocity S-wave (km/s) = 3.45180 2.34216 2.94963
# Velocity P-wave (km/s) = 6.35836 6.34684 6.35260
#
# Compressibility (1/GPa) = 0.01840536
#
# Stress axis : x y z
#
# Youngs Moduli (GPa) = 81.28804 117.14580 152.52594
#
# Poissons Ratio (x) = -0.06371 0.21526
# Poissons Ratio (y) = -0.04421 0.55324
# Poissons Ratio (z) = 0.11472 0.42491
#
# Static dielectric constant tensor:
#      x y z
#    x 3.769720 0.000000 0.000000 
#    y 0.000000 4.567670 0.000000 
#    z 0.000000 0.000000 4.189680 
# 
# 
# High freq. dielectric constant tensor:
#      x y z
#    x 1.852500 0.000000 0.000000 
#    y 0.000000 1.880550 0.000000 
#    z 0.000000 0.000000 1.891570 
# 
# From -- ./inp_files/17557.got.cif
#   From: 2010.03.12/outbox.cif.g09.slc.cpg/sg67_9_cif.got.tgz:17557.got - 2010.04.10 22:41:39.
