data_PCOD8281246
_publ_section_title
;
Structure prediction by ZEFSAII (Michael W. Deem and Ramdas Pophale) SiO2 
 PCOD8281246
Probable space group: C M M A
;
_chemical_formula_sum "Si O2"
_cell_formula_units_Z 68
_cell_length_a 15.406801
_cell_length_b 10.159500
_cell_length_c 19.747070
_cell_angle_alpha 90.000000
_cell_angle_beta 90.000000
_cell_angle_gamma 90.000000
_cell_volume 3090.917927
_symmetry_space_group_name_H-M "C M M A"
_symmetry_group_IT_number 67
_symmetry_cell_setting 'orthorhombic'
loop_
_space_group_symop_operation_xyz
x,y,z
-x,1/2-y,z
x,-y,-z
-x,1/2+y,-z
-x,-y,-z
x,1/2+y,-z
-x,y,z
x,1/2-y,z
1/2+x,1/2+y,z
1/2-x,-y,z
1/2+x,1/2-y,-z
1/2-x,y,-z
1/2-x,1/2-y,-z
1/2+x,y,-z
1/2-x,1/2+y,z
1/2+x,-y,z
loop_
_atom_site_type_symbol
_atom_site_label
_atom_site_fract_x
_atom_site_fract_y
_atom_site_fract_z
Si Si1 0.099688 0.101912 0.287664
Si Si2 0.600430 0.399098 0.405341
Si Si3 0.403170 0.750000 0.903600
Si Si4 0.901776 0.750000 0.950238
Si Si5 0.154367 0.019226 0.144898
Si Si6 0.750000 0.500000 0.500000
O O1 0.118841 0.250000 0.314244
O O2 0.155311 0.074455 0.221039
O O3 0.000000 0.085929 0.266249
O O4 0.124630 0.000285 0.346162
O O5 0.500000 0.427774 0.432339
O O6 0.602505 0.250000 0.377695
O O7 0.680121 0.411408 0.458500
O O8 0.500000 0.750000 0.927109
O O9 0.388875 0.623267 0.856928
O O10 0.350883 0.750000 0.976408
O O11 0.887137 0.620153 0.906832
O O12 0.000000 0.750000 0.970422
O O13 0.250000 0.000000 0.118375
#
# Coordination Sequence:
#
# PCOD8281246 Si02
#       6
#    16  16   8   8  16   4
#     4  10  22  43  69  94 130 180 226 268 323 394
#     4  10  24  45  71 103 139 180 226 276 326 386
#     4  11  25  41  65  95 125 169 222 275 330 395
#     4  11  23  45  67  87 125 177 224 263 326 411
#     4  12  25  40  63  96 131 169 215 277 338 388
#     4  12  24  44  72 108 142 180 212 270 330 410
#
# _framework density 21.999938
#
# number of rings (size 3 to 8) (size 9 to 14) (size 15 to 20)
#    0.000    1.176    1.176    4.235    3.294    6.588 
#    0.000    2.353    0.000    0.000    0.000    0.000 
#    0.000    0.000    0.000    0.000    0.000    0.000 
#
# Total GULP energy -421249.463313 kJ/mol
# GULP energy per Si atom -12389.690097 kJ/mol
# Density = 2.194987 g / cm^3
# Si number density = 21.999938 Si / 1000 Ang^3
#
#
#
# Elastic Constant Matrix: (Units=GPa)
#
#
# Indices 1 2 3 4 5 6 
#
# 1 97.4101 25.3520 26.6613 0.0000 0.0000 0.0000
# 2 25.3520 174.8711 51.6879 0.0000 0.0000 0.0000
# 3 26.6613 51.6879 98.1723 0.0000 0.0000 0.0000
# 4 0.0000 0.0000 0.0000 36.9923 0.0000 0.0000
# 5 0.0000 0.0000 0.0000 0.0000 79.9127 0.0000
# 6 0.0000 0.0000 0.0000 0.0000 0.0000 31.3014
#
#
#
# Elastic Compliance Matrix: (Units=1/GPa)
#
#
# Indices 1 2 3 4 5 6 
#
# 1 0.011198 -0.000858 -0.002589 0.000000 0.000000 0.000000
# 2 -0.000858 0.006838 -0.003367 0.000000 0.000000 0.000000
# 3 -0.002589 -0.003367 0.012662 0.000000 0.000000 0.000000
# 4 0.000000 0.000000 0.000000 0.027033 0.000000 0.000000
# 5 0.000000 0.000000 0.000000 0.000000 0.012514 0.000000
# 6 0.000000 0.000000 0.000000 0.000000 0.000000 0.031947
#
#
# Mechanical properties :
#
#
# Convention : Reuss Voigt Hill
#
# Bulk Modulus (GPa) = 58.58577 64.20621 61.39599
# Shear Modulus (GPa) = 41.14851 47.42477 44.28664
#
# Velocity S-wave (km/s) = 4.32949 4.64796 4.49155
# Velocity P-wave (km/s) = 7.18891 7.61924 7.40720
#
# Compressibility (1/GPa) = 0.01706899
#
# Stress axis : x y z
#
# Youngs Moduli (GPa) = 89.30250 146.23748 78.97493
#
# Poissons Ratio (x) = 0.12548 0.20449
# Poissons Ratio (y) = 0.07663 0.26593
# Poissons Ratio (z) = 0.23123 0.49242
#
# Static dielectric constant tensor:
#      x y z
#    x 4.143280 0.000000 0.000000 
#    y 0.000000 4.065640 0.000000 
#    z 0.000000 0.000000 3.746150 
# 
# 
# High freq. dielectric constant tensor:
#      x y z
#    x 1.870110 0.000000 0.000000 
#    y 0.000000 1.879400 0.000000 
#    z 0.000000 0.000000 1.858000 
# 
# From -- ./inp_files/38823.got.cif
#   From: 2010.03.12/outbox.cif.g09.slc.cpg/sg67_20_cif.got.tgz:38823.got - 2010.04.10 22:41:39.
