data_PCOD8281307
_publ_section_title
;
Structure prediction by ZEFSAII (Michael W. Deem and Ramdas Pophale) SiO2 
 PCOD8281307
Probable space group: C M M A
;
_chemical_formula_sum "Si O2"
_cell_formula_units_Z 88
_cell_length_a 23.824183
_cell_length_b 14.490561
_cell_length_c 11.796805
_cell_angle_alpha 90.000000
_cell_angle_beta 90.000000
_cell_angle_gamma 90.000000
_cell_volume 4072.561173
_symmetry_space_group_name_H-M "C M M A"
_symmetry_group_IT_number 67
_symmetry_cell_setting 'orthorhombic'
loop_
_space_group_symop_operation_xyz
x,y,z
-x,1/2-y,z
x,-y,-z
-x,1/2+y,-z
-x,-y,-z
x,1/2+y,-z
-x,y,z
x,1/2-y,z
1/2+x,1/2+y,z
1/2-x,-y,z
1/2+x,1/2-y,-z
1/2-x,y,-z
1/2-x,1/2-y,-z
1/2+x,y,-z
1/2-x,1/2+y,z
1/2+x,-y,z
loop_
_atom_site_type_symbol
_atom_site_label
_atom_site_fract_x
_atom_site_fract_y
_atom_site_fract_z
Si Si1 0.257373 0.750000 0.862128
Si Si2 0.500000 0.504195 0.867233
Si Si3 0.115617 0.948076 0.882701
Si Si4 0.931499 0.750000 0.601154
Si Si5 0.634358 0.750000 0.169662
Si Si6 0.000000 0.641541 0.305715
Si Si7 0.699284 0.068084 0.260133
Si Si8 0.891400 0.094873 0.560796
O O1 0.199124 0.750000 0.792007
O O2 0.287152 0.654589 0.822774
O O3 0.250000 0.750000 0.000000
O O4 0.555258 0.453506 0.819616
O O5 0.500000 0.611337 0.826035
O O6 0.500000 0.500000 0.000000
O O7 0.127229 0.840714 0.907462
O O8 0.161121 0.994606 0.804318
O O9 0.113413 0.000000 0.000000
O O10 0.910769 0.750000 0.729858
O O11 0.902070 0.835107 0.540479
O O12 0.000000 0.750000 0.591447
O O13 0.054997 0.596535 0.358340
O O14 0.000000 0.750000 0.321463
O O15 0.665747 0.112051 0.367000
O O16 0.750000 0.000000 0.298890
O O17 0.883684 0.000000 0.500000
#
# Coordination Sequence:
#
# PCOD8281307 Si02
#       8
#     8   8  16   8   8   8  16  16
#     4  12  27  47  76 104 139 200 247 300 369 427
#     4  10  24  44  68 105 144 183 228 299 381 435
#     4  11  24  45  70 102 145 186 239 294 364 440
#     4  12  27  45  74 111 142 182 247 295 374 447
#     4  12  26  46  71 108 143 191 241 306 354 423
#     4  12  23  45  73 104 144 182 249 303 363 450
#     4  12  26  45  70 104 143 190 246 300 354 433
#     4  12  25  45  72 103 142 189 238 298 371 429
#
# _framework density 21.608024
#
# number of rings (size 3 to 8) (size 9 to 14) (size 15 to 20)
#    0.000    0.364    5.455    3.000    1.273    0.364 
#    6.545    0.909    0.000    0.000    0.000    0.000 
#    0.000    0.000    0.000    0.000    0.000    0.000 
#
# Total GULP energy -545170.625452 kJ/mol
# GULP energy per Si atom -12390.241488 kJ/mol
# Density = 2.155884 g / cm^3
# Si number density = 21.608024 Si / 1000 Ang^3
#
#
#
# Elastic Constant Matrix: (Units=GPa)
#
#
# Indices 1 2 3 4 5 6 
#
# 1 157.2237 49.6599 38.6188 0.0000 0.0000 0.0000
# 2 49.6599 151.9530 53.4872 0.0000 0.0000 0.0000
# 3 38.6188 53.4872 99.1385 0.0000 0.0000 0.0000
# 4 0.0000 0.0000 0.0000 46.1730 0.0000 0.0000
# 5 0.0000 0.0000 0.0000 0.0000 31.6671 0.0000
# 6 0.0000 0.0000 0.0000 0.0000 0.0000 332.5648
#
#
#
# Elastic Compliance Matrix: (Units=1/GPa)
#
#
# Indices 1 2 3 4 5 6 
#
# 1 0.007384 -0.001729 -0.001944 0.000000 0.000000 0.000000
# 2 -0.001729 0.008529 -0.003928 0.000000 0.000000 0.000000
# 3 -0.001944 -0.003928 0.012963 0.000000 0.000000 0.000000
# 4 0.000000 0.000000 0.000000 0.021658 0.000000 0.000000
# 5 0.000000 0.000000 0.000000 0.000000 0.031579 0.000000
# 6 0.000000 0.000000 0.000000 0.000000 0.000000 0.003007
#
#
# Mechanical properties :
#
#
# Convention : Reuss Voigt Hill
#
# Bulk Modulus (GPa) = 73.12663 76.87189 74.99926
# Shear Modulus (GPa) = 47.67452 99.85093 73.76272
#
# Velocity S-wave (km/s) = 4.70226 6.80518 5.84900
# Velocity P-wave (km/s) = 7.96225 9.86915 8.96654
#
# Compressibility (1/GPa) = 0.01367491
#
# Stress axis : x y z
#
# Youngs Moduli (GPa) = 135.43045 117.25196 77.14182
#
# Poissons Ratio (x) = 0.20273 0.14993
# Poissons Ratio (y) = 0.23416 0.30300
# Poissons Ratio (z) = 0.26321 0.46055
#
# Static dielectric constant tensor:
#      x y z
#    x 5.083200 0.000000 0.000000 
#    y 0.000000 4.420970 0.000000 
#    z 0.000000 0.000000 3.777460 
# 
# 
# High freq. dielectric constant tensor:
#      x y z
#    x 1.869810 0.000000 0.000000 
#    y 0.000000 1.862950 0.000000 
#    z 0.000000 0.000000 1.841340 
# 
# From -- ./inp_files/21839.got.cif
#   From: 2010.03.12/outbox.cif.g09.slc.cpg/sg67_11_cif.got.tgz:21839.got - 2010.04.10 22:41:39.
