data_PCOD8281767
_publ_section_title
;
Structure prediction by ZEFSAII (Michael W. Deem and Ramdas Pophale) SiO2 
 PCOD8281767
Probable space group: C C C A
;
_chemical_formula_sum "Si O2"
_cell_formula_units_Z 88
_cell_length_a 16.748874
_cell_length_b 17.894242
_cell_length_c 16.260419
_cell_angle_alpha 90.000000
_cell_angle_beta 90.000000
_cell_angle_gamma 90.000000
_cell_volume 4873.384236
_symmetry_space_group_name_H-M "C C C A"
_symmetry_group_IT_number 68
_space_group.IT_coordinate_system_code '2'
_symmetry_cell_setting 'orthorhombic'
loop_
_space_group_symop_operation_xyz
x,y,z
-x,1/2-y,z
x,1/2-y,1/2-z
-x,y,1/2-z
-x,-y,-z
x,1/2+y,-z
-x,1/2+y,1/2+z
x,-y,1/2+z
1/2+x,1/2+y,z
1/2-x,-y,z
1/2+x,-y,1/2-z
1/2-x,1/2+y,1/2-z
1/2-x,1/2-y,-z
1/2+x,y,-z
1/2-x,y,1/2+z
1/2+x,1/2-y,1/2+z
loop_
_atom_site_type_symbol
_atom_site_label
_atom_site_fract_x
_atom_site_fract_y
_atom_site_fract_z
Si Si1 0.166983 0.820075 0.499354
Si Si2 0.513815 0.912889 0.496510
Si Si3 0.466662 0.830253 0.339393
Si Si4 0.828039 0.750000 0.250000
Si Si5 0.924795 0.298619 0.605495
Si Si6 0.707022 0.705991 0.378377
O O1 0.106636 0.889653 0.489887
O O2 0.129468 0.744995 0.459725
O O3 0.251319 0.838981 0.454547
O O4 0.185835 0.791901 0.592739
O O5 0.495426 0.890721 0.403648
O O6 0.454288 0.875623 0.563442
O O7 0.500000 0.000000 0.500000
O O8 0.500000 0.750000 0.368226
O O9 0.500000 0.851488 0.250000
O O10 0.370872 0.832446 0.340546
O O11 0.879079 0.807700 0.307122
O O12 0.772432 0.699980 0.307240
O O13 0.000000 0.250000 0.629187
#
# Coordination Sequence:
#
# PCOD8281767 Si02
#       6
#    16  16  16   8  16  16
#     4   9  18  34  57  80 111 144 190 240 287 351
#     4  11  21  37  58  82 115 158 195 232 293 369
#     4  11  20  35  59  86 112 144 195 251 290 343
#     4  10  19  28  55  92 106 138 176 250 297 324
#     4   9  17  34  55  82 108 141 195 239 282 335
#     4  10  18  32  56  86 112 138 186 248 297 335
#
# _framework density 18.057267
#
# number of rings (size 3 to 8) (size 9 to 14) (size 15 to 20)
#    0.000    2.000    3.636    1.909    0.000    0.000 
#    0.000    6.364    0.000    0.000    0.000    0.000 
#    0.000    0.000    0.000    0.000    0.000    0.000 
#
# Total GULP energy -545136.648048 kJ/mol
# GULP energy per Si atom -12389.469274 kJ/mol
# Density = 1.801617 g / cm^3
# Si number density = 18.057267 Si / 1000 Ang^3
#
#
#
# Elastic Constant Matrix: (Units=GPa)
#
#
# Indices 1 2 3 4 5 6 
#
# 1 135.5413 42.2288 57.3915 0.0000 0.0000 0.0000
# 2 42.2288 108.7770 48.2118 0.0000 0.0000 0.0000
# 3 57.3915 48.2118 124.4244 0.0000 0.0000 0.0000
# 4 0.0000 0.0000 0.0000 16.1042 0.0000 0.0000
# 5 0.0000 0.0000 0.0000 0.0000 39.0914 0.0000
# 6 0.0000 0.0000 0.0000 0.0000 0.0000 18.7894
#
#
#
# Elastic Compliance Matrix: (Units=1/GPa)
#
#
# Indices 1 2 3 4 5 6 
#
# 1 0.009557 -0.002121 -0.003587 0.000000 0.000000 0.000000
# 2 -0.002121 0.011570 -0.003505 0.000000 0.000000 0.000000
# 3 -0.003587 -0.003505 0.011049 0.000000 0.000000 0.000000
# 4 0.000000 0.000000 0.000000 0.062096 0.000000 0.000000
# 5 0.000000 0.000000 0.000000 0.000000 0.025581 0.000000
# 6 0.000000 0.000000 0.000000 0.000000 0.000000 0.053222
#
#
# Mechanical properties :
#
#
# Convention : Reuss Voigt Hill
#
# Bulk Modulus (GPa) = 72.71581 73.82298 73.26939
# Shear Modulus (GPa) = 25.49940 29.52437 27.51189
#
# Velocity S-wave (km/s) = 3.76192 4.04795 3.90755
# Velocity P-wave (km/s) = 7.69587 7.92586 7.81171
#
# Compressibility (1/GPa) = 0.01375217
#
# Stress axis : x y z
#
# Youngs Moduli (GPa) = 104.63350 86.43201 90.50235
#
# Poissons Ratio (x) = 0.18329 0.32460
# Poissons Ratio (y) = 0.22188 0.31720
# Poissons Ratio (z) = 0.37528 0.30294
#
# Static dielectric constant tensor:
#      x y z
#    x 4.018220 0.000000 0.000000 
#    y 0.000000 2.264900 0.000000 
#    z 0.000000 0.000000 3.620700 
# 
# 
# High freq. dielectric constant tensor:
#      x y z
#    x 1.730380 0.000000 0.000000 
#    y 0.000000 1.618210 0.000000 
#    z 0.000000 0.000000 1.714080 
# 
# From -- ./inp_files/23607.got.cif
#   From: 2010.03.12/outbox.cif.g09.slc.cpg/sg68_12_cif.got.tgz:23607.got - 2010.04.10 23:14:56.
