data_PCOD8281741
_publ_section_title
;
Structure prediction by ZEFSAII (Michael W. Deem and Ramdas Pophale) SiO2 
 PCOD8281741
Probable space group: C C C A
;
_chemical_formula_sum "Si O2"
_cell_formula_units_Z 88
_cell_length_a 17.720089
_cell_length_b 20.823740
_cell_length_c 14.210828
_cell_angle_alpha 90.000000
_cell_angle_beta 90.000000
_cell_angle_gamma 90.000000
_cell_volume 5243.774587
_symmetry_space_group_name_H-M "C C C A"
_symmetry_group_IT_number 68
_space_group.IT_coordinate_system_code '2'
_symmetry_cell_setting 'orthorhombic'
loop_
_space_group_symop_operation_xyz
x,y,z
-x,1/2-y,z
x,1/2-y,1/2-z
-x,y,1/2-z
-x,-y,-z
x,1/2+y,-z
-x,1/2+y,1/2+z
x,-y,1/2+z
1/2+x,1/2+y,z
1/2-x,-y,z
1/2+x,-y,1/2-z
1/2-x,1/2+y,1/2-z
1/2-x,1/2-y,-z
1/2+x,y,-z
1/2-x,y,1/2+z
1/2+x,1/2-y,1/2+z
loop_
_atom_site_type_symbol
_atom_site_label
_atom_site_fract_x
_atom_site_fract_y
_atom_site_fract_z
Si Si1 0.706919 0.434681 0.500238
Si Si2 0.165949 0.626209 0.392484
Si Si3 0.860633 0.113444 0.678892
Si Si4 0.584387 0.753713 0.638202
Si Si5 0.930477 0.997504 0.429931
Si Si6 0.000000 0.963816 0.250000
O O1 0.750000 0.500000 0.518107
O O2 0.754120 0.378573 0.552687
O O3 0.696676 0.425047 0.388310
O O4 0.624793 0.443386 0.547062
O O5 0.179601 0.618921 0.280222
O O6 0.131616 0.696622 0.410187
O O7 0.108849 0.572700 0.433552
O O8 0.874449 0.178816 0.619560
O O9 0.942216 0.080948 0.692345
O O10 0.500000 0.750000 0.595787
O O11 0.580003 0.750000 0.750000
O O12 0.958116 0.009790 0.323558
O O13 0.000000 0.000000 0.500000
#
# Coordination Sequence:
#
# PCOD8281741 Si02
#       6
#    16  16  16  16  16   8
#     4  10  21  33  47  73 104 132 162 206 248 305
#     4   9  20  33  46  74 103 125 164 206 255 300
#     4  10  18  31  53  71  98 130 163 206 258 289
#     4   9  16  29  51  75  96 123 167 212 249 291
#     4  10  18  32  50  72 100 130 167 205 244 299
#     4  10  18  30  53  78  96 131 168 212 246 296
#
# _framework density 16.781804999999999
#
# number of rings (size 3 to 8) (size 9 to 14) (size 15 to 20)
#    0.000    2.364    1.818    3.273    0.000    4.364 
#    0.000    0.000    0.000    0.000    0.000    0.000 
#    0.000    1.455    0.000    0.000    0.000    0.000 
#
# Total GULP energy -545346.735386 kJ/mol
# GULP energy per Si atom -12394.243986 kJ/mol
# Density = 1.674361 g / cm^3
# Si number density = 16.781805 Si / 1000 Ang^3
#
#
#
# Elastic Constant Matrix: (Units=GPa)
#
#
# Indices 1 2 3 4 5 6 
#
# 1 111.7469 35.5026 54.1612 0.0000 0.0000 0.0000
# 2 35.5026 57.2981 30.4930 0.0000 0.0000 0.0000
# 3 54.1612 30.4930 84.1198 0.0000 0.0000 0.0000
# 4 0.0000 0.0000 0.0000 19.5976 0.0000 0.0000
# 5 0.0000 0.0000 0.0000 0.0000 34.1835 0.0000
# 6 0.0000 0.0000 0.0000 0.0000 0.0000 19.9871
#
#
#
# Elastic Compliance Matrix: (Units=1/GPa)
#
#
# Indices 1 2 3 4 5 6 
#
# 1 0.014000 -0.004804 -0.007272 0.000000 0.000000 0.000000
# 2 -0.004804 0.023273 -0.005343 0.000000 0.000000 0.000000
# 3 -0.007272 -0.005343 0.018507 0.000000 0.000000 0.000000
# 4 0.000000 0.000000 0.000000 0.051027 0.000000 0.000000
# 5 0.000000 0.000000 0.000000 0.000000 0.029254 0.000000
# 6 0.000000 0.000000 0.000000 0.000000 0.000000 0.050032
#
#
# Mechanical properties :
#
#
# Convention : Reuss Voigt Hill
#
# Bulk Modulus (GPa) = 47.75473 54.83094 51.29283
# Shear Modulus (GPa) = 21.93829 23.62085 22.77957
#
# Velocity S-wave (km/s) = 3.61954 3.75577 3.68828
# Velocity P-wave (km/s) = 6.78130 7.17994 6.98347
#
# Compressibility (1/GPa) = 0.02094034
#
# Stress axis : x y z
#
# Youngs Moduli (GPa) = 71.42900 42.96861 54.03345
#
# Poissons Ratio (x) = 0.20643 0.39295
# Poissons Ratio (y) = 0.34316 0.28870
# Poissons Ratio (z) = 0.51946 0.22958
#
# Static dielectric constant tensor:
#      x y z
#    x 3.349830 0.000000 0.000000 
#    y 0.000000 3.262300 0.000000 
#    z 0.000000 0.000000 3.043700 
# 
# 
# High freq. dielectric constant tensor:
#      x y z
#    x 1.648430 0.000000 0.000000 
#    y 0.000000 1.630860 0.000000 
#    z 0.000000 0.000000 1.630060 
# 
# From -- ./inp_files/23578.got.cif
#   From: 2010.03.12/outbox.cif.g09.slc.cpg/sg68_12_cif.got.tgz:23578.got - 2010.04.10 23:14:56.
