data_PCOD8281179
_publ_section_title
;
Structure prediction by ZEFSAII (Michael W. Deem and Ramdas Pophale) SiO2 
 PCOD8281179
Probable space group: C M M A
;
_chemical_formula_sum "Si O2"
_cell_formula_units_Z 96
_cell_length_a 17.767339
_cell_length_b 24.240810
_cell_length_c 11.492225
_cell_angle_alpha 90.000000
_cell_angle_beta 90.000000
_cell_angle_gamma 90.000000
_cell_volume 4949.640271
_symmetry_space_group_name_H-M "C M M A"
_symmetry_group_IT_number 67
_symmetry_cell_setting 'orthorhombic'
loop_
_space_group_symop_operation_xyz
x,y,z
-x,1/2-y,z
x,-y,-z
-x,1/2+y,-z
-x,-y,-z
x,1/2+y,-z
-x,y,z
x,1/2-y,z
1/2+x,1/2+y,z
1/2-x,-y,z
1/2+x,1/2-y,-z
1/2-x,y,-z
1/2-x,1/2-y,-z
1/2+x,y,-z
1/2-x,1/2+y,z
1/2+x,-y,z
loop_
_atom_site_type_symbol
_atom_site_label
_atom_site_fract_x
_atom_site_fract_y
_atom_site_fract_z
Si Si1 0.282690 0.059456 0.804886
Si Si2 0.669339 0.059731 0.546169
Si Si3 0.195238 0.750000 0.390700
Si Si4 0.637678 0.132600 0.166634
Si Si5 0.084871 0.351026 0.588308
Si Si6 0.917474 0.562586 0.965475
Si Si7 0.198977 0.750000 0.121731
O O1 0.324106 0.054935 0.683045
O O2 0.219234 0.105729 0.811985
O O3 0.348773 0.081314 0.886289
O O4 0.250000 0.000000 0.842827
O O5 0.750000 0.079371 0.500000
O O6 0.606800 0.103550 0.508069
O O7 0.645479 0.000000 0.500000
O O8 0.250000 0.750000 0.500000
O O9 0.143425 0.697923 0.411612
O O10 0.233558 0.750000 0.258366
O O11 0.589196 0.124414 0.282732
O O12 0.647722 0.195301 0.120041
O O13 0.585871 0.100790 0.077251
O O14 0.000000 0.331281 0.560865
O O15 0.000000 0.570528 0.906724
O O16 0.905216 0.500000 0.000000
O O17 0.250000 0.750000 0.000000
#
# Coordination Sequence:
#
# PCOD8281179 Si02
#       7
#    16  16   8  16  16  16   8
#     4  12  21  37  63  86 121 165 211 254 307 377
#     4  11  21  38  58  88 123 162 207 249 306 372
#     4  10  23  41  68  95 126 162 214 264 314 372
#     4  11  22  40  64  91 122 159 209 257 306 374
#     4  11  23  40  64  93 125 161 204 258 318 371
#     4  11  24  38  57  88 125 158 200 259 319 366
#     4  10  22  39  64  97 118 158 208 262 306 368
#
# _framework density 19.395349
#
# number of rings (size 3 to 8) (size 9 to 14) (size 15 to 20)
#    0.000    1.000    5.000    2.750    2.333    1.000 
#    0.000    1.250    0.000    0.000    0.000    1.167 
#    0.000    0.000    0.000    0.000    0.000    0.000 
#
# Total GULP energy -594813.082577 kJ/mol
# GULP energy per Si atom -12391.939220 kJ/mol
# Density = 1.935120 g / cm^3
# Si number density = 19.395349 Si / 1000 Ang^3
#
#
#
# Elastic Constant Matrix: (Units=GPa)
#
#
# Indices 1 2 3 4 5 6 
#
# 1 97.2215 25.3533 38.4537 0.0000 0.0000 0.0000
# 2 25.3533 105.0729 18.9402 0.0000 0.0000 0.0000
# 3 38.4537 18.9402 83.1101 0.0000 0.0000 0.0000
# 4 0.0000 0.0000 0.0000 31.2397 0.0000 0.0000
# 5 0.0000 0.0000 0.0000 0.0000 7.4541 0.0000
# 6 0.0000 0.0000 0.0000 0.0000 0.0000 13.4567
#
#
#
# Elastic Compliance Matrix: (Units=1/GPa)
#
#
# Indices 1 2 3 4 5 6 
#
# 1 0.013038 -0.002147 -0.005543 0.000000 0.000000 0.000000
# 2 -0.002147 0.010278 -0.001349 0.000000 0.000000 0.000000
# 3 -0.005543 -0.001349 0.014904 0.000000 0.000000 0.000000
# 4 0.000000 0.000000 0.000000 0.032011 0.000000 0.000000
# 5 0.000000 0.000000 0.000000 0.000000 0.134154 0.000000
# 6 0.000000 0.000000 0.000000 0.000000 0.000000 0.074313
#
#
# Mechanical properties :
#
#
# Convention : Reuss Voigt Hill
#
# Bulk Modulus (GPa) = 49.64587 50.09988 49.87288
# Shear Modulus (GPa) = 16.47496 23.94059 20.20778
#
# Velocity S-wave (km/s) = 2.91766 3.51714 3.23133
# Velocity P-wave (km/s) = 6.08298 6.51004 6.30013
#
# Compressibility (1/GPa) = 0.02014266
#
# Stress axis : x y z
#
# Youngs Moduli (GPa) = 76.69798 97.29154 67.09395
#
# Poissons Ratio (x) = 0.20886 0.37192
# Poissons Ratio (y) = 0.16465 0.09052
# Poissons Ratio (z) = 0.42516 0.13125
#
# Static dielectric constant tensor:
#      x y z
#    x 3.469330 0.000000 0.000000 
#    y 0.000000 3.562620 0.000000 
#    z 0.000000 0.000000 -20.840200 
# 
# 
# High freq. dielectric constant tensor:
#      x y z
#    x 1.744100 0.000000 0.000000 
#    y 0.000000 1.762360 0.000000 
#    z 0.000000 0.000000 1.762400 
# 
# From -- ./inp_files/19687.got.cif
#   From: 2010.03.12/outbox.cif.g09.slc.cpg/sg67_10_cif.got.tgz:19687.got - 2010.04.10 22:41:39.
