data_PCOD8281015
_publ_section_title
;
Structure prediction by ZEFSAII (Michael W. Deem and Ramdas Pophale) SiO2 
 PCOD8281015
Probable space group: C M M A
;
_chemical_formula_sum "Si O2"
_cell_formula_units_Z 84
_cell_length_a 13.945381
_cell_length_b 25.445810
_cell_length_c 11.499997
_cell_angle_alpha 90.000000
_cell_angle_beta 90.000000
_cell_angle_gamma 90.000000
_cell_volume 4080.791361
_symmetry_space_group_name_H-M "C M M A"
_symmetry_group_IT_number 67
_symmetry_cell_setting 'orthorhombic'
loop_
_space_group_symop_operation_xyz
x,y,z
-x,1/2-y,z
x,-y,-z
-x,1/2+y,-z
-x,-y,-z
x,1/2+y,-z
-x,y,z
x,1/2-y,z
1/2+x,1/2+y,z
1/2-x,-y,z
1/2+x,1/2-y,-z
1/2-x,y,-z
1/2-x,1/2-y,-z
1/2+x,y,-z
1/2-x,1/2+y,z
1/2+x,-y,z
loop_
_atom_site_type_symbol
_atom_site_label
_atom_site_fract_x
_atom_site_fract_y
_atom_site_fract_z
Si Si1 0.000000 0.407325 0.146155
Si Si2 0.000000 0.850969 0.080287
Si Si3 0.317536 0.649787 0.764677
Si Si4 0.000000 0.813128 0.667168
Si Si5 0.358286 0.807025 0.528342
Si Si6 0.212085 0.557114 0.868819
Si Si7 0.500000 0.750000 0.070055
Si Si8 0.285279 0.750000 0.133272
O O1 0.000000 0.351507 0.219406
O O2 0.902521 0.441314 0.158424
O O3 0.000000 0.397223 0.010460
O O4 0.095326 0.856168 0.150717
O O5 0.000000 0.796777 0.016956
O O6 0.365152 0.653732 0.637072
O O7 0.254035 0.597977 0.776017
O O8 0.252049 0.699539 0.797636
O O9 0.090715 0.828991 0.587223
O O10 0.000000 0.750000 0.701044
O O11 0.404016 0.750000 0.561220
O O12 0.250000 0.798372 0.500000
O O13 0.250000 0.500000 0.834975
O O14 0.250000 0.571382 0.000000
O O15 0.400997 0.750000 0.145454
O O16 0.250000 0.750000 0.000000
#
# Coordination Sequence:
#
# PCOD8281015 Si02
#       8
#     8   8  16   8  16  16   4   8
#     4  12  24  44  68  98 137 168 232 281 330 407
#     4  12  23  35  61  95 126 170 210 272 344 408
#     4  12  22  41  63  95 132 171 225 280 336 407
#     4  10  23  43  66 102 138 183 221 270 334 409
#     4  10  21  39  61  88 128 178 224 262 325 393
#     4  11  25  44  67  95 136 179 224 277 341 409
#     4  12  24  32  50  86 136 168 204 250 348 428
#     4  12  22  38  57  90 137 168 211 277 350 416
#
# _framework density 20.584243000000001
#
# number of rings (size 3 to 8) (size 9 to 14) (size 15 to 20)
#    0.000    0.762    4.762    3.429    0.667    2.286 
#    1.714    0.000    0.000    6.286    0.000    0.000 
#    0.000    0.000    0.000    0.000    0.000    0.000 
#
# Total GULP energy -520420.788165 kJ/mol
# GULP energy per Si atom -12390.971147 kJ/mol
# Density = 2.053739 g / cm^3
# Si number density = 20.584243 Si / 1000 Ang^3
#
#
#
# Elastic Constant Matrix: (Units=GPa)
#
#
# Indices 1 2 3 4 5 6 
#
# 1 171.0490 49.9803 38.9249 0.0000 0.0000 0.0000
# 2 49.9803 120.5641 37.7022 0.0000 0.0000 0.0000
# 3 38.9249 37.7022 114.5356 0.0000 0.0000 0.0000
# 4 0.0000 0.0000 0.0000 -16.9575 0.0000 0.0000
# 5 0.0000 0.0000 0.0000 0.0000 38.6969 0.0000
# 6 0.0000 0.0000 0.0000 0.0000 0.0000 34.3078
#
#
#
# Elastic Compliance Matrix: (Units=1/GPa)
#
#
# Indices 1 2 3 4 5 6 
#
# 1 0.006894 -0.002369 -0.001563 0.000000 0.000000 0.000000
# 2 -0.002369 0.010060 -0.002506 0.000000 0.000000 0.000000
# 3 -0.001563 -0.002506 0.010087 0.000000 0.000000 0.000000
# 4 0.000000 0.000000 0.000000 -0.058971 0.000000 0.000000
# 5 0.000000 0.000000 0.000000 0.000000 0.025842 0.000000
# 6 0.000000 0.000000 0.000000 0.000000 0.000000 0.029148
#
#
# Mechanical properties :
#
#
# Convention : Reuss Voigt Hill
#
# Bulk Modulus (GPa) = 70.60045 73.26264 71.93154
# Shear Modulus (GPa) = 122.97207 29.84552 76.40879
#
# Velocity S-wave (km/s) = 7.73761 3.81191 6.09923
# Velocity P-wave (km/s) = 10.68645 7.41911 9.19900
#
# Compressibility (1/GPa) = 0.01416422
#
# Stress axis : x y z
#
# Youngs Moduli (GPa) = 145.04777 99.40052 99.13572
#
# Poissons Ratio (x) = 0.23550 0.15496
# Poissons Ratio (y) = 0.34365 0.24847
# Poissons Ratio (z) = 0.22673 0.24914
#
# Static dielectric constant tensor:
#      x y z
#    x 4.196000 0.000000 0.000000 
#    y 0.000000 3.616390 0.000000 
#    z 0.000000 0.000000 4.551430 
# 
# 
# High freq. dielectric constant tensor:
#      x y z
#    x 1.837530 0.000000 0.000000 
#    y 0.000000 1.771630 0.000000 
#    z 0.000000 0.000000 1.805530 
# 
# From -- ./inp_files/18190.got.cif
#   From: 2010.03.12/outbox.cif.g09.slc.cpg/sg67_10_cif.got.tgz:18190.got - 2010.04.10 22:41:39.
