data_PCOD8281535
_publ_section_title
;
Structure prediction by ZEFSAII (Michael W. Deem and Ramdas Pophale) SiO2 
 PCOD8281535
Probable space group: C M M A
;
_chemical_formula_sum "Si O2"
_cell_formula_units_Z 64
_cell_length_a 10.027488
_cell_length_b 25.369829
_cell_length_c 12.512676
_cell_angle_alpha 90.000000
_cell_angle_beta 90.000000
_cell_angle_gamma 90.000000
_cell_volume 3183.170418
_symmetry_space_group_name_H-M "C M M A"
_symmetry_group_IT_number 67
_symmetry_cell_setting 'orthorhombic'
loop_
_space_group_symop_operation_xyz
x,y,z
-x,1/2-y,z
x,-y,-z
-x,1/2+y,-z
-x,-y,-z
x,1/2+y,-z
-x,y,z
x,1/2-y,z
1/2+x,1/2+y,z
1/2-x,-y,z
1/2+x,1/2-y,-z
1/2-x,y,-z
1/2-x,1/2-y,-z
1/2+x,y,-z
1/2-x,1/2+y,z
1/2+x,-y,z
loop_
_atom_site_type_symbol
_atom_site_label
_atom_site_fract_x
_atom_site_fract_y
_atom_site_fract_z
Si Si1 0.500000 0.466093 0.106987
Si Si2 0.500000 0.430585 0.781656
Si Si3 0.500000 0.060981 0.532392
Si Si4 0.733580 0.883621 0.880466
Si Si5 0.346000 0.810648 0.693208
Si Si6 0.250000 0.872659 0.500000
O O1 0.500000 0.506590 0.204517
O O2 0.367212 0.432210 0.115169
O O3 0.500000 0.500000 0.000000
O O4 0.500000 0.424279 0.656027
O O5 0.372787 0.403646 0.834741
O O6 0.372849 0.088594 0.481834
O O7 0.500000 0.000000 0.500000
O O8 0.675333 0.837350 0.807786
O O9 0.750000 0.860705 0.000000
O O10 0.500000 0.816761 0.657312
O O11 0.305499 0.750000 0.705065
O O12 0.247337 0.835863 0.604944
#
# Coordination Sequence:
#
# PCOD8281535 Si02
#       6
#     8   8   8  16  16   8
#     4  12  24  40  64  96 132 183 221 257 322 403
#     4  12  26  40  64  99 138 177 222 275 325 400
#     4  12  28  42  67 103 141 178 219 274 342 396
#     4  12  24  43  67 100 136 174 223 277 329 397
#     4  11  25  46  72  98 128 175 228 286 341 391
#     4  12  24  48  68  98 136 176 224 278 334 412
#
# _framework density 20.105740000000001
#
# number of rings (size 3 to 8) (size 9 to 14) (size 15 to 20)
#    0.000    0.250    7.500    1.500    3.500    2.500 
#    0.000    1.875    0.000    0.000    0.000    0.000 
#    0.000    0.000    0.000    0.000    0.000    0.000 
#
# Total GULP energy -396917.652461 kJ/mol
# GULP energy per Si atom -12403.676639 kJ/mol
# Density = 2.005998 g / cm^3
# Si number density = 20.105740 Si / 1000 Ang^3
#
#
#
# Elastic Constant Matrix: (Units=GPa)
#
#
# Indices 1 2 3 4 5 6 
#
# 1 120.2633 52.0398 15.1276 0.0000 0.0000 0.0000
# 2 52.0398 152.6804 51.0687 0.0000 0.0000 0.0000
# 3 15.1276 51.0687 117.9954 0.0000 0.0000 0.0000
# 4 0.0000 0.0000 0.0000 37.9604 0.0000 0.0000
# 5 0.0000 0.0000 0.0000 0.0000 29.3292 0.0000
# 6 0.0000 0.0000 0.0000 0.0000 0.0000 49.8801
#
#
#
# Elastic Compliance Matrix: (Units=1/GPa)
#
#
# Indices 1 2 3 4 5 6 
#
# 1 0.009759 -0.003400 0.000220 0.000000 0.000000 0.000000
# 2 -0.003400 0.008843 -0.003391 0.000000 0.000000 0.000000
# 3 0.000220 -0.003391 0.009914 0.000000 0.000000 0.000000
# 4 0.000000 0.000000 0.000000 0.026343 0.000000 0.000000
# 5 0.000000 0.000000 0.000000 0.000000 0.034096 0.000000
# 6 0.000000 0.000000 0.000000 0.000000 0.000000 0.020048
#
#
# Mechanical properties :
#
#
# Convention : Reuss Voigt Hill
#
# Bulk Modulus (GPa) = 65.04407 69.71237 67.37822
# Shear Modulus (GPa) = 39.28690 41.61415 40.45052
#
# Velocity S-wave (km/s) = 4.42522 4.55440 4.49027
# Velocity P-wave (km/s) = 7.65058 7.89968 7.77612
#
# Compressibility (1/GPa) = 0.01537419
#
# Stress axis : x y z
#
# Youngs Moduli (GPa) = 102.47455 113.08706 100.86321
#
# Poissons Ratio (x) = 0.38447 -0.02223
# Poissons Ratio (y) = 0.34839 0.34206
# Poissons Ratio (z) = -0.02258 0.38351
#
# Static dielectric constant tensor:
#      x y z
#    x 3.736990 0.000000 0.000000 
#    y 0.000000 3.808580 0.000000 
#    z 0.000000 0.000000 3.883160 
# 
# 
# High freq. dielectric constant tensor:
#      x y z
#    x 1.796930 0.000000 0.000000 
#    y 0.000000 1.784840 0.000000 
#    z 0.000000 0.000000 1.798330 
# 
# From -- ./inp_files/16510.got.cif
#   From: 2010.03.12/outbox.cif.g09.slc.cpg/sg67_9_cif.got.tgz:16510.got - 2010.04.10 22:41:39.
