data_PCOD8281474
_publ_section_title
;
Structure prediction by ZEFSAII (Michael W. Deem and Ramdas Pophale) SiO2 
 PCOD8281474
Probable space group: C M M A
;
_chemical_formula_sum "Si O2"
_cell_formula_units_Z 72
_cell_length_a 14.004961
_cell_length_b 25.321954
_cell_length_c 9.822477
_cell_angle_alpha 90.000000
_cell_angle_beta 90.000000
_cell_angle_gamma 90.000000
_cell_volume 3483.374272
_symmetry_space_group_name_H-M "C M M A"
_symmetry_group_IT_number 67
_symmetry_cell_setting 'orthorhombic'
loop_
_space_group_symop_operation_xyz
x,y,z
-x,1/2-y,z
x,-y,-z
-x,1/2+y,-z
-x,-y,-z
x,1/2+y,-z
-x,y,z
x,1/2-y,z
1/2+x,1/2+y,z
1/2-x,-y,z
1/2+x,1/2-y,-z
1/2-x,y,-z
1/2-x,1/2-y,-z
1/2+x,y,-z
1/2-x,1/2+y,z
1/2+x,-y,z
loop_
_atom_site_type_symbol
_atom_site_label
_atom_site_fract_x
_atom_site_fract_y
_atom_site_fract_z
Si Si1 0.357701 0.518091 0.644173
Si Si2 0.000000 0.351217 0.196733
Si Si3 0.794428 0.689092 0.857303
Si Si4 0.677369 0.364292 0.378753
Si Si5 0.000000 0.526881 0.852717
Si Si6 0.500000 0.188501 0.505384
O O1 0.403443 0.500000 0.500000
O O2 0.250000 0.500000 0.650348
O O3 0.371623 0.580659 0.660939
O O4 0.406862 0.490448 0.771163
O O5 0.907012 0.321955 0.139707
O O6 0.000000 0.410093 0.137926
O O7 0.000000 0.348645 0.361301
O O8 0.776671 0.750000 0.824665
O O9 0.739899 0.655962 0.744922
O O10 0.750000 0.672122 0.000000
O O11 0.750000 0.375111 0.500000
O O12 0.594818 0.322796 0.417617
O O13 0.000000 0.500000 0.000000
O O14 0.500000 0.250000 0.548117
#
# Coordination Sequence:
#
# PCOD8281474 Si02
#       6
#    16   8  16  16   8   8
#     4  11  22  44  68  97 130 175 217 271 331 384
#     4  12  24  45  68  99 133 176 224 274 337 394
#     4  11  26  45  70  99 138 180 219 274 335 401
#     4  12  23  42  70 101 134 175 228 274 329 394
#     4  12  28  43  65  99 134 174 219 270 332 398
#     4  12  25  40  70 104 135 174 222 284 332 388
#
# _framework density 20.669612000000001
#
# number of rings (size 3 to 8) (size 9 to 14) (size 15 to 20)
#    0.000    0.444    4.444    5.333    3.111    2.222 
#    0.000    1.111    0.000    0.000    0.000    0.000 
#    0.000    0.000    0.000    0.000    0.000    0.000 
#
# Total GULP energy -446607.707640 kJ/mol
# GULP energy per Si atom -12405.769657 kJ/mol
# Density = 2.062257 g / cm^3
# Si number density = 20.669612 Si / 1000 Ang^3
#
#
#
# Elastic Constant Matrix: (Units=GPa)
#
#
# Indices 1 2 3 4 5 6 
#
# 1 110.7598 -0.0468 41.3477 0.0000 0.0000 0.0000
# 2 -0.0468 69.4184 33.4617 0.0000 0.0000 0.0000
# 3 41.3477 33.4617 132.4540 0.0000 0.0000 0.0000
# 4 0.0000 0.0000 0.0000 47.3933 0.0000 0.0000
# 5 0.0000 0.0000 0.0000 0.0000 28.9410 0.0000
# 6 0.0000 0.0000 0.0000 0.0000 0.0000 26.4720
#
#
#
# Elastic Compliance Matrix: (Units=1/GPa)
#
#
# Indices 1 2 3 4 5 6 
#
# 1 0.010412 0.001792 -0.003703 0.000000 0.000000 0.000000
# 2 0.001792 0.016711 -0.004781 0.000000 0.000000 0.000000
# 3 -0.003703 -0.004781 0.009914 0.000000 0.000000 0.000000
# 4 0.000000 0.000000 0.000000 0.021100 0.000000 0.000000
# 5 0.000000 0.000000 0.000000 0.000000 0.034553 0.000000
# 6 0.000000 0.000000 0.000000 0.000000 0.000000 0.037776
#
#
# Mechanical properties :
#
#
# Convention : Reuss Voigt Hill
#
# Bulk Modulus (GPa) = 42.27920 51.35080 46.81500
# Shear Modulus (GPa) = 32.95252 36.41924 34.68588
#
# Velocity S-wave (km/s) = 3.99714 4.20214 4.10092
# Velocity P-wave (km/s) = 6.46545 6.95999 6.71727
#
# Compressibility (1/GPa) = 0.02365229
#
# Stress axis : x y z
#
# Youngs Moduli (GPa) = 96.04665 59.83994 100.87217
#
# Poissons Ratio (x) = -0.10723 0.37351
# Poissons Ratio (y) = -0.17211 0.48228
# Poissons Ratio (z) = 0.35564 0.28610
#
# Static dielectric constant tensor:
#      x y z
#    x 3.866970 0.000000 0.000000 
#    y 0.000000 3.880360 0.000000 
#    z 0.000000 0.000000 3.679310 
# 
# 
# High freq. dielectric constant tensor:
#      x y z
#    x 1.826550 0.000000 0.000000 
#    y 0.000000 1.822680 0.000000 
#    z 0.000000 0.000000 1.805240 
# 
# From -- ./inp_files/8337.got.cif
#   From: 2010.03.12/outbox.cif.g09.slc.cpg/sg67_5_cif.got.tgz:8337.got - 2010.04.10 22:41:39.
