data_PCOD8281554
_publ_section_title
;
Structure prediction by ZEFSAII (Michael W. Deem and Ramdas Pophale) SiO2 
 PCOD8281554
Probable space group: C M M A
;
_chemical_formula_sum "Si O2"
_cell_formula_units_Z 56
_cell_length_a 8.772938
_cell_length_b 15.434048
_cell_length_c 19.704201
_cell_angle_alpha 90.000000
_cell_angle_beta 90.000000
_cell_angle_gamma 90.000000
_cell_volume 2667.987164
_symmetry_space_group_name_H-M "C M M A"
_symmetry_group_IT_number 67
_symmetry_cell_setting 'orthorhombic'
loop_
_space_group_symop_operation_xyz
x,y,z
-x,1/2-y,z
x,-y,-z
-x,1/2+y,-z
-x,-y,-z
x,1/2+y,-z
-x,y,z
x,1/2-y,z
1/2+x,1/2+y,z
1/2-x,-y,z
1/2+x,1/2-y,-z
1/2-x,y,-z
1/2-x,1/2-y,-z
1/2+x,y,-z
1/2-x,1/2+y,z
1/2+x,-y,z
loop_
_atom_site_type_symbol
_atom_site_label
_atom_site_fract_x
_atom_site_fract_y
_atom_site_fract_z
Si Si1 0.681664 0.750000 0.925668
Si Si2 0.321830 0.148502 0.285710
Si Si3 0.680297 0.910736 0.153005
Si Si4 0.167990 0.647085 0.434715
O O1 0.500000 0.750000 0.928203
O O2 0.738698 0.834337 0.887026
O O3 0.750000 0.750000 0.000000
O O4 0.500000 0.124365 0.277142
O O5 0.299317 0.250000 0.272387
O O6 0.219213 0.096142 0.232779
O O7 0.260242 0.123171 0.361239
O O8 0.500000 0.907787 0.141344
O O9 0.750000 0.000000 0.124439
O O10 0.164159 0.750000 0.441625
O O11 0.250000 0.605142 0.500000
O O12 0.000000 0.608318 0.436208
#
# Coordination Sequence:
#
# PCOD8281554 Si02
#       4
#     8  16  16  16
#     4  12  26  48  74 102 135 168 205 254 306 368
#     4   9  17  32  55  82 118 163 208 259 317 372
#     4  12  25  42  66  98 131 170 215 259 312 372
#     4   8  14  24  41  70 108 152 200 252 310 369
#
# _framework density 20.989605999999998
#
# number of rings (size 3 to 8) (size 9 to 14) (size 15 to 20)
#    0.000    2.000    1.429    5.571    0.000    1.714 
#    0.000    5.714    0.000    0.857    0.000    6.000 
#    0.000    0.000    0.000    0.000    0.000    0.000 
#
# Total GULP energy -347075.828971 kJ/mol
# GULP energy per Si atom -12395.565320 kJ/mol
# Density = 2.094183 g / cm^3
# Si number density = 20.989606 Si / 1000 Ang^3
#
#
#
# Elastic Constant Matrix: (Units=GPa)
#
#
# Indices 1 2 3 4 5 6 
#
# 1 144.5907 53.0660 61.3781 0.0000 0.0000 0.0000
# 2 53.0660 102.8134 51.9356 0.0000 0.0000 0.0000
# 3 61.3781 51.9356 149.9797 0.0000 0.0000 0.0000
# 4 0.0000 0.0000 0.0000 -0.0024 0.0000 0.0000
# 5 0.0000 0.0000 0.0000 0.0000 42.9194 0.0000
# 6 0.0000 0.0000 0.0000 0.0000 0.0000 27.1106
#
#
#
# Elastic Compliance Matrix: (Units=1/GPa)
#
#
# Indices 1 2 3 4 5 6 
#
# 1 0.009299 -0.003487 -0.002598 0.000000 0.000000 0.000000
# 2 -0.003487 0.013096 -0.003108 0.000000 0.000000 0.000000
# 3 -0.002598 -0.003108 0.008807 0.000000 0.000000 0.000000
# 4 0.000000 0.000000 0.000000********** 0.000000 0.000000
# 5 0.000000 0.000000 0.000000 0.000000 0.023299 0.000000
# 6 0.000000 0.000000 0.000000 0.000000 0.000000 0.036886
#
#
# Mechanical properties :
#
#
# Convention : Reuss Voigt Hill
#
# Bulk Modulus (GPa) = 78.02773 81.12704 79.57738
# Shear Modulus (GPa) = -0.01208 29.40577 14.69684
#
# Velocity S-wave (km/s) = -0.07596 3.74701 2.64899
# Velocity P-wave (km/s) = 6.10307 7.57991 6.88123
#
# Compressibility (1/GPa) = 0.01281596
#
# Stress axis : x y z
#
# Youngs Moduli (GPa) = 107.54233 76.35840 113.54659
#
# Poissons Ratio (x) = 0.26627 0.29498
# Poissons Ratio (y) = 0.37501 0.35289
# Poissons Ratio (z) = 0.27938 0.23732
#
# Static dielectric constant tensor:
#      x y z
#    x 3.826430 0.000000 0.000000 
#    y 0.000000 3.535160 0.000000 
#    z 0.000000 0.000000 4.728970 
# 
# 
# High freq. dielectric constant tensor:
#      x y z
#    x 1.813730 0.000000 0.000000 
#    y 0.000000 1.802430 0.000000 
#    z 0.000000 0.000000 1.835400 
# 
# From -- ./inp_files/36514.got.cif
#   From: 2010.03.12/outbox.cif.g09.slc.cpg/sg67_19_cif.got.tgz:36514.got - 2010.04.10 22:41:39.
