data_PCOD8281175
_publ_section_title
;
Structure prediction by ZEFSAII (Michael W. Deem and Ramdas Pophale) SiO2 
 PCOD8281175
Probable space group: C M M A
;
_chemical_formula_sum "Si O2"
_cell_formula_units_Z 96
_cell_length_a 22.544270
_cell_length_b 17.399256
_cell_length_c 11.512846
_cell_angle_alpha 90.000000
_cell_angle_beta 90.000000
_cell_angle_gamma 90.000000
_cell_volume 4515.954427
_symmetry_space_group_name_H-M "C M M A"
_symmetry_group_IT_number 67
_symmetry_cell_setting 'orthorhombic'
loop_
_space_group_symop_operation_xyz
x,y,z
-x,1/2-y,z
x,-y,-z
-x,1/2+y,-z
-x,-y,-z
x,1/2+y,-z
-x,y,z
x,1/2-y,z
1/2+x,1/2+y,z
1/2-x,-y,z
1/2+x,1/2-y,-z
1/2-x,y,-z
1/2-x,1/2-y,-z
1/2+x,y,-z
1/2-x,1/2+y,z
1/2+x,-y,z
loop_
_atom_site_type_symbol
_atom_site_label
_atom_site_fract_x
_atom_site_fract_y
_atom_site_fract_z
Si Si1 0.932717 0.551688 0.848595
Si Si2 0.431651 0.334490 0.052486
Si Si3 0.254051 0.663123 0.137385
Si Si4 0.816583 0.090044 0.512344
Si Si5 0.368573 0.838024 0.287798
Si Si6 0.643284 0.092048 0.232262
O O1 0.928555 0.621384 0.756938
O O2 0.885202 0.488894 0.806564
O O3 0.000000 0.518654 0.849529
O O4 0.916804 0.590590 0.973388
O O5 0.500000 0.335662 0.085400
O O6 0.415442 0.250000 0.996273
O O7 0.395054 0.341051 0.171723
O O8 0.235485 0.750000 0.174032
O O9 0.318840 0.645725 0.189069
O O10 0.210897 0.598462 0.189236
O O11 0.250000 0.654606 0.000000
O O12 0.750000 0.125431 0.500000
O O13 0.854156 0.126923 0.411311
O O14 0.852749 0.107192 0.630356
O O15 0.811810 0.000000 0.500000
O O16 0.382504 0.750000 0.305731
#
# Coordination Sequence:
#
# PCOD8281175 Si02
#       6
#    16  16  16  16  16  16
#     4  11  24  43  66  96 132 174 219 270 326 388
#     4  10  22  41  65  95 133 174 216 267 330 399
#     4  10  22  39  62  98 137 167 208 270 336 400
#     4  11  23  43  64  91 131 172 217 268 324 390
#     4  11  23  41  66  96 127 172 223 265 326 398
#     4  12  22  39  68  94 129 171 219 271 327 386
#
# _framework density 21.257966
#
# number of rings (size 3 to 8) (size 9 to 14) (size 15 to 20)
#    0.000    1.167    3.333    3.000    0.000    6.000 
#    0.000    3.333    0.000    0.000    0.000    0.000 
#    0.000    0.000    0.000    0.000    0.000    0.000 
#
# Total GULP energy -594890.823472 kJ/mol
# GULP energy per Si atom -12393.558822 kJ/mol
# Density = 2.120958 g / cm^3
# Si number density = 21.257966 Si / 1000 Ang^3
#
#
#
# Elastic Constant Matrix: (Units=GPa)
#
#
# Indices 1 2 3 4 5 6 
#
# 1 54.0639 23.6670 27.3579 0.0000 0.0000 0.0000
# 2 23.6670 77.4372 21.1361 0.0000 0.0000 0.0000
# 3 27.3579 21.1361 135.7723 0.0000 0.0000 0.0000
# 4 0.0000 0.0000 0.0000 30.6661 0.0000 0.0000
# 5 0.0000 0.0000 0.0000 0.0000 30.1232 0.0000
# 6 0.0000 0.0000 0.0000 0.0000 0.0000 32.4620
#
#
#
# Elastic Compliance Matrix: (Units=1/GPa)
#
#
# Indices 1 2 3 4 5 6 
#
# 1 0.023004 -0.006021 -0.003698 0.000000 0.000000 0.000000
# 2 -0.006021 0.015063 -0.001132 0.000000 0.000000 0.000000
# 3 -0.003698 -0.001132 0.008287 0.000000 0.000000 0.000000
# 4 0.000000 0.000000 0.000000 0.032609 0.000000 0.000000
# 5 0.000000 0.000000 0.000000 0.000000 0.033197 0.000000
# 6 0.000000 0.000000 0.000000 0.000000 0.000000 0.030805
#
#
# Mechanical properties :
#
#
# Convention : Reuss Voigt Hill
#
# Bulk Modulus (GPa) = 40.56526 45.73281 43.14904
# Shear Modulus (GPa) = 28.92125 31.65777 30.28951
#
# Velocity S-wave (km/s) = 3.69248 3.86323 3.77882
# Velocity P-wave (km/s) = 6.10762 6.43889 6.27544
#
# Compressibility (1/GPa) = 0.02465163
#
# Stress axis : x y z
#
# Youngs Moduli (GPa) = 43.47121 66.38866 120.67754
#
# Poissons Ratio (x) = 0.39974 0.44625
# Poissons Ratio (y) = 0.26175 0.13656
# Poissons Ratio (z) = 0.16075 0.07513
#
# Static dielectric constant tensor:
#      x y z
#    x 3.902550 0.000000 0.000000 
#    y 0.000000 4.017290 0.000000 
#    z 0.000000 0.000000 3.933160 
# 
# 
# High freq. dielectric constant tensor:
#      x y z
#    x 1.826590 0.000000 0.000000 
#    y 0.000000 1.845180 0.000000 
#    z 0.000000 0.000000 1.831080 
# 
# From -- ./inp_files/21917.got.cif
#   From: 2010.03.12/outbox.cif.g09.slc.cpg/sg67_11_cif.got.tgz:21917.got - 2010.04.10 22:41:39.
