data_PCOD8281117
_publ_section_title
;
Structure prediction by ZEFSAII (Michael W. Deem and Ramdas Pophale) SiO2 
 PCOD8281117
Probable space group: C M M A
;
_chemical_formula_sum "Si O2"
_cell_formula_units_Z 88
_cell_length_a 18.482004
_cell_length_b 14.089353
_cell_length_c 17.676755
_cell_angle_alpha 90.000000
_cell_angle_beta 90.000000
_cell_angle_gamma 90.000000
_cell_volume 4603.017784
_symmetry_space_group_name_H-M "C M M A"
_symmetry_group_IT_number 67
_symmetry_cell_setting 'orthorhombic'
loop_
_space_group_symop_operation_xyz
x,y,z
-x,1/2-y,z
x,-y,-z
-x,1/2+y,-z
-x,-y,-z
x,1/2+y,-z
-x,y,z
x,1/2-y,z
1/2+x,1/2+y,z
1/2-x,-y,z
1/2+x,1/2-y,-z
1/2-x,y,-z
1/2-x,1/2-y,-z
1/2+x,y,-z
1/2-x,1/2+y,z
1/2+x,-y,z
loop_
_atom_site_type_symbol
_atom_site_label
_atom_site_fract_x
_atom_site_fract_y
_atom_site_fract_z
Si Si1 0.500000 0.535931 0.915279
Si Si2 0.343824 0.750000 0.574619
Si Si3 0.250000 0.000000 0.808392
Si Si4 0.674068 0.750000 0.404988
Si Si5 0.917585 0.889180 0.317261
Si Si6 0.872014 0.592106 0.708305
Si Si7 0.000000 0.147545 0.189250
Si Si8 0.864628 0.142109 0.849693
O O1 0.500000 0.442229 0.864844
O O2 0.430038 0.599704 0.898757
O O3 0.500000 0.500000 0.000000
O O4 0.364963 0.750000 0.486377
O O5 0.259025 0.750000 0.585398
O O6 0.376000 0.656308 0.612783
O O7 0.301929 0.063017 0.756211
O O8 0.204894 0.073324 0.861256
O O9 0.651225 0.656096 0.361278
O O10 0.883118 0.855178 0.238741
O O11 0.000000 0.855422 0.318269
O O12 0.912258 0.001511 0.326490
O O13 0.927924 0.647501 0.760801
O O14 0.000000 0.250000 0.146032
O O15 0.847964 0.250000 0.876863
#
# Coordination Sequence:
#
# PCOD8281117 Si02
#       8
#     8   8   8   8  16  16   8  16
#     4  12  25  45  68 101 137 162 207 269 331 382
#     4  11  25  38  57  94 124 161 204 276 330 371
#     4  10  22  36  67 103 124 162 230 266 308 372
#     4  11  24  41  56  85 134 164 207 261 331 391
#     4  11  20  38  62  89 119 157 217 269 311 370
#     4  11  21  39  63  90 119 170 213 260 313 383
#     4  12  22  41  66  90 128 168 215 258 314 392
#     4  11  21  39  70  98 129 172 215 265 316 386
#
# _framework density 19.117892999999999
#
# number of rings (size 3 to 8) (size 9 to 14) (size 15 to 20)
#    0.000    0.909    7.273    2.727    1.273    1.455 
#    3.273    3.182    0.000    1.091    0.000    0.000 
#    0.000    0.000    0.000    0.000    0.000    0.000 
#
# Total GULP energy -545644.615406 kJ/mol
# GULP energy per Si atom -12401.013987 kJ/mol
# Density = 1.907438 g / cm^3
# Si number density = 19.117893 Si / 1000 Ang^3
#
#
#
# Elastic Constant Matrix: (Units=GPa)
#
#
# Indices 1 2 3 4 5 6 
#
# 1 117.0599 39.1521 36.0116 0.0000 0.0000 0.0000
# 2 39.1521 151.8174 43.8216 0.0000 0.0000 0.0000
# 3 36.0116 43.8216 72.6466 0.0000 0.0000 0.0000
# 4 0.0000 0.0000 0.0000 21.3386 0.0000 0.0000
# 5 0.0000 0.0000 0.0000 0.0000 15.0929 0.0000
# 6 0.0000 0.0000 0.0000 0.0000 0.0000 31.5077
#
#
#
# Elastic Compliance Matrix: (Units=1/GPa)
#
#
# Indices 1 2 3 4 5 6 
#
# 1 0.010332 -0.001436 -0.004255 0.000000 0.000000 0.000000
# 2 -0.001436 0.008175 -0.004219 0.000000 0.000000 0.000000
# 3 -0.004255 -0.004219 0.018420 0.000000 0.000000 0.000000
# 4 0.000000 0.000000 0.000000 0.046863 0.000000 0.000000
# 5 0.000000 0.000000 0.000000 0.000000 0.066256 0.000000
# 6 0.000000 0.000000 0.000000 0.000000 0.000000 0.031738
#
#
# Mechanical properties :
#
#
# Convention : Reuss Voigt Hill
#
# Bulk Modulus (GPa) = 58.46203 64.38829 61.42516
# Shear Modulus (GPa) = 24.11861 28.42376 26.27118
#
# Velocity S-wave (km/s) = 3.55572 3.86004 3.71100
# Velocity P-wave (km/s) = 6.89229 7.32252 7.11066
#
# Compressibility (1/GPa) = 0.01710512
#
# Stress axis : x y z
#
# Youngs Moduli (GPa) = 96.78572 122.32153 54.28910
#
# Poissons Ratio (x) = 0.17568 0.23102
# Poissons Ratio (y) = 0.13901 0.22907
# Poissons Ratio (z) = 0.41186 0.51613
#
# Static dielectric constant tensor:
#      x y z
#    x 3.703970 0.000000 0.000000 
#    y 0.000000 3.727330 0.000000 
#    z 0.000000 0.000000 3.363050 
# 
# 
# High freq. dielectric constant tensor:
#      x y z
#    x 1.758050 0.000000 0.000000 
#    y 0.000000 1.765890 0.000000 
#    z 0.000000 0.000000 1.707780 
# 
# From -- ./inp_files/34188.got.cif
#   From: 2010.03.12/outbox.cif.g09.slc.cpg/sg67_18_cif.got.tgz:34188.got - 2010.04.10 22:41:39.
