data_PCOD8281347
_publ_section_title
;
Structure prediction by ZEFSAII (Michael W. Deem and Ramdas Pophale) SiO2 
 PCOD8281347
Probable space group: C M M A
;
_chemical_formula_sum "Si O2"
_cell_formula_units_Z 80
_cell_length_a 30.956457
_cell_length_b 8.916646
_cell_length_c 15.495971
_cell_angle_alpha 90.000000
_cell_angle_beta 90.000000
_cell_angle_gamma 90.000000
_cell_volume 4277.318296
_symmetry_space_group_name_H-M "C M M A"
_symmetry_group_IT_number 67
_symmetry_cell_setting 'orthorhombic'
loop_
_space_group_symop_operation_xyz
x,y,z
-x,1/2-y,z
x,-y,-z
-x,1/2+y,-z
-x,-y,-z
x,1/2+y,-z
-x,y,z
x,1/2-y,z
1/2+x,1/2+y,z
1/2-x,-y,z
1/2+x,1/2-y,-z
1/2-x,y,-z
1/2-x,1/2-y,-z
1/2+x,y,-z
1/2-x,1/2+y,z
1/2+x,-y,z
loop_
_atom_site_type_symbol
_atom_site_label
_atom_site_fract_x
_atom_site_fract_y
_atom_site_fract_z
Si Si1 0.950989 0.926157 0.912278
Si Si2 0.709830 0.915194 0.400415
Si Si3 0.885012 0.070869 0.233943
Si Si4 0.620824 0.572184 0.586018
Si Si5 0.209312 0.587807 0.798980
O O1 0.947843 0.750000 0.924631
O O2 0.921635 0.979295 0.832926
O O3 0.000000 0.978013 0.893041
O O4 0.933588 0.000000 0.000000
O O5 0.701311 0.750000 0.442014
O O6 0.719551 0.890031 0.300738
O O7 0.750000 0.000000 0.444046
O O8 0.670852 0.028249 0.417901
O O9 0.882036 0.250000 0.248102
O O10 0.838635 0.011905 0.195916
O O11 0.898173 0.996757 0.325239
O O12 0.598241 0.500000 0.500000
O O13 0.614016 0.750000 0.585954
O O14 0.207883 0.750000 0.845455
O O15 0.250000 0.500000 0.842009
#
# Coordination Sequence:
#
# PCOD8281347 Si02
#       5
#    16  16  16  16  16
#     4   9  18  34  58  86 112 134 158 197 253 314
#     4   9  16  27  41  60  88 124 168 217 264 306
#     4   9  18  33  51  73 103 137 170 208 257 306
#     4  11  21  32  46  66  94 131 174 216 257 302
#     4   8  14  24  40  62  91 127 166 206 244 286
#
# _framework density 18.703306000000001
#
# number of rings (size 3 to 8) (size 9 to 14) (size 15 to 20)
#    0.000    2.800    0.000    3.600    0.000    6.000 
#    0.000    2.000    0.000    1.200    0.000    4.200 
#    0.000    0.000    0.000    0.000    0.000    0.000 
#
# Total GULP energy -495524.121677 kJ/mol
# GULP energy per Si atom -12388.103042 kJ/mol
# Density = 1.866074 g / cm^3
# Si number density = 18.703306 Si / 1000 Ang^3
#
#
#
# Elastic Constant Matrix: (Units=GPa)
#
#
# Indices 1 2 3 4 5 6 
#
# 1 82.6820 31.9515 64.0197 0.0000 0.0000 0.0000
# 2 31.9515 85.1001 42.4416 0.0000 0.0000 0.0000
# 3 64.0197 42.4416 117.0298 0.0000 0.0000 0.0000
# 4 0.0000 0.0000 0.0000 24.4581 0.0000 0.0000
# 5 0.0000 0.0000 0.0000 0.0000 44.7625 0.0000
# 6 0.0000 0.0000 0.0000 0.0000 0.0000 19.6379
#
#
#
# Elastic Compliance Matrix: (Units=1/GPa)
#
#
# Indices 1 2 3 4 5 6 
#
# 1 0.021475 -0.002691 -0.010772 0.000000 0.000000 0.000000
# 2 -0.002691 0.014683 -0.003853 0.000000 0.000000 0.000000
# 3 -0.010772 -0.003853 0.015835 0.000000 0.000000 0.000000
# 4 0.000000 0.000000 0.000000 0.040886 0.000000 0.000000
# 5 0.000000 0.000000 0.000000 0.000000 0.022340 0.000000
# 6 0.000000 0.000000 0.000000 0.000000 0.000000 0.050922
#
#
# Mechanical properties :
#
#
# Convention : Reuss Voigt Hill
#
# Bulk Modulus (GPa) = 57.59876 62.40418 60.00147
# Shear Modulus (GPa) = 24.20630 27.53164 25.86897
#
# Velocity S-wave (km/s) = 3.60144 3.84085 3.72307
# Velocity P-wave (km/s) = 6.93950 7.28748 7.11562
#
# Compressibility (1/GPa) = 0.01736148
#
# Stress axis : x y z
#
# Youngs Moduli (GPa) = 46.56638 68.10772 63.15296
#
# Poissons Ratio (x) = 0.18326 0.68026
# Poissons Ratio (y) = 0.12530 0.24332
# Poissons Ratio (z) = 0.50160 0.26240
#
# Static dielectric constant tensor:
#      x y z
#    x 3.347590 0.000000 0.000000 
#    y 0.000000 3.646220 0.000000 
#    z 0.000000 0.000000 3.431900 
# 
# 
# High freq. dielectric constant tensor:
#      x y z
#    x 1.694520 0.000000 0.000000 
#    y 0.000000 1.724830 0.000000 
#    z 0.000000 0.000000 1.709830 
# 
# From -- ./inp_files/32311.got.cif
#   From: 2010.03.12/outbox.cif.g09.slc.cpg/sg67_17_cif.got.tgz:32311.got - 2010.04.10 22:41:39.
