data_PCOD8281228
_publ_section_title
;
Structure prediction by ZEFSAII (Michael W. Deem and Ramdas Pophale) SiO2 
 PCOD8281228
Probable space group: C M M A
;
_chemical_formula_sum "Si O2"
_cell_formula_units_Z 56
_cell_length_a 19.289664
_cell_length_b 20.671066
_cell_length_c 5.750361
_cell_angle_alpha 90.000000
_cell_angle_beta 90.000000
_cell_angle_gamma 90.000000
_cell_volume 2292.886971
_symmetry_space_group_name_H-M "C M M A"
_symmetry_group_IT_number 67
_symmetry_cell_setting 'orthorhombic'
loop_
_space_group_symop_operation_xyz
x,y,z
-x,1/2-y,z
x,-y,-z
-x,1/2+y,-z
-x,-y,-z
x,1/2+y,-z
-x,y,z
x,1/2-y,z
1/2+x,1/2+y,z
1/2-x,-y,z
1/2+x,1/2-y,-z
1/2-x,y,-z
1/2-x,1/2-y,-z
1/2+x,y,-z
1/2-x,1/2+y,z
1/2+x,-y,z
loop_
_atom_site_type_symbol
_atom_site_label
_atom_site_fract_x
_atom_site_fract_y
_atom_site_fract_z
Si Si1 0.923352 0.322680 0.862948
Si Si2 0.576635 0.054238 0.826834
Si Si3 0.289818 0.750000 0.244634
Si Si4 0.328850 0.871563 0.460067
O O1 0.906201 0.250000 0.960538
O O2 0.862074 0.341091 0.688959
O O3 0.000000 0.321231 0.740605
O O4 0.927733 0.375242 0.063036
O O5 0.500000 0.031924 0.742356
O O6 0.628410 0.063678 0.609641
O O7 0.607404 0.000000 0.000000
O O8 0.250000 0.750000 0.500000
O O9 0.332923 0.817101 0.253934
O O10 0.250000 0.750000 0.000000
O O11 0.250000 0.893649 0.500000
#
# Coordination Sequence:
#
# PCOD8281228 Si02
#       4
#    16  16   8  16
#     4  10  22  41  67 100 131 171 232 293 354 431
#     4  10  24  45  68  93 133 186 233 290 365 445
#     4  10  24  40  67 102 145 192 229 288 381 444
#     4  11  24  39  68  98 136 179 229 295 365 433
#
# _framework density 24.423359999999999
#
# number of rings (size 3 to 8) (size 9 to 14) (size 15 to 20)
#    0.000    1.714    1.429    0.857   10.000    1.143 
#    0.000    8.571    0.000    0.000    0.000    0.000 
#    0.000    0.000    0.000    0.000    0.000    0.000 
#
# Total GULP energy -346957.575591 kJ/mol
# GULP energy per Si atom -12391.341985 kJ/mol
# Density = 2.436777 g / cm^3
# Si number density = 24.423360 Si / 1000 Ang^3
#
#
#
# Elastic Constant Matrix: (Units=GPa)
#
#
# Indices 1 2 3 4 5 6 
#
# 1 110.7968 26.3753 5.3869 0.0000 0.0000 0.0000
# 2 26.3753 103.8635 12.7797 0.0000 0.0000 0.0000
# 3 5.3869 12.7797 47.8500 0.0000 0.0000 0.0000
# 4 0.0000 0.0000 0.0000 47.0136 0.0000 0.0000
# 5 0.0000 0.0000 0.0000 0.0000 25.1566 0.0000
# 6 0.0000 0.0000 0.0000 0.0000 0.0000 29.2473
#
#
#
# Elastic Compliance Matrix: (Units=1/GPa)
#
#
# Indices 1 2 3 4 5 6 
#
# 1 0.009615 -0.002387 -0.000445 0.000000 0.000000 0.000000
# 2 -0.002387 0.010548 -0.002548 0.000000 0.000000 0.000000
# 3 -0.000445 -0.002548 0.021629 0.000000 0.000000 0.000000
# 4 0.000000 0.000000 0.000000 0.021270 0.000000 0.000000
# 5 0.000000 0.000000 0.000000 0.000000 0.039751 0.000000
# 6 0.000000 0.000000 0.000000 0.000000 0.000000 0.034191
#
#
# Mechanical properties :
#
#
# Convention : Reuss Voigt Hill
#
# Bulk Modulus (GPa) = 32.22497 39.06600 35.64548
# Shear Modulus (GPa) = 31.62358 34.81469 33.21914
#
# Velocity S-wave (km/s) = 3.60225 3.77963 3.69201
# Velocity P-wave (km/s) = 5.52490 5.92263 5.72722
#
# Compressibility (1/GPa) = 0.03103184
#
# Stress axis : x y z
#
# Youngs Moduli (GPa) = 103.99986 94.80703 46.23345
#
# Poissons Ratio (x) = 0.22630 0.02057
# Poissons Ratio (y) = 0.24825 0.11782
# Poissons Ratio (z) = 0.04628 0.24160
#
# Static dielectric constant tensor:
#      x y z
#    x 5.016840 0.000000 0.000000 
#    y 0.000000 4.757840 0.000000 
#    z 0.000000 0.000000 3.962090 
# 
# 
# High freq. dielectric constant tensor:
#      x y z
#    x 1.987040 0.000000 0.000000 
#    y 0.000000 1.979600 0.000000 
#    z 0.000000 0.000000 1.949690 
# 
# From -- ./inp_files/2691.got.cif
#   From: 2010.03.12/outbox.cif.g09.slc.cpg/sg67_2_cif.got.tgz:2691.got - 2010.04.10 22:41:39.
