data_PCOD8281863
_publ_section_title
;
Structure prediction by ZEFSAII (Michael W. Deem and Ramdas Pophale) SiO2 
 PCOD8281863
Probable space group: C C C A
;
_chemical_formula_sum "Si O2"
_cell_formula_units_Z 104
_cell_length_a 26.479438
_cell_length_b 8.883726
_cell_length_c 24.373953
_cell_angle_alpha 90.000000
_cell_angle_beta 90.000000
_cell_angle_gamma 90.000000
_cell_volume 5733.632959
_symmetry_space_group_name_H-M "C C C A"
_symmetry_group_IT_number 68
_space_group.IT_coordinate_system_code '2'
_symmetry_cell_setting 'orthorhombic'
loop_
_space_group_symop_operation_xyz
x,y,z
-x,1/2-y,z
x,1/2-y,1/2-z
-x,y,1/2-z
-x,-y,-z
x,1/2+y,-z
-x,1/2+y,1/2+z
x,-y,1/2+z
1/2+x,1/2+y,z
1/2-x,-y,z
1/2+x,-y,1/2-z
1/2-x,1/2+y,1/2-z
1/2-x,1/2-y,-z
1/2+x,y,-z
1/2-x,y,1/2+z
1/2+x,1/2-y,1/2+z
loop_
_atom_site_type_symbol
_atom_site_label
_atom_site_fract_x
_atom_site_fract_y
_atom_site_fract_z
Si Si1 0.394830 0.450762 0.104686
Si Si2 0.807348 0.533056 0.109154
Si Si3 0.822237 0.288521 0.403968
Si Si4 0.032510 0.893228 0.962557
Si Si5 0.864267 0.214420 0.981327
Si Si6 0.750000 0.000000 0.150830
Si Si7 0.165224 0.709334 0.188701
O O1 0.366020 0.604370 0.117692
O O2 0.451929 0.504039 0.090683
O O3 0.371068 0.371939 0.050642
O O4 0.386572 0.340573 0.156852
O O5 0.750000 0.500000 0.090299
O O6 0.829448 0.370549 0.126983
O O7 0.840557 0.591529 0.058773
O O8 0.810354 0.644106 0.160808
O O9 0.825144 0.259635 0.469248
O O10 0.768948 0.365667 0.388701
O O11 0.000000 0.750000 0.942854
O O12 0.081797 0.841236 0.995979
O O13 0.000000 0.000000 0.000000
O O14 0.705815 0.072358 0.188190
O O15 0.149493 0.750000 0.250000
#
# Coordination Sequence:
#
# PCOD8281863 Si02
#       7
#    16  16  16  16  16   8  16
#     4   9  20  37  50  82 113 146 190 222 285 347
#     4  11  22  35  52  81 108 155 203 227 274 336
#     4  10  19  32  49  73 114 149 181 228 269 325
#     4  11  20  34  59  88 119 152 178 224 289 355
#     4  10  21  35  51  79 126 149 184 224 275 351
#     4  10  20  32  50  74 102 146 200 230 274 328
#     4  10  22  39  56  73 109 149 192 253 285 323
#
# _framework density 18.138586
#
# number of rings (size 3 to 8) (size 9 to 14) (size 15 to 20)
#    0.000    1.846    3.077    1.846    4.308    0.615 
#    0.000    2.308    0.000    0.000    0.000    8.615 
#    9.231    0.000    0.000    0.000    0.000    0.000 
#
# Total GULP energy -644423.091999 kJ/mol
# GULP energy per Si atom -12392.751769 kJ/mol
# Density = 1.809730 g / cm^3
# Si number density = 18.138586 Si / 1000 Ang^3
#
#
#
# Elastic Constant Matrix: (Units=GPa)
#
#
# Indices 1 2 3 4 5 6 
#
# 1 88.0218 38.5414 42.0795 0.0000 0.0000 0.0000
# 2 38.5414 127.3375 39.3513 0.0000 0.0000 0.0000
# 3 42.0795 39.3513 104.1621 0.0000 0.0000 0.0000
# 4 0.0000 0.0000 0.0000 19.5239 0.0000 0.0000
# 5 0.0000 0.0000 0.0000 0.0000 19.3163 0.0000
# 6 0.0000 0.0000 0.0000 0.0000 0.0000 36.8817
#
#
#
# Elastic Compliance Matrix: (Units=1/GPa)
#
#
# Indices 1 2 3 4 5 6 
#
# 1 0.015046 -0.003029 -0.004934 0.000000 0.000000 0.000000
# 2 -0.003029 0.009501 -0.002366 0.000000 0.000000 0.000000
# 3 -0.004934 -0.002366 0.012487 0.000000 0.000000 0.000000
# 4 0.000000 0.000000 0.000000 0.051219 0.000000 0.000000
# 5 0.000000 0.000000 0.000000 0.000000 0.051770 0.000000
# 6 0.000000 0.000000 0.000000 0.000000 0.000000 0.027114
#
#
# Mechanical properties :
#
#
# Convention : Reuss Voigt Hill
#
# Bulk Modulus (GPa) = 61.06193 62.16286 61.61240
# Shear Modulus (GPa) = 25.87275 28.44764 27.16019
#
# Velocity S-wave (km/s) = 3.78086 3.96454 3.87379
# Velocity P-wave (km/s) = 7.26616 7.43654 7.35184
#
# Compressibility (1/GPa) = 0.01637681
#
# Stress axis : x y z
#
# Youngs Moduli (GPa) = 66.46339 105.25127 80.08130
#
# Poissons Ratio (x) = 0.31883 0.39511
# Poissons Ratio (y) = 0.20133 0.18944
# Poissons Ratio (z) = 0.32792 0.24899
#
# Static dielectric constant tensor:
#      x y z
#    x 3.462470 0.000000 0.000000 
#    y 0.000000 3.818580 0.000000 
#    z 0.000000 0.000000 3.085250 
# 
# 
# High freq. dielectric constant tensor:
#      x y z
#    x 1.683430 0.000000 0.000000 
#    y 0.000000 1.733520 0.000000 
#    z 0.000000 0.000000 1.661540 
# 
# From -- ./inp_files/47559.got.cif
#   From: 2010.03.12/outbox.cif.g09.slc.cpg/sg68_24_cif.got.tgz:47559.got - 2010.04.10 23:14:56.
