data_PCOD8281139
_publ_section_title
;
Structure prediction by ZEFSAII (Michael W. Deem and Ramdas Pophale) SiO2 
 PCOD8281139
Probable space group: C M M A
;
_chemical_formula_sum "Si O2"
_cell_formula_units_Z 96
_cell_length_a 14.158139
_cell_length_b 17.161142
_cell_length_c 20.427529
_cell_angle_alpha 90.000000
_cell_angle_beta 90.000000
_cell_angle_gamma 90.000000
_cell_volume 4963.273327
_symmetry_space_group_name_H-M "C M M A"
_symmetry_group_IT_number 67
_symmetry_cell_setting 'orthorhombic'
loop_
_space_group_symop_operation_xyz
x,y,z
-x,1/2-y,z
x,-y,-z
-x,1/2+y,-z
-x,-y,-z
x,1/2+y,-z
-x,y,z
x,1/2-y,z
1/2+x,1/2+y,z
1/2-x,-y,z
1/2+x,1/2-y,-z
1/2-x,y,-z
1/2-x,1/2-y,-z
1/2+x,y,-z
1/2-x,1/2+y,z
1/2+x,-y,z
loop_
_atom_site_type_symbol
_atom_site_label
_atom_site_fract_x
_atom_site_fract_y
_atom_site_fract_z
Si Si1 0.500000 0.062187 0.175672
Si Si2 0.000000 0.942741 0.939388
Si Si3 0.500000 0.062949 0.557350
Si Si4 0.209090 0.412879 0.679165
Si Si5 0.685160 0.659791 0.059912
Si Si6 0.186268 0.341076 0.815918
Si Si7 0.313443 0.840566 0.440044
Si Si8 0.500000 0.545710 0.676471
O O1 0.590074 0.116569 0.163988
O O2 0.500000 0.022053 0.247244
O O3 0.500000 0.990555 0.127115
O O4 0.909319 0.888868 0.941829
O O5 0.000000 0.000000 0.000000
O O6 0.409952 0.115663 0.549937
O O7 0.500000 0.000000 0.500000
O O8 0.500000 0.028981 0.630424
O O9 0.250000 0.500000 0.675397
O O10 0.230100 0.377663 0.750310
O O11 0.262756 0.359715 0.627694
O O12 0.096742 0.406612 0.662820
O O13 0.658423 0.750000 0.051677
O O14 0.738054 0.643935 0.127716
O O15 0.750000 0.631707 0.000000
O O16 0.164810 0.250000 0.805822
O O17 0.335347 0.750000 0.442725
O O18 0.250000 0.868841 0.500000
#
# Coordination Sequence:
#
# PCOD8281139 Si02
#       8
#     8   8   8  16  16  16  16   8
#     4  10  23  37  61  89 126 156 198 258 295 358
#     4  12  25  38  59  94 120 156 203 255 307 357
#     4  12  23  39  65  91 122 162 210 249 305 373
#     4  11  22  39  65  91 125 162 205 257 305 368
#     4  10  23  42  63  86 121 163 203 249 308 371
#     4  10  22  40  63  90 121 164 204 248 305 361
#     4  11  25  42  62  92 126 163 205 257 313 368
#     4  10  22  38  58  96 116 160 205 247 303 349
#
# _framework density 19.342075000000001
#
# number of rings (size 3 to 8) (size 9 to 14) (size 15 to 20)
#    0.000    1.333    1.667    3.250    4.667    1.667 
#    0.000    5.417    0.000    4.000    0.000    0.000 
#    0.000    0.000    0.000    0.000    0.000    0.000 
#
# Total GULP energy -595355.152991 kJ/mol
# GULP energy per Si atom -12403.232354 kJ/mol
# Density = 1.929805 g / cm^3
# Si number density = 19.342075 Si / 1000 Ang^3
#
#
#
# Elastic Constant Matrix: (Units=GPa)
#
#
# Indices 1 2 3 4 5 6 
#
# 1 163.7479 70.2092 64.1583 0.0000 0.0000 0.0000
# 2 70.2092 77.4288 46.9135 0.0000 0.0000 0.0000
# 3 64.1583 46.9135 110.0322 0.0000 0.0000 0.0000
# 4 0.0000 0.0000 0.0000 34.6814 0.0000 0.0000
# 5 0.0000 0.0000 0.0000 0.0000 28.6357 0.0000
# 6 0.0000 0.0000 0.0000 0.0000 0.0000 21.3345
#
#
#
# Elastic Compliance Matrix: (Units=1/GPa)
#
#
# Indices 1 2 3 4 5 6 
#
# 1 0.010598 -0.007909 -0.002808 0.000000 0.000000 0.000000
# 2 -0.007909 0.023315 -0.005329 0.000000 0.000000 0.000000
# 3 -0.002808 -0.005329 0.012998 0.000000 0.000000 0.000000
# 4 0.000000 0.000000 0.000000 0.028834 0.000000 0.000000
# 5 0.000000 0.000000 0.000000 0.000000 0.034921 0.000000
# 6 0.000000 0.000000 0.000000 0.000000 0.000000 0.046872
#
#
# Mechanical properties :
#
#
# Convention : Reuss Voigt Hill
#
# Bulk Modulus (GPa) = 67.47789 79.30789 73.39289
# Shear Modulus (GPa) = 25.69776 28.25886 26.97831
#
# Velocity S-wave (km/s) = 3.64894 3.82646 3.73875
# Velocity P-wave (km/s) = 7.26053 7.78551 7.52760
#
# Compressibility (1/GPa) = 0.01481967
#
# Stress axis : x y z
#
# Youngs Moduli (GPa) = 94.35798 42.89021 76.93786
#
# Poissons Ratio (x) = 0.33921 0.21601
# Poissons Ratio (y) = 0.74625 0.41003
# Poissons Ratio (z) = 0.26491 0.22858
#
# Static dielectric constant tensor:
#      x y z
#    x 3.635300 0.000000 0.000000 
#    y 0.000000 3.598640 0.000000 
#    z 0.000000 0.000000 3.788090 
# 
# 
# High freq. dielectric constant tensor:
#      x y z
#    x 1.767990 0.000000 0.000000 
#    y 0.000000 1.754730 0.000000 
#    z 0.000000 0.000000 1.772190 
# 
# From -- ./inp_files/38591.got.cif
#   From: 2010.03.12/outbox.cif.g09.slc.cpg/sg67_20_cif.got.tgz:38591.got - 2010.04.10 22:41:39.
