data_PCOD8281575
_publ_section_title
;
Structure prediction by ZEFSAII (Michael W. Deem and Ramdas Pophale) SiO2 
 PCOD8281575
Probable space group: C M M A
;
_chemical_formula_sum "Si O2"
_cell_formula_units_Z 80
_cell_length_a 9.611496
_cell_length_b 27.286866
_cell_length_c 18.664191
_cell_angle_alpha 90.000000
_cell_angle_beta 90.000000
_cell_angle_gamma 90.000000
_cell_volume 4895.012643
_symmetry_space_group_name_H-M "C M M A"
_symmetry_group_IT_number 67
_symmetry_cell_setting 'orthorhombic'
loop_
_space_group_symop_operation_xyz
x,y,z
-x,1/2-y,z
x,-y,-z
-x,1/2+y,-z
-x,-y,-z
x,1/2+y,-z
-x,y,z
x,1/2-y,z
1/2+x,1/2+y,z
1/2-x,-y,z
1/2+x,1/2-y,-z
1/2-x,y,-z
1/2-x,1/2-y,-z
1/2+x,y,-z
1/2-x,1/2+y,z
1/2+x,-y,z
loop_
_atom_site_type_symbol
_atom_site_label
_atom_site_fract_x
_atom_site_fract_y
_atom_site_fract_z
Si Si1 0.661135 0.452714 0.285918
Si Si2 0.665586 0.695916 0.646415
Si Si3 0.835469 0.145611 0.787158
Si Si4 0.661702 0.399031 0.432788
Si Si5 0.338766 0.807168 0.931945
O O1 0.500000 0.466126 0.277280
O O2 0.750000 0.500000 0.267021
O O3 0.704996 0.410590 0.229375
O O4 0.691808 0.434753 0.366420
O O5 0.500000 0.695568 0.650597
O O6 0.722567 0.750000 0.626048
O O7 0.725458 0.680380 0.724265
O O8 0.711866 0.656145 0.587231
O O9 0.778319 0.162671 0.864154
O O10 0.000000 0.151754 0.786961
O O11 0.500000 0.399941 0.453616
O O12 0.750000 0.418044 0.500000
O O13 0.500000 0.819171 0.946975
O O14 0.317362 0.750000 0.915569
O O15 0.250000 0.824265 0.000000
#
# Coordination Sequence:
#
# PCOD8281575 Si02
#       5
#    16  16  16  16  16
#     4   9  18  32  48  65  83 106 141 182 219 253
#     4   8  13  23  41  63  84 109 143 177 206 242
#     4   8  14  26  44  64  86 112 143 177 209 246
#     4   9  18  30  43  62  87 111 137 173 214 255
#     4   9  16  26  43  68  95 120 143 168 202 245
#
# _framework density 16.343166
#
# number of rings (size 3 to 8) (size 9 to 14) (size 15 to 20)
#    0.000    3.400    0.000    3.000    0.000    4.000 
#    0.000    3.000    0.000    1.800    0.000    4.200 
#    0.000    0.000    0.000    0.000    0.000    0.000 
#
# Total GULP energy -495773.721658 kJ/mol
# GULP energy per Si atom -12394.343041 kJ/mol
# Density = 1.630597 g / cm^3
# Si number density = 16.343166 Si / 1000 Ang^3
#
#
#
# Elastic Constant Matrix: (Units=GPa)
#
#
# Indices 1 2 3 4 5 6 
#
# 1 34.2019 24.9780 35.1086 0.0000 0.0000 0.0000
# 2 24.9780 78.6476 29.8360 0.0000 0.0000 0.0000
# 3 35.1086 29.8360 105.4175 0.0000 0.0000 0.0000
# 4 0.0000 0.0000 0.0000 16.6630 0.0000 0.0000
# 5 0.0000 0.0000 0.0000 0.0000 23.2332 0.0000
# 6 0.0000 0.0000 0.0000 0.0000 0.0000 21.9380
#
#
#
# Elastic Compliance Matrix: (Units=1/GPa)
#
#
# Indices 1 2 3 4 5 6 
#
# 1 0.051849 -0.011109 -0.014124 0.000000 0.000000 0.000000
# 2 -0.011109 0.016624 -0.001005 0.000000 0.000000 0.000000
# 3 -0.014124 -0.001005 0.014475 0.000000 0.000000 0.000000
# 4 0.000000 0.000000 0.000000 0.060013 0.000000 0.000000
# 5 0.000000 0.000000 0.000000 0.000000 0.043042 0.000000
# 6 0.000000 0.000000 0.000000 0.000000 0.000000 0.045583
#
#
# Mechanical properties :
#
#
# Convention : Reuss Voigt Hill
#
# Bulk Modulus (GPa) = 32.81722 44.23467 38.52594
# Shear Modulus (GPa) = 16.99407 20.92314 18.95860
#
# Velocity S-wave (km/s) = 3.22813 3.58192 3.40962
# Velocity P-wave (km/s) = 5.83251 6.65070 6.25500
#
# Compressibility (1/GPa) = 0.03047181
#
# Stress axis : x y z
#
# Youngs Moduli (GPa) = 19.28662 60.15227 69.08677
#
# Poissons Ratio (x) = 0.66823 0.97578
# Poissons Ratio (y) = 0.21425 0.06946
# Poissons Ratio (z) = 0.27240 0.06048
#
# Static dielectric constant tensor:
#      x y z
#    x 2.671200 0.000000 0.000000 
#    y 0.000000 3.141360 0.000000 
#    z 0.000000 0.000000 3.168860 
# 
# 
# High freq. dielectric constant tensor:
#      x y z
#    x 1.586280 0.000000 0.000000 
#    y 0.000000 1.625410 0.000000 
#    z 0.000000 0.000000 1.623650 
# 
# From -- ./inp_files/26083.got.cif
#   From: 2010.03.12/outbox.cif.g09.slc.cpg/sg67_14_cif.got.tgz:26083.got - 2010.04.10 22:41:39.
