data_PCOD8281716
_publ_section_title
;
Structure prediction by ZEFSAII (Michael W. Deem and Ramdas Pophale) SiO2 
 PCOD8281716
Probable space group: C C C A
;
_chemical_formula_sum "Si O2"
_cell_formula_units_Z 120
_cell_length_a 19.251325
_cell_length_b 26.840633
_cell_length_c 11.797837
_cell_angle_alpha 90.000000
_cell_angle_beta 90.000000
_cell_angle_gamma 90.000000
_cell_volume 6096.151779
_symmetry_space_group_name_H-M "C C C A"
_symmetry_group_IT_number 68
_space_group.IT_coordinate_system_code '2'
_symmetry_cell_setting 'orthorhombic'
loop_
_space_group_symop_operation_xyz
x,y,z
-x,1/2-y,z
x,1/2-y,1/2-z
-x,y,1/2-z
-x,-y,-z
x,1/2+y,-z
-x,1/2+y,1/2+z
x,-y,1/2+z
1/2+x,1/2+y,z
1/2-x,-y,z
1/2+x,-y,1/2-z
1/2-x,1/2+y,1/2-z
1/2-x,1/2-y,-z
1/2+x,y,-z
1/2-x,y,1/2+z
1/2+x,1/2-y,1/2+z
loop_
_atom_site_type_symbol
_atom_site_label
_atom_site_fract_x
_atom_site_fract_y
_atom_site_fract_z
Si Si1 0.306539 0.959739 0.163352
Si Si2 0.342561 0.631888 0.497376
Si Si3 0.287496 0.383552 0.643614
Si Si4 0.861798 0.694050 0.707403
Si Si5 0.923016 0.583262 0.949034
Si Si6 0.000000 0.141799 0.250000
Si Si7 0.528814 0.109549 0.135432
Si Si8 0.428082 0.496029 0.198844
O O1 0.335162 0.920924 0.069193
O O2 0.274889 0.928716 0.268589
O O3 0.370772 0.991661 0.207516
O O4 0.250000 0.000000 0.116115
O O5 0.285101 0.632960 0.593214
O O6 0.330955 0.680133 0.416632
O O7 0.418133 0.640238 0.556917
O O8 0.317524 0.335228 0.702114
O O9 0.343331 0.397682 0.545665
O O10 0.856429 0.750000 0.750000
O O11 0.941491 0.676997 0.697381
O O12 0.965265 0.608344 0.846368
O O13 0.917549 0.524548 0.920796
O O14 0.960054 0.592942 0.067573
O O15 0.500000 0.137368 0.250000
O O16 0.573516 0.062310 0.175099
O O17 0.500000 0.514275 0.250000
#
# Coordination Sequence:
#
# PCOD8281716 Si02
#       8
#    16  16  16  16  16   8  16  16
#     4  10  21  36  55  79 115 161 207 245 280 349
#     4  11  22  39  57  82 122 159 194 252 308 340
#     4   9  22  36  57  87 115 151 193 240 301 361
#     4  10  21  38  64  90 109 142 193 253 311 362
#     4  10  18  35  56  81 117 153 193 249 288 338
#     4  10  17  36  64  88 112 138 194 248 306 347
#     4  11  23  34  52  81 119 164 202 234 291 359
#     4  10  19  31  51  78 110 153 208 248 284 330
#
# _framework density 19.684549000000001
#
# number of rings (size 3 to 8) (size 9 to 14) (size 15 to 20)
#    0.000    1.867    2.000    3.000    0.000    8.533 
#    0.000    0.000    0.000    0.000    0.000    3.733 
#    0.000    0.000    0.000    0.000    0.000    0.000 
#
# Total GULP energy -743601.923345 kJ/mol
# GULP energy per Si atom -12393.365389 kJ/mol
# Density = 1.963975 g / cm^3
# Si number density = 19.684549 Si / 1000 Ang^3
#
#
#
# Elastic Constant Matrix: (Units=GPa)
#
#
# Indices 1 2 3 4 5 6 
#
# 1 76.0687 6.1894 25.1810 0.0000 0.0000 0.0000
# 2 6.1894 74.1538 8.0945 0.0000 0.0000 0.0000
# 3 25.1810 8.0945 74.1337 0.0000 0.0000 0.0000
# 4 0.0000 0.0000 0.0000 10.3793 0.0000 0.0000
# 5 0.0000 0.0000 0.0000 0.0000 31.0991 0.0000
# 6 0.0000 0.0000 0.0000 0.0000 0.0000 8.0503
#
#
#
# Elastic Compliance Matrix: (Units=1/GPa)
#
#
# Indices 1 2 3 4 5 6 
#
# 1 0.014847 -0.000697 -0.004967 0.000000 0.000000 0.000000
# 2 -0.000697 0.013681 -0.001257 0.000000 0.000000 0.000000
# 3 -0.004967 -0.001257 0.015314 0.000000 0.000000 0.000000
# 4 0.000000 0.000000 0.000000 0.096346 0.000000 0.000000
# 5 0.000000 0.000000 0.000000 0.000000 0.032155 0.000000
# 6 0.000000 0.000000 0.000000 0.000000 0.000000 0.124219
#
#
# Mechanical properties :
#
#
# Convention : Reuss Voigt Hill
#
# Bulk Modulus (GPa) = 33.33412 33.69845 33.51629
# Shear Modulus (GPa) = 15.60534 22.23182 18.91858
#
# Velocity S-wave (km/s) = 2.81867 3.36431 3.10351
# Velocity P-wave (km/s) = 5.25016 5.67872 5.46864
#
# Compressibility (1/GPa) = 0.02999929
#
# Stress axis : x y z
#
# Youngs Moduli (GPa) = 67.35398 73.09473 65.30183
#
# Poissons Ratio (x) = 0.05095 0.32435
# Poissons Ratio (y) = 0.04695 0.08209
# Poissons Ratio (z) = 0.33454 0.09188
#
# Static dielectric constant tensor:
#      x y z
#    x 3.764780 0.000000 0.000000 
#    y 0.000000 3.285330 0.000000 
#    z 0.000000 0.000000 3.628590 
# 
# 
# High freq. dielectric constant tensor:
#      x y z
#    x 1.777920 0.000000 0.000000 
#    y 0.000000 1.726620 0.000000 
#    z 0.000000 0.000000 1.767070 
# 
# From -- ./inp_files/15895.got.cif
#   From: 2010.03.12/outbox.cif.g09.slc.cpg/sg68_8_cif.got.tgz:15895.got - 2010.04.10 23:14:56.
