data_PCOD8281078
_publ_section_title
;
Structure prediction by ZEFSAII (Michael W. Deem and Ramdas Pophale) SiO2 
 PCOD8281078
Probable space group: C M M A
;
_chemical_formula_sum "Si O2"
_cell_formula_units_Z 92
_cell_length_a 22.409779
_cell_length_b 21.201256
_cell_length_c 8.578164
_cell_angle_alpha 90.000000
_cell_angle_beta 90.000000
_cell_angle_gamma 90.000000
_cell_volume 4075.618348
_symmetry_space_group_name_H-M "C M M A"
_symmetry_group_IT_number 67
_symmetry_cell_setting 'orthorhombic'
loop_
_space_group_symop_operation_xyz
x,y,z
-x,1/2-y,z
x,-y,-z
-x,1/2+y,-z
-x,-y,-z
x,1/2+y,-z
-x,y,z
x,1/2-y,z
1/2+x,1/2+y,z
1/2-x,-y,z
1/2+x,1/2-y,-z
1/2-x,y,-z
1/2-x,1/2-y,-z
1/2+x,y,-z
1/2-x,1/2+y,z
1/2+x,-y,z
loop_
_atom_site_type_symbol
_atom_site_label
_atom_site_fract_x
_atom_site_fract_y
_atom_site_fract_z
Si Si1 0.618632 0.479092 0.178831
Si Si2 0.567480 0.750000 0.752385
Si Si3 0.000000 0.008478 0.688564
Si Si4 0.659965 0.641576 0.683071
Si Si5 0.500000 0.631616 0.273780
Si Si6 0.369906 0.891152 0.345399
Si Si7 0.000000 0.250000 0.047971
Si Si8 0.774200 0.678920 0.840471
O O1 0.556035 0.452624 0.247421
O O2 0.661043 0.418748 0.199901
O O3 0.634333 0.536389 0.293835
O O4 0.617183 0.500000 0.000000
O O5 0.500000 0.750000 0.675076
O O6 0.603827 0.687840 0.704630
O O7 0.559368 0.750000 0.940229
O O8 0.000000 0.941341 0.784337
O O9 0.000000 0.000000 0.500000
O O10 0.662681 0.615543 0.508720
O O11 0.722005 0.677340 0.711573
O O12 0.562552 0.636442 0.367864
O O13 0.500000 0.685326 0.144086
O O14 0.335024 0.853361 0.213071
O O15 0.793167 0.750000 0.875508
O O16 0.750000 0.647289 0.000000
#
# Coordination Sequence:
#
# PCOD8281078 Si02
#       8
#    16   8   8  16   8  16   4  16
#     4  11  24  41  71 100 137 181 232 289 348 412
#     4  10  28  41  69 101 147 185 234 282 351 410
#     4  10  21  40  63  97 139 183 230 280 355 416
#     4  12  25  46  71 101 146 179 238 281 354 415
#     4  10  24  40  69 100 141 177 230 285 350 405
#     4  11  26  45  70 104 142 181 235 286 355 411
#     4  10  26  40  66 102 148 176 240 284 348 404
#     4  11  26  45  72  99 140 187 236 285 343 418
#
# _framework density 22.573262
#
# number of rings (size 3 to 8) (size 9 to 14) (size 15 to 20)
#    0.261    0.870    0.870    4.435   12.174    1.391 
#    0.000    3.478    0.000    0.000    0.000    0.000 
#    0.000    0.000    0.000    0.000    0.000    0.000 
#
# Total GULP energy -570069.859281 kJ/mol
# GULP energy per Si atom -12392.823028 kJ/mol
# Density = 2.252188 g / cm^3
# Si number density = 22.573262 Si / 1000 Ang^3
#
#
#
# Elastic Constant Matrix: (Units=GPa)
#
#
# Indices 1 2 3 4 5 6 
#
# 1 103.0255 22.1459 6.8119 0.0000 0.0000 0.0000
# 2 22.1459 109.0909 32.1148 0.0000 0.0000 0.0000
# 3 6.8119 32.1148 112.8408 0.0000 0.0000 0.0000
# 4 0.0000 0.0000 0.0000 35.5748 0.0000 0.0000
# 5 0.0000 0.0000 0.0000 0.0000 35.8062 0.0000
# 6 0.0000 0.0000 0.0000 0.0000 0.0000 14.3346
#
#
#
# Elastic Compliance Matrix: (Units=1/GPa)
#
#
# Indices 1 2 3 4 5 6 
#
# 1 0.010149 -0.002052 -0.000029 0.000000 0.000000 0.000000
# 2 -0.002052 0.010420 -0.002842 0.000000 0.000000 0.000000
# 3 -0.000029 -0.002842 0.009673 0.000000 0.000000 0.000000
# 4 0.000000 0.000000 0.000000 0.028110 0.000000 0.000000
# 5 0.000000 0.000000 0.000000 0.000000 0.027928 0.000000
# 6 0.000000 0.000000 0.000000 0.000000 0.000000 0.069762
#
#
# Mechanical properties :
#
#
# Convention : Reuss Voigt Hill
#
# Bulk Modulus (GPa) = 49.02660 49.67806 49.35233
# Shear Modulus (GPa) = 28.95454 34.73541 31.84497
#
# Velocity S-wave (km/s) = 3.58535 3.92699 3.76005
# Velocity P-wave (km/s) = 6.23744 6.52816 6.38446
#
# Compressibility (1/GPa) = 0.02039709
#
# Stress axis : x y z
#
# Youngs Moduli (GPa) = 98.52891 95.97159 103.38574
#
# Poissons Ratio (x) = 0.19692 0.00297
# Poissons Ratio (y) = 0.20217 0.29378
# Poissons Ratio (z) = 0.00283 0.27272
#
# Static dielectric constant tensor:
#      x y z
#    x 4.246670 0.000000 0.000000 
#    y 0.000000 3.981730 0.000000 
#    z 0.000000 0.000000 3.914210 
# 
# 
# High freq. dielectric constant tensor:
#      x y z
#    x 1.894250 0.000000 0.000000 
#    y 0.000000 1.892730 0.000000 
#    z 0.000000 0.000000 1.886780 
# 
# From -- ./inp_files/12531.got.cif
#   From: 2010.03.12/outbox.cif.g09.slc.cpg/sg67_7_cif.got.tgz:12531.got - 2010.04.10 22:41:39.
