data_PCOD8281122
_publ_section_title
;
Structure prediction by ZEFSAII (Michael W. Deem and Ramdas Pophale) SiO2 
 PCOD8281122
Probable space group: C M M A
;
_chemical_formula_sum "Si O2"
_cell_formula_units_Z 96
_cell_length_a 14.456466
_cell_length_b 17.118475
_cell_length_c 19.540778
_cell_angle_alpha 90.000000
_cell_angle_beta 90.000000
_cell_angle_gamma 90.000000
_cell_volume 4835.808150
_symmetry_space_group_name_H-M "C M M A"
_symmetry_group_IT_number 67
_symmetry_cell_setting 'orthorhombic'
loop_
_space_group_symop_operation_xyz
x,y,z
-x,1/2-y,z
x,-y,-z
-x,1/2+y,-z
-x,-y,-z
x,1/2+y,-z
-x,y,z
x,1/2-y,z
1/2+x,1/2+y,z
1/2-x,-y,z
1/2+x,1/2-y,-z
1/2-x,y,-z
1/2-x,1/2-y,-z
1/2+x,y,-z
1/2-x,1/2+y,z
1/2+x,-y,z
loop_
_atom_site_type_symbol
_atom_site_label
_atom_site_fract_x
_atom_site_fract_y
_atom_site_fract_z
Si Si1 0.836742 0.667560 0.541927
Si Si2 0.500000 0.949866 0.183357
Si Si3 0.000000 0.506018 0.669264
Si Si4 0.688288 0.658586 0.935462
Si Si5 0.806863 0.578315 0.671274
Si Si6 0.178527 0.157967 0.189636
Si Si7 0.500000 0.082625 0.465767
Si Si8 0.500000 0.062665 0.059485
O O1 0.881503 0.750000 0.568918
O O2 0.750000 0.692818 0.500000
O O3 0.783916 0.619876 0.601086
O O4 0.908844 0.624771 0.492388
O O5 0.411871 0.893708 0.175883
O O6 0.500000 0.008559 0.249108
O O7 0.500000 0.014574 0.127450
O O8 0.086312 0.561360 0.656505
O O9 0.000000 0.430146 0.618125
O O10 0.666774 0.750000 0.937395
O O11 0.742744 0.636184 0.865805
O O12 0.591009 0.615593 0.942127
O O13 0.750000 0.633006 0.000000
O O14 0.750000 0.500000 0.683305
O O15 0.785389 0.635514 0.734920
O O16 0.154037 0.250000 0.185755
O O17 0.500000 0.000000 0.500000
O O18 0.500000 0.000000 0.000000
#
# Coordination Sequence:
#
# PCOD8281122 Si02
#       8
#    16   8   8  16  16  16   8   8
#     4  11  24  39  59  89 123 157 203 262 319 382
#     4  10  23  37  62  92 127 160 207 267 309 382
#     4  10  22  37  54  91 116 161 205 253 311 364
#     4  10  23  43  66  91 127 170 213 257 316 382
#     4  11  22  37  62  88 122 161 206 260 312 375
#     4  10  22  40  62  89 124 167 207 256 316 375
#     4  12  21  38  64  86 117 160 212 254 314 374
#     4  12  25  40  65  99 130 163 208 265 317 364
#
# _framework density 19.851904000000001
#
# number of rings (size 3 to 8) (size 9 to 14) (size 15 to 20)
#    0.000    1.333    1.667    3.250    4.667    1.667 
#    0.000    5.833    0.000    1.000    0.000    0.000 
#    0.000    0.000    0.000    0.000    0.000    0.000 
#
# Total GULP energy -594629.622699 kJ/mol
# GULP energy per Si atom -12388.117140 kJ/mol
# Density = 1.980672 g / cm^3
# Si number density = 19.851904 Si / 1000 Ang^3
#
#
#
# Elastic Constant Matrix: (Units=GPa)
#
#
# Indices 1 2 3 4 5 6 
#
# 1 130.3895 60.3874 55.7891 0.0000 0.0000 0.0000
# 2 60.3874 107.5209 56.4665 0.0000 0.0000 0.0000
# 3 55.7891 56.4665 151.0506 0.0000 0.0000 0.0000
# 4 0.0000 0.0000 0.0000 38.6095 0.0000 0.0000
# 5 0.0000 0.0000 0.0000 0.0000 90.9072 0.0000
# 6 0.0000 0.0000 0.0000 0.0000 0.0000 19.4446
#
#
#
# Elastic Compliance Matrix: (Units=1/GPa)
#
#
# Indices 1 2 3 4 5 6 
#
# 1 0.010905 -0.004989 -0.002163 0.000000 0.000000 0.000000
# 2 -0.004989 0.013855 -0.003337 0.000000 0.000000 0.000000
# 3 -0.002163 -0.003337 0.008666 0.000000 0.000000 0.000000
# 4 0.000000 0.000000 0.000000 0.025900 0.000000 0.000000
# 5 0.000000 0.000000 0.000000 0.000000 0.011000 0.000000
# 6 0.000000 0.000000 0.000000 0.000000 0.000000 0.051428
#
#
# Mechanical properties :
#
#
# Convention : Reuss Voigt Hill
#
# Bulk Modulus (GPa) = 80.32296 81.58301 80.95299
# Shear Modulus (GPa) = 34.04101 44.21347 39.12724
#
# Velocity S-wave (km/s) = 4.14544 4.72441 4.44436
# Velocity P-wave (km/s) = 7.96630 8.42289 8.19777
#
# Compressibility (1/GPa) = 0.01244974
#
# Stress axis : x y z
#
# Youngs Moduli (GPa) = 91.69919 72.17733 115.38806
#
# Poissons Ratio (x) = 0.36009 0.24956
# Poissons Ratio (y) = 0.45748 0.38501
# Poissons Ratio (z) = 0.19832 0.24083
#
# Static dielectric constant tensor:
#      x y z
#    x 3.719920 0.000000 0.000000 
#    y 0.000000 4.224580 0.000000 
#    z 0.000000 0.000000 3.895770 
# 
# 
# High freq. dielectric constant tensor:
#      x y z
#    x 1.780610 0.000000 0.000000 
#    y 0.000000 1.778800 0.000000 
#    z 0.000000 0.000000 1.790470 
# 
# From -- ./inp_files/38560.got.cif
#   From: 2010.03.12/outbox.cif.g09.slc.cpg/sg67_20_cif.got.tgz:38560.got - 2010.04.10 22:41:39.
