data_PCOD8281427
_publ_section_title
;
Structure prediction by ZEFSAII (Michael W. Deem and Ramdas Pophale) SiO2 
 PCOD8281427
Probable space group: C M M A
;
_chemical_formula_sum "Si O2"
_cell_formula_units_Z 96
_cell_length_a 16.054417
_cell_length_b 19.131246
_cell_length_c 16.027921
_cell_angle_alpha 90.000000
_cell_angle_beta 90.000000
_cell_angle_gamma 90.000000
_cell_volume 4922.831700
_symmetry_space_group_name_H-M "C M M A"
_symmetry_group_IT_number 67
_symmetry_cell_setting 'orthorhombic'
loop_
_space_group_symop_operation_xyz
x,y,z
-x,1/2-y,z
x,-y,-z
-x,1/2+y,-z
-x,-y,-z
x,1/2+y,-z
-x,y,z
x,1/2-y,z
1/2+x,1/2+y,z
1/2-x,-y,z
1/2+x,1/2-y,-z
1/2-x,y,-z
1/2-x,1/2-y,-z
1/2+x,y,-z
1/2-x,1/2+y,z
1/2+x,-y,z
loop_
_atom_site_type_symbol
_atom_site_label
_atom_site_fract_x
_atom_site_fract_y
_atom_site_fract_z
Si Si1 0.402903 0.100199 0.439181
Si Si2 0.202477 0.070251 0.229382
Si Si3 0.840027 0.075348 0.038321
Si Si4 0.500000 0.333518 0.007579
Si Si5 0.000000 0.168338 0.799180
Si Si6 0.904553 0.943723 0.615431
Si Si7 0.161886 0.668872 0.287451
O O1 0.500000 0.122744 0.436086
O O2 0.368781 0.097840 0.534341
O O3 0.345152 0.153265 0.386436
O O4 0.389863 0.025444 0.396501
O O5 0.165869 0.066026 0.137190
O O6 0.131745 0.082732 0.297850
O O7 0.261458 0.136506 0.238438
O O8 0.250000 0.000000 0.253038
O O9 0.750000 0.100102 0.000000
O O10 0.914232 0.131383 0.025191
O O11 0.864644 0.000000 0.000000
O O12 0.500000 0.250000 0.986947
O O13 0.500000 0.349025 0.104578
O O14 0.919333 0.134854 0.756200
O O15 0.000000 0.250000 0.780580
O O16 0.000000 0.924825 0.618790
O O17 0.169886 0.750000 0.271379
#
# Coordination Sequence:
#
# PCOD8281427 Si02
#       7
#    16  16  16   8   8  16  16
#     4   9  17  35  58  86 119 154 196 252 304 364
#     4  12  23  39  62  90 122 164 208 258 314 368
#     4  11  24  44  65  96 132 166 216 275 328 389
#     4  11  25  43  67  96 127 172 216 262 334 400
#     4   9  20  37  61  91 119 153 198 247 305 369
#     4   9  20  36  59  86 116 157 205 246 302 366
#     4  11  22  37  61  93 126 161 203 255 312 370
#
# _framework density 19.500969999999999
#
# number of rings (size 3 to 8) (size 9 to 14) (size 15 to 20)
#    0.000    1.667    4.167    2.250    1.167    1.667 
#    0.000    1.667    0.000    1.000    0.000    0.000 
#    0.000    0.000    0.000    0.000    0.000    0.000 
#
# Total GULP energy -594977.861168 kJ/mol
# GULP energy per Si atom -12395.372108 kJ/mol
# Density = 1.945659 g / cm^3
# Si number density = 19.500970 Si / 1000 Ang^3
#
#
#
# Elastic Constant Matrix: (Units=GPa)
#
#
# Indices 1 2 3 4 5 6 
#
# 1 79.3391 43.4653 48.5987 0.0000 0.0000 0.0000
# 2 43.4653 81.0874 35.9803 0.0000 0.0000 0.0000
# 3 48.5987 35.9803 153.2481 0.0000 0.0000 0.0000
# 4 0.0000 0.0000 0.0000 24.5983 0.0000 0.0000
# 5 0.0000 0.0000 0.0000 0.0000 30.9378 0.0000
# 6 0.0000 0.0000 0.0000 0.0000 0.0000 30.1944
#
#
#
# Elastic Compliance Matrix: (Units=1/GPa)
#
#
# Indices 1 2 3 4 5 6 
#
# 1 0.020088 -0.008864 -0.004289 0.000000 0.000000 0.000000
# 2 -0.008864 0.017678 -0.001339 0.000000 0.000000 0.000000
# 3 -0.004289 -0.001339 0.008200 0.000000 0.000000 0.000000
# 4 0.000000 0.000000 0.000000 0.040653 0.000000 0.000000
# 5 0.000000 0.000000 0.000000 0.000000 0.032323 0.000000
# 6 0.000000 0.000000 0.000000 0.000000 0.000000 0.033119
#
#
# Mechanical properties :
#
#
# Convention : Reuss Voigt Hill
#
# Bulk Modulus (GPa) = 58.89250 63.30700 61.09975
# Shear Modulus (GPa) = 26.77993 29.52143 28.15068
#
# Velocity S-wave (km/s) = 3.70977 3.89504 3.80353
# Velocity P-wave (km/s) = 6.97246 7.26377 7.11961
#
# Compressibility (1/GPa) = 0.01698009
#
# Stress axis : x y z
#
# Youngs Moduli (GPa) = 49.78173 56.56637 121.95094
#
# Poissons Ratio (x) = 0.50143 0.52305
# Poissons Ratio (y) = 0.44129 0.16335
# Poissons Ratio (z) = 0.21352 0.07577
#
# Static dielectric constant tensor:
#      x y z
#    x 3.637980 0.000000 0.000000 
#    y 0.000000 4.005990 0.000000 
#    z 0.000000 0.000000 3.723850 
# 
# 
# High freq. dielectric constant tensor:
#      x y z
#    x 1.756960 0.000000 0.000000 
#    y 0.000000 1.733430 0.000000 
#    z 0.000000 0.000000 1.775870 
# 
# From -- ./inp_files/27286.got.cif
#   From: 2010.03.12/outbox.cif.g09.slc.cpg/sg67_14_cif.got.tgz:27286.got - 2010.04.10 22:41:39.
