data_PCOD8281930
_publ_section_title
;
Structure prediction by ZEFSAII (Michael W. Deem and Ramdas Pophale) SiO2 
 PCOD8281930
Probable space group: C C C A
;
_chemical_formula_sum "Si O2"
_cell_formula_units_Z 112
_cell_length_a 24.755131
_cell_length_b 14.023122
_cell_length_c 15.012054
_cell_angle_alpha 90.000000
_cell_angle_beta 90.000000
_cell_angle_gamma 90.000000
_cell_volume 5211.347809
_symmetry_space_group_name_H-M "C C C A"
_symmetry_group_IT_number 68
_space_group.IT_coordinate_system_code '2'
_symmetry_cell_setting 'orthorhombic'
loop_
_space_group_symop_operation_xyz
x,y,z
-x,1/2-y,z
x,1/2-y,1/2-z
-x,y,1/2-z
-x,-y,-z
x,1/2+y,-z
-x,1/2+y,1/2+z
x,-y,1/2+z
1/2+x,1/2+y,z
1/2-x,-y,z
1/2+x,-y,1/2-z
1/2-x,1/2+y,1/2-z
1/2-x,1/2-y,-z
1/2+x,y,-z
1/2-x,y,1/2+z
1/2+x,1/2-y,1/2+z
loop_
_atom_site_type_symbol
_atom_site_label
_atom_site_fract_x
_atom_site_fract_y
_atom_site_fract_z
Si Si1 0.828823 0.156439 0.715203
Si Si2 0.250000 0.500000 0.777627
Si Si3 0.533515 0.032599 0.114744
Si Si4 0.844601 0.401415 0.138728
Si Si5 0.399827 0.750000 0.250000
Si Si6 0.048143 0.318373 0.069724
Si Si7 0.613958 0.181312 0.034803
Si Si8 0.921474 0.057070 0.802939
O O1 0.797044 0.250000 0.750000
O O2 0.790572 0.063036 0.716510
O O3 0.845781 0.183110 0.616392
O O4 0.882765 0.146295 0.777973
O O5 0.216354 0.566890 0.843195
O O6 0.564152 0.109355 0.053980
O O7 0.475078 0.079674 0.138981
O O8 0.563585 0.010043 0.207544
O O9 0.531376 0.930424 0.062492
O O10 0.860551 0.332588 0.218577
O O11 0.887073 0.486913 0.136839
O O12 0.847258 0.354521 0.043116
O O13 0.436304 0.709442 0.170341
O O14 0.000000 0.250000 0.042204
O O15 0.093671 0.287276 0.996430
#
# Coordination Sequence:
#
# PCOD8281930 Si02
#       8
#    16   8  16  16   8  16  16  16
#     4  10  23  45  66  89 129 167 212 261 324 393
#     4  10  24  42  70  90 106 170 214 264 328 396
#     4  10  19  37  59  86 131 171 212 249 306 378
#     4  10  20  38  60  89 121 149 212 271 315 371
#     4  10  19  34  58  88 124 156 206 263 320 366
#     4  11  22  32  58  92 129 171 209 256 307 366
#     4  10  24  39  58  98 130 165 208 261 318 379
#     4   9  19  36  62  89 119 175 209 248 305 376
#
# _framework density 21.49156
#
# number of rings (size 3 to 8) (size 9 to 14) (size 15 to 20)
#    0.000    2.000    1.429    1.929    3.000    6.286 
#    0.000    5.714    0.000    0.000    0.000    0.000 
#    0.000    0.000    0.000    0.000    0.000    0.000 
#
# Total GULP energy -693994.173953 kJ/mol
# GULP energy per Si atom -12392.753106 kJ/mol
# Density = 2.144264 g / cm^3
# Si number density = 21.491560 Si / 1000 Ang^3
#
#
#
# Elastic Constant Matrix: (Units=GPa)
#
#
# Indices 1 2 3 4 5 6 
#
# 1 88.5380 18.4809 34.4471 0.0000 0.0000 0.0000
# 2 18.4809 88.3807 25.1033 0.0000 0.0000 0.0000
# 3 34.4471 25.1033 84.9340 0.0000 0.0000 0.0000
# 4 0.0000 0.0000 0.0000 21.3877 0.0000 0.0000
# 5 0.0000 0.0000 0.0000 0.0000 19.6073 0.0000
# 6 0.0000 0.0000 0.0000 0.0000 0.0000 33.9861
#
#
#
# Elastic Compliance Matrix: (Units=1/GPa)
#
#
# Indices 1 2 3 4 5 6 
#
# 1 0.013566 -0.001391 -0.005091 0.000000 0.000000 0.000000
# 2 -0.001391 0.012494 -0.003129 0.000000 0.000000 0.000000
# 3 -0.005091 -0.003129 0.014763 0.000000 0.000000 0.000000
# 4 0.000000 0.000000 0.000000 0.046756 0.000000 0.000000
# 5 0.000000 0.000000 0.000000 0.000000 0.051001 0.000000
# 6 0.000000 0.000000 0.000000 0.000000 0.000000 0.029424
#
#
# Mechanical properties :
#
#
# Convention : Reuss Voigt Hill
#
# Bulk Modulus (GPa) = 46.29096 46.43503 46.36299
# Shear Modulus (GPa) = 25.71682 27.25099 26.48391
#
# Velocity S-wave (km/s) = 3.46294 3.56474 3.51421
# Velocity P-wave (km/s) = 6.12986 6.21259 6.17136
#
# Compressibility (1/GPa) = 0.02160249
#
# Stress axis : x y z
#
# Youngs Moduli (GPa) = 73.71623 80.03735 67.73550
#
# Poissons Ratio (x) = 0.11130 0.34483
# Poissons Ratio (y) = 0.10251 0.21193
# Poissons Ratio (z) = 0.37528 0.25042
#
# Static dielectric constant tensor:
#      x y z
#    x 3.783410 0.000000 0.000000 
#    y 0.000000 3.768580 0.000000 
#    z 0.000000 0.000000 3.046270 
# 
# 
# High freq. dielectric constant tensor:
#      x y z
#    x 1.828060 0.000000 0.000000 
#    y 0.000000 1.842820 0.000000 
#    z 0.000000 0.000000 1.850340 
# 
# From -- ./inp_files/26086.got.cif
#   From: 2010.03.12/outbox.cif.g09.slc.cpg/sg68_14_cif.got.tgz:26086.got - 2010.04.10 23:14:56.
