data_PCOD8281729
_publ_section_title
;
Structure prediction by ZEFSAII (Michael W. Deem and Ramdas Pophale) SiO2 
 PCOD8281729
Probable space group: C C C A
;
_chemical_formula_sum "Si O2"
_cell_formula_units_Z 72
_cell_length_a 22.644209
_cell_length_b 18.551512
_cell_length_c 8.849990
_cell_angle_alpha 90.000000
_cell_angle_beta 90.000000
_cell_angle_gamma 90.000000
_cell_volume 3717.741987
_symmetry_space_group_name_H-M "C C C A"
_symmetry_group_IT_number 68
_space_group.IT_coordinate_system_code '2'
_symmetry_cell_setting 'orthorhombic'
loop_
_space_group_symop_operation_xyz
x,y,z
-x,1/2-y,z
x,1/2-y,1/2-z
-x,y,1/2-z
-x,-y,-z
x,1/2+y,-z
-x,1/2+y,1/2+z
x,-y,1/2+z
1/2+x,1/2+y,z
1/2-x,-y,z
1/2+x,-y,1/2-z
1/2-x,1/2+y,1/2-z
1/2-x,1/2-y,-z
1/2+x,y,-z
1/2-x,y,1/2+z
1/2+x,1/2-y,1/2+z
loop_
_atom_site_type_symbol
_atom_site_label
_atom_site_fract_x
_atom_site_fract_y
_atom_site_fract_z
Si Si1 0.669635 0.815189 0.644313
Si Si2 0.212452 0.598748 0.635185
Si Si3 0.250000 0.500000 0.389712
Si Si4 0.613850 0.783905 0.097761
Si Si5 0.559684 0.830749 0.809866
O O1 0.692498 0.750000 0.750000
O O2 0.723227 0.866983 0.608330
O O3 0.644158 0.782165 0.490095
O O4 0.619229 0.862755 0.733318
O O5 0.203923 0.545307 0.492824
O O6 0.210249 0.553244 0.788918
O O7 0.162876 0.658645 0.644939
O O8 0.584934 0.750000 0.250000
O O9 0.565030 0.825429 0.993150
O O10 0.557687 0.750000 0.750000
O O11 0.500000 0.871152 0.750000
#
# Coordination Sequence:
#
# PCOD8281729 Si02
#       5
#    16  16   8  16  16
#     4   9  17  29  49  71  98 134 159 200 246 288
#     4  11  19  32  45  72 101 130 171 199 245 296
#     4  10  22  30  44  64 102 144 162 200 242 286
#     4  10  18  28  50  77  98 123 159 210 248 284
#     4   8  16  31  46  68 102 137 159 181 240 308
#
# _framework density 19.366595
#
# number of rings (size 3 to 8) (size 9 to 14) (size 15 to 20)
#    0.000    2.889    0.000    5.333    0.000    0.000 
#    0.000    8.889    0.000    0.000    0.000   24.889 
#    0.000    0.000    0.000   13.778    0.000    0.000 
#
# Total GULP energy -446037.542878 kJ/mol
# GULP energy per Si atom -12389.931747 kJ/mol
# Density = 1.932252 g / cm^3
# Si number density = 19.366595 Si / 1000 Ang^3
#
#
#
# Elastic Constant Matrix: (Units=GPa)
#
#
# Indices 1 2 3 4 5 6 
#
# 1 85.8808 21.2814 31.6317 0.0000 0.0000 0.0000
# 2 21.2814 41.5927 32.0110 0.0000 0.0000 0.0000
# 3 31.6317 32.0110 151.0728 0.0000 0.0000 0.0000
# 4 0.0000 0.0000 0.0000 21.2845 0.0000 0.0000
# 5 0.0000 0.0000 0.0000 0.0000 17.2624 0.0000
# 6 0.0000 0.0000 0.0000 0.0000 0.0000 -1.5520
#
#
#
# Elastic Compliance Matrix: (Units=1/GPa)
#
#
# Indices 1 2 3 4 5 6 
#
# 1 0.013670 -0.005725 -0.001649 0.000000 0.000000 0.000000
# 2 -0.005725 0.031125 -0.005396 0.000000 0.000000 0.000000
# 3 -0.001649 -0.005396 0.008108 0.000000 0.000000 0.000000
# 4 0.000000 0.000000 0.000000 0.046983 0.000000 0.000000
# 5 0.000000 0.000000 0.000000 0.000000 0.057929 0.000000
# 6 0.000000 0.000000 0.000000 0.000000 0.000000 -0.644350
#
#
# Mechanical properties :
#
#
# Convention : Reuss Voigt Hill
#
# Bulk Modulus (GPa) = 36.54714 49.82160 43.18437
# Shear Modulus (GPa) = -11.06509 20.30713 4.62102
#
# Velocity S-wave (km/s) = -2.39288 3.24167 1.54637
# Velocity P-wave (km/s) = 3.35822 6.30814 5.05323
#
# Compressibility (1/GPa) = 0.02736192
#
# Stress axis : x y z
#
# Youngs Moduli (GPa) = 73.15184 32.12816 123.33383
#
# Poissons Ratio (x) = 0.18394 0.20339
# Poissons Ratio (y) = 0.41882 0.66556
# Poissons Ratio (z) = 0.12064 0.17338
#
# Static dielectric constant tensor:
#      x y z
#    x 4.889680 0.000000 0.000000 
#    y 0.000000 3.252940 0.000000 
#    z 0.000000 0.000000 3.887470 
# 
# 
# High freq. dielectric constant tensor:
#      x y z
#    x 1.721220 0.000000 0.000000 
#    y 0.000000 1.712620 0.000000 
#    z 0.000000 0.000000 1.776290 
# 
# From -- ./inp_files/7921.got.cif
#   From: 2010.03.12/outbox.cif.g09.slc.cpg/sg68_4_cif.got.tgz:7921.got - 2010.04.10 23:14:56.
