data_PCOD8281068
_publ_section_title
;
Structure prediction by ZEFSAII (Michael W. Deem and Ramdas Pophale) SiO2 
 PCOD8281068
Probable space group: C M M A
;
_chemical_formula_sum "Si O2"
_cell_formula_units_Z 88
_cell_length_a 8.943005
_cell_length_b 15.704299
_cell_length_c 30.434035
_cell_angle_alpha 90.000000
_cell_angle_beta 90.000000
_cell_angle_gamma 90.000000
_cell_volume 4274.266183
_symmetry_space_group_name_H-M "C M M A"
_symmetry_group_IT_number 67
_symmetry_cell_setting 'orthorhombic'
loop_
_space_group_symop_operation_xyz
x,y,z
-x,1/2-y,z
x,-y,-z
-x,1/2+y,-z
-x,-y,-z
x,1/2+y,-z
-x,y,z
x,1/2-y,z
1/2+x,1/2+y,z
1/2-x,-y,z
1/2+x,1/2-y,-z
1/2-x,y,-z
1/2-x,1/2-y,-z
1/2+x,y,-z
1/2-x,1/2+y,z
1/2+x,-y,z
loop_
_atom_site_type_symbol
_atom_site_label
_atom_site_fract_x
_atom_site_fract_y
_atom_site_fract_z
Si Si1 0.678339 0.908583 0.106693
Si Si2 0.330947 0.851542 0.543024
Si Si3 0.663224 0.652062 0.277140
Si Si4 0.324548 0.750000 0.046929
Si Si5 0.676340 0.088996 0.196872
Si Si6 0.325470 0.652461 0.372011
O O1 0.500000 0.919066 0.110374
O O2 0.724754 0.836199 0.071922
O O3 0.744916 0.875675 0.152894
O O4 0.750000 0.000000 0.093389
O O5 0.500000 0.881869 0.540808
O O6 0.313999 0.750000 0.543405
O O7 0.250000 0.889155 0.500000
O O8 0.260949 0.892208 0.587629
O O9 0.500000 0.613898 0.262494
O O10 0.638025 0.750000 0.287651
O O11 0.787384 0.645900 0.239091
O O12 0.714977 0.610929 0.323928
O O13 0.500000 0.750000 0.040497
O O14 0.250000 0.750000 0.000000
O O15 0.500000 0.083117 0.188680
O O16 0.750000 0.000000 0.208807
O O17 0.500000 0.643255 0.381169
O O18 0.273676 0.750000 0.371647
#
# Coordination Sequence:
#
# PCOD8281068 Si02
#       6
#    16  16  16   8  16  16
#     4  10  21  40  62  88 119 158 198 242 295 347
#     4   9  15  21  31  48  73 109 152 198 247 301
#     4   9  18  32  50  72 101 137 171 211 265 323
#     4  10  24  42  64  92 124 160 200 242 293 348
#     4  11  22  36  55  80 108 142 182 226 271 322
#     4   8  14  25  39  56  82 117 156 197 248 308
#
# _framework density 20.588329999999999
#
# number of rings (size 3 to 8) (size 9 to 14) (size 15 to 20)
#    0.000    2.545    0.000    4.909    1.273    5.091 
#    0.000    3.636    0.000    0.000    0.000    0.000 
#    0.000    0.727    0.000    7.636    0.000   10.545 
#
# Total GULP energy -545209.599204 kJ/mol
# GULP energy per Si atom -12391.127255 kJ/mol
# Density = 2.054147 g / cm^3
# Si number density = 20.588330 Si / 1000 Ang^3
#
#
#
# Elastic Constant Matrix: (Units=GPa)
#
#
# Indices 1 2 3 4 5 6 
#
# 1 113.3411 32.8818 79.1288 0.0000 0.0000 0.0000
# 2 32.8818 48.5201 54.2821 0.0000 0.0000 0.0000
# 3 79.1288 54.2821 195.6530 0.0000 0.0000 0.0000
# 4 0.0000 0.0000 0.0000 -9.0294 0.0000 0.0000
# 5 0.0000 0.0000 0.0000 0.0000 39.3929 0.0000
# 6 0.0000 0.0000 0.0000 0.0000 0.0000 21.2222
#
#
#
# Elastic Compliance Matrix: (Units=1/GPa)
#
#
# Indices 1 2 3 4 5 6 
#
# 1 0.012859 -0.004200 -0.004035 0.000000 0.000000 0.000000
# 2 -0.004200 0.031258 -0.006974 0.000000 0.000000 0.000000
# 3 -0.004035 -0.006974 0.008678 0.000000 0.000000 0.000000
# 4 0.000000 0.000000 0.000000 -0.110749 0.000000 0.000000
# 5 0.000000 0.000000 0.000000 0.000000 0.025385 0.000000
# 6 0.000000 0.000000 0.000000 0.000000 0.000000 0.047120
#
#
# Mechanical properties :
#
#
# Convention : Reuss Voigt Hill
#
# Bulk Modulus (GPa) = 44.68861 76.67771 60.68316
# Shear Modulus (GPa) = 95.37054 23.06526 59.21790
#
# Velocity S-wave (km/s) = 6.81346 3.35073 5.36892
# Velocity P-wave (km/s) = 9.14606 7.23146 8.24453
#
# Compressibility (1/GPa) = 0.02237706
#
# Stress axis : x y z
#
# Youngs Moduli (GPa) = 77.76945 31.99175 115.23535
#
# Poissons Ratio (x) = 0.13436 0.46501
# Poissons Ratio (y) = 0.32661 0.80362
# Poissons Ratio (z) = 0.31382 0.22310
#
# Static dielectric constant tensor:
#      x y z
#    x 3.826480 0.000000 0.000000 
#    y 0.000000 3.334610 0.000000 
#    z 0.000000 0.000000 4.154080 
# 
# 
# High freq. dielectric constant tensor:
#      x y z
#    x 1.803800 0.000000 0.000000 
#    y 0.000000 1.761790 0.000000 
#    z 0.000000 0.000000 1.821560 
# 
# From -- ./inp_files/45204.got.cif
#   From: 2010.03.12/outbox.cif.g09.slc.cpg/sg67_23_cif.got.tgz:45204.got - 2010.04.10 22:41:39.
