data_PCOD8281647
_publ_section_title
;
Structure prediction by ZEFSAII (Michael W. Deem and Ramdas Pophale) SiO2 
 PCOD8281647
Probable space group: C C C A
;
_chemical_formula_sum "Si O2"
_cell_formula_units_Z 104
_cell_length_a 18.217316
_cell_length_b 23.479247
_cell_length_c 12.422793
_cell_angle_alpha 90.000000
_cell_angle_beta 90.000000
_cell_angle_gamma 90.000000
_cell_volume 5313.587113
_symmetry_space_group_name_H-M "C C C A"
_symmetry_group_IT_number 68
_space_group.IT_coordinate_system_code '2'
_symmetry_cell_setting 'orthorhombic'
loop_
_space_group_symop_operation_xyz
x,y,z
-x,1/2-y,z
x,1/2-y,1/2-z
-x,y,1/2-z
-x,-y,-z
x,1/2+y,-z
-x,1/2+y,1/2+z
x,-y,1/2+z
1/2+x,1/2+y,z
1/2-x,-y,z
1/2+x,-y,1/2-z
1/2-x,1/2+y,1/2-z
1/2-x,1/2-y,-z
1/2+x,y,-z
1/2-x,y,1/2+z
1/2+x,1/2-y,1/2+z
loop_
_atom_site_type_symbol
_atom_site_label
_atom_site_fract_x
_atom_site_fract_y
_atom_site_fract_z
Si Si1 0.000000 0.250000 0.072433
Si Si2 0.615803 0.750000 0.250000
Si Si3 0.885385 0.447925 0.657714
Si Si4 0.292463 0.945565 0.845663
Si Si5 0.954160 0.130174 0.009806
Si Si6 0.662193 0.869707 0.196839
Si Si7 0.057156 0.569735 0.842647
Si Si8 0.250000 0.000000 0.048233
O O1 0.934121 0.270466 0.149888
O O2 0.973257 0.197273 0.998735
O O3 0.667182 0.802570 0.218999
O O4 0.870905 0.436577 0.785467
O O5 0.925499 0.393755 0.604416
O O6 0.936917 0.502265 0.640298
O O7 0.803089 0.457939 0.612892
O O8 0.243758 0.889076 0.832387
O O9 0.303491 0.960409 0.972401
O O10 0.250000 0.000000 0.792519
O O11 0.890648 0.117764 0.096220
O O12 0.028166 0.097496 0.046589
O O13 0.634638 0.903803 0.303251
O O14 0.000000 0.585784 0.750000
#
# Coordination Sequence:
#
# PCOD8281647 Si02
#       8
#     8   8  16  16  16  16  16   8
#     4   9  16  30  48  76 101 128 166 216 261 310
#     4   9  16  26  54  74  96 132 167 210 278 294
#     4  12  20  33  52  76 106 146 169 209 274 314
#     4  10  19  31  50  72 104 139 170 212 253 312
#     4  10  19  30  50  77 105 133 171 215 265 313
#     4  10  16  32  50  75 103 131 169 220 257 311
#     4  10  19  31  48  79 112 129 165 216 260 321
#     4  10  18  34  50  72 102 138 176 212 250 308
#
# _framework density 19.572465000000001
#
# number of rings (size 3 to 8) (size 9 to 14) (size 15 to 20)
#    0.462    1.385    5.385    0.462    2.154    0.000 
#    0.000    0.000    0.000    5.538    0.000    0.000 
#    0.000    0.000    0.000    0.000    0.000    0.000 
#
# Total GULP energy -644528.893057 kJ/mol
# GULP energy per Si atom -12394.786405 kJ/mol
# Density = 1.952792 g / cm^3
# Si number density = 19.572465 Si / 1000 Ang^3
#
#
#
# Elastic Constant Matrix: (Units=GPa)
#
#
# Indices 1 2 3 4 5 6 
#
# 1 23.9809 5.4235 -9.6504 0.0000 0.0000 0.0000
# 2 5.4235 81.4273 -4.3168 0.0000 0.0000 0.0000
# 3 -9.6504 -4.3168 25.0127 0.0000 0.0000 0.0000
# 4 0.0000 0.0000 0.0000 26.0040 0.0000 0.0000
# 5 0.0000 0.0000 0.0000 0.0000 13.1573 0.0000
# 6 0.0000 0.0000 0.0000 0.0000 0.0000 30.3647
#
#
#
# Elastic Compliance Matrix: (Units=1/GPa)
#
#
# Indices 1 2 3 4 5 6 
#
# 1 0.049794 -0.002319 0.018811 0.000000 0.000000 0.000000
# 2 -0.002319 0.012502 0.001263 0.000000 0.000000 0.000000
# 3 0.018811 0.001263 0.047455 0.000000 0.000000 0.000000
# 4 0.000000 0.000000 0.000000 0.038456 0.000000 0.000000
# 5 0.000000 0.000000 0.000000 0.000000 0.076003 0.000000
# 6 0.000000 0.000000 0.000000 0.000000 0.000000 0.032933
#
#
# Mechanical properties :
#
#
# Convention : Reuss Voigt Hill
#
# Bulk Modulus (GPa) = 6.88412 12.59262 9.73837
# Shear Modulus (GPa) = 18.51475 23.16950 20.84213
#
# Velocity S-wave (km/s) = 3.07898 3.44434 3.26677
# Velocity P-wave (km/s) = 4.02058 4.71867 4.38354
#
# Compressibility (1/GPa) = 0.14526183
#
# Stress axis : x y z
#
# Youngs Moduli (GPa) = 20.08260 79.98514 21.07245
#
# Poissons Ratio (x) = 0.18551 -0.39640
# Poissons Ratio (y) = 0.04658 -0.02661
# Poissons Ratio (z) = -0.37778 -0.10101
#
# Static dielectric constant tensor:
#      x y z
#    x 3.295620 0.000000 0.000000 
#    y 0.000000 3.332700 0.000000 
#    z 0.000000 0.000000 3.406080 
# 
# 
# High freq. dielectric constant tensor:
#      x y z
#    x 1.737090 0.000000 0.000000 
#    y 0.000000 1.745600 0.000000 
#    z 0.000000 0.000000 1.743130 
# 
# From -- ./inp_files/23917.got.cif
#   From: 2010.03.12/outbox.cif.g09.slc.cpg/sg68_12_cif.got.tgz:23917.got - 2010.04.10 23:14:56.
