data_PCOD8281444
_publ_section_title
;
Structure prediction by ZEFSAII (Michael W. Deem and Ramdas Pophale) SiO2 
 PCOD8281444
Probable space group: C M M A
;
_chemical_formula_sum "Si O2"
_cell_formula_units_Z 80
_cell_length_a 9.719796
_cell_length_b 18.310935
_cell_length_c 24.482805
_cell_angle_alpha 90.000000
_cell_angle_beta 90.000000
_cell_angle_gamma 90.000000
_cell_volume 4357.414202
_symmetry_space_group_name_H-M "C M M A"
_symmetry_group_IT_number 67
_symmetry_cell_setting 'orthorhombic'
loop_
_space_group_symop_operation_xyz
x,y,z
-x,1/2-y,z
x,-y,-z
-x,1/2+y,-z
-x,-y,-z
x,1/2+y,-z
-x,y,z
x,1/2-y,z
1/2+x,1/2+y,z
1/2-x,-y,z
1/2+x,1/2-y,-z
1/2-x,y,-z
1/2-x,1/2-y,-z
1/2+x,y,-z
1/2-x,1/2+y,z
1/2+x,-y,z
loop_
_atom_site_type_symbol
_atom_site_label
_atom_site_fract_x
_atom_site_fract_y
_atom_site_fract_z
Si Si1 0.000000 0.095071 0.060127
Si Si2 0.158895 0.929072 0.666699
Si Si3 0.000000 0.926889 0.068440
Si Si4 0.656524 0.666473 0.233372
Si Si5 0.256863 0.164725 0.114989
Si Si6 0.163145 0.075122 0.453260
O O1 0.874110 0.143274 0.079948
O O2 0.000000 0.012715 0.083632
O O3 0.000000 0.088571 0.995405
O O4 0.213540 0.876517 0.714334
O O5 0.174097 0.889461 0.607234
O O6 0.000000 0.950825 0.675724
O O7 0.250000 0.000000 0.670249
O O8 0.870790 0.889947 0.095280
O O9 0.500000 0.645094 0.220104
O O10 0.669374 0.750000 0.249935
O O11 0.742037 0.648836 0.179264
O O12 0.291808 0.250000 0.104670
O O13 0.250000 0.120718 0.500000
O O14 0.000000 0.065209 0.468811
O O15 0.250000 0.000000 0.449735
#
# Coordination Sequence:
#
# PCOD8281444 Si02
#       6
#     8  16   8  16  16  16
#     4  11  23  41  59  83 113 149 178 213 276 335
#     4   9  18  31  49  76 103 131 172 216 258 306
#     4  11  25  39  57  85 119 141 172 227 280 323
#     4   9  18  36  57  75 100 136 177 216 257 310
#     4  11  22  39  61  83 108 144 188 226 265 322
#     4   9  15  24  41  66  98 132 165 206 254 301
#
# _framework density 18.359513
#
# number of rings (size 3 to 8) (size 9 to 14) (size 15 to 20)
#    0.000    2.200    1.000    3.000    0.000    6.400 
#    1.800    0.000    0.000    0.600    0.000    0.000 
#    0.000    0.000    0.000    0.000    0.000    5.400 
#
# Total GULP energy -495534.227306 kJ/mol
# GULP energy per Si atom -12388.355683 kJ/mol
# Density = 1.831773 g / cm^3
# Si number density = 18.359513 Si / 1000 Ang^3
#
#
#
# Elastic Constant Matrix: (Units=GPa)
#
#
# Indices 1 2 3 4 5 6 
#
# 1 90.5315 19.2188 30.5746 0.0000 0.0000 0.0000
# 2 19.2188 63.2726 46.1399 0.0000 0.0000 0.0000
# 3 30.5746 46.1399 115.8635 0.0000 0.0000 0.0000
# 4 0.0000 0.0000 0.0000 13.8545 0.0000 0.0000
# 5 0.0000 0.0000 0.0000 0.0000 30.0898 0.0000
# 6 0.0000 0.0000 0.0000 0.0000 0.0000 41.8598
#
#
#
# Elastic Compliance Matrix: (Units=1/GPa)
#
#
# Indices 1 2 3 4 5 6 
#
# 1 0.012291 -0.001928 -0.002476 0.000000 0.000000 0.000000
# 2 -0.001928 0.022575 -0.008481 0.000000 0.000000 0.000000
# 3 -0.002476 -0.008481 0.012662 0.000000 0.000000 0.000000
# 4 0.000000 0.000000 0.000000 0.072179 0.000000 0.000000
# 5 0.000000 0.000000 0.000000 0.000000 0.033234 0.000000
# 6 0.000000 0.000000 0.000000 0.000000 0.000000 0.023889
#
#
# Mechanical properties :
#
#
# Convention : Reuss Voigt Hill
#
# Bulk Modulus (GPa) = 45.96023 51.28158 48.62091
# Shear Modulus (GPa) = 23.82631 28.74311 26.28471
#
# Velocity S-wave (km/s) = 3.60636 3.96102 3.78784
# Velocity P-wave (km/s) = 6.51375 6.99372 6.75800
#
# Compressibility (1/GPa) = 0.02175794
#
# Stress axis : x y z
#
# Youngs Moduli (GPa) = 81.35845 44.29699 78.97939
#
# Poissons Ratio (x) = 0.08541 0.19553
# Poissons Ratio (y) = 0.15687 0.66983
# Poissons Ratio (z) = 0.20142 0.37569
#
# Static dielectric constant tensor:
#      x y z
#    x 3.483040 0.000000 0.000000 
#    y 0.000000 3.219620 0.000000 
#    z 0.000000 0.000000 4.204850 
# 
# 
# High freq. dielectric constant tensor:
#      x y z
#    x 1.713780 0.000000 0.000000 
#    y 0.000000 1.679800 0.000000 
#    z 0.000000 0.000000 1.737150 
# 
# From -- ./inp_files/43356.got.cif
#   From: 2010.03.12/outbox.cif.g09.slc.cpg/sg67_22_cif.got.tgz:43356.got - 2010.04.10 22:41:39.
