data_PCOD8281737
_publ_section_title
;
Structure prediction by ZEFSAII (Michael W. Deem and Ramdas Pophale) SiO2 
 PCOD8281737
Probable space group: C C C A
;
_chemical_formula_sum "Si O2"
_cell_formula_units_Z 88
_cell_length_a 12.938663
_cell_length_b 20.774969
_cell_length_c 18.888836
_cell_angle_alpha 90.000000
_cell_angle_beta 90.000000
_cell_angle_gamma 90.000000
_cell_volume 5077.325213
_symmetry_space_group_name_H-M "C C C A"
_symmetry_group_IT_number 68
_space_group.IT_coordinate_system_code '2'
_symmetry_cell_setting 'orthorhombic'
loop_
_space_group_symop_operation_xyz
x,y,z
-x,1/2-y,z
x,1/2-y,1/2-z
-x,y,1/2-z
-x,-y,-z
x,1/2+y,-z
-x,1/2+y,1/2+z
x,-y,1/2+z
1/2+x,1/2+y,z
1/2-x,-y,z
1/2+x,-y,1/2-z
1/2-x,1/2+y,1/2-z
1/2-x,1/2-y,-z
1/2+x,y,-z
1/2-x,y,1/2+z
1/2+x,1/2-y,1/2+z
loop_
_atom_site_type_symbol
_atom_site_label
_atom_site_fract_x
_atom_site_fract_y
_atom_site_fract_z
Si Si1 0.301520 0.675184 0.398453
Si Si2 0.881281 0.386042 0.536409
Si Si3 0.301520 0.824816 0.398453
Si Si4 0.118719 0.886042 0.463591
Si Si5 0.250000 0.500000 0.500000
Si Si6 0.884085 0.326417 0.250000
O O1 0.179563 0.664906 0.414173
O O2 0.329936 0.750000 0.405771
O O3 0.370938 0.635647 0.454510
O O4 0.325941 0.648596 0.320147
O O5 0.870938 0.364353 0.454510
O O6 0.825692 0.455285 0.547442
O O7 0.000000 0.389537 0.559847
O O8 0.179563 0.835094 0.414173
O O9 0.325941 0.851404 0.320147
O O10 0.174308 0.955285 0.452558
O O11 0.884999 0.250000 0.250000
O O12 0.000000 0.353964 0.250000
#
# Coordination Sequence:
#
# PCOD8281737 Si02
#       6
#    16  16  16  16   8  16
#     4   9  18  29  44  71  98 120 152 185 217 268
#     4  10  18  30  49  68  91 120 150 190 232 268
#     4   9  18  29  44  71  98 120 152 185 217 268
#     4  10  18  30  49  68  91 120 150 190 232 268
#     4   8  18  32  46  68  88 112 158 196 224 266
#     4   9  16  28  45  64  93 128 154 179 214 260
#
# _framework density 17.331959999999999
#
# number of rings (size 3 to 8) (size 9 to 14) (size 15 to 20)
#    0.000    3.091    0.000    3.818    0.000    4.364 
#    0.000    0.909    0.000   20.727    0.000   20.364 
#    0.000    0.000    0.000    0.000    0.000    0.000 
#
# Total GULP energy -545312.536837 kJ/mol
# GULP energy per Si atom -12393.466746 kJ/mol
# Density = 1.729251 g / cm^3
# Si number density = 17.331960 Si / 1000 Ang^3
#
#
#
# Elastic Constant Matrix: (Units=GPa)
#
#
# Indices 1 2 3 4 5 6 
#
# 1 134.3147 12.2258 43.1149 0.0000 0.0000 0.0000
# 2 12.2258 60.1908 18.9502 0.0000 0.0000 0.0000
# 3 43.1149 18.9502 131.1719 0.0000 0.0000 0.0000
# 4 0.0000 0.0000 0.0000 5.3432 0.0000 0.0000
# 5 0.0000 0.0000 0.0000 0.0000 16.6354 0.0000
# 6 0.0000 0.0000 0.0000 0.0000 0.0000 22.8221
#
#
#
# Elastic Compliance Matrix: (Units=1/GPa)
#
#
# Indices 1 2 3 4 5 6 
#
# 1 0.008367 -0.000873 -0.002624 0.000000 0.000000 0.000000
# 2 -0.000873 0.017497 -0.002241 0.000000 0.000000 0.000000
# 3 -0.002624 -0.002241 0.008810 0.000000 0.000000 0.000000
# 4 0.000000 0.000000 0.000000 0.187155 0.000000 0.000000
# 5 0.000000 0.000000 0.000000 0.000000 0.060113 0.000000
# 6 0.000000 0.000000 0.000000 0.000000 0.000000 0.043817
#
#
# Mechanical properties :
#
#
# Convention : Reuss Voigt Hill
#
# Bulk Modulus (GPa) = 43.10819 52.69547 47.90183
# Shear Modulus (GPa) = 14.49415 25.71923 20.10669
#
# Velocity S-wave (km/s) = 2.89497 3.85635 3.40971
# Velocity P-wave (km/s) = 6.00837 7.09212 6.57262
#
# Compressibility (1/GPa) = 0.02319745
#
# Stress axis : x y z
#
# Youngs Moduli (GPa) = 119.51730 57.15375 113.51041
#
# Poissons Ratio (x) = 0.04992 0.29785
# Poissons Ratio (y) = 0.10438 0.25434
# Poissons Ratio (z) = 0.31361 0.12806
#
# Static dielectric constant tensor:
#      x y z
#    x 3.253580 0.000000 0.000000 
#    y 0.000000 3.181410 0.000000 
#    z 0.000000 0.000000 3.197250 
# 
# 
# High freq. dielectric constant tensor:
#      x y z
#    x 1.669370 0.000000 0.000000 
#    y 0.000000 1.655120 0.000000 
#    z 0.000000 0.000000 1.643200 
# 
# From -- ./inp_files/31048.got.cif
#   From: 2010.03.12/outbox.cif.g09.slc.cpg/sg68_16_cif.got.tgz:31048.got - 2010.04.10 23:14:56.
