data_PCOD8281161
_publ_section_title
;
Structure prediction by ZEFSAII (Michael W. Deem and Ramdas Pophale) SiO2 
 PCOD8281161
Probable space group: C M M A
;
_chemical_formula_sum "Si O2"
_cell_formula_units_Z 72
_cell_length_a 17.487233
_cell_length_b 13.783398
_cell_length_c 14.130569
_cell_angle_alpha 90.000000
_cell_angle_beta 90.000000
_cell_angle_gamma 90.000000
_cell_volume 3405.940395
_symmetry_space_group_name_H-M "C M M A"
_symmetry_group_IT_number 67
_symmetry_cell_setting 'orthorhombic'
loop_
_space_group_symop_operation_xyz
x,y,z
-x,1/2-y,z
x,-y,-z
-x,1/2+y,-z
-x,-y,-z
x,1/2+y,-z
-x,y,z
x,1/2-y,z
1/2+x,1/2+y,z
1/2-x,-y,z
1/2+x,1/2-y,-z
1/2-x,y,-z
1/2-x,1/2-y,-z
1/2+x,y,-z
1/2-x,1/2+y,z
1/2+x,-y,z
loop_
_atom_site_type_symbol
_atom_site_label
_atom_site_fract_x
_atom_site_fract_y
_atom_site_fract_z
Si Si1 0.500000 0.365061 0.830678
Si Si2 0.500000 0.136528 0.039673
Si Si3 0.500000 0.390789 0.531067
Si Si4 0.373692 0.364219 0.188360
Si Si5 0.874408 0.360910 0.315584
Si Si6 0.750000 0.000000 0.255808
Si Si7 0.500000 0.645561 0.678403
O O1 0.500000 0.250000 0.834673
O O2 0.575534 0.397824 0.773842
O O3 0.500000 0.414309 0.935393
O O4 0.500000 0.250000 0.020491
O O5 0.576454 0.108369 0.096417
O O6 0.500000 0.500000 0.500000
O O7 0.575512 0.365020 0.589190
O O8 0.500000 0.333877 0.432680
O O9 0.351980 0.250000 0.191590
O O10 0.297026 0.427819 0.187320
O O11 0.421878 0.401691 0.281717
O O12 0.846487 0.250000 0.301996
O O13 0.802129 0.432433 0.323620
O O14 0.500000 0.750000 0.732131
#
# Coordination Sequence:
#
# PCOD8281161 Si02
#       7
#     8   8   8  16  16   8   8
#     4   8  16  36  63  84 106 143 190 238 283 326
#     4   8  15  34  62  83 104 142 192 240 279 320
#     4  11  20  36  62  85 106 138 186 235 276 325
#     4   9  19  35  56  82 110 144 187 233 280 330
#     4  10  22  39  59  84 114 149 188 231 280 333
#     4  12  22  36  54  78 120 158 180 220 282 344
#     4   9  17  34  58  78  98 131 181 233 270 307
#
# _framework density 21.139536
#
# number of rings (size 3 to 8) (size 9 to 14) (size 15 to 20)
#    0.000    2.444    0.000    5.000    0.000    2.667 
#    0.000    9.444    0.000   13.333    0.000    0.000 
#    0.000    0.000    0.000    0.000    0.000    0.000 
#
# Total GULP energy -446185.464829 kJ/mol
# GULP energy per Si atom -12394.040690 kJ/mol
# Density = 2.109142 g / cm^3
# Si number density = 21.139536 Si / 1000 Ang^3
#
#
#
# Elastic Constant Matrix: (Units=GPa)
#
#
# Indices 1 2 3 4 5 6 
#
# 1 132.7560 64.8642 50.8413 0.0000 0.0000 0.0000
# 2 64.8642 103.5396 23.6756 0.0000 0.0000 0.0000
# 3 50.8413 23.6756 154.4251 0.0000 0.0000 0.0000
# 4 0.0000 0.0000 0.0000 25.4795 0.0000 0.0000
# 5 0.0000 0.0000 0.0000 0.0000 7.2249 0.0000
# 6 0.0000 0.0000 0.0000 0.0000 0.0000 44.7166
#
#
#
# Elastic Compliance Matrix: (Units=1/GPa)
#
#
# Indices 1 2 3 4 5 6 
#
# 1 0.011988 -0.006848 -0.002897 0.000000 0.000000 0.000000
# 2 -0.006848 0.013920 0.000120 0.000000 0.000000 0.000000
# 3 -0.002897 0.000120 0.007411 0.000000 0.000000 0.000000
# 4 0.000000 0.000000 0.000000 0.039247 0.000000 0.000000
# 5 0.000000 0.000000 0.000000 0.000000 0.138410 0.000000
# 6 0.000000 0.000000 0.000000 0.000000 0.000000 0.022363
#
#
# Mechanical properties :
#
#
# Convention : Reuss Voigt Hill
#
# Bulk Modulus (GPa) = 71.06981 74.38699 72.72840
# Shear Modulus (GPa) = 19.43426 32.24018 25.83722
#
# Velocity S-wave (km/s) = 3.03534 3.90951 3.49982
# Velocity P-wave (km/s) = 6.78061 7.45949 7.12814
#
# Compressibility (1/GPa) = 0.01407067
#
# Stress axis : x y z
#
# Youngs Moduli (GPa) = 83.41883 71.83701 134.93563
#
# Poissons Ratio (x) = 0.49190 0.39089
# Poissons Ratio (y) = 0.57121 -0.01622
# Poissons Ratio (z) = 0.24165 -0.00863
#
# Static dielectric constant tensor:
#      x y z
#    x 3.570860 0.000000 0.000000 
#    y 0.000000 3.899310 0.000000 
#    z 0.000000 0.000000 3.067810 
# 
# 
# High freq. dielectric constant tensor:
#      x y z
#    x 1.809110 0.000000 0.000000 
#    y 0.000000 1.856310 0.000000 
#    z 0.000000 0.000000 1.810410 
# 
# From -- ./inp_files/26908.got.cif
#   From: 2010.03.12/outbox.cif.g09.slc.cpg/sg67_14_cif.got.tgz:26908.got - 2010.04.10 22:41:39.
