data_PCOD8281104
_publ_section_title
;
Structure prediction by ZEFSAII (Michael W. Deem and Ramdas Pophale) SiO2 
 PCOD8281104
Probable space group: C M M A
;
_chemical_formula_sum "Si O2"
_cell_formula_units_Z 104
_cell_length_a 25.978138
_cell_length_b 8.023002
_cell_length_c 33.085642
_cell_angle_alpha 90.000000
_cell_angle_beta 90.000000
_cell_angle_gamma 90.000000
_cell_volume 6895.797286
_symmetry_space_group_name_H-M "C M M A"
_symmetry_group_IT_number 67
_symmetry_cell_setting 'orthorhombic'
loop_
_space_group_symop_operation_xyz
x,y,z
-x,1/2-y,z
x,-y,-z
-x,1/2+y,-z
-x,-y,-z
x,1/2+y,-z
-x,y,z
x,1/2-y,z
1/2+x,1/2+y,z
1/2-x,-y,z
1/2+x,1/2-y,-z
1/2-x,y,-z
1/2-x,1/2-y,-z
1/2+x,y,-z
1/2-x,1/2+y,z
1/2+x,-y,z
loop_
_atom_site_type_symbol
_atom_site_label
_atom_site_fract_x
_atom_site_fract_y
_atom_site_fract_z
Si Si1 0.938609 0.250000 0.187776
Si Si2 0.061326 0.435756 0.761673
Si Si3 0.938787 0.939399 0.043686
Si Si4 0.561301 0.750000 0.096267
Si Si5 0.600145 0.440886 0.591149
Si Si6 0.305489 0.561289 0.543634
Si Si7 0.000000 0.552896 0.546092
Si Si8 0.558024 0.555767 0.671112
O O1 0.917286 0.418511 0.209133
O O2 0.918201 0.250000 0.142027
O O3 0.000000 0.250000 0.189323
O O4 0.080975 0.250000 0.775071
O O5 0.079916 0.476424 0.716144
O O6 0.000000 0.433104 0.762096
O O7 0.918400 0.750000 0.053173
O O8 0.000000 0.935191 0.044407
O O9 0.918244 0.078740 0.075392
O O10 0.919067 0.000000 0.000000
O O11 0.500000 0.750000 0.094300
O O12 0.605853 0.250000 0.579111
O O13 0.652183 0.529698 0.577734
O O14 0.550680 0.520457 0.568222
O O15 0.594054 0.460679 0.639324
O O16 0.324466 0.500000 0.500000
O O17 0.296711 0.750000 0.536702
O O18 0.250000 0.500000 0.558411
O O19 0.000000 0.500000 0.500000
O O20 0.000000 0.750000 0.550533
O O21 0.500000 0.484755 0.667491
O O22 0.558535 0.750000 0.661001
#
# Coordination Sequence:
#
# PCOD8281104 Si02
#       8
#     8  16  16   8  16  16   8  16
#     4   9  16  24  34  48  64  90 120 145 191 231
#     4   8  15  26  38  52  71  95 123 154 187 236
#     4   9  14  20  29  38  51  72  98 134 182 230
#     4   9  16  22  28  42  58  74 106 144 175 233
#     4  11  21  33  48  71  93 115 144 174 203 247
#     4  11  22  38  56  72  89 115 145 175 205 242
#     4  10  22  34  44  64  92 120 140 164 204 244
#     4   9  17  29  44  63  85 109 136 165 203 241
#
# _framework density 15.081651000000001
#
# number of rings (size 3 to 8) (size 9 to 14) (size 15 to 20)
#    0.000    2.462    1.538    3.692    1.077    3.077 
#    0.000    3.077    0.000    0.000    0.000    0.000 
#    0.000    0.000    0.000    0.000    0.000    0.000 
#
# Total GULP energy -644456.137205 kJ/mol
# GULP energy per Si atom -12393.387254 kJ/mol
# Density = 1.504732 g / cm^3
# Si number density = 15.081651 Si / 1000 Ang^3
#
#
#
# Elastic Constant Matrix: (Units=GPa)
#
#
# Indices 1 2 3 4 5 6 
#
# 1 43.6820 19.0736 23.5091 0.0000 0.0000 0.0000
# 2 19.0736 109.7864 53.8190 0.0000 0.0000 0.0000
# 3 23.5091 53.8190 111.8707 0.0000 0.0000 0.0000
# 4 0.0000 0.0000 0.0000 28.1464 0.0000 0.0000
# 5 0.0000 0.0000 0.0000 0.0000 4.4526 0.0000
# 6 0.0000 0.0000 0.0000 0.0000 0.0000 11.3609
#
#
#
# Elastic Compliance Matrix: (Units=1/GPa)
#
#
# Indices 1 2 3 4 5 6 
#
# 1 0.026300 -0.002434 -0.004356 0.000000 0.000000 0.000000
# 2 -0.002434 0.012145 -0.005331 0.000000 0.000000 0.000000
# 3 -0.004356 -0.005331 0.012419 0.000000 0.000000 0.000000
# 4 0.000000 0.000000 0.000000 0.035529 0.000000 0.000000
# 5 0.000000 0.000000 0.000000 0.000000 0.224588 0.000000
# 6 0.000000 0.000000 0.000000 0.000000 0.000000 0.088021
#
#
# Mechanical properties :
#
#
# Convention : Reuss Voigt Hill
#
# Bulk Modulus (GPa) = 37.56330 50.90472 44.23401
# Shear Modulus (GPa) = 11.57095 20.05448 15.81272
#
# Velocity S-wave (km/s) = 2.77288 3.65050 3.24153
# Velocity P-wave (km/s) = 5.93401 7.18291 6.58812
#
# Compressibility (1/GPa) = 0.02662173
#
# Stress axis : x y z
#
# Youngs Moduli (GPa) = 38.02322 82.33921 80.52162
#
# Poissons Ratio (x) = 0.20040 0.35074
# Poissons Ratio (y) = 0.09254 0.42928
# Poissons Ratio (z) = 0.16563 0.43897
#
# Static dielectric constant tensor:
#      x y z
#    x 2.664330 0.000000 0.000000 
#    y 0.000000 3.189860 0.000000 
#    z 0.000000 0.000000 2.928300 
# 
# 
# High freq. dielectric constant tensor:
#      x y z
#    x 1.496060 0.000000 0.000000 
#    y 0.000000 1.598150 0.000000 
#    z 0.000000 0.000000 1.573720 
# 
# From -- ./inp_files/44874.got.cif
#   From: 2010.03.12/outbox.cif.g09.slc.cpg/sg67_23_cif.got.tgz:44874.got - 2010.04.10 22:41:39.
