data_PCOD8281367
_publ_section_title
;
Structure prediction by ZEFSAII (Michael W. Deem and Ramdas Pophale) SiO2 
 PCOD8281367
Probable space group: C M M A
;
_chemical_formula_sum "Si O2"
_cell_formula_units_Z 56
_cell_length_a 13.140189
_cell_length_b 21.133468
_cell_length_c 9.903647
_cell_angle_alpha 90.000000
_cell_angle_beta 90.000000
_cell_angle_gamma 90.000000
_cell_volume 2750.220625
_symmetry_space_group_name_H-M "C M M A"
_symmetry_group_IT_number 67
_symmetry_cell_setting 'orthorhombic'
loop_
_space_group_symop_operation_xyz
x,y,z
-x,1/2-y,z
x,-y,-z
-x,1/2+y,-z
-x,-y,-z
x,1/2+y,-z
-x,y,z
x,1/2-y,z
1/2+x,1/2+y,z
1/2-x,-y,z
1/2+x,1/2-y,-z
1/2-x,y,-z
1/2-x,1/2-y,-z
1/2+x,y,-z
1/2-x,1/2+y,z
1/2+x,-y,z
loop_
_atom_site_type_symbol
_atom_site_label
_atom_site_fract_x
_atom_site_fract_y
_atom_site_fract_z
Si Si1 0.195551 0.177090 0.142052
Si Si2 0.674086 0.381028 0.380717
Si Si3 0.500000 0.606549 0.210910
Si Si4 0.000000 0.181444 0.477064
Si Si5 0.500000 0.522499 0.653452
O O1 0.167067 0.250000 0.175898
O O2 0.265059 0.148684 0.258144
O O3 0.096444 0.133154 0.130808
O O4 0.250000 0.172573 0.000000
O O5 0.750000 0.404482 0.500000
O O6 0.601238 0.325487 0.434406
O O7 0.603961 0.438073 0.326030
O O8 0.500000 0.628417 0.364873
O O9 0.500000 0.530654 0.228823
O O10 0.000000 0.250000 0.408674
O O11 0.500000 0.500000 0.500000
#
# Coordination Sequence:
#
# PCOD8281367 Si02
#       5
#    16  16   8   8   8
#     4  11  25  44  66  94 130 169 210 263 325 381
#     4  11  22  39  65  96 126 168 216 262 314 374
#     4  12  23  41  64  95 127 168 213 256 322 376
#     4  11  21  35  61  96 129 158 209 271 313 370
#     4  11  22  41  61  96 132 168 210 265 317 372
#
# _framework density 20.362000999999999
#
# number of rings (size 3 to 8) (size 9 to 14) (size 15 to 20)
#    0.000    0.857    5.714    2.143    0.000    7.429 
#    0.000    7.143    0.000    0.000    0.000    0.000 
#    0.000    0.000    0.000    0.000    0.000    0.000 
#
# Total GULP energy -347158.832126 kJ/mol
# GULP energy per Si atom -12398.529719 kJ/mol
# Density = 2.031566 g / cm^3
# Si number density = 20.362001 Si / 1000 Ang^3
#
#
#
# Elastic Constant Matrix: (Units=GPa)
#
#
# Indices 1 2 3 4 5 6 
#
# 1 146.5426 55.9213 42.8547 0.0000 0.0000 0.0000
# 2 55.9213 142.9913 37.5318 0.0000 0.0000 0.0000
# 3 42.8547 37.5318 86.4584 0.0000 0.0000 0.0000
# 4 0.0000 0.0000 0.0000 40.3581 0.0000 0.0000
# 5 0.0000 0.0000 0.0000 0.0000 13.3276 0.0000
# 6 0.0000 0.0000 0.0000 0.0000 0.0000 20.0361
#
#
#
# Elastic Compliance Matrix: (Units=1/GPa)
#
#
# Indices 1 2 3 4 5 6 
#
# 1 0.008748 -0.002577 -0.003218 0.000000 0.000000 0.000000
# 2 -0.002577 0.008652 -0.002479 0.000000 0.000000 0.000000
# 3 -0.003218 -0.002479 0.014237 0.000000 0.000000 0.000000
# 4 0.000000 0.000000 0.000000 0.024778 0.000000 0.000000
# 5 0.000000 0.000000 0.000000 0.000000 0.075032 0.000000
# 6 0.000000 0.000000 0.000000 0.000000 0.000000 0.049910
#
#
# Mechanical properties :
#
#
# Convention : Reuss Voigt Hill
#
# Bulk Modulus (GPa) = 66.26377 72.06755 69.16566
# Shear Modulus (GPa) = 24.63864 30.72335 27.68100
#
# Velocity S-wave (km/s) = 3.48232 3.88862 3.69106
# Velocity P-wave (km/s) = 6.98443 7.45867 7.22544
#
# Compressibility (1/GPa) = 0.01509120
#
# Stress axis : x y z
#
# Youngs Moduli (GPa) = 114.30921 115.58439 70.23912
#
# Poissons Ratio (x) = 0.29783 0.22601
# Poissons Ratio (y) = 0.29454 0.17409
# Poissons Ratio (z) = 0.36781 0.28648
#
# Static dielectric constant tensor:
#      x y z
#    x 2.834620 0.000000 0.000000 
#    y 0.000000 3.936800 0.000000 
#    z 0.000000 0.000000 4.015060 
# 
# 
# High freq. dielectric constant tensor:
#      x y z
#    x 1.818080 0.000000 0.000000 
#    y 0.000000 1.801010 0.000000 
#    z 0.000000 0.000000 1.778020 
# 
# From -- ./inp_files/7742.got.cif
#   From: 2010.03.12/outbox.cif.g09.slc.cpg/sg67_4_cif.got.tgz:7742.got - 2010.04.10 22:41:39.
