data_PCOD8281140
_publ_section_title
;
Structure prediction by ZEFSAII (Michael W. Deem and Ramdas Pophale) SiO2 
 PCOD8281140
Probable space group: C M M A
;
_chemical_formula_sum "Si O2"
_cell_formula_units_Z 80
_cell_length_a 28.820815
_cell_length_b 8.913957
_cell_length_c 15.594185
_cell_angle_alpha 90.000000
_cell_angle_beta 90.000000
_cell_angle_gamma 90.000000
_cell_volume 4006.263170
_symmetry_space_group_name_H-M "C M M A"
_symmetry_group_IT_number 67
_symmetry_cell_setting 'orthorhombic'
loop_
_space_group_symop_operation_xyz
x,y,z
-x,1/2-y,z
x,-y,-z
-x,1/2+y,-z
-x,-y,-z
x,1/2+y,-z
-x,y,z
x,1/2-y,z
1/2+x,1/2+y,z
1/2-x,-y,z
1/2+x,1/2-y,-z
1/2-x,y,-z
1/2-x,1/2-y,-z
1/2+x,y,-z
1/2-x,1/2+y,z
1/2+x,-y,z
loop_
_atom_site_type_symbol
_atom_site_label
_atom_site_fract_x
_atom_site_fract_y
_atom_site_fract_z
Si Si1 0.353582 0.575463 0.912670
Si Si2 0.949269 0.927312 0.659363
Si Si3 0.800159 0.571755 0.756271
Si Si4 0.645393 0.073217 0.586355
Si Si5 0.948823 0.420264 0.836476
O O1 0.339710 0.750000 0.912760
O O2 0.330185 0.493836 0.833140
O O3 0.409265 0.551810 0.907249
O O4 0.335627 0.500000 0.000000
O O5 0.948953 0.750000 0.657633
O O6 0.907474 0.987231 0.599982
O O7 0.000000 0.989000 0.628696
O O8 0.939197 0.973101 0.756504
O O9 0.797166 0.750000 0.765904
O O10 0.750000 0.500000 0.759898
O O11 0.823398 0.523483 0.666564
O O12 0.646604 0.250000 0.575167
O O13 0.665641 0.000000 0.500000
O O14 0.946031 0.250000 0.802371
O O15 0.000000 0.453129 0.876349
#
# Coordination Sequence:
#
# PCOD8281140 Si02
#       5
#    16  16  16  16  16
#     4  11  23  39  62  91 123 159 198 243 293 350
#     4   9  17  32  55  83 117 157 198 239 287 342
#     4  11  24  44  66  89 117 151 195 247 304 359
#     4  10  22  38  59  88 121 156 196 242 291 349
#     4   9  18  33  55  85 120 158 199 240 285 340
#
# _framework density 19.968733
#
# number of rings (size 3 to 8) (size 9 to 14) (size 15 to 20)
#    0.000    2.000    2.000    1.200    0.000    4.800 
#    0.000    4.000    0.000    0.000    0.000    0.000 
#    0.000    0.000    0.000    0.000    0.000    0.000 
#
# Total GULP energy -495893.894025 kJ/mol
# GULP energy per Si atom -12397.347351 kJ/mol
# Density = 1.992328 g / cm^3
# Si number density = 19.968733 Si / 1000 Ang^3
#
#
#
# Elastic Constant Matrix: (Units=GPa)
#
#
# Indices 1 2 3 4 5 6 
#
# 1 111.9513 43.2720 52.3987 0.0000 0.0000 0.0000
# 2 43.2720 53.9072 45.1051 0.0000 0.0000 0.0000
# 3 52.3987 45.1051 131.4792 0.0000 0.0000 0.0000
# 4 0.0000 0.0000 0.0000 34.2315 0.0000 0.0000
# 5 0.0000 0.0000 0.0000 0.0000 9.4635 0.0000
# 6 0.0000 0.0000 0.0000 0.0000 0.0000 12.0106
#
#
#
# Elastic Compliance Matrix: (Units=1/GPa)
#
#
# Indices 1 2 3 4 5 6 
#
# 1 0.013437 -0.008844 -0.002321 0.000000 0.000000 0.000000
# 2 -0.008844 0.031840 -0.007398 0.000000 0.000000 0.000000
# 3 -0.002321 -0.007398 0.011069 0.000000 0.000000 0.000000
# 4 0.000000 0.000000 0.000000 0.029213 0.000000 0.000000
# 5 0.000000 0.000000 0.000000 0.000000 0.105669 0.000000
# 6 0.000000 0.000000 0.000000 0.000000 0.000000 0.083260
#
#
# Mechanical properties :
#
#
# Convention : Reuss Voigt Hill
#
# Bulk Modulus (GPa) = 52.03188 64.32102 58.17645
# Shear Modulus (GPa) = 15.72221 21.57859 18.65040
#
# Velocity S-wave (km/s) = 2.80900 3.29084 3.05942
# Velocity P-wave (km/s) = 6.05260 6.83523 6.45578
#
# Compressibility (1/GPa) = 0.01921899
#
# Stress axis : x y z
#
# Youngs Moduli (GPa) = 74.41926 31.40693 90.34346
#
# Poissons Ratio (x) = 0.27777 0.20970
# Poissons Ratio (y) = 0.65818 0.66839
# Poissons Ratio (z) = 0.17274 0.23236
#
# Static dielectric constant tensor:
#      x y z
#    x 4.035560 0.000000 0.000000 
#    y 0.000000 3.608010 0.000000 
#    z 0.000000 0.000000 3.483530 
# 
# 
# High freq. dielectric constant tensor:
#      x y z
#    x 1.789310 0.000000 0.000000 
#    y 0.000000 1.776450 0.000000 
#    z 0.000000 0.000000 1.766530 
# 
# From -- ./inp_files/35766.got.cif
#   From: 2010.03.12/outbox.cif.g09.slc.cpg/sg67_18_cif.got.tgz:35766.got - 2010.04.10 22:41:39.
