data_PCOD8281004
_publ_section_title
;
Structure prediction by ZEFSAII (Michael W. Deem and Ramdas Pophale) SiO2 
 PCOD8281004
Probable space group: C M M A
;
_chemical_formula_sum "Si O2"
_cell_formula_units_Z 80
_cell_length_a 18.448618
_cell_length_b 14.229163
_cell_length_c 15.933368
_cell_angle_alpha 90.000000
_cell_angle_beta 90.000000
_cell_angle_gamma 90.000000
_cell_volume 4182.642823
_symmetry_space_group_name_H-M "C M M A"
_symmetry_group_IT_number 67
_symmetry_cell_setting 'orthorhombic'
loop_
_space_group_symop_operation_xyz
x,y,z
-x,1/2-y,z
x,-y,-z
-x,1/2+y,-z
-x,-y,-z
x,1/2+y,-z
-x,y,z
x,1/2-y,z
1/2+x,1/2+y,z
1/2-x,-y,z
1/2+x,1/2-y,-z
1/2-x,y,-z
1/2-x,1/2-y,-z
1/2+x,y,-z
1/2-x,1/2+y,z
1/2+x,-y,z
loop_
_atom_site_type_symbol
_atom_site_label
_atom_site_fract_x
_atom_site_fract_y
_atom_site_fract_z
Si Si1 0.333065 0.985390 0.703061
Si Si2 0.585877 0.854389 0.028132
Si Si3 0.082686 0.858131 0.614603
Si Si4 0.323318 0.858004 0.543484
Si Si5 0.914259 0.030401 0.868193
O O1 0.342558 0.914396 0.626372
O O2 0.373531 0.942213 0.783113
O O3 0.250000 0.000000 0.726672
O O4 0.369076 0.084797 0.680230
O O5 0.500000 0.849441 0.028417
O O6 0.619139 0.750000 0.042746
O O7 0.610622 0.894181 0.937878
O O8 0.610233 0.925849 0.101611
O O9 0.089788 0.750000 0.641536
O O10 0.110294 0.872639 0.519854
O O11 0.000000 0.892956 0.618740
O O12 0.311787 0.750000 0.568917
O O13 0.250000 0.897190 0.500000
O O14 0.000000 0.034306 0.852857
#
# Coordination Sequence:
#
# PCOD8281004 Si02
#       5
#    16  16  16  16  16
#     4  12  23  34  56  84 116 154 190 235 295 349
#     4   8  15  33  59  79 104 146 184 223 286 350
#     4  10  22  39  59  83 111 148 198 250 292 340
#     4  10  21  39  58  77 110 155 198 236 286 351
#     4   9  19  34  53  83 113 138 184 239 280 339
#
# _framework density 19.126663000000001
#
# number of rings (size 3 to 8) (size 9 to 14) (size 15 to 20)
#    0.000    2.200    2.000    2.400    0.000    4.000 
#    0.000    4.000    0.000    1.200    0.000    0.000 
#    0.000    0.000    0.000    0.000    0.000    0.000 
#
# Total GULP energy -496027.870696 kJ/mol
# GULP energy per Si atom -12400.696767 kJ/mol
# Density = 1.908313 g / cm^3
# Si number density = 19.126663 Si / 1000 Ang^3
#
#
#
# Elastic Constant Matrix: (Units=GPa)
#
#
# Indices 1 2 3 4 5 6 
#
# 1 99.3297 27.4011 37.6238 0.0000 0.0000 0.0000
# 2 27.4011 84.7678 27.9980 0.0000 0.0000 0.0000
# 3 37.6238 27.9980 98.7255 0.0000 0.0000 0.0000
# 4 0.0000 0.0000 0.0000 15.5219 0.0000 0.0000
# 5 0.0000 0.0000 0.0000 0.0000 34.2973 0.0000
# 6 0.0000 0.0000 0.0000 0.0000 0.0000 19.9820
#
#
#
# Elastic Compliance Matrix: (Units=1/GPa)
#
#
# Indices 1 2 3 4 5 6 
#
# 1 0.012293 -0.002677 -0.003926 0.000000 0.000000 0.000000
# 2 -0.002677 0.013599 -0.002836 0.000000 0.000000 0.000000
# 3 -0.003926 -0.002836 0.012430 0.000000 0.000000 0.000000
# 4 0.000000 0.000000 0.000000 0.064425 0.000000 0.000000
# 5 0.000000 0.000000 0.000000 0.000000 0.029157 0.000000
# 6 0.000000 0.000000 0.000000 0.000000 0.000000 0.050045
#
#
# Mechanical properties :
#
#
# Convention : Reuss Voigt Hill
#
# Bulk Modulus (GPa) = 51.43130 52.09653 51.76392
# Shear Modulus (GPa) = 24.11874 26.61357 25.36616
#
# Velocity S-wave (km/s) = 3.55491 3.73425 3.64568
# Velocity P-wave (km/s) = 6.61801 6.77418 6.69655
#
# Compressibility (1/GPa) = 0.01944341
#
# Stress axis : x y z
#
# Youngs Moduli (GPa) = 81.34778 73.53407 80.45371
#
# Poissons Ratio (x) = 0.19686 0.31583
# Poissons Ratio (y) = 0.21778 0.22820
# Poissons Ratio (z) = 0.31934 0.20857
#
# Static dielectric constant tensor:
#      x y z
#    x 3.405980 0.000000 0.000000 
#    y 0.000000 3.832160 0.000000 
#    z 0.000000 0.000000 3.378450 
# 
# 
# High freq. dielectric constant tensor:
#      x y z
#    x 1.724100 0.000000 0.000000 
#    y 0.000000 1.749330 0.000000 
#    z 0.000000 0.000000 1.738820 
# 
# From -- ./inp_files/26990.got.cif
#   From: 2010.03.12/outbox.cif.g09.slc.cpg/sg67_14_cif.got.tgz:26990.got - 2010.04.10 22:41:39.
