data_PCOD8281886
_publ_section_title
;
Structure prediction by ZEFSAII (Michael W. Deem and Ramdas Pophale) SiO2 
 PCOD8281886
Probable space group: C C C A
;
_chemical_formula_sum "Si O2"
_cell_formula_units_Z 112
_cell_length_a 24.183776
_cell_length_b 18.735233
_cell_length_c 12.036088
_cell_angle_alpha 90.000000
_cell_angle_beta 90.000000
_cell_angle_gamma 90.000000
_cell_volume 5453.415202
_symmetry_space_group_name_H-M "C C C A"
_symmetry_group_IT_number 68
_space_group.IT_coordinate_system_code '2'
_symmetry_cell_setting 'orthorhombic'
loop_
_space_group_symop_operation_xyz
x,y,z
-x,1/2-y,z
x,1/2-y,1/2-z
-x,y,1/2-z
-x,-y,-z
x,1/2+y,-z
-x,1/2+y,1/2+z
x,-y,1/2+z
1/2+x,1/2+y,z
1/2-x,-y,z
1/2+x,-y,1/2-z
1/2-x,1/2+y,1/2-z
1/2-x,1/2-y,-z
1/2+x,y,-z
1/2-x,y,1/2+z
1/2+x,1/2-y,1/2+z
loop_
_atom_site_type_symbol
_atom_site_label
_atom_site_fract_x
_atom_site_fract_y
_atom_site_fract_z
Si Si1 0.937385 0.456106 0.399063
Si Si2 0.836188 0.073175 0.957328
Si Si3 0.868108 0.939706 0.813337
Si Si4 0.231451 0.076587 0.327902
Si Si5 0.454061 0.896810 0.022181
Si Si6 0.171690 0.665867 0.257416
Si Si7 0.947431 0.172273 0.694186
O O1 0.893784 0.416509 0.478866
O O2 0.914029 0.465737 0.275102
O O3 0.950394 0.535074 0.441361
O O4 0.991653 0.405607 0.401118
O O5 0.821353 0.142805 0.885185
O O6 0.839915 0.005610 0.876232
O O7 0.786506 0.065927 0.044784
O O8 0.819565 0.896629 0.749667
O O9 0.899601 0.888921 0.901156
O O10 0.281657 0.132035 0.321698
O O11 0.250000 0.000000 0.281268
O O12 0.456738 0.828124 0.939903
O O13 0.177059 0.750000 0.250000
O O14 0.111865 0.636039 0.217762
O O15 0.945827 0.250000 0.750000
O O16 0.000000 0.130952 0.750000
#
# Coordination Sequence:
#
# PCOD8281886 Si02
#       7
#    16  16  16  16  16  16  16
#     4   9  19  33  54  93 125 157 198 260 330 387
#     4  10  21  36  59  86 123 164 208 257 326 384
#     4  10  20  36  57  91 124 162 207 263 325 389
#     4  11  24  38  61  88 122 170 218 268 323 386
#     4  10  19  32  60  88 124 163 198 262 325 380
#     4  11  24  41  62  89 123 165 217 273 322 391
#     4  10  22  40  62  90 123 165 212 260 316 391
#
# _framework density 20.537590000000002
#
# number of rings (size 3 to 8) (size 9 to 14) (size 15 to 20)
#    0.000    1.857    1.429    2.143    6.000    2.857 
#    0.000    1.429    0.000    0.000    0.000   20.000 
#    0.000    0.000    0.000    0.000    0.000    0.000 
#
# Total GULP energy -694149.736984 kJ/mol
# GULP energy per Si atom -12395.531018 kJ/mol
# Density = 2.049085 g / cm^3
# Si number density = 20.537590 Si / 1000 Ang^3
#
#
#
# Elastic Constant Matrix: (Units=GPa)
#
#
# Indices 1 2 3 4 5 6 
#
# 1 163.1215 38.2115 66.5657 0.0000 0.0000 0.0000
# 2 38.2115 62.8888 36.0481 0.0000 0.0000 0.0000
# 3 66.5657 36.0481 136.4635 0.0000 0.0000 0.0000
# 4 0.0000 0.0000 0.0000 31.2980 0.0000 0.0000
# 5 0.0000 0.0000 0.0000 0.0000 39.9683 0.0000
# 6 0.0000 0.0000 0.0000 0.0000 0.0000 23.4806
#
#
#
# Elastic Compliance Matrix: (Units=1/GPa)
#
#
# Indices 1 2 3 4 5 6 
#
# 1 0.008151 -0.003151 -0.003144 0.000000 0.000000 0.000000
# 2 -0.003151 0.019956 -0.003735 0.000000 0.000000 0.000000
# 3 -0.003144 -0.003735 0.009848 0.000000 0.000000 0.000000
# 4 0.000000 0.000000 0.000000 0.031951 0.000000 0.000000
# 5 0.000000 0.000000 0.000000 0.000000 0.025020 0.000000
# 6 0.000000 0.000000 0.000000 0.000000 0.000000 0.042588
#
#
# Mechanical properties :
#
#
# Convention : Reuss Voigt Hill
#
# Bulk Modulus (GPa) = 55.87517 71.56939 63.72228
# Shear Modulus (GPa) = 30.57372 33.72595 32.14983
#
# Velocity S-wave (km/s) = 3.86252 4.05675 3.96082
# Velocity P-wave (km/s) = 6.86712 7.54100 7.21193
#
# Compressibility (1/GPa) = 0.01789704
#
# Stress axis : x y z
#
# Youngs Moduli (GPa) = 122.67828 50.10963 101.54256
#
# Poissons Ratio (x) = 0.15788 0.31924
# Poissons Ratio (y) = 0.38653 0.37923
# Poissons Ratio (z) = 0.38569 0.18715
#
# Static dielectric constant tensor:
#      x y z
#    x 4.260610 0.000000 0.000000 
#    y 0.000000 3.174720 0.000000 
#    z 0.000000 0.000000 3.855980 
# 
# 
# High freq. dielectric constant tensor:
#      x y z
#    x 1.828600 0.000000 0.000000 
#    y 0.000000 1.744210 0.000000 
#    z 0.000000 0.000000 1.813130 
# 
# From -- ./inp_files/16576.got.cif
#   From: 2010.03.12/outbox.cif.g09.slc.cpg/sg68_9_cif.got.tgz:16576.got - 2010.04.10 23:14:56.
