data_PCOD8281404
_publ_section_title
;
Structure prediction by ZEFSAII (Michael W. Deem and Ramdas Pophale) SiO2 
 PCOD8281404
Probable space group: C M M A
;
_chemical_formula_sum "Si O2"
_cell_formula_units_Z 64
_cell_length_a 26.297163
_cell_length_b 18.064497
_cell_length_c 6.596272
_cell_angle_alpha 90.000000
_cell_angle_beta 90.000000
_cell_angle_gamma 90.000000
_cell_volume 3133.526178
_symmetry_space_group_name_H-M "C M M A"
_symmetry_group_IT_number 67
_symmetry_cell_setting 'orthorhombic'
loop_
_space_group_symop_operation_xyz
x,y,z
-x,1/2-y,z
x,-y,-z
-x,1/2+y,-z
-x,-y,-z
x,1/2+y,-z
-x,y,z
x,1/2-y,z
1/2+x,1/2+y,z
1/2-x,-y,z
1/2+x,1/2-y,-z
1/2-x,y,-z
1/2-x,1/2-y,-z
1/2+x,y,-z
1/2-x,1/2+y,z
1/2+x,-y,z
loop_
_atom_site_type_symbol
_atom_site_label
_atom_site_fract_x
_atom_site_fract_y
_atom_site_fract_z
Si Si1 0.208409 0.167919 0.845066
Si Si2 0.355808 0.086238 0.463422
Si Si3 0.381635 0.829884 0.148196
Si Si4 0.557901 0.336934 0.212637
O O1 0.227535 0.250000 0.772876
O O2 0.195349 0.116069 0.650569
O O3 0.250000 0.132409 0.000000
O O4 0.156301 0.177597 0.961184
O O5 0.358397 0.114968 0.691766
O O6 0.407513 0.110441 0.352571
O O7 0.351358 0.000000 0.500000
O O8 0.389823 0.750000 0.254697
O O9 0.432817 0.854941 0.028261
O O10 0.500000 0.356721 0.265219
O O11 0.569240 0.250000 0.255655
#
# Coordination Sequence:
#
# PCOD8281404 Si02
#       4
#    16  16  16  16
#     4   9  19  37  59  80 104 141 192 242 284 335
#     4  11  22  35  53  82 118 150 180 227 293 353
#     4   9  18  35  57  78 104 142 187 235 284 333
#     4   9  19  36  57  81 109 146 195 240 274 325
#
# _framework density 20.424272999999999
#
# number of rings (size 3 to 8) (size 9 to 14) (size 15 to 20)
#    0.000    2.500    0.000    3.750    0.000    6.500 
#    0.000   11.250    0.000    0.000    0.000    0.000 
#    0.000    0.000    0.000    0.000    0.000    0.000 
#
# Total GULP energy -396425.595783 kJ/mol
# GULP energy per Si atom -12388.299868 kJ/mol
# Density = 2.037779 g / cm^3
# Si number density = 20.424273 Si / 1000 Ang^3
#
#
#
# Elastic Constant Matrix: (Units=GPa)
#
#
# Indices 1 2 3 4 5 6 
#
# 1 73.3897 23.2914 13.1592 0.0000 0.0000 0.0000
# 2 23.2914 124.7975 55.1491 0.0000 0.0000 0.0000
# 3 13.1592 55.1491 87.1295 0.0000 0.0000 0.0000
# 4 0.0000 0.0000 0.0000 8.8826 0.0000 0.0000
# 5 0.0000 0.0000 0.0000 0.0000 35.0451 0.0000
# 6 0.0000 0.0000 0.0000 0.0000 0.0000 16.4608
#
#
#
# Elastic Compliance Matrix: (Units=1/GPa)
#
#
# Indices 1 2 3 4 5 6 
#
# 1 0.014511 -0.002415 -0.000663 0.000000 0.000000 0.000000
# 2 -0.002415 0.011527 -0.006931 0.000000 0.000000 0.000000
# 3 -0.000663 -0.006931 0.015964 0.000000 0.000000 0.000000
# 4 0.000000 0.000000 0.000000 0.112580 0.000000 0.000000
# 5 0.000000 0.000000 0.000000 0.000000 0.028535 0.000000
# 6 0.000000 0.000000 0.000000 0.000000 0.000000 0.060750
#
#
# Mechanical properties :
#
#
# Convention : Reuss Voigt Hill
#
# Bulk Modulus (GPa) = 45.48816 52.05735 48.77276
# Shear Modulus (GPa) = 18.43565 24.99217 21.71391
#
# Velocity S-wave (km/s) = 3.00765 3.50187 3.26412
# Velocity P-wave (km/s) = 5.86355 6.47256 6.17557
#
# Compressibility (1/GPa) = 0.02198374
#
# Stress axis : x y z
#
# Youngs Moduli (GPa) = 68.91184 86.75532 62.63968
#
# Poissons Ratio (x) = 0.20955 0.04152
# Poissons Ratio (y) = 0.16645 0.43416
# Poissons Ratio (z) = 0.04568 0.60131
#
# Static dielectric constant tensor:
#      x y z
#    x 3.805480 0.000000 0.000000 
#    y 0.000000 3.557480 0.000000 
#    z 0.000000 0.000000 3.715500 
# 
# 
# High freq. dielectric constant tensor:
#      x y z
#    x 1.795650 0.000000 0.000000 
#    y 0.000000 1.771150 0.000000 
#    z 0.000000 0.000000 1.798670 
# 
# From -- ./inp_files/2193.got.cif
#   From: 2010.03.12/outbox.cif.g09.slc.cpg/sg67_2_cif.got.tgz:2193.got - 2010.04.10 22:41:39.
