data_PCOD8281440
_publ_section_title
;
Structure prediction by ZEFSAII (Michael W. Deem and Ramdas Pophale) SiO2 
 PCOD8281440
Probable space group: C M M A
;
_chemical_formula_sum "Si O2"
_cell_formula_units_Z 80
_cell_length_a 18.825030
_cell_length_b 25.045925
_cell_length_c 8.736741
_cell_angle_alpha 90.000000
_cell_angle_beta 90.000000
_cell_angle_gamma 90.000000
_cell_volume 4119.288543
_symmetry_space_group_name_H-M "C M M A"
_symmetry_group_IT_number 67
_symmetry_cell_setting 'orthorhombic'
loop_
_space_group_symop_operation_xyz
x,y,z
-x,1/2-y,z
x,-y,-z
-x,1/2+y,-z
-x,-y,-z
x,1/2+y,-z
-x,y,z
x,1/2-y,z
1/2+x,1/2+y,z
1/2-x,-y,z
1/2+x,1/2-y,-z
1/2-x,y,-z
1/2-x,1/2-y,-z
1/2+x,y,-z
1/2-x,1/2+y,z
1/2+x,-y,z
loop_
_atom_site_type_symbol
_atom_site_label
_atom_site_fract_x
_atom_site_fract_y
_atom_site_fract_z
Si Si1 0.301547 0.250000 0.210227
Si Si2 0.837523 0.560421 0.840240
Si Si3 0.859029 0.250000 0.108255
Si Si4 0.416695 0.345000 0.697971
Si Si5 0.177001 0.148439 0.582664
Si Si6 0.672788 0.439010 0.185115
O O1 0.222637 0.250000 0.148699
O O2 0.308482 0.197267 0.307704
O O3 0.361291 0.250000 0.076701
O O4 0.888722 0.596401 0.739576
O O5 0.755685 0.576051 0.822649
O O6 0.844547 0.500303 0.775941
O O7 0.860676 0.569562 0.016745
O O8 0.897689 0.197468 0.171222
O O9 0.500000 0.346671 0.673471
O O10 0.380386 0.329856 0.537954
O O11 0.250000 0.129944 0.500000
O O12 0.142705 0.099708 0.682216
#
# Coordination Sequence:
#
# PCOD8281440 Si02
#       6
#     8  16   8  16  16  16
#     4  11  22  38  68  95 116 146 213 263 287 348
#     4   9  18  37  60  88 116 152 207 260 298 352
#     4  11  22  41  65  92 117 156 204 256 304 360
#     4  12  25  40  57  88 130 166 195 246 320 383
#     4  12  21  37  60  93 124 158 201 254 311 362
#     4   9  18  35  63  89 113 150 210 264 296 342
#
# _framework density 19.420829000000001
#
# number of rings (size 3 to 8) (size 9 to 14) (size 15 to 20)
#    0.000    1.400    4.000    3.600    0.000    4.000 
#    0.000    9.000    0.000    0.000    0.000    0.000 
#    0.000    0.000    0.000    0.000    0.000    0.000 
#
# Total GULP energy -495921.459336 kJ/mol
# GULP energy per Si atom -12398.036483 kJ/mol
# Density = 1.937663 g / cm^3
# Si number density = 19.420829 Si / 1000 Ang^3
#
#
#
# Elastic Constant Matrix: (Units=GPa)
#
#
# Indices 1 2 3 4 5 6 
#
# 1 81.8326 18.2405 18.1628 0.0000 0.0000 0.0000
# 2 18.2405 104.6343 42.0275 0.0000 0.0000 0.0000
# 3 18.1628 42.0275 91.9742 0.0000 0.0000 0.0000
# 4 0.0000 0.0000 0.0000 44.1873 0.0000 0.0000
# 5 0.0000 0.0000 0.0000 0.0000 17.6293 0.0000
# 6 0.0000 0.0000 0.0000 0.0000 0.0000 -11.0954
#
#
#
# Elastic Compliance Matrix: (Units=1/GPa)
#
#
# Indices 1 2 3 4 5 6 
#
# 1 0.012972 -0.001509 -0.001872 0.000000 0.000000 0.000000
# 2 -0.001509 0.011881 -0.005131 0.000000 0.000000 0.000000
# 3 -0.001872 -0.005131 0.013587 0.000000 0.000000 0.000000
# 4 0.000000 0.000000 0.000000 0.022631 0.000000 0.000000
# 5 0.000000 0.000000 0.000000 0.000000 0.056724 0.000000
# 6 0.000000 0.000000 0.000000 0.000000 0.000000 -0.090127
#
#
# Mechanical properties :
#
#
# Convention : Reuss Voigt Hill
#
# Bulk Modulus (GPa) = 46.69569 48.36696 47.53133
# Shear Modulus (GPa) = 96.46841 23.47826 59.97333
#
# Velocity S-wave (km/s) = 7.05553 3.48073 5.56309
# Velocity P-wave (km/s) = 9.51159 6.41192 8.11120
#
# Compressibility (1/GPa) = 0.02141525
#
# Stress axis : x y z
#
# Youngs Moduli (GPa) = 77.08904 84.16695 73.60043
#
# Poissons Ratio (x) = 0.12705 0.13777
# Poissons Ratio (y) = 0.11636 0.37764
# Poissons Ratio (z) = 0.14431 0.43186
#
# Static dielectric constant tensor:
#      x y z
#    x 3.191790 0.000000 0.000000 
#    y 0.000000 4.204820 0.000000 
#    z 0.000000 0.000000 3.983390 
# 
# 
# High freq. dielectric constant tensor:
#      x y z
#    x 1.709870 0.000000 0.000000 
#    y 0.000000 1.770110 0.000000 
#    z 0.000000 0.000000 1.769250 
# 
# From -- ./inp_files/11167.got.cif
#   From: 2010.03.12/outbox.cif.g09.slc.cpg/sg67_6_cif.got.tgz:11167.got - 2010.04.10 22:41:39.
