data_PCOD8281960
_publ_section_title
;
Structure prediction by ZEFSAII (Michael W. Deem and Ramdas Pophale) SiO2 
 PCOD8281960
Probable space group: C C C A
;
_chemical_formula_sum "Si O2"
_cell_formula_units_Z 88
_cell_length_a 17.301176
_cell_length_b 11.866842
_cell_length_c 19.977984
_cell_angle_alpha 90.000000
_cell_angle_beta 90.000000
_cell_angle_gamma 90.000000
_cell_volume 4101.686328
_symmetry_space_group_name_H-M "C C C A"
_symmetry_group_IT_number 68
_space_group.IT_coordinate_system_code '2'
_symmetry_cell_setting 'orthorhombic'
loop_
_space_group_symop_operation_xyz
x,y,z
-x,1/2-y,z
x,1/2-y,1/2-z
-x,y,1/2-z
-x,-y,-z
x,1/2+y,-z
-x,1/2+y,1/2+z
x,-y,1/2+z
1/2+x,1/2+y,z
1/2-x,-y,z
1/2+x,-y,1/2-z
1/2-x,1/2+y,1/2-z
1/2-x,1/2-y,-z
1/2+x,y,-z
1/2-x,y,1/2+z
1/2+x,1/2-y,1/2+z
loop_
_atom_site_type_symbol
_atom_site_label
_atom_site_fract_x
_atom_site_fract_y
_atom_site_fract_z
Si Si1 0.668023 0.445701 0.302767
Si Si2 0.000000 0.750000 0.851616
Si Si3 0.830715 0.054210 0.940988
Si Si4 0.374241 0.915845 0.181722
Si Si5 0.259520 0.240622 0.143826
Si Si6 0.371583 0.394953 0.585413
O O1 0.750000 0.500000 0.294033
O O2 0.620574 0.484793 0.236851
O O3 0.681587 0.311323 0.308697
O O4 0.625770 0.493001 0.368997
O O5 0.053433 0.667958 0.806042
O O6 0.054194 0.820805 0.899939
O O7 0.815352 0.172921 0.905467
O O8 0.750000 0.000000 0.962203
O O9 0.878070 0.970964 0.891909
O O10 0.879160 0.071019 0.008171
O O11 0.293829 0.844216 0.188112
O O12 0.206489 0.324626 0.100103
#
# Coordination Sequence:
#
# PCOD8281960 Si02
#       6
#    16   8  16  16  16  16
#     4  10  20  34  56  88 115 143 183 236 292 340
#     4  10  24  41  56  80 114 159 202 232 282 343
#     4  10  19  35  59  88 118 151 192 243 296 337
#     4  10  22  37  58  85 118 154 192 238 284 348
#     4   9  19  35  57  87 119 143 185 244 301 339
#     4  10  21  35  57  84 118 155 193 235 279 345
#
# _framework density 21.454591000000001
#
# number of rings (size 3 to 8) (size 9 to 14) (size 15 to 20)
#    0.000    2.182    0.000    3.818    0.000   15.273 
#    0.000    0.000    0.000    0.000    0.000   10.182 
#    0.000    0.000    0.000    0.000    0.000    0.000 
#
# Total GULP energy -545511.203087 kJ/mol
# GULP energy per Si atom -12397.981888 kJ/mol
# Density = 2.140576 g / cm^3
# Si number density = 21.454591 Si / 1000 Ang^3
#
#
#
# Elastic Constant Matrix: (Units=GPa)
#
#
# Indices 1 2 3 4 5 6 
#
# 1 70.8721 34.4937 44.9559 0.0000 0.0000 0.0000
# 2 34.4937 119.4264 69.3235 0.0000 0.0000 0.0000
# 3 44.9559 69.3235 132.8403 0.0000 0.0000 0.0000
# 4 0.0000 0.0000 0.0000 40.5023 0.0000 0.0000
# 5 0.0000 0.0000 0.0000 0.0000 13.5323 0.0000
# 6 0.0000 0.0000 0.0000 0.0000 0.0000 30.8447
#
#
#
# Elastic Compliance Matrix: (Units=1/GPa)
#
#
# Indices 1 2 3 4 5 6 
#
# 1 0.018452 -0.002445 -0.004968 0.000000 0.000000 0.000000
# 2 -0.002445 0.012336 -0.005610 0.000000 0.000000 0.000000
# 3 -0.004968 -0.005610 0.012137 0.000000 0.000000 0.000000
# 4 0.000000 0.000000 0.000000 0.024690 0.000000 0.000000
# 5 0.000000 0.000000 0.000000 0.000000 0.073897 0.000000
# 6 0.000000 0.000000 0.000000 0.000000 0.000000 0.032421
#
#
# Mechanical properties :
#
#
# Convention : Reuss Voigt Hill
#
# Bulk Modulus (GPa) = 59.25203 68.96503 64.10853
# Shear Modulus (GPa) = 24.31842 28.60023 26.45933
#
# Velocity S-wave (km/s) = 3.37038 3.65507 3.51561
# Velocity P-wave (km/s) = 6.54395 7.07299 6.81360
#
# Compressibility (1/GPa) = 0.01687706
#
# Stress axis : x y z
#
# Youngs Moduli (GPa) = 54.19580 81.06239 82.39353
#
# Poissons Ratio (x) = 0.19823 0.40935
# Poissons Ratio (y) = 0.13253 0.46224
# Poissons Ratio (z) = 0.26926 0.45477
#
# Static dielectric constant tensor:
#      x y z
#    x 3.619910 0.000000 0.000000 
#    y 0.000000 4.564170 0.000000 
#    z 0.000000 0.000000 3.828820 
# 
# 
# High freq. dielectric constant tensor:
#      x y z
#    x 1.798950 0.000000 0.000000 
#    y 0.000000 1.850900 0.000000 
#    z 0.000000 0.000000 1.843140 
# 
# From -- ./inp_files/39441.got.cif
#   From: 2010.03.12/outbox.cif.g09.slc.cpg/sg68_20_cif.got.tgz:39441.got - 2010.04.10 23:14:56.
