data_PCOD8281932
_publ_section_title
;
Structure prediction by ZEFSAII (Michael W. Deem and Ramdas Pophale) SiO2 
 PCOD8281932
Probable space group: C C C A
;
_chemical_formula_sum "Si O2"
_cell_formula_units_Z 112
_cell_length_a 23.256538
_cell_length_b 14.497165
_cell_length_c 13.633750
_cell_angle_alpha 90.000000
_cell_angle_beta 90.000000
_cell_angle_gamma 90.000000
_cell_volume 4596.671558
_symmetry_space_group_name_H-M "C C C A"
_symmetry_group_IT_number 68
_space_group.IT_coordinate_system_code '2'
_symmetry_cell_setting 'orthorhombic'
loop_
_space_group_symop_operation_xyz
x,y,z
-x,1/2-y,z
x,1/2-y,1/2-z
-x,y,1/2-z
-x,-y,-z
x,1/2+y,-z
-x,1/2+y,1/2+z
x,-y,1/2+z
1/2+x,1/2+y,z
1/2-x,-y,z
1/2+x,-y,1/2-z
1/2-x,1/2+y,1/2-z
1/2-x,1/2-y,-z
1/2+x,y,-z
1/2-x,y,1/2+z
1/2+x,1/2-y,1/2+z
loop_
_atom_site_type_symbol
_atom_site_label
_atom_site_fract_x
_atom_site_fract_y
_atom_site_fract_z
Si Si1 0.231662 0.100903 0.694630
Si Si2 0.174650 0.769331 0.046073
Si Si3 0.978953 0.944011 0.145689
Si Si4 0.671098 0.627130 0.347839
Si Si5 0.544023 0.850413 0.171001
Si Si6 0.048705 0.312336 0.956777
Si Si7 0.347304 0.080026 0.369390
O O1 0.222147 0.173451 0.607154
O O2 0.280746 0.140159 0.766264
O O3 0.172810 0.093692 0.757064
O O4 0.250000 0.000000 0.653570
O O5 0.111778 0.796717 0.086801
O O6 0.182717 0.658370 0.061288
O O7 0.181701 0.796727 0.932316
O O8 0.915488 0.906261 0.121098
O O9 0.000000 0.904971 0.250000
O O10 0.026739 0.915566 0.064921
O O11 0.982399 0.052767 0.142295
O O12 0.609916 0.640726 0.290916
O O13 0.671656 0.524657 0.399008
O O14 0.500000 0.805025 0.250000
O O15 0.548583 0.789260 0.072752
O O16 0.000000 0.250000 0.903478
#
# Coordination Sequence:
#
# PCOD8281932 Si02
#       7
#    16  16  16  16  16  16  16
#     4  10  22  40  63  92 129 171 221 274 335 393
#     4  11  22  41  68  95 132 176 221 273 340 400
#     4  10  19  34  58  95 130 167 210 265 329 395
#     4   9  22  42  64  95 132 170 221 279 327 401
#     4   9  20  39  64  87 124 172 216 264 326 393
#     4  11  21  36  61  97 131 164 213 267 328 398
#     4  10  20  39  63  93 134 170 217 278 329 397
#
# _framework density 24.365455999999998
#
# number of rings (size 3 to 8) (size 9 to 14) (size 15 to 20)
#    0.000    2.000    1.429    1.714    0.000    4.000 
#    0.000    4.286   12.571    0.000    0.000    0.000 
#    0.000    0.000    0.000    0.000    0.000    0.000 
#
# Total GULP energy -694014.265050 kJ/mol
# GULP energy per Si atom -12393.111876 kJ/mol
# Density = 2.431000 g / cm^3
# Si number density = 24.365456 Si / 1000 Ang^3
#
#
#
# Elastic Constant Matrix: (Units=GPa)
#
#
# Indices 1 2 3 4 5 6 
#
# 1 133.4521 36.8895 31.0423 0.0000 0.0000 0.0000
# 2 36.8895 115.9961 30.8531 0.0000 0.0000 0.0000
# 3 31.0423 30.8531 77.0754 0.0000 0.0000 0.0000
# 4 0.0000 0.0000 0.0000 19.8823 0.0000 0.0000
# 5 0.0000 0.0000 0.0000 0.0000 39.4732 0.0000
# 6 0.0000 0.0000 0.0000 0.0000 0.0000 -11.8668
#
#
#
# Elastic Compliance Matrix: (Units=1/GPa)
#
#
# Indices 1 2 3 4 5 6 
#
# 1 0.008682 -0.002049 -0.002677 0.000000 0.000000 0.000000
# 2 -0.002049 0.010132 -0.003230 0.000000 0.000000 0.000000
# 3 -0.002677 -0.003230 0.015345 0.000000 0.000000 0.000000
# 4 0.000000 0.000000 0.000000 0.050296 0.000000 0.000000
# 5 0.000000 0.000000 0.000000 0.000000 0.025334 0.000000
# 6 0.000000 0.000000 0.000000 0.000000 0.000000 -0.084269
#
#
# Mechanical properties :
#
#
# Convention : Reuss Voigt Hill
#
# Bulk Modulus (GPa) = 54.80281 58.23261 56.51771
# Shear Modulus (GPa) = 105.22846 24.68031 64.95439
#
# Velocity S-wave (km/s) = 6.57885 3.18610 5.16878
# Velocity P-wave (km/s) = 8.95820 6.12262 7.67254
#
# Compressibility (1/GPa) = 0.01824724
#
# Stress axis : x y z
#
# Youngs Moduli (GPa) = 115.17565 98.69764 65.16605
#
# Poissons Ratio (x) = 0.20226 0.17442
# Poissons Ratio (y) = 0.23603 0.21052
# Poissons Ratio (z) = 0.30827 0.31884
#
# Static dielectric constant tensor:
#      x y z
#    x 4.652550 0.000000 0.000000 
#    y 0.000000 4.455960 0.000000 
#    z 0.000000 0.000000 4.087940 
# 
# 
# High freq. dielectric constant tensor:
#      x y z
#    x 1.982510 0.000000 0.000000 
#    y 0.000000 1.982610 0.000000 
#    z 0.000000 0.000000 1.936470 
# 
# From -- ./inp_files/25470.got.cif
#   From: 2010.03.12/outbox.cif.g09.slc.cpg/sg68_13_cif.got.tgz:25470.got - 2010.04.10 23:14:56.
