data_PCOD8281672
_publ_section_title
;
Structure prediction by ZEFSAII (Michael W. Deem and Ramdas Pophale) SiO2 
 PCOD8281672
Probable space group: C C C A
;
_chemical_formula_sum "Si O2"
_cell_formula_units_Z 120
_cell_length_a 29.340386
_cell_length_b 7.412991
_cell_length_c 25.896158
_cell_angle_alpha 90.000000
_cell_angle_beta 90.000000
_cell_angle_gamma 90.000000
_cell_volume 5632.414814
_symmetry_space_group_name_H-M "C C C A"
_symmetry_group_IT_number 68
_space_group.IT_coordinate_system_code '2'
_symmetry_cell_setting 'orthorhombic'
loop_
_space_group_symop_operation_xyz
x,y,z
-x,1/2-y,z
x,1/2-y,1/2-z
-x,y,1/2-z
-x,-y,-z
x,1/2+y,-z
-x,1/2+y,1/2+z
x,-y,1/2+z
1/2+x,1/2+y,z
1/2-x,-y,z
1/2+x,-y,1/2-z
1/2-x,1/2+y,1/2-z
1/2-x,1/2-y,-z
1/2+x,y,-z
1/2-x,y,1/2+z
1/2+x,1/2-y,1/2+z
loop_
_atom_site_type_symbol
_atom_site_label
_atom_site_fract_x
_atom_site_fract_y
_atom_site_fract_z
Si Si1 0.860012 0.250000 0.250000
Si Si2 0.551666 0.711849 0.057850
Si Si3 0.327411 0.479540 0.395040
Si Si4 0.329092 0.057749 0.426985
Si Si5 0.258395 0.740225 0.440049
Si Si6 0.389269 0.933369 0.517629
Si Si7 0.799993 0.074445 0.784740
Si Si8 0.113733 0.182363 0.361458
O O1 0.828594 0.422804 0.243966
O O2 0.890989 0.294795 0.299869
O O3 0.500000 0.750000 0.042363
O O4 0.565037 0.505855 0.047558
O O5 0.562544 0.793964 0.114633
O O6 0.590501 0.786788 0.019715
O O7 0.280739 0.550473 0.421879
O O8 0.357902 0.354063 0.435259
O O9 0.321546 0.380370 0.340158
O O10 0.356971 0.659210 0.386721
O O11 0.293799 0.232179 0.414949
O O12 0.291231 0.902328 0.425806
O O13 0.356299 0.064720 0.482170
O O14 0.363785 0.009306 0.379574
O O15 0.250000 0.750000 0.500000
O O16 0.799201 0.250000 0.750000
O O17 0.750000 0.000000 0.794723
#
# Coordination Sequence:
#
# PCOD8281672 Si02
#       8
#     8  16  16  16  16  16  16  16
#     4  10  20  42  63  76 118 154 202 266 319 346
#     4  10  20  36  58  84 115 147 185 233 298 380
#     4   9  19  34  51  79 112 156 197 247 294 350
#     4   9  18  29  46  79 114 155 195 236 281 353
#     4  10  17  28  48  75 119 161 201 238 286 342
#     4  10  19  35  54  80 119 150 187 231 295 361
#     4  11  23  40  58  83 115 159 216 265 303 349
#     4   8  18  35  55  76 106 149 191 246 301 351
#
# _framework density 21.305250000000001
#
# number of rings (size 3 to 8) (size 9 to 14) (size 15 to 20)
#    0.000    2.400    2.000    1.200    0.000    2.133 
#    7.200    0.333    0.000    0.000    0.000    0.000 
#    0.000    0.000    0.000    0.000    0.000    0.000 
#
# Total GULP energy -743315.648359 kJ/mol
# GULP energy per Si atom -12388.594139 kJ/mol
# Density = 2.125676 g / cm^3
# Si number density = 21.305250 Si / 1000 Ang^3
#
#
#
# Elastic Constant Matrix: (Units=GPa)
#
#
# Indices 1 2 3 4 5 6 
#
# 1 102.9399 24.9258 42.1479 0.0000 0.0000 0.0000
# 2 24.9258 57.1231 28.0635 0.0000 0.0000 0.0000
# 3 42.1479 28.0635 142.0405 0.0000 0.0000 0.0000
# 4 0.0000 0.0000 0.0000 22.5275 0.0000 0.0000
# 5 0.0000 0.0000 0.0000 0.0000 17.3335 0.0000
# 6 0.0000 0.0000 0.0000 0.0000 0.0000 26.1794
#
#
#
# Elastic Compliance Matrix: (Units=1/GPa)
#
#
# Indices 1 2 3 4 5 6 
#
# 1 0.011752 -0.003782 -0.002740 0.000000 0.000000 0.000000
# 2 -0.003782 0.020605 -0.002949 0.000000 0.000000 0.000000
# 3 -0.002740 -0.002949 0.008436 0.000000 0.000000 0.000000
# 4 0.000000 0.000000 0.000000 0.044390 0.000000 0.000000
# 5 0.000000 0.000000 0.000000 0.000000 0.057692 0.000000
# 6 0.000000 0.000000 0.000000 0.000000 0.000000 0.038198
#
#
# Mechanical properties :
#
#
# Convention : Reuss Voigt Hill
#
# Bulk Modulus (GPa) = 45.76347 54.70866 50.23607
# Shear Modulus (GPa) = 24.11984 27.00582 25.56283
#
# Velocity S-wave (km/s) = 3.36833 3.56415 3.46762
# Velocity P-wave (km/s) = 6.05426 6.53237 6.29785
#
# Compressibility (1/GPa) = 0.02185149
#
# Stress axis : x y z
#
# Youngs Moduli (GPa) = 85.09172 48.53195 118.54111
#
# Poissons Ratio (x) = 0.18354 0.32480
# Poissons Ratio (y) = 0.32181 0.34955
# Poissons Ratio (z) = 0.23315 0.14311
#
# Static dielectric constant tensor:
#      x y z
#    x 4.000510 0.000000 0.000000 
#    y 0.000000 4.427320 0.000000 
#    z 0.000000 0.000000 3.662240 
# 
# 
# High freq. dielectric constant tensor:
#      x y z
#    x 1.818910 0.000000 0.000000 
#    y 0.000000 1.862850 0.000000 
#    z 0.000000 0.000000 1.825500 
# 
# From -- ./inp_files/52405.got.cif
#   From: 2010.03.12/outbox.cif.g09.slc.cpg/sg68_27_cif.got.tgz:52405.got - 2010.04.10 23:14:56.
