data_PCOD8281499
_publ_section_title
;
Structure prediction by ZEFSAII (Michael W. Deem and Ramdas Pophale) SiO2 
 PCOD8281499
Probable space group: C M M A
;
_chemical_formula_sum "Si O2"
_cell_formula_units_Z 72
_cell_length_a 8.953037
_cell_length_b 14.650264
_cell_length_c 28.604628
_cell_angle_alpha 90.000000
_cell_angle_beta 90.000000
_cell_angle_gamma 90.000000
_cell_volume 3751.907600
_symmetry_space_group_name_H-M "C M M A"
_symmetry_group_IT_number 67
_symmetry_cell_setting 'orthorhombic'
loop_
_space_group_symop_operation_xyz
x,y,z
-x,1/2-y,z
x,-y,-z
-x,1/2+y,-z
-x,-y,-z
x,1/2+y,-z
-x,y,z
x,1/2-y,z
1/2+x,1/2+y,z
1/2-x,-y,z
1/2+x,1/2-y,-z
1/2-x,y,-z
1/2-x,1/2-y,-z
1/2+x,y,-z
1/2-x,1/2+y,z
1/2+x,-y,z
loop_
_atom_site_type_symbol
_atom_site_label
_atom_site_fract_x
_atom_site_fract_y
_atom_site_fract_z
Si Si1 0.827152 0.750000 0.303048
Si Si2 0.673822 0.401580 0.378346
Si Si3 0.177132 0.750000 0.794430
Si Si4 0.679191 0.093073 0.146619
Si Si5 0.333878 0.358239 0.044799
Si Si6 0.177551 0.250000 0.550277
O O1 0.793077 0.658204 0.332243
O O2 0.714043 0.750000 0.260124
O O3 0.000000 0.750000 0.286669
O O4 0.500000 0.420620 0.383396
O O5 0.750000 0.500000 0.375863
O O6 0.730494 0.341548 0.422514
O O7 0.252940 0.663895 0.817850
O O8 0.000000 0.750000 0.802223
O O9 0.500000 0.095306 0.149056
O O10 0.738626 0.111265 0.093832
O O11 0.750000 0.000000 0.164331
O O12 0.500000 0.397107 0.042125
O O13 0.331366 0.250000 0.042669
O O14 0.250000 0.400383 0.000000
O O15 0.250000 0.250000 0.500000
O O16 0.000000 0.250000 0.546533
#
# Coordination Sequence:
#
# PCOD8281499 Si02
#       6
#     8  16   8  16  16   8
#     4   9  20  40  61  80 110 150 185 233 292 344
#     4   9  19  36  58  83 113 150 193 238 287 337
#     4  12  25  41  62  88 115 149 189 234 291 350
#     4  11  23  41  61  85 116 150 189 232 281 339
#     4   9  18  34  56  81 110 146 183 224 275 329
#     4   9  19  35  53  80 118 159 198 235 281 334
#
# _framework density 19.190237
#
# number of rings (size 3 to 8) (size 9 to 14) (size 15 to 20)
#    0.000    2.222    1.111    3.000    0.000    5.333 
#    0.000    8.889    0.000    0.000    0.000    0.000 
#    0.000    0.000    0.000    0.000    0.000    0.000 
#
# Total GULP energy -446286.906207 kJ/mol
# GULP energy per Si atom -12396.858506 kJ/mol
# Density = 1.914656 g / cm^3
# Si number density = 19.190237 Si / 1000 Ang^3
#
#
#
# Elastic Constant Matrix: (Units=GPa)
#
#
# Indices 1 2 3 4 5 6 
#
# 1 83.0923 50.6924 53.2746 0.0000 0.0000 0.0000
# 2 50.6924 140.4424 64.9188 0.0000 0.0000 0.0000
# 3 53.2746 64.9188 134.0870 0.0000 0.0000 0.0000
# 4 0.0000 0.0000 0.0000 29.8748 0.0000 0.0000
# 5 0.0000 0.0000 0.0000 0.0000 35.6096 0.0000
# 6 0.0000 0.0000 0.0000 0.0000 0.0000 33.0256
#
#
#
# Elastic Compliance Matrix: (Units=1/GPa)
#
#
# Indices 1 2 3 4 5 6 
#
# 1 0.017781 -0.004061 -0.005098 0.000000 0.000000 0.000000
# 2 -0.004061 0.010101 -0.003277 0.000000 0.000000 0.000000
# 3 -0.005098 -0.003277 0.011070 0.000000 0.000000 0.000000
# 4 0.000000 0.000000 0.000000 0.033473 0.000000 0.000000
# 5 0.000000 0.000000 0.000000 0.000000 0.028082 0.000000
# 6 0.000000 0.000000 0.000000 0.000000 0.000000 0.030280
#
#
# Mechanical properties :
#
#
# Convention : Reuss Voigt Hill
#
# Bulk Modulus (GPa) = 71.02722 77.26593 74.14657
# Shear Modulus (GPa) = 31.18106 32.28439 31.73273
#
# Velocity S-wave (km/s) = 4.03530 4.10608 4.07084
# Velocity P-wave (km/s) = 7.66838 7.92656 7.79854
#
# Compressibility (1/GPa) = 0.01407911
#
# Stress axis : x y z
#
# Youngs Moduli (GPa) = 56.23827 99.00004 90.33421
#
# Poissons Ratio (x) = 0.40208 0.46057
# Poissons Ratio (y) = 0.22841 0.29601
# Poissons Ratio (z) = 0.28673 0.32440
#
# Static dielectric constant tensor:
#      x y z
#    x 3.480890 0.000000 0.000000 
#    y 0.000000 3.520230 0.000000 
#    z 0.000000 0.000000 3.741890 
# 
# 
# High freq. dielectric constant tensor:
#      x y z
#    x 1.739420 0.000000 0.000000 
#    y 0.000000 1.754080 0.000000 
#    z 0.000000 0.000000 1.749430 
# 
# From -- ./inp_files/43160.got.cif
#   From: 2010.03.12/outbox.cif.g09.slc.cpg/sg67_22_cif.got.tgz:43160.got - 2010.04.10 22:41:39.
