data_PCOD8281547
_publ_section_title
;
Structure prediction by ZEFSAII (Michael W. Deem and Ramdas Pophale) SiO2 
 PCOD8281547
Probable space group: C M M A
;
_chemical_formula_sum "Si O2"
_cell_formula_units_Z 88
_cell_length_a 30.134003
_cell_length_b 9.257186
_cell_length_c 17.958350
_cell_angle_alpha 90.000000
_cell_angle_beta 90.000000
_cell_angle_gamma 90.000000
_cell_volume 5009.590752
_symmetry_space_group_name_H-M "C M M A"
_symmetry_group_IT_number 67
_symmetry_cell_setting 'orthorhombic'
loop_
_space_group_symop_operation_xyz
x,y,z
-x,1/2-y,z
x,-y,-z
-x,1/2+y,-z
-x,-y,-z
x,1/2+y,-z
-x,y,z
x,1/2-y,z
1/2+x,1/2+y,z
1/2-x,-y,z
1/2+x,1/2-y,-z
1/2-x,y,-z
1/2-x,1/2-y,-z
1/2+x,y,-z
1/2-x,1/2+y,z
1/2+x,-y,z
loop_
_atom_site_type_symbol
_atom_site_label
_atom_site_fract_x
_atom_site_fract_y
_atom_site_fract_z
Si Si1 0.884272 0.586088 0.701505
Si Si2 0.500000 0.580880 0.923097
Si Si3 0.449392 0.078895 0.576147
Si Si4 0.578762 0.588490 0.135879
Si Si5 0.705893 0.922853 0.233580
Si Si6 0.173503 0.916178 0.926914
O O1 0.877190 0.750000 0.677402
O O2 0.914730 0.514223 0.637289
O O3 0.910375 0.576150 0.778015
O O4 0.834911 0.519707 0.714495
O O5 0.500000 0.750000 0.936195
O O6 0.543372 0.535370 0.878316
O O7 0.500000 0.500000 0.000000
O O8 0.500000 0.042181 0.600701
O O9 0.444125 0.250000 0.565581
O O10 0.437188 0.000000 0.500000
O O11 0.560287 0.750000 0.118800
O O12 0.621155 0.559001 0.084170
O O13 0.709601 0.750000 0.238367
O O14 0.698233 0.970713 0.147719
O O15 0.750000 0.000000 0.263843
O O16 0.184490 0.750000 0.940740
O O17 0.190444 0.000000 0.000000
#
# Coordination Sequence:
#
# PCOD8281547 Si02
#       6
#    16   8  16  16  16  16
#     4   8  16  32  54  75  97 129 167 200 236 293
#     4  12  24  34  44  64  93 126 163 206 249 290
#     4   9  17  30  51  79 106 134 163 193 235 287
#     4   9  18  33  51  68  88 122 165 206 244 289
#     4   9  18  33  50  71  96 123 162 206 246 290
#     4   9  18  31  47  67  91 120 157 203 249 292
#
# _framework density 17.566306000000001
#
# number of rings (size 3 to 8) (size 9 to 14) (size 15 to 20)
#    0.000    2.909    0.000    3.545    1.273    3.273 
#    0.000    6.364    0.000    0.545    0.000    3.818 
#    0.000    0.000    0.000    0.000    0.000    0.000 
#
# Total GULP energy -545296.208539 kJ/mol
# GULP energy per Si atom -12393.095649 kJ/mol
# Density = 1.752632 g / cm^3
# Si number density = 17.566306 Si / 1000 Ang^3
#
#
#
# Elastic Constant Matrix: (Units=GPa)
#
#
# Indices 1 2 3 4 5 6 
#
# 1 119.7178 38.4402 56.0007 0.0000 0.0000 0.0000
# 2 38.4402 52.7018 22.4586 0.0000 0.0000 0.0000
# 3 56.0007 22.4586 92.5295 0.0000 0.0000 0.0000
# 4 0.0000 0.0000 0.0000 23.1985 0.0000 0.0000
# 5 0.0000 0.0000 0.0000 0.0000 18.3383 0.0000
# 6 0.0000 0.0000 0.0000 0.0000 0.0000 25.5449
#
#
#
# Elastic Compliance Matrix: (Units=1/GPa)
#
#
# Indices 1 2 3 4 5 6 
#
# 1 0.013744 -0.007228 -0.006564 0.000000 0.000000 0.000000
# 2 -0.007228 0.024964 -0.001685 0.000000 0.000000 0.000000
# 3 -0.006564 -0.001685 0.015189 0.000000 0.000000 0.000000
# 4 0.000000 0.000000 0.000000 0.043106 0.000000 0.000000
# 5 0.000000 0.000000 0.000000 0.000000 0.054531 0.000000
# 6 0.000000 0.000000 0.000000 0.000000 0.000000 0.039147
#
#
# Mechanical properties :
#
#
# Convention : Reuss Voigt Hill
#
# Bulk Modulus (GPa) = 43.58362 55.41646 49.50004
# Shear Modulus (GPa) = 21.80714 23.28632 22.54673
#
# Velocity S-wave (km/s) = 3.52720 3.64486 3.58651
# Velocity P-wave (km/s) = 6.43840 7.02345 6.73728
#
# Compressibility (1/GPa) = 0.02294440
#
# Stress axis : x y z
#
# Youngs Moduli (GPa) = 72.75833 40.05689 65.83718
#
# Poissons Ratio (x) = 0.28952 0.43215
# Poissons Ratio (y) = 0.52587 0.11094
# Poissons Ratio (z) = 0.47758 0.06750
#
# Static dielectric constant tensor:
#      x y z
#    x 3.392280 0.000000 0.000000 
#    y 0.000000 3.127510 0.000000 
#    z 0.000000 0.000000 3.186580 
# 
# 
# High freq. dielectric constant tensor:
#      x y z
#    x 1.683590 0.000000 0.000000 
#    y 0.000000 1.652540 0.000000 
#    z 0.000000 0.000000 1.663510 
# 
# From -- ./inp_files/32376.got.cif
#   From: 2010.03.12/outbox.cif.g09.slc.cpg/sg67_17_cif.got.tgz:32376.got - 2010.04.10 22:41:39.
