data_PCOD8281285
_publ_section_title
;
Structure prediction by ZEFSAII (Michael W. Deem and Ramdas Pophale) SiO2 
 PCOD8281285
Probable space group: C M M A
;
_chemical_formula_sum "Si O2"
_cell_formula_units_Z 96
_cell_length_a 15.183428
_cell_length_b 14.667079
_cell_length_c 20.064293
_cell_angle_alpha 90.000000
_cell_angle_beta 90.000000
_cell_angle_gamma 90.000000
_cell_volume 4468.248588
_symmetry_space_group_name_H-M "C M M A"
_symmetry_group_IT_number 67
_symmetry_cell_setting 'orthorhombic'
loop_
_space_group_symop_operation_xyz
x,y,z
-x,1/2-y,z
x,-y,-z
-x,1/2+y,-z
-x,-y,-z
x,1/2+y,-z
-x,y,z
x,1/2-y,z
1/2+x,1/2+y,z
1/2-x,-y,z
1/2+x,1/2-y,-z
1/2-x,y,-z
1/2-x,1/2-y,-z
1/2+x,y,-z
1/2-x,1/2+y,z
1/2+x,-y,z
loop_
_atom_site_type_symbol
_atom_site_label
_atom_site_fract_x
_atom_site_fract_y
_atom_site_fract_z
Si Si1 0.250000 0.857589 0.078888
Si Si2 0.597514 0.351053 0.643715
Si Si3 0.097514 0.148947 0.643715
Si Si4 0.156432 0.000000 0.262694
Si Si5 0.147260 0.400046 0.500000
Si Si6 0.102812 0.500000 0.877673
O O1 0.250000 0.750000 0.102705
O O2 0.340413 0.909514 0.102149
O O3 0.159587 0.909514 0.102149
O O4 0.250000 0.861318 0.000000
O O5 0.500000 0.390368 0.652457
O O6 0.606508 0.250000 0.672559
O O7 0.658090 0.413618 0.688576
O O8 0.619683 0.346443 0.565727
O O9 0.106508 0.250000 0.672559
O O10 0.119683 0.153557 0.565727
O O11 0.000000 0.109632 0.652457
O O12 0.158090 0.086382 0.688576
O O13 0.086949 0.000000 0.202658
O O14 0.250000 0.000000 0.224861
O O15 0.102615 0.500000 0.500000
O O16 0.250000 0.410993 0.500000
O O17 0.000000 0.500000 0.906300
#
# Coordination Sequence:
#
# PCOD8281285 Si02
#       6
#    16  16  16  16  16  16
#     4  10  23  45  72 107 147 182 223 276 328 384
#     4  11  24  40  60  86 115 154 206 264 327 392
#     4  11  24  40  60  86 115 154 206 264 327 392
#     4  12  24  42  63  89 126 168 211 263 323 382
#     4  11  22  37  58  83 112 151 200 261 331 391
#     4  11  23  43  70 101 141 187 231 275 331 395
#
# _framework density 21.484928
#
# number of rings (size 3 to 8) (size 9 to 14) (size 15 to 20)
#    0.000    1.000    3.333    4.500    0.000    8.667 
#    0.000    1.667    0.000    0.000    0.000    0.000 
#    0.000    0.000    0.000    0.000    0.000    0.000 
#
# Total GULP energy -594677.901300 kJ/mol
# GULP energy per Si atom -12389.122944 kJ/mol
# Density = 2.143603 g / cm^3
# Si number density = 21.484928 Si / 1000 Ang^3
#
#
#
# Elastic Constant Matrix: (Units=GPa)
#
#
# Indices 1 2 3 4 5 6 
#
# 1 131.8835 53.9406 14.8761 0.0000 0.0000 0.0000
# 2 53.9406 137.3271 35.6634 0.0000 0.0000 0.0000
# 3 14.8761 35.6634 108.8405 0.0000 0.0000 0.0000
# 4 0.0000 0.0000 0.0000 -38.6402 0.0000 0.0000
# 5 0.0000 0.0000 0.0000 0.0000 21.9031 0.0000
# 6 0.0000 0.0000 0.0000 0.0000 0.0000 22.8961
#
#
#
# Elastic Compliance Matrix: (Units=1/GPa)
#
#
# Indices 1 2 3 4 5 6 
#
# 1 0.009034 -0.003528 -0.000079 0.000000 0.000000 0.000000
# 2 -0.003528 0.009337 -0.002577 0.000000 0.000000 0.000000
# 3 -0.000079 -0.002577 0.010043 0.000000 0.000000 0.000000
# 4 0.000000 0.000000 0.000000 -0.025880 0.000000 0.000000
# 5 0.000000 0.000000 0.000000 0.000000 0.045656 0.000000
# 6 0.000000 0.000000 0.000000 0.000000 0.000000 0.043676
#
#
# Mechanical properties :
#
#
# Convention : Reuss Voigt Hill
#
# Bulk Modulus (GPa) = 62.32026 65.22348 63.77187
# Shear Modulus (GPa) = 45.62766 19.46985 32.54876
#
# Velocity S-wave (km/s) = 4.61337 3.01360 3.89647
# Velocity P-wave (km/s) = 7.57938 6.52171 7.07035
#
# Compressibility (1/GPa) = 0.01604615
#
# Stress axis : x y z
#
# Youngs Moduli (GPa) = 110.68867 107.10086 99.57198
#
# Poissons Ratio (x) = 0.37787 0.00784
# Poissons Ratio (y) = 0.39053 0.25662
# Poissons Ratio (z) = 0.00872 0.27602
#
# Static dielectric constant tensor:
#      x y z
#    x 4.058530 0.000000 0.000000 
#    y 0.000000 4.172610 0.000000 
#    z 0.000000 0.000000 3.627950 
# 
# 
# High freq. dielectric constant tensor:
#      x y z
#    x 1.851680 0.000000 0.000000 
#    y 0.000000 1.849900 0.000000 
#    z 0.000000 0.000000 1.837780 
# 
# From -- ./inp_files/38463.got.cif
#   From: 2010.03.12/outbox.cif.g09.slc.cpg/sg67_20_cif.got.tgz:38463.got - 2010.04.10 22:41:39.
