data_PCOD8281393
_publ_section_title
;
Structure prediction by ZEFSAII (Michael W. Deem and Ramdas Pophale) SiO2 
 PCOD8281393
Probable space group: C M M A
;
_chemical_formula_sum "Si O2"
_cell_formula_units_Z 64
_cell_length_a 27.161734
_cell_length_b 14.015852
_cell_length_c 8.485799
_cell_angle_alpha 90.000000
_cell_angle_beta 90.000000
_cell_angle_gamma 90.000000
_cell_volume 3230.499925
_symmetry_space_group_name_H-M "C M M A"
_symmetry_group_IT_number 67
_symmetry_cell_setting 'orthorhombic'
loop_
_space_group_symop_operation_xyz
x,y,z
-x,1/2-y,z
x,-y,-z
-x,1/2+y,-z
-x,-y,-z
x,1/2+y,-z
-x,y,z
x,1/2-y,z
1/2+x,1/2+y,z
1/2-x,-y,z
1/2+x,1/2-y,-z
1/2-x,y,-z
1/2-x,1/2-y,-z
1/2+x,y,-z
1/2-x,1/2+y,z
1/2+x,-y,z
loop_
_atom_site_type_symbol
_atom_site_label
_atom_site_fract_x
_atom_site_fract_y
_atom_site_fract_z
Si Si1 0.610391 0.645359 0.111178
Si Si2 0.204364 0.356343 0.897921
Si Si3 0.554852 0.637308 0.808701
Si Si4 0.639706 0.024663 0.324158
O O1 0.595973 0.750000 0.179794
O O2 0.618334 0.572118 0.250824
O O3 0.660395 0.654415 0.017417
O O4 0.569240 0.607653 0.987889
O O5 0.216661 0.250000 0.827764
O O6 0.188098 0.431125 0.761743
O O7 0.250000 0.396873 0.000000
O O8 0.500000 0.598902 0.771894
O O9 0.557447 0.750000 0.793431
O O10 0.593798 0.597426 0.681766
O O11 0.656201 0.000000 0.500000
#
# Coordination Sequence:
#
# PCOD8281393 Si02
#       4
#    16  16  16  16
#     4   9  19  34  52  76 105 142 188 231 270 320
#     4   9  18  36  60  79 100 138 187 232 273 325
#     4   9  18  35  58  80 105 144 194 238 272 320
#     4  11  22  33  52  83 117 146 175 225 290 345
#
# _framework density 19.811176
#
# number of rings (size 3 to 8) (size 9 to 14) (size 15 to 20)
#    0.000    2.500    0.000    5.250    0.000    6.500 
#    0.000    2.500    0.000    7.500    0.000    0.000 
#    0.000    0.000    0.000    0.000    0.000    0.000 
#
# Total GULP energy -396557.501969 kJ/mol
# GULP energy per Si atom -12392.421937 kJ/mol
# Density = 1.976608 g / cm^3
# Si number density = 19.811176 Si / 1000 Ang^3
#
#
#
# Elastic Constant Matrix: (Units=GPa)
#
#
# Indices 1 2 3 4 5 6 
#
# 1 113.9376 36.0401 51.8066 0.0000 0.0000 0.0000
# 2 36.0401 78.8151 40.3945 0.0000 0.0000 0.0000
# 3 51.8066 40.3945 94.6533 0.0000 0.0000 0.0000
# 4 0.0000 0.0000 0.0000 13.4115 0.0000 0.0000
# 5 0.0000 0.0000 0.0000 0.0000 18.7706 0.0000
# 6 0.0000 0.0000 0.0000 0.0000 0.0000 23.7721
#
#
#
# Elastic Compliance Matrix: (Units=1/GPa)
#
#
# Indices 1 2 3 4 5 6 
#
# 1 0.012131 -0.002745 -0.005469 0.000000 0.000000 0.000000
# 2 -0.002745 0.016861 -0.005693 0.000000 0.000000 0.000000
# 3 -0.005469 -0.005693 0.015988 0.000000 0.000000 0.000000
# 4 0.000000 0.000000 0.000000 0.074563 0.000000 0.000000
# 5 0.000000 0.000000 0.000000 0.000000 0.053275 0.000000
# 6 0.000000 0.000000 0.000000 0.000000 0.000000 0.042066
#
#
# Mechanical properties :
#
#
# Convention : Reuss Voigt Hill
#
# Bulk Modulus (GPa) = 58.25174 60.43205 59.34190
# Shear Modulus (GPa) = 20.12723 21.80182 20.96453
#
# Velocity S-wave (km/s) = 3.19086 3.32095 3.25655
# Velocity P-wave (km/s) = 6.56070 6.72868 6.64522
#
# Compressibility (1/GPa) = 0.01716687
#
# Stress axis : x y z
#
# Youngs Moduli (GPa) = 82.43052 59.30855 62.54782
#
# Poissons Ratio (x) = 0.16278 0.34205
# Poissons Ratio (y) = 0.22624 0.35611
# Poissons Ratio (z) = 0.45078 0.33767
#
# Static dielectric constant tensor:
#      x y z
#    x 4.314960 0.000000 0.000000 
#    y 0.000000 4.161870 0.000000 
#    z 0.000000 0.000000 3.290090 
# 
# 
# High freq. dielectric constant tensor:
#      x y z
#    x 1.771250 0.000000 0.000000 
#    y 0.000000 1.791630 0.000000 
#    z 0.000000 0.000000 1.722530 
# 
# From -- ./inp_files/8421.got.cif
#   From: 2010.03.12/outbox.cif.g09.slc.cpg/sg67_5_cif.got.tgz:8421.got - 2010.04.10 22:41:39.
