data_PCOD8281091
_publ_section_title
;
Structure prediction by ZEFSAII (Michael W. Deem and Ramdas Pophale) SiO2 
 PCOD8281091
Probable space group: C M M A
;
_chemical_formula_sum "Si O2"
_cell_formula_units_Z 36
_cell_length_a 22.949718
_cell_length_b 9.186970
_cell_length_c 7.135269
_cell_angle_alpha 90.000000
_cell_angle_beta 90.000000
_cell_angle_gamma 90.000000
_cell_volume 1504.388491
_symmetry_space_group_name_H-M "C M M A"
_symmetry_group_IT_number 67
_symmetry_cell_setting 'orthorhombic'
loop_
_space_group_symop_operation_xyz
x,y,z
-x,1/2-y,z
x,-y,-z
-x,1/2+y,-z
-x,-y,-z
x,1/2+y,-z
-x,y,z
x,1/2-y,z
1/2+x,1/2+y,z
1/2-x,-y,z
1/2+x,1/2-y,-z
1/2-x,y,-z
1/2-x,1/2-y,-z
1/2+x,y,-z
1/2-x,1/2+y,z
1/2+x,-y,z
loop_
_atom_site_type_symbol
_atom_site_label
_atom_site_fract_x
_atom_site_fract_y
_atom_site_fract_z
Si Si1 0.435468 0.417662 0.805803
Si Si2 0.827994 0.085703 0.667851
Si Si3 0.250000 0.500000 0.000000
O O1 0.500000 0.425847 0.713269
O O2 0.416581 0.250000 0.837595
O O3 0.388651 0.499103 0.679450
O O4 0.436627 0.500000 0.000000
O O5 0.840417 0.250000 0.604498
O O6 0.794094 0.000000 0.500000
O O7 0.791585 0.092494 0.862313
#
# Coordination Sequence:
#
# PCOD8281091 Si02
#       3
#    16  16   4
#     4  10  21  40  69 104 141 181 226 278 343 413
#     4  12  27  46  72 104 140 182 233 286 345 412
#     4  12  28  48  74 100 134 184 236 290 350 410
#
# _framework density 23.929988999999999
#
# number of rings (size 3 to 8) (size 9 to 14) (size 15 to 20)
#    0.000    0.889    2.222    4.000    0.000   10.667 
#    0.000    0.000    0.000    0.000    0.000    0.000 
#    0.000    0.000    0.000    0.000    0.000    0.000 
#
# Total GULP energy -223065.499203 kJ/mol
# GULP energy per Si atom -12392.527734 kJ/mol
# Density = 2.387552 g / cm^3
# Si number density = 23.929989 Si / 1000 Ang^3
#
#
#
# Elastic Constant Matrix: (Units=GPa)
#
#
# Indices 1 2 3 4 5 6 
#
# 1 132.2275 67.4779 40.9355 0.0000 0.0000 0.0000
# 2 67.4779 242.7148 59.8399 0.0000 0.0000 0.0000
# 3 40.9355 59.8399 135.0526 0.0000 0.0000 0.0000
# 4 0.0000 0.0000 0.0000 35.7843 0.0000 0.0000
# 5 0.0000 0.0000 0.0000 0.0000 2.7043 0.0000
# 6 0.0000 0.0000 0.0000 0.0000 0.0000 -83.3032
#
#
#
# Elastic Compliance Matrix: (Units=1/GPa)
#
#
# Indices 1 2 3 4 5 6 
#
# 1 0.009212 -0.002102 -0.001861 0.000000 0.000000 0.000000
# 2 -0.002102 0.005105 -0.001625 0.000000 0.000000 0.000000
# 3 -0.001861 -0.001625 0.008688 0.000000 0.000000 0.000000
# 4 0.000000 0.000000 0.000000 0.027945 0.000000 0.000000
# 5 0.000000 0.000000 0.000000 0.000000 0.369782 0.000000
# 6 0.000000 0.000000 0.000000 0.000000 0.000000 -0.012004
#
#
# Mechanical properties :
#
#
# Convention : Reuss Voigt Hill
#
# Bulk Modulus (GPa) = 84.53244 94.05572 89.29408
# Shear Modulus (GPa) = 11.79674 13.81984 12.80829
#
# Velocity S-wave (km/s) = 2.22270 2.40575 2.31604
# Velocity P-wave (km/s) = 6.47987 6.86343 6.67441
#
# Compressibility (1/GPa) = 0.01182978
#
# Stress axis : x y z
#
# Youngs Moduli (GPa) = 108.55956 195.88308 115.09571
#
# Poissons Ratio (x) = 0.41179 0.21415
# Poissons Ratio (y) = 0.22821 0.18701
# Poissons Ratio (z) = 0.20199 0.31827
#
# Static dielectric constant tensor:
#      x y z
#    x 4.855790 0.000000 0.000000 
#    y 0.000000 4.143000 0.000000 
#    z 0.000000 0.000000 3.975700 
# 
# 
# High freq. dielectric constant tensor:
#      x y z
#    x 1.968690 0.000000 0.000000 
#    y 0.000000 1.948650 0.000000 
#    z 0.000000 0.000000 1.949200 
# 
# From -- ./inp_files/4373.got.cif
#   From: 2010.03.12/outbox.cif.g09.slc.cpg/sg67_3_cif.got.tgz:4373.got - 2010.04.10 22:41:39.
