data_PCOD8281958
_publ_section_title
;
Structure prediction by ZEFSAII (Michael W. Deem and Ramdas Pophale) SiO2 
 PCOD8281958
Probable space group: C C C A
;
_chemical_formula_sum "Si O2"
_cell_formula_units_Z 120
_cell_length_a 11.985394
_cell_length_b 23.182536
_cell_length_c 22.949237
_cell_angle_alpha 90.000000
_cell_angle_beta 90.000000
_cell_angle_gamma 90.000000
_cell_volume 6376.487449
_symmetry_space_group_name_H-M "C C C A"
_symmetry_group_IT_number 68
_space_group.IT_coordinate_system_code '2'
_symmetry_cell_setting 'orthorhombic'
loop_
_space_group_symop_operation_xyz
x,y,z
-x,1/2-y,z
x,1/2-y,1/2-z
-x,y,1/2-z
-x,-y,-z
x,1/2+y,-z
-x,1/2+y,1/2+z
x,-y,1/2+z
1/2+x,1/2+y,z
1/2-x,-y,z
1/2+x,-y,1/2-z
1/2-x,1/2+y,1/2-z
1/2-x,1/2-y,-z
1/2+x,y,-z
1/2-x,y,1/2+z
1/2+x,1/2-y,1/2+z
loop_
_atom_site_type_symbol
_atom_site_label
_atom_site_fract_x
_atom_site_fract_y
_atom_site_fract_z
Si Si1 0.359183 0.913082 0.809023
Si Si2 0.996647 0.815075 0.895779
Si Si3 0.750000 0.500000 0.888906
Si Si4 0.563176 0.570260 0.453298
Si Si5 0.373578 0.482845 0.431315
Si Si6 0.188247 0.683503 0.692980
Si Si7 0.284140 0.310747 0.825228
Si Si8 0.390001 0.405235 0.322229
O O1 0.340531 0.969496 0.847688
O O2 0.269036 0.866465 0.829513
O O3 0.349997 0.928858 0.740671
O O4 0.480786 0.888093 0.822624
O O5 0.044262 0.861629 0.941692
O O6 0.068792 0.819429 0.837199
O O7 0.000000 0.750000 0.922618
O O8 0.871023 0.828684 0.875587
O O9 0.678604 0.454490 0.926612
O O10 0.454357 0.538195 0.427771
O O11 0.571847 0.562160 0.522916
O O12 0.250000 0.500000 0.452591
O O13 0.363229 0.455140 0.367894
O O14 0.165770 0.675871 0.761497
O O15 0.247263 0.743297 0.674360
O O16 0.173056 0.346458 0.838256
#
# Coordination Sequence:
#
# PCOD8281958 Si02
#       8
#    16  16   8  16  16  16  16  16
#     4  10  21  35  56  82 117 148 185 238 285 353
#     4  10  19  35  59  84 114 143 190 241 286 333
#     4  12  20  40  58  86 114 150 190 234 286 360
#     4  11  23  39  62  84 108 157 194 233 289 343
#     4  11  23  39  59  82 113 147 195 240 279 347
#     4   9  17  32  55  82 114 151 188 225 282 352
#     4   9  18  32  54  83 115 150 185 232 286 339
#     4  10  21  37  53  83 117 148 189 235 291 338
#
# _framework density 18.819139
#
# number of rings (size 3 to 8) (size 9 to 14) (size 15 to 20)
#    0.000    1.867    3.333    1.200    0.933    2.133 
#    0.000    2.667    2.933    2.400    0.000    0.000 
#    0.000    0.000    0.000    0.000    0.000    0.000 
#
# Total GULP energy -743931.294675 kJ/mol
# GULP energy per Si atom -12398.854911 kJ/mol
# Density = 1.877631 g / cm^3
# Si number density = 18.819139 Si / 1000 Ang^3
#
#
#
# Elastic Constant Matrix: (Units=GPa)
#
#
# Indices 1 2 3 4 5 6 
#
# 1 91.1852 38.1108 22.0284 0.0000 0.0000 0.0000
# 2 38.1108 104.9572 42.7058 0.0000 0.0000 0.0000
# 3 22.0284 42.7058 63.3725 0.0000 0.0000 0.0000
# 4 0.0000 0.0000 0.0000 23.2917 0.0000 0.0000
# 5 0.0000 0.0000 0.0000 0.0000 19.1072 0.0000
# 6 0.0000 0.0000 0.0000 0.0000 0.0000 33.7886
#
#
#
# Elastic Compliance Matrix: (Units=1/GPa)
#
#
# Indices 1 2 3 4 5 6 
#
# 1 0.013085 -0.003996 -0.001855 0.000000 0.000000 0.000000
# 2 -0.003996 0.014348 -0.008280 0.000000 0.000000 0.000000
# 3 -0.001855 -0.008280 0.022004 0.000000 0.000000 0.000000
# 4 0.000000 0.000000 0.000000 0.042934 0.000000 0.000000
# 5 0.000000 0.000000 0.000000 0.000000 0.052336 0.000000
# 6 0.000000 0.000000 0.000000 0.000000 0.000000 0.029596
#
#
# Mechanical properties :
#
#
# Convention : Reuss Voigt Hill
#
# Bulk Modulus (GPa) = 47.22675 51.68941 49.45808
# Shear Modulus (GPa) = 23.85231 25.68216 24.76724
#
# Velocity S-wave (km/s) = 3.56399 3.69817 3.63170
# Velocity P-wave (km/s) = 6.48734 6.76471 6.62748
#
# Compressibility (1/GPa) = 0.02117444
#
# Stress axis : x y z
#
# Youngs Moduli (GPa) = 76.42215 69.69780 45.44616
#
# Poissons Ratio (x) = 0.27854 0.08432
# Poissons Ratio (y) = 0.30542 0.37627
# Poissons Ratio (z) = 0.14179 0.57706
#
# Static dielectric constant tensor:
#      x y z
#    x 3.494270 0.000000 0.000000 
#    y 0.000000 3.423520 0.000000 
#    z 0.000000 0.000000 3.311680 
# 
# 
# High freq. dielectric constant tensor:
#      x y z
#    x 1.738720 0.000000 0.000000 
#    y 0.000000 1.722790 0.000000 
#    z 0.000000 0.000000 1.716950 
# 
# From -- ./inp_files/37996.got.cif
#   From: 2010.03.12/outbox.cif.g09.slc.cpg/sg68_19_cif.got.tgz:37996.got - 2010.04.10 23:14:56.
