data_PCOD8281671
_publ_section_title
;
Structure prediction by ZEFSAII (Michael W. Deem and Ramdas Pophale) SiO2 
 PCOD8281671
Probable space group: C C C A
;
_chemical_formula_sum "Si O2"
_cell_formula_units_Z 128
_cell_length_a 23.460751
_cell_length_b 16.726559
_cell_length_c 19.367750
_cell_angle_alpha 90.000000
_cell_angle_beta 90.000000
_cell_angle_gamma 90.000000
_cell_volume 7600.246665
_symmetry_space_group_name_H-M "C C C A"
_symmetry_group_IT_number 68
_space_group.IT_coordinate_system_code '2'
_symmetry_cell_setting 'orthorhombic'
loop_
_space_group_symop_operation_xyz
x,y,z
-x,1/2-y,z
x,1/2-y,1/2-z
-x,y,1/2-z
-x,-y,-z
x,1/2+y,-z
-x,1/2+y,1/2+z
x,-y,1/2+z
1/2+x,1/2+y,z
1/2-x,-y,z
1/2+x,-y,1/2-z
1/2-x,1/2+y,1/2-z
1/2-x,1/2-y,-z
1/2+x,y,-z
1/2-x,y,1/2+z
1/2+x,1/2-y,1/2+z
loop_
_atom_site_type_symbol
_atom_site_label
_atom_site_fract_x
_atom_site_fract_y
_atom_site_fract_z
Si Si1 0.265857 0.092938 0.399188
Si Si2 0.664348 0.657083 0.014395
Si Si3 0.063520 0.154882 0.108428
Si Si4 0.245575 0.093517 0.250000
Si Si5 0.436480 0.654882 0.108428
Si Si6 0.118432 0.655074 0.750000
Si Si7 0.234143 0.592938 0.399188
Si Si8 0.835652 0.842917 0.514395
O O1 0.322980 0.108183 0.443914
O O2 0.275763 0.123987 0.320547
O O3 0.214814 0.145179 0.430596
O O4 0.250000 0.000000 0.402741
O O5 0.605569 0.624639 0.047762
O O6 0.714814 0.645179 0.069404
O O7 0.659735 0.750000 0.995886
O O8 0.063729 0.250000 0.109985
O O9 0.084695 0.123747 0.182845
O O10 1.000000 0.121690 0.094060
O O11 0.180076 0.116795 0.250000
O O12 0.275763 0.123986 0.179453
O O13 0.250000 0.000000 0.250000
O O14 0.415305 0.623747 0.182844
O O15 0.394431 0.624639 0.047762
O O16 0.124783 0.750000 0.750000
O O17 0.250000 0.500000 0.402741
O O18 0.177020 0.608183 0.443914
#
# Coordination Sequence:
#
# PCOD8281671 Si02
#       8
#    16  16  16  16  16  16  16  16
#     4  10  19  31  46  65  92 125 156 187 230 272
#     4  10  18  29  46  69  94 121 151 186 228 275
#     4   9  17  28  44  68  95 122 153 189 233 280
#     4  10  20  31  45  70  90 128 157 185 232 276
#     4   9  17  28  44  68  95 122 153 189 233 280
#     4  10  17  28  46  69  97 124 153 191 230 279
#     4  10  19  31  46  65  92 125 156 187 230 272
#     4  10  18  29  46  69  94 121 151 186 228 275
#
# _framework density 16.841559
#
# number of rings (size 3 to 8) (size 9 to 14) (size 15 to 20)
#    0.000    2.250    2.500    3.375    0.000    2.500 
#    0.000    0.000    0.000    3.000    0.000    0.875 
#    0.000    4.000    0.000    0.000    0.000    0.500 
#
# Total GULP energy -793218.925641 kJ/mol
# GULP energy per Si atom -12394.045713 kJ/mol
# Density = 1.680323 g / cm^3
# Si number density = 16.841559 Si / 1000 Ang^3
#
#
#
# Elastic Constant Matrix: (Units=GPa)
#
#
# Indices 1 2 3 4 5 6 
#
# 1 119.1123 17.7105 80.2471 0.0000 0.0000 0.0000
# 2 17.7105 34.9837 22.8659 0.0000 0.0000 0.0000
# 3 80.2471 22.8659 181.4960 0.0000 0.0000 0.0000
# 4 0.0000 0.0000 0.0000 12.1083 0.0000 0.0000
# 5 0.0000 0.0000 0.0000 0.0000 26.9314 0.0000
# 6 0.0000 0.0000 0.0000 0.0000 0.0000 6.7824
#
#
#
# Elastic Compliance Matrix: (Units=1/GPa)
#
#
# Indices 1 2 3 4 5 6 
#
# 1 0.012220 -0.002893 -0.005039 0.000000 0.000000 0.000000
# 2 -0.002893 0.031835 -0.002732 0.000000 0.000000 0.000000
# 3 -0.005039 -0.002732 0.008082 0.000000 0.000000 0.000000
# 4 0.000000 0.000000 0.000000 0.082588 0.000000 0.000000
# 5 0.000000 0.000000 0.000000 0.000000 0.037131 0.000000
# 6 0.000000 0.000000 0.000000 0.000000 0.000000 0.147440
#
#
# Mechanical properties :
#
#
# Convention : Reuss Voigt Hill
#
# Bulk Modulus (GPa) = 32.45692 64.13765 48.29729
# Shear Modulus (GPa) = 14.24938 23.48234 18.86586
#
# Velocity S-wave (km/s) = 2.91191 3.73810 3.35057
# Velocity P-wave (km/s) = 5.53348 7.53636 6.61121
#
# Compressibility (1/GPa) = 0.03081007
#
# Stress axis : x y z
#
# Youngs Moduli (GPa) = 81.83217 31.41221 123.73709
#
# Poissons Ratio (x) = 0.09088 0.62345
# Poissons Ratio (y) = 0.23675 0.33799
# Poissons Ratio (z) = 0.41231 0.08580
#
# Static dielectric constant tensor:
#      x y z
#    x 3.252230 0.000000 0.000000 
#    y 0.000000 2.882280 0.000000 
#    z 0.000000 0.000000 3.799280 
# 
# 
# High freq. dielectric constant tensor:
#      x y z
#    x 1.626650 0.000000 0.000000 
#    y 0.000000 1.618260 0.000000 
#    z 0.000000 0.000000 1.661310 
# 
# From -- ./inp_files/40986.got.cif
#   From: 2010.03.12/outbox.cif.g09.slc.cpg/sg68_21_cif.got.tgz:40986.got - 2010.04.10 23:14:56.
