data_PCOD8281197
_publ_section_title
;
Structure prediction by ZEFSAII (Michael W. Deem and Ramdas Pophale) SiO2 
 PCOD8281197
Probable space group: C M M A
;
_chemical_formula_sum "Si O2"
_cell_formula_units_Z 80
_cell_length_a 8.635169
_cell_length_b 18.275591
_cell_length_c 25.332905
_cell_angle_alpha 90.000000
_cell_angle_beta 90.000000
_cell_angle_gamma 90.000000
_cell_volume 3997.857097
_symmetry_space_group_name_H-M "C M M A"
_symmetry_group_IT_number 67
_symmetry_cell_setting 'orthorhombic'
loop_
_space_group_symop_operation_xyz
x,y,z
-x,1/2-y,z
x,-y,-z
-x,1/2+y,-z
-x,-y,-z
x,1/2+y,-z
-x,y,z
x,1/2-y,z
1/2+x,1/2+y,z
1/2-x,-y,z
1/2+x,1/2-y,-z
1/2-x,y,-z
1/2-x,1/2-y,-z
1/2+x,y,-z
1/2-x,1/2+y,z
1/2+x,-y,z
loop_
_atom_site_type_symbol
_atom_site_label
_atom_site_fract_x
_atom_site_fract_y
_atom_site_fract_z
Si Si1 0.318876 0.577509 0.444176
Si Si2 0.178506 0.834565 0.352557
Si Si3 0.182605 0.922486 0.056640
Si Si4 0.680710 0.834470 0.149200
Si Si5 0.817316 0.419833 0.752902
O O1 0.500000 0.568183 0.450872
O O2 0.250000 0.500000 0.425672
O O3 0.250000 0.603071 0.500000
O O4 0.282122 0.638441 0.400923
O O5 0.213878 0.750000 0.342654
O O6 0.226446 0.876739 0.299900
O O7 0.000000 0.848656 0.366871
O O8 0.227570 0.859609 0.097476
O O9 0.000000 0.929698 0.052141
O O10 0.250000 0.000000 0.076367
O O11 0.250000 0.900415 0.000000
O O12 0.500000 0.847772 0.139690
O O13 0.719707 0.750000 0.159598
O O14 0.735508 0.880332 0.198921
O O15 0.750000 0.500000 0.746762
O O16 0.000000 0.422146 0.763156
#
# Coordination Sequence:
#
# PCOD8281197 Si02
#       5
#    16  16  16  16  16
#     4  11  22  38  61  87 117 154 197 243 291 345
#     4  10  22  40  61  87 120 155 193 240 293 348
#     4  11  22  39  63  89 120 156 198 244 291 346
#     4  11  24  41  61  87 120 156 196 243 294 348
#     4  11  23  40  63  89 118 154 196 241 291 347
#
# _framework density 20.010721
#
# number of rings (size 3 to 8) (size 9 to 14) (size 15 to 20)
#    0.000    1.200    0.000    7.800    0.000    6.800 
#    0.000    0.000    0.000    0.000    0.000    0.000 
#    0.000    0.000    0.000    0.000    0.000    0.000 
#
# Total GULP energy -496293.130520 kJ/mol
# GULP energy per Si atom -12407.328263 kJ/mol
# Density = 1.996518 g / cm^3
# Si number density = 20.010721 Si / 1000 Ang^3
#
#
#
# Elastic Constant Matrix: (Units=GPa)
#
#
# Indices 1 2 3 4 5 6 
#
# 1 137.8878 53.3875 52.6422 0.0000 0.0000 0.0000
# 2 53.3875 131.9099 71.9785 0.0000 0.0000 0.0000
# 3 52.6422 71.9785 123.5211 0.0000 0.0000 0.0000
# 4 0.0000 0.0000 0.0000 6.1279 0.0000 0.0000
# 5 0.0000 0.0000 0.0000 0.0000 37.6967 0.0000
# 6 0.0000 0.0000 0.0000 0.0000 0.0000 37.4732
#
#
#
# Elastic Compliance Matrix: (Units=1/GPa)
#
#
# Indices 1 2 3 4 5 6 
#
# 1 0.009114 -0.002301 -0.002544 0.000000 0.000000 0.000000
# 2 -0.002301 0.011696 -0.005835 0.000000 0.000000 0.000000
# 3 -0.002544 -0.005835 0.012580 0.000000 0.000000 0.000000
# 4 0.000000 0.000000 0.000000 0.163188 0.000000 0.000000
# 5 0.000000 0.000000 0.000000 0.000000 0.026528 0.000000
# 6 0.000000 0.000000 0.000000 0.000000 0.000000 0.026686
#
#
# Mechanical properties :
#
#
# Convention : Reuss Voigt Hill
#
# Bulk Modulus (GPa) = 83.11517 83.25945 83.18731
# Shear Modulus (GPa) = 18.17119 30.61360 24.39240
#
# Velocity S-wave (km/s) = 3.01669 3.91559 3.49516
# Velocity P-wave (km/s) = 7.33208 7.88290 7.61248
#
# Compressibility (1/GPa) = 0.01203150
#
# Stress axis : x y z
#
# Youngs Moduli (GPa) = 109.71930 85.49861 79.49149
#
# Poissons Ratio (x) = 0.19672 0.20219
# Poissons Ratio (y) = 0.25245 0.46383
# Poissons Ratio (z) = 0.27907 0.49888
#
# Static dielectric constant tensor:
#      x y z
#    x 3.700710 0.000000 0.000000 
#    y 0.000000 3.676040 0.000000 
#    z 0.000000 0.000000 3.749670 
# 
# 
# High freq. dielectric constant tensor:
#      x y z
#    x 1.794640 0.000000 0.000000 
#    y 0.000000 1.786250 0.000000 
#    z 0.000000 0.000000 1.794910 
# 
# From -- ./inp_files/43202.got.cif
#   From: 2010.03.12/outbox.cif.g09.slc.cpg/sg67_22_cif.got.tgz:43202.got - 2010.04.10 22:41:39.
