data_PCOD8281635
_publ_section_title
;
Structure prediction by ZEFSAII (Michael W. Deem and Ramdas Pophale) SiO2 
 PCOD8281635
Probable space group: C C C A
;
_chemical_formula_sum "Si O2"
_cell_formula_units_Z 52
_cell_length_a 20.671388
_cell_length_b 27.741589
_cell_length_c 5.229579
_cell_angle_alpha 90.000000
_cell_angle_beta 90.000000
_cell_angle_gamma 90.000000
_cell_volume 2998.939469
_symmetry_space_group_name_H-M "C C C A"
_symmetry_group_IT_number 68
_space_group.IT_coordinate_system_code '2'
_symmetry_cell_setting 'orthorhombic'
loop_
_space_group_symop_operation_xyz
x,y,z
-x,1/2-y,z
x,1/2-y,1/2-z
-x,y,1/2-z
-x,-y,-z
x,1/2+y,-z
-x,1/2+y,1/2+z
x,-y,1/2+z
1/2+x,1/2+y,z
1/2-x,-y,z
1/2+x,-y,1/2-z
1/2-x,1/2+y,1/2-z
1/2-x,1/2-y,-z
1/2+x,y,-z
1/2-x,y,1/2+z
1/2+x,1/2-y,1/2+z
loop_
_atom_site_type_symbol
_atom_site_label
_atom_site_fract_x
_atom_site_fract_y
_atom_site_fract_z
Si Si1 0.376524 0.278534 0.989971
Si Si2 0.322140 0.479232 0.970128
Si Si3 0.208326 0.630088 0.979266
Si Si4 0.500000 0.750000 0.250000
O O1 0.362437 0.250000 0.250000
O O2 0.343322 0.250000 0.750000
O O3 0.348768 0.331817 0.015259
O O4 0.453787 0.282771 0.931745
O O5 0.358271 0.495354 0.709184
O O6 0.250000 0.500000 0.932770
O O7 0.323549 0.422170 0.004707
O O8 0.239148 0.637191 0.700938
#
# Coordination Sequence:
#
# PCOD8281635 Si02
#       4
#    16  16  16   4
#     4  10  22  38  56  73 103 141 170 223 252 306
#     4  10  16  30  46  68 107 146 163 198 234 308
#     4  12  21  31  52  82 112 137 171 199 264 319
#     4   8  22  44  54  68  98 136 190 218 258 284
#
# _framework density 17.339462999999999
#
# number of rings (size 3 to 8) (size 9 to 14) (size 15 to 20)
#    0.923    0.615    6.154    2.308    0.000    3.692 
#    0.000    0.000    0.000    0.000    0.000    2.154 
#    0.000    0.000    0.000    0.000    0.000    0.000 
#
# Total GULP energy -322171.395789 kJ/mol
# GULP energy per Si atom -12391.207530 kJ/mol
# Density = 1.730000 g / cm^3
# Si number density = 17.339463 Si / 1000 Ang^3
#
#
#
# Elastic Constant Matrix: (Units=GPa)
#
#
# Indices 1 2 3 4 5 6 
#
# 1 40.2226 46.4999 12.1919 0.0000 0.0000 0.0000
# 2 46.4999 142.1667 29.2762 0.0000 0.0000 0.0000
# 3 12.1919 29.2762 132.6872 0.0000 0.0000 0.0000
# 4 0.0000 0.0000 0.0000 29.1402 0.0000 0.0000
# 5 0.0000 0.0000 0.0000 0.0000 10.5663 0.0000
# 6 0.0000 0.0000 0.0000 0.0000 0.0000 4.4101
#
#
#
# Elastic Compliance Matrix: (Units=1/GPa)
#
#
# Indices 1 2 3 4 5 6 
#
# 1 0.040065 -0.012934 -0.000828 0.000000 0.000000 0.000000
# 2 -0.012934 0.011544 -0.001359 0.000000 0.000000 0.000000
# 3 -0.000828 -0.001359 0.007912 0.000000 0.000000 0.000000
# 4 0.000000 0.000000 0.000000 0.034317 0.000000 0.000000
# 5 0.000000 0.000000 0.000000 0.000000 0.094640 0.000000
# 6 0.000000 0.000000 0.000000 0.000000 0.000000 0.226752
#
#
# Mechanical properties :
#
#
# Convention : Reuss Voigt Hill
#
# Bulk Modulus (GPa) = 34.15184 54.55694 44.35439
# Shear Modulus (GPa) = 10.98342 23.96390 17.47366
#
# Velocity S-wave (km/s) = 2.51954 3.72162 3.17793
# Velocity P-wave (km/s) = 5.31064 7.07104 6.25310
#
# Compressibility (1/GPa) = 0.02928100
#
# Stress axis : x y z
#
# Youngs Moduli (GPa) = 24.95940 86.62321 126.38470
#
# Poissons Ratio (x) = 1.12039 0.10460
# Poissons Ratio (y) = 0.32283 0.17172
# Poissons Ratio (z) = 0.02066 0.11769
#
# Static dielectric constant tensor:
#      x y z
#    x 2.663170 0.000000 0.000000 
#    y 0.000000 3.206940 0.000000 
#    z 0.000000 0.000000 4.328970 
# 
# 
# High freq. dielectric constant tensor:
#      x y z
#    x 1.597790 0.000000 0.000000 
#    y 0.000000 1.671310 0.000000 
#    z 0.000000 0.000000 1.707160 
# 
# From -- ./inp_files/928.got.cif
#   From: 2010.03.12/outbox.cif.g09.slc.cpg/sg68_1_cif.got.tgz:928.got - 2010.04.10 23:14:56.
