data_PCOD8281417
_publ_section_title
;
Structure prediction by ZEFSAII (Michael W. Deem and Ramdas Pophale) SiO2 
 PCOD8281417
Probable space group: C M M A
;
_chemical_formula_sum "Si O2"
_cell_formula_units_Z 80
_cell_length_a 19.847889
_cell_length_b 8.807951
_cell_length_c 25.611665
_cell_angle_alpha 90.000000
_cell_angle_beta 90.000000
_cell_angle_gamma 90.000000
_cell_volume 4477.411651
_symmetry_space_group_name_H-M "C M M A"
_symmetry_group_IT_number 67
_symmetry_cell_setting 'orthorhombic'
loop_
_space_group_symop_operation_xyz
x,y,z
-x,1/2-y,z
x,-y,-z
-x,1/2+y,-z
-x,-y,-z
x,1/2+y,-z
-x,y,z
x,1/2-y,z
1/2+x,1/2+y,z
1/2-x,-y,z
1/2+x,1/2-y,-z
1/2-x,y,-z
1/2-x,1/2-y,-z
1/2+x,y,-z
1/2-x,1/2+y,z
1/2+x,-y,z
loop_
_atom_site_type_symbol
_atom_site_label
_atom_site_fract_x
_atom_site_fract_y
_atom_site_fract_z
Si Si1 0.177264 0.571941 0.164392
Si Si2 0.074359 0.070107 0.750965
Si Si3 0.323068 0.573216 0.950378
Si Si4 0.679800 0.429298 0.555509
Si Si5 0.921215 0.075005 0.633094
O O1 0.186467 0.750000 0.172880
O O2 0.250000 0.500000 0.171972
O O3 0.126833 0.501006 0.207334
O O4 0.145085 0.539400 0.106732
O O5 0.070937 0.250000 0.756719
O O6 0.096985 0.028055 0.692377
O O7 0.000000 0.002511 0.762376
O O8 0.317097 0.750000 0.960871
O O9 0.250000 0.500000 0.949182
O O10 0.363659 0.500000 0.000000
O O11 0.659766 0.500000 0.500000
O O12 0.688055 0.250000 0.549638
O O13 0.750000 0.500000 0.575777
O O14 0.620841 0.465839 0.595898
O O15 0.901853 0.250000 0.622584
O O16 0.000000 0.049031 0.622256
#
# Coordination Sequence:
#
# PCOD8281417 Si02
#       5
#    16  16  16  16  16
#     4   9  17  28  44  68  93 118 153 194 235 278
#     4   8  15  30  51  71  93 124 160 195 231 276
#     4   9  15  23  37  58  85 115 147 186 230 276
#     4  11  22  37  56  77 104 134 165 201 242 289
#     4   9  18  34  55  77 101 130 165 203 242 286
#
# _framework density 17.867466
#
# number of rings (size 3 to 8) (size 9 to 14) (size 15 to 20)
#    0.000    2.800    0.000    4.800    0.000    2.400 
#    0.000    3.000    0.000    2.400    0.000    0.000 
#    0.000    0.000    0.000    0.000    0.000    5.400 
#
# Total GULP energy -495702.724644 kJ/mol
# GULP energy per Si atom -12392.568116 kJ/mol
# Density = 1.782680 g / cm^3
# Si number density = 17.867466 Si / 1000 Ang^3
#
#
#
# Elastic Constant Matrix: (Units=GPa)
#
#
# Indices 1 2 3 4 5 6 
#
# 1 77.9041 34.3078 75.7962 0.0000 0.0000 0.0000
# 2 34.3078 83.0115 51.5468 0.0000 0.0000 0.0000
# 3 75.7962 51.5468 144.6906 0.0000 0.0000 0.0000
# 4 0.0000 0.0000 0.0000 14.9659 0.0000 0.0000
# 5 0.0000 0.0000 0.0000 0.0000 10.2975 0.0000
# 6 0.0000 0.0000 0.0000 0.0000 0.0000 18.8582
#
#
#
# Elastic Compliance Matrix: (Units=1/GPa)
#
#
# Indices 1 2 3 4 5 6 
#
# 1 0.026757 -0.003023 -0.012940 0.000000 0.000000 0.000000
# 2 -0.003023 0.015810 -0.004049 0.000000 0.000000 0.000000
# 3 -0.012940 -0.004049 0.015132 0.000000 0.000000 0.000000
# 4 0.000000 0.000000 0.000000 0.066819 0.000000 0.000000
# 5 0.000000 0.000000 0.000000 0.000000 0.097111 0.000000
# 6 0.000000 0.000000 0.000000 0.000000 0.000000 0.053027
#
#
# Mechanical properties :
#
#
# Convention : Reuss Voigt Hill
#
# Bulk Modulus (GPa) = 56.57386 69.87865 63.22626
# Shear Modulus (GPa) = 15.59708 18.42132 17.00920
#
# Velocity S-wave (km/s) = 2.95775 3.21440 3.08874
# Velocity P-wave (km/s) = 6.58758 7.27811 6.94143
#
# Compressibility (1/GPa) = 0.01767601
#
# Stress axis : x y z
#
# Youngs Moduli (GPa) = 37.37276 63.25071 66.08451
#
# Poissons Ratio (x) = 0.19124 0.85512
# Poissons Ratio (y) = 0.11300 0.26755
# Poissons Ratio (z) = 0.48360 0.25608
#
# Static dielectric constant tensor:
#      x y z
#    x 3.217780 0.000000 0.000000 
#    y 0.000000 3.136570 0.000000 
#    z 0.000000 0.000000 4.018660 
# 
# 
# High freq. dielectric constant tensor:
#      x y z
#    x 1.660360 0.000000 0.000000 
#    y 0.000000 1.675840 0.000000 
#    z 0.000000 0.000000 1.710160 
# 
# From -- ./inp_files/43220.got.cif
#   From: 2010.03.12/outbox.cif.g09.slc.cpg/sg67_22_cif.got.tgz:43220.got - 2010.04.10 22:41:39.
