data_PCOD8281381
_publ_section_title
;
Structure prediction by ZEFSAII (Michael W. Deem and Ramdas Pophale) SiO2 
 PCOD8281381
Probable space group: C M M A
;
_chemical_formula_sum "Si O2"
_cell_formula_units_Z 64
_cell_length_a 18.001007
_cell_length_b 14.742708
_cell_length_c 11.453190
_cell_angle_alpha 90.000000
_cell_angle_beta 90.000000
_cell_angle_gamma 90.000000
_cell_volume 3039.488678
_symmetry_space_group_name_H-M "C M M A"
_symmetry_group_IT_number 67
_symmetry_cell_setting 'orthorhombic'
loop_
_space_group_symop_operation_xyz
x,y,z
-x,1/2-y,z
x,-y,-z
-x,1/2+y,-z
-x,-y,-z
x,1/2+y,-z
-x,y,z
x,1/2-y,z
1/2+x,1/2+y,z
1/2-x,-y,z
1/2+x,1/2-y,-z
1/2-x,y,-z
1/2-x,1/2-y,-z
1/2+x,y,-z
1/2-x,1/2+y,z
1/2+x,-y,z
loop_
_atom_site_type_symbol
_atom_site_label
_atom_site_fract_x
_atom_site_fract_y
_atom_site_fract_z
Si Si1 0.193661 0.750000 0.658636
Si Si2 0.175191 0.940017 0.786071
Si Si3 0.661690 0.650450 0.989473
Si Si4 0.137912 0.250000 0.585764
Si Si5 0.085600 0.597617 0.250821
O O1 0.186045 0.840931 0.733078
O O2 0.132095 0.750000 0.555092
O O3 0.275999 0.750000 0.611687
O O4 0.250000 0.000000 0.790647
O O5 0.113683 0.996987 0.713202
O O6 0.138668 0.924589 0.914684
O O7 0.628413 0.750000 0.018508
O O8 0.635805 0.625654 0.859723
O O9 0.750000 0.654755 0.000000
O O10 0.098037 0.337889 0.638749
O O11 0.000000 0.598401 0.214398
#
# Coordination Sequence:
#
# PCOD8281381 Si02
#       5
#     8  16  16   8  16
#     4  11  24  45  72 103 125 179 245 287 341 385
#     4  12  23  42  69 103 142 177 225 291 342 413
#     4  11  21  37  67 101 140 180 222 278 343 417
#     4  11  23  45  70  99 137 174 237 298 328 409
#     4  12  26  44  68 103 144 187 223 277 361 423
#
# _framework density 21.056173000000001
#
# number of rings (size 3 to 8) (size 9 to 14) (size 15 to 20)
#    0.000    0.500    7.500    1.125    0.000    3.000 
#    0.000    4.375    0.000    0.000    0.000    0.000 
#    0.000    0.000    0.000    0.000    0.000    0.000 
#
# Total GULP energy -396558.555612 kJ/mol
# GULP energy per Si atom -12392.454863 kJ/mol
# Density = 2.100825 g / cm^3
# Si number density = 21.056173 Si / 1000 Ang^3
#
#
#
# Elastic Constant Matrix: (Units=GPa)
#
#
# Indices 1 2 3 4 5 6 
#
# 1 91.2055 32.7349 24.3513 0.0000 0.0000 0.0000
# 2 32.7349 167.7166 47.3161 0.0000 0.0000 0.0000
# 3 24.3513 47.3161 95.9638 0.0000 0.0000 0.0000
# 4 0.0000 0.0000 0.0000 10.7615 0.0000 0.0000
# 5 0.0000 0.0000 0.0000 0.0000 22.1721 0.0000
# 6 0.0000 0.0000 0.0000 0.0000 0.0000 21.9967
#
#
#
# Elastic Compliance Matrix: (Units=1/GPa)
#
#
# Indices 1 2 3 4 5 6 
#
# 1 0.012188 -0.001750 -0.002230 0.000000 0.000000 0.000000
# 2 -0.001750 0.007177 -0.003095 0.000000 0.000000 0.000000
# 3 -0.002230 -0.003095 0.012512 0.000000 0.000000 0.000000
# 4 0.000000 0.000000 0.000000 0.092924 0.000000 0.000000
# 5 0.000000 0.000000 0.000000 0.000000 0.045102 0.000000
# 6 0.000000 0.000000 0.000000 0.000000 0.000000 0.045461
#
#
# Mechanical properties :
#
#
# Convention : Reuss Voigt Hill
#
# Bulk Modulus (GPa) = 56.40714 62.63228 59.51971
# Shear Modulus (GPa) = 21.23846 27.68497 24.46172
#
# Velocity S-wave (km/s) = 3.17938 3.62997 3.41212
# Velocity P-wave (km/s) = 6.35020 6.88323 6.62208
#
# Compressibility (1/GPa) = 0.01772825
#
# Stress axis : x y z
#
# Youngs Moduli (GPa) = 82.05054 139.33359 79.92101
#
# Poissons Ratio (x) = 0.24379 0.17822
# Poissons Ratio (y) = 0.14356 0.24733
# Poissons Ratio (z) = 0.18297 0.43120
#
# Static dielectric constant tensor:
#      x y z
#    x 3.613160 0.000000 0.000000 
#    y 0.000000 4.425330 0.000000 
#    z 0.000000 0.000000 4.170080 
# 
# 
# High freq. dielectric constant tensor:
#      x y z
#    x 1.794330 0.000000 0.000000 
#    y 0.000000 1.855670 0.000000 
#    z 0.000000 0.000000 1.814440 
# 
# From -- ./inp_files/17534.got.cif
#   From: 2010.03.12/outbox.cif.g09.slc.cpg/sg67_9_cif.got.tgz:17534.got - 2010.04.10 22:41:39.
