data_PCOD8281739
_publ_section_title
;
Structure prediction by ZEFSAII (Michael W. Deem and Ramdas Pophale) SiO2 
 PCOD8281739
Probable space group: C C C A
;
_chemical_formula_sum "Si O2"
_cell_formula_units_Z 80
_cell_length_a 16.307610
_cell_length_b 8.847094
_cell_length_c 29.185253
_cell_angle_alpha 90.000000
_cell_angle_beta 90.000000
_cell_angle_gamma 90.000000
_cell_volume 4210.701168
_symmetry_space_group_name_H-M "C C C A"
_symmetry_group_IT_number 68
_space_group.IT_coordinate_system_code '2'
_symmetry_cell_setting 'orthorhombic'
loop_
_space_group_symop_operation_xyz
x,y,z
-x,1/2-y,z
x,1/2-y,1/2-z
-x,y,1/2-z
-x,-y,-z
x,1/2+y,-z
-x,1/2+y,1/2+z
x,-y,1/2+z
1/2+x,1/2+y,z
1/2-x,-y,z
1/2+x,-y,1/2-z
1/2-x,1/2+y,1/2-z
1/2-x,1/2-y,-z
1/2+x,y,-z
1/2-x,y,1/2+z
1/2+x,1/2-y,1/2+z
loop_
_atom_site_type_symbol
_atom_site_label
_atom_site_fract_x
_atom_site_fract_y
_atom_site_fract_z
Si Si1 0.578449 0.352924 0.865381
Si Si2 0.661812 0.426099 0.954094
Si Si3 0.989350 0.577881 0.196303
Si Si4 0.838187 0.071965 0.457755
Si Si5 0.157861 0.443406 0.355695
O O1 0.500000 0.250000 0.877603
O O2 0.604700 0.449032 0.909732
O O3 0.558917 0.473067 0.826010
O O4 0.650970 0.238871 0.848348
O O5 0.750000 0.500000 0.943726
O O6 0.670952 0.249498 0.963505
O O7 0.614829 0.502920 0.997851
O O8 0.898834 0.528997 0.180536
O O9 0.000000 0.750000 0.180929
O O10 0.000000 0.556918 0.250000
O O11 0.874282 0.025035 0.408002
O O12 0.750000 0.000000 0.462571
O O13 0.250000 0.500000 0.348047
#
# Coordination Sequence:
#
# PCOD8281739 Si02
#       5
#    16  16  16  16  16
#     4   9  20  37  55  78 110 144 178 219 274 325
#     4  10  18  30  50  77 107 143 183 217 257 314
#     4  10  22  40  58  80 110 140 175 226 284 330
#     4   9  17  29  48  77 110 141 177 219 261 305
#     4   9  19  37  58  81 108 143 185 222 259 321
#
# _framework density 18.999210000000001
#
# number of rings (size 3 to 8) (size 9 to 14) (size 15 to 20)
#    0.000    2.600    0.000    2.400    0.000   10.000 
#    0.000   15.000    0.000    0.000    0.000    0.000 
#    0.000    0.000    0.000    0.000    0.000    0.000 
#
# Total GULP energy -495656.550901 kJ/mol
# GULP energy per Si atom -12391.413773 kJ/mol
# Density = 1.895597 g / cm^3
# Si number density = 18.999210 Si / 1000 Ang^3
#
#
#
# Elastic Constant Matrix: (Units=GPa)
#
#
# Indices 1 2 3 4 5 6 
#
# 1 74.0870 50.9972 56.9493 0.0000 0.0000 0.0000
# 2 50.9972 123.1718 75.0018 0.0000 0.0000 0.0000
# 3 56.9493 75.0018 125.7594 0.0000 0.0000 0.0000
# 4 0.0000 0.0000 0.0000 38.2942 0.0000 0.0000
# 5 0.0000 0.0000 0.0000 0.0000 31.5729 0.0000
# 6 0.0000 0.0000 0.0000 0.0000 0.0000 25.1791
#
#
#
# Elastic Compliance Matrix: (Units=1/GPa)
#
#
# Indices 1 2 3 4 5 6 
#
# 1 0.022422 -0.004869 -0.007250 0.000000 0.000000 0.000000
# 2 -0.004869 0.013806 -0.006029 0.000000 0.000000 0.000000
# 3 -0.007250 -0.006029 0.014830 0.000000 0.000000 0.000000
# 4 0.000000 0.000000 0.000000 0.026114 0.000000 0.000000
# 5 0.000000 0.000000 0.000000 0.000000 0.031673 0.000000
# 6 0.000000 0.000000 0.000000 0.000000 0.000000 0.039715
#
#
# Mechanical properties :
#
#
# Convention : Reuss Voigt Hill
#
# Bulk Modulus (GPa) = 67.73742 76.54607 72.14174
# Shear Modulus (GPa) = 26.34694 28.34724 27.34709
#
# Velocity S-wave (km/s) = 3.72793 3.86686 3.79803
# Velocity P-wave (km/s) = 7.36615 7.76617 7.56880
#
# Compressibility (1/GPa) = 0.01476289
#
# Stress axis : x y z
#
# Youngs Moduli (GPa) = 44.59926 72.43430 67.42974
#
# Poissons Ratio (x) = 0.35267 0.48886
# Poissons Ratio (y) = 0.21714 0.40652
# Poissons Ratio (z) = 0.32334 0.43669
#
# Static dielectric constant tensor:
#      x y z
#    x 3.295220 0.000000 0.000000 
#    y 0.000000 3.693020 0.000000 
#    z 0.000000 0.000000 3.807020 
# 
# 
# High freq. dielectric constant tensor:
#      x y z
#    x 1.712410 0.000000 0.000000 
#    y 0.000000 1.748210 0.000000 
#    z 0.000000 0.000000 1.744310 
# 
# From -- ./inp_files/55539.got.cif
#   From: 2010.03.12/outbox.cif.g09.slc.cpg/sg68_28_cif.got.tgz:55539.got - 2010.04.10 23:14:56.
