data_PCOD8281951
_publ_section_title
;
Structure prediction by ZEFSAII (Michael W. Deem and Ramdas Pophale) SiO2 
 PCOD8281951
Probable space group: C C C A
;
_chemical_formula_sum "Si O2"
_cell_formula_units_Z 128
_cell_length_a 12.003343
_cell_length_b 24.467839
_cell_length_c 23.710276
_cell_angle_alpha 90.000000
_cell_angle_beta 90.000000
_cell_angle_gamma 90.000000
_cell_volume 6963.609995
_symmetry_space_group_name_H-M "C C C A"
_symmetry_group_IT_number 68
_space_group.IT_coordinate_system_code '2'
_symmetry_cell_setting 'orthorhombic'
loop_
_space_group_symop_operation_xyz
x,y,z
-x,1/2-y,z
x,1/2-y,1/2-z
-x,y,1/2-z
-x,-y,-z
x,1/2+y,-z
-x,1/2+y,1/2+z
x,-y,1/2+z
1/2+x,1/2+y,z
1/2-x,-y,z
1/2+x,-y,1/2-z
1/2-x,1/2+y,1/2-z
1/2-x,1/2-y,-z
1/2+x,y,-z
1/2-x,y,1/2+z
1/2+x,1/2-y,1/2+z
loop_
_atom_site_type_symbol
_atom_site_label
_atom_site_fract_x
_atom_site_fract_y
_atom_site_fract_z
Si Si1 0.202667 0.559840 0.779982
Si Si2 0.670058 0.605750 0.048826
Si Si3 0.475659 0.811634 0.464754
Si Si4 0.363280 0.899017 0.635182
Si Si5 0.940645 0.522491 0.621193
Si Si6 0.745654 0.638098 0.929414
Si Si7 0.822004 0.447131 0.343383
Si Si8 0.981585 0.310502 0.906923
O O1 0.250000 0.500000 0.773915
O O2 0.301040 0.599504 0.803996
O O3 0.104219 0.556838 0.825453
O O4 0.156050 0.579105 0.719063
O O5 0.576739 0.651981 0.058575
O O6 0.775842 0.618603 0.087521
O O7 0.616177 0.547001 0.064729
O O8 0.710166 0.603811 0.984471
O O9 0.500000 0.750000 0.445961
O O10 0.360256 0.829652 0.436861
O O11 0.461367 0.816460 0.531931
O O12 0.462429 0.854642 0.635307
O O13 0.414927 0.958449 0.622096
O O14 0.070939 0.534391 0.621231
O O15 0.753149 0.596373 0.878384
O O16 0.650531 0.681247 0.912914
O O17 0.750000 0.500000 0.333325
O O18 0.000000 0.250000 0.881989
#
# Coordination Sequence:
#
# PCOD8281951 Si02
#       8
#    16  16  16  16  16  16  16  16
#     4   8  18  34  57  81 107 142 190 232 278 338
#     4  10  20  35  56  82 113 148 185 230 291 345
#     4  10  21  36  57  82 112 153 193 241 279 335
#     4  10  19  36  57  84 113 153 190 234 288 347
#     4  10  19  35  57  82 114 145 190 231 285 344
#     4  11  22  37  53  85 116 146 191 231 289 343
#     4  11  21  35  54  83 114 148 183 232 285 341
#     4  10  22  36  57  82 113 152 194 239 283 341
#
# _framework density 18.381270000000001
#
# number of rings (size 3 to 8) (size 9 to 14) (size 15 to 20)
#    0.000    2.000    2.500    2.250    1.750    2.500 
#    0.000    4.375    0.000    1.500    0.000    3.500 
#    0.000    0.000    0.000    0.000    0.000    0.000 
#
# Total GULP energy -793455.820969 kJ/mol
# GULP energy per Si atom -12397.747203 kJ/mol
# Density = 1.833943 g / cm^3
# Si number density = 18.381270 Si / 1000 Ang^3
#
#
#
# Elastic Constant Matrix: (Units=GPa)
#
#
# Indices 1 2 3 4 5 6 
#
# 1 83.3752 32.7274 35.1372 0.0000 0.0000 0.0000
# 2 32.7274 105.7503 45.1240 0.0000 0.0000 0.0000
# 3 35.1372 45.1240 81.6427 0.0000 0.0000 0.0000
# 4 0.0000 0.0000 0.0000 22.2046 0.0000 0.0000
# 5 0.0000 0.0000 0.0000 0.0000 22.6282 0.0000
# 6 0.0000 0.0000 0.0000 0.0000 0.0000 27.8791
#
#
#
# Elastic Compliance Matrix: (Units=1/GPa)
#
#
# Indices 1 2 3 4 5 6 
#
# 1 0.015137 -0.002493 -0.005137 0.000000 0.000000 0.000000
# 2 -0.002493 0.012785 -0.005994 0.000000 0.000000 0.000000
# 3 -0.005137 -0.005994 0.017772 0.000000 0.000000 0.000000
# 4 0.000000 0.000000 0.000000 0.045036 0.000000 0.000000
# 5 0.000000 0.000000 0.000000 0.000000 0.044193 0.000000
# 6 0.000000 0.000000 0.000000 0.000000 0.000000 0.035869
#
#
# Mechanical properties :
#
#
# Convention : Reuss Voigt Hill
#
# Bulk Modulus (GPa) = 54.20676 55.19396 54.70036
# Shear Modulus (GPa) = 24.48723 25.06102 24.77413
#
# Velocity S-wave (km/s) = 3.65387 3.69643 3.67521
# Velocity P-wave (km/s) = 6.88152 6.95058 6.91613
#
# Compressibility (1/GPa) = 0.01844788
#
# Stress axis : x y z
#
# Youngs Moduli (GPa) = 66.06166 78.21578 56.26819
#
# Poissons Ratio (x) = 0.19497 0.28905
# Poissons Ratio (y) = 0.16467 0.33725
# Poissons Ratio (z) = 0.33936 0.46879
#
# Static dielectric constant tensor:
#      x y z
#    x 3.504110 0.000000 0.000000 
#    y 0.000000 3.251330 0.000000 
#    z 0.000000 0.000000 3.519660 
# 
# 
# High freq. dielectric constant tensor:
#      x y z
#    x 1.728670 0.000000 0.000000 
#    y 0.000000 1.694700 0.000000 
#    z 0.000000 0.000000 1.695260 
# 
# From -- ./inp_files/44735.got.cif
#   From: 2010.03.12/outbox.cif.g09.slc.cpg/sg68_23_cif.got.tgz:44735.got - 2010.04.10 23:14:56.
