data_PCOD8281675
_publ_section_title
;
Structure prediction by ZEFSAII (Michael W. Deem and Ramdas Pophale) SiO2 
 PCOD8281675
Probable space group: C C C A
;
_chemical_formula_sum "Si O2"
_cell_formula_units_Z 96
_cell_length_a 12.778678
_cell_length_b 18.181604
_cell_length_c 22.609170
_cell_angle_alpha 90.000000
_cell_angle_beta 90.000000
_cell_angle_gamma 90.000000
_cell_volume 5252.943634
_symmetry_space_group_name_H-M "C C C A"
_symmetry_group_IT_number 68
_space_group.IT_coordinate_system_code '2'
_symmetry_cell_setting 'orthorhombic'
loop_
_space_group_symop_operation_xyz
x,y,z
-x,1/2-y,z
x,1/2-y,1/2-z
-x,y,1/2-z
-x,-y,-z
x,1/2+y,-z
-x,1/2+y,1/2+z
x,-y,1/2+z
1/2+x,1/2+y,z
1/2-x,-y,z
1/2+x,-y,1/2-z
1/2-x,1/2+y,1/2-z
1/2-x,1/2-y,-z
1/2+x,y,-z
1/2-x,y,1/2+z
1/2+x,1/2-y,1/2+z
loop_
_atom_site_type_symbol
_atom_site_label
_atom_site_fract_x
_atom_site_fract_y
_atom_site_fract_z
Si Si1 0.520613 0.057334 0.181015
Si Si2 0.534337 0.604526 0.315302
Si Si3 0.084512 0.308362 0.865788
Si Si4 0.166682 0.250000 0.750000
Si Si5 0.737917 0.870966 0.664227
Si Si6 0.500000 0.250000 0.888782
Si Si7 0.729705 0.244344 0.568684
O O1 0.500000 0.073643 0.250000
O O2 0.457270 0.108288 0.134605
O O3 0.642711 0.072967 0.168888
O O4 0.484770 0.973951 0.165173
O O5 0.500000 0.624712 0.250000
O O6 0.656736 0.585862 0.321737
O O7 0.500938 0.674685 0.352494
O O8 0.093769 0.291277 0.796450
O O9 0.195634 0.305268 0.899775
O O10 0.000000 0.250000 0.893159
O O11 0.237829 0.306631 0.713498
O O12 0.740424 0.833902 0.598628
O O13 0.605738 0.241560 0.926135
O O14 0.750000 0.250000 0.500000
#
# Coordination Sequence:
#
# PCOD8281675 Si02
#       7
#    16  16  16   8  16   8  16
#     4  11  19  33  54  88 120 143 188 239 292 344
#     4  10  23  34  53  80 119 160 183 226 289 362
#     4  11  18  32  58  87 114 141 183 240 286 336
#     4  10  17  28  55  82 114 139 184 224 293 342
#     4  10  20  33  54  79 116 151 186 241 280 347
#     4  10  23  42  56  78 116 149 198 234 274 362
#     4  10  23  37  61  85 106 155 195 236 278 327
#
# _framework density 18.275466999999999
#
# number of rings (size 3 to 8) (size 9 to 14) (size 15 to 20)
#    0.000    1.667    5.000    1.000    8.167    0.000 
#    0.000    0.833    0.000   13.000    0.000    0.000 
#    0.000    0.000    0.000    0.000    0.000    0.000 
#
# Total GULP energy -594673.346027 kJ/mol
# GULP energy per Si atom -12389.028042 kJ/mol
# Density = 1.823387 g / cm^3
# Si number density = 18.275467 Si / 1000 Ang^3
#
#
#
# Elastic Constant Matrix: (Units=GPa)
#
#
# Indices 1 2 3 4 5 6 
#
# 1 123.1074 38.5916 53.5151 0.0000 0.0000 0.0000
# 2 38.5916 118.9570 39.8832 0.0000 0.0000 0.0000
# 3 53.5151 39.8832 105.6803 0.0000 0.0000 0.0000
# 4 0.0000 0.0000 0.0000 -8.4490 0.0000 0.0000
# 5 0.0000 0.0000 0.0000 0.0000 19.4853 0.0000
# 6 0.0000 0.0000 0.0000 0.0000 0.0000 21.3326
#
#
#
# Elastic Compliance Matrix: (Units=1/GPa)
#
#
# Indices 1 2 3 4 5 6 
#
# 1 0.010782 -0.001909 -0.004739 0.000000 0.000000 0.000000
# 2 -0.001909 0.009962 -0.002793 0.000000 0.000000 0.000000
# 3 -0.004739 -0.002793 0.012916 0.000000 0.000000 0.000000
# 4 0.000000 0.000000 0.000000 -0.118357 0.000000 0.000000
# 5 0.000000 0.000000 0.000000 0.000000 0.051321 0.000000
# 6 0.000000 0.000000 0.000000 0.000000 0.000000 0.046877
#
#
# Mechanical properties :
#
#
# Convention : Reuss Voigt Hill
#
# Bulk Modulus (GPa) = 67.66856 67.96940 67.81898
# Shear Modulus (GPa) = 134.01893 20.85743 77.43818
#
# Velocity S-wave (km/s) = 8.57274 3.38195 6.51650
# Velocity P-wave (km/s) = 11.62311 7.24724 9.68553
#
# Compressibility (1/GPa) = 0.01477791
#
# Stress axis : x y z
#
# Youngs Moduli (GPa) = 92.75140 100.38071 77.42042
#
# Poissons Ratio (x) = 0.19160 0.36692
# Poissons Ratio (y) = 0.17704 0.21624
# Poissons Ratio (z) = 0.43957 0.28037
#
# Static dielectric constant tensor:
#      x y z
#    x 3.581190 0.000000 0.000000 
#    y 0.000000 3.380880 0.000000 
#    z 0.000000 0.000000 3.222320 
# 
# 
# High freq. dielectric constant tensor:
#      x y z
#    x 1.721660 0.000000 0.000000 
#    y 0.000000 1.705270 0.000000 
#    z 0.000000 0.000000 1.673620 
# 
# From -- ./inp_files/44543.got.cif
#   From: 2010.03.12/outbox.cif.g09.slc.cpg/sg68_23_cif.got.tgz:44543.got - 2010.04.10 23:14:56.
