data_PCOD8281469
_publ_section_title
;
Structure prediction by ZEFSAII (Michael W. Deem and Ramdas Pophale) SiO2 
 PCOD8281469
Probable space group: C M M A
;
_chemical_formula_sum "Si O2"
_cell_formula_units_Z 96
_cell_length_a 21.377634
_cell_length_b 14.456158
_cell_length_c 13.550503
_cell_angle_alpha 90.000000
_cell_angle_beta 90.000000
_cell_angle_gamma 90.000000
_cell_volume 4187.626508
_symmetry_space_group_name_H-M "C M M A"
_symmetry_group_IT_number 67
_symmetry_cell_setting 'orthorhombic'
loop_
_space_group_symop_operation_xyz
x,y,z
-x,1/2-y,z
x,-y,-z
-x,1/2+y,-z
-x,-y,-z
x,1/2+y,-z
-x,y,z
x,1/2-y,z
1/2+x,1/2+y,z
1/2-x,-y,z
1/2+x,1/2-y,-z
1/2-x,y,-z
1/2-x,1/2-y,-z
1/2+x,y,-z
1/2-x,1/2+y,z
1/2+x,-y,z
loop_
_atom_site_type_symbol
_atom_site_label
_atom_site_fract_x
_atom_site_fract_y
_atom_site_fract_z
Si Si1 0.932805 0.250000 0.832054
Si Si2 0.263261 0.639393 0.248339
Si Si3 0.069887 0.852631 0.433823
Si Si4 0.312488 0.898823 0.453971
Si Si5 0.373030 0.074532 0.249755
Si Si6 0.647505 0.432230 0.905112
Si Si7 0.932243 0.750000 0.943434
O O1 0.891185 0.337874 0.813182
O O2 0.000000 0.250000 0.774376
O O3 0.949792 0.250000 0.944622
O O4 0.255212 0.750000 0.248283
O O5 0.310837 0.606464 0.334931
O O6 0.200009 0.585424 0.274502
O O7 0.286531 0.603759 0.140826
O O8 0.071071 0.750000 0.384220
O O9 0.121821 0.850415 0.519366
O O10 0.087787 0.929230 0.351583
O O11 0.000000 0.874476 0.475257
O O12 0.250000 0.848784 0.500000
O O13 0.314383 0.000000 0.500000
O O14 0.388227 0.987027 0.181777
O O15 0.606454 0.342350 0.922588
O O16 0.657907 0.500000 0.000000
O O17 0.000000 0.750000 0.886616
#
# Coordination Sequence:
#
# PCOD8281469 Si02
#       7
#     8  16  16  16  16  16   8
#     4  11  22  41  69 101 137 181 243 306 358 431
#     4  12  25  44  74 105 146 195 244 302 374 449
#     4  11  23  41  68 104 142 181 238 305 364 431
#     4  11  24  43  69 102 143 191 249 299 362 443
#     4  12  23  41  69 107 142 188 238 295 371 434
#     4  12  27  48  72 106 146 188 238 303 369 438
#     4  11  26  51  73 100 140 193 249 295 363 446
#
# _framework density 22.924679999999999
#
# number of rings (size 3 to 8) (size 9 to 14) (size 15 to 20)
#    0.000    0.500    5.833    2.500    2.333    4.000 
#    0.000    2.500    0.000    0.000    0.000    0.000 
#    0.000    0.000    0.000    0.000    0.000    0.000 
#
# Total GULP energy -594857.900053 kJ/mol
# GULP energy per Si atom -12392.872918 kJ/mol
# Density = 2.287250 g / cm^3
# Si number density = 22.924680 Si / 1000 Ang^3
#
#
#
# Elastic Constant Matrix: (Units=GPa)
#
#
# Indices 1 2 3 4 5 6 
#
# 1 174.9453 33.4869 55.7891 0.0000 0.0000 0.0000
# 2 33.4869 115.7841 40.6110 0.0000 0.0000 0.0000
# 3 55.7891 40.6110 118.4246 0.0000 0.0000 0.0000
# 4 0.0000 0.0000 0.0000 36.8128 0.0000 0.0000
# 5 0.0000 0.0000 0.0000 0.0000 34.3182 0.0000
# 6 0.0000 0.0000 0.0000 0.0000 0.0000 5.6332
#
#
#
# Elastic Compliance Matrix: (Units=1/GPa)
#
#
# Indices 1 2 3 4 5 6 
#
# 1 0.006819 -0.000961 -0.002883 0.000000 0.000000 0.000000
# 2 -0.000961 0.009953 -0.002960 0.000000 0.000000 0.000000
# 3 -0.002883 -0.002960 0.010818 0.000000 0.000000 0.000000
# 4 0.000000 0.000000 0.000000 0.027164 0.000000 0.000000
# 5 0.000000 0.000000 0.000000 0.000000 0.029139 0.000000
# 6 0.000000 0.000000 0.000000 0.000000 0.000000 0.177518
#
#
# Mechanical properties :
#
#
# Convention : Reuss Voigt Hill
#
# Bulk Modulus (GPa) = 71.52543 74.32534 72.92539
# Shear Modulus (GPa) = 17.87749 33.97064 25.92407
#
# Velocity S-wave (km/s) = 2.79558 3.85364 3.36644
# Velocity P-wave (km/s) = 6.45665 7.23136 6.85496
#
# Compressibility (1/GPa) = 0.01398104
#
# Stress axis : x y z
#
# Youngs Moduli (GPa) = 146.64017 100.47127 92.44219
#
# Poissons Ratio (x) = 0.09656 0.26651
# Poissons Ratio (y) = 0.14093 0.27367
# Poissons Ratio (z) = 0.42276 0.29744
#
# Static dielectric constant tensor:
#      x y z
#    x 4.384290 0.000000 0.000000 
#    y 0.000000 4.279040 0.000000 
#    z 0.000000 0.000000 4.227690 
# 
# 
# High freq. dielectric constant tensor:
#      x y z
#    x 1.906290 0.000000 0.000000 
#    y 0.000000 1.914930 0.000000 
#    z 0.000000 0.000000 1.902640 
# 
# From -- ./inp_files/29337.got.cif
#   From: 2010.03.12/outbox.cif.g09.slc.cpg/sg67_15_cif.got.tgz:29337.got - 2010.04.10 22:41:39.
