data_PCOD8281435
_publ_section_title
;
Structure prediction by ZEFSAII (Michael W. Deem and Ramdas Pophale) SiO2 
 PCOD8281435
Probable space group: C M M A
;
_chemical_formula_sum "Si O2"
_cell_formula_units_Z 128
_cell_length_a 18.099914
_cell_length_b 17.932020
_cell_length_c 21.444926
_cell_angle_alpha 90.000000
_cell_angle_beta 90.000000
_cell_angle_gamma 90.000000
_cell_volume 6960.337168
_symmetry_space_group_name_H-M "C M M A"
_symmetry_group_IT_number 67
_symmetry_cell_setting 'orthorhombic'
loop_
_space_group_symop_operation_xyz
x,y,z
-x,1/2-y,z
x,-y,-z
-x,1/2+y,-z
-x,-y,-z
x,1/2+y,-z
-x,y,z
x,1/2-y,z
1/2+x,1/2+y,z
1/2-x,-y,z
1/2+x,1/2-y,-z
1/2-x,y,-z
1/2-x,1/2-y,-z
1/2+x,y,-z
1/2-x,1/2+y,z
1/2+x,-y,z
loop_
_atom_site_type_symbol
_atom_site_label
_atom_site_fract_x
_atom_site_fract_y
_atom_site_fract_z
Si Si1 0.081169 0.918721 0.474916
Si Si2 0.312151 0.331535 0.818626
Si Si3 0.273736 0.160430 0.067471
Si Si4 0.082060 0.338547 0.864144
Si Si5 0.663759 0.667735 0.743200
Si Si6 0.416941 0.660756 0.283944
Si Si7 0.155838 0.662005 0.588884
Si Si8 0.705956 0.077427 0.374705
O O1 0.115966 0.866220 0.527300
O O2 0.133660 0.928503 0.416163
O O3 0.000000 0.886354 0.455931
O O4 0.069127 0.000000 0.500000
O O5 0.344610 0.250000 0.835583
O O6 0.287632 0.371648 0.883271
O O7 0.240388 0.321188 0.777391
O O8 0.373032 0.373922 0.775860
O O9 0.272215 0.250000 0.070003
O O10 0.356123 0.131796 0.086451
O O11 0.250000 0.129657 0.000000
O O12 0.081151 0.250000 0.868027
O O13 0.103482 0.361574 0.793332
O O14 0.000000 0.370536 0.880094
O O15 0.641060 0.750000 0.716136
O O16 0.674605 0.605913 0.690738
O O17 0.500000 0.632104 0.278431
O O18 0.410687 0.750000 0.283303
O O19 0.384052 0.630308 0.348873
O O20 0.153337 0.750000 0.587403
O O21 0.240584 0.636342 0.591442
O O22 0.750000 0.000000 0.366994
#
# Coordination Sequence:
#
# PCOD8281435 Si02
#       8
#    16  16  16  16  16  16  16  16
#     4  11  25  43  57  74 107 142 169 209 267 323
#     4   8  13  24  40  61  91 126 162 202 249 296
#     4   8  13  21  35  57  91 136 176 207 246 299
#     4   8  14  25  43  67  96 132 173 215 258 304
#     4   9  17  31  51  73  98 129 168 213 258 307
#     4   9  16  27  46  72  97 122 159 209 259 302
#     4  11  22  38  61  83 103 134 179 220 255 313
#     4  12  23  37  58  81 104 136 172 213 266 322
#
# _framework density 18.389914000000001
#
# number of rings (size 3 to 8) (size 9 to 14) (size 15 to 20)
#    0.000    2.500    2.500    2.625    0.000    2.750 
#    0.000    0.625    0.000    3.750    0.000    0.000 
#    0.000    8.000    0.000    4.500    0.000    5.000 
#
# Total GULP energy -792921.414519 kJ/mol
# GULP energy per Si atom -12389.397102 kJ/mol
# Density = 1.834806 g / cm^3
# Si number density = 18.389914 Si / 1000 Ang^3
#
#
#
# Elastic Constant Matrix: (Units=GPa)
#
#
# Indices 1 2 3 4 5 6 
#
# 1 113.1556 20.2952 59.7195 0.0000 0.0000 0.0000
# 2 20.2952 32.9604 36.0828 0.0000 0.0000 0.0000
# 3 59.7195 36.0828 133.9485 0.0000 0.0000 0.0000
# 4 0.0000 0.0000 0.0000 8.7945 0.0000 0.0000
# 5 0.0000 0.0000 0.0000 0.0000 21.7543 0.0000
# 6 0.0000 0.0000 0.0000 0.0000 0.0000 8.4768
#
#
#
# Elastic Compliance Matrix: (Units=1/GPa)
#
#
# Indices 1 2 3 4 5 6 
#
# 1 0.011659 -0.002111 -0.004629 0.000000 0.000000 0.000000
# 2 -0.002111 0.043411 -0.010753 0.000000 0.000000 0.000000
# 3 -0.004629 -0.010753 0.012426 0.000000 0.000000 0.000000
# 4 0.000000 0.000000 0.000000 0.113708 0.000000 0.000000
# 5 0.000000 0.000000 0.000000 0.000000 0.045968 0.000000
# 6 0.000000 0.000000 0.000000 0.000000 0.000000 0.117969
#
#
# Mechanical properties :
#
#
# Convention : Reuss Voigt Hill
#
# Bulk Modulus (GPa) = 30.76023 56.91774 43.83898
# Shear Modulus (GPa) = 12.78893 18.73625 15.76259
#
# Velocity S-wave (km/s) = 2.63996 3.19538 2.93086
# Velocity P-wave (km/s) = 5.10446 6.68069 5.94505
#
# Compressibility (1/GPa) = 0.03250951
#
# Stress axis : x y z
#
# Youngs Moduli (GPa) = 85.76837 23.03583 80.47576
#
# Poissons Ratio (x) = 0.04863 0.37256
# Poissons Ratio (y) = 0.18107 0.86533
# Poissons Ratio (z) = 0.39706 0.24770
#
# Static dielectric constant tensor:
#      x y z
#    x 3.853710 0.000000 0.000000 
#    y 0.000000 2.857740 0.000000 
#    z 0.000000 0.000000 2.758580 
# 
# 
# High freq. dielectric constant tensor:
#      x y z
#    x 1.718870 0.000000 0.000000 
#    y 0.000000 1.656550 0.000000 
#    z 0.000000 0.000000 1.710620 
# 
# From -- ./inp_files/39122.got.cif
#   From: 2010.03.12/outbox.cif.g09.slc.cpg/sg67_20_cif.got.tgz:39122.got - 2010.04.10 22:41:39.
