data_PCOD8281669
_publ_section_title
;
Structure prediction by ZEFSAII (Michael W. Deem and Ramdas Pophale) SiO2 
 PCOD8281669
Probable space group: C C C A
;
_chemical_formula_sum "Si O2"
_cell_formula_units_Z 120
_cell_length_a 14.470628
_cell_length_b 24.286219
_cell_length_c 18.225785
_cell_angle_alpha 90.000000
_cell_angle_beta 90.000000
_cell_angle_gamma 90.000000
_cell_volume 6405.212299
_symmetry_space_group_name_H-M "C C C A"
_symmetry_group_IT_number 68
_space_group.IT_coordinate_system_code '2'
_symmetry_cell_setting 'orthorhombic'
loop_
_space_group_symop_operation_xyz
x,y,z
-x,1/2-y,z
x,1/2-y,1/2-z
-x,y,1/2-z
-x,-y,-z
x,1/2+y,-z
-x,1/2+y,1/2+z
x,-y,1/2+z
1/2+x,1/2+y,z
1/2-x,-y,z
1/2+x,-y,1/2-z
1/2-x,1/2+y,1/2-z
1/2-x,1/2-y,-z
1/2+x,y,-z
1/2-x,y,1/2+z
1/2+x,1/2-y,1/2+z
loop_
_atom_site_type_symbol
_atom_site_label
_atom_site_fract_x
_atom_site_fract_y
_atom_site_fract_z
Si Si1 0.294587 0.080387 0.604474
Si Si2 0.140121 0.307366 0.042478
Si Si3 0.750000 0.000000 0.522808
Si Si4 0.984805 0.308684 0.928871
Si Si5 0.898634 0.922917 0.566858
Si Si6 0.917386 0.087162 0.894142
Si Si7 0.957517 0.525804 0.670947
Si Si8 0.173849 0.811028 0.536809
O O1 0.189631 0.090906 0.631220
O O2 0.351070 0.046889 0.666828
O O3 0.347685 0.138199 0.590506
O O4 0.299028 0.045060 0.529358
O O5 0.139779 0.362393 0.093275
O O6 0.154574 0.247170 0.079730
O O7 0.041097 0.306514 0.004505
O O8 0.217491 0.315254 0.980079
O O9 0.678844 0.030100 0.577660
O O10 0.022447 0.357774 0.876515
O O11 0.000000 0.250000 0.887099
O O12 0.879620 0.315680 0.958161
O O13 0.923931 0.923001 0.480896
O O14 0.988121 0.937380 0.612670
O O15 0.965641 0.038187 0.849754
O O16 0.000000 0.536115 0.750000
#
# Coordination Sequence:
#
# PCOD8281669 Si02
#       8
#    16  16   8  16  16  16  16  16
#     4  11  18  35  57  77 110 148 185 226 285 341
#     4   9  17  30  46  86 117 145 175 231 278 341
#     4  10  18  30  54  86 104 142 178 234 278 328
#     4   9  17  28  48  84 119 141 178 230 281 338
#     4  10  19  35  56  81 115 138 193 231 282 334
#     4  10  19  36  59  81 110 145 189 232 284 340
#     4  12  25  37  53  81 113 154 191 233 283 344
#     4  10  17  27  54  82 119 143 175 228 296 318
#
# _framework density 18.734742000000001
#
# number of rings (size 3 to 8) (size 9 to 14) (size 15 to 20)
#    0.000    1.867    6.667    2.000    1.867    0.000 
#    2.400    0.000    0.000    2.000    0.000    1.867 
#    0.000    0.000    0.000    0.000    0.000    0.000 
#
# Total GULP energy -743425.334603 kJ/mol
# GULP energy per Si atom -12390.422243 kJ/mol
# Density = 1.869210 g / cm^3
# Si number density = 18.734742 Si / 1000 Ang^3
#
#
#
# Elastic Constant Matrix: (Units=GPa)
#
#
# Indices 1 2 3 4 5 6 
#
# 1 69.2587 30.6795 21.7974 0.0000 0.0000 0.0000
# 2 30.6795 158.0097 9.0768 0.0000 0.0000 0.0000
# 3 21.7974 9.0768 36.3645 0.0000 0.0000 0.0000
# 4 0.0000 0.0000 0.0000 7.3066 0.0000 0.0000
# 5 0.0000 0.0000 0.0000 0.0000 13.7145 0.0000
# 6 0.0000 0.0000 0.0000 0.0000 0.0000 36.0292
#
#
#
# Elastic Compliance Matrix: (Units=1/GPa)
#
#
# Indices 1 2 3 4 5 6 
#
# 1 0.019193 -0.003110 -0.010728 0.000000 0.000000 0.000000
# 2 -0.003110 0.006925 0.000136 0.000000 0.000000 0.000000
# 3 -0.010728 0.000136 0.033896 0.000000 0.000000 0.000000
# 4 0.000000 0.000000 0.000000 0.136862 0.000000 0.000000
# 5 0.000000 0.000000 0.000000 0.000000 0.072916 0.000000
# 6 0.000000 0.000000 0.000000 0.000000 0.000000 0.027755
#
#
# Mechanical properties :
#
#
# Convention : Reuss Voigt Hill
#
# Bulk Modulus (GPa) = 30.66674 42.97116 36.81895
# Shear Modulus (GPa) = 14.88890 24.88202 19.88546
#
# Velocity S-wave (km/s) = 2.82214 3.64829 3.26148
# Velocity P-wave (km/s) = 5.19844 6.38225 5.82052
#
# Compressibility (1/GPa) = 0.03260862
#
# Stress axis : x y z
#
# Youngs Moduli (GPa) = 52.10303 144.40828 29.50201
#
# Poissons Ratio (x) = 0.44914 0.31650
# Poissons Ratio (y) = 0.16205 -0.00401
# Poissons Ratio (z) = 0.55896 -0.01962
#
# Static dielectric constant tensor:
#      x y z
#    x 3.622730 0.000000 0.000000 
#    y 0.000000 4.307460 0.000000 
#    z 0.000000 0.000000 2.595670 
# 
# 
# High freq. dielectric constant tensor:
#      x y z
#    x 1.743100 0.000000 0.000000 
#    y 0.000000 1.763990 0.000000 
#    z 0.000000 0.000000 1.619100 
# 
# From -- ./inp_files/38988.got.cif
#   From: 2010.03.12/outbox.cif.g09.slc.cpg/sg68_20_cif.got.tgz:38988.got - 2010.04.10 23:14:56.
