data_PCOD8281399
_publ_section_title
;
Structure prediction by ZEFSAII (Michael W. Deem and Ramdas Pophale) SiO2 
 PCOD8281399
Probable space group: C M M A
;
_chemical_formula_sum "Si O2"
_cell_formula_units_Z 112
_cell_length_a 14.876723
_cell_length_b 15.545569
_cell_length_c 23.230332
_cell_angle_alpha 90.000000
_cell_angle_beta 90.000000
_cell_angle_gamma 90.000000
_cell_volume 5372.412069
_symmetry_space_group_name_H-M "C M M A"
_symmetry_group_IT_number 67
_symmetry_cell_setting 'orthorhombic'
loop_
_space_group_symop_operation_xyz
x,y,z
-x,1/2-y,z
x,-y,-z
-x,1/2+y,-z
-x,-y,-z
x,1/2+y,-z
-x,y,z
x,1/2-y,z
1/2+x,1/2+y,z
1/2-x,-y,z
1/2+x,1/2-y,-z
1/2-x,y,-z
1/2-x,1/2-y,-z
1/2+x,y,-z
1/2-x,1/2+y,z
1/2+x,-y,z
loop_
_atom_site_type_symbol
_atom_site_label
_atom_site_fract_x
_atom_site_fract_y
_atom_site_fract_z
Si Si1 0.869219 0.655327 0.551945
Si Si2 0.339037 0.655055 0.574207
Si Si3 0.794651 0.845664 0.856834
Si Si4 0.399289 0.461345 0.940254
Si Si5 0.099103 0.007445 0.360888
Si Si6 0.402207 0.603717 0.844296
Si Si7 0.602951 0.452765 0.763224
O O1 0.908363 0.750000 0.568629
O O2 0.763949 0.657575 0.558868
O O3 0.893370 0.635665 0.484953
O O4 0.909793 0.580809 0.590969
O O5 0.368007 0.750000 0.598625
O O6 0.348923 0.577761 0.619290
O O7 0.833622 0.750000 0.858268
O O8 0.828430 0.892015 0.915329
O O9 0.685841 0.838023 0.853342
O O10 0.832596 0.892027 0.800303
O O11 0.500000 0.420936 0.948298
O O12 0.406000 0.538246 0.896319
O O13 0.362323 0.500000 0.000000
O O14 0.000000 0.974731 0.345278
O O15 0.140754 0.047058 0.302306
O O16 0.500000 0.653518 0.842918
O O17 0.391034 0.550497 0.785385
O O18 0.500000 0.418361 0.767418
#
# Coordination Sequence:
#
# PCOD8281399 Si02
#       7
#    16  16  16  16  16  16  16
#     4   9  19  35  53  75 105 143 185 228 277 333
#     4   9  19  36  55  75 103 140 185 234 277 327
#     4  11  22  35  58  89 116 147 187 234 288 339
#     4   9  18  35  60  86 114 153 196 234 271 318
#     4  11  22  34  53  82 111 141 179 226 285 348
#     4   9  19  37  57  78 111 153 191 228 275 332
#     4   9  20  38  56  76 107 146 189 235 279 334
#
# _framework density 20.847245999999998
#
# number of rings (size 3 to 8) (size 9 to 14) (size 15 to 20)
#    0.000    2.429    0.000    4.714    0.000    8.286 
#    0.000    6.429    0.000    5.143    0.000    0.000 
#    0.000    0.000    0.000    0.000    0.000    0.000 
#
# Total GULP energy -693822.446098 kJ/mol
# GULP energy per Si atom -12389.686537 kJ/mol
# Density = 2.079980 g / cm^3
# Si number density = 20.847246 Si / 1000 Ang^3
#
#
#
# Elastic Constant Matrix: (Units=GPa)
#
#
# Indices 1 2 3 4 5 6 
#
# 1 104.0726 32.2602 31.9535 0.0000 0.0000 0.0000
# 2 32.2602 109.9809 49.2199 0.0000 0.0000 0.0000
# 3 31.9535 49.2199 111.4359 0.0000 0.0000 0.0000
# 4 0.0000 0.0000 0.0000 11.0002 0.0000 0.0000
# 5 0.0000 0.0000 0.0000 0.0000 22.1431 0.0000
# 6 0.0000 0.0000 0.0000 0.0000 0.0000 -52.8158
#
#
#
# Elastic Compliance Matrix: (Units=1/GPa)
#
#
# Indices 1 2 3 4 5 6 
#
# 1 0.010968 -0.002255 -0.002149 0.000000 0.000000 0.000000
# 2 -0.002255 0.011796 -0.004564 0.000000 0.000000 0.000000
# 3 -0.002149 -0.004564 0.011606 0.000000 0.000000 0.000000
# 4 0.000000 0.000000 0.000000 0.090907 0.000000 0.000000
# 5 0.000000 0.000000 0.000000 0.000000 0.045161 0.000000
# 6 0.000000 0.000000 0.000000 0.000000 0.000000 -0.018934
#
#
# Mechanical properties :
#
#
# Convention : Reuss Voigt Hill
#
# Bulk Modulus (GPa) = 60.84916 61.37297 61.11107
# Shear Modulus (GPa) = 28.58497 10.20258 19.39378
#
# Velocity S-wave (km/s) = 3.70694 2.21463 3.05336
# Velocity P-wave (km/s) = 6.89734 6.00356 6.46591
#
# Compressibility (1/GPa) = 0.01643408
#
# Stress axis : x y z
#
# Youngs Moduli (GPa) = 91.17829 84.77150 86.16556
#
# Poissons Ratio (x) = 0.19120 0.18514
# Poissons Ratio (y) = 0.20565 0.39322
# Poissons Ratio (z) = 0.19591 0.38686
#
# Static dielectric constant tensor:
#      x y z
#    x 3.972560 0.000000 0.000000 
#    y 0.000000 3.641890 0.000000 
#    z 0.000000 0.000000 4.110870 
# 
# 
# High freq. dielectric constant tensor:
#      x y z
#    x 1.825550 0.000000 0.000000 
#    y 0.000000 1.789310 0.000000 
#    z 0.000000 0.000000 1.810050 
# 
# From -- ./inp_files/42005.got.cif
#   From: 2010.03.12/outbox.cif.g09.slc.cpg/sg67_22_cif.got.tgz:42005.got - 2010.04.10 22:41:39.
