data_PCOD8281566
_publ_section_title
;
Structure prediction by ZEFSAII (Michael W. Deem and Ramdas Pophale) SiO2 
 PCOD8281566
Probable space group: C M M A
;
_chemical_formula_sum "Si O2"
_cell_formula_units_Z 128
_cell_length_a 18.882773
_cell_length_b 20.046747
_cell_length_c 20.479114
_cell_angle_alpha 90.000000
_cell_angle_beta 90.000000
_cell_angle_gamma 90.000000
_cell_volume 7752.126398
_symmetry_space_group_name_H-M "C M M A"
_symmetry_group_IT_number 67
_symmetry_cell_setting 'orthorhombic'
loop_
_space_group_symop_operation_xyz
x,y,z
-x,1/2-y,z
x,-y,-z
-x,1/2+y,-z
-x,-y,-z
x,1/2+y,-z
-x,y,z
x,1/2-y,z
1/2+x,1/2+y,z
1/2-x,-y,z
1/2+x,1/2-y,-z
1/2-x,y,-z
1/2-x,1/2-y,-z
1/2+x,y,-z
1/2-x,1/2+y,z
1/2+x,-y,z
loop_
_atom_site_type_symbol
_atom_site_label
_atom_site_fract_x
_atom_site_fract_y
_atom_site_fract_z
Si Si1 0.419417 0.398363 0.304754
Si Si2 0.173120 0.914651 0.186235
Si Si3 0.331982 0.926726 0.196623
Si Si4 0.419058 0.944521 0.320658
Si Si5 0.578881 0.423665 0.923729
Si Si6 0.919924 0.582075 0.068255
Si Si7 0.415616 0.067169 0.533753
Si Si8 0.084294 0.324674 0.566553
O O1 0.500000 0.378200 0.288233
O O2 0.370887 0.379712 0.243572
O O3 0.414421 0.476081 0.320095
O O4 0.389524 0.356974 0.365894
O O5 0.254668 0.893125 0.193998
O O6 0.137854 0.888501 0.118738
O O7 0.169571 0.994064 0.189991
O O8 0.371125 0.909747 0.264869
O O9 0.372588 0.895496 0.134414
O O10 0.500000 0.921288 0.309233
O O11 0.389589 0.923062 0.391720
O O12 0.500000 0.397550 0.909921
O O13 0.579316 0.503047 0.924459
O O14 0.604191 0.397389 0.994944
O O15 0.000000 0.608381 0.082839
O O16 0.500000 0.062334 0.533653
O O17 0.387441 0.130873 0.493500
O O18 0.384970 0.000000 0.500000
O O19 0.114894 0.250000 0.559584
O O20 0.000000 0.324484 0.565796
#
# Coordination Sequence:
#
# PCOD8281566 Si02
#       8
#    16  16  16  16  16  16  16  16
#     4   9  15  24  38  55  75 103 133 164 202 247
#     4   9  16  23  32  48  72 101 132 168 200 238
#     4   9  16  23  31  49  73 100 131 168 209 236
#     4   9  15  23  38  56  75 101 134 168 203 249
#     4   8  13  21  32  45  67  98 133 168 199 240
#     4   8  13  21  32  46  65  97 137 168 195 236
#     4   9  14  23  39  60  81 102 133 170 206 247
#     4   9  16  25  39  62  87 106 130 169 213 250
#
# _framework density 16.511597999999999
#
# number of rings (size 3 to 8) (size 9 to 14) (size 15 to 20)
#    0.000    3.250    1.250    1.500    0.000    3.500 
#    0.000    2.500    0.000    0.750    0.000    1.750 
#    0.000    0.000    0.000    3.375    0.000   30.000 
#
# Total GULP energy -793097.358640 kJ/mol
# GULP energy per Si atom -12392.146229 kJ/mol
# Density = 1.647402 g / cm^3
# Si number density = 16.511598 Si / 1000 Ang^3
#
#
#
# Elastic Constant Matrix: (Units=GPa)
#
#
# Indices 1 2 3 4 5 6 
#
# 1 88.3332 15.9507 80.4555 0.0000 0.0000 0.0000
# 2 15.9507 29.3782 31.7408 0.0000 0.0000 0.0000
# 3 80.4555 31.7408 184.7863 0.0000 0.0000 0.0000
# 4 0.0000 0.0000 0.0000 7.1067 0.0000 0.0000
# 5 0.0000 0.0000 0.0000 0.0000 8.1724 0.0000
# 6 0.0000 0.0000 0.0000 0.0000 0.0000 3.5808
#
#
#
# Elastic Compliance Matrix: (Units=1/GPa)
#
#
# Indices 1 2 3 4 5 6 
#
# 1 0.018828 -0.001677 -0.007909 0.000000 0.000000 0.000000
# 2 -0.001677 0.041945 -0.006475 0.000000 0.000000 0.000000
# 3 -0.007909 -0.006475 0.009968 0.000000 0.000000 0.000000
# 4 0.000000 0.000000 0.000000 0.140712 0.000000 0.000000
# 5 0.000000 0.000000 0.000000 0.000000 0.122363 0.000000
# 6 0.000000 0.000000 0.000000 0.000000 0.000000 0.279271
#
#
# Mechanical properties :
#
#
# Convention : Reuss Voigt Hill
#
# Bulk Modulus (GPa) = 25.89476 62.08797 43.99136
# Shear Modulus (GPa) = 7.59785 15.39536 11.49661
#
# Velocity S-wave (km/s) = 2.14744 3.05683 2.64156
# Velocity P-wave (km/s) = 4.67606 7.08119 6.00036
#
# Compressibility (1/GPa) = 0.03861785
#
# Stress axis : x y z
#
# Youngs Moduli (GPa) = 53.11337 23.84091 100.32500
#
# Poissons Ratio (x) = 0.03998 0.79352
# Poissons Ratio (y) = 0.08906 0.64958
# Poissons Ratio (z) = 0.42010 0.15436
#
# Static dielectric constant tensor:
#      x y z
#    x 3.017760 0.000000 0.000000 
#    y 0.000000 2.549870 0.000000 
#    z 0.000000 0.000000 3.475940 
# 
# 
# High freq. dielectric constant tensor:
#      x y z
#    x 1.608100 0.000000 0.000000 
#    y 0.000000 1.557010 0.000000 
#    z 0.000000 0.000000 1.657110 
# 
# From -- ./inp_files/39163.got.cif
#   From: 2010.03.12/outbox.cif.g09.slc.cpg/sg67_20_cif.got.tgz:39163.got - 2010.04.10 22:41:39.
