data_PCOD8281556
_publ_section_title
;
Structure prediction by ZEFSAII (Michael W. Deem and Ramdas Pophale) SiO2 
 PCOD8281556
Probable space group: C M M A
;
_chemical_formula_sum "Si O2"
_cell_formula_units_Z 112
_cell_length_a 17.802953
_cell_length_b 13.943780
_cell_length_c 23.999775
_cell_angle_alpha 90.000000
_cell_angle_beta 90.000000
_cell_angle_gamma 90.000000
_cell_volume 5957.715185
_symmetry_space_group_name_H-M "C M M A"
_symmetry_group_IT_number 67
_symmetry_cell_setting 'orthorhombic'
loop_
_space_group_symop_operation_xyz
x,y,z
-x,1/2-y,z
x,-y,-z
-x,1/2+y,-z
-x,-y,-z
x,1/2+y,-z
-x,y,z
x,1/2-y,z
1/2+x,1/2+y,z
1/2-x,-y,z
1/2+x,1/2-y,-z
1/2-x,y,-z
1/2-x,1/2-y,-z
1/2+x,y,-z
1/2-x,1/2+y,z
1/2+x,-y,z
loop_
_atom_site_type_symbol
_atom_site_label
_atom_site_fract_x
_atom_site_fract_y
_atom_site_fract_z
Si Si1 0.911522 0.141898 0.911387
Si Si2 0.410643 0.143785 0.529535
Si Si3 0.167926 0.636198 0.981762
Si Si4 0.410296 0.140110 0.304111
Si Si5 0.410654 0.547459 0.583021
Si Si6 0.912605 0.859002 0.870796
Si Si7 0.087731 0.464158 0.804445
O O1 0.881264 0.250000 0.908278
O O2 0.884765 0.094504 0.969259
O O3 0.876640 0.089364 0.857774
O O4 0.000000 0.136101 0.909849
O O5 0.500000 0.147010 0.528990
O O6 0.378557 0.250000 0.544382
O O7 0.381973 0.112805 0.468204
O O8 0.383593 0.063337 0.574224
O O9 0.163173 0.750000 0.979008
O O10 0.250000 0.599739 0.000000
O O11 0.138357 0.600029 0.921605
O O12 0.500000 0.137816 0.305303
O O13 0.382131 0.250000 0.299271
O O14 0.377369 0.091043 0.359993
O O15 0.377052 0.077229 0.252634
O O16 0.500000 0.549834 0.584836
O O17 0.892432 0.750000 0.855162
O O18 0.000000 0.868812 0.888977
O O19 0.897167 0.922507 0.815147
O O20 0.000000 0.441463 0.801423
#
# Coordination Sequence:
#
# PCOD8281556 Si02
#       7
#    16  16  16  16  16  16  16
#     4   9  16  27  43  61  81 104 128 158 200 246
#     4   8  12  18  27  40  61  89 120 154 193 239
#     4   9  17  29  45  64  84 104 128 162 202 243
#     4   9  15  23  35  50  68  89 117 159 205 240
#     4   8  13  19  28  43  62  87 120 156 198 244
#     4   9  17  30  45  58  76 104 133 161 198 245
#     4   9  17  27  39  55  72  93 126 162 195 237
#
# _framework density 18.799153
#
# number of rings (size 3 to 8) (size 9 to 14) (size 15 to 20)
#    0.000    3.286    0.000    2.143    0.000    5.714 
#    0.000    4.286    0.000    4.286    0.000    0.000 
#    0.000    0.000    0.000    0.000    0.000    0.000 
#
# Total GULP energy -693763.160017 kJ/mol
# GULP energy per Si atom -12388.627857 kJ/mol
# Density = 1.875636 g / cm^3
# Si number density = 18.799153 Si / 1000 Ang^3
#
#
#
# Elastic Constant Matrix: (Units=GPa)
#
#
# Indices 1 2 3 4 5 6 
#
# 1 13.6447 11.6824 13.1329 0.0000 0.0000 0.0000
# 2 11.6824 138.0425 81.7733 0.0000 0.0000 0.0000
# 3 13.1329 81.7733 149.9168 0.0000 0.0000 0.0000
# 4 0.0000 0.0000 0.0000 33.5604 0.0000 0.0000
# 5 0.0000 0.0000 0.0000 0.0000 3.3654 0.0000
# 6 0.0000 0.0000 0.0000 0.0000 0.0000 1.5257
#
#
#
# Elastic Compliance Matrix: (Units=1/GPa)
#
#
# Indices 1 2 3 4 5 6 
#
# 1 0.081462 -0.003940 -0.004987 0.000000 0.000000 0.000000
# 2 -0.003940 0.010893 -0.005596 0.000000 0.000000 0.000000
# 3 -0.004987 -0.005596 0.010160 0.000000 0.000000 0.000000
# 4 0.000000 0.000000 0.000000 0.029797 0.000000 0.000000
# 5 0.000000 0.000000 0.000000 0.000000 0.297145 0.000000
# 6 0.000000 0.000000 0.000000 0.000000 0.000000 0.655436
#
#
# Mechanical properties :
#
#
# Convention : Reuss Voigt Hill
#
# Bulk Modulus (GPa) = 13.61142 57.19790 35.40466
# Shear Modulus (GPa) = 4.39202 20.69132 12.54167
#
# Velocity S-wave (km/s) = 1.53015 3.32121 2.58571
# Velocity P-wave (km/s) = 3.22149 6.72302 5.27148
#
# Compressibility (1/GPa) = 0.07346773
#
# Stress axis : x y z
#
# Youngs Moduli (GPa) = 12.27570 91.80421 98.42652
#
# Poissons Ratio (x) = 0.36168 0.49088
# Poissons Ratio (y) = 0.04836 0.55084
# Poissons Ratio (z) = 0.06122 0.51377
#
# Static dielectric constant tensor:
#      x y z
#    x 2.776350 0.000000 0.000000 
#    y 0.000000 3.754410 0.000000 
#    z 0.000000 0.000000 3.662290 
# 
# 
# High freq. dielectric constant tensor:
#      x y z
#    x 1.650210 0.000000 0.000000 
#    y 0.000000 1.745240 0.000000 
#    z 0.000000 0.000000 1.720020 
# 
# From -- ./inp_files/41929.got.cif
#   From: 2010.03.12/outbox.cif.g09.slc.cpg/sg67_21_cif.got.tgz:41929.got - 2010.04.10 22:41:39.
