data_PCOD8281237
_publ_section_title
;
Structure prediction by ZEFSAII (Michael W. Deem and Ramdas Pophale) SiO2 
 PCOD8281237
Probable space group: C M M A
;
_chemical_formula_sum "Si O2"
_cell_formula_units_Z 92
_cell_length_a 11.488226
_cell_length_b 18.041945
_cell_length_c 21.935535
_cell_angle_alpha 90.000000
_cell_angle_beta 90.000000
_cell_angle_gamma 90.000000
_cell_volume 4546.577059
_symmetry_space_group_name_H-M "C M M A"
_symmetry_group_IT_number 67
_symmetry_cell_setting 'orthorhombic'
loop_
_space_group_symop_operation_xyz
x,y,z
-x,1/2-y,z
x,-y,-z
-x,1/2+y,-z
-x,-y,-z
x,1/2+y,-z
-x,y,z
x,1/2-y,z
1/2+x,1/2+y,z
1/2-x,-y,z
1/2+x,1/2-y,-z
1/2-x,y,-z
1/2-x,1/2-y,-z
1/2+x,y,-z
1/2-x,1/2+y,z
1/2+x,-y,z
loop_
_atom_site_type_symbol
_atom_site_label
_atom_site_fract_x
_atom_site_fract_y
_atom_site_fract_z
Si Si1 0.131261 0.250000 0.540064
Si Si2 0.266680 0.412499 0.069041
Si Si3 0.867916 0.595493 0.399754
Si Si4 0.750000 0.000000 0.500000
Si Si5 0.000000 0.168232 0.761680
Si Si6 0.270631 0.417010 0.273102
Si Si7 0.136668 0.332678 0.176110
Si Si8 0.500000 0.667679 0.901502
O O1 0.250000 0.250000 0.500000
O O2 0.137149 0.181106 0.584637
O O3 0.000000 0.250000 0.506800
O O4 0.250000 0.500000 0.075240
O O5 0.177935 0.376030 0.116394
O O6 0.394266 0.385478 0.083719
O O7 0.250000 0.385524 0.000000
O O8 0.834409 0.549635 0.459290
O O9 0.771546 0.581907 0.346864
O O10 0.000000 0.573622 0.379188
O O11 0.891908 0.117493 0.745947
O O12 0.000000 0.186442 0.831560
O O13 0.000000 0.250000 0.728338
O O14 0.250000 0.500000 0.248519
O O15 0.170799 0.368637 0.241084
O O16 0.190519 0.250000 0.173862
O O17 0.000000 0.329938 0.173593
O O18 0.500000 0.750000 0.934373
#
# Coordination Sequence:
#
# PCOD8281237 Si02
#       8
#     8  16  16   4   8  16  16   8
#     4  10  22  42  66  96 130 174 223 274 335 404
#     4  11  26  43  69 100 137 177 228 286 344 405
#     4  11  24  41  67  96 129 172 222 274 332 400
#     4  12  22  46  64  94 140 170 212 272 342 414
#     4  11  24  42  69  98 134 176 226 289 336 398
#     4  12  25  41  68  99 131 170 225 278 339 404
#     4  11  26  45  65  95 138 180 219 278 350 416
#     4  11  24  43  69 101 130 177 236 280 334 406
#
# _framework density 20.235002000000001
#
# number of rings (size 3 to 8) (size 9 to 14) (size 15 to 20)
#    0.000    0.870    4.348    1.826    6.087    2.087 
#    0.000    0.870    0.000    0.000    0.000    0.000 
#    0.000    0.000    0.000    0.000    0.000    0.000 
#
# Total GULP energy -570067.503338 kJ/mol
# GULP energy per Si atom -12392.771812 kJ/mol
# Density = 2.018895 g / cm^3
# Si number density = 20.235002 Si / 1000 Ang^3
#
#
#
# Elastic Constant Matrix: (Units=GPa)
#
#
# Indices 1 2 3 4 5 6 
#
# 1 100.4101 53.5478 34.2044 0.0000 0.0000 0.0000
# 2 53.5478 158.2827 48.5807 0.0000 0.0000 0.0000
# 3 34.2044 48.5807 131.8388 0.0000 0.0000 0.0000
# 4 0.0000 0.0000 0.0000 21.8113 0.0000 0.0000
# 5 0.0000 0.0000 0.0000 0.0000 7.1720 0.0000
# 6 0.0000 0.0000 0.0000 0.0000 0.0000 28.7544
#
#
#
# Elastic Compliance Matrix: (Units=1/GPa)
#
#
# Indices 1 2 3 4 5 6 
#
# 1 0.012564 -0.003664 -0.001909 0.000000 0.000000 0.000000
# 2 -0.003664 0.008192 -0.002068 0.000000 0.000000 0.000000
# 3 -0.001909 -0.002068 0.008842 0.000000 0.000000 0.000000
# 4 0.000000 0.000000 0.000000 0.045848 0.000000 0.000000
# 5 0.000000 0.000000 0.000000 0.000000 0.139432 0.000000
# 6 0.000000 0.000000 0.000000 0.000000 0.000000 0.034777
#
#
# Mechanical properties :
#
#
# Convention : Reuss Voigt Hill
#
# Bulk Modulus (GPa) = 69.85683 73.68860 71.77271
# Shear Modulus (GPa) = 18.53842 28.49410 23.51626
#
# Velocity S-wave (km/s) = 3.03009 3.75662 3.41274
# Velocity P-wave (km/s) = 6.84395 7.43718 7.14672
#
# Compressibility (1/GPa) = 0.01431499
#
# Stress axis : x y z
#
# Youngs Moduli (GPa) = 79.59430 122.06731 113.09139
#
# Poissons Ratio (x) = 0.44730 0.21592
# Poissons Ratio (y) = 0.29166 0.23388
# Poissons Ratio (z) = 0.15197 0.25244
#
# Static dielectric constant tensor:
#      x y z
#    x 4.068410 0.000000 0.000000 
#    y 0.000000 4.068770 0.000000 
#    z 0.000000 0.000000 4.386900 
# 
# 
# High freq. dielectric constant tensor:
#      x y z
#    x 1.794470 0.000000 0.000000 
#    y 0.000000 1.814170 0.000000 
#    z 0.000000 0.000000 1.792050 
# 
# From -- ./inp_files/37882.got.cif
#   From: 2010.03.12/outbox.cif.g09.slc.cpg/sg67_19_cif.got.tgz:37882.got - 2010.04.10 22:41:39.
