data_PCOD8281156
_publ_section_title
;
Structure prediction by ZEFSAII (Michael W. Deem and Ramdas Pophale) SiO2 
 PCOD8281156
Probable space group: C M M A
;
_chemical_formula_sum "Si O2"
_cell_formula_units_Z 112
_cell_length_a 18.395672
_cell_length_b 19.568594
_cell_length_c 17.572497
_cell_angle_alpha 90.000000
_cell_angle_beta 90.000000
_cell_angle_gamma 90.000000
_cell_volume 6325.702427
_symmetry_space_group_name_H-M "C M M A"
_symmetry_group_IT_number 67
_symmetry_cell_setting 'orthorhombic'
loop_
_space_group_symop_operation_xyz
x,y,z
-x,1/2-y,z
x,-y,-z
-x,1/2+y,-z
-x,-y,-z
x,1/2+y,-z
-x,y,z
x,1/2-y,z
1/2+x,1/2+y,z
1/2-x,-y,z
1/2+x,1/2-y,-z
1/2-x,y,-z
1/2-x,1/2-y,-z
1/2+x,y,-z
1/2-x,1/2+y,z
1/2+x,-y,z
loop_
_atom_site_type_symbol
_atom_site_label
_atom_site_fract_x
_atom_site_fract_y
_atom_site_fract_z
Si Si1 0.701527 0.932501 0.303622
Si Si2 0.917448 0.615818 0.138899
Si Si3 0.915933 0.670539 0.417479
Si Si4 0.824236 0.671134 0.271548
Si Si5 0.917783 0.043329 0.178953
Si Si6 0.914129 0.927123 0.982670
Si Si7 0.330456 0.923844 0.474302
O O1 0.749830 0.870349 0.273845
O O2 0.635396 0.940648 0.246859
O O3 0.664764 0.916178 0.384015
O O4 0.750000 0.000000 0.310075
O O5 0.865308 0.659730 0.192163
O O6 0.911949 0.535988 0.157950
O O7 0.000000 0.642167 0.150369
O O8 0.891122 0.625959 0.050003
O O9 0.902679 0.750000 0.434572
O O10 0.875120 0.646652 0.341038
O O11 0.887336 0.628367 0.489316
O O12 0.000000 0.653859 0.404712
O O13 0.803897 0.750000 0.279520
O O14 0.895205 0.090680 0.105366
O O15 0.000000 0.060995 0.204223
O O16 0.000000 0.935745 0.990440
O O17 0.876635 0.000000 0.000000
O O18 0.250000 0.903216 0.500000
O O19 0.350932 0.000000 0.500000
#
# Coordination Sequence:
#
# PCOD8281156 Si02
#       7
#    16  16  16  16  16  16  16
#     4  12  21  36  57  79 110 146 186 225 270 334
#     4   9  16  29  53  80 109 142 175 218 270 323
#     4  10  22  39  58  81 108 141 184 229 271 325
#     4  11  22  35  53  80 113 149 180 218 276 334
#     4   9  18  32  55  82 107 137 179 228 270 310
#     4   7  12  26  48  76 105 135 173 216 262 312
#     4  11  21  37  55  78 108 143 183 223 272 325
#
# _framework density 17.705544
#
# number of rings (size 3 to 8) (size 9 to 14) (size 15 to 20)
#    0.000    2.143    4.286    2.143    0.000    2.571 
#    0.000    0.714    0.000    2.143    0.000    2.000 
#    0.000    0.000    0.000    0.000    0.000    0.000 
#
# Total GULP energy -694085.647870 kJ/mol
# GULP energy per Si atom -12394.386569 kJ/mol
# Density = 1.766525 g / cm^3
# Si number density = 17.705544 Si / 1000 Ang^3
#
#
#
# Elastic Constant Matrix: (Units=GPa)
#
#
# Indices 1 2 3 4 5 6 
#
# 1 45.7040 8.3892 16.4163 0.0000 0.0000 0.0000
# 2 8.3892 33.2352 2.7005 0.0000 0.0000 0.0000
# 3 16.4163 2.7005 102.7530 0.0000 0.0000 0.0000
# 4 0.0000 0.0000 0.0000 23.3093 0.0000 0.0000
# 5 0.0000 0.0000 0.0000 0.0000 28.7906 0.0000
# 6 0.0000 0.0000 0.0000 0.0000 0.0000 29.1417
#
#
#
# Elastic Compliance Matrix: (Units=1/GPa)
#
#
# Indices 1 2 3 4 5 6 
#
# 1 0.024288 -0.005828 -0.003727 0.000000 0.000000 0.000000
# 2 -0.005828 0.031551 0.000102 0.000000 0.000000 0.000000
# 3 -0.003727 0.000102 0.010325 0.000000 0.000000 0.000000
# 4 0.000000 0.000000 0.000000 0.042901 0.000000 0.000000
# 5 0.000000 0.000000 0.000000 0.000000 0.034734 0.000000
# 6 0.000000 0.000000 0.000000 0.000000 0.000000 0.034315
#
#
# Mechanical properties :
#
#
# Convention : Reuss Voigt Hill
#
# Bulk Modulus (GPa) = 21.16046 26.30048 23.73047
# Shear Modulus (GPa) = 23.49910 26.52740 25.01325
#
# Velocity S-wave (km/s) = 3.64705 3.87493 3.76272
# Velocity P-wave (km/s) = 5.45086 5.90819 5.68413
#
# Compressibility (1/GPa) = 0.04725795
#
# Stress axis : x y z
#
# Youngs Moduli (GPa) = 41.17185 31.69434 96.85340
#
# Poissons Ratio (x) = 0.18471 0.36100
# Poissons Ratio (y) = 0.23995 -0.00987
# Poissons Ratio (z) = 0.15346 -0.00323
#
# Static dielectric constant tensor:
#      x y z
#    x 3.111920 0.000000 0.000000 
#    y 0.000000 3.029630 0.000000 
#    z 0.000000 0.000000 3.852220 
# 
# 
# High freq. dielectric constant tensor:
#      x y z
#    x 1.666700 0.000000 0.000000 
#    y 0.000000 1.652350 0.000000 
#    z 0.000000 0.000000 1.703100 
# 
# From -- ./inp_files/34434.got.cif
#   From: 2010.03.12/outbox.cif.g09.slc.cpg/sg67_18_cif.got.tgz:34434.got - 2010.04.10 22:41:39.
