data_PCOD8281273
_publ_section_title
;
Structure prediction by ZEFSAII (Michael W. Deem and Ramdas Pophale) SiO2 
 PCOD8281273
Probable space group: C M M A
;
_chemical_formula_sum "Si O2"
_cell_formula_units_Z 40
_cell_length_a 9.478310
_cell_length_b 26.886431
_cell_length_c 6.790555
_cell_angle_alpha 90.000000
_cell_angle_beta 90.000000
_cell_angle_gamma 90.000000
_cell_volume 1730.490965
_symmetry_space_group_name_H-M "C M M A"
_symmetry_group_IT_number 67
_symmetry_cell_setting 'orthorhombic'
loop_
_space_group_symop_operation_xyz
x,y,z
-x,1/2-y,z
x,-y,-z
-x,1/2+y,-z
-x,-y,-z
x,1/2+y,-z
-x,y,z
x,1/2-y,z
1/2+x,1/2+y,z
1/2-x,-y,z
1/2+x,1/2-y,-z
1/2-x,y,-z
1/2-x,1/2-y,-z
1/2+x,y,-z
1/2-x,1/2+y,z
1/2+x,-y,z
loop_
_atom_site_type_symbol
_atom_site_label
_atom_site_fract_x
_atom_site_fract_y
_atom_site_fract_z
Si Si1 0.750000 0.623741 0.000000
Si Si2 0.662750 0.048323 0.310453
Si Si3 0.843546 0.694307 0.675956
O O1 0.845191 0.589345 0.139816
O O2 0.654072 0.659204 0.133686
O O3 0.500000 0.034997 0.365036
O O4 0.750000 0.068630 0.500000
O O5 0.750000 0.000000 0.235710
O O6 0.791015 0.750000 0.733425
O O7 0.750000 0.671839 0.500000
O O8 0.000000 0.696323 0.589850
#
# Coordination Sequence:
#
# PCOD8281273 Si02
#       3
#     8  16  16
#     4  12  24  38  66  98 126 162 210 260 312 368
#     4  11  25  44  66  92 126 166 208 257 313 373
#     4  10  23  43  65  92 128 168 210 257 310 369
#
# _framework density 23.114829
#
# number of rings (size 3 to 8) (size 9 to 14) (size 15 to 20)
#    0.000    1.200    0.000    6.000    0.000   14.400 
#    0.000    4.000    0.000    0.000    0.000    0.000 
#    0.000    0.000    0.000    0.000    0.000    0.000 
#
# Total GULP energy -247888.420561 kJ/mol
# GULP energy per Si atom -12394.421028 kJ/mol
# Density = 2.306222 g / cm^3
# Si number density = 23.114829 Si / 1000 Ang^3
#
#
#
# Elastic Constant Matrix: (Units=GPa)
#
#
# Indices 1 2 3 4 5 6 
#
# 1 168.5273 46.8850 54.8576 0.0000 0.0000 0.0000
# 2 46.8850 124.7414 85.2309 0.0000 0.0000 0.0000
# 3 54.8576 85.2309 149.2265 0.0000 0.0000 0.0000
# 4 0.0000 0.0000 0.0000 60.3628 0.0000 0.0000
# 5 0.0000 0.0000 0.0000 0.0000 26.8885 0.0000
# 6 0.0000 0.0000 0.0000 0.0000 0.0000 117.5914
#
#
#
# Elastic Compliance Matrix: (Units=1/GPa)
#
#
# Indices 1 2 3 4 5 6 
#
# 1 0.006888 -0.001408 -0.001728 0.000000 0.000000 0.000000
# 2 -0.001408 0.013435 -0.007156 0.000000 0.000000 0.000000
# 3 -0.001728 -0.007156 0.011423 0.000000 0.000000 0.000000
# 4 0.000000 0.000000 0.000000 0.016566 0.000000 0.000000
# 5 0.000000 0.000000 0.000000 0.000000 0.037191 0.000000
# 6 0.000000 0.000000 0.000000 0.000000 0.000000 0.008504
#
#
# Mechanical properties :
#
#
# Convention : Reuss Voigt Hill
#
# Bulk Modulus (GPa) = 89.58351 90.71578 90.14964
# Shear Modulus (GPa) = 42.26099 58.00333 50.13216
#
# Velocity S-wave (km/s) = 4.28051 5.01478 4.66212
# Velocity P-wave (km/s) = 7.95427 8.53590 8.25021
#
# Compressibility (1/GPa) = 0.01116277
#
# Stress axis : x y z
#
# Youngs Moduli (GPa) = 145.18070 74.43130 87.53987
#
# Poissons Ratio (x) = 0.10483 0.15124
# Poissons Ratio (y) = 0.20448 0.62642
# Poissons Ratio (z) = 0.25082 0.53261
#
# Static dielectric constant tensor:
#      x y z
#    x 3.870220 0.000000 0.000000 
#    y 0.000000 4.331580 0.000000 
#    z 0.000000 0.000000 4.075430 
# 
# 
# High freq. dielectric constant tensor:
#      x y z
#    x 1.904180 0.000000 0.000000 
#    y 0.000000 1.930680 0.000000 
#    z 0.000000 0.000000 1.910100 
# 
# From -- ./inp_files/5543.got.cif
#   From: 2010.03.12/outbox.cif.g09.slc.cpg/sg67_3_cif.got.tgz:5543.got - 2010.04.10 22:41:39.
