data_PCOD8281931
_publ_section_title
;
Structure prediction by ZEFSAII (Michael W. Deem and Ramdas Pophale) SiO2 
 PCOD8281931
Probable space group: C C C A
;
_chemical_formula_sum "Si O2"
_cell_formula_units_Z 72
_cell_length_a 12.149313
_cell_length_b 8.980031
_cell_length_c 31.517061
_cell_angle_alpha 90.000000
_cell_angle_beta 90.000000
_cell_angle_gamma 90.000000
_cell_volume 3438.549408
_symmetry_space_group_name_H-M "C C C A"
_symmetry_group_IT_number 68
_space_group.IT_coordinate_system_code '2'
_symmetry_cell_setting 'orthorhombic'
loop_
_space_group_symop_operation_xyz
x,y,z
-x,1/2-y,z
x,1/2-y,1/2-z
-x,y,1/2-z
-x,-y,-z
x,1/2+y,-z
-x,1/2+y,1/2+z
x,-y,1/2+z
1/2+x,1/2+y,z
1/2-x,-y,z
1/2+x,-y,1/2-z
1/2-x,1/2+y,1/2-z
1/2-x,1/2-y,-z
1/2+x,y,-z
1/2-x,y,1/2+z
1/2+x,1/2-y,1/2+z
loop_
_atom_site_type_symbol
_atom_site_label
_atom_site_fract_x
_atom_site_fract_y
_atom_site_fract_z
Si Si1 0.336135 0.634960 0.857718
Si Si2 0.004152 0.509703 0.796932
Si Si3 0.679246 0.773445 0.203705
Si Si4 0.624495 0.230441 0.452356
Si Si5 0.250000 0.500000 0.007987
O O1 0.250000 0.500000 0.862337
O O2 0.451690 0.599014 0.833831
O O3 0.275575 0.761662 0.830594
O O4 0.366895 0.699318 0.902859
O O5 0.087581 0.646652 0.797884
O O6 0.000000 0.435032 0.750000
O O7 0.880033 0.568363 0.805612
O O8 0.734660 0.750000 0.250000
O O9 0.500000 0.250000 0.466750
O O10 0.688567 0.382483 0.462130
O O11 0.666479 0.088209 0.478091
#
# Coordination Sequence:
#
# PCOD8281931 Si02
#       5
#    16  16  16  16   8
#     4  10  19  34  58  89 123 156 201 256 300 361
#     4   8  15  30  52  78 113 161 205 244 295 351
#     4   8  15  30  51  77 115 162 203 241 295 354
#     4  11  23  43  67  96 124 160 206 257 315 383
#     4  10  24  46  70  90 124 166 202 258 330 378
#
# _framework density 20.939062
#
# number of rings (size 3 to 8) (size 9 to 14) (size 15 to 20)
#    0.000    2.667    1.111    2.000    0.000    1.778 
#    4.000    0.000    2.444    0.000    0.000    0.000 
#    0.000    0.000    0.000    0.000    0.000    0.000 
#
# Total GULP energy -446191.589254 kJ/mol
# GULP energy per Si atom -12394.210813 kJ/mol
# Density = 2.089140 g / cm^3
# Si number density = 20.939062 Si / 1000 Ang^3
#
#
#
# Elastic Constant Matrix: (Units=GPa)
#
#
# Indices 1 2 3 4 5 6 
#
# 1 108.8506 45.1637 65.9158 0.0000 0.0000 0.0000
# 2 45.1637 92.3172 68.4619 0.0000 0.0000 0.0000
# 3 65.9158 68.4619 168.8144 0.0000 0.0000 0.0000
# 4 0.0000 0.0000 0.0000 -5.1128 0.0000 0.0000
# 5 0.0000 0.0000 0.0000 0.0000 -18.4092 0.0000
# 6 0.0000 0.0000 0.0000 0.0000 0.0000 22.9344
#
#
#
# Elastic Compliance Matrix: (Units=1/GPa)
#
#
# Indices 1 2 3 4 5 6 
#
# 1 0.012845 -0.003668 -0.003528 0.000000 0.000000 0.000000
# 2 -0.003668 0.016538 -0.005275 0.000000 0.000000 0.000000
# 3 -0.003528 -0.005275 0.009441 0.000000 0.000000 0.000000
# 4 0.000000 0.000000 0.000000 -0.195588 0.000000 0.000000
# 5 0.000000 0.000000 0.000000 0.000000 -0.054321 0.000000
# 6 0.000000 0.000000 0.000000 0.000000 0.000000 0.043603
#
#
# Mechanical properties :
#
#
# Convention : Reuss Voigt Hill
#
# Bulk Modulus (GPa) = 72.03328 81.00722 76.52025
# Shear Modulus (GPa) = -36.25482 12.57853 -11.83815
#
# Velocity S-wave (km/s) = -4.16558 2.45362 -2.38031
# Velocity P-wave (km/s) = 3.36750 6.84091 5.39157
#
# Compressibility (1/GPa) = 0.01388247
#
# Stress axis : x y z
#
# Youngs Moduli (GPa) = 77.85001 60.46519 105.92630
#
# Poissons Ratio (x) = 0.22177 0.37372
# Poissons Ratio (y) = 0.28553 0.55876
# Poissons Ratio (z) = 0.27467 0.31895
#
# Static dielectric constant tensor:
#      x y z
#    x 4.050380 0.000000 0.000000 
#    y 0.000000 3.856760 0.000000 
#    z 0.000000 0.000000 3.754050 
# 
# 
# High freq. dielectric constant tensor:
#      x y z
#    x 1.827350 0.000000 0.000000 
#    y 0.000000 1.814700 0.000000 
#    z 0.000000 0.000000 1.813470 
# 
# From -- ./inp_files/50736.got.cif
#   From: 2010.03.12/outbox.cif.g09.slc.cpg/sg68_26_cif.got.tgz:50736.got - 2010.04.10 23:14:56.
