data_PCOD8281071
_publ_section_title
;
Structure prediction by ZEFSAII (Michael W. Deem and Ramdas Pophale) SiO2 
 PCOD8281071
Probable space group: C M M A
;
_chemical_formula_sum "Si O2"
_cell_formula_units_Z 112
_cell_length_a 26.618140
_cell_length_b 16.106938
_cell_length_c 11.935326
_cell_angle_alpha 90.000000
_cell_angle_beta 90.000000
_cell_angle_gamma 90.000000
_cell_volume 5117.112649
_symmetry_space_group_name_H-M "C M M A"
_symmetry_group_IT_number 67
_symmetry_cell_setting 'orthorhombic'
loop_
_space_group_symop_operation_xyz
x,y,z
-x,1/2-y,z
x,-y,-z
-x,1/2+y,-z
-x,-y,-z
x,1/2+y,-z
-x,y,z
x,1/2-y,z
1/2+x,1/2+y,z
1/2-x,-y,z
1/2+x,1/2-y,-z
1/2-x,y,-z
1/2-x,1/2-y,-z
1/2+x,y,-z
1/2-x,1/2+y,z
1/2+x,-y,z
loop_
_atom_site_type_symbol
_atom_site_label
_atom_site_fract_x
_atom_site_fract_y
_atom_site_fract_z
Si Si1 0.698502 0.346794 0.451703
Si Si2 0.627997 0.345075 0.653905
Si Si3 0.786146 0.428299 0.775285
Si Si4 0.058020 0.995403 0.630308
Si Si5 0.195027 0.657299 0.868406
Si Si6 0.370709 0.576448 0.941081
Si Si7 0.058497 0.155771 0.773938
O O1 0.705829 0.250000 0.435690
O O2 0.750000 0.385529 0.500000
O O3 0.652303 0.366998 0.533659
O O4 0.687930 0.382917 0.329151
O O5 0.605872 0.250000 0.653462
O O6 0.586316 0.414977 0.681295
O O7 0.671257 0.352514 0.745434
O O8 0.750000 0.500000 0.729332
O O9 0.752601 0.372374 0.858482
O O10 0.832935 0.461705 0.847449
O O11 0.000000 0.978192 0.654176
O O12 0.070047 0.000000 0.500000
O O13 0.073772 0.084278 0.684644
O O14 0.198014 0.750000 0.908694
O O15 0.162258 0.615669 0.962724
O O16 0.410287 0.640567 0.888013
O O17 0.400374 0.500000 0.000000
O O18 0.070601 0.250000 0.729210
O O19 0.000000 0.149341 0.804057
#
# Coordination Sequence:
#
# PCOD8281071 Si02
#       7
#    16  16  16  16  16  16  16
#     4  10  21  40  62  89 129 174 221 270 325 396
#     4  10  22  41  66  96 133 176 222 277 337 403
#     4  12  25  39  60  92 131 173 220 272 329 395
#     4  10  23  42  66  97 133 172 219 278 343 410
#     4  11  23  41  62  89 129 172 214 267 326 392
#     4  12  25  42  66  96 132 171 225 279 335 403
#     4  10  24  47  72 100 135 177 231 291 350 414
#
# _framework density 21.887343000000001
#
# number of rings (size 3 to 8) (size 9 to 14) (size 15 to 20)
#    0.000    1.286    2.857    2.143    2.000    4.286 
#    0.000    2.143    0.000    0.857    0.000    0.000 
#    0.000    0.571    0.000    0.000    0.000    0.000 
#
# Total GULP energy -694171.501477 kJ/mol
# GULP energy per Si atom -12395.919669 kJ/mol
# Density = 2.183753 g / cm^3
# Si number density = 21.887343 Si / 1000 Ang^3
#
#
#
# Elastic Constant Matrix: (Units=GPa)
#
#
# Indices 1 2 3 4 5 6 
#
# 1 68.0889 51.5007 31.4452 0.0000 0.0000 0.0000
# 2 51.5007 138.2989 51.7906 0.0000 0.0000 0.0000
# 3 31.4452 51.7906 101.1290 0.0000 0.0000 0.0000
# 4 0.0000 0.0000 0.0000 30.0957 0.0000 0.0000
# 5 0.0000 0.0000 0.0000 0.0000 31.8686 0.0000
# 6 0.0000 0.0000 0.0000 0.0000 0.0000 35.8388
#
#
#
# Elastic Compliance Matrix: (Units=1/GPa)
#
#
# Indices 1 2 3 4 5 6 
#
# 1 0.021231 -0.006723 -0.003158 0.000000 0.000000 0.000000
# 2 -0.006723 0.011076 -0.003582 0.000000 0.000000 0.000000
# 3 -0.003158 -0.003582 0.012705 0.000000 0.000000 0.000000
# 4 0.000000 0.000000 0.000000 0.033227 0.000000 0.000000
# 5 0.000000 0.000000 0.000000 0.000000 0.031379 0.000000
# 6 0.000000 0.000000 0.000000 0.000000 0.000000 0.027903
#
#
# Mechanical properties :
#
#
# Convention : Reuss Voigt Hill
#
# Bulk Modulus (GPa) = 55.29586 64.10998 59.70292
# Shear Modulus (GPa) = 29.32998 31.07931 30.20464
#
# Velocity S-wave (km/s) = 3.66463 3.77233 3.71887
# Velocity P-wave (km/s) = 6.57455 6.95187 6.76584
#
# Compressibility (1/GPa) = 0.01808454
#
# Stress axis : x y z
#
# Youngs Moduli (GPa) = 47.10191 90.28872 78.71161
#
# Poissons Ratio (x) = 0.60703 0.24860
# Poissons Ratio (y) = 0.31668 0.28191
# Poissons Ratio (z) = 0.14876 0.32337
#
# Static dielectric constant tensor:
#      x y z
#    x 3.823080 0.000000 0.000000 
#    y 0.000000 4.256120 0.000000 
#    z 0.000000 0.000000 4.074390 
# 
# 
# High freq. dielectric constant tensor:
#      x y z
#    x 1.848700 0.000000 0.000000 
#    y 0.000000 1.873140 0.000000 
#    z 0.000000 0.000000 1.863990 
# 
# From -- ./inp_files/23812.got.cif
#   From: 2010.03.12/outbox.cif.g09.slc.cpg/sg67_12_cif.got.tgz:23812.got - 2010.04.10 22:41:39.
