data_PCOD8281501
_publ_section_title
;
Structure prediction by ZEFSAII (Michael W. Deem and Ramdas Pophale) SiO2 
 PCOD8281501
Probable space group: C M M A
;
_chemical_formula_sum "Si O2"
_cell_formula_units_Z 72
_cell_length_a 14.284729
_cell_length_b 26.002327
_cell_length_c 9.573292
_cell_angle_alpha 90.000000
_cell_angle_beta 90.000000
_cell_angle_gamma 90.000000
_cell_volume 3555.867150
_symmetry_space_group_name_H-M "C M M A"
_symmetry_group_IT_number 67
_symmetry_cell_setting 'orthorhombic'
loop_
_space_group_symop_operation_xyz
x,y,z
-x,1/2-y,z
x,-y,-z
-x,1/2+y,-z
-x,-y,-z
x,1/2+y,-z
-x,y,z
x,1/2-y,z
1/2+x,1/2+y,z
1/2-x,-y,z
1/2+x,1/2-y,-z
1/2-x,y,-z
1/2-x,1/2-y,-z
1/2+x,y,-z
1/2-x,1/2+y,z
1/2+x,-y,z
loop_
_atom_site_type_symbol
_atom_site_label
_atom_site_fract_x
_atom_site_fract_y
_atom_site_fract_z
Si Si1 0.000000 0.537412 0.869199
Si Si2 0.304647 0.854938 0.369832
Si Si3 0.500000 0.307659 0.703544
Si Si4 0.156677 0.527642 0.640935
Si Si5 0.000000 0.151282 0.001501
Si Si6 0.816074 0.307829 0.869455
O O1 0.911684 0.525985 0.772257
O O2 0.000000 0.500000 0.000000
O O3 0.000000 0.595257 0.927379
O O4 0.250000 0.829903 0.500000
O O5 0.408565 0.833395 0.359368
O O6 0.316478 0.914814 0.397066
O O7 0.241907 0.842477 0.236800
O O8 0.500000 0.250000 0.651040
O O9 0.500000 0.308210 0.871893
O O10 0.116319 0.500000 0.500000
O O11 0.250000 0.500000 0.692831
O O12 0.909750 0.160574 0.905285
O O13 0.839708 0.250000 0.813000
O O14 0.750000 0.301321 0.000000
#
# Coordination Sequence:
#
# PCOD8281501 Si02
#       6
#     8  16   8  16   8  16
#     4  12  27  42  69 107 137 173 228 296 341 411
#     4  12  25  45  71 104 138 181 235 290 345 414
#     4  12  24  44  71  96 139 186 228 283 351 414
#     4  11  23  46  71  96 135 187 230 275 349 423
#     4  12  24  44  69  99 139 183 232 279 346 417
#     4  11  23  41  69  99 135 180 231 284 344 416
#
# _framework density 20.248224
#
# number of rings (size 3 to 8) (size 9 to 14) (size 15 to 20)
#    0.000    0.444    6.667    2.000    3.111    3.111 
#    0.000    0.000    0.000    0.000    0.000    0.000 
#    0.000    0.000    0.000    0.000    0.000    0.000 
#
# Total GULP energy -446364.715862 kJ/mol
# GULP energy per Si atom -12399.019885 kJ/mol
# Density = 2.020214 g / cm^3
# Si number density = 20.248224 Si / 1000 Ang^3
#
#
#
# Elastic Constant Matrix: (Units=GPa)
#
#
# Indices 1 2 3 4 5 6 
#
# 1 186.4426 61.8415 69.5902 0.0000 0.0000 0.0000
# 2 61.8415 147.3253 55.4515 0.0000 0.0000 0.0000
# 3 69.5902 55.4515 122.5162 0.0000 0.0000 0.0000
# 4 0.0000 0.0000 0.0000 38.3045 0.0000 0.0000
# 5 0.0000 0.0000 0.0000 0.0000 -107.9978 0.0000
# 6 0.0000 0.0000 0.0000 0.0000 0.0000 99.2453
#
#
#
# Elastic Compliance Matrix: (Units=1/GPa)
#
#
# Indices 1 2 3 4 5 6 
#
# 1 0.007175 -0.001781 -0.003269 0.000000 0.000000 0.000000
# 2 -0.001781 0.008624 -0.002891 0.000000 0.000000 0.000000
# 3 -0.003269 -0.002891 0.011328 0.000000 0.000000 0.000000
# 4 0.000000 0.000000 0.000000 0.026107 0.000000 0.000000
# 5 0.000000 0.000000 0.000000 0.000000 -0.009259 0.000000
# 6 0.000000 0.000000 0.000000 0.000000 0.000000 0.010076
#
#
# Mechanical properties :
#
#
# Convention : Reuss Voigt Hill
#
# Bulk Modulus (GPa) = 88.94668 92.22783 90.58726
# Shear Modulus (GPa) = 67.86112 23.87046 45.86579
#
# Velocity S-wave (km/s) = 5.79546 3.43722 4.76455
# Velocity P-wave (km/s) = 9.42373 7.83583 8.66622
#
# Compressibility (1/GPa) = 0.01124269
#
# Stress axis : x y z
#
# Youngs Moduli (GPa) = 139.38142 115.96013 88.27927
#
# Poissons Ratio (x) = 0.20655 0.28859
# Poissons Ratio (y) = 0.24826 0.25525
# Poissons Ratio (z) = 0.45564 0.33529
#
# Static dielectric constant tensor:
#      x y z
#    x 3.960610 0.000000 0.000000 
#    y 0.000000 3.631410 0.000000 
#    z 0.000000 0.000000 3.667020 
# 
# 
# High freq. dielectric constant tensor:
#      x y z
#    x 1.808690 0.000000 0.000000 
#    y 0.000000 1.803910 0.000000 
#    z 0.000000 0.000000 1.789220 
# 
# From -- ./inp_files/8345.got.cif
#   From: 2010.03.12/outbox.cif.g09.slc.cpg/sg67_5_cif.got.tgz:8345.got - 2010.04.10 22:41:39.
