data_PCOD8281354
_publ_section_title
;
Structure prediction by ZEFSAII (Michael W. Deem and Ramdas Pophale) SiO2 
 PCOD8281354
Probable space group: C M M A
;
_chemical_formula_sum "Si O2"
_cell_formula_units_Z 96
_cell_length_a 22.047791
_cell_length_b 17.355076
_cell_length_c 13.497113
_cell_angle_alpha 90.000000
_cell_angle_beta 90.000000
_cell_angle_gamma 90.000000
_cell_volume 5164.550009
_symmetry_space_group_name_H-M "C M M A"
_symmetry_group_IT_number 67
_symmetry_cell_setting 'orthorhombic'
loop_
_space_group_symop_operation_xyz
x,y,z
-x,1/2-y,z
x,-y,-z
-x,1/2+y,-z
-x,-y,-z
x,1/2+y,-z
-x,y,z
x,1/2-y,z
1/2+x,1/2+y,z
1/2-x,-y,z
1/2+x,1/2-y,-z
1/2-x,y,-z
1/2-x,1/2-y,-z
1/2+x,y,-z
1/2-x,1/2+y,z
1/2+x,-y,z
loop_
_atom_site_type_symbol
_atom_site_label
_atom_site_fract_x
_atom_site_fract_y
_atom_site_fract_z
Si Si1 0.427803 0.990659 0.614147
Si Si2 0.239098 0.159877 0.114122
Si Si3 0.366732 0.607190 0.872810
Si Si4 0.432788 0.338837 0.942656
Si Si5 0.429711 0.667475 0.695468
Si Si6 0.870734 0.563368 0.799466
O O1 0.500000 0.001354 0.636222
O O2 0.387343 0.047666 0.683496
O O3 0.412037 0.000000 0.500000
O O4 0.403922 0.903877 0.633370
O O5 0.221295 0.250000 0.119484
O O6 0.303534 0.142982 0.165456
O O7 0.191022 0.110626 0.178627
O O8 0.250000 0.132614 0.000000
O O9 0.419254 0.649424 0.811025
O O10 0.367361 0.515940 0.859666
O O11 0.380123 0.628363 0.986639
O O12 0.500000 0.352069 0.986326
O O13 0.419878 0.250000 0.921063
O O14 0.426453 0.385696 0.840504
O O15 0.500000 0.674340 0.675473
O O16 0.399587 0.750000 0.665633
#
# Coordination Sequence:
#
# PCOD8281354 Si02
#       6
#    16  16  16  16  16  16
#     4   9  19  37  59  83 112 144 184 241 301 349
#     4  11  22  36  54  76 111 153 192 229 275 340
#     4  11  21  33  53  77 107 145 186 227 274 333
#     4  11  22  34  49  75 113 150 183 225 280 343
#     4   9  17  31  53  80 106 135 177 227 282 345
#     4  11  22  35  55  80 107 144 190 235 282 339
#
# _framework density 18.588260999999999
#
# number of rings (size 3 to 8) (size 9 to 14) (size 15 to 20)
#    0.000    1.667    1.667    4.000    0.000    4.667 
#    0.000    1.667    0.000   12.000    0.000    5.833 
#    0.000    0.000    0.000    0.000    0.000    0.000 
#
# Total GULP energy -594786.892102 kJ/mol
# GULP energy per Si atom -12391.393585 kJ/mol
# Density = 1.854595 g / cm^3
# Si number density = 18.588261 Si / 1000 Ang^3
#
#
#
# Elastic Constant Matrix: (Units=GPa)
#
#
# Indices 1 2 3 4 5 6 
#
# 1 83.8443 46.6512 34.4854 0.0000 0.0000 0.0000
# 2 46.6512 131.9281 62.8951 0.0000 0.0000 0.0000
# 3 34.4854 62.8951 115.9001 0.0000 0.0000 0.0000
# 4 0.0000 0.0000 0.0000 13.6137 0.0000 0.0000
# 5 0.0000 0.0000 0.0000 0.0000 21.2396 0.0000
# 6 0.0000 0.0000 0.0000 0.0000 0.0000 30.4264
#
#
#
# Elastic Compliance Matrix: (Units=1/GPa)
#
#
# Indices 1 2 3 4 5 6 
#
# 1 0.015243 -0.004354 -0.002173 0.000000 0.000000 0.000000
# 2 -0.004354 0.011469 -0.004928 0.000000 0.000000 0.000000
# 3 -0.002173 -0.004928 0.011949 0.000000 0.000000 0.000000
# 4 0.000000 0.000000 0.000000 0.073455 0.000000 0.000000
# 5 0.000000 0.000000 0.000000 0.000000 0.047082 0.000000
# 6 0.000000 0.000000 0.000000 0.000000 0.000000 0.032866
#
#
# Mechanical properties :
#
#
# Convention : Reuss Voigt Hill
#
# Bulk Modulus (GPa) = 63.48866 68.85956 66.17411
# Shear Modulus (GPa) = 22.70402 25.56535 24.13469
#
# Velocity S-wave (km/s) = 3.49867 3.71259 3.60722
# Velocity P-wave (km/s) = 7.10987 7.45002 7.28194
#
# Compressibility (1/GPa) = 0.01575085
#
# Stress axis : x y z
#
# Youngs Moduli (GPa) = 65.60275 87.19031 83.68930
#
# Poissons Ratio (x) = 0.37967 0.18182
# Poissons Ratio (y) = 0.28566 0.41245
# Poissons Ratio (z) = 0.14252 0.42970
#
# Static dielectric constant tensor:
#      x y z
#    x 3.454530 0.000000 0.000000 
#    y 0.000000 3.951110 0.000000 
#    z 0.000000 0.000000 3.161580 
# 
# 
# High freq. dielectric constant tensor:
#      x y z
#    x 1.718870 0.000000 0.000000 
#    y 0.000000 1.740000 0.000000 
#    z 0.000000 0.000000 1.683150 
# 
# From -- ./inp_files/21924.got.cif
#   From: 2010.03.12/outbox.cif.g09.slc.cpg/sg67_11_cif.got.tgz:21924.got - 2010.04.10 22:41:39.
