data_PCOD8281343
_publ_section_title
;
Structure prediction by ZEFSAII (Michael W. Deem and Ramdas Pophale) SiO2 
 PCOD8281343
Probable space group: C M M A
;
_chemical_formula_sum "Si O2"
_cell_formula_units_Z 48
_cell_length_a 7.559654
_cell_length_b 18.123967
_cell_length_c 19.114992
_cell_angle_alpha 90.000000
_cell_angle_beta 90.000000
_cell_angle_gamma 90.000000
_cell_volume 2618.962633
_symmetry_space_group_name_H-M "C M M A"
_symmetry_group_IT_number 67
_symmetry_cell_setting 'orthorhombic'
loop_
_space_group_symop_operation_xyz
x,y,z
-x,1/2-y,z
x,-y,-z
-x,1/2+y,-z
-x,-y,-z
x,1/2+y,-z
-x,y,z
x,1/2-y,z
1/2+x,1/2+y,z
1/2-x,-y,z
1/2+x,1/2-y,-z
1/2-x,y,-z
1/2-x,1/2-y,-z
1/2+x,y,-z
1/2-x,1/2+y,z
1/2+x,-y,z
loop_
_atom_site_type_symbol
_atom_site_label
_atom_site_fract_x
_atom_site_fract_y
_atom_site_fract_z
Si Si1 0.196477 0.337796 0.575985
Si Si2 0.294929 0.415381 0.079344
Si Si3 0.500000 0.837901 0.323902
Si Si4 0.000000 0.337415 0.165980
O O1 0.206687 0.250000 0.573308
O O2 0.250000 0.369407 0.500000
O O3 0.327634 0.368375 0.635511
O O4 0.000000 0.364997 0.595252
O O5 0.500000 0.399612 0.095060
O O6 0.250000 0.500000 0.094041
O O7 0.178099 0.364961 0.129352
O O8 0.250000 0.394288 0.000000
O O9 0.500000 0.750000 0.323623
O O10 0.500000 0.868232 0.245104
O O11 0.000000 0.250000 0.163873
#
# Coordination Sequence:
#
# PCOD8281343 Si02
#       4
#    16  16   8   8
#     4   9  14  22  40  62  87 132 182 214 254 321
#     4  11  20  39  65  85 107 148 197 237 275 329
#     4   9  18  30  41  65 109 140 167 221 281 324
#     4  11  24  37  53  87 124 149 179 235 294 335
#
# _framework density 18.327867000000001
#
# number of rings (size 3 to 8) (size 9 to 14) (size 15 to 20)
#    0.000    2.000    5.000    1.000    0.000    2.667 
#    0.000    3.333    0.000    0.000    0.000    0.000 
#    0.000    4.000    0.000    0.000    0.000    0.000 
#
# Total GULP energy -297581.174105 kJ/mol
# GULP energy per Si atom -12399.215588 kJ/mol
# Density = 1.828615 g / cm^3
# Si number density = 18.327867 Si / 1000 Ang^3
#
#
#
# Elastic Constant Matrix: (Units=GPa)
#
#
# Indices 1 2 3 4 5 6 
#
# 1 211.6559 31.7711 93.3766 0.0000 0.0000 0.0000
# 2 31.7711 29.4821 46.1150 0.0000 0.0000 0.0000
# 3 93.3766 46.1150 159.8610 0.0000 0.0000 0.0000
# 4 0.0000 0.0000 0.0000 5.7396 0.0000 0.0000
# 5 0.0000 0.0000 0.0000 0.0000 37.8894 0.0000
# 6 0.0000 0.0000 0.0000 0.0000 0.0000 13.5296
#
#
#
# Elastic Compliance Matrix: (Units=1/GPa)
#
#
# Indices 1 2 3 4 5 6 
#
# 1 0.006424 -0.001920 -0.003199 0.000000 0.000000 0.000000
# 2 -0.001920 0.062381 -0.016874 0.000000 0.000000 0.000000
# 3 -0.003199 -0.016874 0.012991 0.000000 0.000000 0.000000
# 4 0.000000 0.000000 0.000000 0.174227 0.000000 0.000000
# 5 0.000000 0.000000 0.000000 0.000000 0.026393 0.000000
# 6 0.000000 0.000000 0.000000 0.000000 0.000000 0.073912
#
#
# Mechanical properties :
#
#
# Convention : Reuss Voigt Hill
#
# Bulk Modulus (GPa) = 26.44635 82.61382 54.53009
# Shear Modulus (GPa) = 12.10901 26.74746 19.42824
#
# Velocity S-wave (km/s) = 2.57317 3.82434 3.25935
# Velocity P-wave (km/s) = 4.82589 8.04202 6.63187
#
# Compressibility (1/GPa) = 0.03781240
#
# Stress axis : x y z
#
# Youngs Moduli (GPa) = 155.66875 16.03052 76.97470
#
# Poissons Ratio (x) = 0.03077 0.24620
# Poissons Ratio (y) = 0.29883 1.29885
# Poissons Ratio (z) = 0.49791 0.27049
#
# Static dielectric constant tensor:
#      x y z
#    x 3.639370 0.000000 0.000000 
#    y 0.000000 2.803680 0.000000 
#    z 0.000000 0.000000 3.553900 
# 
# 
# High freq. dielectric constant tensor:
#      x y z
#    x 1.733360 0.000000 0.000000 
#    y 0.000000 1.649720 0.000000 
#    z 0.000000 0.000000 1.714050 
# 
# From -- ./inp_files/24452.got.cif
#   From: 2010.03.12/outbox.cif.g09.slc.cpg/sg67_13_cif.got.tgz:24452.got - 2010.04.10 22:41:39.
