data_PCOD8281331
_publ_section_title
;
Structure prediction by ZEFSAII (Michael W. Deem and Ramdas Pophale) SiO2 
 PCOD8281331
Probable space group: C M M A
;
_chemical_formula_sum "Si O2"
_cell_formula_units_Z 80
_cell_length_a 9.634682
_cell_length_b 26.889260
_cell_length_c 19.268673
_cell_angle_alpha 90.000000
_cell_angle_beta 90.000000
_cell_angle_gamma 90.000000
_cell_volume 4991.924889
_symmetry_space_group_name_H-M "C M M A"
_symmetry_group_IT_number 67
_symmetry_cell_setting 'orthorhombic'
loop_
_space_group_symop_operation_xyz
x,y,z
-x,1/2-y,z
x,-y,-z
-x,1/2+y,-z
-x,-y,-z
x,1/2+y,-z
-x,y,z
x,1/2-y,z
1/2+x,1/2+y,z
1/2-x,-y,z
1/2+x,1/2-y,-z
1/2-x,y,-z
1/2-x,1/2-y,-z
1/2+x,y,-z
1/2-x,1/2+y,z
1/2+x,-y,z
loop_
_atom_site_type_symbol
_atom_site_label
_atom_site_fract_x
_atom_site_fract_y
_atom_site_fract_z
Si Si1 0.845624 0.309103 0.060503
Si Si2 0.000000 0.690112 0.401900
Si Si3 0.668824 0.949985 0.431078
Si Si4 0.162281 0.195207 0.211660
Si Si5 0.500000 0.193019 0.556340
Si Si6 0.724765 0.645939 0.350401
O O1 0.851684 0.250000 0.053857
O O2 0.780471 0.322700 0.136441
O O3 0.000000 0.331596 0.051430
O O4 0.750000 0.332327 0.000000
O O5 0.000000 0.668160 0.480356
O O6 0.877300 0.665001 0.360663
O O7 0.000000 0.750000 0.396903
O O8 0.500000 0.957068 0.442725
O O9 0.750000 0.930498 0.500000
O O10 0.694989 0.911326 0.369066
O O11 0.750000 0.000000 0.408967
O O12 0.223650 0.250000 0.232489
O O13 0.191150 0.153857 0.269685
O O14 0.000000 0.201833 0.201509
O O15 0.500000 0.250000 0.539898
O O16 0.365431 0.179894 0.599204
#
# Coordination Sequence:
#
# PCOD8281331 Si02
#       6
#    16   8  16  16   8  16
#     4   8  14  25  42  63  89 123 161 195 227 271
#     4  11  24  34  45  71 102 132 165 204 247 285
#     4  11  23  38  58  76  93 122 163 214 265 307
#     4   9  16  29  48  68  94 130 165 195 234 291
#     4  11  20  34  51  67  92 130 167 198 231 295
#     4  12  22  34  52  71  97 128 166 207 252 296
#
# _framework density 16.025883
#
# number of rings (size 3 to 8) (size 9 to 14) (size 15 to 20)
#    0.000    1.800    2.000    6.000    2.800    1.600 
#    1.800    0.000    0.000    0.000    0.000    0.000 
#    0.000    0.800    0.000    6.400    0.000    0.400 
#
# Total GULP energy -495576.652319 kJ/mol
# GULP energy per Si atom -12389.416308 kJ/mol
# Density = 1.598941 g / cm^3
# Si number density = 16.025883 Si / 1000 Ang^3
#
#
#
# Elastic Constant Matrix: (Units=GPa)
#
#
# Indices 1 2 3 4 5 6 
#
# 1 82.0074 31.9071 21.3701 0.0000 0.0000 0.0000
# 2 31.9071 60.3717 48.2083 0.0000 0.0000 0.0000
# 3 21.3701 48.2083 126.0789 0.0000 0.0000 0.0000
# 4 0.0000 0.0000 0.0000 15.6994 0.0000 0.0000
# 5 0.0000 0.0000 0.0000 0.0000 30.2614 0.0000
# 6 0.0000 0.0000 0.0000 0.0000 0.0000 33.8857
#
#
#
# Elastic Compliance Matrix: (Units=1/GPa)
#
#
# Indices 1 2 3 4 5 6 
#
# 1 0.015396 -0.008714 0.000722 0.000000 0.000000 0.000000
# 2 -0.008714 0.028776 -0.009526 0.000000 0.000000 0.000000
# 3 0.000722 -0.009526 0.011452 0.000000 0.000000 0.000000
# 4 0.000000 0.000000 0.000000 0.063697 0.000000 0.000000
# 5 0.000000 0.000000 0.000000 0.000000 0.033045 0.000000
# 6 0.000000 0.000000 0.000000 0.000000 0.000000 0.029511
#
#
# Mechanical properties :
#
#
# Convention : Reuss Voigt Hill
#
# Bulk Modulus (GPa) = 48.57034 52.38101 50.47567
# Shear Modulus (GPa) = 22.34384 27.10079 24.72232
#
# Velocity S-wave (km/s) = 3.73800 4.11672 3.93192
# Velocity P-wave (km/s) = 7.00024 7.43994 7.22344
#
# Compressibility (1/GPa) = 0.02058870
#
# Stress axis : x y z
#
# Youngs Moduli (GPa) = 64.95138 34.75092 87.32424
#
# Poissons Ratio (x) = 0.30281 -0.06307
# Poissons Ratio (y) = 0.56597 0.83186
# Poissons Ratio (z) = -0.04691 0.33104
#
# Static dielectric constant tensor:
#      x y z
#    x 3.180070 0.000000 0.000000 
#    y 0.000000 2.768560 0.000000 
#    z 0.000000 0.000000 3.197380 
# 
# 
# High freq. dielectric constant tensor:
#      x y z
#    x 1.621990 0.000000 0.000000 
#    y 0.000000 1.573290 0.000000 
#    z 0.000000 0.000000 1.611350 
# 
# From -- ./inp_files/32317.got.cif
#   From: 2010.03.12/outbox.cif.g09.slc.cpg/sg67_17_cif.got.tgz:32317.got - 2010.04.10 22:41:39.
