data_PCOD8281520
_publ_section_title
;
Structure prediction by ZEFSAII (Michael W. Deem and Ramdas Pophale) SiO2 
 PCOD8281520
Probable space group: C M M A
;
_chemical_formula_sum "Si O2"
_cell_formula_units_Z 112
_cell_length_a 27.534339
_cell_length_b 16.416607
_cell_length_c 12.445326
_cell_angle_alpha 90.000000
_cell_angle_beta 90.000000
_cell_angle_gamma 90.000000
_cell_volume 5625.541515
_symmetry_space_group_name_H-M "C M M A"
_symmetry_group_IT_number 67
_symmetry_cell_setting 'orthorhombic'
loop_
_space_group_symop_operation_xyz
x,y,z
-x,1/2-y,z
x,-y,-z
-x,1/2+y,-z
-x,-y,-z
x,1/2+y,-z
-x,y,z
x,1/2-y,z
1/2+x,1/2+y,z
1/2-x,-y,z
1/2+x,1/2-y,-z
1/2-x,y,-z
1/2-x,1/2-y,-z
1/2+x,y,-z
1/2-x,1/2+y,z
1/2+x,-y,z
loop_
_atom_site_type_symbol
_atom_site_label
_atom_site_fract_x
_atom_site_fract_y
_atom_site_fract_z
Si Si1 0.946272 0.658595 0.297747
Si Si2 0.694553 0.341097 0.528575
Si Si3 0.190545 0.088527 0.244984
Si Si4 0.712302 0.158542 0.171605
Si Si5 0.350096 0.419543 0.336594
Si Si6 0.652339 0.092103 0.979841
Si Si7 0.946780 0.841214 0.043884
O O1 0.932743 0.750000 0.339236
O O2 0.908474 0.589197 0.336564
O O3 0.946951 0.658999 0.170742
O O4 0.000000 0.634791 0.341129
O O5 0.678713 0.250000 0.496513
O O6 0.750000 0.357170 0.500000
O O7 0.684784 0.350972 0.654988
O O8 0.665119 0.407997 0.460496
O O9 0.246200 0.092013 0.201414
O O10 0.158409 0.117600 0.144387
O O11 0.171800 0.001043 0.284936
O O12 0.734080 0.250000 0.173458
O O13 0.670819 0.153294 0.262724
O O14 0.687681 0.145213 0.055277
O O15 0.595371 0.100005 0.003096
O O16 0.668553 0.000000 0.000000
O O17 0.936477 0.750000 0.001134
O O18 0.000000 0.870918 0.002124
#
# Coordination Sequence:
#
# PCOD8281520 Si02
#       7
#    16  16  16  16  16  16  16
#     4   9  17  33  61  94 123 154 204 266 318 364
#     4  11  24  40  62  88 118 161 216 259 300 367
#     4  12  26  40  59  87 128 166 204 251 306 369
#     4  12  24  39  61  87 122 168 208 247 297 363
#     4  12  22  39  64  91 122 161 200 260 316 361
#     4  12  24  38  58  88 126 166 204 253 311 374
#     4   9  18  34  57  85 117 156 204 256 311 373
#
# _framework density 19.909193999999999
#
# number of rings (size 3 to 8) (size 9 to 14) (size 15 to 20)
#    0.000    1.000    4.286    4.286    0.000    4.286 
#    0.000    0.714    0.000    2.571    0.000    2.000 
#    0.000    0.000    0.000    0.000    0.000    0.000 
#
# Total GULP energy -694137.868529 kJ/mol
# GULP energy per Si atom -12395.319081 kJ/mol
# Density = 1.986388 g / cm^3
# Si number density = 19.909194 Si / 1000 Ang^3
#
#
#
# Elastic Constant Matrix: (Units=GPa)
#
#
# Indices 1 2 3 4 5 6 
#
# 1 136.3531 52.9512 35.8508 0.0000 0.0000 0.0000
# 2 52.9512 76.0762 21.1212 0.0000 0.0000 0.0000
# 3 35.8508 21.1212 116.1915 0.0000 0.0000 0.0000
# 4 0.0000 0.0000 0.0000 23.0696 0.0000 0.0000
# 5 0.0000 0.0000 0.0000 0.0000 21.4321 0.0000
# 6 0.0000 0.0000 0.0000 0.0000 0.0000 29.6314
#
#
#
# Elastic Compliance Matrix: (Units=1/GPa)
#
#
# Indices 1 2 3 4 5 6 
#
# 1 0.010477 -0.006735 -0.002009 0.000000 0.000000 0.000000
# 2 -0.006735 0.018173 -0.001225 0.000000 0.000000 0.000000
# 3 -0.002009 -0.001225 0.009449 0.000000 0.000000 0.000000
# 4 0.000000 0.000000 0.000000 0.043347 0.000000 0.000000
# 5 0.000000 0.000000 0.000000 0.000000 0.046659 0.000000
# 6 0.000000 0.000000 0.000000 0.000000 0.000000 0.033748
#
#
# Mechanical properties :
#
#
# Convention : Reuss Voigt Hill
#
# Bulk Modulus (GPa) = 55.06196 60.94079 58.00137
# Shear Modulus (GPa) = 26.61775 29.40646 28.01211
#
# Velocity S-wave (km/s) = 3.66041 3.84738 3.75506
# Velocity P-wave (km/s) = 6.75140 7.10016 6.92798
#
# Compressibility (1/GPa) = 0.01816136
#
# Stress axis : x y z
#
# Youngs Moduli (GPa) = 95.44313 55.02778 105.83180
#
# Poissons Ratio (x) = 0.37061 0.21257
# Poissons Ratio (y) = 0.64281 0.12968
# Poissons Ratio (z) = 0.19170 0.06743
#
# Static dielectric constant tensor:
#      x y z
#    x 4.008880 0.000000 0.000000 
#    y 0.000000 3.501540 0.000000 
#    z 0.000000 0.000000 3.642640 
# 
# 
# High freq. dielectric constant tensor:
#      x y z
#    x 1.770630 0.000000 0.000000 
#    y 0.000000 1.766780 0.000000 
#    z 0.000000 0.000000 1.764940 
# 
# From -- ./inp_files/23784.got.cif
#   From: 2010.03.12/outbox.cif.g09.slc.cpg/sg67_12_cif.got.tgz:23784.got - 2010.04.10 22:41:39.
