data_PCOD8281466
_publ_section_title
;
Structure prediction by ZEFSAII (Michael W. Deem and Ramdas Pophale) SiO2 
 PCOD8281466
Probable space group: C M M A
;
_chemical_formula_sum "Si O2"
_cell_formula_units_Z 88
_cell_length_a 23.348917
_cell_length_b 20.239483
_cell_length_c 9.525093
_cell_angle_alpha 90.000000
_cell_angle_beta 90.000000
_cell_angle_gamma 90.000000
_cell_volume 4501.273282
_symmetry_space_group_name_H-M "C M M A"
_symmetry_group_IT_number 67
_symmetry_cell_setting 'orthorhombic'
loop_
_space_group_symop_operation_xyz
x,y,z
-x,1/2-y,z
x,-y,-z
-x,1/2+y,-z
-x,-y,-z
x,1/2+y,-z
-x,y,z
x,1/2-y,z
1/2+x,1/2+y,z
1/2-x,-y,z
1/2+x,1/2-y,-z
1/2-x,y,-z
1/2-x,1/2-y,-z
1/2+x,y,-z
1/2-x,1/2+y,z
1/2+x,-y,z
loop_
_atom_site_type_symbol
_atom_site_label
_atom_site_fract_x
_atom_site_fract_y
_atom_site_fract_z
Si Si1 0.000000 0.578782 0.485514
Si Si2 0.215428 0.326550 0.361498
Si Si3 0.000000 0.411507 0.833693
Si Si4 0.617693 0.482480 0.153215
Si Si5 0.404223 0.614926 0.307636
Si Si6 0.500000 0.828186 0.106922
Si Si7 0.268925 0.571767 0.840804
O O1 0.000000 0.500000 0.500000
O O2 0.000000 0.609371 0.329005
O O3 0.943187 0.605988 0.556516
O O4 0.226617 0.250000 0.332747
O O5 0.250000 0.349262 0.500000
O O6 0.147073 0.339164 0.363741
O O7 0.240118 0.367062 0.233413
O O8 0.946298 0.457889 0.859499
O O9 0.000000 0.351398 0.943964
O O10 0.621100 0.545128 0.256265
O O11 0.662759 0.425220 0.195940
O O12 0.641284 0.500000 0.000000
O O13 0.442154 0.646430 0.182281
O O14 0.500000 0.750000 0.108245
O O15 0.250000 0.500000 0.782744
O O16 0.250000 0.580519 0.000000
#
# Coordination Sequence:
#
# PCOD8281466 Si02
#       7
#     8  16   8  16  16   8  16
#     4  11  23  37  60 102 132 157 205 266 340 386
#     4  11  26  45  64  92 130 176 221 261 319 392
#     4  12  24  38  63  99 131 159 209 277 317 374
#     4  12  20  37  66  97 126 162 208 269 333 371
#     4  11  22  41  66  91 130 170 210 265 317 397
#     4  11  24  42  66  92 123 177 225 256 313 381
#     4  11  22  41  65  97 131 160 212 272 329 386
#
# _framework density 19.550025000000002
#
# number of rings (size 3 to 8) (size 9 to 14) (size 15 to 20)
#    0.000    0.727    7.273    1.364    2.545    0.727 
#    0.000    3.636    0.000    0.000    0.000    0.000 
#    0.000    0.000    0.000    0.000    0.000    0.000 
#
# Total GULP energy -545439.638337 kJ/mol
# GULP energy per Si atom -12396.355417 kJ/mol
# Density = 1.950553 g / cm^3
# Si number density = 19.550025 Si / 1000 Ang^3
#
#
#
# Elastic Constant Matrix: (Units=GPa)
#
#
# Indices 1 2 3 4 5 6 
#
# 1 143.8701 47.4989 50.1408 0.0000 0.0000 0.0000
# 2 47.4989 93.1895 48.9902 0.0000 0.0000 0.0000
# 3 50.1408 48.9902 128.5419 0.0000 0.0000 0.0000
# 4 0.0000 0.0000 0.0000 24.6652 0.0000 0.0000
# 5 0.0000 0.0000 0.0000 0.0000 24.3170 0.0000
# 6 0.0000 0.0000 0.0000 0.0000 0.0000 28.8697
#
#
#
# Elastic Compliance Matrix: (Units=1/GPa)
#
#
# Indices 1 2 3 4 5 6 
#
# 1 0.008811 -0.003357 -0.002158 0.000000 0.000000 0.000000
# 2 -0.003357 0.014698 -0.004293 0.000000 0.000000 0.000000
# 3 -0.002158 -0.004293 0.010257 0.000000 0.000000 0.000000
# 4 0.000000 0.000000 0.000000 0.040543 0.000000 0.000000
# 5 0.000000 0.000000 0.000000 0.000000 0.041123 0.000000
# 6 0.000000 0.000000 0.000000 0.000000 0.000000 0.034638
#
#
# Mechanical properties :
#
#
# Convention : Reuss Voigt Hill
#
# Bulk Modulus (GPa) = 70.65732 73.20680 71.93206
# Shear Modulus (GPa) = 28.66937 30.16851 29.41894
#
# Velocity S-wave (km/s) = 3.83360 3.93255 3.88339
# Velocity P-wave (km/s) = 7.47098 7.62542 7.54860
#
# Compressibility (1/GPa) = 0.01415281
#
# Stress axis : x y z
#
# Youngs Moduli (GPa) = 113.49614 68.03506 97.49300
#
# Poissons Ratio (x) = 0.22837 0.21035
# Poissons Ratio (y) = 0.38097 0.41849
# Poissons Ratio (z) = 0.24488 0.29204
#
# Static dielectric constant tensor:
#      x y z
#    x 4.010550 0.000000 0.000000 
#    y 0.000000 3.404830 0.000000 
#    z 0.000000 0.000000 3.583590 
# 
# 
# High freq. dielectric constant tensor:
#      x y z
#    x 1.790450 0.000000 0.000000 
#    y 0.000000 1.739980 0.000000 
#    z 0.000000 0.000000 1.761990 
# 
# From -- ./inp_files/12477.got.cif
#   From: 2010.03.12/outbox.cif.g09.slc.cpg/sg67_7_cif.got.tgz:12477.got - 2010.04.10 22:41:39.
