data_PCOD8281983
_publ_section_title
;
Structure prediction by ZEFSAII (Michael W. Deem and Ramdas Pophale) SiO2 
 PCOD8281983
Probable space group: C C C A
;
_chemical_formula_sum "Si O2"
_cell_formula_units_Z 80
_cell_length_a 11.817220
_cell_length_b 13.664876
_cell_length_c 22.715998
_cell_angle_alpha 90.000000
_cell_angle_beta 90.000000
_cell_angle_gamma 90.000000
_cell_volume 3668.198574
_symmetry_space_group_name_H-M "C C C A"
_symmetry_group_IT_number 68
_space_group.IT_coordinate_system_code '2'
_symmetry_cell_setting 'orthorhombic'
loop_
_space_group_symop_operation_xyz
x,y,z
-x,1/2-y,z
x,1/2-y,1/2-z
-x,y,1/2-z
-x,-y,-z
x,1/2+y,-z
-x,1/2+y,1/2+z
x,-y,1/2+z
1/2+x,1/2+y,z
1/2-x,-y,z
1/2+x,-y,1/2-z
1/2-x,1/2+y,1/2-z
1/2-x,1/2-y,-z
1/2+x,y,-z
1/2-x,y,1/2+z
1/2+x,1/2-y,1/2+z
loop_
_atom_site_type_symbol
_atom_site_label
_atom_site_fract_x
_atom_site_fract_y
_atom_site_fract_z
Si Si1 0.206446 0.109116 0.389507
Si Si2 0.616423 0.004493 0.920387
Si Si3 0.113173 0.195181 0.809722
Si Si4 0.538215 0.854829 0.012305
Si Si5 0.528154 0.481364 0.811447
O O1 0.296113 0.188505 0.363521
O O2 0.153331 0.151468 0.449356
O O3 0.250000 0.000000 0.405173
O O4 0.109722 0.096829 0.341293
O O5 0.581725 0.999115 0.851915
O O6 0.750000 0.000000 0.926443
O O7 0.566201 0.101644 0.950207
O O8 0.557601 0.913579 0.952513
O O9 0.157715 0.250000 0.750000
O O10 0.000000 0.250000 0.832225
O O11 0.089290 0.082707 0.794148
O O12 0.500000 0.750000 0.990503
O O13 0.500000 0.429597 0.750000
#
# Coordination Sequence:
#
# PCOD8281983 Si02
#       5
#    16  16  16  16  16
#     4   9  20  38  63  84 124 175 205 261 327 384
#     4  10  23  41  67  95 125 174 218 266 321 395
#     4  10  19  36  58  91 121 161 212 266 311 385
#     4  10  22  43  63  94 134 165 216 272 325 382
#     4  10  20  39  59  88 124 163 212 260 320 387
#
# _framework density 21.809069999999998
#
# number of rings (size 3 to 8) (size 9 to 14) (size 15 to 20)
#    0.000    2.200    2.000    0.600    0.000    7.200 
#    7.200    0.000    0.000    0.000    0.000    0.000 
#    0.000    0.000    0.000    0.000    0.000    0.000 
#
# Total GULP energy -495830.827437 kJ/mol
# GULP energy per Si atom -12395.770686 kJ/mol
# Density = 2.175943 g / cm^3
# Si number density = 21.809070 Si / 1000 Ang^3
#
#
#
# Elastic Constant Matrix: (Units=GPa)
#
#
# Indices 1 2 3 4 5 6 
#
# 1 108.6724 12.3137 34.0328 0.0000 0.0000 0.0000
# 2 12.3137 77.6198 14.0870 0.0000 0.0000 0.0000
# 3 34.0328 14.0870 104.0980 0.0000 0.0000 0.0000
# 4 0.0000 0.0000 0.0000 10.4396 0.0000 0.0000
# 5 0.0000 0.0000 0.0000 0.0000 5.0820 0.0000
# 6 0.0000 0.0000 0.0000 0.0000 0.0000 24.4341
#
#
#
# Elastic Compliance Matrix: (Units=1/GPa)
#
#
# Indices 1 2 3 4 5 6 
#
# 1 0.010335 -0.001052 -0.003236 0.000000 0.000000 0.000000
# 2 -0.001052 0.013315 -0.001458 0.000000 0.000000 0.000000
# 3 -0.003236 -0.001458 0.010862 0.000000 0.000000 0.000000
# 4 0.000000 0.000000 0.000000 0.095789 0.000000 0.000000
# 5 0.000000 0.000000 0.000000 0.000000 0.196772 0.000000
# 6 0.000000 0.000000 0.000000 0.000000 0.000000 0.040926
#
#
# Mechanical properties :
#
#
# Convention : Reuss Voigt Hill
#
# Bulk Modulus (GPa) = 43.44329 45.69524 44.56926
# Shear Modulus (GPa) = 12.91441 23.32159 18.11800
#
# Velocity S-wave (km/s) = 2.43607 3.27364 2.88541
# Velocity P-wave (km/s) = 5.27974 5.94028 5.61972
#
# Compressibility (1/GPa) = 0.02301851
#
# Stress axis : x y z
#
# Youngs Moduli (GPa) = 96.76130 75.10437 92.06686
#
# Poissons Ratio (x) = 0.07902 0.29796
# Poissons Ratio (y) = 0.10181 0.13422
# Poissons Ratio (z) = 0.31315 0.10949
#
# Static dielectric constant tensor:
#      x y z
#    x 4.056980 0.000000 0.000000 
#    y 0.000000 3.690040 0.000000 
#    z 0.000000 0.000000 4.060440 
# 
# 
# High freq. dielectric constant tensor:
#      x y z
#    x 1.853290 0.000000 0.000000 
#    y 0.000000 1.837940 0.000000 
#    z 0.000000 0.000000 1.863660 
# 
# From -- ./inp_files/44131.got.cif
#   From: 2010.03.12/outbox.cif.g09.slc.cpg/sg68_23_cif.got.tgz:44131.got - 2010.04.10 23:14:56.
