data_PCOD8281601
_publ_section_title
;
Structure prediction by ZEFSAII (Michael W. Deem and Ramdas Pophale) SiO2 
 PCOD8281601
Probable space group: C M M A
;
_chemical_formula_sum "Si O2"
_cell_formula_units_Z 96
_cell_length_a 19.269442
_cell_length_b 9.181028
_cell_length_c 30.853836
_cell_angle_alpha 90.000000
_cell_angle_beta 90.000000
_cell_angle_gamma 90.000000
_cell_volume 5458.453529
_symmetry_space_group_name_H-M "C M M A"
_symmetry_group_IT_number 67
_symmetry_cell_setting 'orthorhombic'
loop_
_space_group_symop_operation_xyz
x,y,z
-x,1/2-y,z
x,-y,-z
-x,1/2+y,-z
-x,-y,-z
x,1/2+y,-z
-x,y,z
x,1/2-y,z
1/2+x,1/2+y,z
1/2-x,-y,z
1/2+x,1/2-y,-z
1/2-x,y,-z
1/2-x,1/2-y,-z
1/2+x,y,-z
1/2-x,1/2+y,z
1/2+x,-y,z
loop_
_atom_site_type_symbol
_atom_site_label
_atom_site_fract_x
_atom_site_fract_y
_atom_site_fract_z
Si Si1 0.822721 0.080651 0.364746
Si Si2 0.676655 0.919854 0.460591
Si Si3 0.319434 0.579640 0.117110
Si Si4 0.420830 0.420621 0.957600
Si Si5 0.577714 0.077136 0.710514
Si Si6 0.679718 0.920908 0.215275
O O1 0.807242 0.250000 0.356285
O O2 0.856221 0.058220 0.412828
O O3 0.879202 0.019219 0.330925
O O4 0.750000 0.000000 0.358332
O O5 0.684902 0.750000 0.471710
O O6 0.633987 0.000000 0.500000
O O7 0.750000 0.000000 0.458600
O O8 0.305576 0.750000 0.113317
O O9 0.250000 0.500000 0.102336
O O10 0.380117 0.528036 0.085103
O O11 0.340551 0.536620 0.166103
O O12 0.500000 0.467661 0.949928
O O13 0.413128 0.250000 0.965443
O O14 0.390210 0.500000 0.000000
O O15 0.500000 0.009958 0.710096
O O16 0.572689 0.250000 0.708723
O O17 0.616752 0.026590 0.754255
O O18 0.693084 0.750000 0.220354
O O19 0.750000 0.000000 0.230020
#
# Coordination Sequence:
#
# PCOD8281601 Si02
#       6
#    16  16  16  16  16  16
#     4   9  17  28  44  66  89 115 146 180 219 260
#     4   9  15  23  37  59  85 110 139 176 216 255
#     4   9  18  31  47  69  94 118 146 182 223 264
#     4   9  18  32  48  66  90 120 153 187 221 259
#     4   9  17  29  46  68  91 115 147 184 218 257
#     4   9  17  30  49  70  91 117 147 180 220 264
#
# _framework density 17.587399999999999
#
# number of rings (size 3 to 8) (size 9 to 14) (size 15 to 20)
#    0.000    3.000    0.000    1.500    0.000    2.333 
#    0.000    5.000    0.000    2.500    0.000    4.667 
#    0.000    0.000    0.000    0.000    0.000    4.500 
#
# Total GULP energy -594902.681850 kJ/mol
# GULP energy per Si atom -12393.805872 kJ/mol
# Density = 1.754737 g / cm^3
# Si number density = 17.587400 Si / 1000 Ang^3
#
#
#
# Elastic Constant Matrix: (Units=GPa)
#
#
# Indices 1 2 3 4 5 6 
#
# 1 111.2642 30.0680 85.0400 0.0000 0.0000 0.0000
# 2 30.0680 41.2780 38.1111 0.0000 0.0000 0.0000
# 3 85.0400 38.1111 152.8374 0.0000 0.0000 0.0000
# 4 0.0000 0.0000 0.0000 17.5351 0.0000 0.0000
# 5 0.0000 0.0000 0.0000 0.0000 14.9137 0.0000
# 6 0.0000 0.0000 0.0000 0.0000 0.0000 19.2037
#
#
#
# Elastic Compliance Matrix: (Units=1/GPa)
#
#
# Indices 1 2 3 4 5 6 
#
# 1 0.016267 -0.004537 -0.007920 0.000000 0.000000 0.000000
# 2 -0.004537 0.032737 -0.005639 0.000000 0.000000 0.000000
# 3 -0.007920 -0.005639 0.012355 0.000000 0.000000 0.000000
# 4 0.000000 0.000000 0.000000 0.057029 0.000000 0.000000
# 5 0.000000 0.000000 0.000000 0.000000 0.067052 0.000000
# 6 0.000000 0.000000 0.000000 0.000000 0.000000 0.052073
#
#
# Mechanical properties :
#
#
# Convention : Reuss Voigt Hill
#
# Bulk Modulus (GPa) = 39.73238 67.97973 53.85605
# Shear Modulus (GPa) = 17.72461 20.47454 19.09957
#
# Velocity S-wave (km/s) = 3.17803 3.41568 3.29900
# Velocity P-wave (km/s) = 6.00891 7.36833 6.72307
#
# Compressibility (1/GPa) = 0.02516839
#
# Stress axis : x y z
#
# Youngs Moduli (GPa) = 61.47533 30.54646 80.93592
#
# Poissons Ratio (x) = 0.13859 0.64098
# Poissons Ratio (y) = 0.27892 0.45637
# Poissons Ratio (z) = 0.48686 0.17224
#
# Static dielectric constant tensor:
#      x y z
#    x 3.174050 0.000000 0.000000 
#    y 0.000000 3.109670 0.000000 
#    z 0.000000 0.000000 3.974010 
# 
# 
# High freq. dielectric constant tensor:
#      x y z
#    x 1.647680 0.000000 0.000000 
#    y 0.000000 1.660130 0.000000 
#    z 0.000000 0.000000 1.702140 
# 
# From -- ./inp_files/44582.got.cif
#   From: 2010.03.12/outbox.cif.g09.slc.cpg/sg67_23_cif.got.tgz:44582.got - 2010.04.10 22:41:39.
