data_PCOD8281192
_publ_section_title
;
Structure prediction by ZEFSAII (Michael W. Deem and Ramdas Pophale) SiO2 
 PCOD8281192
Probable space group: C M M A
;
_chemical_formula_sum "Si O2"
_cell_formula_units_Z 80
_cell_length_a 18.386355
_cell_length_b 8.910186
_cell_length_c 25.595365
_cell_angle_alpha 90.000000
_cell_angle_beta 90.000000
_cell_angle_gamma 90.000000
_cell_volume 4193.182246
_symmetry_space_group_name_H-M "C M M A"
_symmetry_group_IT_number 67
_symmetry_cell_setting 'orthorhombic'
loop_
_space_group_symop_operation_xyz
x,y,z
-x,1/2-y,z
x,-y,-z
-x,1/2+y,-z
-x,-y,-z
x,1/2+y,-z
-x,y,z
x,1/2-y,z
1/2+x,1/2+y,z
1/2-x,-y,z
1/2+x,1/2-y,-z
1/2-x,y,-z
1/2-x,1/2-y,-z
1/2+x,y,-z
1/2-x,1/2+y,z
1/2+x,-y,z
loop_
_atom_site_type_symbol
_atom_site_label
_atom_site_fract_x
_atom_site_fract_y
_atom_site_fract_z
Si Si1 0.586093 0.085662 0.049327
Si Si2 0.417144 0.571463 0.835475
Si Si3 0.827058 0.926022 0.744922
Si Si4 0.673890 0.571635 0.554907
Si Si5 0.415206 0.422255 0.642143
O O1 0.500000 0.095966 0.042589
O O2 0.620971 0.250000 0.047787
O O3 0.603110 0.013154 0.106040
O O4 0.621176 0.000000 0.000000
O O5 0.500000 0.525824 0.821612
O O6 0.408242 0.750000 0.832105
O O7 0.362078 0.491290 0.796991
O O8 0.816686 0.750000 0.751980
O O9 0.878249 0.966568 0.696435
O O10 0.750000 0.000000 0.733896
O O11 0.649852 0.500000 0.500000
O O12 0.681946 0.750000 0.549206
O O13 0.750000 0.500000 0.573500
O O14 0.613005 0.531979 0.597076
O O15 0.500000 0.450819 0.649149
O O16 0.398128 0.250000 0.626944
#
# Coordination Sequence:
#
# PCOD8281192 Si02
#       5
#    16  16  16  16  16
#     4   8  14  25  43  70 103 137 172 212 260 313
#     4   9  18  33  53  78 109 142 177 221 270 319
#     4  11  23  38  57  80 107 142 182 224 272 325
#     4  11  22  38  61  87 116 151 189 226 268 318
#     4  10  22  40  60  84 114 144 179 226 274 321
#
# _framework density 19.078588
#
# number of rings (size 3 to 8) (size 9 to 14) (size 15 to 20)
#    0.000    2.200    0.000    5.400    0.000    6.000 
#    0.000    2.000    0.000    0.600    0.000    4.200 
#    0.000    0.000    0.000    0.000    0.000    0.000 
#
# Total GULP energy -495964.625465 kJ/mol
# GULP energy per Si atom -12399.115637 kJ/mol
# Density = 1.903516 g / cm^3
# Si number density = 19.078588 Si / 1000 Ang^3
#
#
#
# Elastic Constant Matrix: (Units=GPa)
#
#
# Indices 1 2 3 4 5 6 
#
# 1 94.7041 46.6986 65.5772 0.0000 0.0000 0.0000
# 2 46.6986 99.2465 61.8570 0.0000 0.0000 0.0000
# 3 65.5772 61.8570 138.9693 0.0000 0.0000 0.0000
# 4 0.0000 0.0000 0.0000 33.9221 0.0000 0.0000
# 5 0.0000 0.0000 0.0000 0.0000 -12.9845 0.0000
# 6 0.0000 0.0000 0.0000 0.0000 0.0000 26.1180
#
#
#
# Elastic Compliance Matrix: (Units=1/GPa)
#
#
# Indices 1 2 3 4 5 6 
#
# 1 0.016811 -0.004105 -0.006106 0.000000 0.000000 0.000000
# 2 -0.004105 0.014947 -0.004716 0.000000 0.000000 0.000000
# 3 -0.006106 -0.004716 0.012176 0.000000 0.000000 0.000000
# 4 0.000000 0.000000 0.000000 0.029479 0.000000 0.000000
# 5 0.000000 0.000000 0.000000 0.000000 -0.077015 0.000000
# 6 0.000000 0.000000 0.000000 0.000000 0.000000 0.038288
#
#
# Mechanical properties :
#
#
# Convention : Reuss Voigt Hill
#
# Bulk Modulus (GPa) = 71.01770 75.68728 73.35249
# Shear Modulus (GPa) = 72.21988 19.99693 46.10840
#
# Velocity S-wave (km/s) = 6.15923 3.24100 4.92139
# Velocity P-wave (km/s) = 9.37475 7.33232 8.41573
#
# Compressibility (1/GPa) = 0.01408100
#
# Stress axis : x y z
#
# Youngs Moduli (GPa) = 59.48427 66.90484 82.12702
#
# Poissons Ratio (x) = 0.27462 0.50146
# Poissons Ratio (y) = 0.24416 0.38731
# Poissons Ratio (z) = 0.36320 0.31553
#
# Static dielectric constant tensor:
#      x y z
#    x 3.255750 0.000000 0.000000 
#    y 0.000000 3.539550 0.000000 
#    z 0.000000 0.000000 3.715380 
# 
# 
# High freq. dielectric constant tensor:
#      x y z
#    x 1.718380 0.000000 0.000000 
#    y 0.000000 1.740070 0.000000 
#    z 0.000000 0.000000 1.758960 
# 
# From -- ./inp_files/43340.got.cif
#   From: 2010.03.12/outbox.cif.g09.slc.cpg/sg67_22_cif.got.tgz:43340.got - 2010.04.10 22:41:39.
