data_PCOD8281121
_publ_section_title
;
Structure prediction by ZEFSAII (Michael W. Deem and Ramdas Pophale) SiO2 
 PCOD8281121
Probable space group: C M M A
;
_chemical_formula_sum "Si O2"
_cell_formula_units_Z 96
_cell_length_a 8.663943
_cell_length_b 28.883637
_cell_length_c 20.552199
_cell_angle_alpha 90.000000
_cell_angle_beta 90.000000
_cell_angle_gamma 90.000000
_cell_volume 5143.109385
_symmetry_space_group_name_H-M "C M M A"
_symmetry_group_IT_number 67
_symmetry_cell_setting 'orthorhombic'
loop_
_space_group_symop_operation_xyz
x,y,z
-x,1/2-y,z
x,-y,-z
-x,1/2+y,-z
-x,-y,-z
x,1/2+y,-z
-x,y,z
x,1/2-y,z
1/2+x,1/2+y,z
1/2-x,-y,z
1/2+x,1/2-y,-z
1/2-x,y,-z
1/2-x,1/2-y,-z
1/2+x,y,-z
1/2-x,1/2+y,z
1/2+x,-y,z
loop_
_atom_site_type_symbol
_atom_site_label
_atom_site_fract_x
_atom_site_fract_y
_atom_site_fract_z
Si Si1 0.179230 0.395656 0.316501
Si Si2 0.181479 0.199546 0.878124
Si Si3 0.681872 0.950904 0.569241
Si Si4 0.683406 0.949091 0.804783
Si Si5 0.817687 0.605125 0.067218
Si Si6 0.675682 0.698850 0.258327
O O1 0.275046 0.412385 0.378357
O O2 0.241187 0.418430 0.250981
O O3 0.206404 0.340249 0.312564
O O4 0.000000 0.408358 0.325614
O O5 0.251357 0.250000 0.899125
O O6 0.249122 0.157251 0.920795
O O7 0.215002 0.189616 0.802830
O O8 0.000000 0.200550 0.886753
O O9 0.500000 0.955708 0.563007
O O10 0.750000 0.935733 0.500000
O O11 0.750000 0.000000 0.592320
O O12 0.500000 0.949430 0.795775
O O13 0.734259 0.928192 0.874243
O O14 0.750000 0.000000 0.799284
O O15 0.000000 0.605992 0.062321
O O16 0.750000 0.585474 0.000000
O O17 0.500000 0.695245 0.233083
O O18 0.707986 0.750000 0.288404
#
# Coordination Sequence:
#
# PCOD8281121 Si02
#       6
#    16  16  16  16  16  16
#     4  11  21  35  58  86 115 147 182 223 271 320
#     4   9  17  32  53  76 104 136 172 218 272 327
#     4  11  22  38  59  85 119 153 188 226 269 321
#     4  11  23  39  56  78 105 137 181 229 277 327
#     4  10  22  37  53  74 103 138 178 223 274 330
#     4   9  18  32  53  82 112 142 178 221 268 319
#
# _framework density 18.665752999999999
#
# number of rings (size 3 to 8) (size 9 to 14) (size 15 to 20)
#    0.000    1.833    1.667    3.500    0.000    3.333 
#    0.000    1.667    0.000    0.500    0.000    0.000 
#    0.000    0.000    0.000    0.000    0.000    0.000 
#
# Total GULP energy -595138.972523 kJ/mol
# GULP energy per Si atom -12398.728594 kJ/mol
# Density = 1.862327 g / cm^3
# Si number density = 18.665753 Si / 1000 Ang^3
#
#
#
# Elastic Constant Matrix: (Units=GPa)
#
#
# Indices 1 2 3 4 5 6 
#
# 1 69.2444 29.9962 29.8882 0.0000 0.0000 0.0000
# 2 29.9962 113.1174 51.5687 0.0000 0.0000 0.0000
# 3 29.8882 51.5687 103.5074 0.0000 0.0000 0.0000
# 4 0.0000 0.0000 0.0000 28.8040 0.0000 0.0000
# 5 0.0000 0.0000 0.0000 0.0000 30.8362 0.0000
# 6 0.0000 0.0000 0.0000 0.0000 0.0000 14.2687
#
#
#
# Elastic Compliance Matrix: (Units=1/GPa)
#
#
# Indices 1 2 3 4 5 6 
#
# 1 0.017240 -0.002979 -0.003494 0.000000 0.000000 0.000000
# 2 -0.002979 0.011953 -0.005095 0.000000 0.000000 0.000000
# 3 -0.003494 -0.005095 0.013208 0.000000 0.000000 0.000000
# 4 0.000000 0.000000 0.000000 0.034717 0.000000 0.000000
# 5 0.000000 0.000000 0.000000 0.000000 0.032429 0.000000
# 6 0.000000 0.000000 0.000000 0.000000 0.000000 0.070084
#
#
# Mechanical properties :
#
#
# Convention : Reuss Voigt Hill
#
# Bulk Modulus (GPa) = 51.90526 56.53060 54.21793
# Shear Modulus (GPa) = 23.90173 26.40950 25.15562
#
# Velocity S-wave (km/s) = 3.58231 3.76555 3.67507
# Velocity P-wave (km/s) = 6.70662 7.01835 6.86425
#
# Compressibility (1/GPa) = 0.01926587
#
# Stress axis : x y z
#
# Youngs Moduli (GPa) = 58.00409 83.66078 75.70892
#
# Poissons Ratio (x) = 0.24921 0.26453
# Poissons Ratio (y) = 0.17278 0.38574
# Poissons Ratio (z) = 0.20267 0.42625
#
# Static dielectric constant tensor:
#      x y z
#    x 3.436410 0.000000 0.000000 
#    y 0.000000 3.802430 0.000000 
#    z 0.000000 0.000000 3.349990 
# 
# 
# High freq. dielectric constant tensor:
#      x y z
#    x 1.727270 0.000000 0.000000 
#    y 0.000000 1.734950 0.000000 
#    z 0.000000 0.000000 1.704660 
# 
# From -- ./inp_files/37187.got.cif
#   From: 2010.03.12/outbox.cif.g09.slc.cpg/sg67_19_cif.got.tgz:37187.got - 2010.04.10 22:41:39.
