data_PCOD8281187
_publ_section_title
;
Structure prediction by ZEFSAII (Michael W. Deem and Ramdas Pophale) SiO2 
 PCOD8281187
Probable space group: C M M A
;
_chemical_formula_sum "Si O2"
_cell_formula_units_Z 96
_cell_length_a 16.555059
_cell_length_b 23.349767
_cell_length_c 12.469184
_cell_angle_alpha 90.000000
_cell_angle_beta 90.000000
_cell_angle_gamma 90.000000
_cell_volume 4820.047496
_symmetry_space_group_name_H-M "C M M A"
_symmetry_group_IT_number 67
_symmetry_cell_setting 'orthorhombic'
loop_
_space_group_symop_operation_xyz
x,y,z
-x,1/2-y,z
x,-y,-z
-x,1/2+y,-z
-x,-y,-z
x,1/2+y,-z
-x,y,z
x,1/2-y,z
1/2+x,1/2+y,z
1/2-x,-y,z
1/2+x,1/2-y,-z
1/2-x,y,-z
1/2-x,1/2-y,-z
1/2+x,y,-z
1/2-x,1/2+y,z
1/2+x,-y,z
loop_
_atom_site_type_symbol
_atom_site_label
_atom_site_fract_x
_atom_site_fract_y
_atom_site_fract_z
Si Si1 0.158146 0.066891 0.009324
Si Si2 0.332764 0.250000 0.073899
Si Si3 0.154000 0.936473 0.614759
Si Si4 0.158365 0.933695 0.368535
Si Si5 0.593554 0.358667 0.175845
Si Si6 0.591561 0.250000 0.858615
Si Si7 0.908012 0.869351 0.797637
O O1 0.102915 0.095834 0.919403
O O2 0.250000 0.086920 0.000000
O O3 0.132634 0.083728 0.127902
O O4 0.147237 0.000000 0.000000
O O5 0.345693 0.194433 0.150222
O O6 0.250000 0.250000 0.000000
O O7 0.404960 0.250000 0.987635
O O8 0.139197 0.919379 0.491874
O O9 0.246400 0.929365 0.650303
O O10 0.099435 0.890789 0.676669
O O11 0.127462 0.000998 0.646669
O O12 0.115405 0.889202 0.288688
O O13 0.500000 0.338642 0.181677
O O14 0.500000 0.250000 0.818862
O O15 0.634819 0.192906 0.812068
O O16 0.000000 0.862766 0.833341
#
# Coordination Sequence:
#
# PCOD8281187 Si02
#       7
#    16   8  16  16  16   8  16
#     4  11  23  37  55  83 118 154 195 245 299 361
#     4  12  26  42  63  87 116 163 208 242 297 363
#     4   9  19  39  62  87 121 158 204 245 295 362
#     4   9  20  38  62  88 119 162 198 246 302 359
#     4  12  24  39  60  88 123 157 197 253 310 363
#     4  10  22  40  57  81 115 154 192 239 295 348
#     4  11  22  36  58  84 115 152 195 247 299 355
#
# _framework density 19.916817000000002
#
# number of rings (size 3 to 8) (size 9 to 14) (size 15 to 20)
#    0.000    1.500    1.667    4.750    2.333    6.667 
#    0.000    2.500    0.000    4.000    0.000    0.000 
#    0.000    0.000    0.000    0.000    0.000    0.000 
#
# Total GULP energy -595005.661092 kJ/mol
# GULP energy per Si atom -12395.951273 kJ/mol
# Density = 1.987149 g / cm^3
# Si number density = 19.916817 Si / 1000 Ang^3
#
#
#
# Elastic Constant Matrix: (Units=GPa)
#
#
# Indices 1 2 3 4 5 6 
#
# 1 71.1778 42.6713 32.8493 0.0000 0.0000 0.0000
# 2 42.6713 110.3275 66.9499 0.0000 0.0000 0.0000
# 3 32.8493 66.9499 117.2550 0.0000 0.0000 0.0000
# 4 0.0000 0.0000 0.0000 37.1526 0.0000 0.0000
# 5 0.0000 0.0000 0.0000 0.0000 28.6703 0.0000
# 6 0.0000 0.0000 0.0000 0.0000 0.0000 23.7278
#
#
#
# Elastic Compliance Matrix: (Units=1/GPa)
#
#
# Indices 1 2 3 4 5 6 
#
# 1 0.018504 -0.006138 -0.001680 0.000000 0.000000 0.000000
# 2 -0.006138 0.015905 -0.007362 0.000000 0.000000 0.000000
# 3 -0.001680 -0.007362 0.013203 0.000000 0.000000 0.000000
# 4 0.000000 0.000000 0.000000 0.026916 0.000000 0.000000
# 5 0.000000 0.000000 0.000000 0.000000 0.034879 0.000000
# 6 0.000000 0.000000 0.000000 0.000000 0.000000 0.042145
#
#
# Mechanical properties :
#
#
# Convention : Reuss Voigt Hill
#
# Bulk Modulus (GPa) = 57.95966 64.85570 61.40768
# Shear Modulus (GPa) = 26.64375 28.32945 27.48660
#
# Velocity S-wave (km/s) = 3.66150 3.77555 3.71896
# Velocity P-wave (km/s) = 6.85853 7.18612 7.02424
#
# Compressibility (1/GPa) = 0.01725338
#
# Stress axis : x y z
#
# Youngs Moduli (GPa) = 54.04253 62.87220 75.74313
#
# Poissons Ratio (x) = 0.38588 0.12721
# Poissons Ratio (y) = 0.33169 0.55763
# Poissons Ratio (z) = 0.09076 0.46287
#
# Static dielectric constant tensor:
#      x y z
#    x 3.549470 0.000000 0.000000 
#    y 0.000000 3.588790 0.000000 
#    z 0.000000 0.000000 3.570030 
# 
# 
# High freq. dielectric constant tensor:
#      x y z
#    x 1.771030 0.000000 0.000000 
#    y 0.000000 1.780760 0.000000 
#    z 0.000000 0.000000 1.773820 
# 
# From -- ./inp_files/19730.got.cif
#   From: 2010.03.12/outbox.cif.g09.slc.cpg/sg67_10_cif.got.tgz:19730.got - 2010.04.10 22:41:39.
