data_PCOD8281553
_publ_section_title
;
Structure prediction by ZEFSAII (Michael W. Deem and Ramdas Pophale) SiO2 
 PCOD8281553
Probable space group: C M M A
;
_chemical_formula_sum "Si O2"
_cell_formula_units_Z 80
_cell_length_a 25.898918
_cell_length_b 18.247259
_cell_length_c 9.192477
_cell_angle_alpha 90.000000
_cell_angle_beta 90.000000
_cell_angle_gamma 90.000000
_cell_volume 4344.219983
_symmetry_space_group_name_H-M "C M M A"
_symmetry_group_IT_number 67
_symmetry_cell_setting 'orthorhombic'
loop_
_space_group_symop_operation_xyz
x,y,z
-x,1/2-y,z
x,-y,-z
-x,1/2+y,-z
-x,-y,-z
x,1/2+y,-z
-x,y,z
x,1/2-y,z
1/2+x,1/2+y,z
1/2-x,-y,z
1/2+x,1/2-y,-z
1/2-x,y,-z
1/2-x,1/2-y,-z
1/2+x,y,-z
1/2-x,1/2+y,z
1/2+x,-y,z
loop_
_atom_site_type_symbol
_atom_site_label
_atom_site_fract_x
_atom_site_fract_y
_atom_site_fract_z
Si Si1 0.202830 0.336898 0.409927
Si Si2 0.412105 0.835791 0.080670
Si Si3 0.500000 0.077831 0.076293
Si Si4 0.087895 0.664209 0.580674
Si Si5 0.500000 0.077831 0.423707
Si Si6 0.297169 0.163101 0.909927
O O1 0.208623 0.250000 0.403708
O O2 0.250000 0.372155 0.500000
O O3 0.146035 0.356235 0.471412
O O4 0.207832 0.370540 0.250000
O O5 0.422883 0.750000 0.061233
O O6 0.420714 0.857462 0.249998
O O7 0.353964 0.856235 0.028586
O O8 0.449415 0.879192 0.974438
O O9 0.500000 0.069777 0.250000
O O10 0.500000 0.000000 0.000000
O O11 0.077116 0.750000 0.561237
O O12 0.050585 0.620808 0.474440
O O13 0.500000 0.000000 0.500000
O O14 0.291376 0.250000 0.903709
O O15 0.250000 0.127844 0.000000
#
# Coordination Sequence:
#
# PCOD8281553 Si02
#       6
#    16  16   8  16   8  16
#     4   8  14  25  44  72 104 135 164 197 241 291
#     4   9  18  34  55  78 106 138 169 205 252 302
#     4  12  25  38  53  73  99 133 173 216 261 306
#     4   9  18  34  55  78 106 138 169 205 252 302
#     4  12  25  38  53  73  99 133 173 216 261 306
#     4   8  14  25  44  72 104 135 164 197 241 291
#
# _framework density 18.415274
#
# number of rings (size 3 to 8) (size 9 to 14) (size 15 to 20)
#    0.000    2.800    0.000    4.800    0.000    4.800 
#    0.000    4.000    0.000    1.200    0.000    8.400 
#    0.000    0.000    0.000    0.000    0.000    0.000 
#
# Total GULP energy -495702.742917 kJ/mol
# GULP energy per Si atom -12392.568573 kJ/mol
# Density = 1.837336 g / cm^3
# Si number density = 18.415274 Si / 1000 Ang^3
#
#
#
# Elastic Constant Matrix: (Units=GPa)
#
#
# Indices 1 2 3 4 5 6 
#
# 1 178.6215 49.5507 87.8696 0.0000 0.0000 0.0000
# 2 49.5507 50.1119 46.8792 0.0000 0.0000 0.0000
# 3 87.8696 46.8792 121.3213 0.0000 0.0000 0.0000
# 4 0.0000 0.0000 0.0000 23.2815 0.0000 0.0000
# 5 0.0000 0.0000 0.0000 0.0000 41.5043 0.0000
# 6 0.0000 0.0000 0.0000 0.0000 0.0000 -5.6956
#
#
#
# Elastic Compliance Matrix: (Units=1/GPa)
#
#
# Indices 1 2 3 4 5 6 
#
# 1 0.009313 -0.004540 -0.004991 0.000000 0.000000 0.000000
# 2 -0.004540 0.033465 -0.009643 0.000000 0.000000 0.000000
# 3 -0.004991 -0.009643 0.015584 0.000000 0.000000 0.000000
# 4 0.000000 0.000000 0.000000 0.042953 0.000000 0.000000
# 5 0.000000 0.000000 0.000000 0.000000 0.024094 0.000000
# 6 0.000000 0.000000 0.000000 0.000000 0.000000 -0.175576
#
#
# Mechanical properties :
#
#
# Convention : Reuss Voigt Hill
#
# Bulk Modulus (GPa) = 49.96463 79.85041 64.90752
# Shear Modulus (GPa) = -971.24164 22.86840 -474.18662
#
# Velocity S-wave (km/s) = -22.99034 3.52777 -16.06410
# Velocity P-wave (km/s) = 26.02979 7.74910 17.57130
#
# Compressibility (1/GPa) = 0.02001416
#
# Stress axis : x y z
#
# Youngs Moduli (GPa) = 107.37702 29.88166 64.17005
#
# Poissons Ratio (x) = 0.13565 0.32027
# Poissons Ratio (y) = 0.48746 0.61881
# Poissons Ratio (z) = 0.53592 0.28816
#
# Static dielectric constant tensor:
#      x y z
#    x 3.739500 0.000000 0.000000 
#    y 0.000000 2.960960 0.000000 
#    z 0.000000 0.000000 3.564580 
# 
# 
# High freq. dielectric constant tensor:
#      x y z
#    x 1.737970 0.000000 0.000000 
#    y 0.000000 1.664010 0.000000 
#    z 0.000000 0.000000 1.705900 
# 
# From -- ./inp_files/13557.got.cif
#   From: 2010.03.12/outbox.cif.g09.slc.cpg/sg67_7_cif.got.tgz:13557.got - 2010.04.10 22:41:39.
