data_PCOD8281546
_publ_section_title
;
Structure prediction by ZEFSAII (Michael W. Deem and Ramdas Pophale) SiO2 
 PCOD8281546
Probable space group: C M M A
;
_chemical_formula_sum "Si O2"
_cell_formula_units_Z 104
_cell_length_a 30.125798
_cell_length_b 9.189605
_cell_length_c 23.189430
_cell_angle_alpha 90.000000
_cell_angle_beta 90.000000
_cell_angle_gamma 90.000000
_cell_volume 6419.858824
_symmetry_space_group_name_H-M "C M M A"
_symmetry_group_IT_number 67
_symmetry_cell_setting 'orthorhombic'
loop_
_space_group_symop_operation_xyz
x,y,z
-x,1/2-y,z
x,-y,-z
-x,1/2+y,-z
-x,-y,-z
x,1/2+y,-z
-x,y,z
x,1/2-y,z
1/2+x,1/2+y,z
1/2-x,-y,z
1/2+x,1/2-y,-z
1/2-x,y,-z
1/2-x,1/2-y,-z
1/2+x,y,-z
1/2-x,1/2+y,z
1/2+x,-y,z
loop_
_atom_site_type_symbol
_atom_site_label
_atom_site_fract_x
_atom_site_fract_y
_atom_site_fract_z
Si Si1 0.794345 0.575758 0.818669
Si Si2 0.079146 0.412362 0.105108
Si Si3 0.384510 0.585397 0.231473
Si Si4 0.947383 0.086038 0.554950
Si Si5 0.673884 0.582270 0.057026
Si Si6 0.000000 0.419476 0.940349
Si Si7 0.948970 0.076992 0.329542
O O1 0.791303 0.750000 0.815453
O O2 0.750000 0.500000 0.794872
O O3 0.835201 0.517705 0.778530
O O4 0.801555 0.526278 0.885166
O O5 0.060912 0.250000 0.091021
O O6 0.089837 0.422563 0.171874
O O7 0.121543 0.444200 0.065301
O O8 0.043385 0.536074 0.094556
O O9 0.377316 0.750000 0.251041
O O10 0.415623 0.512817 0.280456
O O11 0.927917 0.250000 0.556478
O O12 0.000000 0.092364 0.549921
O O13 0.927524 0.000000 0.500000
O O14 0.933168 0.999566 0.611993
O O15 0.684652 0.750000 0.047186
O O16 0.691059 0.500000 0.000000
O O17 0.000000 0.250000 0.951130
O O18 0.000000 0.500000 0.000000
O O19 0.945125 0.250000 0.337038
O O20 0.000000 0.035411 0.313886
#
# Coordination Sequence:
#
# PCOD8281546 Si02
#       7
#    16  16  16  16  16   8  16
#     4   9  18  33  49  67  89 113 144 181 225 272
#     4   9  18  33  50  64  82 112 146 183 224 266
#     4   8  16  31  50  69  90 117 151 187 221 267
#     4   9  16  26  40  60  90 127 161 194 226 255
#     4   9  18  31  47  66  86 108 137 177 222 272
#     4  12  24  34  44  62  84 110 145 186 225 268
#     4   9  16  26  44  69  92 121 159 190 219 261
#
# _framework density 16.199733999999999
#
# number of rings (size 3 to 8) (size 9 to 14) (size 15 to 20)
#    0.000    2.923    0.000    3.462    1.077    4.615 
#    0.000    5.385    0.000    0.000    0.000    0.000 
#    0.000    0.615    0.000    7.077    0.000    2.462 
#
# Total GULP energy -644449.701861 kJ/mol
# GULP energy per Si atom -12393.263497 kJ/mol
# Density = 1.616286 g / cm^3
# Si number density = 16.199734 Si / 1000 Ang^3
#
#
#
# Elastic Constant Matrix: (Units=GPa)
#
#
# Indices 1 2 3 4 5 6 
#
# 1 88.1953 33.2131 44.5848 0.0000 0.0000 0.0000
# 2 33.2131 59.1188 28.2585 0.0000 0.0000 0.0000
# 3 44.5848 28.2585 97.7334 0.0000 0.0000 0.0000
# 4 0.0000 0.0000 0.0000 22.1713 0.0000 0.0000
# 5 0.0000 0.0000 0.0000 0.0000 12.1452 0.0000
# 6 0.0000 0.0000 0.0000 0.0000 0.0000 19.7047
#
#
#
# Elastic Compliance Matrix: (Units=1/GPa)
#
#
# Indices 1 2 3 4 5 6 
#
# 1 0.016736 -0.006676 -0.005705 0.000000 0.000000 0.000000
# 2 -0.006676 0.022291 -0.003400 0.000000 0.000000 0.000000
# 3 -0.005705 -0.003400 0.013817 0.000000 0.000000 0.000000
# 4 0.000000 0.000000 0.000000 0.045103 0.000000 0.000000
# 5 0.000000 0.000000 0.000000 0.000000 0.082337 0.000000
# 6 0.000000 0.000000 0.000000 0.000000 0.000000 0.050749
#
#
# Mechanical properties :
#
#
# Convention : Reuss Voigt Hill
#
# Bulk Modulus (GPa) = 46.98362 50.79558 48.88960
# Shear Modulus (GPa) = 18.53989 20.07031 19.30510
#
# Velocity S-wave (km/s) = 3.38665 3.52366 3.45584
# Velocity P-wave (km/s) = 6.66020 6.92667 6.79474
#
# Compressibility (1/GPa) = 0.02128401
#
# Stress axis : x y z
#
# Youngs Moduli (GPa) = 59.75032 44.86206 72.37298
#
# Poissons Ratio (x) = 0.29949 0.41287
# Poissons Ratio (y) = 0.39888 0.24604
# Poissons Ratio (z) = 0.34086 0.15252
#
# Static dielectric constant tensor:
#      x y z
#    x 2.995610 0.000000 0.000000 
#    y 0.000000 3.095760 0.000000 
#    z 0.000000 0.000000 3.046800 
# 
# 
# High freq. dielectric constant tensor:
#      x y z
#    x 1.600630 0.000000 0.000000 
#    y 0.000000 1.608260 0.000000 
#    z 0.000000 0.000000 1.610980 
# 
# From -- ./inp_files/41137.got.cif
#   From: 2010.03.12/outbox.cif.g09.slc.cpg/sg67_21_cif.got.tgz:41137.got - 2010.04.10 22:41:39.
