data_PCOD8281481
_publ_section_title
;
Structure prediction by ZEFSAII (Michael W. Deem and Ramdas Pophale) SiO2 
 PCOD8281481
Probable space group: C M M A
;
_chemical_formula_sum "Si O2"
_cell_formula_units_Z 72
_cell_length_a 15.986110
_cell_length_b 8.619773
_cell_length_c 24.415692
_cell_angle_alpha 90.000000
_cell_angle_beta 90.000000
_cell_angle_gamma 90.000000
_cell_volume 3364.400305
_symmetry_space_group_name_H-M "C M M A"
_symmetry_group_IT_number 67
_symmetry_cell_setting 'orthorhombic'
loop_
_space_group_symop_operation_xyz
x,y,z
-x,1/2-y,z
x,-y,-z
-x,1/2+y,-z
-x,-y,-z
x,1/2+y,-z
-x,y,z
x,1/2-y,z
1/2+x,1/2+y,z
1/2-x,-y,z
1/2+x,1/2-y,-z
1/2-x,y,-z
1/2-x,1/2-y,-z
1/2+x,y,-z
1/2-x,1/2+y,z
1/2+x,-y,z
loop_
_atom_site_type_symbol
_atom_site_label
_atom_site_fract_x
_atom_site_fract_y
_atom_site_fract_z
Si Si1 0.338302 0.434042 0.170241
Si Si2 0.661497 0.567131 0.621146
Si Si3 0.000000 0.434316 0.439520
Si Si4 0.094853 0.926391 0.725845
Si Si5 0.404905 0.932981 0.944574
O O1 0.341092 0.250000 0.171663
O O2 0.250000 0.500000 0.189146
O O3 0.404466 0.500691 0.213469
O O4 0.358132 0.496800 0.109210
O O5 0.660101 0.750000 0.611977
O O6 0.750000 0.500000 0.599312
O O7 0.584461 0.491064 0.589398
O O8 0.652624 0.526590 0.685405
O O9 0.000000 0.500000 0.500000
O O10 0.000000 0.250000 0.439769
O O11 0.128188 0.750000 0.726983
O O12 0.000000 0.931486 0.704165
O O13 0.500000 0.992226 0.940750
O O14 0.399861 0.750000 0.946964
O O15 0.362697 0.000000 0.000000
#
# Coordination Sequence:
#
# PCOD8281481 Si02
#       5
#    16  16   8  16  16
#     4  11  23  38  56  82 118 156 201 253 312 379
#     4  12  25  44  71 103 140 184 229 280 339 396
#     4  12  26  48  74 106 144 184 233 282 333 396
#     4  11  23  40  64  93 127 166 212 266 324 389
#     4   9  19  36  57  79 105 143 191 246 306 374
#
# _framework density 21.400545000000001
#
# number of rings (size 3 to 8) (size 9 to 14) (size 15 to 20)
#    0.000    1.111    1.111    5.667    0.000    4.889 
#    0.000    6.667    0.000    0.000    0.000    0.000 
#    0.000    0.000    0.000    0.000    0.000    0.000 
#
# Total GULP energy -446523.414603 kJ/mol
# GULP energy per Si atom -12403.428183 kJ/mol
# Density = 2.135184 g / cm^3
# Si number density = 21.400545 Si / 1000 Ang^3
#
#
#
# Elastic Constant Matrix: (Units=GPa)
#
#
# Indices 1 2 3 4 5 6 
#
# 1 119.8786 52.1402 47.9297 0.0000 0.0000 0.0000
# 2 52.1402 143.5269 51.7271 0.0000 0.0000 0.0000
# 3 47.9297 51.7271 132.9195 0.0000 0.0000 0.0000
# 4 0.0000 0.0000 0.0000 39.8989 0.0000 0.0000
# 5 0.0000 0.0000 0.0000 0.0000 23.2871 0.0000
# 6 0.0000 0.0000 0.0000 0.0000 0.0000 32.2969
#
#
#
# Elastic Compliance Matrix: (Units=1/GPa)
#
#
# Indices 1 2 3 4 5 6 
#
# 1 0.010694 -0.002902 -0.002727 0.000000 0.000000 0.000000
# 2 -0.002902 0.008892 -0.002414 0.000000 0.000000 0.000000
# 3 -0.002727 -0.002414 0.009446 0.000000 0.000000 0.000000
# 4 0.000000 0.000000 0.000000 0.025063 0.000000 0.000000
# 5 0.000000 0.000000 0.000000 0.000000 0.042942 0.000000
# 6 0.000000 0.000000 0.000000 0.000000 0.000000 0.030963
#
#
# Mechanical properties :
#
#
# Convention : Reuss Voigt Hill
#
# Bulk Modulus (GPa) = 77.24273 77.76878 77.50575
# Shear Modulus (GPa) = 33.69246 35.39845 34.54546
#
# Velocity S-wave (km/s) = 3.97214 4.07146 4.02211
# Velocity P-wave (km/s) = 7.56369 7.64990 7.60692
#
# Compressibility (1/GPa) = 0.01294620
#
# Stress axis : x y z
#
# Youngs Moduli (GPa) = 93.50746 112.46602 105.86543
#
# Poissons Ratio (x) = 0.32641 0.28868
# Poissons Ratio (y) = 0.27138 0.25553
# Poissons Ratio (z) = 0.25498 0.27146
#
# Static dielectric constant tensor:
#      x y z
#    x 3.877980 0.000000 0.000000 
#    y 0.000000 3.839240 0.000000 
#    z 0.000000 0.000000 4.037590 
# 
# 
# High freq. dielectric constant tensor:
#      x y z
#    x 1.841470 0.000000 0.000000 
#    y 0.000000 1.843640 0.000000 
#    z 0.000000 0.000000 1.848980 
# 
# From -- ./inp_files/42132.got.cif
#   From: 2010.03.12/outbox.cif.g09.slc.cpg/sg67_22_cif.got.tgz:42132.got - 2010.04.10 22:41:39.
