data_PCOD8281789
_publ_section_title
;
Structure prediction by ZEFSAII (Michael W. Deem and Ramdas Pophale) SiO2 
 PCOD8281789
Probable space group: C C C A
;
_chemical_formula_sum "Si O2"
_cell_formula_units_Z 112
_cell_length_a 16.387753
_cell_length_b 23.328266
_cell_length_c 13.487544
_cell_angle_alpha 90.000000
_cell_angle_beta 90.000000
_cell_angle_gamma 90.000000
_cell_volume 5156.259223
_symmetry_space_group_name_H-M "C C C A"
_symmetry_group_IT_number 68
_space_group.IT_coordinate_system_code '2'
_symmetry_cell_setting 'orthorhombic'
loop_
_space_group_symop_operation_xyz
x,y,z
-x,1/2-y,z
x,1/2-y,1/2-z
-x,y,1/2-z
-x,-y,-z
x,1/2+y,-z
-x,1/2+y,1/2+z
x,-y,1/2+z
1/2+x,1/2+y,z
1/2-x,-y,z
1/2+x,-y,1/2-z
1/2-x,1/2+y,1/2-z
1/2-x,1/2-y,-z
1/2+x,y,-z
1/2-x,y,1/2+z
1/2+x,1/2-y,1/2+z
loop_
_atom_site_type_symbol
_atom_site_label
_atom_site_fract_x
_atom_site_fract_y
_atom_site_fract_z
Si Si1 0.423023 0.219400 0.053548
Si Si2 0.294515 0.215280 0.342292
Si Si3 0.890333 0.592214 0.083779
Si Si4 0.609478 0.709178 0.336300
Si Si5 0.538556 0.026985 0.147511
Si Si6 0.633903 0.582504 0.361455
Si Si7 0.306203 0.083559 0.289019
O O1 0.500000 0.250000 0.104624
O O2 0.344466 0.260596 0.064285
O O3 0.415512 0.157570 0.105538
O O4 0.442138 0.213524 0.936594
O O5 0.331089 0.250000 0.250000
O O6 0.200593 0.230886 0.359379
O O7 0.305489 0.148745 0.323116
O O8 0.830247 0.573147 0.173361
O O9 0.970256 0.550253 0.070197
O O10 0.843703 0.591059 0.978153
O O11 0.571854 0.750000 0.250000
O O12 0.609886 0.641848 0.306210
O O13 0.500000 0.047776 0.250000
O O14 0.627886 0.055300 0.136477
O O15 0.555125 0.958885 0.146842
O O16 0.715327 0.557333 0.307458
#
# Coordination Sequence:
#
# PCOD8281789 Si02
#       7
#    16  16  16  16  16  16  16
#     4  11  21  34  56  90 120 155 197 243 305 370
#     4  10  18  34  59  84 117 153 192 243 299 350
#     4  10  21  39  61  88 125 157 200 254 307 363
#     4   9  21  39  57  82 118 160 199 248 291 358
#     4  10  21  39  61  86 122 158 197 253 306 360
#     4  10  21  40  62  86 118 162 208 246 302 366
#     4  10  20  38  61  90 118 155 202 253 296 357
#
# _framework density 21.721173
#
# number of rings (size 3 to 8) (size 9 to 14) (size 15 to 20)
#    0.000    2.000    1.429    2.143    0.000    0.571 
#    5.143    7.143    0.000    0.000    0.000    0.000 
#    0.000    0.000    0.000    0.000    0.000    0.000 
#
# Total GULP energy -694090.047922 kJ/mol
# GULP energy per Si atom -12394.465141 kJ/mol
# Density = 2.167173 g / cm^3
# Si number density = 21.721173 Si / 1000 Ang^3
#
#
#
# Elastic Constant Matrix: (Units=GPa)
#
#
# Indices 1 2 3 4 5 6 
#
# 1 92.0704 37.5474 16.8278 0.0000 0.0000 0.0000
# 2 37.5474 81.7366 15.8661 0.0000 0.0000 0.0000
# 3 16.8278 15.8661 64.9370 0.0000 0.0000 0.0000
# 4 0.0000 0.0000 0.0000 14.7114 0.0000 0.0000
# 5 0.0000 0.0000 0.0000 0.0000 19.4331 0.0000
# 6 0.0000 0.0000 0.0000 0.0000 0.0000 28.0164
#
#
#
# Elastic Compliance Matrix: (Units=1/GPa)
#
#
# Indices 1 2 3 4 5 6 
#
# 1 0.013633 -0.005855 -0.002102 0.000000 0.000000 0.000000
# 2 -0.005855 0.015358 -0.002235 0.000000 0.000000 0.000000
# 3 -0.002102 -0.002235 0.016491 0.000000 0.000000 0.000000
# 4 0.000000 0.000000 0.000000 0.067975 0.000000 0.000000
# 5 0.000000 0.000000 0.000000 0.000000 0.051458 0.000000
# 6 0.000000 0.000000 0.000000 0.000000 0.000000 0.035693
#
#
# Mechanical properties :
#
#
# Convention : Reuss Voigt Hill
#
# Bulk Modulus (GPa) = 39.84555 42.13631 40.99093
# Shear Modulus (GPa) = 21.80001 23.66570 22.73285
#
# Velocity S-wave (km/s) = 3.17145 3.30437 3.23859
# Velocity P-wave (km/s) = 5.63868 5.83090 5.73559
#
# Compressibility (1/GPa) = 0.02509690
#
# Stress axis : x y z
#
# Youngs Moduli (GPa) = 73.35106 65.11387 60.64096
#
# Poissons Ratio (x) = 0.38121 0.12749
# Poissons Ratio (y) = 0.42944 0.13555
# Poissons Ratio (z) = 0.15422 0.14554
#
# Static dielectric constant tensor:
#      x y z
#    x 3.900260 0.000000 0.000000 
#    y 0.000000 3.932980 0.000000 
#    z 0.000000 0.000000 3.729960 
# 
# 
# High freq. dielectric constant tensor:
#      x y z
#    x 1.849770 0.000000 0.000000 
#    y 0.000000 1.859400 0.000000 
#    z 0.000000 0.000000 1.835660 
# 
# From -- ./inp_files/22726.got.cif
#   From: 2010.03.12/outbox.cif.g09.slc.cpg/sg68_12_cif.got.tgz:22726.got - 2010.04.10 23:14:56.
