data_PCOD8281697
_publ_section_title
;
Structure prediction by ZEFSAII (Michael W. Deem and Ramdas Pophale) SiO2 
 PCOD8281697
Probable space group: C C C A
;
_chemical_formula_sum "Si O2"
_cell_formula_units_Z 88
_cell_length_a 5.003226
_cell_length_b 27.577216
_cell_length_c 30.991005
_cell_angle_alpha 90.000000
_cell_angle_beta 90.000000
_cell_angle_gamma 90.000000
_cell_volume 4275.985282
_symmetry_space_group_name_H-M "C C C A"
_symmetry_group_IT_number 68
_space_group.IT_coordinate_system_code '2'
_symmetry_cell_setting 'orthorhombic'
loop_
_space_group_symop_operation_xyz
x,y,z
-x,1/2-y,z
x,1/2-y,1/2-z
-x,y,1/2-z
-x,-y,-z
x,1/2+y,-z
-x,1/2+y,1/2+z
x,-y,1/2+z
1/2+x,1/2+y,z
1/2-x,-y,z
1/2+x,-y,1/2-z
1/2-x,1/2+y,1/2-z
1/2-x,1/2-y,-z
1/2+x,y,-z
1/2-x,y,1/2+z
1/2+x,1/2-y,1/2+z
loop_
_atom_site_type_symbol
_atom_site_label
_atom_site_fract_x
_atom_site_fract_y
_atom_site_fract_z
Si Si1 0.398604 0.674822 0.794070
Si Si2 0.599591 0.198676 0.388737
Si Si3 0.088837 0.864156 0.903057
Si Si4 0.259546 0.555634 0.027768
Si Si5 0.411421 0.114483 0.808920
Si Si6 0.500000 0.530071 0.250000
O O1 0.500000 0.702683 0.750000
O O2 0.352250 0.707770 0.836800
O O3 0.615250 0.634705 0.805862
O O4 0.124198 0.647299 0.782400
O O5 0.500000 0.250000 0.408312
O O6 0.373624 0.160120 0.398018
O O7 0.865743 0.177947 0.412893
O O8 0.127094 0.907027 0.937109
O O9 0.993060 0.888279 0.858469
O O10 0.250000 0.500000 0.045069
O O11 0.455388 0.564740 0.986995
O O12 0.404271 0.060747 0.790856
O O13 0.750000 0.500000 0.233198
#
# Coordination Sequence:
#
# PCOD8281697 Si02
#       6
#    16  16  16  16  16   8
#     4  10  17  32  54  71 103 147 189 242 279 321
#     4  10  21  35  56  86 116 154 197 235 284 340
#     4  10  21  38  61  83 115 156 184 234 295 344
#     4  10  21  39  65  93 117 143 184 241 296 350
#     4  10  20  34  50  73 105 148 190 224 277 338
#     4  12  22  32  48  72 105 144 187 234 278 324
#
# _framework density 20.580052999999999
#
# number of rings (size 3 to 8) (size 9 to 14) (size 15 to 20)
#    0.000    1.818    1.818    2.727    0.000    1.091 
#    0.000    2.727    0.000   17.455    0.000    0.000 
#    0.000    0.000    0.000    0.000    0.000    0.000 
#
# Total GULP energy -545167.203791 kJ/mol
# GULP energy per Si atom -12390.163723 kJ/mol
# Density = 2.053321 g / cm^3
# Si number density = 20.580053 Si / 1000 Ang^3
#
#
#
# Elastic Constant Matrix: (Units=GPa)
#
#
# Indices 1 2 3 4 5 6 
#
# 1 101.5768 15.9013 9.8237 0.0000 0.0000 0.0000
# 2 15.9013 87.0266 32.8767 0.0000 0.0000 0.0000
# 3 9.8237 32.8767 65.7366 0.0000 0.0000 0.0000
# 4 0.0000 0.0000 0.0000 16.2490 0.0000 0.0000
# 5 0.0000 0.0000 0.0000 0.0000 24.1955 0.0000
# 6 0.0000 0.0000 0.0000 0.0000 0.0000 32.0343
#
#
#
# Elastic Compliance Matrix: (Units=1/GPa)
#
#
# Indices 1 2 3 4 5 6 
#
# 1 0.010163 -0.001582 -0.000727 0.000000 0.000000 0.000000
# 2 -0.001582 0.014414 -0.006972 0.000000 0.000000 0.000000
# 3 -0.000727 -0.006972 0.018808 0.000000 0.000000 0.000000
# 4 0.000000 0.000000 0.000000 0.061542 0.000000 0.000000
# 5 0.000000 0.000000 0.000000 0.000000 0.041330 0.000000
# 6 0.000000 0.000000 0.000000 0.000000 0.000000 0.031217
#
#
# Mechanical properties :
#
#
# Convention : Reuss Voigt Hill
#
# Bulk Modulus (GPa) = 40.28879 41.28261 40.78570
# Shear Modulus (GPa) = 24.47251 27.54497 26.00874
#
# Velocity S-wave (km/s) = 3.45213 3.66243 3.55883
# Velocity P-wave (km/s) = 5.95892 6.16340 6.06202
#
# Compressibility (1/GPa) = 0.02482080
#
# Stress axis : x y z
#
# Youngs Moduli (GPa) = 98.39813 69.37793 53.16886
#
# Poissons Ratio (x) = 0.10976 0.03868
# Poissons Ratio (y) = 0.15568 0.37071
# Poissons Ratio (z) = 0.07158 0.48373
#
# Static dielectric constant tensor:
#      x y z
#    x 3.884650 0.000000 0.000000 
#    y 0.000000 3.490450 0.000000 
#    z 0.000000 0.000000 3.663750 
# 
# 
# High freq. dielectric constant tensor:
#      x y z
#    x 1.829530 0.000000 0.000000 
#    y 0.000000 1.786410 0.000000 
#    z 0.000000 0.000000 1.778600 
# 
# From -- ./inp_files/53254.got.cif
#   From: 2010.03.12/outbox.cif.g09.slc.cpg/sg68_27_cif.got.tgz:53254.got - 2010.04.10 23:14:56.
