data_PCOD8281954
_publ_section_title
;
Structure prediction by ZEFSAII (Michael W. Deem and Ramdas Pophale) SiO2 
 PCOD8281954
Probable space group: C C C A
;
_chemical_formula_sum "Si O2"
_cell_formula_units_Z 80
_cell_length_a 26.263452
_cell_length_b 8.020182
_cell_length_c 18.596990
_cell_angle_alpha 90.000000
_cell_angle_beta 90.000000
_cell_angle_gamma 90.000000
_cell_volume 3917.226549
_symmetry_space_group_name_H-M "C C C A"
_symmetry_group_IT_number 68
_space_group.IT_coordinate_system_code '2'
_symmetry_cell_setting 'orthorhombic'
loop_
_space_group_symop_operation_xyz
x,y,z
-x,1/2-y,z
x,1/2-y,1/2-z
-x,y,1/2-z
-x,-y,-z
x,1/2+y,-z
-x,1/2+y,1/2+z
x,-y,1/2+z
1/2+x,1/2+y,z
1/2-x,-y,z
1/2+x,-y,1/2-z
1/2-x,1/2+y,1/2-z
1/2-x,1/2-y,-z
1/2+x,y,-z
1/2-x,y,1/2+z
1/2+x,1/2-y,1/2+z
loop_
_atom_site_type_symbol
_atom_site_label
_atom_site_fract_x
_atom_site_fract_y
_atom_site_fract_z
Si Si1 0.943220 0.785962 0.900122
Si Si2 0.150551 0.310887 0.173674
Si Si3 0.742953 0.695344 0.081156
Si Si4 0.395407 0.424389 0.477605
Si Si5 0.658133 0.127011 0.092441
O O1 0.904396 0.776403 0.833150
O O2 0.000000 0.750000 0.872559
O O3 0.936509 0.965560 0.935690
O O4 0.928093 0.647647 0.957761
O O5 0.173252 0.250000 0.250000
O O6 0.188031 0.248348 0.110680
O O7 0.142638 0.509863 0.160412
O O8 0.750000 0.500000 0.094843
O O9 0.786429 0.809194 0.117447
O O10 0.750000 0.750000 0.000000
O O11 0.376334 0.290915 0.418933
O O12 0.347684 0.526010 0.515153
#
# Coordination Sequence:
#
# PCOD8281954 Si02
#       5
#    16  16  16  16  16
#     4  10  19  35  59  85 115 151 194 248 299 346
#     4  11  25  40  54  81 117 158 201 239 291 358
#     4  12  22  36  61  89 115 149 191 240 296 355
#     4   9  18  34  59  93 118 143 190 247 304 348
#     4  10  19  35  58  84 121 154 185 238 296 359
#
# _framework density 20.422612000000001
#
# number of rings (size 3 to 8) (size 9 to 14) (size 15 to 20)
#    0.000    1.600    0.000    8.400    0.000    2.000 
#    0.000    3.000    0.000    0.000    0.000   14.000 
#    0.000    0.000    0.000    0.000    0.000    0.000 
#
# Total GULP energy -495584.422654 kJ/mol
# GULP energy per Si atom -12389.610566 kJ/mol
# Density = 2.037613 g / cm^3
# Si number density = 20.422612 Si / 1000 Ang^3
#
#
#
# Elastic Constant Matrix: (Units=GPa)
#
#
# Indices 1 2 3 4 5 6 
#
# 1 135.6410 35.7731 30.7903 0.0000 0.0000 0.0000
# 2 35.7731 124.8868 33.5790 0.0000 0.0000 0.0000
# 3 30.7903 33.5790 81.2921 0.0000 0.0000 0.0000
# 4 0.0000 0.0000 0.0000 22.4607 0.0000 0.0000
# 5 0.0000 0.0000 0.0000 0.0000 16.1870 0.0000
# 6 0.0000 0.0000 0.0000 0.0000 0.0000 25.8181
#
#
#
# Elastic Compliance Matrix: (Units=1/GPa)
#
#
# Indices 1 2 3 4 5 6 
#
# 1 0.008390 -0.001742 -0.002458 0.000000 0.000000 0.000000
# 2 -0.001742 0.009369 -0.003210 0.000000 0.000000 0.000000
# 3 -0.002458 -0.003210 0.014558 0.000000 0.000000 0.000000
# 4 0.000000 0.000000 0.000000 0.044522 0.000000 0.000000
# 5 0.000000 0.000000 0.000000 0.000000 0.061778 0.000000
# 6 0.000000 0.000000 0.000000 0.000000 0.000000 0.038733
#
#
# Mechanical properties :
#
#
# Convention : Reuss Voigt Hill
#
# Bulk Modulus (GPa) = 57.15459 60.23388 58.69424
# Shear Modulus (GPa) = 25.25199 29.00498 27.12849
#
# Velocity S-wave (km/s) = 3.52017 3.77269 3.64862
# Velocity P-wave (km/s) = 6.67599 6.96673 6.82291
#
# Compressibility (1/GPa) = 0.01749641
#
# Stress axis : x y z
#
# Youngs Moduli (GPa) = 119.19109 106.72933 68.68885
#
# Poissons Ratio (x) = 0.18596 0.16884
# Poissons Ratio (y) = 0.20767 0.22051
# Poissons Ratio (z) = 0.29298 0.34263
#
# Static dielectric constant tensor:
#      x y z
#    x 4.262900 0.000000 0.000000 
#    y 0.000000 4.483390 0.000000 
#    z 0.000000 0.000000 3.479000 
# 
# 
# High freq. dielectric constant tensor:
#      x y z
#    x 1.792200 0.000000 0.000000 
#    y 0.000000 1.820090 0.000000 
#    z 0.000000 0.000000 1.750220 
# 
# From -- ./inp_files/33978.got.cif
#   From: 2010.03.12/outbox.cif.g09.slc.cpg/sg68_17_cif.got.tgz:33978.got - 2010.04.10 23:14:56.
