data_PCOD8281985
_publ_section_title
;
Structure prediction by ZEFSAII (Michael W. Deem and Ramdas Pophale) SiO2 
 PCOD8281985
Probable space group: C C C A
;
_chemical_formula_sum "Si O2"
_cell_formula_units_Z 88
_cell_length_a 20.027240
_cell_length_b 13.721316
_cell_length_c 15.340229
_cell_angle_alpha 90.000000
_cell_angle_beta 90.000000
_cell_angle_gamma 90.000000
_cell_volume 4215.496289
_symmetry_space_group_name_H-M "C C C A"
_symmetry_group_IT_number 68
_space_group.IT_coordinate_system_code '2'
_symmetry_cell_setting 'orthorhombic'
loop_
_space_group_symop_operation_xyz
x,y,z
-x,1/2-y,z
x,1/2-y,1/2-z
-x,y,1/2-z
-x,-y,-z
x,1/2+y,-z
-x,1/2+y,1/2+z
x,-y,1/2+z
1/2+x,1/2+y,z
1/2-x,-y,z
1/2+x,-y,1/2-z
1/2-x,1/2+y,1/2-z
1/2-x,1/2-y,-z
1/2+x,y,-z
1/2-x,y,1/2+z
1/2+x,1/2-y,1/2+z
loop_
_atom_site_type_symbol
_atom_site_label
_atom_site_fract_x
_atom_site_fract_y
_atom_site_fract_z
Si Si1 0.395022 0.681849 0.173709
Si Si2 0.209563 0.303940 0.427013
Si Si3 0.665474 0.322584 0.171205
Si Si4 0.893757 0.156697 0.558822
Si Si5 0.000000 0.750000 0.544838
Si Si6 0.578836 0.530461 0.774586
O O1 0.421082 0.750000 0.250000
O O2 0.326131 0.722443 0.133570
O O3 0.450717 0.682061 0.099711
O O4 0.389110 0.576063 0.217977
O O5 0.250000 0.250000 0.500000
O O6 0.263102 0.361815 0.366312
O O7 0.157824 0.373969 0.480127
O O8 0.681074 0.250000 0.250000
O O9 0.627123 0.261539 0.097403
O O10 0.618774 0.412451 0.199272
O O11 0.964689 0.169571 0.514070
O O12 0.903740 0.076380 0.632041
O O13 0.500000 0.531011 0.750000
#
# Coordination Sequence:
#
# PCOD8281985 Si02
#       6
#    16  16  16  16   8  16
#     4  11  23  40  59  83 119 161 201 243 295 363
#     4   9  19  40  61  80 115 157 199 248 303 354
#     4   9  18  36  61  89 120 156 201 254 306 363
#     4   9  19  35  59  90 119 155 197 252 307 358
#     4  10  19  36  59  80 118 158 194 246 301 352
#     4  11  22  37  62  94 125 158 202 251 309 373
#
# _framework density 20.875360000000001
#
# number of rings (size 3 to 8) (size 9 to 14) (size 15 to 20)
#    0.000    2.182    0.000    3.000    0.000    3.273 
#    0.000   27.273    0.000    0.000    0.000    0.000 
#    0.000    0.000    0.000    0.000    0.000    0.000 
#
# Total GULP energy -545217.011651 kJ/mol
# GULP energy per Si atom -12391.295719 kJ/mol
# Density = 2.082785 g / cm^3
# Si number density = 20.875360 Si / 1000 Ang^3
#
#
#
# Elastic Constant Matrix: (Units=GPa)
#
#
# Indices 1 2 3 4 5 6 
#
# 1 139.3153 40.2819 60.1159 0.0000 0.0000 0.0000
# 2 40.2819 109.7516 43.8309 0.0000 0.0000 0.0000
# 3 60.1159 43.8309 103.5381 0.0000 0.0000 0.0000
# 4 0.0000 0.0000 0.0000 24.6093 0.0000 0.0000
# 5 0.0000 0.0000 0.0000 0.0000 43.2630 0.0000
# 6 0.0000 0.0000 0.0000 0.0000 0.0000 12.4741
#
#
#
# Elastic Compliance Matrix: (Units=1/GPa)
#
#
# Indices 1 2 3 4 5 6 
#
# 1 0.009804 -0.001595 -0.005017 0.000000 0.000000 0.000000
# 2 -0.001595 0.011225 -0.003826 0.000000 0.000000 0.000000
# 3 -0.005017 -0.003826 0.014191 0.000000 0.000000 0.000000
# 4 0.000000 0.000000 0.000000 0.040635 0.000000 0.000000
# 5 0.000000 0.000000 0.000000 0.000000 0.023114 0.000000
# 6 0.000000 0.000000 0.000000 0.000000 0.000000 0.080166
#
#
# Mechanical properties :
#
#
# Convention : Reuss Voigt Hill
#
# Bulk Modulus (GPa) = 69.71518 71.22915 70.47216
# Shear Modulus (GPa) = 24.41496 29.96103 27.18800
#
# Velocity S-wave (km/s) = 3.42359 3.79256 3.61279
# Velocity P-wave (km/s) = 7.00688 7.30570 7.15785
#
# Compressibility (1/GPa) = 0.01434408
#
# Stress axis : x y z
#
# Youngs Moduli (GPa) = 101.99847 89.08943 70.46693
#
# Poissons Ratio (x) = 0.14206 0.35356
# Poissons Ratio (y) = 0.16265 0.26960
# Poissons Ratio (z) = 0.51176 0.34085
#
# Static dielectric constant tensor:
#      x y z
#    x 3.861780 0.000000 0.000000 
#    y 0.000000 3.237800 0.000000 
#    z 0.000000 0.000000 4.617500 
# 
# 
# High freq. dielectric constant tensor:
#      x y z
#    x 1.834230 0.000000 0.000000 
#    y 0.000000 1.772360 0.000000 
#    z 0.000000 0.000000 1.844870 
# 
# From -- ./inp_files/24378.got.cif
#   From: 2010.03.12/outbox.cif.g09.slc.cpg/sg68_13_cif.got.tgz:24378.got - 2010.04.10 23:14:56.
