data_PCOD8281248
_publ_section_title
;
Structure prediction by ZEFSAII (Michael W. Deem and Ramdas Pophale) SiO2 
 PCOD8281248
Probable space group: C M M A
;
_chemical_formula_sum "Si O2"
_cell_formula_units_Z 88
_cell_length_a 21.789536
_cell_length_b 14.863015
_cell_length_c 12.903533
_cell_angle_alpha 90.000000
_cell_angle_beta 90.000000
_cell_angle_gamma 90.000000
_cell_volume 4178.914976
_symmetry_space_group_name_H-M "C M M A"
_symmetry_group_IT_number 67
_symmetry_cell_setting 'orthorhombic'
loop_
_space_group_symop_operation_xyz
x,y,z
-x,1/2-y,z
x,-y,-z
-x,1/2+y,-z
-x,-y,-z
x,1/2+y,-z
-x,y,z
x,1/2-y,z
1/2+x,1/2+y,z
1/2-x,-y,z
1/2+x,1/2-y,-z
1/2-x,y,-z
1/2-x,1/2-y,-z
1/2+x,y,-z
1/2-x,1/2+y,z
1/2+x,-y,z
loop_
_atom_site_type_symbol
_atom_site_label
_atom_site_fract_x
_atom_site_fract_y
_atom_site_fract_z
Si Si1 0.130873 0.109267 0.879007
Si Si2 0.071480 0.750000 0.265383
Si Si3 0.500000 0.400812 0.547027
Si Si4 0.256855 0.603960 0.229445
Si Si5 0.880594 0.100799 0.113374
Si Si6 0.906302 0.750000 0.494909
Si Si7 0.000000 0.348944 0.233357
Si Si8 0.281630 0.250000 0.607756
O O1 0.085461 0.162077 0.802912
O O2 0.200434 0.129673 0.844859
O O3 0.112748 0.005645 0.876064
O O4 0.122997 0.139864 0.997373
O O5 0.111642 0.750000 0.371985
O O6 0.000000 0.750000 0.297191
O O7 0.500000 0.500000 0.500000
O O8 0.441107 0.343923 0.512715
O O9 0.500000 0.417955 0.671006
O O10 0.250000 0.500000 0.261234
O O11 0.318485 0.630298 0.169384
O O12 0.258476 0.661165 0.333695
O O13 0.939982 0.143889 0.163793
O O14 0.853506 0.750000 0.581461
O O15 0.000000 0.250000 0.285367
O O16 0.250000 0.250000 0.500000
#
# Coordination Sequence:
#
# PCOD8281248 Si02
#       8
#    16   8   8  16  16   8   8   8
#     4  10  23  42  64 100 130 175 224 271 326 409
#     4  12  26  41  65  91 138 177 225 274 334 401
#     4  11  25  46  72  96 127 181 228 278 331 406
#     4  10  22  44  69  98 128 176 224 273 342 407
#     4  10  24  40  69  93 140 173 215 276 334 405
#     4  11  24  48  66  99 132 173 229 281 340 398
#     4  12  26  42  62 103 135 171 226 274 340 402
#     4  12  25  44  66  95 134 168 215 295 336 391
#
# _framework density 21.058098999999999
#
# number of rings (size 3 to 8) (size 9 to 14) (size 15 to 20)
#    0.000    1.273    1.818    3.273    7.636    3.273 
#    3.273    1.818    0.000    0.000    0.000    0.000 
#    0.000    0.000    0.000    0.000    0.000    0.000 
#
# Total GULP energy -545603.274031 kJ/mol
# GULP energy per Si atom -12400.074410 kJ/mol
# Density = 2.101017 g / cm^3
# Si number density = 21.058099 Si / 1000 Ang^3
#
#
#
# Elastic Constant Matrix: (Units=GPa)
#
#
# Indices 1 2 3 4 5 6 
#
# 1 112.5819 42.7436 46.8456 0.0000 0.0000 0.0000
# 2 42.7436 100.7495 58.0955 0.0000 0.0000 0.0000
# 3 46.8456 58.0955 177.1689 0.0000 0.0000 0.0000
# 4 0.0000 0.0000 0.0000 32.7569 0.0000 0.0000
# 5 0.0000 0.0000 0.0000 0.0000 37.6309 0.0000
# 6 0.0000 0.0000 0.0000 0.0000 0.0000 18.7122
#
#
#
# Elastic Compliance Matrix: (Units=1/GPa)
#
#
# Indices 1 2 3 4 5 6 
#
# 1 0.010987 -0.003682 -0.001698 0.000000 0.000000 0.000000
# 2 -0.003682 0.013474 -0.003445 0.000000 0.000000 0.000000
# 3 -0.001698 -0.003445 0.007223 0.000000 0.000000 0.000000
# 4 0.000000 0.000000 0.000000 0.030528 0.000000 0.000000
# 5 0.000000 0.000000 0.000000 0.000000 0.026574 0.000000
# 6 0.000000 0.000000 0.000000 0.000000 0.000000 0.053441
#
#
# Mechanical properties :
#
#
# Convention : Reuss Voigt Hill
#
# Bulk Modulus (GPa) = 71.25263 76.20775 73.73019
# Shear Modulus (GPa) = 30.38517 34.00771 32.19644
#
# Velocity S-wave (km/s) = 3.80270 4.02300 3.91440
# Velocity P-wave (km/s) = 7.29317 7.60574 7.45109
#
# Compressibility (1/GPa) = 0.01403457
#
# Stress axis : x y z
#
# Youngs Moduli (GPa) = 91.01787 74.21601 138.45180
#
# Poissons Ratio (x) = 0.27329 0.23503
# Poissons Ratio (y) = 0.33516 0.47692
# Poissons Ratio (z) = 0.15451 0.25565
#
# Static dielectric constant tensor:
#      x y z
#    x 3.589920 0.000000 0.000000 
#    y 0.000000 3.712720 0.000000 
#    z 0.000000 0.000000 5.014670 
# 
# 
# High freq. dielectric constant tensor:
#      x y z
#    x 1.831550 0.000000 0.000000 
#    y 0.000000 1.828920 0.000000 
#    z 0.000000 0.000000 1.840280 
# 
# From -- ./inp_files/21823.got.cif
#   From: 2010.03.12/outbox.cif.g09.slc.cpg/sg67_11_cif.got.tgz:21823.got - 2010.04.10 22:41:39.
