data_PCOD8281505
_publ_section_title
;
Structure prediction by ZEFSAII (Michael W. Deem and Ramdas Pophale) SiO2 
 PCOD8281505
Probable space group: C M M A
;
_chemical_formula_sum "Si O2"
_cell_formula_units_Z 56
_cell_length_a 8.931567
_cell_length_b 15.368799
_cell_length_c 19.550876
_cell_angle_alpha 90.000000
_cell_angle_beta 90.000000
_cell_angle_gamma 90.000000
_cell_volume 2683.699050
_symmetry_space_group_name_H-M "C M M A"
_symmetry_group_IT_number 67
_symmetry_cell_setting 'orthorhombic'
loop_
_space_group_symop_operation_xyz
x,y,z
-x,1/2-y,z
x,-y,-z
-x,1/2+y,-z
-x,-y,-z
x,1/2+y,-z
-x,y,z
x,1/2-y,z
1/2+x,1/2+y,z
1/2-x,-y,z
1/2+x,1/2-y,-z
1/2-x,y,-z
1/2-x,1/2-y,-z
1/2+x,y,-z
1/2-x,1/2+y,z
1/2+x,-y,z
loop_
_atom_site_type_symbol
_atom_site_label
_atom_site_fract_x
_atom_site_fract_y
_atom_site_fract_z
Si Si1 0.320640 0.250000 0.925675
Si Si2 0.831184 0.353652 0.433156
Si Si3 0.327536 0.348734 0.299253
Si Si4 0.176501 0.589159 0.150714
O O1 0.500000 0.250000 0.929293
O O2 0.263038 0.334416 0.886692
O O3 0.250000 0.250000 0.000000
O O4 0.815955 0.250000 0.432750
O O5 0.750000 0.392443 0.500000
O O6 0.760480 0.390646 0.363138
O O7 0.000000 0.385893 0.436250
O O8 0.500000 0.349815 0.319823
O O9 0.274342 0.250000 0.284577
O O10 0.295446 0.404470 0.231809
O O11 0.250000 0.500000 0.124262
O O12 0.000000 0.593140 0.133200
#
# Coordination Sequence:
#
# PCOD8281505 Si02
#       4
#     8  16  16  16
#     4  12  26  46  72 100 131 168 207 254 308 370
#     4   9  16  25  41  70 107 148 198 252 306 366
#     4   9  17  32  54  79 114 158 201 251 308 365
#     4  11  23  42  66  97 132 169 211 258 311 371
#
# _framework density 20.866720999999998
#
# number of rings (size 3 to 8) (size 9 to 14) (size 15 to 20)
#    0.000    2.000    1.429    3.000    0.000    6.286 
#    0.000    2.857    0.000    0.857    0.000    6.000 
#    0.000    0.000    0.000    0.000    0.000    0.000 
#
# Total GULP energy -347232.609771 kJ/mol
# GULP energy per Si atom -12401.164635 kJ/mol
# Density = 2.081923 g / cm^3
# Si number density = 20.866721 Si / 1000 Ang^3
#
#
#
# Elastic Constant Matrix: (Units=GPa)
#
#
# Indices 1 2 3 4 5 6 
#
# 1 167.9003 57.5620 87.7297 0.0000 0.0000 0.0000
# 2 57.5620 100.5112 39.8627 0.0000 0.0000 0.0000
# 3 87.7297 39.8627 123.8387 0.0000 0.0000 0.0000
# 4 0.0000 0.0000 0.0000 -92.9174 0.0000 0.0000
# 5 0.0000 0.0000 0.0000 0.0000 42.4280 0.0000
# 6 0.0000 0.0000 0.0000 0.0000 0.0000 25.1596
#
#
#
# Elastic Compliance Matrix: (Units=1/GPa)
#
#
# Indices 1 2 3 4 5 6 
#
# 1 0.010423 -0.003486 -0.006262 0.000000 0.000000 0.000000
# 2 -0.003486 0.012571 -0.001577 0.000000 0.000000 0.000000
# 3 -0.006262 -0.001577 0.013019 0.000000 0.000000 0.000000
# 4 0.000000 0.000000 0.000000 -0.010762 0.000000 0.000000
# 5 0.000000 0.000000 0.000000 0.000000 0.023569 0.000000
# 6 0.000000 0.000000 0.000000 0.000000 0.000000 0.039746
#
#
# Mechanical properties :
#
#
# Convention : Reuss Voigt Hill
#
# Bulk Modulus (GPa) = 74.83226 84.72877 79.78052
# Shear Modulus (GPa) = 43.22692 8.74042 25.98367
#
# Velocity S-wave (km/s) = 4.55639 2.04885 3.53260
# Velocity P-wave (km/s) = 7.97626 6.80367 7.41319
#
# Compressibility (1/GPa) = 0.01336322
#
# Stress axis : x y z
#
# Youngs Moduli (GPa) = 95.94460 79.54922 76.81338
#
# Poissons Ratio (x) = 0.27728 0.48098
# Poissons Ratio (y) = 0.33443 0.12115
# Poissons Ratio (z) = 0.60077 0.12546
#
# Static dielectric constant tensor:
#      x y z
#    x 3.829490 0.000000 0.000000 
#    y 0.000000 3.471420 0.000000 
#    z 0.000000 0.000000 3.955100 
# 
# 
# High freq. dielectric constant tensor:
#      x y z
#    x 1.823230 0.000000 0.000000 
#    y 0.000000 1.794890 0.000000 
#    z 0.000000 0.000000 1.824130 
# 
# From -- ./inp_files/31603.got.cif
#   From: 2010.03.12/outbox.cif.g09.slc.cpg/sg67_16_cif.got.tgz:31603.got - 2010.04.10 22:41:39.
