data_PCOD8281998
_publ_section_title
;
Structure prediction by ZEFSAII (Michael W. Deem and Ramdas Pophale) SiO2 
 PCOD8281998
Probable space group: C C C A
;
_chemical_formula_sum "Si O2"
_cell_formula_units_Z 88
_cell_length_a 13.785694
_cell_length_b 25.362858
_cell_length_c 12.744009
_cell_angle_alpha 90.000000
_cell_angle_beta 90.000000
_cell_angle_gamma 90.000000
_cell_volume 4455.873921
_symmetry_space_group_name_H-M "C C C A"
_symmetry_group_IT_number 68
_space_group.IT_coordinate_system_code '2'
_symmetry_cell_setting 'orthorhombic'
loop_
_space_group_symop_operation_xyz
x,y,z
-x,1/2-y,z
x,1/2-y,1/2-z
-x,y,1/2-z
-x,-y,-z
x,1/2+y,-z
-x,1/2+y,1/2+z
x,-y,1/2+z
1/2+x,1/2+y,z
1/2-x,-y,z
1/2+x,-y,1/2-z
1/2-x,1/2+y,1/2-z
1/2-x,1/2-y,-z
1/2+x,y,-z
1/2-x,y,1/2+z
1/2+x,1/2-y,1/2+z
loop_
_atom_site_type_symbol
_atom_site_label
_atom_site_fract_x
_atom_site_fract_y
_atom_site_fract_z
Si Si1 0.158681 0.895483 0.018695
Si Si2 0.641014 0.750000 0.250000
Si Si3 0.691126 0.931017 0.208168
Si Si4 0.468955 0.304654 0.563067
Si Si5 0.390102 0.961117 0.716376
Si Si6 0.166196 0.654039 0.865881
O O1 0.115288 0.937762 0.099396
O O2 0.264253 0.875863 0.053801
O O3 0.161835 0.929798 0.913049
O O4 0.099639 0.840900 0.008345
O O5 0.575949 0.712579 0.324929
O O6 0.704588 0.711841 0.174183
O O7 0.808874 0.931868 0.213080
O O8 0.651889 0.878344 0.259499
O O9 0.638621 0.977561 0.273695
O O10 0.500000 0.250000 0.503296
O O11 0.563158 0.340494 0.579325
O O12 0.500000 0.950434 0.750000
#
# Coordination Sequence:
#
# PCOD8281998 Si02
#       6
#    16   8  16  16  16  16
#     4  11  24  40  64  95 123 174 211 254 330 383
#     4  10  19  36  62  94 127 162 213 266 304 370
#     4  10  23  42  62  89 125 164 212 263 315 383
#     4  10  21  37  63  95 124 161 214 256 308 379
#     4  10  25  43  62  92 129 162 212 268 322 376
#     4  10  21  38  61  91 127 158 211 264 307 378
#
# _framework density 19.749213000000001
#
# number of rings (size 3 to 8) (size 9 to 14) (size 15 to 20)
#    0.000    1.818    1.818    2.455    5.091    9.455 
#    0.000    0.000    0.000    0.000    0.000    0.000 
#    0.000    0.000    0.000    0.000    0.000    0.000 
#
# Total GULP energy -545076.654301 kJ/mol
# GULP energy per Si atom -12388.105780 kJ/mol
# Density = 1.970426 g / cm^3
# Si number density = 19.749213 Si / 1000 Ang^3
#
#
#
# Elastic Constant Matrix: (Units=GPa)
#
#
# Indices 1 2 3 4 5 6 
#
# 1 108.4447 49.4863 52.0181 0.0000 0.0000 0.0000
# 2 49.4863 120.5371 64.7322 0.0000 0.0000 0.0000
# 3 52.0181 64.7322 114.1653 0.0000 0.0000 0.0000
# 4 0.0000 0.0000 0.0000 44.2762 0.0000 0.0000
# 5 0.0000 0.0000 0.0000 0.0000 15.1105 0.0000
# 6 0.0000 0.0000 0.0000 0.0000 0.0000 32.3825
#
#
#
# Elastic Compliance Matrix: (Units=1/GPa)
#
#
# Indices 1 2 3 4 5 6 
#
# 1 0.012504 -0.002982 -0.004007 0.000000 0.000000 0.000000
# 2 -0.002982 0.012639 -0.005808 0.000000 0.000000 0.000000
# 3 -0.004007 -0.005808 0.013878 0.000000 0.000000 0.000000
# 4 0.000000 0.000000 0.000000 0.022586 0.000000 0.000000
# 5 0.000000 0.000000 0.000000 0.000000 0.066179 0.000000
# 6 0.000000 0.000000 0.000000 0.000000 0.000000 0.030881
#
#
# Mechanical properties :
#
#
# Convention : Reuss Voigt Hill
#
# Bulk Modulus (GPa) = 74.46830 75.06893 74.76862
# Shear Modulus (GPa) = 26.49209 30.14787 28.31998
#
# Velocity S-wave (km/s) = 3.66652 3.91133 3.79090
# Velocity P-wave (km/s) = 7.46414 7.64798 7.55662
#
# Compressibility (1/GPa) = 0.01342853
#
# Stress axis : x y z
#
# Youngs Moduli (GPa) = 79.97587 79.11744 72.05698
#
# Poissons Ratio (x) = 0.23591 0.28870
# Poissons Ratio (y) = 0.23847 0.41851
# Poissons Ratio (z) = 0.32042 0.45951
#
# Static dielectric constant tensor:
#      x y z
#    x 3.551460 0.000000 0.000000 
#    y 0.000000 3.902790 0.000000 
#    z 0.000000 0.000000 3.449300 
# 
# 
# High freq. dielectric constant tensor:
#      x y z
#    x 1.761440 0.000000 0.000000 
#    y 0.000000 1.788870 0.000000 
#    z 0.000000 0.000000 1.753340 
# 
# From -- ./inp_files/13324.got.cif
#   From: 2010.03.12/outbox.cif.g09.slc.cpg/sg68_7_cif.got.tgz:13324.got - 2010.04.10 23:14:56.
