data_PCOD8281124
_publ_section_title
;
Structure prediction by ZEFSAII (Michael W. Deem and Ramdas Pophale) SiO2 
 PCOD8281124
Probable space group: C M M A
;
_chemical_formula_sum "Si O2"
_cell_formula_units_Z 112
_cell_length_a 29.197298
_cell_length_b 14.439196
_cell_length_c 12.252870
_cell_angle_alpha 90.000000
_cell_angle_beta 90.000000
_cell_angle_gamma 90.000000
_cell_volume 5165.632429
_symmetry_space_group_name_H-M "C M M A"
_symmetry_group_IT_number 67
_symmetry_cell_setting 'orthorhombic'
loop_
_space_group_symop_operation_xyz
x,y,z
-x,1/2-y,z
x,-y,-z
-x,1/2+y,-z
-x,-y,-z
x,1/2+y,-z
-x,y,z
x,1/2-y,z
1/2+x,1/2+y,z
1/2-x,-y,z
1/2+x,1/2-y,-z
1/2-x,y,-z
1/2-x,1/2-y,-z
1/2+x,y,-z
1/2-x,1/2+y,z
1/2+x,-y,z
loop_
_atom_site_type_symbol
_atom_site_label
_atom_site_fract_x
_atom_site_fract_y
_atom_site_fract_z
Si Si1 0.140323 0.854451 0.426114
Si Si2 0.334906 0.350689 0.669240
Si Si3 0.717383 0.852361 0.909370
Si Si4 0.264572 0.098604 0.325045
Si Si5 0.052068 0.145410 0.149517
Si Si6 0.378715 0.402567 0.040266
Si Si7 0.106334 0.994716 0.257936
O O1 0.122714 0.750000 0.399673
O O2 0.139903 0.873205 0.554903
O O3 0.193225 0.859746 0.390630
O O4 0.108049 0.931831 0.367613
O O5 0.352676 0.250000 0.712367
O O6 0.280317 0.338650 0.660881
O O7 0.348656 0.437028 0.747639
O O8 0.736464 0.750000 0.881197
O O9 0.719071 0.912931 0.800200
O O10 0.665709 0.838158 0.953711
O O11 0.750000 0.898910 0.000000
O O12 0.250000 0.000000 0.373657
O O13 0.057374 0.250000 0.195614
O O14 0.065271 0.070310 0.243976
O O15 0.000000 0.125800 0.114514
O O16 0.082460 0.136363 0.039822
O O17 0.398182 0.419511 0.161807
O O18 0.359581 0.500000 0.000000
#
# Coordination Sequence:
#
# PCOD8281124 Si02
#       7
#    16  16  16  16  16  16  16
#     4  11  23  39  59  85 123 172 224 274 326 377
#     4  11  23  38  59  87 121 169 224 276 321 372
#     4  11  24  35  50  78 118 167 212 253 306 371
#     4  12  23  36  55  81 120 171 224 274 318 370
#     4  10  23  44  71 101 130 161 203 256 319 395
#     4  10  22  37  58  86 121 164 203 248 303 377
#     4  11  22  39  63  91 124 159 202 264 323 384
#
# _framework density 21.681760000000001
#
# number of rings (size 3 to 8) (size 9 to 14) (size 15 to 20)
#    0.000    1.143    2.857    3.000    6.000    4.857 
#    0.000    0.000    0.000    2.143    0.000    2.000 
#    0.000    2.286    0.000    0.000    0.000    0.000 
#
# Total GULP energy -693842.955728 kJ/mol
# GULP energy per Si atom -12390.052781 kJ/mol
# Density = 2.163241 g / cm^3
# Si number density = 21.681760 Si / 1000 Ang^3
#
#
#
# Elastic Constant Matrix: (Units=GPa)
#
#
# Indices 1 2 3 4 5 6 
#
# 1 101.9077 36.5619 38.8497 0.0000 0.0000 0.0000
# 2 36.5619 111.5307 22.9246 0.0000 0.0000 0.0000
# 3 38.8497 22.9246 57.1944 0.0000 0.0000 0.0000
# 4 0.0000 0.0000 0.0000 29.0421 0.0000 0.0000
# 5 0.0000 0.0000 0.0000 0.0000 21.9660 0.0000
# 6 0.0000 0.0000 0.0000 0.0000 0.0000 29.2604
#
#
#
# Elastic Compliance Matrix: (Units=1/GPa)
#
#
# Indices 1 2 3 4 5 6 
#
# 1 0.014042 -0.002880 -0.008384 0.000000 0.000000 0.000000
# 2 -0.002880 0.010362 -0.002197 0.000000 0.000000 0.000000
# 3 -0.008384 -0.002197 0.024060 0.000000 0.000000 0.000000
# 4 0.000000 0.000000 0.000000 0.034433 0.000000 0.000000
# 5 0.000000 0.000000 0.000000 0.000000 0.045525 0.000000
# 6 0.000000 0.000000 0.000000 0.000000 0.000000 0.034176
#
#
# Mechanical properties :
#
#
# Convention : Reuss Voigt Hill
#
# Bulk Modulus (GPa) = 46.42107 51.92278 49.17193
# Shear Modulus (GPa) = 25.41946 27.54014 26.47980
#
# Velocity S-wave (km/s) = 3.42773 3.56785 3.49849
# Velocity P-wave (km/s) = 6.09282 6.40097 6.24880
#
# Compressibility (1/GPa) = 0.02154194
#
# Stress axis : x y z
#
# Youngs Moduli (GPa) = 71.21371 96.50796 41.56337
#
# Poissons Ratio (x) = 0.27795 0.34846
# Poissons Ratio (y) = 0.20510 0.09131
# Poissons Ratio (z) = 0.59705 0.21202
#
# Static dielectric constant tensor:
#      x y z
#    x 3.578400 0.000000 0.000000 
#    y 0.000000 4.049330 0.000000 
#    z 0.000000 0.000000 3.956290 
# 
# 
# High freq. dielectric constant tensor:
#      x y z
#    x 1.806340 0.000000 0.000000 
#    y 0.000000 1.873330 0.000000 
#    z 0.000000 0.000000 1.843910 
# 
# From -- ./inp_files/18634.got.cif
#   From: 2010.03.12/outbox.cif.g09.slc.cpg/sg67_10_cif.got.tgz:18634.got - 2010.04.10 22:41:39.
