data_PCOD8281182
_publ_section_title
;
Structure prediction by ZEFSAII (Michael W. Deem and Ramdas Pophale) SiO2 
 PCOD8281182
Probable space group: C M M A
;
_chemical_formula_sum "Si O2"
_cell_formula_units_Z 64
_cell_length_a 26.915964
_cell_length_b 12.689991
_cell_length_c 8.827383
_cell_angle_alpha 90.000000
_cell_angle_beta 90.000000
_cell_angle_gamma 90.000000
_cell_volume 3015.110429
_symmetry_space_group_name_H-M "C M M A"
_symmetry_group_IT_number 67
_symmetry_cell_setting 'orthorhombic'
loop_
_space_group_symop_operation_xyz
x,y,z
-x,1/2-y,z
x,-y,-z
-x,1/2+y,-z
-x,-y,-z
x,1/2+y,-z
-x,y,z
x,1/2-y,z
1/2+x,1/2+y,z
1/2-x,-y,z
1/2+x,1/2-y,-z
1/2-x,y,-z
1/2-x,1/2-y,-z
1/2+x,y,-z
1/2-x,1/2+y,z
1/2+x,-y,z
loop_
_atom_site_type_symbol
_atom_site_label
_atom_site_fract_x
_atom_site_fract_y
_atom_site_fract_z
Si Si1 0.627979 0.927706 0.370985
Si Si2 0.125354 0.579875 0.117123
Si Si3 0.306506 0.750000 0.041073
Si Si4 0.556719 0.250000 0.625549
Si Si5 0.057144 0.750000 0.264877
Si Si6 0.199127 0.750000 0.595123
O O1 0.584108 0.852680 0.305434
O O2 0.670572 0.856545 0.451752
O O3 0.603674 0.000000 0.500000
O O4 0.651025 0.003679 0.242377
O O5 0.167064 0.647709 0.030416
O O6 0.082666 0.647408 0.195385
O O7 0.099178 0.500000 0.000000
O O8 0.250000 0.750000 0.000000
O O9 0.304361 0.750000 0.222378
O O10 0.500000 0.250000 0.679179
O O11 0.563086 0.250000 0.444856
O O12 0.000000 0.750000 0.216111
O O13 0.250000 0.750000 0.500000
#
# Coordination Sequence:
#
# PCOD8281182 Si02
#       6
#    16  16   8   8   8   8
#     4  11  23  42  66  95 130 176 217 269 330 389
#     4  11  23  44  66  90 135 176 216 268 335 399
#     4  11  26  44  66  92 129 170 216 272 334 397
#     4  10  22  39  65 101 134 168 223 281 329 384
#     4  10  22  39  65  99 132 172 222 277 329 390
#     4  11  26  44  64  98 129 162 220 280 327 391
#
# _framework density 21.226420000000001
#
# number of rings (size 3 to 8) (size 9 to 14) (size 15 to 20)
#    0.000    1.250    5.000    0.000    3.500    3.000 
#    0.000    1.250    0.000    0.000    0.000    0.000 
#    0.000    0.000    0.000    0.000    0.000    0.000 
#
# Total GULP energy -396522.469495 kJ/mol
# GULP energy per Si atom -12391.327172 kJ/mol
# Density = 2.117811 g / cm^3
# Si number density = 21.226420 Si / 1000 Ang^3
#
#
#
# Elastic Constant Matrix: (Units=GPa)
#
#
# Indices 1 2 3 4 5 6 
#
# 1 146.5152 57.6682 29.1215 0.0000 0.0000 0.0000
# 2 57.6682 155.7010 51.9481 0.0000 0.0000 0.0000
# 3 29.1215 51.9481 86.7678 0.0000 0.0000 0.0000
# 4 0.0000 0.0000 0.0000 65.0860 0.0000 0.0000
# 5 0.0000 0.0000 0.0000 0.0000 28.7994 0.0000
# 6 0.0000 0.0000 0.0000 0.0000 0.0000 7.8955
#
#
#
# Elastic Compliance Matrix: (Units=1/GPa)
#
#
# Indices 1 2 3 4 5 6 
#
# 1 0.008081 -0.002609 -0.001150 0.000000 0.000000 0.000000
# 2 -0.002609 0.008868 -0.004434 0.000000 0.000000 0.000000
# 3 -0.001150 -0.004434 0.014565 0.000000 0.000000 0.000000
# 4 0.000000 0.000000 0.000000 0.015364 0.000000 0.000000
# 5 0.000000 0.000000 0.000000 0.000000 0.034723 0.000000
# 6 0.000000 0.000000 0.000000 0.000000 0.000000 0.126654
#
#
# Mechanical properties :
#
#
# Convention : Reuss Voigt Hill
#
# Bulk Modulus (GPa) = 66.09984 74.05108 70.07546
# Shear Modulus (GPa) = 21.76899 37.03928 29.40414
#
# Velocity S-wave (km/s) = 3.20591 4.18180 3.72595
# Velocity P-wave (km/s) = 6.70163 7.63405 7.18298
#
# Compressibility (1/GPa) = 0.01512863
#
# Stress axis : x y z
#
# Youngs Moduli (GPa) = 123.75006 112.76185 68.65576
#
# Poissons Ratio (x) = 0.29423 0.07895
# Poissons Ratio (y) = 0.32290 0.30440
# Poissons Ratio (z) = 0.14230 0.49995
#
# Static dielectric constant tensor:
#      x y z
#    x 3.545980 0.000000 0.000000 
#    y 0.000000 4.231300 0.000000 
#    z 0.000000 0.000000 3.743280 
# 
# 
# High freq. dielectric constant tensor:
#      x y z
#    x 1.802410 0.000000 0.000000 
#    y 0.000000 1.861520 0.000000 
#    z 0.000000 0.000000 1.841940 
# 
# From -- ./inp_files/14393.got.cif
#   From: 2010.03.12/outbox.cif.g09.slc.cpg/sg67_8_cif.got.tgz:14393.got - 2010.04.10 22:41:39.
