data_PCOD8281264
_publ_section_title
;
Structure prediction by ZEFSAII (Michael W. Deem and Ramdas Pophale) SiO2 
 PCOD8281264
Probable space group: C M M A
;
_chemical_formula_sum "Si O2"
_cell_formula_units_Z 96
_cell_length_a 16.509660
_cell_length_b 23.341398
_cell_length_c 12.307492
_cell_angle_alpha 90.000000
_cell_angle_beta 90.000000
_cell_angle_gamma 90.000000
_cell_volume 4742.797209
_symmetry_space_group_name_H-M "C M M A"
_symmetry_group_IT_number 67
_symmetry_cell_setting 'orthorhombic'
loop_
_space_group_symop_operation_xyz
x,y,z
-x,1/2-y,z
x,-y,-z
-x,1/2+y,-z
-x,-y,-z
x,1/2+y,-z
-x,y,z
x,1/2-y,z
1/2+x,1/2+y,z
1/2-x,-y,z
1/2+x,1/2-y,-z
1/2-x,y,-z
1/2-x,1/2-y,-z
1/2+x,y,-z
1/2-x,1/2+y,z
1/2+x,-y,z
loop_
_atom_site_type_symbol
_atom_site_label
_atom_site_fract_x
_atom_site_fract_y
_atom_site_fract_z
Si Si1 0.593876 0.109010 0.319262
Si Si2 0.844966 0.684806 0.509587
Si Si3 0.592482 0.688218 0.860158
Si Si4 0.402972 0.627783 0.280352
Si Si5 0.329868 0.183619 0.929147
Si Si6 0.654823 0.507583 0.378141
O O1 0.500000 0.108581 0.298832
O O2 0.612138 0.138582 0.433635
O O3 0.637014 0.144321 0.221502
O O4 0.622627 0.044413 0.306641
O O5 0.865554 0.750000 0.474657
O O6 0.750000 0.672738 0.500000
O O7 0.878839 0.674955 0.630213
O O8 0.500000 0.693661 0.826034
O O9 0.636372 0.750000 0.844221
O O10 0.597666 0.671058 0.986257
O O11 0.500000 0.629007 0.258566
O O12 0.350258 0.643217 0.173373
O O13 0.374749 0.565982 0.323482
O O14 0.327117 0.250000 0.890989
O O15 0.250000 0.166921 0.000000
O O16 0.619192 0.500000 0.500000
O O17 0.750000 0.500000 0.381679
#
# Coordination Sequence:
#
# PCOD8281264 Si02
#       6
#    16  16  16  16  16  16
#     4  11  22  38  63  91 122 162 214 266 319 390
#     4  11  24  38  59  93 135 172 208 264 330 398
#     4   9  19  37  62  90 122 161 204 258 323 388
#     4  12  25  42  68  99 133 173 225 280 335 398
#     4  10  23  41  66  96 130 171 216 268 330 395
#     4  11  24  42  65  91 126 175 220 265 329 398
#
# _framework density 20.241219999999998
#
# number of rings (size 3 to 8) (size 9 to 14) (size 15 to 20)
#    0.000    1.333    1.667    3.500    4.667    4.333 
#    0.000    0.833    0.000    3.000    0.000    0.000 
#    0.000    0.000    0.000    0.000    0.000    0.000 
#
# Total GULP energy -594898.609960 kJ/mol
# GULP energy per Si atom -12393.721041 kJ/mol
# Density = 2.019515 g / cm^3
# Si number density = 20.241220 Si / 1000 Ang^3
#
#
#
# Elastic Constant Matrix: (Units=GPa)
#
#
# Indices 1 2 3 4 5 6 
#
# 1 77.1519 33.1886 31.3978 0.0000 0.0000 0.0000
# 2 33.1886 132.8407 65.3187 0.0000 0.0000 0.0000
# 3 31.3978 65.3187 130.4214 0.0000 0.0000 0.0000
# 4 0.0000 0.0000 0.0000 35.2446 0.0000 0.0000
# 5 0.0000 0.0000 0.0000 0.0000 26.0946 0.0000
# 6 0.0000 0.0000 0.0000 0.0000 0.0000 24.5826
#
#
#
# Elastic Compliance Matrix: (Units=1/GPa)
#
#
# Indices 1 2 3 4 5 6 
#
# 1 0.015027 -0.002621 -0.002305 0.000000 0.000000 0.000000
# 2 -0.002621 0.010444 -0.004600 0.000000 0.000000 0.000000
# 3 -0.002305 -0.004600 0.010526 0.000000 0.000000 0.000000
# 4 0.000000 0.000000 0.000000 0.028373 0.000000 0.000000
# 5 0.000000 0.000000 0.000000 0.000000 0.038322 0.000000
# 6 0.000000 0.000000 0.000000 0.000000 0.000000 0.040679
#
#
# Mechanical properties :
#
#
# Convention : Reuss Voigt Hill
#
# Bulk Modulus (GPa) = 59.01135 66.69155 62.85145
# Shear Modulus (GPa) = 29.74915 31.21829 30.48372
#
# Velocity S-wave (km/s) = 3.83787 3.93149 3.88496
# Velocity P-wave (km/s) = 6.98973 7.32316 7.15839
#
# Compressibility (1/GPa) = 0.01694589
#
# Stress axis : x y z
#
# Youngs Moduli (GPa) = 66.54722 95.74491 95.00185
#
# Poissons Ratio (x) = 0.25094 0.21898
# Poissons Ratio (y) = 0.17441 0.43700
# Poissons Ratio (z) = 0.15339 0.44042
#
# Static dielectric constant tensor:
#      x y z
#    x 3.730410 0.000000 0.000000 
#    y 0.000000 3.473290 0.000000 
#    z 0.000000 0.000000 3.858610 
# 
# 
# High freq. dielectric constant tensor:
#      x y z
#    x 1.796040 0.000000 0.000000 
#    y 0.000000 1.790960 0.000000 
#    z 0.000000 0.000000 1.790550 
# 
# From -- ./inp_files/19596.got.cif
#   From: 2010.03.12/outbox.cif.g09.slc.cpg/sg67_10_cif.got.tgz:19596.got - 2010.04.10 22:41:39.
