data_PCOD8281099
_publ_section_title
;
Structure prediction by ZEFSAII (Michael W. Deem and Ramdas Pophale) SiO2 
 PCOD8281099
Probable space group: C M M A
;
_chemical_formula_sum "Si O2"
_cell_formula_units_Z 72
_cell_length_a 25.350714
_cell_length_b 16.734532
_cell_length_c 7.608173
_cell_angle_alpha 90.000000
_cell_angle_beta 90.000000
_cell_angle_gamma 90.000000
_cell_volume 3227.632994
_symmetry_space_group_name_H-M "C M M A"
_symmetry_group_IT_number 67
_symmetry_cell_setting 'orthorhombic'
loop_
_space_group_symop_operation_xyz
x,y,z
-x,1/2-y,z
x,-y,-z
-x,1/2+y,-z
-x,-y,-z
x,1/2+y,-z
-x,y,z
x,1/2-y,z
1/2+x,1/2+y,z
1/2-x,-y,z
1/2+x,1/2-y,-z
1/2-x,y,-z
1/2-x,1/2-y,-z
1/2+x,y,-z
1/2-x,1/2+y,z
1/2+x,-y,z
loop_
_atom_site_type_symbol
_atom_site_label
_atom_site_fract_x
_atom_site_fract_y
_atom_site_fract_z
Si Si1 0.675411 0.054733 0.653430
Si Si2 0.370153 0.161517 0.393486
Si Si3 0.236635 0.157852 0.806056
Si Si4 0.938315 0.840959 0.079926
Si Si5 0.377441 0.000000 0.000000
O O1 0.627166 0.104335 0.563784
O O2 0.723421 0.113940 0.679470
O O3 0.697608 0.000000 0.500000
O O4 0.657914 0.003321 0.823291
O O5 0.362462 0.250000 0.468168
O O6 0.323348 0.141243 0.252783
O O7 0.424699 0.152715 0.286882
O O8 0.251100 0.250000 0.796450
O O9 0.250000 0.124393 0.000000
O O10 0.920586 0.750000 0.015040
O O11 0.000000 0.851069 0.051356
O O12 0.910499 0.916893 0.985916
#
# Coordination Sequence:
#
# PCOD8281099 Si02
#       5
#    16  16  16  16   8
#     4  12  25  42  61  99 135 179 221 270 336 405
#     4  10  21  42  67  94 130 175 227 281 341 401
#     4  10  22  41  66  94 130 179 227 277 336 403
#     4  10  22  44  73 102 135 177 228 287 345 404
#     4  12  25  46  69 102 140 178 228 280 340 408
#
# _framework density 22.307371
#
# number of rings (size 3 to 8) (size 9 to 14) (size 15 to 20)
#    0.000    1.333    2.222    3.000    0.000    7.111 
#    0.000    3.333    0.000    2.667    0.000    0.000 
#    0.000    0.000    0.000    0.000    0.000    0.000 
#
# Total GULP energy -445989.407739 kJ/mol
# GULP energy per Si atom -12388.594659 kJ/mol
# Density = 2.225660 g / cm^3
# Si number density = 22.307371 Si / 1000 Ang^3
#
#
#
# Elastic Constant Matrix: (Units=GPa)
#
#
# Indices 1 2 3 4 5 6 
#
# 1 44.6985 20.0993 10.2506 0.0000 0.0000 0.0000
# 2 20.0993 131.8421 36.1603 0.0000 0.0000 0.0000
# 3 10.2506 36.1603 115.6927 0.0000 0.0000 0.0000
# 4 0.0000 0.0000 0.0000 4.9020 0.0000 0.0000
# 5 0.0000 0.0000 0.0000 0.0000 14.7158 0.0000
# 6 0.0000 0.0000 0.0000 0.0000 0.0000 3.7987
#
#
#
# Elastic Compliance Matrix: (Units=1/GPa)
#
#
# Indices 1 2 3 4 5 6 
#
# 1 0.024142 -0.003384 -0.001081 0.000000 0.000000 0.000000
# 2 -0.003384 0.008770 -0.002441 0.000000 0.000000 0.000000
# 3 -0.001081 -0.002441 0.009502 0.000000 0.000000 0.000000
# 4 0.000000 0.000000 0.000000 0.203998 0.000000 0.000000
# 5 0.000000 0.000000 0.000000 0.000000 0.067954 0.000000
# 6 0.000000 0.000000 0.000000 0.000000 0.000000 0.263245
#
#
# Mechanical properties :
#
#
# Convention : Reuss Voigt Hill
#
# Bulk Modulus (GPa) = 34.96345 47.25043 41.10694
# Shear Modulus (GPa) = 8.32005 19.73153 14.02579
#
# Velocity S-wave (km/s) = 1.93335 2.97733 2.51021
# Velocity P-wave (km/s) = 4.54877 5.74864 5.18354
#
# Compressibility (1/GPa) = 0.02860130
#
# Stress axis : x y z
#
# Youngs Moduli (GPa) = 41.42213 114.02139 105.23587
#
# Poissons Ratio (x) = 0.38583 0.11380
# Poissons Ratio (y) = 0.14016 0.25692
# Poissons Ratio (z) = 0.04479 0.27837
#
# Static dielectric constant tensor:
#      x y z
#    x 3.737360 0.000000 0.000000 
#    y 0.000000 4.662510 0.000000 
#    z 0.000000 0.000000 4.078870 
# 
# 
# High freq. dielectric constant tensor:
#      x y z
#    x 1.845490 0.000000 0.000000 
#    y 0.000000 1.919620 0.000000 
#    z 0.000000 0.000000 1.867170 
# 
# From -- ./inp_files/12243.got.cif
#   From: 2010.03.12/outbox.cif.g09.slc.cpg/sg67_7_cif.got.tgz:12243.got - 2010.04.10 22:41:39.
