data_PCOD8281236
_publ_section_title
;
Structure prediction by ZEFSAII (Michael W. Deem and Ramdas Pophale) SiO2 
 PCOD8281236
Probable space group: C M M A
;
_chemical_formula_sum "Si O2"
_cell_formula_units_Z 68
_cell_length_a 24.574194
_cell_length_b 8.580054
_cell_length_c 13.619633
_cell_angle_alpha 90.000000
_cell_angle_beta 90.000000
_cell_angle_gamma 90.000000
_cell_volume 2871.671174
_symmetry_space_group_name_H-M "C M M A"
_symmetry_group_IT_number 67
_symmetry_cell_setting 'orthorhombic'
loop_
_space_group_symop_operation_xyz
x,y,z
-x,1/2-y,z
x,-y,-z
-x,1/2+y,-z
-x,-y,-z
x,1/2+y,-z
-x,y,z
x,1/2-y,z
1/2+x,1/2+y,z
1/2-x,-y,z
1/2+x,1/2-y,-z
1/2-x,y,-z
1/2-x,1/2-y,-z
1/2+x,y,-z
1/2-x,1/2+y,z
1/2+x,-y,z
loop_
_atom_site_type_symbol
_atom_site_label
_atom_site_fract_x
_atom_site_fract_y
_atom_site_fract_z
Si Si1 0.805832 0.067991 0.643769
Si Si2 0.083151 0.432024 0.400673
Si Si3 0.168470 0.421436 0.159786
Si Si4 0.250000 0.500000 0.000000
Si Si5 0.560075 0.068024 0.192222
O O1 0.812329 0.250000 0.620259
O O2 0.750000 0.000000 0.600753
O O3 0.852622 0.967145 0.593166
O O4 0.807520 0.043404 0.761916
O O5 0.055855 0.500000 0.500000
O O6 0.070750 0.250000 0.393373
O O7 0.059092 0.517770 0.306039
O O8 0.163255 0.250000 0.208416
O O9 0.208712 0.401545 0.067364
O O10 0.107090 0.477446 0.131121
O O11 0.500000 0.031572 0.147833
O O12 0.573337 0.250000 0.186856
#
# Coordination Sequence:
#
# PCOD8281236 Si02
#       5
#    16  16  16   4  16
#     4  11  21  36  57  83 120 163 207 252 308 372
#     4  11  22  37  58  87 122 161 209 260 310 361
#     4  11  23  39  63  94 126 163 205 253 310 370
#     4  12  26  40  66  98 136 160 202 250 310 376
#     4  10  22  42  66  91 124 166 209 256 311 369
#
# _framework density 23.679592
#
# number of rings (size 3 to 8) (size 9 to 14) (size 15 to 20)
#    0.000    1.176    1.176    8.824    0.000    5.647 
#    0.000    2.941    0.000    0.000    0.000    0.000 
#    0.000    0.000    0.000    0.000    0.000    0.000 
#
# Total GULP energy -421428.446782 kJ/mol
# GULP energy per Si atom -12394.954317 kJ/mol
# Density = 2.362570 g / cm^3
# Si number density = 23.679592 Si / 1000 Ang^3
#
#
#
# Elastic Constant Matrix: (Units=GPa)
#
#
# Indices 1 2 3 4 5 6 
#
# 1 153.6381 34.3325 20.5980 0.0000 0.0000 0.0000
# 2 34.3325 118.3973 7.2301 0.0000 0.0000 0.0000
# 3 20.5980 7.2301 72.9183 0.0000 0.0000 0.0000
# 4 0.0000 0.0000 0.0000 19.6557 0.0000 0.0000
# 5 0.0000 0.0000 0.0000 0.0000 -14.7117 0.0000
# 6 0.0000 0.0000 0.0000 0.0000 0.0000 16.7730
#
#
#
# Elastic Compliance Matrix: (Units=1/GPa)
#
#
# Indices 1 2 3 4 5 6 
#
# 1 0.007196 -0.001975 -0.001837 0.000000 0.000000 0.000000
# 2 -0.001975 0.009039 -0.000339 0.000000 0.000000 0.000000
# 3 -0.001837 -0.000339 0.014266 0.000000 0.000000 0.000000
# 4 0.000000 0.000000 0.000000 0.050876 0.000000 0.000000
# 5 0.000000 0.000000 0.000000 0.000000 -0.067973 0.000000
# 6 0.000000 0.000000 0.000000 0.000000 0.000000 0.059620
#
#
# Mechanical properties :
#
#
# Convention : Reuss Voigt Hill
#
# Bulk Modulus (GPa) = 45.04110 52.14165 48.59138
# Shear Modulus (GPa) = 56.35348 23.19626 39.77487
#
# Velocity S-wave (km/s) = 4.88365 3.13323 4.10287
# Velocity P-wave (km/s) = 7.13178 5.92933 6.55818
#
# Compressibility (1/GPa) = 0.02220194
#
# Stress axis : x y z
#
# Youngs Moduli (GPa) = 138.95946 110.62682 70.09439
#
# Poissons Ratio (x) = 0.21844 0.12877
# Poissons Ratio (y) = 0.27439 0.02373
# Poissons Ratio (z) = 0.25527 0.03745
#
# Static dielectric constant tensor:
#      x y z
#    x 4.626630 0.000000 0.000000 
#    y 0.000000 4.097760 0.000000 
#    z 0.000000 0.000000 4.000550 
# 
# 
# High freq. dielectric constant tensor:
#      x y z
#    x 1.954480 0.000000 0.000000 
#    y 0.000000 1.939650 0.000000 
#    z 0.000000 0.000000 1.910050 
# 
# From -- ./inp_files/30475.got.cif
#   From: 2010.03.12/outbox.cif.g09.slc.cpg/sg67_16_cif.got.tgz:30475.got - 2010.04.10 22:41:39.
