data_PCOD8281529
_publ_section_title
;
Structure prediction by ZEFSAII (Michael W. Deem and Ramdas Pophale) SiO2 
 PCOD8281529
Probable space group: C M M A
;
_chemical_formula_sum "Si O2"
_cell_formula_units_Z 72
_cell_length_a 27.018175
_cell_length_b 13.805446
_cell_length_c 9.073474
_cell_angle_alpha 90.000000
_cell_angle_beta 90.000000
_cell_angle_gamma 90.000000
_cell_volume 3384.387256
_symmetry_space_group_name_H-M "C M M A"
_symmetry_group_IT_number 67
_symmetry_cell_setting 'orthorhombic'
loop_
_space_group_symop_operation_xyz
x,y,z
-x,1/2-y,z
x,-y,-z
-x,1/2+y,-z
-x,-y,-z
x,1/2+y,-z
-x,y,z
x,1/2-y,z
1/2+x,1/2+y,z
1/2-x,-y,z
1/2+x,1/2-y,-z
1/2-x,y,-z
1/2-x,1/2-y,-z
1/2+x,y,-z
1/2-x,1/2+y,z
1/2+x,-y,z
loop_
_atom_site_type_symbol
_atom_site_label
_atom_site_fract_x
_atom_site_fract_y
_atom_site_fract_z
Si Si1 0.168762 0.593957 0.199401
Si Si2 0.500000 0.038919 0.165045
Si Si3 0.388330 0.750000 0.981693
Si Si4 0.750000 0.500000 0.000000
Si Si5 0.696395 0.250000 0.434982
Si Si6 0.500000 0.250000 0.079761
Si Si7 0.619174 0.750000 0.309086
Si Si8 0.907549 0.038856 0.336586
O O1 0.128337 0.654429 0.106363
O O2 0.186922 0.654397 0.339601
O O3 0.143305 0.495583 0.257865
O O4 0.216061 0.568789 0.100462
O O5 0.500000 0.154926 0.180144
O O6 0.547856 0.001385 0.244413
O O7 0.500000 0.000000 0.000000
O O8 0.448040 0.750000 0.011650
O O9 0.361754 0.750000 0.140251
O O10 0.750000 0.250000 0.500000
O O11 0.664277 0.250000 0.580694
O O12 0.587031 0.845584 0.338821
O O13 0.910389 0.000000 0.500000
#
# Coordination Sequence:
#
# PCOD8281529 Si02
#       8
#    16   8   8   4   8   4   8  16
#     4  11  26  47  72 106 145 193 246 301 373 430
#     4  12  27  45  77 112 147 193 250 295 370 436
#     4  11  24  45  79 106 146 195 242 294 367 441
#     4  12  28  42  74 106 144 194 258 318 356 438
#     4  11  27  46  71 104 142 193 242 299 376 440
#     4  12  22  46  78 112 150 192 238 308 368 434
#     4  12  26  45  73 103 146 186 241 301 358 437
#     4  12  26  48  72 107 148 193 241 300 370 443
#
# _framework density 21.274162
#
# number of rings (size 3 to 8) (size 9 to 14) (size 15 to 20)
#    0.000    0.444    4.444    3.000    7.778    2.222 
#    0.000    0.000    0.000    0.000    0.000    0.000 
#    0.000    0.000    0.000    0.000    0.000    0.000 
#
# Total GULP energy -446493.715396 kJ/mol
# GULP energy per Si atom -12402.603205 kJ/mol
# Density = 2.122574 g / cm^3
# Si number density = 21.274162 Si / 1000 Ang^3
#
#
#
# Elastic Constant Matrix: (Units=GPa)
#
#
# Indices 1 2 3 4 5 6 
#
# 1 148.0631 59.8623 75.0046 0.0000 0.0000 0.0000
# 2 59.8623 184.4373 62.7382 0.0000 0.0000 0.0000
# 3 75.0046 62.7382 168.4124 0.0000 0.0000 0.0000
# 4 0.0000 0.0000 0.0000 24.2750 0.0000 0.0000
# 5 0.0000 0.0000 0.0000 0.0000 4.9106 0.0000
# 6 0.0000 0.0000 0.0000 0.0000 0.0000 31.3232
#
#
#
# Elastic Compliance Matrix: (Units=1/GPa)
#
#
# Indices 1 2 3 4 5 6 
#
# 1 0.009231 -0.001829 -0.003430 0.000000 0.000000 0.000000
# 2 -0.001829 0.006571 -0.001633 0.000000 0.000000 0.000000
# 3 -0.003430 -0.001633 0.008074 0.000000 0.000000 0.000000
# 4 0.000000 0.000000 0.000000 0.041195 0.000000 0.000000
# 5 0.000000 0.000000 0.000000 0.000000 0.203641 0.000000
# 6 0.000000 0.000000 0.000000 0.000000 0.000000 0.031925
#
#
# Mechanical properties :
#
#
# Convention : Reuss Voigt Hill
#
# Bulk Modulus (GPa) = 99.09529 99.56923 99.33226
# Shear Modulus (GPa) = 15.73394 32.32228 24.02811
#
# Velocity S-wave (km/s) = 2.72247 3.90208 3.36438
# Velocity P-wave (km/s) = 7.52088 8.19793 7.86670
#
# Compressibility (1/GPa) = 0.01009130
#
# Stress axis : x y z
#
# Youngs Moduli (GPa) = 108.33254 152.17881 123.86024
#
# Poissons Ratio (x) = 0.27840 0.42479
# Poissons Ratio (y) = 0.19819 0.20229
# Poissons Ratio (z) = 0.37153 0.24854
#
# Static dielectric constant tensor:
#      x y z
#    x 3.854550 0.000000 0.000000 
#    y 0.000000 4.144870 0.000000 
#    z 0.000000 0.000000 4.237290 
# 
# 
# High freq. dielectric constant tensor:
#      x y z
#    x 1.836800 0.000000 0.000000 
#    y 0.000000 1.851260 0.000000 
#    z 0.000000 0.000000 1.850900 
# 
# From -- ./inp_files/13401.got.cif
#   From: 2010.03.12/outbox.cif.g09.slc.cpg/sg67_7_cif.got.tgz:13401.got - 2010.04.10 22:41:39.
