data_PCOD8281607
_publ_section_title
;
Structure prediction by ZEFSAII (Michael W. Deem and Ramdas Pophale) SiO2 
 PCOD8281607
Probable space group: C M M A
;
_chemical_formula_sum "Si O2"
_cell_formula_units_Z 48
_cell_length_a 9.000000
_cell_length_b 27.000000
_cell_length_c 24.000000
_cell_angle_alpha 90.000000
_cell_angle_beta 90.000000
_cell_angle_gamma 90.000000
_cell_volume 5832.000000
_symmetry_space_group_name_H-M "C M M A"
_symmetry_group_IT_number 67
_symmetry_cell_setting 'orthorhombic'
loop_
_space_group_symop_operation_xyz
x,y,z
-x,1/2-y,z
x,-y,-z
-x,1/2+y,-z
-x,-y,-z
x,1/2+y,-z
-x,y,z
x,1/2-y,z
1/2+x,1/2+y,z
1/2-x,-y,z
1/2+x,1/2-y,-z
1/2-x,y,-z
1/2-x,1/2-y,-z
1/2+x,y,-z
1/2-x,1/2+y,z
1/2+x,-y,z
loop_
_atom_site_type_symbol
_atom_site_label
_atom_site_fract_x
_atom_site_fract_y
_atom_site_fract_z
Si Si1 0.173986 0.693498 0.943599
Si Si2 0.678323 0.856874 0.172123
Si Si3 0.180816 0.052660 0.769318
Si Si4 0.818804 0.605252 0.664229
Si Si5 0.325224 0.692651 0.726068
Si Si6 0.317924 0.553455 0.559589
O O1 0.225718 0.750000 0.932001
O O2 0.218248 0.659864 0.890627
O O3 0.000000 0.691161 0.953762
O O4 0.250000 0.672815 0.000000
O O5 0.500000 0.861039 0.181218
O O6 0.760342 0.908990 0.183925
O O7 0.746819 0.816484 0.214394
O O8 0.250751 0.067694 0.709783
O O9 0.000000 0.051477 0.767063
O O10 0.250000 0.000000 0.786061
O O11 0.761681 0.660397 0.679590
O O12 0.746217 0.591851 0.604807
O O13 0.000000 0.602677 0.663045
O O14 0.500000 0.677412 0.728903
O O15 0.308003 0.750000 0.709747
O O16 0.500000 0.552412 0.558616
O O17 0.250000 0.500000 0.575157
O O18 0.250000 0.569917 0.500000
#
# Coordination Sequence:
#
# PCOD8281607 Si02
#       6
#    16  16  16  16  16  16
#     4   9  18  31  48  71  99 130 163 199 240 288
#     4  10  19  32  50  73 100 130 164 202 246 293
#     4  11  21  34  51  73 100 130 164 202 246 293
#     4  11  21  34  52  75 102 133 167 203 246 292
#     4  10  20  33  50  74 102 132 166 204 246 292
#     4  11  21  35  53  76 104 133 167 204 246 293
#
# _framework density 8.2304530000000007
#
# number of rings (size 3 to 8) (size 9 to 14) (size 15 to 20)
#    0.000    1.667    0.000    9.000    0.000    3.333 
#    0.000    1.667    0.000    1.000    0.000    3.500 
#    0.000    0.000    0.000    0.000    0.000    0.000 
#
# Total GULP energy -595034.090335 kJ/mol
# GULP energy per Si atom -12396.543549 kJ/mol
# Density = 0.821172 g / cm^3
# Si number density = 8.230453 Si / 1000 Ang^3
#
#
#
# Elastic Constant Matrix: (Units=GPa)
#
#
# Indices 1 2 3 4 5 6 
#
# 1 171.6118 48.4836 57.6063 0.0000 0.0000 0.0000
# 2 48.4836 108.2033 58.6262 0.0000 0.0000 0.0000
# 3 57.6063 58.6262 141.7736 0.0000 0.0000 0.0000
# 4 0.0000 0.0000 0.0000 28.1308 0.0000 0.0000
# 5 0.0000 0.0000 0.0000 0.0000 37.7624 0.0000
# 6 0.0000 0.0000 0.0000 0.0000 0.0000 33.9400
#
#
#
# Elastic Compliance Matrix: (Units=1/GPa)
#
#
# Indices 1 2 3 4 5 6 
#
# 1 0.007094 -0.002084 -0.002021 0.000000 0.000000 0.000000
# 2 -0.002084 0.012522 -0.004332 0.000000 0.000000 0.000000
# 3 -0.002021 -0.004332 0.009666 0.000000 0.000000 0.000000
# 4 0.000000 0.000000 0.000000 0.035548 0.000000 0.000000
# 5 0.000000 0.000000 0.000000 0.000000 0.026481 0.000000
# 6 0.000000 0.000000 0.000000 0.000000 0.000000 0.029464
#
#
# Mechanical properties :
#
#
# Convention : Reuss Voigt Hill
#
# Bulk Modulus (GPa) = 80.58032 83.44675 82.01354
# Shear Modulus (GPa) = 35.26467 37.09149 36.17808
#
# Velocity S-wave (km/s) = 4.63355 4.75205 4.69318
# Velocity P-wave (km/s) = 8.81392 8.99518 8.90501
#
# Compressibility (1/GPa) = 0.01240998
#
# Stress axis : x y z
#
# Youngs Moduli (GPa) = 140.96067 79.85629 103.45734
#
# Poissons Ratio (x) = 0.16641 0.20907
# Poissons Ratio (y) = 0.29374 0.44813
# Poissons Ratio (z) = 0.28486 0.34590
#
# Static dielectric constant tensor:
#      x y z
#    x 3.602290 0.000000 0.000000 
#    y 0.000000 3.157720 0.000000 
#    z 0.000000 0.000000 3.201570 
# 
# 
# High freq. dielectric constant tensor:
#      x y z
#    x 1.674940 0.000000 0.000000 
#    y 0.000000 1.631930 0.000000 
#    z 0.000000 0.000000 1.636590 
# 
# From -- ./inp_files/40937.got.cif
#   From: 2010.03.12/outbox.ucp.g09.slc.cvg/sg67_21_cif.got.tgz:40937.got - 2010.05.04 19:50:31.
