data_PCOD8281751
_publ_section_title
;
Structure prediction by ZEFSAII (Michael W. Deem and Ramdas Pophale) SiO2 
 PCOD8281751
Probable space group: C C C A
;
_chemical_formula_sum "Si O2"
_cell_formula_units_Z 96
_cell_length_a 17.894021
_cell_length_b 17.894019
_cell_length_c 19.249152
_cell_angle_alpha 90.000000
_cell_angle_beta 90.000000
_cell_angle_gamma 90.000000
_cell_volume 6163.500545
_symmetry_space_group_name_H-M "C C C A"
_symmetry_group_IT_number 68
_space_group.IT_coordinate_system_code '2'
_symmetry_cell_setting 'orthorhombic'
loop_
_space_group_symop_operation_xyz
x,y,z
-x,1/2-y,z
x,1/2-y,1/2-z
-x,y,1/2-z
-x,-y,-z
x,1/2+y,-z
-x,1/2+y,1/2+z
x,-y,1/2+z
1/2+x,1/2+y,z
1/2-x,-y,z
1/2+x,-y,1/2-z
1/2-x,1/2+y,1/2-z
1/2-x,1/2-y,-z
1/2+x,y,-z
1/2-x,y,1/2+z
1/2+x,1/2-y,1/2+z
loop_
_atom_site_type_symbol
_atom_site_label
_atom_site_fract_x
_atom_site_fract_y
_atom_site_fract_z
Si Si1 0.345172 0.783475 0.675619
Si Si2 0.063133 0.686867 0.081018
Si Si3 0.326754 0.806308 0.187674
Si Si4 0.556308 0.423246 0.687674
Si Si5 0.561884 0.311884 0.574708
Si Si6 0.466525 0.904828 0.675619
O O1 0.365655 0.750000 0.750000
O O2 0.362833 0.718720 0.619258
O O3 0.260360 0.811104 0.671709
O O4 0.393889 0.856111 0.660106
O O5 0.000000 0.750000 0.084792
O O6 0.031280 0.612833 0.119258
O O7 0.086031 0.663969 0.002883
O O8 0.344662 0.750000 0.250000
O O9 0.361925 0.888075 0.207372
O O10 0.367383 0.778041 0.117007
O O11 0.500000 0.405338 0.750000
O O12 0.528041 0.382617 0.617007
O O13 0.561104 0.510360 0.671709
O O14 0.500000 0.250000 0.567672
O O15 0.500000 0.884345 0.750000
#
# Coordination Sequence:
#
# PCOD8281751 Si02
#       6
#    16  16  16  16  16  16
#     4  10  18  31  51  73  99 126 160 205 246 289
#     4   9  18  30  50  75  97 127 162 198 248 288
#     4   9  19  31  49  74  93 132 164 198 242 283
#     4   9  19  31  49  74  93 132 164 198 242 283
#     4   9  18  32  49  73  97 129 163 202 239 287
#     4  10  18  31  51  73  99 126 160 205 246 289
#
# _framework density 15.575564999999999
#
# number of rings (size 3 to 8) (size 9 to 14) (size 15 to 20)
#    1.000    1.667    1.667    1.000    0.000    2.000 
#    0.000    0.000    0.000    0.000    0.000    2.333 
#    0.000    0.000    0.000    0.000    0.000    0.000 
#
# Total GULP energy -594774.168797 kJ/mol
# GULP energy per Si atom -12391.128517 kJ/mol
# Density = 1.554011 g / cm^3
# Si number density = 15.575565 Si / 1000 Ang^3
#
#
#
# Elastic Constant Matrix: (Units=GPa)
#
#
# Indices 1 2 3 4 5 6 
#
# 1 92.8501 53.1493 46.3408 0.0000 0.0000 0.0000
# 2 53.1493 92.8497 46.3406 0.0000 0.0000 0.0000
# 3 46.3408 46.3406 140.3294 0.0000 0.0000 0.0000
# 4 0.0000 0.0000 0.0000 11.6958 0.0000 0.0000
# 5 0.0000 0.0000 0.0000 0.0000 11.6958 0.0000
# 6 0.0000 0.0000 0.0000 0.0000 0.0000 17.6041
#
#
#
# Elastic Compliance Matrix: (Units=1/GPa)
#
#
# Indices 1 2 3 4 5 6 
#
# 1 0.016927 -0.008261 -0.002862 0.000000 0.000000 0.000000
# 2 -0.008261 0.016927 -0.002862 0.000000 0.000000 0.000000
# 3 -0.002862 -0.002862 0.009016 0.000000 0.000000 0.000000
# 4 0.000000 0.000000 0.000000 0.085501 0.000000 0.000000
# 5 0.000000 0.000000 0.000000 0.000000 0.085501 0.000000
# 6 0.000000 0.000000 0.000000 0.000000 0.000000 0.056805
#
#
# Mechanical properties :
#
#
# Convention : Reuss Voigt Hill
#
# Bulk Modulus (GPa) = 67.10890 68.63228 67.87059
# Shear Modulus (GPa) = 16.46831 20.21239 18.34035
#
# Velocity S-wave (km/s) = 3.25517 3.60627 3.43521
# Velocity P-wave (km/s) = 7.57019 7.84219 7.70739
#
# Compressibility (1/GPa) = 0.01490115
#
# Stress axis : x y z
#
# Youngs Moduli (GPa) = 59.07639 59.07617 110.91204
#
# Poissons Ratio (x) = 0.48804 0.31740
# Poissons Ratio (y) = 0.48804 0.31740
# Poissons Ratio (z) = 0.16906 0.16906
#
# Static dielectric constant tensor:
#      x y z
#    x 2.808620 0.000000 0.000000 
#    y 0.000000 2.808620 0.000000 
#    z 0.000000 0.000000 3.171870 
# 
# 
# High freq. dielectric constant tensor:
#      x y z
#    x 1.584140 0.000000 0.000000 
#    y 0.000000 1.584140 0.000000 
#    z 0.000000 0.000000 1.604030 
# 
# From -- ./inp_files/39686.got.cif
#   From: 2010.03.12/outbox.cif.g09.slc.cpg/sg68_20_cif.got.tgz:39686.got - 2010.04.10 23:14:56.
