data_PCOD8281762
_publ_section_title
;
Structure prediction by ZEFSAII (Michael W. Deem and Ramdas Pophale) SiO2 
 PCOD8281762
Probable space group: C C C A
;
_chemical_formula_sum "Si O2"
_cell_formula_units_Z 104
_cell_length_a 19.369933
_cell_length_b 18.701253
_cell_length_c 15.323466
_cell_angle_alpha 90.000000
_cell_angle_beta 90.000000
_cell_angle_gamma 90.000000
_cell_volume 5550.803241
_symmetry_space_group_name_H-M "C C C A"
_symmetry_group_IT_number 68
_space_group.IT_coordinate_system_code '2'
_symmetry_cell_setting 'orthorhombic'
loop_
_space_group_symop_operation_xyz
x,y,z
-x,1/2-y,z
x,1/2-y,1/2-z
-x,y,1/2-z
-x,-y,-z
x,1/2+y,-z
-x,1/2+y,1/2+z
x,-y,1/2+z
1/2+x,1/2+y,z
1/2-x,-y,z
1/2+x,-y,1/2-z
1/2-x,1/2+y,1/2-z
1/2-x,1/2-y,-z
1/2+x,y,-z
1/2-x,y,1/2+z
1/2+x,1/2-y,1/2+z
loop_
_atom_site_type_symbol
_atom_site_label
_atom_site_fract_x
_atom_site_fract_y
_atom_site_fract_z
Si Si1 0.920843 0.444520 0.434492
Si Si2 0.316524 0.310601 0.915456
Si Si3 0.803583 0.846209 0.522433
Si Si4 0.261279 0.250000 0.750000
Si Si5 0.918828 0.562709 0.571873
Si Si6 0.731322 0.105467 0.194918
Si Si7 0.858399 0.477802 0.254631
O O1 0.877725 0.383164 0.484454
O O2 0.899527 0.515970 0.487127
O O3 0.906224 0.448515 0.331608
O O4 0.000309 0.423149 0.437509
O O5 0.320171 0.237942 0.970834
O O6 0.315203 0.284564 0.816659
O O7 0.382014 0.360570 0.933800
O O8 0.245274 0.353606 0.937382
O O9 0.760282 0.889343 0.596696
O O10 0.211256 0.187188 0.782977
O O11 0.898889 0.521487 0.662337
O O12 0.792212 0.073881 0.256530
O O13 0.664592 0.056662 0.211499
#
# Coordination Sequence:
#
# PCOD8281762 Si02
#       7
#    16  16  16   8  16  16  16
#     4  10  23  38  54  83 118 151 201 236 285 352
#     4  10  20  35  58  84 115 151 188 239 302 344
#     4   9  20  37  56  81 119 151 184 245 295 343
#     4  10  18  32  50  87 115 132 188 246 278 358
#     4  11  22  36  59  83 113 159 196 239 288 355
#     4   9  18  31  53  81 111 143 189 237 286 346
#     4  10  19  35  54  81 112 153 188 240 291 335
#
# _framework density 18.736028000000001
#
# number of rings (size 3 to 8) (size 9 to 14) (size 15 to 20)
#    0.000    2.154    1.538    1.385    2.154    2.462 
#    0.000    0.000    0.000    0.000    0.000    1.077 
#    0.000    0.000    0.000    0.000    0.000    0.000 
#
# Total GULP energy -644183.828342 kJ/mol
# GULP energy per Si atom -12388.150545 kJ/mol
# Density = 1.869338 g / cm^3
# Si number density = 18.736028 Si / 1000 Ang^3
#
#
#
# Elastic Constant Matrix: (Units=GPa)
#
#
# Indices 1 2 3 4 5 6 
#
# 1 96.7924 56.5790 36.1303 0.0000 0.0000 0.0000
# 2 56.5790 112.7301 24.3441 0.0000 0.0000 0.0000
# 3 36.1303 24.3441 81.9419 0.0000 0.0000 0.0000
# 4 0.0000 0.0000 0.0000 27.5781 0.0000 0.0000
# 5 0.0000 0.0000 0.0000 0.0000 21.2253 0.0000
# 6 0.0000 0.0000 0.0000 0.0000 0.0000 31.1181
#
#
#
# Elastic Compliance Matrix: (Units=1/GPa)
#
#
# Indices 1 2 3 4 5 6 
#
# 1 0.016410 -0.007131 -0.005117 0.000000 0.000000 0.000000
# 2 -0.007131 0.012578 -0.000592 0.000000 0.000000 0.000000
# 3 -0.005117 -0.000592 0.014636 0.000000 0.000000 0.000000
# 4 0.000000 0.000000 0.000000 0.036261 0.000000 0.000000
# 5 0.000000 0.000000 0.000000 0.000000 0.047114 0.000000
# 6 0.000000 0.000000 0.000000 0.000000 0.000000 0.032136
#
#
# Mechanical properties :
#
#
# Convention : Reuss Voigt Hill
#
# Bulk Modulus (GPa) = 55.73319 58.39680 57.06500
# Shear Modulus (GPa) = 26.20612 27.61170 26.90891
#
# Velocity S-wave (km/s) = 3.74398 3.84307 3.79385
# Velocity P-wave (km/s) = 6.96426 7.13640 7.05085
#
# Compressibility (1/GPa) = 0.01794263
#
# Stress axis : x y z
#
# Youngs Moduli (GPa) = 60.93927 79.50555 68.32486
#
# Poissons Ratio (x) = 0.56696 0.34961
# Poissons Ratio (y) = 0.43456 0.04048
# Poissons Ratio (z) = 0.31182 0.04710
#
# Static dielectric constant tensor:
#      x y z
#    x 3.226850 0.000000 0.000000 
#    y 0.000000 3.656900 0.000000 
#    z 0.000000 0.000000 3.512710 
# 
# 
# High freq. dielectric constant tensor:
#      x y z
#    x 1.699990 0.000000 0.000000 
#    y 0.000000 1.735490 0.000000 
#    z 0.000000 0.000000 1.731790 
# 
# From -- ./inp_files/24769.got.cif
#   From: 2010.03.12/outbox.cif.g09.slc.cpg/sg68_13_cif.got.tgz:24769.got - 2010.04.10 23:14:56.
