data_PCOD8281460
_publ_section_title
;
Structure prediction by ZEFSAII (Michael W. Deem and Ramdas Pophale) SiO2 
 PCOD8281460
Probable space group: C M M A
;
_chemical_formula_sum "Si O2"
_cell_formula_units_Z 112
_cell_length_a 15.565925
_cell_length_b 24.195314
_cell_length_c 13.690578
_cell_angle_alpha 90.000000
_cell_angle_beta 90.000000
_cell_angle_gamma 90.000000
_cell_volume 5156.178933
_symmetry_space_group_name_H-M "C M M A"
_symmetry_group_IT_number 67
_symmetry_cell_setting 'orthorhombic'
loop_
_space_group_symop_operation_xyz
x,y,z
-x,1/2-y,z
x,-y,-z
-x,1/2+y,-z
-x,-y,-z
x,1/2+y,-z
-x,y,z
x,1/2-y,z
1/2+x,1/2+y,z
1/2-x,-y,z
1/2+x,1/2-y,-z
1/2-x,y,-z
1/2-x,1/2-y,-z
1/2+x,y,-z
1/2-x,1/2+y,z
1/2+x,-y,z
loop_
_atom_site_type_symbol
_atom_site_label
_atom_site_fract_x
_atom_site_fract_y
_atom_site_fract_z
Si Si1 0.651457 0.893901 0.100157
Si Si2 0.652064 0.885244 0.880784
Si Si3 0.597840 0.685194 0.714837
Si Si4 0.402898 0.500436 0.800235
Si Si5 0.334836 0.028388 0.601597
Si Si6 0.736716 0.849495 0.394593
Si Si7 0.906392 0.689290 0.745967
O O1 0.747644 0.871754 0.111168
O O2 0.593868 0.856063 0.169172
O O3 0.649573 0.957226 0.134423
O O4 0.615042 0.891180 0.990086
O O5 0.604878 0.834176 0.827544
O O6 0.638441 0.939845 0.815914
O O7 0.500000 0.673428 0.677476
O O8 0.619183 0.750000 0.706749
O O9 0.668854 0.649261 0.655677
O O10 0.500000 0.501837 0.837467
O O11 0.404360 0.481525 0.686301
O O12 0.309516 0.091902 0.586743
O O13 0.365591 0.000000 0.500000
O O14 0.250000 0.000000 0.642830
O O15 0.750000 0.821100 0.500000
O O16 0.670193 0.814628 0.331420
O O17 0.898369 0.750000 0.794027
O O18 0.000000 0.683018 0.693774
#
# Coordination Sequence:
#
# PCOD8281460 Si02
#       7
#    16  16  16  16  16  16  16
#     4  11  23  42  68  96 134 178 228 277 339 401
#     4  11  24  41  66  99 132 180 227 279 335 402
#     4  11  25  45  68  98 137 180 228 279 333 397
#     4  12  24  39  63  95 135 177 221 277 338 404
#     4  11  22  40  65  94 130 170 220 269 331 402
#     4  12  24  44  73  99 131 177 222 275 341 402
#     4  11  25  45  70 101 135 175 227 281 334 396
#
# _framework density 21.721511
#
# number of rings (size 3 to 8) (size 9 to 14) (size 15 to 20)
#    0.000    0.714    4.286    3.857    0.000    6.571 
#    0.000    4.286    0.000    0.429    0.000    0.000 
#    0.000    0.000    0.000    0.000    0.000    0.000 
#
# Total GULP energy -694271.409369 kJ/mol
# GULP energy per Si atom -12397.703739 kJ/mol
# Density = 2.167207 g / cm^3
# Si number density = 21.721511 Si / 1000 Ang^3
#
#
#
# Elastic Constant Matrix: (Units=GPa)
#
#
# Indices 1 2 3 4 5 6 
#
# 1 108.7148 18.8696 38.7452 0.0000 0.0000 0.0000
# 2 18.8696 91.7414 32.3344 0.0000 0.0000 0.0000
# 3 38.7452 32.3344 143.6535 0.0000 0.0000 0.0000
# 4 0.0000 0.0000 0.0000 -1.8226 0.0000 0.0000
# 5 0.0000 0.0000 0.0000 0.0000 12.6498 0.0000
# 6 0.0000 0.0000 0.0000 0.0000 0.0000 26.0106
#
#
#
# Elastic Compliance Matrix: (Units=1/GPa)
#
#
# Indices 1 2 3 4 5 6 
#
# 1 0.010304 -0.001238 -0.002501 0.000000 0.000000 0.000000
# 2 -0.001238 0.011988 -0.002364 0.000000 0.000000 0.000000
# 3 -0.002501 -0.002364 0.008168 0.000000 0.000000 0.000000
# 4 0.000000 0.000000 0.000000 -0.548677 0.000000 0.000000
# 5 0.000000 0.000000 0.000000 0.000000 0.079053 0.000000
# 6 0.000000 0.000000 0.000000 0.000000 0.000000 0.038446
#
#
# Mechanical properties :
#
#
# Convention : Reuss Voigt Hill
#
# Bulk Modulus (GPa) = 54.78174 58.22313 56.50243
# Shear Modulus (GPa) = -13.07439 24.31159 5.61860
#
# Velocity S-wave (km/s) = -2.45605 3.34913 1.61005
# Velocity P-wave (km/s) = 4.15113 6.46670 5.43369
#
# Compressibility (1/GPa) = 0.01825426
#
# Stress axis : x y z
#
# Youngs Moduli (GPa) = 97.04530 83.41519 122.43151
#
# Poissons Ratio (x) = 0.10328 0.30615
# Poissons Ratio (y) = 0.12015 0.28948
# Poissons Ratio (z) = 0.24267 0.19723
#
# Static dielectric constant tensor:
#      x y z
#    x 3.879330 0.000000 0.000000 
#    y 0.000000 3.889580 0.000000 
#    z 0.000000 0.000000 4.041530 
# 
# 
# High freq. dielectric constant tensor:
#      x y z
#    x 1.857430 0.000000 0.000000 
#    y 0.000000 1.855170 0.000000 
#    z 0.000000 0.000000 1.849240 
# 
# From -- ./inp_files/27512.got.cif
#   From: 2010.03.12/outbox.cif.g09.slc.cpg/sg67_14_cif.got.tgz:27512.got - 2010.04.10 22:41:39.
