data_PCOD8281320
_publ_section_title
;
Structure prediction by ZEFSAII (Michael W. Deem and Ramdas Pophale) SiO2 
 PCOD8281320
Probable space group: C M M A
;
_chemical_formula_sum "Si O2"
_cell_formula_units_Z 104
_cell_length_a 14.670700
_cell_length_b 22.551059
_cell_length_c 16.023726
_cell_angle_alpha 90.000000
_cell_angle_beta 90.000000
_cell_angle_gamma 90.000000
_cell_volume 5301.286646
_symmetry_space_group_name_H-M "C M M A"
_symmetry_group_IT_number 67
_symmetry_cell_setting 'orthorhombic'
loop_
_space_group_symop_operation_xyz
x,y,z
-x,1/2-y,z
x,-y,-z
-x,1/2+y,-z
-x,-y,-z
x,1/2+y,-z
-x,y,z
x,1/2-y,z
1/2+x,1/2+y,z
1/2-x,-y,z
1/2+x,1/2-y,-z
1/2-x,y,-z
1/2-x,1/2-y,-z
1/2+x,y,-z
1/2-x,1/2+y,z
1/2+x,-y,z
loop_
_atom_site_type_symbol
_atom_site_label
_atom_site_fract_x
_atom_site_fract_y
_atom_site_fract_z
Si Si1 0.250000 0.500000 0.753292
Si Si2 0.396518 0.318480 0.052791
Si Si3 0.897253 0.818026 0.340170
Si Si4 0.397068 0.819578 0.139474
Si Si5 0.397739 0.020325 0.625926
Si Si6 0.851633 0.593701 0.477037
Si Si7 0.718660 0.124505 0.193926
O O1 0.330437 0.467022 0.702081
O O2 0.290674 0.553249 0.808113
O O3 0.500000 0.331294 0.080330
O O4 0.372544 0.250000 0.066581
O O5 0.328456 0.355382 0.109163
O O6 0.381967 0.336462 0.957070
O O7 0.866912 0.750000 0.352226
O O8 0.895663 0.850202 0.430358
O O9 0.829786 0.849579 0.275797
O O10 0.000000 0.821417 0.304611
O O11 0.500000 0.837381 0.166952
O O12 0.382134 0.750000 0.152749
O O13 0.324217 0.854973 0.195014
O O14 0.500000 0.006368 0.657372
O O15 0.403432 0.076196 0.562545
O O16 0.353799 0.962839 0.583111
O O17 0.750000 0.611259 0.500000
#
# Coordination Sequence:
#
# PCOD8281320 Si02
#       7
#     8  16  16  16  16  16  16
#     4  12  26  39  51  86 118 150 198 242 269 338
#     4   9  18  35  62  91 113 141 188 240 288 346
#     4  11  23  37  57  90 124 150 182 233 298 355
#     4   9  19  37  61  87 112 144 193 242 282 338
#     4  11  20  37  61  78 105 148 193 242 280 316
#     4  11  19  36  59  83 111 139 189 237 281 337
#     4  12  22  36  56  80 120 158 190 232 288 339
#
# _framework density 19.61788
#
# number of rings (size 3 to 8) (size 9 to 14) (size 15 to 20)
#    0.000    1.385    3.077    5.538    0.000    4.000 
#    0.000    1.538    0.000    1.846    0.000    4.308 
#    0.000    0.000    0.000    0.000    0.000    0.000 
#
# Total GULP energy -644781.897563 kJ/mol
# GULP energy per Si atom -12399.651876 kJ/mol
# Density = 1.957323 g / cm^3
# Si number density = 19.617880 Si / 1000 Ang^3
#
#
#
# Elastic Constant Matrix: (Units=GPa)
#
#
# Indices 1 2 3 4 5 6 
#
# 1 123.2569 43.5192 44.5323 0.0000 0.0000 0.0000
# 2 43.5192 118.2201 40.5499 0.0000 0.0000 0.0000
# 3 44.5323 40.5499 54.6092 0.0000 0.0000 0.0000
# 4 0.0000 0.0000 0.0000 22.7549 0.0000 0.0000
# 5 0.0000 0.0000 0.0000 0.0000 25.9942 0.0000
# 6 0.0000 0.0000 0.0000 0.0000 0.0000 13.6007
#
#
#
# Elastic Compliance Matrix: (Units=1/GPa)
#
#
# Indices 1 2 3 4 5 6 
#
# 1 0.011668 -0.001384 -0.008487 0.000000 0.000000 0.000000
# 2 -0.001384 0.011514 -0.007421 0.000000 0.000000 0.000000
# 3 -0.008487 -0.007421 0.030743 0.000000 0.000000 0.000000
# 4 0.000000 0.000000 0.000000 0.043947 0.000000 0.000000
# 5 0.000000 0.000000 0.000000 0.000000 0.038470 0.000000
# 6 0.000000 0.000000 0.000000 0.000000 0.000000 0.073525
#
#
# Mechanical properties :
#
#
# Convention : Reuss Voigt Hill
#
# Bulk Modulus (GPa) = 51.70395 61.47655 56.59025
# Shear Modulus (GPa) = 19.92835 23.63563 21.78199
#
# Velocity S-wave (km/s) = 3.19066 3.47479 3.33575
# Velocity P-wave (km/s) = 6.32349 6.89231 6.61402
#
# Compressibility (1/GPa) = 0.01934088
#
# Stress axis : x y z
#
# Youngs Moduli (GPa) = 85.70225 86.85338 32.52731
#
# Poissons Ratio (x) = 0.12022 0.27607
# Poissons Ratio (y) = 0.11862 0.24138
# Poissons Ratio (z) = 0.72739 0.64451
#
# Static dielectric constant tensor:
#      x y z
#    x 3.720010 0.000000 0.000000 
#    y 0.000000 3.432660 0.000000 
#    z 0.000000 0.000000 3.450940 
# 
# 
# High freq. dielectric constant tensor:
#      x y z
#    x 1.782670 0.000000 0.000000 
#    y 0.000000 1.744400 0.000000 
#    z 0.000000 0.000000 1.746410 
# 
# From -- ./inp_files/33721.got.cif
#   From: 2010.03.12/outbox.cif.g09.slc.cpg/sg67_17_cif.got.tgz:33721.got - 2010.04.10 22:41:39.
