data_PCOD8281350
_publ_section_title
;
Structure prediction by ZEFSAII (Michael W. Deem and Ramdas Pophale) SiO2 
 PCOD8281350
Probable space group: C M M A
;
_chemical_formula_sum "Si O2"
_cell_formula_units_Z 112
_cell_length_a 29.233896
_cell_length_b 18.198897
_cell_length_c 11.558123
_cell_angle_alpha 90.000000
_cell_angle_beta 90.000000
_cell_angle_gamma 90.000000
_cell_volume 6149.206485
_symmetry_space_group_name_H-M "C M M A"
_symmetry_group_IT_number 67
_symmetry_cell_setting 'orthorhombic'
loop_
_space_group_symop_operation_xyz
x,y,z
-x,1/2-y,z
x,-y,-z
-x,1/2+y,-z
-x,-y,-z
x,1/2+y,-z
-x,y,z
x,1/2-y,z
1/2+x,1/2+y,z
1/2-x,-y,z
1/2+x,1/2-y,-z
1/2-x,y,-z
1/2-x,1/2-y,-z
1/2+x,y,-z
1/2-x,1/2+y,z
1/2+x,-y,z
loop_
_atom_site_type_symbol
_atom_site_label
_atom_site_fract_x
_atom_site_fract_y
_atom_site_fract_z
Si Si1 0.862395 0.162595 0.898618
Si Si2 0.234199 0.418969 0.303667
Si Si3 0.402299 0.831813 0.258756
Si Si4 0.810106 0.669161 0.882976
Si Si5 0.358380 0.920186 0.449092
Si Si6 0.323725 0.336934 0.343886
Si Si7 0.050570 0.837571 0.969055
O O1 0.864858 0.250000 0.898613
O O2 0.847444 0.132642 0.773696
O O3 0.824338 0.137090 0.991905
O O4 0.912345 0.131447 0.938079
O O5 0.250000 0.500000 0.278347
O O6 0.225905 0.384086 0.177564
O O7 0.190324 0.421723 0.385652
O O8 0.274130 0.372605 0.364962
O O9 0.416665 0.750000 0.304229
O O10 0.353831 0.823691 0.197880
O O11 0.398242 0.890736 0.363303
O O12 0.437842 0.862346 0.162700
O O13 0.787486 0.750000 0.896003
O O14 0.356533 0.861504 0.552601
O O15 0.371235 0.000000 0.500000
O O16 0.318249 0.250000 0.342410
O O17 0.052271 0.750000 0.971457
O O18 0.000000 0.867068 0.002083
#
# Coordination Sequence:
#
# PCOD8281350 Si02
#       7
#    16  16  16  16  16  16  16
#     4   8  16  31  48  74 105 129 162 202 245 309
#     4  11  21  33  48  67  98 127 175 225 253 286
#     4   8  15  28  49  76  99 124 167 207 245 302
#     4   8  15  30  50  67  94 130 163 205 250 291
#     4  11  21  34  50  65  97 137 171 221 258 284
#     4  11  22  33  50  71  97 137 174 205 251 304
#     4   8  13  26  54  85 107 126 153 203 259 300
#
# _framework density 18.213732
#
# number of rings (size 3 to 8) (size 9 to 14) (size 15 to 20)
#    0.000    2.714    1.429    3.000    0.000    2.857 
#    0.000    3.571    0.000    1.286    0.000    5.000 
#    0.000    0.000    0.000    0.000    0.000    0.000 
#
# Total GULP energy -694038.628479 kJ/mol
# GULP energy per Si atom -12393.546937 kJ/mol
# Density = 1.817228 g / cm^3
# Si number density = 18.213732 Si / 1000 Ang^3
#
#
#
# Elastic Constant Matrix: (Units=GPa)
#
#
# Indices 1 2 3 4 5 6 
#
# 1 34.7601 16.2463 18.0882 0.0000 0.0000 0.0000
# 2 16.2463 69.1475 21.9721 0.0000 0.0000 0.0000
# 3 18.0882 21.9721 74.7416 0.0000 0.0000 0.0000
# 4 0.0000 0.0000 0.0000 -7.4961 0.0000 0.0000
# 5 0.0000 0.0000 0.0000 0.0000 18.0939 0.0000
# 6 0.0000 0.0000 0.0000 0.0000 0.0000 5.1278
#
#
#
# Elastic Compliance Matrix: (Units=1/GPa)
#
#
# Indices 1 2 3 4 5 6 
#
# 1 0.035116 -0.006122 -0.006699 0.000000 0.000000 0.000000
# 2 -0.006122 0.017019 -0.003522 0.000000 0.000000 0.000000
# 3 -0.006699 -0.003522 0.016036 0.000000 0.000000 0.000000
# 4 0.000000 0.000000 0.000000 -0.133402 0.000000 0.000000
# 5 0.000000 0.000000 0.000000 0.000000 0.055267 0.000000
# 6 0.000000 0.000000 0.000000 0.000000 0.000000 0.195016
#
#
# Mechanical properties :
#
#
# Convention : Reuss Voigt Hill
#
# Bulk Modulus (GPa) = 28.17989 32.36248 30.27119
# Shear Modulus (GPa) = 21.78033 11.30130 16.54082
#
# Velocity S-wave (km/s) = 3.46181 2.49365 3.01682
# Velocity P-wave (km/s) = 5.61108 5.10860 5.36573
#
# Compressibility (1/GPa) = 0.03548630
#
# Stress axis : x y z
#
# Youngs Moduli (GPa) = 28.47730 58.75712 62.36039
#
# Poissons Ratio (x) = 0.35971 0.41773
# Poissons Ratio (y) = 0.17434 0.21961
# Poissons Ratio (z) = 0.19076 0.20692
#
# Static dielectric constant tensor:
#      x y z
#    x 3.353950 0.000000 0.000000 
#    y 0.000000 3.214540 0.000000 
#    z 0.000000 0.000000 3.657360 
# 
# 
# High freq. dielectric constant tensor:
#      x y z
#    x 1.674710 0.000000 0.000000 
#    y 0.000000 1.677950 0.000000 
#    z 0.000000 0.000000 1.710220 
# 
# From -- ./inp_files/23153.got.cif
#   From: 2010.03.12/outbox.cif.g09.slc.cpg/sg67_12_cif.got.tgz:23153.got - 2010.04.10 22:41:39.
