data_PCOD8281949
_publ_section_title
;
Structure prediction by ZEFSAII (Michael W. Deem and Ramdas Pophale) SiO2 
 PCOD8281949
Probable space group: C C C A
;
_chemical_formula_sum "Si O2"
_cell_formula_units_Z 112
_cell_length_a 12.282460
_cell_length_b 22.406147
_cell_length_c 20.817902
_cell_angle_alpha 90.000000
_cell_angle_beta 90.000000
_cell_angle_gamma 90.000000
_cell_volume 5729.140846
_symmetry_space_group_name_H-M "C C C A"
_symmetry_group_IT_number 68
_space_group.IT_coordinate_system_code '2'
_symmetry_cell_setting 'orthorhombic'
loop_
_space_group_symop_operation_xyz
x,y,z
-x,1/2-y,z
x,1/2-y,1/2-z
-x,y,1/2-z
-x,-y,-z
x,1/2+y,-z
-x,1/2+y,1/2+z
x,-y,1/2+z
1/2+x,1/2+y,z
1/2-x,-y,z
1/2+x,-y,1/2-z
1/2-x,1/2+y,1/2-z
1/2-x,1/2-y,-z
1/2+x,y,-z
1/2-x,y,1/2+z
1/2+x,1/2-y,1/2+z
loop_
_atom_site_type_symbol
_atom_site_label
_atom_site_fract_x
_atom_site_fract_y
_atom_site_fract_z
Si Si1 0.597596 0.552192 0.707045
Si Si2 0.953029 0.842700 0.843150
Si Si3 0.059314 0.079954 0.447920
Si Si4 0.246489 0.621937 0.122125
Si Si5 0.166299 0.268163 0.177872
Si Si6 0.531816 0.944277 0.582075
Si Si7 0.176440 0.423252 0.253596
O O1 0.500000 0.579592 0.750000
O O2 0.565200 0.549538 0.633002
O O3 0.707196 0.591047 0.712594
O O4 0.628942 0.488467 0.736038
O O5 0.864786 0.791296 0.862426
O O6 0.909766 0.877698 0.781642
O O7 0.970375 0.887962 0.902286
O O8 0.062800 0.811755 0.819285
O O9 0.177131 0.111936 0.440539
O O10 0.017561 0.088461 0.520169
O O11 0.075607 0.009962 0.433544
O O12 0.239819 0.692489 0.142292
O O13 0.126659 0.597201 0.110424
O O14 0.309358 0.584695 0.177448
O O15 0.202227 0.250000 0.250000
#
# Coordination Sequence:
#
# PCOD8281949 Si02
#       7
#    16  16  16  16  16  16  16
#     4  11  22  35  54  87 119 156 192 244 306 373
#     4  10  19  35  56  94 119 151 201 263 302 344
#     4  10  23  36  59  82 123 166 204 252 296 375
#     4  11  22  37  60  90 121 160 202 256 317 365
#     4  10  20  32  60  96 122 148 199 267 312 352
#     4  11  22  41  56  84 125 167 203 240 306 385
#     4  11  22  32  59  87 122 151 194 252 308 361
#
# _framework density 19.549178999999999
#
# number of rings (size 3 to 8) (size 9 to 14) (size 15 to 20)
#    0.000    1.429    4.286    2.143    6.000    1.143 
#    2.571    0.714    0.000    4.286    0.000    0.000 
#    0.000    0.000    0.000    0.000    0.000    0.000 
#
# Total GULP energy -694194.765945 kJ/mol
# GULP energy per Si atom -12396.335106 kJ/mol
# Density = 1.950468 g / cm^3
# Si number density = 19.549179 Si / 1000 Ang^3
#
#
#
# Elastic Constant Matrix: (Units=GPa)
#
#
# Indices 1 2 3 4 5 6 
#
# 1 46.5162 11.5354 17.6959 0.0000 0.0000 0.0000
# 2 11.5354 76.2926 18.8179 0.0000 0.0000 0.0000
# 3 17.6959 18.8179 95.5021 0.0000 0.0000 0.0000
# 4 0.0000 0.0000 0.0000 28.3496 0.0000 0.0000
# 5 0.0000 0.0000 0.0000 0.0000 31.8019 0.0000
# 6 0.0000 0.0000 0.0000 0.0000 0.0000 27.5784
#
#
#
# Elastic Compliance Matrix: (Units=1/GPa)
#
#
# Indices 1 2 3 4 5 6 
#
# 1 0.023616 -0.002619 -0.003860 0.000000 0.000000 0.000000
# 2 -0.002619 0.014067 -0.002287 0.000000 0.000000 0.000000
# 3 -0.003860 -0.002287 0.011637 0.000000 0.000000 0.000000
# 4 0.000000 0.000000 0.000000 0.035274 0.000000 0.000000
# 5 0.000000 0.000000 0.000000 0.000000 0.031445 0.000000
# 6 0.000000 0.000000 0.000000 0.000000 0.000000 0.036260
#
#
# Mechanical properties :
#
#
# Convention : Reuss Voigt Hill
#
# Bulk Modulus (GPa) = 31.45688 34.93435 33.19561
# Shear Modulus (GPa) = 27.71231 28.89677 28.30454
#
# Velocity S-wave (km/s) = 3.76915 3.84885 3.80921
# Velocity P-wave (km/s) = 5.92183 6.13680 6.03027
#
# Compressibility (1/GPa) = 0.03178955
#
# Stress axis : x y z
#
# Youngs Moduli (GPa) = 42.34481 71.08650 85.93470
#
# Poissons Ratio (x) = 0.18615 0.33169
# Poissons Ratio (y) = 0.11089 0.19650
# Poissons Ratio (z) = 0.16344 0.16255
#
# Static dielectric constant tensor:
#      x y z
#    x 3.748340 0.000000 0.000000 
#    y 0.000000 3.919840 0.000000 
#    z 0.000000 0.000000 3.484020 
# 
# 
# High freq. dielectric constant tensor:
#      x y z
#    x 1.751130 0.000000 0.000000 
#    y 0.000000 1.756120 0.000000 
#    z 0.000000 0.000000 1.748850 
# 
# From -- ./inp_files/37833.got.cif
#   From: 2010.03.12/outbox.cif.g09.slc.cpg/sg68_19_cif.got.tgz:37833.got - 2010.04.10 23:14:56.
