data_PCOD8281902
_publ_section_title
;
Structure prediction by ZEFSAII (Michael W. Deem and Ramdas Pophale) SiO2 
 PCOD8281902
Probable space group: C C C A
;
_chemical_formula_sum "Si O2"
_cell_formula_units_Z 104
_cell_length_a 9.000906
_cell_length_b 23.782666
_cell_length_c 25.134544
_cell_angle_alpha 90.000000
_cell_angle_beta 90.000000
_cell_angle_gamma 90.000000
_cell_volume 5380.439762
_symmetry_space_group_name_H-M "C C C A"
_symmetry_group_IT_number 68
_space_group.IT_coordinate_system_code '2'
_symmetry_cell_setting 'orthorhombic'
loop_
_space_group_symop_operation_xyz
x,y,z
-x,1/2-y,z
x,1/2-y,1/2-z
-x,y,1/2-z
-x,-y,-z
x,1/2+y,-z
-x,1/2+y,1/2+z
x,-y,1/2+z
1/2+x,1/2+y,z
1/2-x,-y,z
1/2+x,-y,1/2-z
1/2-x,1/2+y,1/2-z
1/2-x,1/2-y,-z
1/2+x,y,-z
1/2-x,y,1/2+z
1/2+x,1/2-y,1/2+z
loop_
_atom_site_type_symbol
_atom_site_label
_atom_site_fract_x
_atom_site_fract_y
_atom_site_fract_z
Si Si1 0.157513 0.731884 0.549038
Si Si2 0.726221 0.062606 0.619106
Si Si3 0.546012 0.592224 0.585628
Si Si4 0.801489 0.664630 0.612547
Si Si5 0.961934 0.591753 0.688653
Si Si6 0.455864 0.885460 0.461519
Si Si7 0.750000 0.500000 0.636516
O O1 0.250000 0.750000 0.500000
O O2 0.193668 0.767919 0.602692
O O3 0.159421 0.664797 0.555544
O O4 0.000000 0.750000 0.527737
O O5 0.624396 0.093529 0.662236
O O6 0.628105 0.061153 0.564517
O O7 0.886321 0.091665 0.613625
O O8 0.750000 0.000000 0.639075
O O9 0.630010 0.646177 0.610059
O O10 0.521866 0.601479 0.522941
O O11 0.643353 0.536739 0.598379
O O12 0.875534 0.648310 0.669109
O O13 0.885489 0.628729 0.565633
O O14 0.857638 0.538292 0.673460
O O15 0.000000 0.593550 0.750000
#
# Coordination Sequence:
#
# PCOD8281902 Si02
#       7
#    16  16  16  16  16  16   8
#     4  10  19  33  55  82 118 152 194 231 290 345
#     4  11  23  37  53  84 115 153 199 240 285 359
#     4  11  20  34  53  80 121 157 191 231 291 350
#     4   9  20  37  53  85 114 151 197 241 291 356
#     4  10  22  41  60  80 113 148 198 255 302 349
#     4  10  21  34  54  80 122 158 188 231 284 362
#     4  10  22  34  54  80 112 154 196 238 288 364
#
# _framework density 19.329274000000002
#
# number of rings (size 3 to 8) (size 9 to 14) (size 15 to 20)
#    0.000    1.846    3.077    0.923    4.308    0.615 
#    0.000    2.308    0.000   11.538    0.000    0.000 
#    0.000   19.692    0.000    0.000    0.000    0.000 
#
# Total GULP energy -644217.496278 kJ/mol
# GULP energy per Si atom -12388.798005 kJ/mol
# Density = 1.928528 g / cm^3
# Si number density = 19.329274 Si / 1000 Ang^3
#
#
#
# Elastic Constant Matrix: (Units=GPa)
#
#
# Indices 1 2 3 4 5 6 
#
# 1 121.5088 17.3012 44.7646 0.0000 0.0000 0.0000
# 2 17.3012 56.0064 33.2509 0.0000 0.0000 0.0000
# 3 44.7646 33.2509 119.3447 0.0000 0.0000 0.0000
# 4 0.0000 0.0000 0.0000 17.7310 0.0000 0.0000
# 5 0.0000 0.0000 0.0000 0.0000 16.9411 0.0000
# 6 0.0000 0.0000 0.0000 0.0000 0.0000 26.0878
#
#
#
# Elastic Compliance Matrix: (Units=1/GPa)
#
#
# Indices 1 2 3 4 5 6 
#
# 1 0.009595 -0.000991 -0.003323 0.000000 0.000000 0.000000
# 2 -0.000991 0.021496 -0.005617 0.000000 0.000000 0.000000
# 3 -0.003323 -0.005617 0.011190 0.000000 0.000000 0.000000
# 4 0.000000 0.000000 0.000000 0.056398 0.000000 0.000000
# 5 0.000000 0.000000 0.000000 0.000000 0.059028 0.000000
# 6 0.000000 0.000000 0.000000 0.000000 0.000000 0.038332
#
#
# Mechanical properties :
#
#
# Convention : Reuss Voigt Hill
#
# Bulk Modulus (GPa) = 44.60492 54.16592 49.38542
# Shear Modulus (GPa) = 22.38374 25.58819 23.98597
#
# Velocity S-wave (km/s) = 3.40667 3.64236 3.52648
# Velocity P-wave (km/s) = 6.21291 6.76555 6.49511
#
# Compressibility (1/GPa) = 0.02241905
#
# Stress axis : x y z
#
# Youngs Moduli (GPa) = 104.21922 46.51959 89.36173
#
# Poissons Ratio (x) = 0.04612 0.29693
# Poissons Ratio (y) = 0.10332 0.50197
# Poissons Ratio (z) = 0.34630 0.26131
#
# Static dielectric constant tensor:
#      x y z
#    x 3.789570 0.000000 0.000000 
#    y 0.000000 3.866260 0.000000 
#    z 0.000000 0.000000 3.130110 
# 
# 
# High freq. dielectric constant tensor:
#      x y z
#    x 1.773790 0.000000 0.000000 
#    y 0.000000 1.745150 0.000000 
#    z 0.000000 0.000000 1.712980 
# 
# From -- ./inp_files/43461.got.cif
#   From: 2010.03.12/outbox.cif.g09.slc.cpg/sg68_22_cif.got.tgz:43461.got - 2010.04.10 23:14:56.
