data_PCOD8281419
_publ_section_title
;
Structure prediction by ZEFSAII (Michael W. Deem and Ramdas Pophale) SiO2 
 PCOD8281419
Probable space group: C M M A
;
_chemical_formula_sum "Si O2"
_cell_formula_units_Z 96
_cell_length_a 18.857987
_cell_length_b 8.927439
_cell_length_c 30.482379
_cell_angle_alpha 90.000000
_cell_angle_beta 90.000000
_cell_angle_gamma 90.000000
_cell_volume 5131.816065
_symmetry_space_group_name_H-M "C M M A"
_symmetry_group_IT_number 67
_symmetry_cell_setting 'orthorhombic'
loop_
_space_group_symop_operation_xyz
x,y,z
-x,1/2-y,z
x,-y,-z
-x,1/2+y,-z
-x,-y,-z
x,1/2+y,-z
-x,y,z
x,1/2-y,z
1/2+x,1/2+y,z
1/2-x,-y,z
1/2+x,1/2-y,-z
1/2-x,y,-z
1/2-x,1/2-y,-z
1/2+x,y,-z
1/2-x,1/2+y,z
1/2+x,-y,z
loop_
_atom_site_type_symbol
_atom_site_label
_atom_site_fract_x
_atom_site_fract_y
_atom_site_fract_z
Si Si1 0.674879 0.073056 0.955373
Si Si2 0.826381 0.426773 0.286988
Si Si3 0.918798 0.576436 0.215074
Si Si4 0.082727 0.418975 0.885856
Si Si5 0.915544 0.918569 0.457014
Si Si6 0.919132 0.426362 0.369093
O O1 0.683034 0.250000 0.961593
O O2 0.750000 0.000000 0.943949
O O3 0.622271 0.039419 0.915613
O O4 0.644293 0.000000 0.000000
O O5 0.817365 0.250000 0.286674
O O6 0.750000 0.500000 0.289384
O O7 0.866551 0.474765 0.243100
O O8 0.871898 0.481964 0.328603
O O9 0.906850 0.750000 0.226722
O O10 0.899946 0.545398 0.164577
O O11 0.000000 0.530597 0.224814
O O12 0.107533 0.250000 0.897348
O O13 0.000000 0.435742 0.894905
O O14 0.886811 0.750000 0.456895
O O15 0.000000 0.924259 0.458308
O O16 0.884217 0.000000 0.500000
O O17 0.888090 0.999339 0.413125
O O18 0.915018 0.250000 0.375610
O O19 0.000000 0.477743 0.360127
#
# Coordination Sequence:
#
# PCOD8281419 Si02
#       6
#    16  16  16  16  16  16
#     4  11  22  37  57  80 109 145 184 224 266 314
#     4  11  23  37  54  77 107 142 179 221 266 314
#     4   9  19  37  60  83 108 139 175 218 267 318
#     4   9  19  37  59  83 111 141 175 218 267 317
#     4   9  16  26  44  72 103 133 166 207 254 304
#     4   9  18  33  52  74 101 134 172 214 261 311
#
# _framework density 18.706828000000002
#
# number of rings (size 3 to 8) (size 9 to 14) (size 15 to 20)
#    0.000    2.333    0.000    4.500    0.000    6.333 
#    0.000    3.333    0.000    0.500    0.000    3.500 
#    0.000    0.000    0.000    0.000    0.000    0.000 
#
# Total GULP energy -595290.303472 kJ/mol
# GULP energy per Si atom -12401.881322 kJ/mol
# Density = 1.866425 g / cm^3
# Si number density = 18.706828 Si / 1000 Ang^3
#
#
#
# Elastic Constant Matrix: (Units=GPa)
#
#
# Indices 1 2 3 4 5 6 
#
# 1 80.7440 45.5154 68.6707 0.0000 0.0000 0.0000
# 2 45.5154 98.5044 62.9183 0.0000 0.0000 0.0000
# 3 68.6707 62.9183 137.4059 0.0000 0.0000 0.0000
# 4 0.0000 0.0000 0.0000 35.8186 0.0000 0.0000
# 5 0.0000 0.0000 0.0000 0.0000 1.8204 0.0000
# 6 0.0000 0.0000 0.0000 0.0000 0.0000 19.0633
#
#
#
# Elastic Compliance Matrix: (Units=1/GPa)
#
#
# Indices 1 2 3 4 5 6 
#
# 1 0.022944 -0.004632 -0.009346 0.000000 0.000000 0.000000
# 2 -0.004632 0.015284 -0.004683 0.000000 0.000000 0.000000
# 3 -0.009346 -0.004683 0.014093 0.000000 0.000000 0.000000
# 4 0.000000 0.000000 0.000000 0.027918 0.000000 0.000000
# 5 0.000000 0.000000 0.000000 0.000000 0.549344 0.000000
# 6 0.000000 0.000000 0.000000 0.000000 0.000000 0.052457
#
#
# Mechanical properties :
#
#
# Convention : Reuss Voigt Hill
#
# Bulk Modulus (GPa) = 66.67462 74.54037 70.60750
# Shear Modulus (GPa) = 6.90262 20.64377 13.77319
#
# Velocity S-wave (km/s) = 1.92299 3.32556 2.71637
# Velocity P-wave (km/s) = 6.37572 7.39452 6.90394
#
# Compressibility (1/GPa) = 0.01499821
#
# Stress axis : x y z
#
# Youngs Moduli (GPa) = 43.58384 65.42922 70.95817
#
# Poissons Ratio (x) = 0.30309 0.66315
# Poissons Ratio (y) = 0.20190 0.33232
# Poissons Ratio (z) = 0.40732 0.30643
#
# Static dielectric constant tensor:
#      x y z
#    x 3.189570 0.000000 0.000000 
#    y 0.000000 3.419060 0.000000 
#    z 0.000000 0.000000 3.553570 
# 
# 
# High freq. dielectric constant tensor:
#      x y z
#    x 1.700800 0.000000 0.000000 
#    y 0.000000 1.729400 0.000000 
#    z 0.000000 0.000000 1.739440 
# 
# From -- ./inp_files/44578.got.cif
#   From: 2010.03.12/outbox.cif.g09.slc.cpg/sg67_23_cif.got.tgz:44578.got - 2010.04.10 22:41:39.
