data_PCOD8281456
_publ_section_title
;
Structure prediction by ZEFSAII (Michael W. Deem and Ramdas Pophale) SiO2 
 PCOD8281456
Probable space group: C M M A
;
_chemical_formula_sum "Si O2"
_cell_formula_units_Z 64
_cell_length_a 16.162810
_cell_length_b 10.617800
_cell_length_c 18.315717
_cell_angle_alpha 90.000000
_cell_angle_beta 90.000000
_cell_angle_gamma 90.000000
_cell_volume 3143.224007
_symmetry_space_group_name_H-M "C M M A"
_symmetry_group_IT_number 67
_symmetry_cell_setting 'orthorhombic'
loop_
_space_group_symop_operation_xyz
x,y,z
-x,1/2-y,z
x,-y,-z
-x,1/2+y,-z
-x,-y,-z
x,1/2+y,-z
-x,y,z
x,1/2-y,z
1/2+x,1/2+y,z
1/2-x,-y,z
1/2+x,1/2-y,-z
1/2-x,y,-z
1/2-x,1/2-y,-z
1/2+x,y,-z
1/2-x,1/2+y,z
1/2+x,-y,z
loop_
_atom_site_type_symbol
_atom_site_label
_atom_site_fract_x
_atom_site_fract_y
_atom_site_fract_z
Si Si1 0.904904 0.497770 0.342203
Si Si2 0.164097 0.250000 0.412381
Si Si3 0.905534 0.892828 0.191056
Si Si4 0.659580 0.114163 0.037554
Si Si5 0.858020 0.750000 0.425510
O O1 0.854522 0.377817 0.369169
O O2 0.877243 0.520818 0.258454
O O3 0.892693 0.623335 0.389596
O O4 0.000000 0.460020 0.345206
O O5 0.115231 0.250000 0.489271
O O6 0.260685 0.250000 0.422999
O O7 0.900919 0.750000 0.219457
O O8 0.841225 0.913453 0.124274
O O9 0.000000 0.923829 0.166212
O O10 0.616394 0.250000 0.023897
O O11 0.750000 0.116807 0.000000
O O12 0.608670 0.000000 0.000000
#
# Coordination Sequence:
#
# PCOD8281456 Si02
#       5
#    16   8  16  16   8
#     4  11  22  40  64  93 122 161 214 256 301 366
#     4  11  25  41  59  93 131 158 199 268 318 347
#     4   9  18  36  60  83 116 158 198 240 296 367
#     4   9  18  35  54  80 111 144 186 240 286 352
#     4  11  23  43  63  85 125 172 207 242 312 385
#
# _framework density 20.361259
#
# number of rings (size 3 to 8) (size 9 to 14) (size 15 to 20)
#    0.000    2.000    1.250    2.250    0.000    5.500 
#   11.250    0.000    0.000    0.000    0.000    0.000 
#    0.000    0.000    0.000    0.000    0.000    0.000 
#
# Total GULP energy -396479.597475 kJ/mol
# GULP energy per Si atom -12389.987421 kJ/mol
# Density = 2.031492 g / cm^3
# Si number density = 20.361259 Si / 1000 Ang^3
#
#
#
# Elastic Constant Matrix: (Units=GPa)
#
#
# Indices 1 2 3 4 5 6 
#
# 1 45.5169 6.1363 39.6943 0.0000 0.0000 0.0000
# 2 6.1363 167.6380 75.1378 0.0000 0.0000 0.0000
# 3 39.6943 75.1378 160.5494 0.0000 0.0000 0.0000
# 4 0.0000 0.0000 0.0000 47.2656 0.0000 0.0000
# 5 0.0000 0.0000 0.0000 0.0000 33.7590 0.0000
# 6 0.0000 0.0000 0.0000 0.0000 0.0000 49.5854
#
#
#
# Elastic Compliance Matrix: (Units=1/GPa)
#
#
# Indices 1 2 3 4 5 6 
#
# 1 0.028957 0.002719 -0.008432 0.000000 0.000000 0.000000
# 2 0.002719 0.007804 -0.004325 0.000000 0.000000 0.000000
# 3 -0.008432 -0.004325 0.010337 0.000000 0.000000 0.000000
# 4 0.000000 0.000000 0.000000 0.021157 0.000000 0.000000
# 5 0.000000 0.000000 0.000000 0.000000 0.029622 0.000000
# 6 0.000000 0.000000 0.000000 0.000000 0.000000 0.020167
#
#
# Mechanical properties :
#
#
# Convention : Reuss Voigt Hill
#
# Bulk Modulus (GPa) = 37.00488 68.40457 52.70473
# Shear Modulus (GPa) = 33.98446 42.97108 38.47777
#
# Velocity S-wave (km/s) = 4.08986 4.59893 4.35185
# Velocity P-wave (km/s) = 6.36524 7.86566 7.15489
#
# Compressibility (1/GPa) = 0.02702346
#
# Stress axis : x y z
#
# Youngs Moduli (GPa) = 34.53454 128.13813 96.73725
#
# Poissons Ratio (x) = -0.34845 0.81568
# Poissons Ratio (y) = -0.09391 0.41836
# Poissons Ratio (z) = 0.29119 0.55416
#
# Static dielectric constant tensor:
#      x y z
#    x 3.457780 0.000000 0.000000 
#    y 0.000000 4.381540 0.000000 
#    z 0.000000 0.000000 3.924560 
# 
# 
# High freq. dielectric constant tensor:
#      x y z
#    x 1.772780 0.000000 0.000000 
#    y 0.000000 1.808790 0.000000 
#    z 0.000000 0.000000 1.805080 
# 
# From -- ./inp_files/32706.got.cif
#   From: 2010.03.12/outbox.cif.g09.slc.cpg/sg67_17_cif.got.tgz:32706.got - 2010.04.10 22:41:39.
