data_PCOD8281558
_publ_section_title
;
Structure prediction by ZEFSAII (Michael W. Deem and Ramdas Pophale) SiO2 
 PCOD8281558
Probable space group: C M M A
;
_chemical_formula_sum "Si O2"
_cell_formula_units_Z 96
_cell_length_a 9.794873
_cell_length_b 27.417115
_cell_length_c 24.045168
_cell_angle_alpha 90.000000
_cell_angle_beta 90.000000
_cell_angle_gamma 90.000000
_cell_volume 6457.261565
_symmetry_space_group_name_H-M "C M M A"
_symmetry_group_IT_number 67
_symmetry_cell_setting 'orthorhombic'
loop_
_space_group_symop_operation_xyz
x,y,z
-x,1/2-y,z
x,-y,-z
-x,1/2+y,-z
-x,-y,-z
x,1/2+y,-z
-x,y,z
x,1/2-y,z
1/2+x,1/2+y,z
1/2-x,-y,z
1/2+x,1/2-y,-z
1/2-x,y,-z
1/2-x,1/2-y,-z
1/2+x,y,-z
1/2-x,1/2+y,z
1/2+x,-y,z
loop_
_atom_site_type_symbol
_atom_site_label
_atom_site_fract_x
_atom_site_fract_y
_atom_site_fract_z
Si Si1 0.337676 0.196078 0.385090
Si Si2 0.342290 0.102704 0.449231
Si Si3 0.347731 0.191842 0.047614
Si Si4 0.837268 0.195454 0.830275
Si Si5 0.342346 0.046366 0.336107
Si Si6 0.337949 0.142833 0.277432
O O1 0.500000 0.196710 0.381994
O O2 0.279759 0.250000 0.399349
O O3 0.293474 0.157245 0.432050
O O4 0.280193 0.179011 0.325107
O O5 0.500000 0.102534 0.467790
O O6 0.250000 0.084258 0.500000
O O7 0.319129 0.066172 0.398188
O O8 0.500000 0.171111 0.037576
O O9 0.351160 0.250000 0.044921
O O10 0.291451 0.176280 0.108689
O O11 0.250000 0.169801 0.000000
O O12 0.780434 0.250000 0.819208
O O13 0.779057 0.159405 0.782532
O O14 0.000000 0.197133 0.829143
O O15 0.500000 0.031992 0.327553
O O16 0.296098 0.087387 0.291501
O O17 0.250000 0.000000 0.324584
O O18 0.500000 0.146790 0.277660
#
# Coordination Sequence:
#
# PCOD8281558 Si02
#       6
#    16  16  16  16  16  16
#     4   8  13  22  37  56  78 102 124 149 184 222
#     4   9  18  30  42  59  80  99 123 153 183 220
#     4   8  13  20  30  47  73 104 134 158 179 207
#     4   8  12  18  32  55  79 102 129 159 187 215
#     4   9  18  31  45  60  77  97 121 152 192 233
#     4   8  13  22  37  57  78  97 122 157 191 223
#
# _framework density 14.866984
#
# number of rings (size 3 to 8) (size 9 to 14) (size 15 to 20)
#    0.000    3.667    0.000    3.500    0.000    3.333 
#    0.000    1.667    0.000    1.000    0.000    0.000 
#    0.000    4.667    0.000    8.333    0.000    0.333 
#
# Total GULP energy -594746.108714 kJ/mol
# GULP energy per Si atom -12390.543932 kJ/mol
# Density = 1.483315 g / cm^3
# Si number density = 14.866984 Si / 1000 Ang^3
#
#
#
# Elastic Constant Matrix: (Units=GPa)
#
#
# Indices 1 2 3 4 5 6 
#
# 1 33.5921 24.8231 36.5925 0.0000 0.0000 0.0000
# 2 24.8231 75.9896 35.6705 0.0000 0.0000 0.0000
# 3 36.5925 35.6705 113.4246 0.0000 0.0000 0.0000
# 4 0.0000 0.0000 0.0000 12.7524 0.0000 0.0000
# 5 0.0000 0.0000 0.0000 0.0000 16.9374 0.0000
# 6 0.0000 0.0000 0.0000 0.0000 0.0000 15.7165
#
#
#
# Elastic Compliance Matrix: (Units=1/GPa)
#
#
# Indices 1 2 3 4 5 6 
#
# 1 0.052494 -0.010791 -0.013542 0.000000 0.000000 0.000000
# 2 -0.010791 0.017657 -0.002072 0.000000 0.000000 0.000000
# 3 -0.013542 -0.002072 0.013837 0.000000 0.000000 0.000000
# 4 0.000000 0.000000 0.000000 0.078416 0.000000 0.000000
# 5 0.000000 0.000000 0.000000 0.000000 0.059041 0.000000
# 6 0.000000 0.000000 0.000000 0.000000 0.000000 0.063627
#
#
# Mechanical properties :
#
#
# Convention : Reuss Voigt Hill
#
# Bulk Modulus (GPa) = 32.07278 46.35317 39.21298
# Shear Modulus (GPa) = 14.35646 17.47596 15.91621
#
# Velocity S-wave (km/s) = 3.11088 3.43226 3.27551
# Velocity P-wave (km/s) = 5.87566 6.85226 6.38267
#
# Compressibility (1/GPa) = 0.03117909
#
# Stress axis : x y z
#
# Youngs Moduli (GPa) = 19.04963 56.63401 72.27176
#
# Poissons Ratio (x) = 0.61116 0.97869
# Poissons Ratio (y) = 0.20557 0.14971
# Poissons Ratio (z) = 0.25797 0.11732
#
# Static dielectric constant tensor:
#      x y z
#    x 2.499990 0.000000 0.000000 
#    y 0.000000 2.807240 0.000000 
#    z 0.000000 0.000000 3.154930 
# 
# 
# High freq. dielectric constant tensor:
#      x y z
#    x 1.521790 0.000000 0.000000 
#    y 0.000000 1.542280 0.000000 
#    z 0.000000 0.000000 1.570040 
# 
# From -- ./inp_files/37986.got.cif
#   From: 2010.03.12/outbox.cif.g09.slc.cpg/sg67_19_cif.got.tgz:37986.got - 2010.04.10 22:41:39.
