data_PCOD8281706
_publ_section_title
;
Structure prediction by ZEFSAII (Michael W. Deem and Ramdas Pophale) SiO2 
 PCOD8281706
Probable space group: C C C A
;
_chemical_formula_sum "Si O2"
_cell_formula_units_Z 96
_cell_length_a 9.390365
_cell_length_b 20.198961
_cell_length_c 26.349334
_cell_angle_alpha 90.000000
_cell_angle_beta 90.000000
_cell_angle_gamma 90.000000
_cell_volume 4997.826168
_symmetry_space_group_name_H-M "C C C A"
_symmetry_group_IT_number 68
_space_group.IT_coordinate_system_code '2'
_symmetry_cell_setting 'orthorhombic'
loop_
_space_group_symop_operation_xyz
x,y,z
-x,1/2-y,z
x,1/2-y,1/2-z
-x,y,1/2-z
-x,-y,-z
x,1/2+y,-z
-x,1/2+y,1/2+z
x,-y,1/2+z
1/2+x,1/2+y,z
1/2-x,-y,z
1/2+x,-y,1/2-z
1/2-x,1/2+y,1/2-z
1/2-x,1/2-y,-z
1/2+x,y,-z
1/2-x,y,1/2+z
1/2+x,1/2-y,1/2+z
loop_
_atom_site_type_symbol
_atom_site_label
_atom_site_fract_x
_atom_site_fract_y
_atom_site_fract_z
Si Si1 0.505282 0.324194 0.665831
Si Si2 0.117562 0.549465 0.214602
Si Si3 0.621671 0.452693 0.481984
Si Si4 0.455239 0.938549 0.611524
Si Si5 0.150154 0.914029 0.590328
Si Si6 0.771459 0.674387 0.754361
O O1 0.500000 0.250000 0.645872
O O2 0.531624 0.367469 0.615750
O O3 0.628451 0.337185 0.706418
O O4 0.355511 0.338947 0.692950
O O5 0.250000 0.500000 0.207413
O O6 0.152266 0.617699 0.244766
O O7 0.000000 0.512703 0.250000
O O8 0.046684 0.568808 0.161814
O O9 0.500000 0.500000 0.500000
O O10 0.750000 0.500000 0.464740
O O11 0.560925 0.412962 0.433309
O O12 0.660581 0.404065 0.529054
O O13 0.307582 0.896803 0.612858
O O14 0.402428 0.012791 0.602596
O O15 0.710928 0.750000 0.750000
#
# Coordination Sequence:
#
# PCOD8281706 Si02
#       6
#    16  16  16  16  16  16
#     4   9  18  34  60  82 107 150 197 230 280 348
#     4  12  26  36  55  89 122 152 185 246 301 343
#     4  10  17  33  52  81 111 150 193 224 286 352
#     4  10  21  34  54  87 115 151 187 235 300 339
#     4  10  18  33  57  80 115 149 185 243 281 347
#     4   9  20  39  57  81 112 156 199 232 275 357
#
# _framework density 19.208351
#
# number of rings (size 3 to 8) (size 9 to 14) (size 15 to 20)
#    0.000    2.000    3.333    3.500    7.000    1.667 
#    0.000    0.000    0.000    1.000    4.333    0.000 
#    0.000    0.000    0.000    0.000    0.000    0.000 
#
# Total GULP energy -594760.131394 kJ/mol
# GULP energy per Si atom -12390.836071 kJ/mol
# Density = 1.916463 g / cm^3
# Si number density = 19.208351 Si / 1000 Ang^3
#
#
#
# Elastic Constant Matrix: (Units=GPa)
#
#
# Indices 1 2 3 4 5 6 
#
# 1 94.5717 24.5743 33.5235 0.0000 0.0000 0.0000
# 2 24.5743 55.4392 27.7162 0.0000 0.0000 0.0000
# 3 33.5235 27.7162 102.9933 0.0000 0.0000 0.0000
# 4 0.0000 0.0000 0.0000 20.0436 0.0000 0.0000
# 5 0.0000 0.0000 0.0000 0.0000 27.3690 0.0000
# 6 0.0000 0.0000 0.0000 0.0000 0.0000 25.0762
#
#
#
# Elastic Compliance Matrix: (Units=1/GPa)
#
#
# Indices 1 2 3 4 5 6 
#
# 1 0.012720 -0.004123 -0.003031 0.000000 0.000000 0.000000
# 2 -0.004123 0.022178 -0.004626 0.000000 0.000000 0.000000
# 3 -0.003031 -0.004626 0.011941 0.000000 0.000000 0.000000
# 4 0.000000 0.000000 0.000000 0.049891 0.000000 0.000000
# 5 0.000000 0.000000 0.000000 0.000000 0.036538 0.000000
# 6 0.000000 0.000000 0.000000 0.000000 0.000000 0.039879
#
#
# Mechanical properties :
#
#
# Convention : Reuss Voigt Hill
#
# Bulk Modulus (GPa) = 42.95762 47.18134 45.06948
# Shear Modulus (GPa) = 24.45400 25.64377 25.04888
#
# Velocity S-wave (km/s) = 3.57191 3.65777 3.61510
# Velocity P-wave (km/s) = 6.27885 6.51578 6.39841
#
# Compressibility (1/GPa) = 0.02327876
#
# Stress axis : x y z
#
# Youngs Moduli (GPa) = 78.61859 45.08920 83.74664
#
# Poissons Ratio (x) = 0.18591 0.25380
# Poissons Ratio (y) = 0.32415 0.38744
# Poissons Ratio (z) = 0.23826 0.20860
#
# Static dielectric constant tensor:
#      x y z
#    x 3.910550 0.000000 0.000000 
#    y 0.000000 3.188660 0.000000 
#    z 0.000000 0.000000 4.600120 
# 
# 
# High freq. dielectric constant tensor:
#      x y z
#    x 1.758590 0.000000 0.000000 
#    y 0.000000 1.699090 0.000000 
#    z 0.000000 0.000000 1.752670 
# 
# From -- ./inp_files/49336.got.cif
#   From: 2010.03.12/outbox.cif.g09.slc.cpg/sg68_25_cif.got.tgz:49336.got - 2010.04.10 23:14:56.
