data_PCOD8281309
_publ_section_title
;
Structure prediction by ZEFSAII (Michael W. Deem and Ramdas Pophale) SiO2 
 PCOD8281309
Probable space group: C M M A
;
_chemical_formula_sum "Si O2"
_cell_formula_units_Z 56
_cell_length_a 15.850164
_cell_length_b 8.666187
_cell_length_c 19.353197
_cell_angle_alpha 90.000000
_cell_angle_beta 90.000000
_cell_angle_gamma 90.000000
_cell_volume 2658.364530
_symmetry_space_group_name_H-M "C M M A"
_symmetry_group_IT_number 67
_symmetry_cell_setting 'orthorhombic'
loop_
_space_group_symop_operation_xyz
x,y,z
-x,1/2-y,z
x,-y,-z
-x,1/2+y,-z
-x,-y,-z
x,1/2+y,-z
-x,y,z
x,1/2-y,z
1/2+x,1/2+y,z
1/2-x,-y,z
1/2+x,1/2-y,-z
1/2-x,y,-z
1/2-x,1/2-y,-z
1/2+x,y,-z
1/2-x,1/2+y,z
1/2+x,-y,z
loop_
_atom_site_type_symbol
_atom_site_label
_atom_site_fract_x
_atom_site_fract_y
_atom_site_fract_z
Si Si1 0.000000 0.067068 0.075814
Si Si2 0.842076 0.067422 0.428749
Si Si3 0.095577 0.925718 0.293916
Si Si4 0.336962 0.432692 0.840179
O O1 0.084052 0.007291 0.114640
O O2 0.000000 0.250000 0.072681
O O3 0.000000 0.000000 0.000000
O O4 0.837927 0.250000 0.434308
O O5 0.879953 0.000000 0.500000
O O6 0.750000 0.000000 0.414906
O O7 0.901061 0.016388 0.365976
O O8 0.126086 0.750000 0.304314
O O9 0.000000 0.932930 0.266840
O O10 0.154777 0.007019 0.237928
O O11 0.332646 0.250000 0.839725
O O12 0.250000 0.500000 0.871886
#
# Coordination Sequence:
#
# PCOD8281309 Si02
#       4
#     8  16  16  16
#     4  10  24  44  68  96 133 170 209 258 312 374
#     4  11  22  38  59  83 117 158 205 260 316 376
#     4  11  23  39  61  89 121 161 209 261 315 374
#     4  11  23  42  66  96 130 169 214 261 315 374
#
# _framework density 21.065583
#
# number of rings (size 3 to 8) (size 9 to 14) (size 15 to 20)
#    0.000    1.143    1.429    6.000    0.000    5.143 
#    0.000    2.857    0.000    0.000    0.000    0.000 
#    0.000    0.000    0.000    0.000    0.000    0.000 
#
# Total GULP energy -347347.728403 kJ/mol
# GULP energy per Si atom -12405.276014 kJ/mol
# Density = 2.101764 g / cm^3
# Si number density = 21.065583 Si / 1000 Ang^3
#
#
#
# Elastic Constant Matrix: (Units=GPa)
#
#
# Indices 1 2 3 4 5 6 
#
# 1 133.4903 46.5108 58.3131 0.0000 0.0000 0.0000
# 2 46.5108 140.0903 45.1414 0.0000 0.0000 0.0000
# 3 58.3131 45.1414 134.5811 0.0000 0.0000 0.0000
# 4 0.0000 0.0000 0.0000 39.6639 0.0000 0.0000
# 5 0.0000 0.0000 0.0000 0.0000 23.4634 0.0000
# 6 0.0000 0.0000 0.0000 0.0000 0.0000 32.2565
#
#
#
# Elastic Compliance Matrix: (Units=1/GPa)
#
#
# Indices 1 2 3 4 5 6 
#
# 1 0.009765 -0.002106 -0.003524 0.000000 0.000000 0.000000
# 2 -0.002106 0.008458 -0.001924 0.000000 0.000000 0.000000
# 3 -0.003524 -0.001924 0.009603 0.000000 0.000000 0.000000
# 4 0.000000 0.000000 0.000000 0.025212 0.000000 0.000000
# 5 0.000000 0.000000 0.000000 0.000000 0.042620 0.000000
# 6 0.000000 0.000000 0.000000 0.000000 0.000000 0.031002
#
#
# Mechanical properties :
#
#
# Convention : Reuss Voigt Hill
#
# Bulk Modulus (GPa) = 78.64503 78.67692 78.66097
# Shear Modulus (GPa) = 34.24505 36.28986 35.26745
#
# Velocity S-wave (km/s) = 4.03630 4.15506 4.09611
# Velocity P-wave (km/s) = 7.69004 7.77489 7.73258
#
# Compressibility (1/GPa) = 0.01271536
#
# Stress axis : x y z
#
# Youngs Moduli (GPa) = 102.41023 118.23718 104.13378
#
# Poissons Ratio (x) = 0.24903 0.36702
# Poissons Ratio (y) = 0.21570 0.20038
# Poissons Ratio (z) = 0.36094 0.22752
#
# Static dielectric constant tensor:
#      x y z
#    x 3.727700 0.000000 0.000000 
#    y 0.000000 3.836550 0.000000 
#    z 0.000000 0.000000 3.025880 
# 
# 
# High freq. dielectric constant tensor:
#      x y z
#    x 1.829990 0.000000 0.000000 
#    y 0.000000 1.835100 0.000000 
#    z 0.000000 0.000000 1.823110 
# 
# From -- ./inp_files/31607.got.cif
#   From: 2010.03.12/outbox.cif.g09.slc.cpg/sg67_16_cif.got.tgz:31607.got - 2010.04.10 22:41:39.
