data_PCOD8281396
_publ_section_title
;
Structure prediction by ZEFSAII (Michael W. Deem and Ramdas Pophale) SiO2 
 PCOD8281396
Probable space group: C M M A
;
_chemical_formula_sum "Si O2"
_cell_formula_units_Z 56
_cell_length_a 18.623590
_cell_length_b 9.344610
_cell_length_c 19.247818
_cell_angle_alpha 90.000000
_cell_angle_beta 90.000000
_cell_angle_gamma 90.000000
_cell_volume 3349.701334
_symmetry_space_group_name_H-M "C M M A"
_symmetry_group_IT_number 67
_symmetry_cell_setting 'orthorhombic'
loop_
_space_group_symop_operation_xyz
x,y,z
-x,1/2-y,z
x,-y,-z
-x,1/2+y,-z
-x,-y,-z
x,1/2+y,-z
-x,y,z
x,1/2-y,z
1/2+x,1/2+y,z
1/2-x,-y,z
1/2+x,1/2-y,-z
1/2-x,y,-z
1/2-x,1/2-y,-z
1/2+x,y,-z
1/2-x,1/2+y,z
1/2+x,-y,z
loop_
_atom_site_type_symbol
_atom_site_label
_atom_site_fract_x
_atom_site_fract_y
_atom_site_fract_z
Si Si1 0.500000 0.088218 0.430602
Si Si2 0.082216 0.083762 0.067036
Si Si3 0.079606 0.911738 0.298963
Si Si4 0.675694 0.580996 0.199697
O O1 0.500000 0.250000 0.455910
O O2 0.429435 0.059217 0.382169
O O3 0.500000 0.000000 0.500000
O O4 0.090175 0.250000 0.050466
O O5 0.128994 0.038783 0.132927
O O6 0.000000 0.041617 0.082825
O O7 0.111572 0.000000 0.000000
O O8 0.108310 0.750000 0.286113
O O9 0.000000 0.927597 0.264429
O O10 0.134359 0.026619 0.268026
O O11 0.688086 0.750000 0.206352
O O12 0.750000 0.500000 0.192474
#
# Coordination Sequence:
#
# PCOD8281396 Si02
#       4
#     8  16  16  16
#     4   8  16  30  52  82 109 132 163 204 247 296
#     4   9  19  35  53  73  96 126 168 214 259 307
#     4   8  17  33  52  76 104 133 166 206 248 298
#     4  11  22  34  50  73 103 137 174 214 255 304
#
# _framework density 16.717908999999999
#
# number of rings (size 3 to 8) (size 9 to 14) (size 15 to 20)
#    0.857    2.000    0.000    1.714    0.000    5.714 
#    0.000    5.714    0.000    0.857    0.000    6.000 
#    0.000    0.000    0.000    0.000    0.000    0.000 
#
# Total GULP energy -346980.993399 kJ/mol
# GULP energy per Si atom -12392.178336 kJ/mol
# Density = 1.667986 g / cm^3
# Si number density = 16.717909 Si / 1000 Ang^3
#
#
#
# Elastic Constant Matrix: (Units=GPa)
#
#
# Indices 1 2 3 4 5 6 
#
# 1 84.5371 54.9065 57.6640 0.0000 0.0000 0.0000
# 2 54.9065 95.3285 72.9143 0.0000 0.0000 0.0000
# 3 57.6640 72.9143 123.7213 0.0000 0.0000 0.0000
# 4 0.0000 0.0000 0.0000 35.8454 0.0000 0.0000
# 5 0.0000 0.0000 0.0000 0.0000 4.6657 0.0000
# 6 0.0000 0.0000 0.0000 0.0000 0.0000 26.7395
#
#
#
# Elastic Compliance Matrix: (Units=1/GPa)
#
#
# Indices 1 2 3 4 5 6 
#
# 1 0.020284 -0.008106 -0.004677 0.000000 0.000000 0.000000
# 2 -0.008106 0.022339 -0.009387 0.000000 0.000000 0.000000
# 3 -0.004677 -0.009387 0.015795 0.000000 0.000000 0.000000
# 4 0.000000 0.000000 0.000000 0.027898 0.000000 0.000000
# 5 0.000000 0.000000 0.000000 0.000000 0.214331 0.000000
# 6 0.000000 0.000000 0.000000 0.000000 0.000000 0.037398
#
#
# Mechanical properties :
#
#
# Convention : Reuss Voigt Hill
#
# Bulk Modulus (GPa) = 71.03417 74.95073 72.99245
# Shear Modulus (GPa) = 12.91733 21.32358 17.12046
#
# Velocity S-wave (km/s) = 2.78270 3.57528 3.20359
# Velocity P-wave (km/s) = 7.27370 7.87232 7.57892
#
# Compressibility (1/GPa) = 0.01407773
#
# Stress axis : x y z
#
# Youngs Moduli (GPa) = 49.30010 44.76513 63.31201
#
# Poissons Ratio (x) = 0.36286 0.29610
# Poissons Ratio (y) = 0.39962 0.59433
# Poissons Ratio (z) = 0.23057 0.42022
#
# Static dielectric constant tensor:
#      x y z
#    x 2.985260 0.000000 0.000000 
#    y 0.000000 3.101950 0.000000 
#    z 0.000000 0.000000 2.996850 
# 
# 
# High freq. dielectric constant tensor:
#      x y z
#    x 1.625080 0.000000 0.000000 
#    y 0.000000 1.649940 0.000000 
#    z 0.000000 0.000000 1.635390 
# 
# From -- ./inp_files/31707.got.cif
#   From: 2010.03.12/outbox.cif.g09.slc.cpg/sg67_16_cif.got.tgz:31707.got - 2010.04.10 22:41:39.
