data_PCOD8281216
_publ_section_title
;
Structure prediction by ZEFSAII (Michael W. Deem and Ramdas Pophale) SiO2 
 PCOD8281216
Probable space group: C M M A
;
_chemical_formula_sum "Si O2"
_cell_formula_units_Z 112
_cell_length_a 13.756008
_cell_length_b 14.168361
_cell_length_c 25.351866
_cell_angle_alpha 90.000000
_cell_angle_beta 90.000000
_cell_angle_gamma 90.000000
_cell_volume 4941.080896
_symmetry_space_group_name_H-M "C M M A"
_symmetry_group_IT_number 67
_symmetry_cell_setting 'orthorhombic'
loop_
_space_group_symop_operation_xyz
x,y,z
-x,1/2-y,z
x,-y,-z
-x,1/2+y,-z
-x,-y,-z
x,1/2+y,-z
-x,y,z
x,1/2-y,z
1/2+x,1/2+y,z
1/2-x,-y,z
1/2+x,1/2-y,-z
1/2-x,y,-z
1/2-x,1/2-y,-z
1/2+x,y,-z
1/2-x,1/2+y,z
1/2+x,-y,z
loop_
_atom_site_type_symbol
_atom_site_label
_atom_site_fract_x
_atom_site_fract_y
_atom_site_fract_z
Si Si1 0.384089 0.853248 0.921096
Si Si2 0.890526 0.639607 0.963824
Si Si3 0.788383 0.361882 0.700082
Si Si4 0.289003 0.361572 0.419185
Si Si5 0.114814 0.034047 0.135198
Si Si6 0.385569 0.536673 0.253312
Si Si7 0.605687 0.362639 0.521216
O O1 0.500000 0.847602 0.926826
O O2 0.342510 0.750000 0.906009
O O3 0.353103 0.926055 0.875779
O O4 0.342501 0.884791 0.979045
O O5 0.890228 0.750000 0.955501
O O6 0.836441 0.595753 0.912228
O O7 0.000000 0.598726 0.963769
O O8 0.804268 0.250000 0.711048
O O9 0.814211 0.391380 0.640125
O O10 0.675971 0.391134 0.710587
O O11 0.860002 0.426555 0.735265
O O12 0.281244 0.250000 0.421803
O O13 0.368779 0.396885 0.461522
O O14 0.183771 0.403204 0.436909
O O15 0.149409 0.060764 0.193641
O O16 0.000000 0.046427 0.134042
O O17 0.500000 0.553820 0.262294
O O18 0.500000 0.403231 0.536081
O O19 0.605795 0.250000 0.522459
#
# Coordination Sequence:
#
# PCOD8281216 Si02
#       7
#    16  16  16  16  16  16  16
#     4   8  13  21  36  63  99 135 170 213 272 343
#     4   8  13  21  36  63  99 135 170 213 272 343
#     4  10  22  41  62  84 116 158 201 246 296 346
#     4   8  15  28  48  77 112 149 187 229 281 340
#     4   9  16  27  44  67 100 140 179 226 284 338
#     4  10  23  40  58  85 116 150 201 256 298 343
#     4   8  13  23  44  79 117 145 178 227 279 338
#
# _framework density 22.667103999999998
#
# number of rings (size 3 to 8) (size 9 to 14) (size 15 to 20)
#    0.000    3.286    0.000    2.143    0.000    4.571 
#    0.000    5.714    0.000    6.857    0.000   16.000 
#    0.000   13.714    0.000    1.143    0.000    0.000 
#
# Total GULP energy -693784.816234 kJ/mol
# GULP energy per Si atom -12389.014576 kJ/mol
# Density = 2.261551 g / cm^3
# Si number density = 22.667104 Si / 1000 Ang^3
#
#
#
# Elastic Constant Matrix: (Units=GPa)
#
#
# Indices 1 2 3 4 5 6 
#
# 1 47.1465 -27.2616 -14.8927 0.0000 0.0000 0.0000
# 2 -27.2616 34.4977 4.6498 0.0000 0.0000 0.0000
# 3 -14.8927 4.6498 88.3360 0.0000 0.0000 0.0000
# 4 0.0000 0.0000 0.0000 20.1181 0.0000 0.0000
# 5 0.0000 0.0000 0.0000 0.0000 69.2702 0.0000
# 6 0.0000 0.0000 0.0000 0.0000 0.0000 15.7330
#
#
#
# Elastic Compliance Matrix: (Units=1/GPa)
#
#
# Indices 1 2 3 4 5 6 
#
# 1 0.041376 0.031984 0.005292 0.000000 0.000000 0.000000
# 2 0.031984 0.053918 0.002554 0.000000 0.000000 0.000000
# 3 0.005292 0.002554 0.012078 0.000000 0.000000 0.000000
# 4 0.000000 0.000000 0.000000 0.049707 0.000000 0.000000
# 5 0.000000 0.000000 0.000000 0.000000 0.014436 0.000000
# 6 0.000000 0.000000 0.000000 0.000000 0.000000 0.063561
#
#
# Mechanical properties :
#
#
# Convention : Reuss Voigt Hill
#
# Bulk Modulus (GPa) = 5.34663 10.55237 7.94950
# Shear Modulus (GPa) = 22.96103 34.85656 28.90880
#
# Velocity S-wave (km/s) = 3.18617 3.92568 3.57510
# Velocity P-wave (km/s) = 3.98741 5.02130 4.53392
#
# Compressibility (1/GPa) = 0.18703386
#
# Stress axis : x y z
#
# Youngs Moduli (GPa) = 24.16833 18.54653 82.79397
#
# Poissons Ratio (x) = -0.59320 -0.43816
# Poissons Ratio (y) = -0.77300 -0.21146
# Poissons Ratio (z) = -0.12790 -0.04737
#
# Static dielectric constant tensor:
#      x y z
#    x 3.978960 0.000000 0.000000 
#    y 0.000000 3.937060 0.000000 
#    z 0.000000 0.000000 4.411000 
# 
# 
# High freq. dielectric constant tensor:
#      x y z
#    x 1.881120 0.000000 0.000000 
#    y 0.000000 1.883580 0.000000 
#    z 0.000000 0.000000 1.889820 
# 
# From -- ./inp_files/42022.got.cif
#   From: 2010.03.12/outbox.cif.g09.slc.cpg/sg67_22_cif.got.tgz:42022.got - 2010.04.10 22:41:39.
