data_PCOD8281388
_publ_section_title
;
Structure prediction by ZEFSAII (Michael W. Deem and Ramdas Pophale) SiO2 
 PCOD8281388
Probable space group: C M M A
;
_chemical_formula_sum "Si O2"
_cell_formula_units_Z 64
_cell_length_a 14.044392
_cell_length_b 22.279008
_cell_length_c 9.150687
_cell_angle_alpha 90.000000
_cell_angle_beta 90.000000
_cell_angle_gamma 90.000000
_cell_volume 2863.205323
_symmetry_space_group_name_H-M "C M M A"
_symmetry_group_IT_number 67
_symmetry_cell_setting 'orthorhombic'
loop_
_space_group_symop_operation_xyz
x,y,z
-x,1/2-y,z
x,-y,-z
-x,1/2+y,-z
-x,-y,-z
x,1/2+y,-z
-x,y,z
x,1/2-y,z
1/2+x,1/2+y,z
1/2-x,-y,z
1/2+x,1/2-y,-z
1/2-x,y,-z
1/2-x,1/2-y,-z
1/2+x,y,-z
1/2-x,1/2+y,z
1/2+x,-y,z
loop_
_atom_site_type_symbol
_atom_site_label
_atom_site_fract_x
_atom_site_fract_y
_atom_site_fract_z
Si Si1 0.000000 0.180138 0.500741
Si Si2 0.682139 0.620593 0.366871
Si Si3 0.608706 0.497495 0.325227
Si Si4 0.000000 0.322012 0.833880
Si Si5 0.812783 0.388324 0.861686
O O1 0.094373 0.160315 0.417964
O O2 0.000000 0.250000 0.507553
O O3 0.000000 0.155187 0.665518
O O4 0.750000 0.602021 0.500000
O O5 0.642180 0.563229 0.276748
O O6 0.747870 0.654200 0.245269
O O7 0.623746 0.500000 0.500000
O O8 0.500000 0.486081 0.283686
O O9 0.666684 0.447251 0.237580
O O10 0.093506 0.350939 0.908992
O O11 0.000000 0.250000 0.852405
O O12 0.750000 0.407181 0.000000
#
# Coordination Sequence:
#
# PCOD8281388 Si02
#       5
#     8  16  16   8  16
#     4  11  24  44  74 112 142 184 256 316 345 408
#     4  12  23  41  71 107 141 189 240 292 357 428
#     4  11  21  40  72 100 137 186 238 291 354 426
#     4  11  24  48  76 100 140 199 252 303 359 420
#     4  12  27  45  70 109 152 188 237 300 367 443
#
# _framework density 22.352571999999999
#
# number of rings (size 3 to 8) (size 9 to 14) (size 15 to 20)
#    0.000    0.500    7.500    0.750    0.000    5.000 
#    0.000    2.500    0.000    0.000    0.000    0.000 
#    0.000    0.000    0.000    0.000    0.000    0.000 
#
# Total GULP energy -396519.641685 kJ/mol
# GULP energy per Si atom -12391.238803 kJ/mol
# Density = 2.230170 g / cm^3
# Si number density = 22.352572 Si / 1000 Ang^3
#
#
#
# Elastic Constant Matrix: (Units=GPa)
#
#
# Indices 1 2 3 4 5 6 
#
# 1 157.9945 22.3264 71.3109 0.0000 0.0000 0.0000
# 2 22.3264 43.2868 22.8062 0.0000 0.0000 0.0000
# 3 71.3109 22.8062 102.5635 0.0000 0.0000 0.0000
# 4 0.0000 0.0000 0.0000 9.1467 0.0000 0.0000
# 5 0.0000 0.0000 0.0000 0.0000 38.0853 0.0000
# 6 0.0000 0.0000 0.0000 0.0000 0.0000 -2.6858
#
#
#
# Elastic Compliance Matrix: (Units=1/GPa)
#
#
# Indices 1 2 3 4 5 6 
#
# 1 0.009318 -0.001577 -0.006128 0.000000 0.000000 0.000000
# 2 -0.001577 0.026434 -0.004781 0.000000 0.000000 0.000000
# 3 -0.006128 -0.004781 0.015074 0.000000 0.000000 0.000000
# 4 0.000000 0.000000 0.000000 0.109329 0.000000 0.000000
# 5 0.000000 0.000000 0.000000 0.000000 0.026257 0.000000
# 6 0.000000 0.000000 0.000000 0.000000 0.000000 -0.372329
#
#
# Mechanical properties :
#
#
# Convention : Reuss Voigt Hill
#
# Bulk Modulus (GPa) = 38.68005 59.63685 49.15845
# Shear Modulus (GPa) = -32.82454 21.40267 -5.71094
#
# Velocity S-wave (km/s) = -3.83625 3.09771 -1.60015
# Velocity P-wave (km/s) = 1.51006 6.28748 4.31579
#
# Compressibility (1/GPa) = 0.02585312
#
# Stress axis : x y z
#
# Youngs Moduli (GPa) = 107.31780 37.82951 66.33977
#
# Poissons Ratio (x) = 0.05968 0.40653
# Poissons Ratio (y) = 0.16929 0.31718
# Poissons Ratio (z) = 0.65764 0.18087
#
# Static dielectric constant tensor:
#      x y z
#    x 4.569140 0.000000 0.000000 
#    y 0.000000 3.759440 0.000000 
#    z 0.000000 0.000000 3.999570 
# 
# 
# High freq. dielectric constant tensor:
#      x y z
#    x 1.920480 0.000000 0.000000 
#    y 0.000000 1.853030 0.000000 
#    z 0.000000 0.000000 1.861200 
# 
# From -- ./inp_files/8034.got.cif
#   From: 2010.03.12/outbox.cif.g09.slc.cpg/sg67_5_cif.got.tgz:8034.got - 2010.04.10 22:41:39.
