data_PCOD8281064
_publ_section_title
;
Structure prediction by ZEFSAII (Michael W. Deem and Ramdas Pophale) SiO2 
 PCOD8281064
Probable space group: C M M A
;
_chemical_formula_sum "Si O2"
_cell_formula_units_Z 112
_cell_length_a 30.060354
_cell_length_b 15.442936
_cell_length_c 11.148397
_cell_angle_alpha 90.000000
_cell_angle_beta 90.000000
_cell_angle_gamma 90.000000
_cell_volume 5175.310226
_symmetry_space_group_name_H-M "C M M A"
_symmetry_group_IT_number 67
_symmetry_cell_setting 'orthorhombic'
loop_
_space_group_symop_operation_xyz
x,y,z
-x,1/2-y,z
x,-y,-z
-x,1/2+y,-z
-x,-y,-z
x,1/2+y,-z
-x,y,z
x,1/2-y,z
1/2+x,1/2+y,z
1/2-x,-y,z
1/2+x,1/2-y,-z
1/2-x,y,-z
1/2-x,1/2-y,-z
1/2+x,y,-z
1/2-x,1/2+y,z
1/2+x,-y,z
loop_
_atom_site_type_symbol
_atom_site_label
_atom_site_fract_x
_atom_site_fract_y
_atom_site_fract_z
Si Si1 0.947924 0.997777 0.366877
Si Si2 0.792693 0.650000 0.072693
Si Si3 0.385936 0.902529 0.007414
Si Si4 0.816670 0.847054 0.550335
Si Si5 0.395836 0.849860 0.276659
Si Si6 0.731428 0.904602 0.668545
Si Si7 0.448732 0.153315 0.194743
O O1 0.937748 0.088668 0.302430
O O2 0.000000 0.985580 0.376760
O O3 0.926653 0.000000 0.500000
O O4 0.929226 0.915793 0.291044
O O5 0.800878 0.750000 0.040427
O O6 0.835697 0.595378 0.038937
O O7 0.787219 0.637994 0.213125
O O8 0.750000 0.614346 0.000000
O O9 0.419191 0.846899 0.925389
O O10 0.383182 0.861623 0.138788
O O11 0.404486 0.000000 0.000000
O O12 0.828221 0.750000 0.507983
O O13 0.855842 0.882061 0.636658
O O14 0.771515 0.843613 0.626924
O O15 0.808038 0.906420 0.432154
O O16 0.408321 0.750000 0.301567
O O17 0.750000 0.000000 0.690663
O O18 0.500000 0.131616 0.161259
O O19 0.445336 0.250000 0.250615
#
# Coordination Sequence:
#
# PCOD8281064 Si02
#       7
#    16  16  16  16  16  16  16
#     4  10  23  43  67  98 134 170 212 264 322 388
#     4  11  25  42  62  89 128 172 216 268 327 394
#     4  12  25  42  67  97 133 173 219 277 333 400
#     4  10  21  40  61  85 122 164 209 261 317 377
#     4  11  24  42  65  95 130 172 217 266 328 393
#     4  11  23  37  61  90 119 161 213 269 321 381
#     4  10  22  43  71 100 132 172 217 269 332 400
#
# _framework density 21.641214000000002
#
# number of rings (size 3 to 8) (size 9 to 14) (size 15 to 20)
#    0.000    1.286    1.429    4.714    4.000    6.286 
#    0.000    2.857    0.000    0.000    0.000    0.000 
#    0.000    0.000    0.000    0.000    0.000    0.000 
#
# Total GULP energy -694457.522762 kJ/mol
# GULP energy per Si atom -12401.027192 kJ/mol
# Density = 2.159196 g / cm^3
# Si number density = 21.641214 Si / 1000 Ang^3
#
#
#
# Elastic Constant Matrix: (Units=GPa)
#
#
# Indices 1 2 3 4 5 6 
#
# 1 55.1356 21.5466 37.2700 0.0000 0.0000 0.0000
# 2 21.5466 109.5192 24.6841 0.0000 0.0000 0.0000
# 3 37.2700 24.6841 130.2659 0.0000 0.0000 0.0000
# 4 0.0000 0.0000 0.0000 27.2771 0.0000 0.0000
# 5 0.0000 0.0000 0.0000 0.0000 29.9452 0.0000
# 6 0.0000 0.0000 0.0000 0.0000 0.0000 30.8142
#
#
#
# Elastic Compliance Matrix: (Units=1/GPa)
#
#
# Indices 1 2 3 4 5 6 
#
# 1 0.023545 -0.003253 -0.006120 0.000000 0.000000 0.000000
# 2 -0.003253 0.009988 -0.000962 0.000000 0.000000 0.000000
# 3 -0.006120 -0.000962 0.009610 0.000000 0.000000 0.000000
# 4 0.000000 0.000000 0.000000 0.036661 0.000000 0.000000
# 5 0.000000 0.000000 0.000000 0.000000 0.033394 0.000000
# 6 0.000000 0.000000 0.000000 0.000000 0.000000 0.032453
#
#
# Mechanical properties :
#
#
# Convention : Reuss Voigt Hill
#
# Bulk Modulus (GPa) = 44.49771 51.32468 47.91120
# Shear Modulus (GPa) = 28.76686 31.70197 30.23441
#
# Velocity S-wave (km/s) = 3.64986 3.83154 3.74180
# Velocity P-wave (km/s) = 6.19421 6.58346 6.39179
#
# Compressibility (1/GPa) = 0.02247307
#
# Stress axis : x y z
#
# Youngs Moduli (GPa) = 42.47137 100.12443 104.05966
#
# Poissons Ratio (x) = 0.32569 0.63685
# Poissons Ratio (y) = 0.13815 0.10009
# Poissons Ratio (z) = 0.25993 0.09631
#
# Static dielectric constant tensor:
#      x y z
#    x 3.748520 0.000000 0.000000 
#    y 0.000000 3.918100 0.000000 
#    z 0.000000 0.000000 4.053180 
# 
# 
# High freq. dielectric constant tensor:
#      x y z
#    x 1.838370 0.000000 0.000000 
#    y 0.000000 1.858480 0.000000 
#    z 0.000000 0.000000 1.856230 
# 
# From -- ./inp_files/23856.got.cif
#   From: 2010.03.12/outbox.cif.g09.slc.cpg/sg67_12_cif.got.tgz:23856.got - 2010.04.10 22:41:39.
