data_PCOD8281120
_publ_section_title
;
Structure prediction by ZEFSAII (Michael W. Deem and Ramdas Pophale) SiO2 
 PCOD8281120
Probable space group: C M M A
;
_chemical_formula_sum "Si O2"
_cell_formula_units_Z 72
_cell_length_a 20.688347
_cell_length_b 9.435129
_cell_length_c 19.812564
_cell_angle_alpha 90.000000
_cell_angle_beta 90.000000
_cell_angle_gamma 90.000000
_cell_volume 3867.357468
_symmetry_space_group_name_H-M "C M M A"
_symmetry_group_IT_number 67
_symmetry_cell_setting 'orthorhombic'
loop_
_space_group_symop_operation_xyz
x,y,z
-x,1/2-y,z
x,-y,-z
-x,1/2+y,-z
-x,-y,-z
x,1/2+y,-z
-x,y,z
x,1/2-y,z
1/2+x,1/2+y,z
1/2-x,-y,z
1/2+x,1/2-y,-z
1/2-x,y,-z
1/2-x,1/2-y,-z
1/2+x,y,-z
1/2-x,1/2+y,z
1/2+x,-y,z
loop_
_atom_site_type_symbol
_atom_site_label
_atom_site_fract_x
_atom_site_fract_y
_atom_site_fract_z
Si Si1 0.640064 0.086511 0.568481
Si Si2 0.076440 0.090096 0.937722
Si Si3 0.189543 0.915260 0.709098
Si Si4 0.500000 0.091529 0.564563
Si Si5 0.425936 0.085544 0.806370
O O1 0.650496 0.250000 0.549056
O O2 0.685826 0.040769 0.629957
O O3 0.568022 0.061851 0.601676
O O4 0.654154 0.000000 0.500000
O O5 0.105282 0.250000 0.937516
O O6 0.000000 0.098303 0.945566
O O7 0.095262 0.010373 0.869189
O O8 0.105851 0.000000 0.000000
O O9 0.203873 0.750000 0.717126
O O10 0.122616 0.954637 0.746092
O O11 0.250000 0.000000 0.740861
O O12 0.500000 0.250000 0.537584
O O13 0.500000 0.000000 0.500000
O O14 0.500000 0.053415 0.783582
O O15 0.419478 0.250000 0.827387
#
# Coordination Sequence:
#
# PCOD8281120 Si02
#       5
#    16  16  16   8  16
#     4   9  18  32  51  74  98 128 167 212 261 310
#     4   9  16  27  47  77 111 141 170 208 254 301
#     4  10  22  37  53  74 102 138 174 213 262 313
#     4   8  14  26  46  70  96 120 151 198 251 302
#     4   9  18  33  54  78 103 135 176 216 255 303
#
# _framework density 18.617363999999998
#
# number of rings (size 3 to 8) (size 9 to 14) (size 15 to 20)
#    0.000    2.889    0.000    0.667    1.556    4.889 
#    0.000    2.222    0.000    0.667    0.000    4.667 
#    0.000    0.000    0.000    0.000    0.000    0.000 
#
# Total GULP energy -445983.705651 kJ/mol
# GULP energy per Si atom -12388.436268 kJ/mol
# Density = 1.857499 g / cm^3
# Si number density = 18.617364 Si / 1000 Ang^3
#
#
#
# Elastic Constant Matrix: (Units=GPa)
#
#
# Indices 1 2 3 4 5 6 
#
# 1 84.9486 43.4446 47.3149 0.0000 0.0000 0.0000
# 2 43.4446 90.5471 63.9357 0.0000 0.0000 0.0000
# 3 47.3149 63.9357 113.1418 0.0000 0.0000 0.0000
# 4 0.0000 0.0000 0.0000 29.4285 0.0000 0.0000
# 5 0.0000 0.0000 0.0000 0.0000 9.8922 0.0000
# 6 0.0000 0.0000 0.0000 0.0000 0.0000 24.6715
#
#
#
# Elastic Compliance Matrix: (Units=1/GPa)
#
#
# Indices 1 2 3 4 5 6 
#
# 1 0.016658 -0.005114 -0.004076 0.000000 0.000000 0.000000
# 2 -0.005114 0.019947 -0.009133 0.000000 0.000000 0.000000
# 3 -0.004076 -0.009133 0.015704 0.000000 0.000000 0.000000
# 4 0.000000 0.000000 0.000000 0.033981 0.000000 0.000000
# 5 0.000000 0.000000 0.000000 0.000000 0.101089 0.000000
# 6 0.000000 0.000000 0.000000 0.000000 0.000000 0.040533
#
#
# Mechanical properties :
#
#
# Convention : Reuss Voigt Hill
#
# Bulk Modulus (GPa) = 63.84982 66.44753 65.14867
# Shear Modulus (GPa) = 18.53375 21.72794 20.13085
#
# Velocity S-wave (km/s) = 3.15859 3.41996 3.29187
# Velocity P-wave (km/s) = 6.90453 7.16683 7.03690
#
# Compressibility (1/GPa) = 0.01566175
#
# Stress axis : x y z
#
# Youngs Moduli (GPa) = 60.03249 50.13371 63.67789
#
# Poissons Ratio (x) = 0.25640 0.25955
# Poissons Ratio (y) = 0.30702 0.58157
# Poissons Ratio (z) = 0.24470 0.45787
#
# Static dielectric constant tensor:
#      x y z
#    x 3.209100 0.000000 0.000000 
#    y 0.000000 3.483550 0.000000 
#    z 0.000000 0.000000 3.238180 
# 
# 
# High freq. dielectric constant tensor:
#      x y z
#    x 1.700690 0.000000 0.000000 
#    y 0.000000 1.722230 0.000000 
#    z 0.000000 0.000000 1.710010 
# 
# From -- ./inp_files/36727.got.cif
#   From: 2010.03.12/outbox.cif.g09.slc.cpg/sg67_19_cif.got.tgz:36727.got - 2010.04.10 22:41:39.
