data_PCOD8281780
_publ_section_title
;
Structure prediction by ZEFSAII (Michael W. Deem and Ramdas Pophale) SiO2 
 PCOD8281780
Probable space group: C C C A
;
_chemical_formula_sum "Si O2"
_cell_formula_units_Z 116
_cell_length_a 17.438114
_cell_length_b 15.271245
_cell_length_c 21.436161
_cell_angle_alpha 90.000000
_cell_angle_beta 90.000000
_cell_angle_gamma 90.000000
_cell_volume 5708.486357
_symmetry_space_group_name_H-M "C C C A"
_symmetry_group_IT_number 68
_space_group.IT_coordinate_system_code '2'
_symmetry_cell_setting 'orthorhombic'
loop_
_space_group_symop_operation_xyz
x,y,z
-x,1/2-y,z
x,1/2-y,1/2-z
-x,y,1/2-z
-x,-y,-z
x,1/2+y,-z
-x,1/2+y,1/2+z
x,-y,1/2+z
1/2+x,1/2+y,z
1/2-x,-y,z
1/2+x,-y,1/2-z
1/2-x,1/2+y,1/2-z
1/2-x,1/2-y,-z
1/2+x,y,-z
1/2-x,y,1/2+z
1/2+x,1/2-y,1/2+z
loop_
_atom_site_type_symbol
_atom_site_label
_atom_site_fract_x
_atom_site_fract_y
_atom_site_fract_z
Si Si1 0.500000 0.250000 0.250000
Si Si2 0.034835 0.612422 0.159220
Si Si3 0.673234 0.279793 0.965094
Si Si4 0.834448 0.468414 0.518480
Si Si5 0.218238 0.719492 0.134932
Si Si6 0.186262 0.566024 0.212382
Si Si7 0.640698 0.405960 0.153566
Si Si8 0.607998 0.362977 0.460874
O O1 0.555557 0.194193 0.204750
O O2 0.103562 0.545037 0.178250
O O3 0.034860 0.638868 0.085799
O O4 0.948401 0.585141 0.173999
O O5 0.694233 0.267568 0.891270
O O6 0.750000 0.250000 0.000000
O O7 0.647002 0.376926 0.984383
O O8 0.605469 0.212557 0.985676
O O9 0.750000 0.500000 0.501870
O O10 0.843894 0.464171 0.593007
O O11 0.891993 0.541915 0.492928
O O12 0.216774 0.665267 0.199154
O O13 0.169114 0.807975 0.138748
O O14 0.180277 0.653046 0.084560
O O15 0.250000 0.500000 0.185489
O O16 0.184346 0.554862 0.287079
#
# Coordination Sequence:
#
# PCOD8281780 Si02
#       8
#     4  16  16  16  16  16  16  16
#     4  12  20  40  68  88 124 172 204 280 346 384
#     4  11  24  37  62  87 126 165 207 259 332 390
#     4  10  18  34  54  86 113 160 204 247 306 371
#     4  12  21  35  60  85 125 164 204 261 313 371
#     4  10  20  35  60  84 121 155 210 252 310 383
#     4  11  24  37  58  90 120 160 206 260 324 387
#     4  12  22  40  59  92 125 163 207 267 324 387
#     4  10  21  35  55  86 118 163 209 249 314 385
#
# _framework density 20.320623000000001
#
# number of rings (size 3 to 8) (size 9 to 14) (size 15 to 20)
#    0.000    1.103    6.897    2.483    3.862    0.552 
#    0.000    0.000    0.000    0.000    0.000    0.000 
#    0.000    2.759    0.000    0.000    0.000    0.000 
#
# Total GULP energy -718534.394603 kJ/mol
# GULP energy per Si atom -12388.524045 kJ/mol
# Density = 2.027437 g / cm^3
# Si number density = 20.320623 Si / 1000 Ang^3
#
#
#
# Elastic Constant Matrix: (Units=GPa)
#
#
# Indices 1 2 3 4 5 6 
#
# 1 61.8296 32.0728 30.9325 0.0000 0.0000 0.0000
# 2 32.0728 116.4235 27.5829 0.0000 0.0000 0.0000
# 3 30.9325 27.5829 79.3486 0.0000 0.0000 0.0000
# 4 0.0000 0.0000 0.0000 38.0410 0.0000 0.0000
# 5 0.0000 0.0000 0.0000 0.0000 34.4466 0.0000
# 6 0.0000 0.0000 0.0000 0.0000 0.0000 18.8298
#
#
#
# Elastic Compliance Matrix: (Units=1/GPa)
#
#
# Indices 1 2 3 4 5 6 
#
# 1 0.021970 -0.004384 -0.007041 0.000000 0.000000 0.000000
# 2 -0.004384 0.010235 -0.001849 0.000000 0.000000 0.000000
# 3 -0.007041 -0.001849 0.015990 0.000000 0.000000 0.000000
# 4 0.000000 0.000000 0.000000 0.026287 0.000000 0.000000
# 5 0.000000 0.000000 0.000000 0.000000 0.029030 0.000000
# 6 0.000000 0.000000 0.000000 0.000000 0.000000 0.053107
#
#
# Mechanical properties :
#
#
# Convention : Reuss Voigt Hill
#
# Bulk Modulus (GPa) = 46.19403 48.75313 47.47358
# Shear Modulus (GPa) = 26.26277 29.39771 27.83024
#
# Velocity S-wave (km/s) = 3.59892 3.80767 3.70477
# Velocity P-wave (km/s) = 6.32863 6.58598 6.45859
#
# Compressibility (1/GPa) = 0.02164782
#
# Stress axis : x y z
#
# Youngs Moduli (GPa) = 45.51648 97.70243 62.53951
#
# Poissons Ratio (x) = 0.42836 0.44031
# Poissons Ratio (y) = 0.19956 0.11562
# Poissons Ratio (z) = 0.32046 0.18063
#
# Static dielectric constant tensor:
#      x y z
#    x 3.725240 0.000000 0.000000 
#    y 0.000000 3.699950 0.000000 
#    z 0.000000 0.000000 4.423130 
# 
# 
# High freq. dielectric constant tensor:
#      x y z
#    x 1.759600 0.000000 0.000000 
#    y 0.000000 1.774230 0.000000 
#    z 0.000000 0.000000 1.803250 
# 
# From -- ./inp_files/46141.got.cif
#   From: 2010.03.12/outbox.cif.g09.slc.cpg/sg68_24_cif.got.tgz:46141.got - 2010.04.10 23:14:56.
