data_PCOD8281020
_publ_section_title
;
Structure prediction by ZEFSAII (Michael W. Deem and Ramdas Pophale) SiO2 
 PCOD8281020
Probable space group: C M M A
;
_chemical_formula_sum "Si O2"
_cell_formula_units_Z 112
_cell_length_a 14.770726
_cell_length_b 17.473352
_cell_length_c 21.290884
_cell_angle_alpha 90.000000
_cell_angle_beta 90.000000
_cell_angle_gamma 90.000000
_cell_volume 5495.051431
_symmetry_space_group_name_H-M "C M M A"
_symmetry_group_IT_number 67
_symmetry_cell_setting 'orthorhombic'
loop_
_space_group_symop_operation_xyz
x,y,z
-x,1/2-y,z
x,-y,-z
-x,1/2+y,-z
-x,-y,-z
x,1/2+y,-z
-x,y,z
x,1/2-y,z
1/2+x,1/2+y,z
1/2-x,-y,z
1/2+x,1/2-y,-z
1/2-x,y,-z
1/2-x,1/2-y,-z
1/2+x,y,-z
1/2-x,1/2+y,z
1/2+x,-y,z
loop_
_atom_site_type_symbol
_atom_site_label
_atom_site_fract_x
_atom_site_fract_y
_atom_site_fract_z
Si Si1 0.104182 0.596676 0.564058
Si Si2 0.607134 0.914848 0.991005
Si Si3 0.106045 0.661551 0.881603
Si Si4 0.254395 0.338255 0.653950
Si Si5 0.240971 0.090221 0.214354
Si Si6 0.395881 0.078882 0.420924
Si Si7 0.395522 0.340145 0.137192
O O1 0.165835 0.654305 0.603136
O O2 0.130763 0.510148 0.581907
O O3 0.122622 0.610972 0.490588
O O4 0.000000 0.613191 0.580326
O O5 0.500000 0.917471 0.987523
O O6 0.638570 0.862460 0.048927
O O7 0.643214 0.878698 0.926349
O O8 0.647305 0.000000 0.000000
O O9 0.129717 0.750000 0.871615
O O10 0.158922 0.611819 0.831124
O O11 0.000000 0.644871 0.872582
O O12 0.236673 0.250000 0.668471
O O13 0.285183 0.380630 0.716890
O O14 0.161896 0.374684 0.628991
O O15 0.335809 0.128717 0.194386
O O16 0.250000 0.000000 0.214781
O O17 0.500000 0.090069 0.402487
O O18 0.500000 0.362007 0.150022
O O19 0.383461 0.250000 0.130186
#
# Coordination Sequence:
#
# PCOD8281020 Si02
#       7
#    16  16  16  16  16  16  16
#     4   9  19  38  64  91 118 151 192 236 282 334
#     4   9  17  32  57  88 118 149 189 234 283 342
#     4  10  21  39  62  87 117 150 187 238 296 347
#     4  12  25  39  57  84 120 157 192 235 287 341
#     4  12  26  42  60  82 112 154 201 241 282 342
#     4   9  19  38  64  91 118 151 192 236 282 334
#     4  10  21  39  62  87 117 150 187 238 296 347
#
# _framework density 20.381974
#
# number of rings (size 3 to 8) (size 9 to 14) (size 15 to 20)
#    0.000    1.857    0.000    5.143    0.000    8.000 
#    0.000    4.286    0.000    0.000    0.000    0.000 
#    0.000    0.000    0.000    0.000    0.000    0.000 
#
# Total GULP energy -694648.692399 kJ/mol
# GULP energy per Si atom -12404.440936 kJ/mol
# Density = 2.033558 g / cm^3
# Si number density = 20.381974 Si / 1000 Ang^3
#
#
#
# Elastic Constant Matrix: (Units=GPa)
#
#
# Indices 1 2 3 4 5 6 
#
# 1 56.5327 3.8779 9.6912 0.0000 0.0000 0.0000
# 2 3.8779 86.0409 4.8142 0.0000 0.0000 0.0000
# 3 9.6912 4.8142 65.9264 0.0000 0.0000 0.0000
# 4 0.0000 0.0000 0.0000 34.1166 0.0000 0.0000
# 5 0.0000 0.0000 0.0000 0.0000 20.3253 0.0000
# 6 0.0000 0.0000 0.0000 0.0000 0.0000 26.9237
#
#
#
# Elastic Compliance Matrix: (Units=1/GPa)
#
#
# Indices 1 2 3 4 5 6 
#
# 1 0.018185 -0.000673 -0.002624 0.000000 0.000000 0.000000
# 2 -0.000673 0.011695 -0.000755 0.000000 0.000000 0.000000
# 3 -0.002624 -0.000755 0.015609 0.000000 0.000000 0.000000
# 4 0.000000 0.000000 0.000000 0.029311 0.000000 0.000000
# 5 0.000000 0.000000 0.000000 0.000000 0.049200 0.000000
# 6 0.000000 0.000000 0.000000 0.000000 0.000000 0.037142
#
#
# Mechanical properties :
#
#
# Convention : Reuss Voigt Hill
#
# Bulk Modulus (GPa) = 26.74851 27.25183 27.00017
# Shear Modulus (GPa) = 27.51671 28.94756 28.23213
#
# Velocity S-wave (km/s) = 3.67829 3.77271 3.72580
# Velocity P-wave (km/s) = 5.58497 5.69011 5.63779
#
# Compressibility (1/GPa) = 0.03738527
#
# Stress axis : x y z
#
# Youngs Moduli (GPa) = 54.99080 85.50696 64.06430
#
# Poissons Ratio (x) = 0.05753 0.16811
# Poissons Ratio (y) = 0.03700 0.04838
# Poissons Ratio (z) = 0.14430 0.06457
#
# Static dielectric constant tensor:
#      x y z
#    x 3.646150 0.000000 0.000000 
#    y 0.000000 3.693730 0.000000 
#    z 0.000000 0.000000 3.708120 
# 
# 
# High freq. dielectric constant tensor:
#      x y z
#    x 1.800560 0.000000 0.000000 
#    y 0.000000 1.799470 0.000000 
#    z 0.000000 0.000000 1.795220 
# 
# From -- ./inp_files/41937.got.cif
#   From: 2010.03.12/outbox.cif.g09.slc.cpg/sg67_21_cif.got.tgz:41937.got - 2010.04.10 22:41:39.
