data_PCOD8281341
_publ_section_title
;
Structure prediction by ZEFSAII (Michael W. Deem and Ramdas Pophale) SiO2 
 PCOD8281341
Probable space group: C M M A
;
_chemical_formula_sum "Si O2"
_cell_formula_units_Z 120
_cell_length_a 19.231206
_cell_length_b 26.074750
_cell_length_c 12.030483
_cell_angle_alpha 90.000000
_cell_angle_beta 90.000000
_cell_angle_gamma 90.000000
_cell_volume 6032.672330
_symmetry_space_group_name_H-M "C M M A"
_symmetry_group_IT_number 67
_symmetry_cell_setting 'orthorhombic'
loop_
_space_group_symop_operation_xyz
x,y,z
-x,1/2-y,z
x,-y,-z
-x,1/2+y,-z
-x,-y,-z
x,1/2+y,-z
-x,y,z
x,1/2-y,z
1/2+x,1/2+y,z
1/2-x,-y,z
1/2+x,1/2-y,-z
1/2-x,y,-z
1/2-x,1/2-y,-z
1/2+x,y,-z
1/2-x,1/2+y,z
1/2+x,-y,z
loop_
_atom_site_type_symbol
_atom_site_label
_atom_site_fract_x
_atom_site_fract_y
_atom_site_fract_z
Si Si1 0.855067 0.628259 0.684845
Si Si2 0.581253 0.468959 0.610240
Si Si3 0.306752 0.637410 0.721787
Si Si4 0.419883 0.110657 0.925325
Si Si5 0.368282 0.000000 0.000000
Si Si6 0.678489 0.976230 0.768902
Si Si7 0.675306 0.809283 0.946496
Si Si8 0.832565 0.694312 0.490376
O O1 0.878186 0.584193 0.599199
O O2 0.774364 0.625648 0.710932
O O3 0.898180 0.622421 0.797971
O O4 0.867584 0.678591 0.608590
O O5 0.598485 0.500000 0.500000
O O6 0.500000 0.460171 0.628872
O O7 0.610992 0.496826 0.718542
O O8 0.338243 0.582979 0.751820
O O9 0.319624 0.680196 0.815328
O O10 0.346983 0.655708 0.611184
O O11 0.500000 0.124924 0.936989
O O12 0.411310 0.051208 0.963641
O O13 0.378629 0.150751 0.001559
O O14 0.317934 0.985764 0.899697
O O15 0.750000 0.000000 0.717081
O O16 0.652222 0.750000 0.965796
O O17 0.750000 0.819741 0.000000
O O18 0.863443 0.750000 0.461313
O O19 0.750000 0.697304 0.500000
#
# Coordination Sequence:
#
# PCOD8281341 Si02
#       8
#    16  16  16  16   8  16  16  16
#     4  11  21  38  62  88 125 161 211 262 318 376
#     4  11  24  40  57  85 127 171 209 251 310 381
#     4  11  20  39  63  95 125 165 210 265 327 383
#     4  12  25  42  66  94 131 174 218 265 325 396
#     4  12  24  40  64  96 136 172 210 262 326 394
#     4  12  23  37  63  94 126 168 209 263 314 382
#     4  11  24  42  65  93 129 170 216 268 325 385
#     4   9  20  36  60  91 121 155 202 263 324 379
#
# _framework density 19.891681999999999
#
# number of rings (size 3 to 8) (size 9 to 14) (size 15 to 20)
#    0.000    0.933    5.333    2.000    0.000    2.133 
#    0.000    0.000    0.000    2.000    0.000    0.000 
#    0.000    0.000    0.000    0.000    0.000    0.000 
#
# Total GULP energy -743580.589755 kJ/mol
# GULP energy per Si atom -12393.009829 kJ/mol
# Density = 1.984641 g / cm^3
# Si number density = 19.891682 Si / 1000 Ang^3
#
#
#
# Elastic Constant Matrix: (Units=GPa)
#
#
# Indices 1 2 3 4 5 6 
#
# 1 81.8280 50.2457 41.5011 0.0000 0.0000 0.0000
# 2 50.2457 141.2741 50.1541 0.0000 0.0000 0.0000
# 3 41.5011 50.1541 118.7042 0.0000 0.0000 0.0000
# 4 0.0000 0.0000 0.0000 37.0217 0.0000 0.0000
# 5 0.0000 0.0000 0.0000 0.0000 16.1285 0.0000
# 6 0.0000 0.0000 0.0000 0.0000 0.0000 -5.3915
#
#
#
# Elastic Compliance Matrix: (Units=1/GPa)
#
#
# Indices 1 2 3 4 5 6 
#
# 1 0.017121 -0.004664 -0.004015 0.000000 0.000000 0.000000
# 2 -0.004664 0.009598 -0.002425 0.000000 0.000000 0.000000
# 3 -0.004015 -0.002425 0.010853 0.000000 0.000000 0.000000
# 4 0.000000 0.000000 0.000000 0.027011 0.000000 0.000000
# 5 0.000000 0.000000 0.000000 0.000000 0.062002 0.000000
# 6 0.000000 0.000000 0.000000 0.000000 0.000000 -0.185478
#
#
# Mechanical properties :
#
#
# Convention : Reuss Voigt Hill
#
# Bulk Modulus (GPa) = 65.08749 69.51202 67.29976
# Shear Modulus (GPa) = -158.40638 22.87879 -67.76380
#
# Velocity S-wave (km/s) = -8.93350 3.39509 -5.84297
# Velocity P-wave (km/s) = 8.58008 7.09859 3.40792
#
# Compressibility (1/GPa) = 0.01536393
#
# Stress axis : x y z
#
# Youngs Moduli (GPa) = 58.40800 104.18871 92.14391
#
# Poissons Ratio (x) = 0.48591 0.36998
# Poissons Ratio (y) = 0.27240 0.22342
# Poissons Ratio (z) = 0.23452 0.25263
#
# Static dielectric constant tensor:
#      x y z
#    x 3.307190 0.000000 0.000000 
#    y 0.000000 4.062460 0.000000 
#    z 0.000000 0.000000 3.809030 
# 
# 
# High freq. dielectric constant tensor:
#      x y z
#    x 1.745760 0.000000 0.000000 
#    y 0.000000 1.789290 0.000000 
#    z 0.000000 0.000000 1.790920 
# 
# From -- ./inp_files/21167.got.cif
#   From: 2010.03.12/outbox.cif.g09.slc.cpg/sg67_11_cif.got.tgz:21167.got - 2010.04.10 22:41:39.
