data_PCOD8281597
_publ_section_title
;
Structure prediction by ZEFSAII (Michael W. Deem and Ramdas Pophale) SiO2 
 PCOD8281597
Probable space group: C M M A
;
_chemical_formula_sum "Si O2"
_cell_formula_units_Z 96
_cell_length_a 9.092359
_cell_length_b 19.380796
_cell_length_c 31.390451
_cell_angle_alpha 90.000000
_cell_angle_beta 90.000000
_cell_angle_gamma 90.000000
_cell_volume 5531.535967
_symmetry_space_group_name_H-M "C M M A"
_symmetry_group_IT_number 67
_symmetry_cell_setting 'orthorhombic'
loop_
_space_group_symop_operation_xyz
x,y,z
-x,1/2-y,z
x,-y,-z
-x,1/2+y,-z
-x,-y,-z
x,1/2+y,-z
-x,y,z
x,1/2-y,z
1/2+x,1/2+y,z
1/2-x,-y,z
1/2+x,1/2-y,-z
1/2-x,y,-z
1/2-x,1/2-y,-z
1/2+x,y,-z
1/2-x,1/2+y,z
1/2+x,-y,z
loop_
_atom_site_type_symbol
_atom_site_label
_atom_site_fract_x
_atom_site_fract_y
_atom_site_fract_z
Si Si1 0.166021 0.332145 0.207663
Si Si2 0.829116 0.927631 0.366899
Si Si3 0.827238 0.829144 0.291972
Si Si4 0.333717 0.832307 0.875138
Si Si5 0.166289 0.332260 0.041602
Si Si6 0.828169 0.426471 0.539266
O O1 0.168055 0.250000 0.206433
O O2 0.245127 0.358501 0.250423
O O3 0.252468 0.361455 0.166752
O O4 0.000000 0.360593 0.206678
O O5 0.771998 0.872720 0.332464
O O6 0.801462 0.893822 0.413883
O O7 0.000000 0.942986 0.360653
O O8 0.750000 0.000000 0.360148
O O9 0.784256 0.750000 0.300832
O O10 0.000000 0.836887 0.283954
O O11 0.500000 0.860490 0.875783
O O12 0.333112 0.750000 0.874910
O O13 0.249107 0.860489 0.916625
O O14 0.166167 0.250000 0.041535
O O15 0.000000 0.360606 0.041493
O O16 0.250000 0.360635 0.000000
O O17 0.750000 0.500000 0.540868
O O18 0.750000 0.384355 0.500000
O O19 0.000000 0.433842 0.529206
#
# Coordination Sequence:
#
# PCOD8281597 Si02
#       6
#    16  16  16  16  16  16
#     4   9  16  25  37  54  74  96 126 165 206 245
#     4   9  18  30  45  66  89 113 141 174 212 252
#     4   9  17  30  46  62  82 110 143 176 210 251
#     4   9  15  22  32  45  62  87 120 158 199 242
#     4   9  15  21  28  39  57  82 114 154 199 245
#     4   9  15  24  39  60  84 108 136 169 205 244
#
# _framework density 17.355035000000001
#
# number of rings (size 3 to 8) (size 9 to 14) (size 15 to 20)
#    0.000    3.000    0.000    2.500    0.000    7.333 
#    0.000    0.000    0.000    0.500    0.000    0.000 
#    0.000    0.000    0.000    0.000    0.000    5.333 
#
# Total GULP energy -594890.547200 kJ/mol
# GULP energy per Si atom -12393.553067 kJ/mol
# Density = 1.731553 g / cm^3
# Si number density = 17.355035 Si / 1000 Ang^3
#
#
#
# Elastic Constant Matrix: (Units=GPa)
#
#
# Indices 1 2 3 4 5 6 
#
# 1 126.4650 18.8866 90.4618 0.0000 0.0000 0.0000
# 2 18.8866 21.8288 34.0412 0.0000 0.0000 0.0000
# 3 90.4618 34.0412 204.7236 0.0000 0.0000 0.0000
# 4 0.0000 0.0000 0.0000 -13.4611 0.0000 0.0000
# 5 0.0000 0.0000 0.0000 0.0000 33.9342 0.0000
# 6 0.0000 0.0000 0.0000 0.0000 0.0000 8.6106
#
#
#
# Elastic Compliance Matrix: (Units=1/GPa)
#
#
# Indices 1 2 3 4 5 6 
#
# 1 0.011685 -0.002779 -0.004701 0.000000 0.000000 0.000000
# 2 -0.002779 0.062509 -0.009166 0.000000 0.000000 0.000000
# 3 -0.004701 -0.009166 0.008486 0.000000 0.000000 0.000000
# 4 0.000000 0.000000 0.000000 -0.074288 0.000000 0.000000
# 5 0.000000 0.000000 0.000000 0.000000 0.029469 0.000000
# 6 0.000000 0.000000 0.000000 0.000000 0.000000 0.116136
#
#
# Mechanical properties :
#
#
# Convention : Reuss Voigt Hill
#
# Bulk Modulus (GPa) = 20.24763 71.08849 45.66806
# Shear Modulus (GPa) = 24.53956 19.79193 22.16574
#
# Velocity S-wave (km/s) = 3.76436 3.38067 3.57766
# Velocity P-wave (km/s) = 5.53046 7.50258 6.59070
#
# Compressibility (1/GPa) = 0.04938850
#
# Stress axis : x y z
#
# Youngs Moduli (GPa) = 85.57815 15.99759 117.83870
#
# Poissons Ratio (x) = 0.04445 0.55400
# Poissons Ratio (y) = 0.23779 1.08013
# Poissons Ratio (z) = 0.40233 0.14664
#
# Static dielectric constant tensor:
#      x y z
#    x 3.397660 0.000000 0.000000 
#    y 0.000000 2.472930 0.000000 
#    z 0.000000 0.000000 3.942870 
# 
# 
# High freq. dielectric constant tensor:
#      x y z
#    x 1.683930 0.000000 0.000000 
#    y 0.000000 1.574090 0.000000 
#    z 0.000000 0.000000 1.697480 
# 
# From -- ./inp_files/43665.got.cif
#   From: 2010.03.12/outbox.cif.g09.slc.cpg/sg67_22_cif.got.tgz:43665.got - 2010.04.10 22:41:39.
