data_PCOD8281948
_publ_section_title
;
Structure prediction by ZEFSAII (Michael W. Deem and Ramdas Pophale) SiO2 
 PCOD8281948
Probable space group: C C C A
;
_chemical_formula_sum "Si O2"
_cell_formula_units_Z 84
_cell_length_a 23.529615
_cell_length_b 26.921768
_cell_length_c 5.302801
_cell_angle_alpha 90.000000
_cell_angle_beta 90.000000
_cell_angle_gamma 90.000000
_cell_volume 3359.106150
_symmetry_space_group_name_H-M "C C C A"
_symmetry_group_IT_number 68
_space_group.IT_coordinate_system_code '2'
_symmetry_cell_setting 'orthorhombic'
loop_
_space_group_symop_operation_xyz
x,y,z
-x,1/2-y,z
x,1/2-y,1/2-z
-x,y,1/2-z
-x,-y,-z
x,1/2+y,-z
-x,1/2+y,1/2+z
x,-y,1/2+z
1/2+x,1/2+y,z
1/2-x,-y,z
1/2+x,-y,1/2-z
1/2-x,1/2+y,1/2-z
1/2-x,1/2-y,-z
1/2+x,y,-z
1/2-x,y,1/2+z
1/2+x,1/2-y,1/2+z
loop_
_atom_site_type_symbol
_atom_site_label
_atom_site_fract_x
_atom_site_fract_y
_atom_site_fract_z
Si Si1 0.905521 0.177180 0.362281
Si Si2 0.724752 0.191423 0.873198
Si Si3 0.772333 0.420921 0.620590
Si Si4 0.888280 0.968359 0.435872
Si Si5 0.500000 0.250000 0.750000
Si Si6 0.939133 0.873770 0.338851
O O1 0.842641 0.199729 0.350456
O O2 0.955848 0.217257 0.419511
O O3 0.900162 0.138473 0.594849
O O4 0.919785 0.153286 0.092883
O O5 0.750989 0.217466 0.624849
O O6 0.747131 0.134482 0.865181
O O7 0.743982 0.448918 0.380748
O O8 0.839682 0.425807 0.586518
O O9 0.942950 0.933230 0.395875
O O10 0.886000 0.990998 0.715418
O O11 0.000000 0.854947 0.250000
#
# Coordination Sequence:
#
# PCOD8281948 Si02
#       6
#    16  16  16  16   4  16
#     4  12  25  47  75 111 149 181 248 302 370 449
#     4  10  20  39  68 100 139 191 229 281 357 440
#     4  10  19  35  56  86 124 177 229 280 350 405
#     4  12  26  40  62  99 140 188 247 305 347 407
#     4  12  28  50  80 122 140 186 236 324 356 430
#     4  12  24  46  71 100 142 200 247 295 375 431
#
# _framework density 25.006654000000001
#
# number of rings (size 3 to 8) (size 9 to 14) (size 15 to 20)
#    0.000    0.762    1.905    8.000    0.000    4.571 
#    0.000    0.952    0.000    0.000    0.000    0.000 
#    0.000    0.000    0.000    0.000    0.000    0.000 
#
# Total GULP energy -520383.159638 kJ/mol
# GULP energy per Si atom -12390.075229 kJ/mol
# Density = 2.494974 g / cm^3
# Si number density = 25.006654 Si / 1000 Ang^3
#
#
#
# Elastic Constant Matrix: (Units=GPa)
#
#
# Indices 1 2 3 4 5 6 
#
# 1 139.4581 39.7326 50.6728 0.0000 0.0000 0.0000
# 2 39.7326 72.7376 23.1837 0.0000 0.0000 0.0000
# 3 50.6728 23.1837 219.8618 0.0000 0.0000 0.0000
# 4 0.0000 0.0000 0.0000 10.2541 0.0000 0.0000
# 5 0.0000 0.0000 0.0000 0.0000 32.7292 0.0000
# 6 0.0000 0.0000 0.0000 0.0000 0.0000 25.5397
#
#
#
# Elastic Compliance Matrix: (Units=1/GPa)
#
#
# Indices 1 2 3 4 5 6 
#
# 1 0.009013 -0.004409 -0.001612 0.000000 0.000000 0.000000
# 2 -0.004409 0.016383 -0.000711 0.000000 0.000000 0.000000
# 3 -0.001612 -0.000711 0.004995 0.000000 0.000000 0.000000
# 4 0.000000 0.000000 0.000000 0.097522 0.000000 0.000000
# 5 0.000000 0.000000 0.000000 0.000000 0.030554 0.000000
# 6 0.000000 0.000000 0.000000 0.000000 0.000000 0.039155
#
#
# Mechanical properties :
#
#
# Convention : Reuss Voigt Hill
#
# Bulk Modulus (GPa) = 59.08357 73.24840 66.16598
# Shear Modulus (GPa) = 23.07025 34.93580 29.00303
#
# Velocity S-wave (km/s) = 3.04067 3.74178 3.40930
# Velocity P-wave (km/s) = 6.00050 6.92987 6.48186
#
# Compressibility (1/GPa) = 0.01692518
#
# Stress axis : x y z
#
# Youngs Moduli (GPa) = 110.95498 61.03771 200.20398
#
# Poissons Ratio (x) = 0.26913 0.32278
# Poissons Ratio (y) = 0.48923 0.14241
# Poissons Ratio (z) = 0.17889 0.04342
#
# Static dielectric constant tensor:
#      x y z
#    x 4.558640 0.000000 0.000000 
#    y 0.000000 4.843650 0.000000 
#    z 0.000000 0.000000 6.386780 
# 
# 
# High freq. dielectric constant tensor:
#      x y z
#    x 1.994660 0.000000 0.000000 
#    y 0.000000 2.000540 0.000000 
#    z 0.000000 0.000000 2.026960 
# 
# From -- ./inp_files/2066.got.cif
#   From: 2010.03.12/outbox.cif.g09.slc.cpg/sg68_2_cif.got.tgz:2066.got - 2010.04.10 23:14:56.
