data_PCOD8281450
_publ_section_title
;
Structure prediction by ZEFSAII (Michael W. Deem and Ramdas Pophale) SiO2 
 PCOD8281450
Probable space group: C M M A
;
_chemical_formula_sum "Si O2"
_cell_formula_units_Z 80
_cell_length_a 18.164742
_cell_length_b 8.729017
_cell_length_c 25.738131
_cell_angle_alpha 90.000000
_cell_angle_beta 90.000000
_cell_angle_gamma 90.000000
_cell_volume 4081.046847
_symmetry_space_group_name_H-M "C M M A"
_symmetry_group_IT_number 67
_symmetry_cell_setting 'orthorhombic'
loop_
_space_group_symop_operation_xyz
x,y,z
-x,1/2-y,z
x,-y,-z
-x,1/2+y,-z
-x,-y,-z
x,1/2+y,-z
-x,y,z
x,1/2-y,z
1/2+x,1/2+y,z
1/2-x,-y,z
1/2+x,1/2-y,-z
1/2-x,y,-z
1/2-x,1/2-y,-z
1/2+x,y,-z
1/2-x,1/2+y,z
1/2+x,-y,z
loop_
_atom_site_type_symbol
_atom_site_label
_atom_site_fract_x
_atom_site_fract_y
_atom_site_fract_z
Si Si1 0.671653 0.568447 0.555006
Si Si2 0.330204 0.568762 0.742128
Si Si3 0.913088 0.924694 0.646841
Si Si4 0.915167 0.568372 0.835523
Si Si5 0.587076 0.417434 0.950080
O O1 0.646197 0.500000 0.500000
O O2 0.677969 0.750000 0.550388
O O3 0.750000 0.500000 0.572157
O O4 0.611902 0.522623 0.597450
O O5 0.326646 0.750000 0.735893
O O6 0.250000 0.500000 0.734538
O O7 0.382950 0.498655 0.699012
O O8 0.361770 0.524730 0.798154
O O9 0.884976 0.750000 0.641740
O O10 0.000000 0.931366 0.649879
O O11 0.901099 0.750000 0.830636
O O12 0.895994 0.507666 0.893821
O O13 0.000000 0.531863 0.821872
O O14 0.500000 0.407302 0.957145
O O15 0.622341 0.250000 0.950089
O O16 0.622944 0.500000 0.000000
#
# Coordination Sequence:
#
# PCOD8281450 Si02
#       5
#    16  16  16  16  16
#     4  11  22  39  63  90 122 157 196 236 277 329
#     4  12  25  40  59  82 110 145 187 232 280 336
#     4  11  24  42  63  87 117 151 187 231 283 334
#     4   9  18  34  55  80 112 147 182 225 278 331
#     4   8  14  25  44  72 106 142 178 218 266 321
#
# _framework density 19.602813000000001
#
# number of rings (size 3 to 8) (size 9 to 14) (size 15 to 20)
#    0.000    1.800    0.000    7.200    0.000    5.600 
#    0.000    2.000    0.000    0.600    0.000    4.200 
#    0.000    0.000    0.000    0.000    0.000    0.000 
#
# Total GULP energy -495963.730287 kJ/mol
# GULP energy per Si atom -12399.093257 kJ/mol
# Density = 1.955820 g / cm^3
# Si number density = 19.602813 Si / 1000 Ang^3
#
#
#
# Elastic Constant Matrix: (Units=GPa)
#
#
# Indices 1 2 3 4 5 6 
#
# 1 53.5625 38.2536 41.1191 0.0000 0.0000 0.0000
# 2 38.2536 137.2633 54.5624 0.0000 0.0000 0.0000
# 3 41.1191 54.5624 138.9341 0.0000 0.0000 0.0000
# 4 0.0000 0.0000 0.0000 27.4725 0.0000 0.0000
# 5 0.0000 0.0000 0.0000 0.0000 10.7834 0.0000
# 6 0.0000 0.0000 0.0000 0.0000 0.0000 27.1793
#
#
#
# Elastic Compliance Matrix: (Units=1/GPa)
#
#
# Indices 1 2 3 4 5 6 
#
# 1 0.026900 -0.005133 -0.005945 0.000000 0.000000 0.000000
# 2 -0.005133 0.009613 -0.002256 0.000000 0.000000 0.000000
# 3 -0.005945 -0.002256 0.009843 0.000000 0.000000 0.000000
# 4 0.000000 0.000000 0.000000 0.036400 0.000000 0.000000
# 5 0.000000 0.000000 0.000000 0.000000 0.092735 0.000000
# 6 0.000000 0.000000 0.000000 0.000000 0.000000 0.036793
#
#
# Mechanical properties :
#
#
# Convention : Reuss Voigt Hill
#
# Bulk Modulus (GPa) = 50.79567 66.40334 58.59951
# Shear Modulus (GPa) = 20.36537 26.14204 23.25370
#
# Velocity S-wave (km/s) = 3.22669 3.65579 3.44792
# Velocity P-wave (km/s) = 6.31275 7.19498 6.76825
#
# Compressibility (1/GPa) = 0.01968672
#
# Stress axis : x y z
#
# Youngs Moduli (GPa) = 37.17439 104.03050 101.59349
#
# Poissons Ratio (x) = 0.53404 0.60401
# Poissons Ratio (y) = 0.19083 0.22917
# Poissons Ratio (z) = 0.22102 0.23467
#
# Static dielectric constant tensor:
#      x y z
#    x 3.298920 0.000000 0.000000 
#    y 0.000000 3.777000 0.000000 
#    z 0.000000 0.000000 3.860630 
# 
# 
# High freq. dielectric constant tensor:
#      x y z
#    x 1.737650 0.000000 0.000000 
#    y 0.000000 1.768130 0.000000 
#    z 0.000000 0.000000 1.785670 
# 
# From -- ./inp_files/44432.got.cif
#   From: 2010.03.12/outbox.cif.g09.slc.cpg/sg67_23_cif.got.tgz:44432.got - 2010.04.10 22:41:39.
