data_PCOD8281349
_publ_section_title
;
Structure prediction by ZEFSAII (Michael W. Deem and Ramdas Pophale) SiO2 
 PCOD8281349
Probable space group: C M M A
;
_chemical_formula_sum "Si O2"
_cell_formula_units_Z 64
_cell_length_a 8.425057
_cell_length_b 27.548929
_cell_length_c 14.422302
_cell_angle_alpha 90.000000
_cell_angle_beta 90.000000
_cell_angle_gamma 90.000000
_cell_volume 3347.435002
_symmetry_space_group_name_H-M "C M M A"
_symmetry_group_IT_number 67
_symmetry_cell_setting 'orthorhombic'
loop_
_space_group_symop_operation_xyz
x,y,z
-x,1/2-y,z
x,-y,-z
-x,1/2+y,-z
-x,-y,-z
x,1/2+y,-z
-x,y,z
x,1/2-y,z
1/2+x,1/2+y,z
1/2-x,-y,z
1/2+x,1/2-y,-z
1/2-x,y,-z
1/2-x,1/2-y,-z
1/2+x,y,-z
1/2-x,1/2+y,z
1/2+x,-y,z
loop_
_atom_site_type_symbol
_atom_site_label
_atom_site_fract_x
_atom_site_fract_y
_atom_site_fract_z
Si Si1 0.311433 0.446682 0.091852
Si Si2 0.186049 0.448170 0.602224
Si Si3 0.683173 0.883929 0.244175
Si Si4 0.187907 0.804983 0.899617
O O1 0.500000 0.441853 0.106333
O O2 0.250000 0.500000 0.077899
O O3 0.211801 0.429422 0.178891
O O4 0.250000 0.417639 0.000000
O O5 0.250000 0.500000 0.642095
O O6 0.250000 0.438962 0.500000
O O7 0.231475 0.399674 0.660612
O O8 0.000000 0.453042 0.599610
O O9 0.500000 0.875297 0.267065
O O10 0.754372 0.837438 0.186886
O O11 0.244952 0.750000 0.880855
O O12 0.000000 0.809517 0.901753
O O13 0.250000 0.822744 0.000000
#
# Coordination Sequence:
#
# PCOD8281349 Si02
#       4
#    16  16  16  16
#     4  11  21  33  47  68 100 136 173 210 254 307
#     4  11  22  38  58  81 109 140 177 218 265 316
#     4  11  21  34  53  77 105 137 175 217 263 313
#     4   9  19  35  55  79 108 142 179 220 265 314
#
# _framework density 19.119118
#
# number of rings (size 3 to 8) (size 9 to 14) (size 15 to 20)
#    0.000    1.500    0.000    8.250    0.000    4.000 
#    0.000    0.000    0.000    0.750    0.000    0.000 
#    0.000    0.000    0.000    0.000    0.000    0.000 
#
# Total GULP energy -396426.609156 kJ/mol
# GULP energy per Si atom -12388.331536 kJ/mol
# Density = 1.907560 g / cm^3
# Si number density = 19.119118 Si / 1000 Ang^3
#
#
#
# Elastic Constant Matrix: (Units=GPa)
#
#
# Indices 1 2 3 4 5 6 
#
# 1 86.2170 29.7444 27.7516 0.0000 0.0000 0.0000
# 2 29.7444 105.9572 60.4576 0.0000 0.0000 0.0000
# 3 27.7516 60.4576 113.5623 0.0000 0.0000 0.0000
# 4 0.0000 0.0000 0.0000 290.9830 0.0000 0.0000
# 5 0.0000 0.0000 0.0000 0.0000 31.7246 0.0000
# 6 0.0000 0.0000 0.0000 0.0000 0.0000 18.9334
#
#
#
# Elastic Compliance Matrix: (Units=1/GPa)
#
#
# Indices 1 2 3 4 5 6 
#
# 1 0.013089 -0.002656 -0.001785 0.000000 0.000000 0.000000
# 2 -0.002656 0.014094 -0.006854 0.000000 0.000000 0.000000
# 3 -0.001785 -0.006854 0.012891 0.000000 0.000000 0.000000
# 4 0.000000 0.000000 0.000000 0.003437 0.000000 0.000000
# 5 0.000000 0.000000 0.000000 0.000000 0.031521 0.000000
# 6 0.000000 0.000000 0.000000 0.000000 0.000000 0.052817
#
#
# Mechanical properties :
#
#
# Convention : Reuss Voigt Hill
#
# Bulk Modulus (GPa) = 57.19385 60.18263 58.68824
# Shear Modulus (GPa) = 31.99627 80.84704 56.42165
#
# Velocity S-wave (km/s) = 4.09531 6.50982 5.43826
# Velocity P-wave (km/s) = 7.23474 9.38348 8.37828
#
# Compressibility (1/GPa) = 0.01748440
#
# Stress axis : x y z
#
# Youngs Moduli (GPa) = 76.39737 70.94985 77.57376
#
# Poissons Ratio (x) = 0.18846 0.13844
# Poissons Ratio (y) = 0.20293 0.53172
# Poissons Ratio (z) = 0.13634 0.48632
#
# Static dielectric constant tensor:
#      x y z
#    x 3.512210 0.000000 0.000000 
#    y 0.000000 3.650550 0.000000 
#    z 0.000000 0.000000 5.575150 
# 
# 
# High freq. dielectric constant tensor:
#      x y z
#    x 1.746270 0.000000 0.000000 
#    y 0.000000 1.729530 0.000000 
#    z 0.000000 0.000000 1.741110 
# 
# From -- ./inp_files/25219.got.cif
#   From: 2010.03.12/outbox.cif.g09.slc.cpg/sg67_13_cif.got.tgz:25219.got - 2010.04.10 22:41:39.
