data_PCOD8281939
_publ_section_title
;
Structure prediction by ZEFSAII (Michael W. Deem and Ramdas Pophale) SiO2 
 PCOD8281939
Probable space group: C C C A
;
_chemical_formula_sum "Si O2"
_cell_formula_units_Z 120
_cell_length_a 22.211838
_cell_length_b 21.544036
_cell_length_c 11.919030
_cell_angle_alpha 90.000000
_cell_angle_beta 90.000000
_cell_angle_gamma 90.000000
_cell_volume 5703.644862
_symmetry_space_group_name_H-M "C C C A"
_symmetry_group_IT_number 68
_space_group.IT_coordinate_system_code '2'
_symmetry_cell_setting 'orthorhombic'
loop_
_space_group_symop_operation_xyz
x,y,z
-x,1/2-y,z
x,1/2-y,1/2-z
-x,y,1/2-z
-x,-y,-z
x,1/2+y,-z
-x,1/2+y,1/2+z
x,-y,1/2+z
1/2+x,1/2+y,z
1/2-x,-y,z
1/2+x,-y,1/2-z
1/2-x,1/2+y,1/2-z
1/2-x,1/2-y,-z
1/2+x,y,-z
1/2-x,y,1/2+z
1/2+x,1/2-y,1/2+z
loop_
_atom_site_type_symbol
_atom_site_label
_atom_site_fract_x
_atom_site_fract_y
_atom_site_fract_z
Si Si1 0.184527 0.158593 0.203378
Si Si2 0.392578 0.045117 0.625158
Si Si3 0.091646 0.585783 0.324585
Si Si4 0.652250 0.779660 0.073742
Si Si5 0.500000 0.909791 0.250000
Si Si6 0.683201 0.195446 0.339420
Si Si7 0.978520 0.186941 0.062318
Si Si8 0.037686 0.902443 0.416892
O O1 0.160052 0.093691 0.154826
O O2 0.151722 0.212616 0.132823
O O3 0.171004 0.168093 0.335362
O O4 0.256223 0.159922 0.194461
O O5 0.444470 0.047220 0.719097
O O6 0.423381 0.057291 0.504780
O O7 0.368059 0.974848 0.642324
O O8 0.129413 0.646609 0.352181
O O9 0.076157 0.595223 0.194704
O O10 0.031135 0.574879 0.398316
O O11 0.588474 0.799407 0.020893
O O12 0.694969 0.776455 0.963954
O O13 0.522368 0.868600 0.148500
O O14 0.668768 0.250000 0.250000
O O15 0.000000 0.250000 0.121782
O O16 0.025675 0.168088 0.962721
#
# Coordination Sequence:
#
# PCOD8281939 Si02
#       8
#    16  16  16  16   8  16  16  16
#     4  11  25  42  70  99 122 179 222 283 321 383
#     4  11  23  41  68  95 131 167 224 267 329 380
#     4  11  25  43  64  98 131 179 217 263 328 401
#     4  11  22  44  65  95 133 163 228 265 336 382
#     4  10  19  34  60  96 129 160 204 266 334 380
#     4  12  27  44  68  92 136 179 220 267 335 390
#     4  11  21  33  61  98 132 167 203 274 326 387
#     4  10  23  42  64  95 135 171 219 261 329 402
#
# _framework density 21.039179000000001
#
# number of rings (size 3 to 8) (size 9 to 14) (size 15 to 20)
#    0.000    1.067    4.000    3.400    5.600    2.667 
#    0.000    1.333    0.000    3.200    0.000    0.000 
#    0.000    0.000    0.000    0.000    0.000    0.000 
#
# Total GULP energy -743428.539317 kJ/mol
# GULP energy per Si atom -12390.475655 kJ/mol
# Density = 2.099129 g / cm^3
# Si number density = 21.039179 Si / 1000 Ang^3
#
#
#
# Elastic Constant Matrix: (Units=GPa)
#
#
# Indices 1 2 3 4 5 6 
#
# 1 70.3751 31.3420 34.5184 0.0000 0.0000 0.0000
# 2 31.3420 111.9493 48.1647 0.0000 0.0000 0.0000
# 3 34.5184 48.1647 136.3245 0.0000 0.0000 0.0000
# 4 0.0000 0.0000 0.0000 918.2896 0.0000 0.0000
# 5 0.0000 0.0000 0.0000 0.0000 18.6935 0.0000
# 6 0.0000 0.0000 0.0000 0.0000 0.0000 15.5671
#
#
#
# Elastic Compliance Matrix: (Units=1/GPa)
#
#
# Indices 1 2 3 4 5 6 
#
# 1 0.017309 -0.003491 -0.003149 0.000000 0.000000 0.000000
# 2 -0.003491 0.011238 -0.003087 0.000000 0.000000 0.000000
# 3 -0.003149 -0.003087 0.009223 0.000000 0.000000 0.000000
# 4 0.000000 0.000000 0.000000 0.001089 0.000000 0.000000
# 5 0.000000 0.000000 0.000000 0.000000 0.053495 0.000000
# 6 0.000000 0.000000 0.000000 0.000000 0.000000 0.064238
#
#
# Mechanical properties :
#
#
# Convention : Reuss Voigt Hill
#
# Bulk Modulus (GPa) = 54.59530 60.74433 57.66982
# Shear Modulus (GPa) = 27.44974 204.15163 115.80069
#
# Velocity S-wave (km/s) = 3.61598 9.86127 7.42698
# Velocity P-wave (km/s) = 6.59086 12.59342 10.05071
#
# Compressibility (1/GPa) = 0.01831659
#
# Stress axis : x y z
#
# Youngs Moduli (GPa) = 57.77325 88.98460 108.42014
#
# Poissons Ratio (x) = 0.31064 0.34146
# Poissons Ratio (y) = 0.20168 0.33464
# Poissons Ratio (z) = 0.18195 0.27465
#
# Static dielectric constant tensor:
#      x y z
#    x 3.536970 0.000000 0.000000 
#    y 0.000000 3.908180 0.000000 
#    z 0.000000 0.000000 4.289710 
# 
# 
# High freq. dielectric constant tensor:
#      x y z
#    x 1.811400 0.000000 0.000000 
#    y 0.000000 1.820170 0.000000 
#    z 0.000000 0.000000 1.836850 
# 
# From -- ./inp_files/16609.got.cif
#   From: 2010.03.12/outbox.cif.g09.slc.cpg/sg68_9_cif.got.tgz:16609.got - 2010.04.10 23:14:56.
