data_PCOD8281955
_publ_section_title
;
Structure prediction by ZEFSAII (Michael W. Deem and Ramdas Pophale) SiO2 
 PCOD8281955
Probable space group: C C C A
;
_chemical_formula_sum "Si O2"
_cell_formula_units_Z 48
_cell_length_a 9.160249
_cell_length_b 10.860524
_cell_length_c 20.766649
_cell_angle_alpha 90.000000
_cell_angle_beta 90.000000
_cell_angle_gamma 90.000000
_cell_volume 2065.972238
_symmetry_space_group_name_H-M "C C C A"
_symmetry_group_IT_number 68
_space_group.IT_coordinate_system_code '2'
_symmetry_cell_setting 'orthorhombic'
loop_
_space_group_symop_operation_xyz
x,y,z
-x,1/2-y,z
x,1/2-y,1/2-z
-x,y,1/2-z
-x,-y,-z
x,1/2+y,-z
-x,1/2+y,1/2+z
x,-y,1/2+z
1/2+x,1/2+y,z
1/2-x,-y,z
1/2+x,-y,1/2-z
1/2-x,1/2+y,1/2-z
1/2-x,1/2-y,-z
1/2+x,y,-z
1/2-x,y,1/2+z
1/2+x,1/2-y,1/2+z
loop_
_atom_site_type_symbol
_atom_site_label
_atom_site_fract_x
_atom_site_fract_y
_atom_site_fract_z
Si Si1 0.336230 0.881590 0.226578
Si Si2 0.663317 0.152263 0.922324
Si Si3 0.872637 0.088260 0.025917
O O1 0.268400 0.750000 0.250000
O O2 0.500000 0.892108 0.250000
O O3 0.333317 0.892254 0.149929
O O4 0.250000 0.000000 0.254839
O O5 0.623006 0.295064 0.925446
O O6 0.551487 0.062081 0.966446
O O7 0.821996 0.131475 0.954445
O O8 0.750000 0.000000 0.057965
#
# Coordination Sequence:
#
# PCOD8281955 Si02
#       3
#    16  16  16
#     4  11  25  46  67  92 129 173 220 267 314 372
#     4  10  22  37  59  92 124 158 206 257 314 381
#     4  10  19  35  58  89 126 161 196 251 321 381
#
# _framework density 23.233612999999998
#
# number of rings (size 3 to 8) (size 9 to 14) (size 15 to 20)
#    0.000    1.667    0.000    6.000    0.000    6.000 
#    0.000   10.000    0.000    0.000    0.000    0.000 
#    0.000    0.000    0.000    0.000    0.000    0.000 
#
# Total GULP energy -297484.852235 kJ/mol
# GULP energy per Si atom -12395.202176 kJ/mol
# Density = 2.318073 g / cm^3
# Si number density = 23.233613 Si / 1000 Ang^3
#
#
#
# Elastic Constant Matrix: (Units=GPa)
#
#
# Indices 1 2 3 4 5 6 
#
# 1 110.8164 74.0567 19.6729 0.0000 0.0000 0.0000
# 2 74.0567 175.1570 30.3057 0.0000 0.0000 0.0000
# 3 19.6729 30.3057 104.4616 0.0000 0.0000 0.0000
# 4 0.0000 0.0000 0.0000 69.3093 0.0000 0.0000
# 5 0.0000 0.0000 0.0000 0.0000 20.3725 0.0000
# 6 0.0000 0.0000 0.0000 0.0000 0.0000 45.2350
#
#
#
# Elastic Compliance Matrix: (Units=1/GPa)
#
#
# Indices 1 2 3 4 5 6 
#
# 1 0.012653 -0.005198 -0.000875 0.000000 0.000000 0.000000
# 2 -0.005198 0.008147 -0.001384 0.000000 0.000000 0.000000
# 3 -0.000875 -0.001384 0.010139 0.000000 0.000000 0.000000
# 4 0.000000 0.000000 0.000000 0.014428 0.000000 0.000000
# 5 0.000000 0.000000 0.000000 0.000000 0.049086 0.000000
# 6 0.000000 0.000000 0.000000 0.000000 0.000000 0.022107
#
#
# Mechanical properties :
#
#
# Convention : Reuss Voigt Hill
#
# Bulk Modulus (GPa) = 62.40726 70.94506 66.67616
# Shear Modulus (GPa) = 36.54529 44.74333 40.64431
#
# Velocity S-wave (km/s) = 3.97034 4.39316 4.18709
# Velocity P-wave (km/s) = 6.92367 7.50566 7.22053
#
# Compressibility (1/GPa) = 0.01602378
#
# Stress axis : x y z
#
# Youngs Moduli (GPa) = 79.03085 122.75028 98.62626
#
# Poissons Ratio (x) = 0.63811 0.08628
# Poissons Ratio (y) = 0.41084 0.13654
# Poissons Ratio (z) = 0.06914 0.16994
#
# Static dielectric constant tensor:
#      x y z
#    x 0.585700 0.000000 0.000000 
#    y 0.000000 5.382220 0.000000 
#    z 0.000000 0.000000 3.834300 
# 
# 
# High freq. dielectric constant tensor:
#      x y z
#    x 1.932450 0.000000 0.000000 
#    y 0.000000 1.974170 0.000000 
#    z 0.000000 0.000000 1.895520 
# 
# From -- ./inp_files/42555.got.cif
#   From: 2010.03.12/outbox.cif.g09.slc.cpg/sg68_22_cif.got.tgz:42555.got - 2010.04.10 23:14:56.
