data_PCOD8281593
_publ_section_title
;
Structure prediction by ZEFSAII (Michael W. Deem and Ramdas Pophale) SiO2 
 PCOD8281593
Probable space group: C M M A
;
_chemical_formula_sum "Si O2"
_cell_formula_units_Z 64
_cell_length_a 10.626986
_cell_length_b 14.933514
_cell_length_c 18.618799
_cell_angle_alpha 90.000000
_cell_angle_beta 90.000000
_cell_angle_gamma 90.000000
_cell_volume 2954.770711
_symmetry_space_group_name_H-M "C M M A"
_symmetry_group_IT_number 67
_symmetry_cell_setting 'orthorhombic'
loop_
_space_group_symop_operation_xyz
x,y,z
-x,1/2-y,z
x,-y,-z
-x,1/2+y,-z
-x,-y,-z
x,1/2+y,-z
-x,y,z
x,1/2-y,z
1/2+x,1/2+y,z
1/2-x,-y,z
1/2+x,1/2-y,-z
1/2-x,y,-z
1/2-x,1/2-y,-z
1/2+x,y,-z
1/2-x,1/2+y,z
1/2+x,-y,z
loop_
_atom_site_type_symbol
_atom_site_label
_atom_site_fract_x
_atom_site_fract_y
_atom_site_fract_z
Si Si1 0.242926 0.643546 0.842059
Si Si2 0.500000 0.856692 0.073689
Si Si3 0.136262 0.404082 0.461690
Si Si4 0.856683 0.352308 0.306725
Si Si5 0.500000 0.856694 0.910705
O O1 0.239968 0.750000 0.847247
O O2 0.230254 0.613564 0.758796
O O3 0.375061 0.605380 0.871545
O O4 0.125862 0.605243 0.888200
O O5 0.500000 0.750000 0.076246
O O6 0.500000 0.891611 0.992101
O O7 0.129790 0.500000 0.500000
O O8 0.250000 0.349072 0.500000
O O9 0.166360 0.413444 0.376950
O O10 0.000000 0.355551 0.470900
O O11 0.823861 0.250000 0.327822
O O12 0.000000 0.358559 0.279412
O O13 0.500000 0.750000 0.908090
#
# Coordination Sequence:
#
# PCOD8281593 Si02
#       5
#    16   8  16  16   8
#     4   9  15  24  36  54  82 117 156 191 224 264
#     4   9  14  22  36  52  76 118 162 190 221 266
#     4   9  18  33  51  69  89 116 148 189 234 278
#     4   9  16  28  46  65  89 123 158 189 227 279
#     4   9  16  22  32  54  84 116 154 196 229 258
#
# _framework density 21.659887000000001
#
# number of rings (size 3 to 8) (size 9 to 14) (size 15 to 20)
#    0.000    3.000    1.250    0.750    0.000    3.500 
#    2.250    0.000    0.000    0.000    0.000    0.000 
#    0.000    0.000    0.000   27.000    0.000   12.000 
#
# Total GULP energy -396477.618815 kJ/mol
# GULP energy per Si atom -12389.925588 kJ/mol
# Density = 2.161059 g / cm^3
# Si number density = 21.659887 Si / 1000 Ang^3
#
#
#
# Elastic Constant Matrix: (Units=GPa)
#
#
# Indices 1 2 3 4 5 6 
#
# 1 216.1931 -1.1510 115.3626 0.0000 0.0000 0.0000
# 2 -1.1510 29.8857 21.6918 0.0000 0.0000 0.0000
# 3 115.3626 21.6918 211.1260 0.0000 0.0000 0.0000
# 4 0.0000 0.0000 0.0000 -12.2567 0.0000 0.0000
# 5 0.0000 0.0000 0.0000 0.0000 38.1760 0.0000
# 6 0.0000 0.0000 0.0000 0.0000 0.0000 -1.7017
#
#
#
# Elastic Compliance Matrix: (Units=1/GPa)
#
#
# Indices 1 2 3 4 5 6 
#
# 1 0.006801 0.003198 -0.004045 0.000000 0.000000 0.000000
# 2 0.003198 0.037661 -0.005617 0.000000 0.000000 0.000000
# 3 -0.004045 -0.005617 0.007524 0.000000 0.000000 0.000000
# 4 0.000000 0.000000 0.000000 -0.081588 0.000000 0.000000
# 5 0.000000 0.000000 0.000000 0.000000 0.026194 0.000000
# 6 0.000000 0.000000 0.000000 0.000000 0.000000 -0.587657
#
#
# Mechanical properties :
#
#
# Convention : Reuss Voigt Hill
#
# Bulk Modulus (GPa) = 25.60307 81.00130 53.30218
# Shear Modulus (GPa) = -8.84769 26.26361 8.70796
#
# Velocity S-wave (km/s) = -2.02329 3.48594 2.00725
# Velocity P-wave (km/s) = 2.52743 7.32670 5.48035
#
# Compressibility (1/GPa) = 0.03905782
#
# Stress axis : x y z
#
# Youngs Moduli (GPa) = 147.04306 26.55290 132.91538
#
# Poissons Ratio (x) = -0.08490 0.53758
# Poissons Ratio (y) = -0.47018 0.74653
# Poissons Ratio (z) = 0.59472 0.14914
#
# Static dielectric constant tensor:
#      x y z
#    x 5.086840 0.000000 0.000000 
#    y 0.000000 3.141380 0.000000 
#    z 0.000000 0.000000 3.989970 
# 
# 
# High freq. dielectric constant tensor:
#      x y z
#    x 1.859710 0.000000 0.000000 
#    y 0.000000 1.791310 0.000000 
#    z 0.000000 0.000000 1.860240 
# 
# From -- ./inp_files/25781.got.cif
#   From: 2010.03.12/outbox.cif.g09.slc.cpg/sg67_13_cif.got.tgz:25781.got - 2010.04.10 22:41:39.
