data_PCOD8281653
_publ_section_title
;
Structure prediction by ZEFSAII (Michael W. Deem and Ramdas Pophale) SiO2 
 PCOD8281653
Probable space group: C C C A
;
_chemical_formula_sum "Si O2"
_cell_formula_units_Z 72
_cell_length_a 8.900138
_cell_length_b 19.499567
_cell_length_c 19.908195
_cell_angle_alpha 90.000000
_cell_angle_beta 90.000000
_cell_angle_gamma 90.000000
_cell_volume 3455.044094
_symmetry_space_group_name_H-M "C C C A"
_symmetry_group_IT_number 68
_space_group.IT_coordinate_system_code '2'
_symmetry_cell_setting 'orthorhombic'
loop_
_space_group_symop_operation_xyz
x,y,z
-x,1/2-y,z
x,1/2-y,1/2-z
-x,y,1/2-z
-x,-y,-z
x,1/2+y,-z
-x,1/2+y,1/2+z
x,-y,1/2+z
1/2+x,1/2+y,z
1/2-x,-y,z
1/2+x,-y,1/2-z
1/2-x,1/2+y,1/2-z
1/2-x,1/2-y,-z
1/2+x,y,-z
1/2-x,y,1/2+z
1/2+x,1/2-y,1/2+z
loop_
_atom_site_type_symbol
_atom_site_label
_atom_site_fract_x
_atom_site_fract_y
_atom_site_fract_z
Si Si1 0.620284 0.370731 0.444922
Si Si2 0.101672 0.434184 0.861148
Si Si3 0.074844 0.417798 0.318048
Si Si4 0.444456 0.322490 0.570946
Si Si5 0.250000 0.000000 0.514866
O O1 0.530721 0.378649 0.373218
O O2 0.515205 0.332109 0.497772
O O3 0.764439 0.323038 0.433164
O O4 0.661777 0.447472 0.467821
O O5 0.045044 0.500593 0.820686
O O6 0.245899 0.402238 0.822416
O O7 0.141790 0.455935 0.937470
O O8 0.000000 0.388775 0.250000
O O9 0.995445 0.383799 0.381297
O O10 0.500000 0.250000 0.600929
#
# Coordination Sequence:
#
# PCOD8281653 Si02
#       5
#    16  16  16  16   8
#     4  12  20  36  60  90 122 150 191 252 315 370
#     4  10  20  36  63  90 118 146 197 251 315 373
#     4  10  22  41  59  83 119 157 199 251 295 363
#     4  12  24  37  56  85 120 163 203 240 298 360
#     4  10  16  32  60  86 124 146 182 240 320 366
#
# _framework density 20.839098
#
# number of rings (size 3 to 8) (size 9 to 14) (size 15 to 20)
#    0.000    1.333    6.667    2.667    0.000    4.000 
#    0.000    0.000    0.000    0.000    0.000    6.222 
#    0.000    0.000    0.000    0.000    0.000    0.000 
#
# Total GULP energy -446317.021823 kJ/mol
# GULP energy per Si atom -12397.695051 kJ/mol
# Density = 2.079167 g / cm^3
# Si number density = 20.839098 Si / 1000 Ang^3
#
#
#
# Elastic Constant Matrix: (Units=GPa)
#
#
# Indices 1 2 3 4 5 6 
#
# 1 153.3536 49.5021 47.4657 0.0000 0.0000 0.0000
# 2 49.5021 43.7963 20.7734 0.0000 0.0000 0.0000
# 3 47.4657 20.7734 65.6144 0.0000 0.0000 0.0000
# 4 0.0000 0.0000 0.0000 6.7886 0.0000 0.0000
# 5 0.0000 0.0000 0.0000 0.0000 35.0350 0.0000
# 6 0.0000 0.0000 0.0000 0.0000 0.0000 27.8773
#
#
#
# Elastic Compliance Matrix: (Units=1/GPa)
#
#
# Indices 1 2 3 4 5 6 
#
# 1 0.011483 -0.010636 -0.004939 0.000000 0.000000 0.000000
# 2 -0.010636 0.036719 -0.003931 0.000000 0.000000 0.000000
# 3 -0.004939 -0.003931 0.020058 0.000000 0.000000 0.000000
# 4 0.000000 0.000000 0.000000 0.147307 0.000000 0.000000
# 5 0.000000 0.000000 0.000000 0.000000 0.028543 0.000000
# 6 0.000000 0.000000 0.000000 0.000000 0.000000 0.035871
#
#
# Mechanical properties :
#
#
# Convention : Reuss Voigt Hill
#
# Bulk Modulus (GPa) = 34.19107 55.36073 44.77590
# Shear Modulus (GPa) = 15.20938 23.60839 19.40888
#
# Velocity S-wave (km/s) = 2.70450 3.36949 3.05514
# Velocity P-wave (km/s) = 5.11813 6.46231 5.82909
#
# Compressibility (1/GPa) = 0.02924740
#
# Stress axis : x y z
#
# Youngs Moduli (GPa) = 87.08473 27.23353 49.85457
#
# Poissons Ratio (x) = 0.28966 0.24626
# Poissons Ratio (y) = 0.92625 0.19598
# Poissons Ratio (z) = 0.43015 0.10706
#
# Static dielectric constant tensor:
#      x y z
#    x 4.153950 0.000000 0.000000 
#    y 0.000000 3.574820 0.000000 
#    z 0.000000 0.000000 3.433790 
# 
# 
# High freq. dielectric constant tensor:
#      x y z
#    x 1.833090 0.000000 0.000000 
#    y 0.000000 1.786150 0.000000 
#    z 0.000000 0.000000 1.784980 
# 
# From -- ./inp_files/36023.got.cif
#   From: 2010.03.12/outbox.cif.g09.slc.cpg/sg68_19_cif.got.tgz:36023.got - 2010.04.10 23:14:56.
