data_PCOD8281839
_publ_section_title
;
Structure prediction by ZEFSAII (Michael W. Deem and Ramdas Pophale) SiO2 
 PCOD8281839
Probable space group: C C C A
;
_chemical_formula_sum "Si O2"
_cell_formula_units_Z 72
_cell_length_a 26.808234
_cell_length_b 8.634921
_cell_length_c 14.089633
_cell_angle_alpha 90.000000
_cell_angle_beta 90.000000
_cell_angle_gamma 90.000000
_cell_volume 3261.566631
_symmetry_space_group_name_H-M "C C C A"
_symmetry_group_IT_number 68
_space_group.IT_coordinate_system_code '2'
_symmetry_cell_setting 'orthorhombic'
loop_
_space_group_symop_operation_xyz
x,y,z
-x,1/2-y,z
x,1/2-y,1/2-z
-x,y,1/2-z
-x,-y,-z
x,1/2+y,-z
-x,1/2+y,1/2+z
x,-y,1/2+z
1/2+x,1/2+y,z
1/2-x,-y,z
1/2+x,-y,1/2-z
1/2-x,1/2+y,1/2-z
1/2-x,1/2-y,-z
1/2+x,y,-z
1/2-x,y,1/2+z
1/2+x,1/2-y,1/2+z
loop_
_atom_site_type_symbol
_atom_site_label
_atom_site_fract_x
_atom_site_fract_y
_atom_site_fract_z
Si Si1 0.500000 0.750000 0.250000
Si Si2 0.570005 0.492728 0.313344
Si Si3 0.358374 0.417183 0.359169
Si Si4 0.273769 0.250000 0.250000
Si Si5 0.250000 0.500000 0.618003
Si Si6 0.854105 0.594890 0.461074
Si Si7 0.500000 0.750000 0.750000
O O1 0.537139 0.647740 0.313608
O O2 0.598193 0.450966 0.215154
O O3 0.607666 0.510662 0.401062
O O4 0.531898 0.351095 0.324421
O O5 0.307968 0.381892 0.300428
O O6 0.358880 0.569460 0.425963
O O7 0.365767 0.270077 0.429275
O O8 0.238434 0.345032 0.179251
O O9 0.202072 0.462435 0.556182
#
# Coordination Sequence:
#
# PCOD8281839 Si02
#       7
#     4  16  16   8   8  16   4
#     4  10  28  36  74 104 120 172 230 274 358 396
#     4  11  21  47  65  98 134 172 221 279 341 398
#     4  11  22  43  67  93 138 177 219 271 332 388
#     4  10  21  41  64  95 130 187 217 265 328 386
#     4  10  22  40  64 102 132 182 224 262 332 390
#     4  11  24  40  67  99 134 179 224 270 329 397
#     4  10  18  42  82  76 128 188 204 284 346 396
#
# _framework density 22.075282000000001
#
# number of rings (size 3 to 8) (size 9 to 14) (size 15 to 20)
#    0.000    1.333    6.667    0.000    3.111    7.111 
#    0.000    6.667    0.000    0.000    0.000    0.000 
#    0.000    0.000    0.000    0.000    0.000    0.000 
#
# Total GULP energy -446062.921764 kJ/mol
# GULP energy per Si atom -12390.636716 kJ/mol
# Density = 2.202504 g / cm^3
# Si number density = 22.075282 Si / 1000 Ang^3
#
#
#
# Elastic Constant Matrix: (Units=GPa)
#
#
# Indices 1 2 3 4 5 6 
#
# 1 93.4987 26.4276 20.8219 0.0000 0.0000 0.0000
# 2 26.4276 68.1380 8.5249 0.0000 0.0000 0.0000
# 3 20.8219 8.5249 86.2126 0.0000 0.0000 0.0000
# 4 0.0000 0.0000 0.0000 34.4751 0.0000 0.0000
# 5 0.0000 0.0000 0.0000 0.0000 -0.7940 0.0000
# 6 0.0000 0.0000 0.0000 0.0000 0.0000 17.8760
#
#
#
# Elastic Compliance Matrix: (Units=1/GPa)
#
#
# Indices 1 2 3 4 5 6 
#
# 1 0.012556 -0.004547 -0.002583 0.000000 0.000000 0.000000
# 2 -0.004547 0.016506 -0.000534 0.000000 0.000000 0.000000
# 3 -0.002583 -0.000534 0.012276 0.000000 0.000000 0.000000
# 4 0.000000 0.000000 0.000000 0.029006 0.000000 0.000000
# 5 0.000000 0.000000 0.000000 0.000000 -1.259430 0.000000
# 6 0.000000 0.000000 0.000000 0.000000 0.000000 0.055941
#
#
# Mechanical properties :
#
#
# Convention : Reuss Voigt Hill
#
# Bulk Modulus (GPa) = 38.44566 39.93312 39.18939
# Shear Modulus (GPa) = -4.50797 23.11643 9.30423
#
# Velocity S-wave (km/s) = -1.43057 3.23950 2.05522
# Velocity P-wave (km/s) = 3.83729 5.66756 4.83974
#
# Compressibility (1/GPa) = 0.02601074
#
# Stress axis : x y z
#
# Youngs Moduli (GPa) = 79.64555 60.58283 81.46080
#
# Poissons Ratio (x) = 0.27545 0.21040
# Poissons Ratio (y) = 0.36212 0.04351
# Poissons Ratio (z) = 0.20571 0.03236
#
# Static dielectric constant tensor:
#      x y z
#    x 4.009820 0.000000 0.000000 
#    y 0.000000 4.133890 0.000000 
#    z 0.000000 0.000000 3.832890 
# 
# 
# High freq. dielectric constant tensor:
#      x y z
#    x 1.871330 0.000000 0.000000 
#    y 0.000000 1.872470 0.000000 
#    z 0.000000 0.000000 1.849300 
# 
# From -- ./inp_files/19538.got.cif
#   From: 2010.03.12/outbox.cif.g09.slc.cpg/sg68_10_cif.got.tgz:19538.got - 2010.04.10 23:14:56.
