data_PCOD8281244
_publ_section_title
;
Structure prediction by ZEFSAII (Michael W. Deem and Ramdas Pophale) SiO2 
 PCOD8281244
Probable space group: C M M A
;
_chemical_formula_sum "Si O2"
_cell_formula_units_Z 88
_cell_length_a 22.223566
_cell_length_b 14.960007
_cell_length_c 12.939724
_cell_angle_alpha 90.000000
_cell_angle_beta 90.000000
_cell_angle_gamma 90.000000
_cell_volume 4302.001496
_symmetry_space_group_name_H-M "C M M A"
_symmetry_group_IT_number 67
_symmetry_cell_setting 'orthorhombic'
loop_
_space_group_symop_operation_xyz
x,y,z
-x,1/2-y,z
x,-y,-z
-x,1/2+y,-z
-x,-y,-z
x,1/2+y,-z
-x,y,z
x,1/2-y,z
1/2+x,1/2+y,z
1/2-x,-y,z
1/2+x,1/2-y,-z
1/2-x,y,-z
1/2-x,1/2-y,-z
1/2+x,y,-z
1/2-x,1/2+y,z
1/2+x,-y,z
loop_
_atom_site_type_symbol
_atom_site_label
_atom_site_fract_x
_atom_site_fract_y
_atom_site_fract_z
Si Si1 0.143503 0.107291 0.897403
Si Si2 0.064927 0.750000 0.208073
Si Si3 0.500000 0.397453 0.537709
Si Si4 0.255681 0.602003 0.235441
Si Si5 0.877059 0.098419 0.126588
Si Si6 0.920793 0.750000 0.441098
Si Si7 0.000000 0.351478 0.234564
Si Si8 0.217574 0.250000 0.606723
O O1 0.102315 0.162906 0.820488
O O2 0.213234 0.116926 0.864681
O O3 0.121044 0.007178 0.885215
O O4 0.135950 0.141979 0.014485
O O5 0.050107 0.750000 0.328647
O O6 0.000000 0.750000 0.150681
O O7 0.500000 0.500000 0.500000
O O8 0.441617 0.340543 0.500791
O O9 0.500000 0.409760 0.661610
O O10 0.250000 0.500000 0.273263
O O11 0.323813 0.627792 0.204369
O O12 0.234317 0.662117 0.329736
O O13 0.941099 0.130913 0.166501
O O14 0.850649 0.750000 0.426732
O O15 0.000000 0.250000 0.271712
O O16 0.250000 0.250000 0.500000
#
# Coordination Sequence:
#
# PCOD8281244 Si02
#       8
#    16   8   8  16  16   8   8   8
#     4  10  22  43  64 102 129 177 215 272 329 408
#     4  12  24  37  68  91 134 164 223 269 324 387
#     4  11  27  46  76  94 131 183 224 274 349 408
#     4  10  22  44  69  98 130 175 224 275 338 410
#     4  10  25  40  69  92 141 171 220 269 337 404
#     4  11  24  50  65 100 131 168 228 283 323 408
#     4  12  28  44  60  99 133 173 224 276 336 408
#     4  12  27  42  68  95 133 171 221 290 341 378
#
# _framework density 20.455594999999999
#
# number of rings (size 3 to 8) (size 9 to 14) (size 15 to 20)
#    0.000    1.273    3.636    0.545   10.182    3.273 
#    0.000    1.818    0.000    0.000    0.000    0.000 
#    0.000    0.000    0.000    0.000    0.000    0.000 
#
# Total GULP energy -545596.287406 kJ/mol
# GULP energy per Si atom -12399.915623 kJ/mol
# Density = 2.040904 g / cm^3
# Si number density = 20.455595 Si / 1000 Ang^3
#
#
#
# Elastic Constant Matrix: (Units=GPa)
#
#
# Indices 1 2 3 4 5 6 
#
# 1 184.2802 50.7263 60.2645 0.0000 0.0000 0.0000
# 2 50.7263 102.2421 52.9040 0.0000 0.0000 0.0000
# 3 60.2645 52.9040 141.0123 0.0000 0.0000 0.0000
# 4 0.0000 0.0000 0.0000 11.9074 0.0000 0.0000
# 5 0.0000 0.0000 0.0000 0.0000 36.2780 0.0000
# 6 0.0000 0.0000 0.0000 0.0000 0.0000 53.0846
#
#
#
# Elastic Compliance Matrix: (Units=1/GPa)
#
#
# Indices 1 2 3 4 5 6 
#
# 1 0.006715 -0.002291 -0.002010 0.000000 0.000000 0.000000
# 2 -0.002291 0.012919 -0.003868 0.000000 0.000000 0.000000
# 3 -0.002010 -0.003868 0.009402 0.000000 0.000000 0.000000
# 4 0.000000 0.000000 0.000000 0.083981 0.000000 0.000000
# 5 0.000000 0.000000 0.000000 0.000000 0.027565 0.000000
# 6 0.000000 0.000000 0.000000 0.000000 0.000000 0.018838
#
#
# Mechanical properties :
#
#
# Convention : Reuss Voigt Hill
#
# Bulk Modulus (GPa) = 78.75719 83.92491 81.34105
# Shear Modulus (GPa) = 27.77947 37.82999 32.80473
#
# Velocity S-wave (km/s) = 3.68915 4.30510 4.00897
# Velocity P-wave (km/s) = 7.53204 8.11349 7.82817
#
# Compressibility (1/GPa) = 0.01269725
#
# Stress axis : x y z
#
# Youngs Moduli (GPa) = 148.93022 77.40704 106.36528
#
# Poissons Ratio (x) = 0.17736 0.21379
# Poissons Ratio (y) = 0.34125 0.41137
# Poissons Ratio (z) = 0.29934 0.29937
#
# Static dielectric constant tensor:
#      x y z
#    x 3.780810 0.000000 0.000000 
#    y 0.000000 3.726570 0.000000 
#    z 0.000000 0.000000 3.756570 
# 
# 
# High freq. dielectric constant tensor:
#      x y z
#    x 1.813830 0.000000 0.000000 
#    y 0.000000 1.803950 0.000000 
#    z 0.000000 0.000000 1.801690 
# 
# From -- ./inp_files/21824.got.cif
#   From: 2010.03.12/outbox.cif.g09.slc.cpg/sg67_11_cif.got.tgz:21824.got - 2010.04.10 22:41:39.
