data_PCOD8281805
_publ_section_title
;
Structure prediction by ZEFSAII (Michael W. Deem and Ramdas Pophale) SiO2 
 PCOD8281805
Probable space group: C C C A
;
_chemical_formula_sum "Si O2"
_cell_formula_units_Z 116
_cell_length_a 28.494178
_cell_length_b 9.752726
_cell_length_c 21.735149
_cell_angle_alpha 90.000000
_cell_angle_beta 90.000000
_cell_angle_gamma 90.000000
_cell_volume 6040.109024
_symmetry_space_group_name_H-M "C C C A"
_symmetry_group_IT_number 68
_space_group.IT_coordinate_system_code '2'
_symmetry_cell_setting 'orthorhombic'
loop_
_space_group_symop_operation_xyz
x,y,z
-x,1/2-y,z
x,1/2-y,1/2-z
-x,y,1/2-z
-x,-y,-z
x,1/2+y,-z
-x,1/2+y,1/2+z
x,-y,1/2+z
1/2+x,1/2+y,z
1/2-x,-y,z
1/2+x,-y,1/2-z
1/2-x,1/2+y,1/2-z
1/2-x,1/2-y,-z
1/2+x,y,-z
1/2-x,y,1/2+z
1/2+x,1/2-y,1/2+z
loop_
_atom_site_type_symbol
_atom_site_label
_atom_site_fract_x
_atom_site_fract_y
_atom_site_fract_z
Si Si1 0.174375 0.263954 0.822131
Si Si2 0.719107 0.252004 0.676833
Si Si3 0.551735 0.219786 0.510649
Si Si4 0.000000 0.750000 0.750000
Si Si5 0.358516 0.547751 0.364294
Si Si6 0.387546 0.028764 0.501017
Si Si7 0.844773 0.473603 0.374617
Si Si8 0.927185 0.217121 0.151433
O O1 0.172643 0.250000 0.750000
O O2 0.227886 0.280045 0.844771
O O3 0.141816 0.392273 0.840430
O O4 0.153758 0.128661 0.852702
O O5 0.714826 0.250000 0.750000
O O6 0.689552 0.380405 0.654303
O O7 0.702188 0.108336 0.645607
O O8 0.500000 0.250000 0.484390
O O9 0.588533 0.328122 0.482651
O O10 0.549450 0.219365 0.584623
O O11 0.569181 0.073830 0.486019
O O12 0.034733 0.828630 0.797087
O O13 0.357521 0.548689 0.437927
O O14 0.403359 0.632301 0.337305
O O15 0.352541 0.971936 0.448375
O O16 0.887644 0.397335 0.341915
#
# Coordination Sequence:
#
# PCOD8281805 Si02
#       8
#    16  16  16   4  16  16  16  16
#     4  11  22  35  57  84 116 144 182 228 281 335
#     4  10  21  38  59  83 108 147 194 229 260 333
#     4  10  18  36  54  81 103 141 185 232 274 322
#     4  12  20  36  60  86 108 144 204 234 258 320
#     4  10  21  38  57  82 113 149 182 227 285 325
#     4  10  21  36  57  78 110 144 186 226 277 337
#     4  10  21  38  57  82 113 149 182 227 285 325
#     4   9  22  34  59  82 110 145 190 229 269 325
#
# _framework density 19.204951999999999
#
# number of rings (size 3 to 8) (size 9 to 14) (size 15 to 20)
#    0.000    1.931    0.690    3.724    5.793    2.207 
#    0.000    4.138    0.000    0.828    0.000    0.000 
#    0.000    0.000    0.000    0.000    0.000    0.000 
#
# Total GULP energy -719016.742515 kJ/mol
# GULP energy per Si atom -12396.840388 kJ/mol
# Density = 1.916124 g / cm^3
# Si number density = 19.204952 Si / 1000 Ang^3
#
#
#
# Elastic Constant Matrix: (Units=GPa)
#
#
# Indices 1 2 3 4 5 6 
#
# 1 77.1722 22.9842 36.2968 0.0000 0.0000 0.0000
# 2 22.9842 118.0284 20.3948 0.0000 0.0000 0.0000
# 3 36.2968 20.3948 71.4206 0.0000 0.0000 0.0000
# 4 0.0000 0.0000 0.0000 24.0209 0.0000 0.0000
# 5 0.0000 0.0000 0.0000 0.0000 24.2330 0.0000
# 6 0.0000 0.0000 0.0000 0.0000 0.0000 44.6584
#
#
#
# Elastic Compliance Matrix: (Units=1/GPa)
#
#
# Indices 1 2 3 4 5 6 
#
# 1 0.017450 -0.001963 -0.008308 0.000000 0.000000 0.000000
# 2 -0.001963 0.009133 -0.001611 0.000000 0.000000 0.000000
# 3 -0.008308 -0.001611 0.018684 0.000000 0.000000 0.000000
# 4 0.000000 0.000000 0.000000 0.041630 0.000000 0.000000
# 5 0.000000 0.000000 0.000000 0.000000 0.041266 0.000000
# 6 0.000000 0.000000 0.000000 0.000000 0.000000 0.022392
#
#
# Mechanical properties :
#
#
# Convention : Reuss Voigt Hill
#
# Bulk Modulus (GPa) = 46.50171 47.33030 46.91601
# Shear Modulus (GPa) = 27.55038 31.04549 29.29794
#
# Velocity S-wave (km/s) = 3.79165 4.02498 3.91005
# Velocity P-wave (km/s) = 6.59051 6.80433 6.69827
#
# Compressibility (1/GPa) = 0.02150458
#
# Stress axis : x y z
#
# Youngs Moduli (GPa) = 57.30645 109.49279 53.52265
#
# Poissons Ratio (x) = 0.21489 0.44466
# Poissons Ratio (y) = 0.11247 0.08620
# Poissons Ratio (z) = 0.47610 0.17635
#
# Static dielectric constant tensor:
#      x y z
#    x 3.574630 0.000000 0.000000 
#    y 0.000000 3.579380 0.000000 
#    z 0.000000 0.000000 3.706140 
# 
# 
# High freq. dielectric constant tensor:
#      x y z
#    x 1.742720 0.000000 0.000000 
#    y 0.000000 1.751220 0.000000 
#    z 0.000000 0.000000 1.741800 
# 
# From -- ./inp_files/47581.got.cif
#   From: 2010.03.12/outbox.cif.g09.slc.cpg/sg68_24_cif.got.tgz:47581.got - 2010.04.10 23:14:56.
