data_PCOD8281190
_publ_section_title
;
Structure prediction by ZEFSAII (Michael W. Deem and Ramdas Pophale) SiO2 
 PCOD8281190
Probable space group: C M M A
;
_chemical_formula_sum "Si O2"
_cell_formula_units_Z 96
_cell_length_a 17.382068
_cell_length_b 24.978839
_cell_length_c 10.484328
_cell_angle_alpha 90.000000
_cell_angle_beta 90.000000
_cell_angle_gamma 90.000000
_cell_volume 4552.126190
_symmetry_space_group_name_H-M "C M M A"
_symmetry_group_IT_number 67
_symmetry_cell_setting 'orthorhombic'
loop_
_space_group_symop_operation_xyz
x,y,z
-x,1/2-y,z
x,-y,-z
-x,1/2+y,-z
-x,-y,-z
x,1/2+y,-z
-x,y,z
x,1/2-y,z
1/2+x,1/2+y,z
1/2-x,-y,z
1/2+x,1/2-y,-z
1/2-x,y,-z
1/2-x,1/2-y,-z
1/2+x,y,-z
1/2-x,1/2+y,z
1/2+x,-y,z
loop_
_atom_site_type_symbol
_atom_site_label
_atom_site_fract_x
_atom_site_fract_y
_atom_site_fract_z
Si Si1 0.301025 0.096444 0.624929
Si Si2 0.083464 0.939236 0.963479
Si Si3 0.413583 0.310452 0.610691
Si Si4 0.586098 0.809303 0.690732
Si Si5 0.162634 0.088614 0.794524
Si Si6 0.588073 0.982858 0.302828
O O1 0.250000 0.108309 0.500000
O O2 0.350424 0.148638 0.664958
O O3 0.249670 0.079558 0.748042
O O4 0.356972 0.045423 0.591554
O O5 0.103552 0.940976 0.814064
O O6 0.000000 0.910411 0.986594
O O7 0.150875 0.913731 0.051647
O O8 0.072100 0.000000 0.000000
O O9 0.500000 0.324712 0.659951
O O10 0.392078 0.250000 0.653550
O O11 0.412445 0.315408 0.459752
O O12 0.500000 0.818784 0.742034
O O13 0.614714 0.750000 0.730016
O O14 0.642107 0.851991 0.751918
O O15 0.108733 0.043973 0.728343
O O16 0.500000 0.981653 0.349247
#
# Coordination Sequence:
#
# PCOD8281190 Si02
#       6
#    16  16  16  16  16  16
#     4  12  24  37  51  84 123 150 184 231 295 349
#     4   8  16  34  59  82 101 138 197 242 275 329
#     4   9  19  38  60  79 107 155 207 238 269 335
#     4   9  17  31  53  82 112 145 190 235 279 338
#     4  11  20  34  57  84 117 148 185 241 299 342
#     4  10  22  40  59  77 109 156 201 238 280 347
#
# _framework density 21.089044999999999
#
# number of rings (size 3 to 8) (size 9 to 14) (size 15 to 20)
#    0.000    2.167    1.667    4.500    0.000    3.000 
#    0.000    3.333    0.000    1.000    0.000    7.000 
#    0.000    0.000    0.000    0.000    0.000    0.000 
#
# Total GULP energy -594782.641343 kJ/mol
# GULP energy per Si atom -12391.305028 kJ/mol
# Density = 2.104105 g / cm^3
# Si number density = 21.089045 Si / 1000 Ang^3
#
#
#
# Elastic Constant Matrix: (Units=GPa)
#
#
# Indices 1 2 3 4 5 6 
#
# 1 122.1177 50.6038 17.0303 0.0000 0.0000 0.0000
# 2 50.6038 106.7776 9.0072 0.0000 0.0000 0.0000
# 3 17.0303 9.0072 35.2883 0.0000 0.0000 0.0000
# 4 0.0000 0.0000 0.0000 23.9852 0.0000 0.0000
# 5 0.0000 0.0000 0.0000 0.0000 27.4881 0.0000
# 6 0.0000 0.0000 0.0000 0.0000 0.0000 40.8664
#
#
#
# Elastic Compliance Matrix: (Units=1/GPa)
#
#
# Indices 1 2 3 4 5 6 
#
# 1 0.010704 -0.004739 -0.003956 0.000000 0.000000 0.000000
# 2 -0.004739 0.011670 -0.000691 0.000000 0.000000 0.000000
# 3 -0.003956 -0.000691 0.030424 0.000000 0.000000 0.000000
# 4 0.000000 0.000000 0.000000 0.041692 0.000000 0.000000
# 5 0.000000 0.000000 0.000000 0.000000 0.036379 0.000000
# 6 0.000000 0.000000 0.000000 0.000000 0.000000 0.024470
#
#
# Mechanical properties :
#
#
# Convention : Reuss Voigt Hill
#
# Bulk Modulus (GPa) = 29.39117 46.38512 37.88815
# Shear Modulus (GPa) = 26.96071 30.97076 28.96573
#
# Velocity S-wave (km/s) = 3.57938 3.83635 3.71009
# Velocity P-wave (km/s) = 5.57222 6.45493 6.02975
#
# Compressibility (1/GPa) = 0.03402382
#
# Stress axis : x y z
#
# Youngs Moduli (GPa) = 93.41905 85.69261 32.86895
#
# Poissons Ratio (x) = 0.40612 0.13004
# Poissons Ratio (y) = 0.44274 0.02273
# Poissons Ratio (z) = 0.36960 0.05925
#
# Static dielectric constant tensor:
#      x y z
#    x 4.083980 0.000000 0.000000 
#    y 0.000000 3.866450 0.000000 
#    z 0.000000 0.000000 4.260860 
# 
# 
# High freq. dielectric constant tensor:
#      x y z
#    x 1.833100 0.000000 0.000000 
#    y 0.000000 1.816730 0.000000 
#    z 0.000000 0.000000 1.792170 
# 
# From -- ./inp_files/19614.got.cif
#   From: 2010.03.12/outbox.cif.g09.slc.cpg/sg67_10_cif.got.tgz:19614.got - 2010.04.10 22:41:39.
