data_PCOD8281569
_publ_section_title
;
Structure prediction by ZEFSAII (Michael W. Deem and Ramdas Pophale) SiO2 
 PCOD8281569
Probable space group: C M M A
;
_chemical_formula_sum "Si O2"
_cell_formula_units_Z 96
_cell_length_a 20.083147
_cell_length_b 9.389488
_cell_length_c 30.405499
_cell_angle_alpha 90.000000
_cell_angle_beta 90.000000
_cell_angle_gamma 90.000000
_cell_volume 5733.579169
_symmetry_space_group_name_H-M "C M M A"
_symmetry_group_IT_number 67
_symmetry_cell_setting 'orthorhombic'
loop_
_space_group_symop_operation_xyz
x,y,z
-x,1/2-y,z
x,-y,-z
-x,1/2+y,-z
-x,-y,-z
x,1/2+y,-z
-x,y,z
x,1/2-y,z
1/2+x,1/2+y,z
1/2-x,-y,z
1/2+x,1/2-y,-z
1/2-x,y,-z
1/2-x,1/2-y,-z
1/2+x,y,-z
1/2-x,1/2+y,z
1/2+x,-y,z
loop_
_atom_site_type_symbol
_atom_site_label
_atom_site_fract_x
_atom_site_fract_y
_atom_site_fract_z
Si Si1 0.579422 0.910764 0.041570
Si Si2 0.184413 0.082988 0.713451
Si Si3 0.926226 0.580705 0.219822
Si Si4 0.424147 0.583965 0.543071
Si Si5 0.315067 0.084541 0.387247
Si Si6 0.579158 0.591268 0.877220
O O1 0.500000 0.909618 0.041791
O O2 0.607169 0.750000 0.038866
O O3 0.607417 0.984131 0.085952
O O4 0.606117 0.000000 0.000000
O O5 0.196584 0.250000 0.720837
O O6 0.124031 0.023901 0.743119
O O7 0.166497 0.048269 0.663003
O O8 0.250000 0.000000 0.728397
O O9 0.930370 0.750000 0.221109
O O10 0.900528 0.534242 0.171294
O O11 0.000000 0.517525 0.229320
O O12 0.400648 0.500000 0.500000
O O13 0.500000 0.544726 0.555721
O O14 0.416716 0.750000 0.532687
O O15 0.377829 0.536943 0.583556
O O16 0.298900 0.250000 0.393244
O O17 0.250000 0.000000 0.402967
O O18 0.500000 0.599003 0.879901
O O19 0.608117 0.750000 0.885744
#
# Coordination Sequence:
#
# PCOD8281569 Si02
#       6
#    16  16  16  16  16  16
#     4   9  15  21  30  46  70 102 137 169 204 248
#     4   9  17  30  47  66  89 116 145 179 219 260
#     4   8  14  25  43  65  85 109 144 181 215 254
#     4   9  18  32  48  67  91 118 148 182 220 260
#     4   9  18  31  47  67  90 116 146 181 219 259
#     4   8  13  22  35  51  73 100 131 169 209 247
#
# _framework density 16.743469000000001
#
# number of rings (size 3 to 8) (size 9 to 14) (size 15 to 20)
#    0.000    3.333    0.000    1.500    0.000    3.667 
#    0.000    5.833    0.000    1.500    0.000    4.667 
#    0.000    0.667    0.000    7.667    0.000    9.333 
#
# Total GULP energy -595019.084012 kJ/mol
# GULP energy per Si atom -12396.230917 kJ/mol
# Density = 1.670536 g / cm^3
# Si number density = 16.743469 Si / 1000 Ang^3
#
#
#
# Elastic Constant Matrix: (Units=GPa)
#
#
# Indices 1 2 3 4 5 6 
#
# 1 78.1474 35.4884 73.7757 0.0000 0.0000 0.0000
# 2 35.4884 63.2427 52.5060 0.0000 0.0000 0.0000
# 3 73.7757 52.5060 135.5440 0.0000 0.0000 0.0000
# 4 0.0000 0.0000 0.0000 24.6491 0.0000 0.0000
# 5 0.0000 0.0000 0.0000 0.0000 6.7426 0.0000
# 6 0.0000 0.0000 0.0000 0.0000 0.0000 18.2504
#
#
#
# Elastic Compliance Matrix: (Units=1/GPa)
#
#
# Indices 1 2 3 4 5 6 
#
# 1 0.027116 -0.004367 -0.013067 0.000000 0.000000 0.000000
# 2 -0.004367 0.024012 -0.006924 0.000000 0.000000 0.000000
# 3 -0.013067 -0.006924 0.017172 0.000000 0.000000 0.000000
# 4 0.000000 0.000000 0.000000 0.040569 0.000000 0.000000
# 5 0.000000 0.000000 0.000000 0.000000 0.148311 0.000000
# 6 0.000000 0.000000 0.000000 0.000000 0.000000 0.054793
#
#
# Mechanical properties :
#
#
# Convention : Reuss Voigt Hill
#
# Bulk Modulus (GPa) = 51.06677 66.71936 58.89306
# Shear Modulus (GPa) = 13.61588 17.60603 15.61095
#
# Velocity S-wave (km/s) = 2.85477 3.24623 3.05677
# Velocity P-wave (km/s) = 6.43677 7.34746 6.90714
#
# Compressibility (1/GPa) = 0.01958221
#
# Stress axis : x y z
#
# Youngs Moduli (GPa) = 36.87896 41.64664 58.23296
#
# Poissons Ratio (x) = 0.18187 0.76094
# Poissons Ratio (y) = 0.16105 0.40323
# Poissons Ratio (z) = 0.48191 0.28838
#
# Static dielectric constant tensor:
#      x y z
#    x 2.942290 0.000000 0.000000 
#    y 0.000000 3.074750 0.000000 
#    z 0.000000 0.000000 3.397670 
# 
# 
# High freq. dielectric constant tensor:
#      x y z
#    x 1.602420 0.000000 0.000000 
#    y 0.000000 1.628940 0.000000 
#    z 0.000000 0.000000 1.655420 
# 
# From -- ./inp_files/43656.got.cif
#   From: 2010.03.12/outbox.cif.g09.slc.cpg/sg67_22_cif.got.tgz:43656.got - 2010.04.10 22:41:39.
