data_PCOD8281086
_publ_section_title
;
Structure prediction by ZEFSAII (Michael W. Deem and Ramdas Pophale) SiO2 
 PCOD8281086
Probable space group: C M M A
;
_chemical_formula_sum "Si O2"
_cell_formula_units_Z 64
_cell_length_a 24.279229
_cell_length_b 13.969896
_cell_length_c 8.525816
_cell_angle_alpha 90.000000
_cell_angle_beta 90.000000
_cell_angle_gamma 90.000000
_cell_volume 2891.771812
_symmetry_space_group_name_H-M "C M M A"
_symmetry_group_IT_number 67
_symmetry_cell_setting 'orthorhombic'
loop_
_space_group_symop_operation_xyz
x,y,z
-x,1/2-y,z
x,-y,-z
-x,1/2+y,-z
-x,-y,-z
x,1/2+y,-z
-x,y,z
x,1/2-y,z
1/2+x,1/2+y,z
1/2-x,-y,z
1/2+x,1/2-y,-z
1/2-x,y,-z
1/2-x,1/2-y,-z
1/2+x,y,-z
1/2-x,1/2+y,z
1/2+x,-y,z
loop_
_atom_site_type_symbol
_atom_site_label
_atom_site_fract_x
_atom_site_fract_y
_atom_site_fract_z
Si Si1 0.438602 0.359273 0.445197
Si Si2 0.893072 0.444110 0.853859
Si Si3 0.166176 0.250000 0.919280
Si Si4 0.165101 0.571153 0.630082
Si Si5 0.225184 0.250000 0.249794
O O1 0.500000 0.372335 0.515440
O O2 0.427491 0.250000 0.395227
O O3 0.434666 0.425089 0.289732
O O4 0.394599 0.389359 0.575593
O O5 0.870890 0.343430 0.913929
O O6 0.843244 0.511873 0.791291
O O7 0.921647 0.500000 0.000000
O O8 0.208962 0.250000 0.773391
O O9 0.196359 0.250000 0.083593
O O10 0.190140 0.500000 0.500000
O O11 0.208270 0.656324 0.652733
#
# Coordination Sequence:
#
# PCOD8281086 Si02
#       5
#    16  16   8  16   8
#     4  10  21  40  66  92 126 170 210 257 323 384
#     4  11  22  40  64  92 129 164 212 266 316 376
#     4  11  24  41  65  92 126 170 212 263 320 379
#     4  10  22  39  65  94 127 167 207 266 318 375
#     4  11  22  43  65  92 130 169 215 260 321 380
#
# _framework density 22.131758999999999
#
# number of rings (size 3 to 8) (size 9 to 14) (size 15 to 20)
#    0.000    1.500    5.000    0.000    0.000    6.000 
#    0.000   13.750    0.000    4.500    0.000    0.000 
#    0.000    0.000    0.000    0.000    0.000    0.000 
#
# Total GULP energy -396774.262237 kJ/mol
# GULP energy per Si atom -12399.195695 kJ/mol
# Density = 2.208139 g / cm^3
# Si number density = 22.131759 Si / 1000 Ang^3
#
#
#
# Elastic Constant Matrix: (Units=GPa)
#
#
# Indices 1 2 3 4 5 6 
#
# 1 68.4097 30.6113 8.3587 0.0000 0.0000 0.0000
# 2 30.6113 155.1130 31.6585 0.0000 0.0000 0.0000
# 3 8.3587 31.6585 75.4790 0.0000 0.0000 0.0000
# 4 0.0000 0.0000 0.0000 44.3487 0.0000 0.0000
# 5 0.0000 0.0000 0.0000 0.0000 21.4490 0.0000
# 6 0.0000 0.0000 0.0000 0.0000 0.0000 -24.5778
#
#
#
# Elastic Compliance Matrix: (Units=1/GPa)
#
#
# Indices 1 2 3 4 5 6 
#
# 1 0.016050 -0.003067 -0.000491 0.000000 0.000000 0.000000
# 2 -0.003067 0.007637 -0.002863 0.000000 0.000000 0.000000
# 3 -0.000491 -0.002863 0.014504 0.000000 0.000000 0.000000
# 4 0.000000 0.000000 0.000000 0.022549 0.000000 0.000000
# 5 0.000000 0.000000 0.000000 0.000000 0.046622 0.000000
# 6 0.000000 0.000000 0.000000 0.000000 0.000000 -0.040687
#
#
# Mechanical properties :
#
#
# Convention : Reuss Voigt Hill
#
# Bulk Modulus (GPa) = 39.45110 48.91762 44.18436
# Shear Modulus (GPa) = 56.83941 23.46887 40.15414
#
# Velocity S-wave (km/s) = 5.07327 3.25994 4.26411
# Velocity P-wave (km/s) = 7.22369 6.02665 6.65215
#
# Compressibility (1/GPa) = 0.02534784
#
# Stress axis : x y z
#
# Youngs Moduli (GPa) = 62.30409 130.94729 68.94604
#
# Poissons Ratio (x) = 0.40166 0.03385
# Poissons Ratio (y) = 0.19111 0.19742
# Poissons Ratio (z) = 0.03059 0.37495
#
# Static dielectric constant tensor:
#      x y z
#    x 3.627010 0.000000 0.000000 
#    y 0.000000 4.382090 0.000000 
#    z 0.000000 0.000000 3.991030 
# 
# 
# High freq. dielectric constant tensor:
#      x y z
#    x 1.838950 0.000000 0.000000 
#    y 0.000000 1.901050 0.000000 
#    z 0.000000 0.000000 1.868880 
# 
# From -- ./inp_files/8022.got.cif
#   From: 2010.03.12/outbox.cif.g09.slc.cpg/sg67_5_cif.got.tgz:8022.got - 2010.04.10 22:41:39.
