data_PCOD8281100
_publ_section_title
;
Structure prediction by ZEFSAII (Michael W. Deem and Ramdas Pophale) SiO2 
 PCOD8281100
Probable space group: C M M A
;
_chemical_formula_sum "Si O2"
_cell_formula_units_Z 88
_cell_length_a 11.144699
_cell_length_b 14.462868
_cell_length_c 25.958695
_cell_angle_alpha 90.000000
_cell_angle_beta 90.000000
_cell_angle_gamma 90.000000
_cell_volume 4184.134356
_symmetry_space_group_name_H-M "C M M A"
_symmetry_group_IT_number 67
_symmetry_cell_setting 'orthorhombic'
loop_
_space_group_symop_operation_xyz
x,y,z
-x,1/2-y,z
x,-y,-z
-x,1/2+y,-z
-x,-y,-z
x,1/2+y,-z
-x,y,z
x,1/2-y,z
1/2+x,1/2+y,z
1/2-x,-y,z
1/2+x,1/2-y,-z
1/2-x,y,-z
1/2-x,1/2-y,-z
1/2+x,y,-z
1/2-x,1/2+y,z
1/2+x,-y,z
loop_
_atom_site_type_symbol
_atom_site_label
_atom_site_fract_x
_atom_site_fract_y
_atom_site_fract_z
Si Si1 0.640567 0.250000 0.699108
Si Si2 0.640471 0.750000 0.183029
Si Si3 0.500000 0.146267 0.180970
Si Si4 0.217271 0.102599 0.878116
Si Si5 0.216170 0.398060 0.639514
Si Si6 0.000000 0.647077 0.300301
Si Si7 0.141446 0.250000 0.958753
Si Si8 0.365244 0.353887 0.470899
O O1 0.500000 0.250000 0.703643
O O2 0.695004 0.250000 0.758062
O O3 0.677994 0.160078 0.666241
O O4 0.500000 0.750000 0.187655
O O5 0.677445 0.659319 0.150414
O O6 0.500000 0.250000 0.155447
O O7 0.384692 0.088971 0.164454
O O8 0.500000 0.157191 0.240569
O O9 0.161984 0.157085 0.926287
O O10 0.250000 0.000000 0.897283
O O11 0.250000 0.500000 0.621801
O O12 0.162725 0.348661 0.589509
O O13 0.115313 0.409375 0.682606
O O14 0.000000 0.750000 0.325272
O O15 0.000000 0.250000 0.979376
O O16 0.250000 0.250000 0.000000
O O17 0.500000 0.399479 0.480452
O O18 0.373910 0.250000 0.492499
O O19 0.250000 0.402824 0.500000
#
# Coordination Sequence:
#
# PCOD8281100 Si02
#       8
#     8   8   8  16  16   8   8  16
#     4  11  25  42  59  91 138 174 210 270 330 387
#     4  10  23  40  60  93 136 176 220 271 328 391
#     4  11  20  40  68  94 130 177 228 276 323 389
#     4  11  23  42  68  98 134 178 226 276 331 396
#     4  12  25  42  64  94 128 169 217 268 327 402
#     4  11  22  40  70  92 125 180 227 268 322 387
#     4  11  24  48  73 102 140 182 232 287 342 402
#     4  10  21  42  69  94 121 162 214 272 332 403
#
# _framework density 21.031828000000001
#
# number of rings (size 3 to 8) (size 9 to 14) (size 15 to 20)
#    0.000    1.091    5.455    1.091    2.545    5.818 
#    0.000    1.818    0.000    0.000    0.000    0.000 
#    0.000    0.000    0.000    0.000    0.000    0.000 
#
# Total GULP energy -545164.852716 kJ/mol
# GULP energy per Si atom -12390.110289 kJ/mol
# Density = 2.098396 g / cm^3
# Si number density = 21.031828 Si / 1000 Ang^3
#
#
#
# Elastic Constant Matrix: (Units=GPa)
#
#
# Indices 1 2 3 4 5 6 
#
# 1 150.4885 29.7522 51.4322 0.0000 0.0000 0.0000
# 2 29.7522 107.8909 24.8700 0.0000 0.0000 0.0000
# 3 51.4322 24.8700 87.2530 0.0000 0.0000 0.0000
# 4 0.0000 0.0000 0.0000 12.4101 0.0000 0.0000
# 5 0.0000 0.0000 0.0000 0.0000 41.4219 0.0000
# 6 0.0000 0.0000 0.0000 0.0000 0.0000 35.2324
#
#
#
# Elastic Compliance Matrix: (Units=1/GPa)
#
#
# Indices 1 2 3 4 5 6 
#
# 1 0.008481 -0.001270 -0.004637 0.000000 0.000000 0.000000
# 2 -0.001270 0.010111 -0.002133 0.000000 0.000000 0.000000
# 3 -0.004637 -0.002133 0.014802 0.000000 0.000000 0.000000
# 4 0.000000 0.000000 0.000000 0.080580 0.000000 0.000000
# 5 0.000000 0.000000 0.000000 0.000000 0.024142 0.000000
# 6 0.000000 0.000000 0.000000 0.000000 0.000000 0.028383
#
#
# Mechanical properties :
#
#
# Convention : Reuss Voigt Hill
#
# Bulk Modulus (GPa) = 57.75943 61.97123 59.86533
# Shear Modulus (GPa) = 26.54631 33.78476 30.16554
#
# Velocity S-wave (km/s) = 3.55660 4.01229 3.79130
# Velocity P-wave (km/s) = 6.66246 7.14101 6.90588
#
# Compressibility (1/GPa) = 0.01731319
#
# Stress axis : x y z
#
# Youngs Moduli (GPa) = 117.91167 98.90665 67.55637
#
# Poissons Ratio (x) = 0.12559 0.31327
# Poissons Ratio (y) = 0.14972 0.14412
# Poissons Ratio (z) = 0.54678 0.21100
#
# Static dielectric constant tensor:
#      x y z
#    x 4.038160 0.000000 0.000000 
#    y 0.000000 1.922430 0.000000 
#    z 0.000000 0.000000 3.768820 
# 
# 
# High freq. dielectric constant tensor:
#      x y z
#    x 1.839780 0.000000 0.000000 
#    y 0.000000 1.805920 0.000000 
#    z 0.000000 0.000000 1.821130 
# 
# From -- ./inp_files/41443.got.cif
#   From: 2010.03.12/outbox.cif.g09.slc.cpg/sg67_21_cif.got.tgz:41443.got - 2010.04.10 22:41:39.
