data_PCOD8281608
_publ_section_title
;
Structure prediction by ZEFSAII (Michael W. Deem and Ramdas Pophale) SiO2 
 PCOD8281608
Probable space group: C M M A
;
_chemical_formula_sum "Si O2"
_cell_formula_units_Z 52
_cell_length_a 27.000000
_cell_length_b 18.000000
_cell_length_c 12.000000
_cell_angle_alpha 90.000000
_cell_angle_beta 90.000000
_cell_angle_gamma 90.000000
_cell_volume 5832.000000
_symmetry_space_group_name_H-M "C M M A"
_symmetry_group_IT_number 67
_symmetry_cell_setting 'orthorhombic'
loop_
_space_group_symop_operation_xyz
x,y,z
-x,1/2-y,z
x,-y,-z
-x,1/2+y,-z
-x,-y,-z
x,1/2+y,-z
-x,y,z
x,1/2-y,z
1/2+x,1/2+y,z
1/2-x,-y,z
1/2+x,1/2-y,-z
1/2-x,y,-z
1/2-x,1/2-y,-z
1/2+x,y,-z
1/2-x,1/2+y,z
1/2+x,-y,z
loop_
_atom_site_type_symbol
_atom_site_label
_atom_site_fract_x
_atom_site_fract_y
_atom_site_fract_z
Si Si1 0.901671 0.161529 0.016818
Si Si2 0.500000 0.455355 0.301625
Si Si3 0.000000 0.417292 0.950505
Si Si4 0.825985 0.448536 0.899465
Si Si5 0.000000 0.340831 0.506990
Si Si6 0.248140 0.835278 0.865901
Si Si7 0.919382 0.442968 0.404312
Si Si8 0.646869 0.594496 0.214575
O O1 0.894386 0.250000 0.995956
O O2 0.894133 0.140425 0.145877
O O3 0.955319 0.134140 0.986616
O O4 0.863038 0.113861 0.945041
O O5 0.500000 0.424913 0.179553
O O6 0.500000 0.379270 0.372332
O O7 0.547715 0.506782 0.321857
O O8 0.000000 0.500000 0.000000
O O9 0.786253 0.400038 0.829259
O O10 0.851610 0.507198 0.817729
O O11 0.803572 0.500000 0.000000
O O12 0.049199 0.372035 0.446556
O O13 0.000000 0.250000 0.512392
O O14 0.260386 0.750000 0.827941
O O15 0.197414 0.860354 0.807393
O O16 0.250000 0.838132 0.000000
O O17 0.901473 0.500000 0.500000
O O18 0.871381 0.407773 0.342568
#
# Coordination Sequence:
#
# PCOD8281608 Si02
#       8
#    16   8   8  16   8  16  16  16
#     4  11  22  33  46  74 112 145 173 214 264 322
#     4   9  18  37  55  74 103 146 189 228 264 312
#     4  12  22  35  52  75 111 152 185 208 255 328
#     4  10  19  32  52  73 102 143 186 218 254 319
#     4   9  19  34  58  81 104 140 189 242 284 326
#     4  11  20  32  51  78 112 144 177 222 269 324
#     4   9  19  37  57  78 105 136 186 242 281 313
#     4  11  21  33  54  79 104 143 183 223 275 327
#
# _framework density 8.9163239999999995
#
# number of rings (size 3 to 8) (size 9 to 14) (size 15 to 20)
#    0.000    1.692    3.077    5.769    0.000    2.462 
#    0.000    0.000    0.000    2.769    0.000    1.077 
#    0.000    0.000    0.000    0.000    0.000    0.000 
#
# Total GULP energy -644184.062408 kJ/mol
# GULP energy per Si atom -12388.155046 kJ/mol
# Density = 0.889603 g / cm^3
# Si number density = 8.916324 Si / 1000 Ang^3
#
#
#
# Elastic Constant Matrix: (Units=GPa)
#
#
# Indices 1 2 3 4 5 6 
#
# 1 98.9059 55.2859 52.2491 0.0000 0.0000 0.0000
# 2 55.2859 189.8587 37.0316 0.0000 0.0000 0.0000
# 3 52.2491 37.0316 69.8717 0.0000 0.0000 0.0000
# 4 0.0000 0.0000 0.0000 16.9439 0.0000 0.0000
# 5 0.0000 0.0000 0.0000 0.0000 29.8244 0.0000
# 6 0.0000 0.0000 0.0000 0.0000 0.0000 35.7468
#
#
#
# Elastic Compliance Matrix: (Units=1/GPa)
#
#
# Indices 1 2 3 4 5 6 
#
# 1 0.018063 -0.002928 -0.011955 0.000000 0.000000 0.000000
# 2 -0.002928 0.006349 -0.001175 0.000000 0.000000 0.000000
# 3 -0.011955 -0.001175 0.023875 0.000000 0.000000 0.000000
# 4 0.000000 0.000000 0.000000 0.059018 0.000000 0.000000
# 5 0.000000 0.000000 0.000000 0.000000 0.033530 0.000000
# 6 0.000000 0.000000 0.000000 0.000000 0.000000 0.027975
#
#
# Mechanical properties :
#
#
# Convention : Reuss Voigt Hill
#
# Bulk Modulus (GPa) = 61.84559 71.97440 66.90999
# Shear Modulus (GPa) = 24.23455 30.77433 27.50444
#
# Velocity S-wave (km/s) = 3.69046 4.15870 3.93156
# Velocity P-wave (km/s) = 7.27432 7.96921 7.62968
#
# Compressibility (1/GPa) = 0.01616930
#
# Stress axis : x y z
#
# Youngs Moduli (GPa) = 55.36182 157.50657 41.88476
#
# Poissons Ratio (x) = 0.46117 0.50075
# Poissons Ratio (y) = 0.16210 0.04923
# Poissons Ratio (z) = 0.66188 0.18514
#
# Static dielectric constant tensor:
#      x y z
#    x 3.481370 0.000000 0.000000 
#    y 0.000000 3.838520 0.000000 
#    z 0.000000 0.000000 3.024580 
# 
# 
# High freq. dielectric constant tensor:
#      x y z
#    x 1.688280 0.000000 0.000000 
#    y 0.000000 1.722450 0.000000 
#    z 0.000000 0.000000 1.651020 
# 
# From -- ./inp_files/23021.got.cif
#   From: 2010.03.12/outbox.ucp.g09.slc.cvg/sg67_12_cif.got.tgz:23021.got - 2010.05.04 19:50:31.
