data_PCOD8281650
_publ_section_title
;
Structure prediction by ZEFSAII (Michael W. Deem and Ramdas Pophale) SiO2 
 PCOD8281650
Probable space group: C C C A
;
_chemical_formula_sum "Si O2"
_cell_formula_units_Z 88
_cell_length_a 12.765310
_cell_length_b 19.315500
_cell_length_c 18.158633
_cell_angle_alpha 90.000000
_cell_angle_beta 90.000000
_cell_angle_gamma 90.000000
_cell_volume 4477.344092
_symmetry_space_group_name_H-M "C C C A"
_symmetry_group_IT_number 68
_space_group.IT_coordinate_system_code '2'
_symmetry_cell_setting 'orthorhombic'
loop_
_space_group_symop_operation_xyz
x,y,z
-x,1/2-y,z
x,1/2-y,1/2-z
-x,y,1/2-z
-x,-y,-z
x,1/2+y,-z
-x,1/2+y,1/2+z
x,-y,1/2+z
1/2+x,1/2+y,z
1/2-x,-y,z
1/2+x,-y,1/2-z
1/2-x,1/2+y,1/2-z
1/2-x,1/2-y,-z
1/2+x,y,-z
1/2-x,y,1/2+z
1/2+x,1/2-y,1/2+z
loop_
_atom_site_type_symbol
_atom_site_label
_atom_site_fract_x
_atom_site_fract_y
_atom_site_fract_z
Si Si1 0.500000 0.985357 0.750000
Si Si2 0.741383 0.920411 0.016425
Si Si3 0.833997 0.125901 0.752233
Si Si4 0.357917 0.683102 0.906019
Si Si5 0.402473 0.834554 0.905010
Si Si6 0.664128 0.559455 0.335880
O O1 0.598545 0.940938 0.780436
O O2 0.548232 0.033912 0.685859
O O3 0.853082 0.898474 0.051016
O O4 0.655872 0.907347 0.082260
O O5 0.750000 0.000000 0.988641
O O6 0.716402 0.869824 0.949031
O O7 0.828873 0.178928 0.819540
O O8 0.896526 0.156964 0.683184
O O9 0.714344 0.108881 0.727106
O O10 0.342870 0.763500 0.928217
O O11 0.476520 0.664170 0.924881
O O12 0.750000 0.500000 0.348079
#
# Coordination Sequence:
#
# PCOD8281650 Si02
#       6
#     8  16  16  16  16  16
#     4  10  16  32  55  78 115 144 178 224 278 334
#     4  10  22  38  54  80 117 149 178 225 280 331
#     4  10  18  33  56  84 104 138 189 235 270 319
#     4  11  21  35  59  86 107 144 188 228 275 332
#     4  10  21  39  57  79 114 147 181 227 283 321
#     4   8  18  33  51  76 114 148 174 221 285 324
#
# _framework density 19.654509000000001
#
# number of rings (size 3 to 8) (size 9 to 14) (size 15 to 20)
#    0.000    2.182    1.818    2.182    0.000    4.364 
#    3.273    0.000    0.000    0.000    0.000    0.000 
#    0.000    0.000    0.000    0.000    0.000    0.000 
#
# Total GULP energy -545291.999189 kJ/mol
# GULP energy per Si atom -12392.999982 kJ/mol
# Density = 1.960977 g / cm^3
# Si number density = 19.654509 Si / 1000 Ang^3
#
#
#
# Elastic Constant Matrix: (Units=GPa)
#
#
# Indices 1 2 3 4 5 6 
#
# 1 46.0292 16.8499 18.9614 0.0000 0.0000 0.0000
# 2 16.8499 77.4303 14.2108 0.0000 0.0000 0.0000
# 3 18.9614 14.2108 60.0674 0.0000 0.0000 0.0000
# 4 0.0000 0.0000 0.0000 24.1302 0.0000 0.0000
# 5 0.0000 0.0000 0.0000 0.0000 16.3831 0.0000
# 6 0.0000 0.0000 0.0000 0.0000 0.0000 28.7740
#
#
#
# Elastic Compliance Matrix: (Units=1/GPa)
#
#
# Indices 1 2 3 4 5 6 
#
# 1 0.026330 -0.004395 -0.007272 0.000000 0.000000 0.000000
# 2 -0.004395 0.014235 -0.001980 0.000000 0.000000 0.000000
# 3 -0.007272 -0.001980 0.019412 0.000000 0.000000 0.000000
# 4 0.000000 0.000000 0.000000 0.041442 0.000000 0.000000
# 5 0.000000 0.000000 0.000000 0.000000 0.061038 0.000000
# 6 0.000000 0.000000 0.000000 0.000000 0.000000 0.034754
#
#
# Mechanical properties :
#
#
# Convention : Reuss Voigt Hill
#
# Bulk Modulus (GPa) = 30.59767 31.50791 31.05279
# Shear Modulus (GPa) = 21.24058 22.75780 21.99919
#
# Velocity S-wave (km/s) = 3.29096 3.40647 3.34922
# Velocity P-wave (km/s) = 5.48107 5.61585 5.54887
#
# Compressibility (1/GPa) = 0.03268223
#
# Stress axis : x y z
#
# Youngs Moduli (GPa) = 37.97983 70.25081 51.51475
#
# Poissons Ratio (x) = 0.30876 0.37460
# Poissons Ratio (y) = 0.16693 0.10201
# Poissons Ratio (z) = 0.27618 0.13912
#
# Static dielectric constant tensor:
#      x y z
#    x 3.298100 0.000000 0.000000 
#    y 0.000000 3.701330 0.000000 
#    z 0.000000 0.000000 3.559640 
# 
# 
# High freq. dielectric constant tensor:
#      x y z
#    x 1.738640 0.000000 0.000000 
#    y 0.000000 1.761820 0.000000 
#    z 0.000000 0.000000 1.756120 
# 
# From -- ./inp_files/29641.got.cif
#   From: 2010.03.12/outbox.cif.g09.slc.cpg/sg68_15_cif.got.tgz:29641.got - 2010.04.10 23:14:56.
