data_PCOD8281271
_publ_section_title
;
Structure prediction by ZEFSAII (Michael W. Deem and Ramdas Pophale) SiO2 
 PCOD8281271
Probable space group: C M M A
;
_chemical_formula_sum "Si O2"
_cell_formula_units_Z 72
_cell_length_a 15.578117
_cell_length_b 27.740662
_cell_length_c 8.287218
_cell_angle_alpha 90.000000
_cell_angle_beta 90.000000
_cell_angle_gamma 90.000000
_cell_volume 3581.298703
_symmetry_space_group_name_H-M "C M M A"
_symmetry_group_IT_number 67
_symmetry_cell_setting 'orthorhombic'
loop_
_space_group_symop_operation_xyz
x,y,z
-x,1/2-y,z
x,-y,-z
-x,1/2+y,-z
-x,-y,-z
x,1/2+y,-z
-x,y,z
x,1/2-y,z
1/2+x,1/2+y,z
1/2-x,-y,z
1/2+x,1/2-y,-z
1/2-x,y,-z
1/2-x,1/2-y,-z
1/2+x,y,-z
1/2-x,1/2+y,z
1/2+x,-y,z
loop_
_atom_site_type_symbol
_atom_site_label
_atom_site_fract_x
_atom_site_fract_y
_atom_site_fract_z
Si Si1 0.334030 0.693704 0.096868
Si Si2 0.000000 0.487395 0.814170
Si Si3 0.000000 0.384870 0.627571
Si Si4 0.500000 0.194592 0.111147
Si Si5 0.833015 0.629938 0.593784
Si Si6 0.170556 0.524193 0.673785
O O1 0.324357 0.750000 0.134626
O O2 0.351935 0.668107 0.266587
O O3 0.250000 0.674822 0.000000
O O4 0.415906 0.681822 0.989227
O O5 0.000000 0.432066 0.746700
O O6 0.918776 0.516494 0.756565
O O7 0.000000 0.500000 0.000000
O O8 0.000000 0.336595 0.729415
O O9 0.915196 0.382072 0.517813
O O10 0.500000 0.250000 0.166103
O O11 0.750000 0.650557 0.500000
O O12 0.805576 0.580038 0.673532
O O13 0.164946 0.500000 0.500000
O O14 0.250000 0.500000 0.770798
#
# Coordination Sequence:
#
# PCOD8281271 Si02
#       6
#    16   8   8   8  16  16
#     4  10  23  43  65  91 126 164 204 259 324 382
#     4  12  26  39  60  92 127 163 207 261 304 369
#     4  12  24  39  63  95 124 162 215 260 308 368
#     4  10  23  43  62  86 125 162 198 254 316 373
#     4  12  23  39  66  92 120 165 208 256 309 375
#     4  11  21  43  62  84 125 164 200 249 312 368
#
# _framework density 20.104438999999999
#
# number of rings (size 3 to 8) (size 9 to 14) (size 15 to 20)
#    0.000    0.889    4.444    3.000    3.111    1.778 
#    0.000    0.000    0.000    0.000    0.000    0.000 
#    0.000    0.000    0.000    0.000    0.000    0.000 
#
# Total GULP energy -446229.155768 kJ/mol
# GULP energy per Si atom -12395.254327 kJ/mol
# Density = 2.005868 g / cm^3
# Si number density = 20.104439 Si / 1000 Ang^3
#
#
#
# Elastic Constant Matrix: (Units=GPa)
#
#
# Indices 1 2 3 4 5 6 
#
# 1 151.6689 23.8312 45.0031 0.0000 0.0000 0.0000
# 2 23.8312 82.6757 50.6646 0.0000 0.0000 0.0000
# 3 45.0031 50.6646 95.3908 0.0000 0.0000 0.0000
# 4 0.0000 0.0000 0.0000 33.5809 0.0000 0.0000
# 5 0.0000 0.0000 0.0000 0.0000 32.7006 0.0000
# 6 0.0000 0.0000 0.0000 0.0000 0.0000 102.7939
#
#
#
# Elastic Compliance Matrix: (Units=1/GPa)
#
#
# Indices 1 2 3 4 5 6 
#
# 1 0.007667 0.000010 -0.003622 0.000000 0.000000 0.000000
# 2 0.000010 0.017932 -0.009529 0.000000 0.000000 0.000000
# 3 -0.003622 -0.009529 0.017253 0.000000 0.000000 0.000000
# 4 0.000000 0.000000 0.000000 0.029779 0.000000 0.000000
# 5 0.000000 0.000000 0.000000 0.000000 0.030580 0.000000
# 6 0.000000 0.000000 0.000000 0.000000 0.000000 0.009728
#
#
# Mechanical properties :
#
#
# Convention : Reuss Voigt Hill
#
# Bulk Modulus (GPa) = 60.35237 63.19256 61.77247
# Shear Modulus (GPa) = 34.54373 47.83085 41.18729
#
# Velocity S-wave (km/s) = 4.14963 4.88291 4.53113
# Velocity P-wave (km/s) = 7.28312 7.95555 7.62675
#
# Compressibility (1/GPa) = 0.01656936
#
# Stress axis : x y z
#
# Youngs Moduli (GPa) = 130.43741 55.76637 57.96110
#
# Poissons Ratio (x) = -0.00055 0.20994
# Poissons Ratio (y) = -0.00128 0.55230
# Poissons Ratio (z) = 0.47245 0.53138
#
# Static dielectric constant tensor:
#      x y z
#    x 3.756350 0.000000 0.000000 
#    y 0.000000 3.883050 0.000000 
#    z 0.000000 0.000000 4.561260 
# 
# 
# High freq. dielectric constant tensor:
#      x y z
#    x 1.816350 0.000000 0.000000 
#    y 0.000000 1.790040 0.000000 
#    z 0.000000 0.000000 1.773840 
# 
# From -- ./inp_files/8338.got.cif
#   From: 2010.03.12/outbox.cif.g09.slc.cpg/sg67_5_cif.got.tgz:8338.got - 2010.04.10 22:41:39.
