data_PCOD8281883
_publ_section_title
;
Structure prediction by ZEFSAII (Michael W. Deem and Ramdas Pophale) SiO2 
 PCOD8281883
Probable space group: C C C A
;
_chemical_formula_sum "Si O2"
_cell_formula_units_Z 72
_cell_length_a 21.390535
_cell_length_b 19.531244
_cell_length_c 8.816313
_cell_angle_alpha 90.000000
_cell_angle_beta 90.000000
_cell_angle_gamma 90.000000
_cell_volume 3683.312380
_symmetry_space_group_name_H-M "C C C A"
_symmetry_group_IT_number 68
_space_group.IT_coordinate_system_code '2'
_symmetry_cell_setting 'orthorhombic'
loop_
_space_group_symop_operation_xyz
x,y,z
-x,1/2-y,z
x,1/2-y,1/2-z
-x,y,1/2-z
-x,-y,-z
x,1/2+y,-z
-x,1/2+y,1/2+z
x,-y,1/2+z
1/2+x,1/2+y,z
1/2-x,-y,z
1/2+x,-y,1/2-z
1/2-x,1/2+y,1/2-z
1/2-x,1/2-y,-z
1/2+x,y,-z
1/2-x,y,1/2+z
1/2+x,1/2-y,1/2+z
loop_
_atom_site_type_symbol
_atom_site_label
_atom_site_fract_x
_atom_site_fract_y
_atom_site_fract_z
Si Si1 0.828906 0.678417 0.994302
Si Si2 0.931748 0.729903 0.425334
Si Si3 0.083759 0.443331 0.913369
Si Si4 0.940977 0.576595 0.434268
Si Si5 0.249563 0.250000 0.250000
O O1 0.886920 0.727939 0.967678
O O2 0.858690 0.602370 0.020383
O O3 0.790709 0.702338 0.141457
O O4 0.788424 0.691182 0.842770
O O5 0.921785 0.750000 0.250000
O O6 0.914455 0.651871 0.460438
O O7 0.000000 0.750000 0.478123
O O8 0.078276 0.443098 0.734373
O O9 0.015195 0.420201 0.972939
O O10 0.094870 0.522271 0.960122
#
# Coordination Sequence:
#
# PCOD8281883 Si02
#       5
#    16  16  16  16   8
#     4  11  20  40  59  85 115 159 202 256 285 359
#     4  11  17  32  63  90 115 148 199 241 306 366
#     4  10  19  34  56  83 125 151 187 236 310 356
#     4  10  19  32  56  93 117 155 180 239 309 385
#     4  10  24  36  62  84 114 166 222 240 286 330
#
# _framework density 19.547622
#
# number of rings (size 3 to 8) (size 9 to 14) (size 15 to 20)
#    0.000    1.556    5.556    1.333    0.000    1.778 
#    0.000    0.556    0.000   22.667    0.000    0.000 
#    0.000    0.000    0.000    0.000    0.000    0.000 
#
# Total GULP energy -445991.947900 kJ/mol
# GULP energy per Si atom -12388.665219 kJ/mol
# Density = 1.950313 g / cm^3
# Si number density = 19.547622 Si / 1000 Ang^3
#
#
#
# Elastic Constant Matrix: (Units=GPa)
#
#
# Indices 1 2 3 4 5 6 
#
# 1 89.6628 38.5829 35.5876 0.0000 0.0000 0.0000
# 2 38.5829 160.6918 34.1191 0.0000 0.0000 0.0000
# 3 35.5876 34.1191 54.1754 0.0000 0.0000 0.0000
# 4 0.0000 0.0000 0.0000 31.4818 0.0000 0.0000
# 5 0.0000 0.0000 0.0000 0.0000 2.2469 0.0000
# 6 0.0000 0.0000 0.0000 0.0000 0.0000 37.4300
#
#
#
# Elastic Compliance Matrix: (Units=1/GPa)
#
#
# Indices 1 2 3 4 5 6 
#
# 1 0.015526 -0.001804 -0.009063 0.000000 0.000000 0.000000
# 2 -0.001804 0.007393 -0.003471 0.000000 0.000000 0.000000
# 3 -0.009063 -0.003471 0.026598 0.000000 0.000000 0.000000
# 4 0.000000 0.000000 0.000000 0.031764 0.000000 0.000000
# 5 0.000000 0.000000 0.000000 0.000000 0.445060 0.000000
# 6 0.000000 0.000000 0.000000 0.000000 0.000000 0.026717
#
#
# Mechanical properties :
#
#
# Convention : Reuss Voigt Hill
#
# Bulk Modulus (GPa) = 47.98139 57.90104 52.94122
# Shear Modulus (GPa) = 8.49354 27.31444 17.90399
#
# Velocity S-wave (km/s) = 2.08674 3.74214 3.02969
# Velocity P-wave (km/s) = 5.51409 6.95387 6.27541
#
# Compressibility (1/GPa) = 0.02084141
#
# Stress axis : x y z
#
# Youngs Moduli (GPa) = 64.40711 135.25925 37.59623
#
# Poissons Ratio (x) = 0.24395 0.34074
# Poissons Ratio (y) = 0.11616 0.13051
# Poissons Ratio (z) = 0.58374 0.46954
#
# Static dielectric constant tensor:
#      x y z
#    x 8.038830 0.000000 0.000000 
#    y 0.000000 3.824100 0.000000 
#    z 0.000000 0.000000 3.438200 
# 
# 
# High freq. dielectric constant tensor:
#      x y z
#    x 1.750840 0.000000 0.000000 
#    y 0.000000 1.764150 0.000000 
#    z 0.000000 0.000000 1.745110 
# 
# From -- ./inp_files/6936.got.cif
#   From: 2010.03.12/outbox.cif.g09.slc.cpg/sg68_4_cif.got.tgz:6936.got - 2010.04.10 23:14:56.
