data_PCOD8281455
_publ_section_title
;
Structure prediction by ZEFSAII (Michael W. Deem and Ramdas Pophale) SiO2 
 PCOD8281455
Probable space group: C M M A
;
_chemical_formula_sum "Si O2"
_cell_formula_units_Z 104
_cell_length_a 26.712352
_cell_length_b 8.575322
_cell_length_c 22.620055
_cell_angle_alpha 90.000000
_cell_angle_beta 90.000000
_cell_angle_gamma 90.000000
_cell_volume 5181.508586
_symmetry_space_group_name_H-M "C M M A"
_symmetry_group_IT_number 67
_symmetry_cell_setting 'orthorhombic'
loop_
_space_group_symop_operation_xyz
x,y,z
-x,1/2-y,z
x,-y,-z
-x,1/2+y,-z
-x,-y,-z
x,1/2+y,-z
-x,y,z
x,1/2-y,z
1/2+x,1/2+y,z
1/2-x,-y,z
1/2+x,1/2-y,-z
1/2-x,y,-z
1/2-x,1/2-y,-z
1/2+x,y,-z
1/2-x,1/2+y,z
1/2+x,-y,z
loop_
_atom_site_type_symbol
_atom_site_label
_atom_site_fract_x
_atom_site_fract_y
_atom_site_fract_z
Si Si1 0.101321 0.431221 0.247892
Si Si2 0.500000 0.435307 0.565150
Si Si3 0.303767 0.935771 0.434826
Si Si4 0.054579 0.564593 0.872932
Si Si5 0.098505 0.432671 0.626899
Si Si6 0.150260 0.934898 0.937493
Si Si7 0.300444 0.070773 0.820526
O O1 0.091048 0.250000 0.263329
O O2 0.067169 0.490944 0.193592
O O3 0.090090 0.538228 0.303795
O O4 0.158532 0.458513 0.229282
O O5 0.500000 0.250000 0.565851
O O6 0.500000 0.500000 0.500000
O O7 0.449417 0.494946 0.595204
O O8 0.301291 0.750000 0.436219
O O9 0.314764 0.000000 0.500000
O O10 0.250000 0.000000 0.411517
O O11 0.349376 0.988550 0.393088
O O12 0.056916 0.750000 0.871427
O O13 0.094158 0.504476 0.921611
O O14 0.000000 0.500908 0.890974
O O15 0.101126 0.250000 0.613177
O O16 0.151678 0.750000 0.939967
O O17 0.185159 0.001179 0.884769
O O18 0.168547 0.000000 0.000000
O O19 0.292174 0.250000 0.832019
O O20 0.250000 0.000000 0.795068
#
# Coordination Sequence:
#
# PCOD8281455 Si02
#       7
#    16   8  16  16  16  16  16
#     4   9  19  36  56  81 108 141 187 235 282 339
#     4  12  26  46  68  92 124 164 205 250 301 356
#     4  11  22  40  64  91 121 157 198 243 295 351
#     4   8  15  30  53  76 100 136 179 223 275 338
#     4  12  25  41  61  91 126 160 199 247 298 355
#     4   9  18  32  49  74 106 137 177 227 275 334
#     4   9  19  35  54  76 107 144 186 233 283 341
#
# _framework density 20.071373999999999
#
# number of rings (size 3 to 8) (size 9 to 14) (size 15 to 20)
#    0.000    2.154    0.000    6.231    1.077    2.462 
#    0.000    5.385    0.000    0.923    0.000    0.000 
#    0.000    0.000    0.000    0.000    0.000    0.000 
#
# Total GULP energy -644598.243790 kJ/mol
# GULP energy per Si atom -12396.120073 kJ/mol
# Density = 2.002569 g / cm^3
# Si number density = 20.071374 Si / 1000 Ang^3
#
#
#
# Elastic Constant Matrix: (Units=GPa)
#
#
# Indices 1 2 3 4 5 6 
#
# 1 95.2220 32.5675 8.6198 0.0000 0.0000 0.0000
# 2 32.5675 94.4315 29.1239 0.0000 0.0000 0.0000
# 3 8.6198 29.1239 82.9555 0.0000 0.0000 0.0000
# 4 0.0000 0.0000 0.0000 32.2192 0.0000 0.0000
# 5 0.0000 0.0000 0.0000 0.0000 -16.0640 0.0000
# 6 0.0000 0.0000 0.0000 0.0000 0.0000 29.6723
#
#
#
# Elastic Compliance Matrix: (Units=1/GPa)
#
#
# Indices 1 2 3 4 5 6 
#
# 1 0.011910 -0.004178 0.000229 0.000000 0.000000 0.000000
# 2 -0.004178 0.013341 -0.004250 0.000000 0.000000 0.000000
# 3 0.000229 -0.004250 0.013523 0.000000 0.000000 0.000000
# 4 0.000000 0.000000 0.000000 0.031037 0.000000 0.000000
# 5 0.000000 0.000000 0.000000 0.000000 -0.062251 0.000000
# 6 0.000000 0.000000 0.000000 0.000000 0.000000 0.033702
#
#
# Mechanical properties :
#
#
# Convention : Reuss Voigt Hill
#
# Bulk Modulus (GPa) = 44.68885 45.91461 45.30173
# Shear Modulus (GPa) = 76.78316 22.65200 49.71758
#
# Velocity S-wave (km/s) = 6.19178 3.36307 4.98239
# Velocity P-wave (km/s) = 8.56918 6.16487 7.46446
#
# Compressibility (1/GPa) = 0.02237695
#
# Stress axis : x y z
#
# Youngs Moduli (GPa) = 83.96267 74.95487 73.94907
#
# Poissons Ratio (x) = 0.31318 -0.01696
# Poissons Ratio (y) = 0.35082 0.31426
# Poissons Ratio (z) = -0.01926 0.31854
#
# Static dielectric constant tensor:
#      x y z
#    x 3.780940 0.000000 0.000000 
#    y 0.000000 3.433090 0.000000 
#    z 0.000000 0.000000 3.665610 
# 
# 
# High freq. dielectric constant tensor:
#      x y z
#    x 1.795600 0.000000 0.000000 
#    y 0.000000 1.764580 0.000000 
#    z 0.000000 0.000000 1.783370 
# 
# From -- ./inp_files/39987.got.cif
#   From: 2010.03.12/outbox.cif.g09.slc.cpg/sg67_20_cif.got.tgz:39987.got - 2010.04.10 22:41:39.
