data_PCOD8281268
_publ_section_title
;
Structure prediction by ZEFSAII (Michael W. Deem and Ramdas Pophale) SiO2 
 PCOD8281268
Probable space group: C M M A
;
_chemical_formula_sum "Si O2"
_cell_formula_units_Z 96
_cell_length_a 22.530723
_cell_length_b 17.376281
_cell_length_c 11.651489
_cell_angle_alpha 90.000000
_cell_angle_beta 90.000000
_cell_angle_gamma 90.000000
_cell_volume 4561.559971
_symmetry_space_group_name_H-M "C M M A"
_symmetry_group_IT_number 67
_symmetry_cell_setting 'orthorhombic'
loop_
_space_group_symop_operation_xyz
x,y,z
-x,1/2-y,z
x,-y,-z
-x,1/2+y,-z
-x,-y,-z
x,1/2+y,-z
-x,y,z
x,1/2-y,z
1/2+x,1/2+y,z
1/2-x,-y,z
1/2+x,1/2-y,-z
1/2-x,y,-z
1/2-x,1/2-y,-z
1/2+x,y,-z
1/2-x,1/2+y,z
1/2+x,-y,z
loop_
_atom_site_type_symbol
_atom_site_label
_atom_site_fract_x
_atom_site_fract_y
_atom_site_fract_z
Si Si1 0.631339 0.408055 0.759168
Si Si2 0.568917 0.439784 0.152174
Si Si3 0.182474 0.909765 0.511189
Si Si4 0.143863 0.840023 0.282369
Si Si5 0.069065 0.165749 0.051271
Si Si6 0.751590 0.091071 0.870283
O O1 0.611714 0.494305 0.796106
O O2 0.643052 0.394162 0.624765
O O3 0.582305 0.351391 0.814567
O O4 0.691689 0.378733 0.815342
O O5 0.500000 0.466002 0.152401
O O6 0.579396 0.365879 0.234311
O O7 0.590377 0.408531 0.025699
O O8 0.250000 0.876272 0.500000
O O9 0.145866 0.870910 0.410898
O O10 0.187350 0.000000 0.500000
O O11 0.150870 0.750000 0.281805
O O12 0.193377 0.876585 0.200093
O O13 0.096425 0.250000 0.016561
O O14 0.000000 0.171568 0.031533
O O15 0.750000 0.000000 0.861059
O O16 0.750000 0.121319 0.000000
#
# Coordination Sequence:
#
# PCOD8281268 Si02
#       6
#    16  16  16  16  16  16
#     4  12  22  39  70  95 127 170 228 268 323 392
#     4  11  23  42  67  97 131 175 222 271 324 394
#     4  11  22  43  67  90 128 173 216 266 327 391
#     4  12  25  42  65  98 130 168 220 270 331 401
#     4  10  23  42  64  96 138 176 214 270 338 399
#     4  11  22  38  63  94 132 168 206 264 331 394
#
# _framework density 21.045431000000001
#
# number of rings (size 3 to 8) (size 9 to 14) (size 15 to 20)
#    0.000    0.833    5.000    2.500    2.333    4.333 
#    0.000    2.500    0.000    0.000    0.000    0.000 
#    0.000    0.000    0.000    0.000    0.000    0.000 
#
# Total GULP energy -594651.096798 kJ/mol
# GULP energy per Si atom -12388.564517 kJ/mol
# Density = 2.099753 g / cm^3
# Si number density = 21.045431 Si / 1000 Ang^3
#
#
#
# Elastic Constant Matrix: (Units=GPa)
#
#
# Indices 1 2 3 4 5 6 
#
# 1 51.9774 10.7944 32.6437 0.0000 0.0000 0.0000
# 2 10.7944 72.9570 27.6803 0.0000 0.0000 0.0000
# 3 32.6437 27.6803 163.8870 0.0000 0.0000 0.0000
# 4 0.0000 0.0000 0.0000 12.1084 0.0000 0.0000
# 5 0.0000 0.0000 0.0000 0.0000 22.4068 0.0000
# 6 0.0000 0.0000 0.0000 0.0000 0.0000 -404.2889
#
#
#
# Elastic Compliance Matrix: (Units=1/GPa)
#
#
# Indices 1 2 3 4 5 6 
#
# 1 0.022189 -0.001716 -0.004130 0.000000 0.000000 0.000000
# 2 -0.001716 0.014778 -0.002154 0.000000 0.000000 0.000000
# 3 -0.004130 -0.002154 0.007288 0.000000 0.000000 0.000000
# 4 0.000000 0.000000 0.000000 0.082587 0.000000 0.000000
# 5 0.000000 0.000000 0.000000 0.000000 0.044629 0.000000
# 6 0.000000 0.000000 0.000000 0.000000 0.000000 -0.002473
#
#
# Mechanical properties :
#
#
# Convention : Reuss Voigt Hill
#
# Bulk Modulus (GPa) = 35.39193 47.89535 41.64364
# Shear Modulus (GPa) = 25.71789 -59.44120 -16.86166
#
# Velocity S-wave (km/s) = 3.49953 -5.32030 -2.83362
# Velocity P-wave (km/s) = 5.76041 3.86436 3.02069
#
# Compressibility (1/GPa) = 0.02825503
#
# Stress axis : x y z
#
# Youngs Moduli (GPa) = 45.06688 67.66859 137.20799
#
# Poissons Ratio (x) = 0.11613 0.56665
# Poissons Ratio (y) = 0.07734 0.29557
# Poissons Ratio (z) = 0.18612 0.14577
#
# Static dielectric constant tensor:
#      x y z
#    x 4.381730 0.000000 0.000000 
#    y 0.000000 3.949080 0.000000 
#    z 0.000000 0.000000 4.048920 
# 
# 
# High freq. dielectric constant tensor:
#      x y z
#    x 1.818540 0.000000 0.000000 
#    y 0.000000 1.820920 0.000000 
#    z 0.000000 0.000000 1.828190 
# 
# From -- ./inp_files/21966.got.cif
#   From: 2010.03.12/outbox.cif.g09.slc.cpg/sg67_11_cif.got.tgz:21966.got - 2010.04.10 22:41:39.
