data_PCOD8281376
_publ_section_title
;
Structure prediction by ZEFSAII (Michael W. Deem and Ramdas Pophale) SiO2 
 PCOD8281376
Probable space group: C M M A
;
_chemical_formula_sum "Si O2"
_cell_formula_units_Z 80
_cell_length_a 22.500984
_cell_length_b 15.305658
_cell_length_c 11.597640
_cell_angle_alpha 90.000000
_cell_angle_beta 90.000000
_cell_angle_gamma 90.000000
_cell_volume 3994.138677
_symmetry_space_group_name_H-M "C M M A"
_symmetry_group_IT_number 67
_symmetry_cell_setting 'orthorhombic'
loop_
_space_group_symop_operation_xyz
x,y,z
-x,1/2-y,z
x,-y,-z
-x,1/2+y,-z
-x,-y,-z
x,1/2+y,-z
-x,y,z
x,1/2-y,z
1/2+x,1/2+y,z
1/2-x,-y,z
1/2+x,1/2-y,-z
1/2-x,y,-z
1/2-x,1/2-y,-z
1/2+x,y,-z
1/2-x,1/2+y,z
1/2+x,-y,z
loop_
_atom_site_type_symbol
_atom_site_label
_atom_site_fract_x
_atom_site_fract_y
_atom_site_fract_z
Si Si1 0.251927 0.851611 0.630624
Si Si2 0.932110 0.849766 0.502024
Si Si3 0.931029 0.250000 0.156126
Si Si4 0.120598 0.103675 0.731188
Si Si5 0.868255 0.408855 0.281732
Si Si6 0.568760 0.750000 0.884354
O O1 0.236786 0.750000 0.627978
O O2 0.250000 0.889063 0.500000
O O3 0.314778 0.869222 0.687965
O O4 0.202641 0.897378 0.710748
O O5 0.909480 0.750000 0.510128
O O6 0.925721 0.883690 0.372512
O O7 0.892804 0.907149 0.587863
O O8 0.000000 0.857661 0.540269
O O9 0.899711 0.336088 0.204589
O O10 0.000000 0.250000 0.194039
O O11 0.923765 0.250000 0.020261
O O12 0.100859 0.163515 0.837360
O O13 0.118787 0.003478 0.773474
O O14 0.500000 0.750000 0.846690
#
# Coordination Sequence:
#
# PCOD8281376 Si02
#       6
#    16  16   8  16  16   8
#     4  11  21  39  65  95 135 176 207 250 318 391
#     4  11  21  36  59  91 133 171 205 255 320 387
#     4  11  26  48  69  90 124 172 222 271 322 375
#     4  12  24  40  65  98 131 166 213 263 320 385
#     4  12  24  40  65  98 131 166 213 263 320 385
#     4  11  26  48  69  90 124 172 222 271 322 375
#
# _framework density 20.029350000000001
#
# number of rings (size 3 to 8) (size 9 to 14) (size 15 to 20)
#    0.000    0.600    6.000    2.400    0.000    5.600 
#    0.000    4.000    0.000    2.400    0.000    0.000 
#    0.000    0.000    0.000    0.000    0.000    0.000 
#
# Total GULP energy -496221.325297 kJ/mol
# GULP energy per Si atom -12405.533132 kJ/mol
# Density = 1.998376 g / cm^3
# Si number density = 20.029350 Si / 1000 Ang^3
#
#
#
# Elastic Constant Matrix: (Units=GPa)
#
#
# Indices 1 2 3 4 5 6 
#
# 1 117.5213 43.4343 44.3471 0.0000 0.0000 0.0000
# 2 43.4343 143.4664 34.2324 0.0000 0.0000 0.0000
# 3 44.3471 34.2324 83.0975 0.0000 0.0000 0.0000
# 4 0.0000 0.0000 0.0000 10.6421 0.0000 0.0000
# 5 0.0000 0.0000 0.0000 0.0000 27.2338 0.0000
# 6 0.0000 0.0000 0.0000 0.0000 0.0000 13.8622
#
#
#
# Elastic Compliance Matrix: (Units=1/GPa)
#
#
# Indices 1 2 3 4 5 6 
#
# 1 0.011241 -0.002187 -0.005098 0.000000 0.000000 0.000000
# 2 -0.002187 0.008156 -0.002193 0.000000 0.000000 0.000000
# 3 -0.005098 -0.002193 0.015658 0.000000 0.000000 0.000000
# 4 0.000000 0.000000 0.000000 0.093967 0.000000 0.000000
# 5 0.000000 0.000000 0.000000 0.000000 0.036719 0.000000
# 6 0.000000 0.000000 0.000000 0.000000 0.000000 0.072138
#
#
# Mechanical properties :
#
#
# Convention : Reuss Voigt Hill
#
# Bulk Modulus (GPa) = 62.11415 65.34585 63.73000
# Shear Modulus (GPa) = 19.06935 25.15238 22.11087
#
# Velocity S-wave (km/s) = 3.08891 3.54754 3.32614
# Velocity P-wave (km/s) = 6.61821 7.03391 6.82922
#
# Compressibility (1/GPa) = 0.01609939
#
# Stress axis : x y z
#
# Youngs Moduli (GPa) = 88.95888 122.61657 63.86447
#
# Poissons Ratio (x) = 0.26813 0.32560
# Poissons Ratio (y) = 0.19453 0.14003
# Poissons Ratio (z) = 0.45354 0.26886
#
# Static dielectric constant tensor:
#      x y z
#    x 3.783560 0.000000 0.000000 
#    y 0.000000 3.815990 0.000000 
#    z 0.000000 0.000000 3.376280 
# 
# 
# High freq. dielectric constant tensor:
#      x y z
#    x 1.800040 0.000000 0.000000 
#    y 0.000000 1.793130 0.000000 
#    z 0.000000 0.000000 1.750960 
# 
# From -- ./inp_files/17979.got.cif
#   From: 2010.03.12/outbox.cif.g09.slc.cpg/sg67_9_cif.got.tgz:17979.got - 2010.04.10 22:41:39.
