data_PCOD8281025
_publ_section_title
;
Structure prediction by ZEFSAII (Michael W. Deem and Ramdas Pophale) SiO2 
 PCOD8281025
Probable space group: C M M A
;
_chemical_formula_sum "Si O2"
_cell_formula_units_Z 80
_cell_length_a 17.543586
_cell_length_b 9.018266
_cell_length_c 25.838971
_cell_angle_alpha 90.000000
_cell_angle_beta 90.000000
_cell_angle_gamma 90.000000
_cell_volume 4088.054017
_symmetry_space_group_name_H-M "C M M A"
_symmetry_group_IT_number 67
_symmetry_cell_setting 'orthorhombic'
loop_
_space_group_symop_operation_xyz
x,y,z
-x,1/2-y,z
x,-y,-z
-x,1/2+y,-z
-x,-y,-z
x,1/2+y,-z
-x,y,z
x,1/2-y,z
1/2+x,1/2+y,z
1/2-x,-y,z
1/2+x,1/2-y,-z
1/2-x,y,-z
1/2-x,1/2-y,-z
1/2+x,y,-z
1/2-x,1/2+y,z
1/2+x,-y,z
loop_
_atom_site_type_symbol
_atom_site_label
_atom_site_fract_x
_atom_site_fract_y
_atom_site_fract_z
Si Si1 0.590452 0.913733 0.148685
Si Si2 0.090992 0.415384 0.949837
Si Si3 0.330694 0.926679 0.642970
Si Si4 0.090157 0.082509 0.449426
Si Si5 0.411430 0.924022 0.264267
O O1 0.500000 0.906612 0.144736
O O2 0.624300 0.750000 0.139993
O O3 0.612363 0.970935 0.205941
O O4 0.624174 0.016827 0.103447
O O5 0.122113 0.250000 0.953535
O O6 0.000000 0.421032 0.949259
O O7 0.122981 0.500000 0.000000
O O8 0.324950 0.750000 0.640296
O O9 0.250000 0.000000 0.631100
O O10 0.389217 0.986860 0.600568
O O11 0.359891 0.975604 0.699132
O O12 0.123724 0.250000 0.446117
O O13 0.000000 0.090746 0.452911
O O14 0.123844 0.000000 0.500000
O O15 0.500000 0.958631 0.274640
O O16 0.395331 0.750000 0.273862
#
# Coordination Sequence:
#
# PCOD8281025 Si02
#       5
#    16  16  16  16  16
#     4   8  14  25  41  61  87 121 160 201 248 303
#     4   9  15  21  31  50  80 118 158 200 247 300
#     4  12  25  39  56  79 109 143 180 220 263 311
#     4  10  21  39  63  89 116 144 176 214 256 305
#     4   9  18  34  55  77 103 136 173 215 264 316
#
# _framework density 19.569212
#
# number of rings (size 3 to 8) (size 9 to 14) (size 15 to 20)
#    0.000    2.400    0.000    4.800    0.000    7.600 
#    0.000    4.000    0.000    0.000    0.000    0.000 
#    0.000    0.800    0.000    8.400    0.000   11.600 
#
# Total GULP energy -495923.693333 kJ/mol
# GULP energy per Si atom -12398.092333 kJ/mol
# Density = 1.952467 g / cm^3
# Si number density = 19.569212 Si / 1000 Ang^3
#
#
#
# Elastic Constant Matrix: (Units=GPa)
#
#
# Indices 1 2 3 4 5 6 
#
# 1 16.5885 17.6713 9.3967 0.0000 0.0000 0.0000
# 2 17.6713 155.3456 77.0246 0.0000 0.0000 0.0000
# 3 9.3967 77.0246 153.8460 0.0000 0.0000 0.0000
# 4 0.0000 0.0000 0.0000 38.6963 0.0000 0.0000
# 5 0.0000 0.0000 0.0000 0.0000 1.1268 0.0000
# 6 0.0000 0.0000 0.0000 0.0000 0.0000 20.7361
#
#
#
# Elastic Compliance Matrix: (Units=1/GPa)
#
#
# Indices 1 2 3 4 5 6 
#
# 1 0.068612 -0.007618 -0.000377 0.000000 0.000000 0.000000
# 2 -0.007618 0.009409 -0.004245 0.000000 0.000000 0.000000
# 3 -0.000377 -0.004245 0.008648 0.000000 0.000000 0.000000
# 4 0.000000 0.000000 0.000000 0.025842 0.000000 0.000000
# 5 0.000000 0.000000 0.000000 0.000000 0.887491 0.000000
# 6 0.000000 0.000000 0.000000 0.000000 0.000000 0.048225
#
#
# Mechanical properties :
#
#
# Convention : Reuss Voigt Hill
#
# Bulk Modulus (GPa) = 16.08009 59.32948 37.70478
# Shear Modulus (GPa) = 4.57274 26.89101 15.73187
#
# Velocity S-wave (km/s) = 1.53029 3.71097 2.83841
# Velocity P-wave (km/s) = 3.37005 6.98179 5.48191
#
# Compressibility (1/GPa) = 0.06218870
#
# Stress axis : x y z
#
# Youngs Moduli (GPa) = 14.57481 106.28351 115.62747
#
# Poissons Ratio (x) = 0.80968 0.04355
# Poissons Ratio (y) = 0.11103 0.49087
# Poissons Ratio (z) = 0.00549 0.45121
#
# Static dielectric constant tensor:
#      x y z
#    x 3.001260 0.000000 0.000000 
#    y 0.000000 3.773590 0.000000 
#    z 0.000000 0.000000 3.834600 
# 
# 
# High freq. dielectric constant tensor:
#      x y z
#    x 1.704790 0.000000 0.000000 
#    y 0.000000 1.767750 0.000000 
#    z 0.000000 0.000000 1.782880 
# 
# From -- ./inp_files/44429.got.cif
#   From: 2010.03.12/outbox.cif.g09.slc.cpg/sg67_23_cif.got.tgz:44429.got - 2010.04.10 22:41:39.
