data_PCOD8281035
_publ_section_title
;
Structure prediction by ZEFSAII (Michael W. Deem and Ramdas Pophale) SiO2 
 PCOD8281035
Probable space group: C M M A
;
_chemical_formula_sum "Si O2"
_cell_formula_units_Z 64
_cell_length_a 18.013092
_cell_length_b 8.554319
_cell_length_c 20.356465
_cell_angle_alpha 90.000000
_cell_angle_beta 90.000000
_cell_angle_gamma 90.000000
_cell_volume 3136.722300
_symmetry_space_group_name_H-M "C M M A"
_symmetry_group_IT_number 67
_symmetry_cell_setting 'orthorhombic'
loop_
_space_group_symop_operation_xyz
x,y,z
-x,1/2-y,z
x,-y,-z
-x,1/2+y,-z
-x,-y,-z
x,1/2+y,-z
-x,y,z
x,1/2-y,z
1/2+x,1/2+y,z
1/2-x,-y,z
1/2+x,1/2-y,-z
1/2-x,y,-z
1/2-x,1/2-y,-z
1/2+x,y,-z
1/2-x,1/2+y,z
1/2+x,-y,z
loop_
_atom_site_type_symbol
_atom_site_label
_atom_site_fract_x
_atom_site_fract_y
_atom_site_fract_z
Si Si1 0.911992 0.071836 0.568391
Si Si2 0.669258 0.066824 0.689383
Si Si3 0.414951 0.932038 0.812423
Si Si4 0.670899 0.066912 0.929825
O O1 0.883437 0.250000 0.575037
O O2 0.000000 0.065252 0.572493
O O3 0.883388 0.000000 0.500000
O O4 0.880661 0.965537 0.626161
O O5 0.672455 0.250000 0.703870
O O6 0.750000 0.000000 0.675142
O O7 0.635394 0.980681 0.751782
O O8 0.500000 0.973006 0.795908
O O9 0.403763 0.750000 0.826212
O O10 0.391743 0.024951 0.877329
O O11 0.679116 0.250000 0.936560
O O12 0.750000 0.000000 0.906421
O O13 0.646349 0.000000 0.000000
#
# Coordination Sequence:
#
# PCOD8281035 Si02
#       4
#    16  16  16  16
#     4  10  21  39  63  91 123 158 197 242 294 352
#     4  12  25  41  62  88 120 157 200 247 297 353
#     4  11  24  42  63  88 120 157 198 245 297 353
#     4  11  22  39  63  90 122 158 199 244 294 352
#
# _framework density 20.403462999999999
#
# number of rings (size 3 to 8) (size 9 to 14) (size 15 to 20)
#    0.000    1.000    0.000    8.250    0.000    7.500 
#    0.000    2.500    0.000    0.000    0.000    0.000 
#    0.000    0.000    0.000    0.000    0.000    0.000 
#
# Total GULP energy -397043.466214 kJ/mol
# GULP energy per Si atom -12407.608319 kJ/mol
# Density = 2.035702 g / cm^3
# Si number density = 20.403463 Si / 1000 Ang^3
#
#
#
# Elastic Constant Matrix: (Units=GPa)
#
#
# Indices 1 2 3 4 5 6 
#
# 1 27.7490 33.2367 21.1734 0.0000 0.0000 0.0000
# 2 33.2367 122.0356 26.2582 0.0000 0.0000 0.0000
# 3 21.1734 26.2582 116.0251 0.0000 0.0000 0.0000
# 4 0.0000 0.0000 0.0000 40.0485 0.0000 0.0000
# 5 0.0000 0.0000 0.0000 0.0000 34.1532 0.0000
# 6 0.0000 0.0000 0.0000 0.0000 0.0000 32.8416
#
#
#
# Elastic Compliance Matrix: (Units=1/GPa)
#
#
# Indices 1 2 3 4 5 6 
#
# 1 0.059117 -0.014485 -0.007510 0.000000 0.000000 0.000000
# 2 -0.014485 0.012163 -0.000109 0.000000 0.000000 0.000000
# 3 -0.007510 -0.000109 0.010014 0.000000 0.000000 0.000000
# 4 0.000000 0.000000 0.000000 0.024970 0.000000 0.000000
# 5 0.000000 0.000000 0.000000 0.000000 0.029280 0.000000
# 6 0.000000 0.000000 0.000000 0.000000 0.000000 0.030449
#
#
# Mechanical properties :
#
#
# Convention : Reuss Voigt Hill
#
# Bulk Modulus (GPa) = 26.96465 47.46072 37.21268
# Shear Modulus (GPa) = 22.46555 33.75142 28.10849
#
# Velocity S-wave (km/s) = 3.32183 4.07160 3.71567
# Velocity P-wave (km/s) = 5.28745 6.73910 6.05692
#
# Compressibility (1/GPa) = 0.03708559
#
# Stress axis : x y z
#
# Youngs Moduli (GPa) = 16.91558 82.21787 99.85939
#
# Poissons Ratio (x) = 1.19091 0.74996
# Poissons Ratio (y) = 0.24502 0.01092
# Poissons Ratio (z) = 0.12704 0.00899
#
# Static dielectric constant tensor:
#      x y z
#    x 3.700780 0.000000 0.000000 
#    y 0.000000 3.971770 0.000000 
#    z 0.000000 0.000000 3.861770 
# 
# 
# High freq. dielectric constant tensor:
#      x y z
#    x 1.795870 0.000000 0.000000 
#    y 0.000000 1.817310 0.000000 
#    z 0.000000 0.000000 1.812590 
# 
# From -- ./inp_files/34640.got.cif
#   From: 2010.03.12/outbox.cif.g09.slc.cpg/sg67_18_cif.got.tgz:34640.got - 2010.04.10 22:41:39.
