data_PCOD8281060
_publ_section_title
;
Structure prediction by ZEFSAII (Michael W. Deem and Ramdas Pophale) SiO2 
 PCOD8281060
Probable space group: C M M A
;
_chemical_formula_sum "Si O2"
_cell_formula_units_Z 88
_cell_length_a 15.709705
_cell_length_b 15.527621
_cell_length_c 14.066186
_cell_angle_alpha 90.000000
_cell_angle_beta 90.000000
_cell_angle_gamma 90.000000
_cell_volume 3431.225872
_symmetry_space_group_name_H-M "C M M A"
_symmetry_group_IT_number 67
_symmetry_cell_setting 'orthorhombic'
loop_
_space_group_symop_operation_xyz
x,y,z
-x,1/2-y,z
x,-y,-z
-x,1/2+y,-z
-x,-y,-z
x,1/2+y,-z
-x,y,z
x,1/2-y,z
1/2+x,1/2+y,z
1/2-x,-y,z
1/2+x,1/2-y,-z
1/2-x,y,-z
1/2-x,1/2-y,-z
1/2+x,y,-z
1/2-x,1/2+y,z
1/2+x,-y,z
loop_
_atom_site_type_symbol
_atom_site_label
_atom_site_fract_x
_atom_site_fract_y
_atom_site_fract_z
Si Si1 0.898283 0.250000 0.899468
Si Si2 0.811659 0.654789 0.793037
Si Si3 0.250000 0.000000 0.291760
Si Si4 0.899877 0.250000 0.684315
Si Si5 0.899879 0.905978 0.976202
Si Si6 0.405324 0.844304 0.404228
Si Si7 0.399933 0.428306 0.403356
O O1 0.866016 0.250000 0.792021
O O2 0.000000 0.250000 0.907013
O O3 0.860828 0.164443 0.950891
O O4 0.776921 0.750000 0.820631
O O5 0.740919 0.581044 0.780665
O O6 0.880791 0.623761 0.869180
O O7 0.846713 0.656606 0.686517
O O8 0.337014 0.000189 0.356071
O O9 0.865882 0.163587 0.635022
O O10 0.000000 0.250000 0.679460
O O11 0.000000 0.909685 0.989327
O O12 0.860474 0.000000 0.000000
O O13 0.500000 0.858331 0.365720
O O14 0.397975 0.750000 0.455707
O O15 0.387777 0.921202 0.481587
O O16 0.500000 0.445566 0.377107
#
# Coordination Sequence:
#
# PCOD8281060 Si02
#       7
#     8  16   8   8  16  16  16
#     4   9  18  34  62 100 133 177 235 284 348 421
#     4  11  25  45  67  96 142 188 232 296 363 430
#     4  12  30  45  69 108 144 188 249 298 357 436
#     4   9  18  36  68 101 134 182 237 293 350 415
#     4  10  21  39  68 104 140 183 236 290 352 427
#     4   9  18  37  70 107 140 186 241 290 352 426
#     4  10  22  43  70 102 144 189 239 297 355 419
#
# _framework density 25.646809999999999
#
# number of rings (size 3 to 8) (size 9 to 14) (size 15 to 20)
#    0.000    2.000    1.818    0.545    3.818    4.364 
#    0.000    4.091    0.000    2.182    0.000    0.000 
#    0.000    0.000    0.000    0.000    0.000    0.000 
#
# Total GULP energy -545238.253196 kJ/mol
# GULP energy per Si atom -12391.778482 kJ/mol
# Density = 2.558844 g / cm^3
# Si number density = 25.646810 Si / 1000 Ang^3
#
#
#
# Elastic Constant Matrix: (Units=GPa)
#
#
# Indices 1 2 3 4 5 6 
#
# 1 53.3659 18.2461 6.0157 0.0000 0.0000 0.0000
# 2 18.2461 161.8523 30.2743 0.0000 0.0000 0.0000
# 3 6.0157 30.2743 86.3199 0.0000 0.0000 0.0000
# 4 0.0000 0.0000 0.0000 35.5552 0.0000 0.0000
# 5 0.0000 0.0000 0.0000 0.0000 12.1431 0.0000
# 6 0.0000 0.0000 0.0000 0.0000 0.0000 29.0759
#
#
#
# Elastic Compliance Matrix: (Units=1/GPa)
#
#
# Indices 1 2 3 4 5 6 
#
# 1 0.019522 -0.002083 -0.000630 0.000000 0.000000 0.000000
# 2 -0.002083 0.006834 -0.002252 0.000000 0.000000 0.000000
# 3 -0.000630 -0.002252 0.012418 0.000000 0.000000 0.000000
# 4 0.000000 0.000000 0.000000 0.028125 0.000000 0.000000
# 5 0.000000 0.000000 0.000000 0.000000 0.082351 0.000000
# 6 0.000000 0.000000 0.000000 0.000000 0.000000 0.034393
#
#
# Mechanical properties :
#
#
# Convention : Reuss Voigt Hill
#
# Bulk Modulus (GPa) = 34.66772 45.62336 40.14554
# Shear Modulus (GPa) = 24.60771 31.82163 28.21467
#
# Velocity S-wave (km/s) = 3.10091 3.52627 3.32041
# Velocity P-wave (km/s) = 5.13494 5.86576 5.51247
#
# Compressibility (1/GPa) = 0.02884528
#
# Stress axis : x y z
#
# Youngs Moduli (GPa) = 51.22497 146.31661 80.52507
#
# Poissons Ratio (x) = 0.30476 0.05073
# Poissons Ratio (y) = 0.10670 0.18133
# Poissons Ratio (z) = 0.03227 0.32948
#
# Static dielectric constant tensor:
#      x y z
#    x 4.063250 0.000000 0.000000 
#    y 0.000000 6.085120 0.000000 
#    z 0.000000 0.000000 4.541980 
# 
# 
# High freq. dielectric constant tensor:
#      x y z
#    x 1.996400 0.000000 0.000000 
#    y 0.000000 2.070600 0.000000 
#    z 0.000000 0.000000 2.023520 
# 
# From -- ./inp_files/28535.got.cif
#   From: 2010.03.12/outbox.cif.g09.slc.cpg/sg67_15_cif.got.tgz:28535.got - 2010.04.10 22:41:39.
