data_PCOD8281075
_publ_section_title
;
Structure prediction by ZEFSAII (Michael W. Deem and Ramdas Pophale) SiO2 
 PCOD8281075
Probable space group: C M M A
;
_chemical_formula_sum "Si O2"
_cell_formula_units_Z 72
_cell_length_a 8.618748
_cell_length_b 16.421393
_cell_length_c 24.725487
_cell_angle_alpha 90.000000
_cell_angle_beta 90.000000
_cell_angle_gamma 90.000000
_cell_volume 3499.443870
_symmetry_space_group_name_H-M "C M M A"
_symmetry_group_IT_number 67
_symmetry_cell_setting 'orthorhombic'
loop_
_space_group_symop_operation_xyz
x,y,z
-x,1/2-y,z
x,-y,-z
-x,1/2+y,-z
-x,-y,-z
x,1/2+y,-z
-x,y,z
x,1/2-y,z
1/2+x,1/2+y,z
1/2-x,-y,z
1/2+x,1/2-y,-z
1/2-x,y,-z
1/2-x,1/2-y,-z
1/2+x,y,-z
1/2-x,1/2+y,z
1/2+x,-y,z
loop_
_atom_site_type_symbol
_atom_site_label
_atom_site_fract_x
_atom_site_fract_y
_atom_site_fract_z
Si Si1 0.816052 0.588309 0.623057
Si Si2 0.816125 0.250000 0.440486
Si Si3 0.816655 0.585244 0.260049
Si Si4 0.330696 0.157318 0.840589
Si Si5 0.682289 0.910793 0.946084
O O1 0.750000 0.500000 0.603005
O O2 0.757686 0.665838 0.587772
O O3 0.761187 0.608703 0.683332
O O4 0.000000 0.580901 0.621507
O O5 0.750000 0.250000 0.500000
O O6 0.000000 0.250000 0.441452
O O7 0.750000 0.500000 0.239116
O O8 0.767956 0.648313 0.214201
O O9 0.000000 0.582229 0.268132
O O10 0.500000 0.111694 0.838372
O O11 0.368563 0.250000 0.847733
O O12 0.228184 0.132626 0.891242
O O13 0.500000 0.913104 0.951271
O O14 0.750000 0.000000 0.943417
O O15 0.750000 0.866351 0.000000
#
# Coordination Sequence:
#
# PCOD8281075 Si02
#       5
#    16   8  16  16  16
#     4  10  21  40  63  92 125 166 210 258 313 370
#     4  10  24  42  64  92 128 168 211 256 311 368
#     4  11  22  38  61  89 119 155 198 246 298 358
#     4  11  24  40  58  83 117 155 193 240 297 355
#     4  11  22  39  62  85 112 147 193 242 292 353
#
# _framework density 20.574697
#
# number of rings (size 3 to 8) (size 9 to 14) (size 15 to 20)
#    0.000    1.333    0.000    8.000    1.556    4.444 
#    0.000    2.222    0.000    0.000    0.000    0.000 
#    0.000    0.000    0.000    0.000    0.000    0.000 
#
# Total GULP energy -446252.574256 kJ/mol
# GULP energy per Si atom -12395.904840 kJ/mol
# Density = 2.052787 g / cm^3
# Si number density = 20.574697 Si / 1000 Ang^3
#
#
#
# Elastic Constant Matrix: (Units=GPa)
#
#
# Indices 1 2 3 4 5 6 
#
# 1 132.1204 45.8684 47.3277 0.0000 0.0000 0.0000
# 2 45.8684 111.2069 71.7544 0.0000 0.0000 0.0000
# 3 47.3277 71.7544 142.8052 0.0000 0.0000 0.0000
# 4 0.0000 0.0000 0.0000 -0.5164 0.0000 0.0000
# 5 0.0000 0.0000 0.0000 0.0000 39.4033 0.0000
# 6 0.0000 0.0000 0.0000 0.0000 0.0000 23.3480
#
#
#
# Elastic Compliance Matrix: (Units=1/GPa)
#
#
# Indices 1 2 3 4 5 6 
#
# 1 0.009096 -0.002673 -0.001671 0.000000 0.000000 0.000000
# 2 -0.002673 0.014092 -0.006195 0.000000 0.000000 0.000000
# 3 -0.001671 -0.006195 0.010669 0.000000 0.000000 0.000000
# 4 0.000000 0.000000 0.000000 -1.936344 0.000000 0.000000
# 5 0.000000 0.000000 0.000000 0.000000 0.025379 0.000000
# 6 0.000000 0.000000 0.000000 0.000000 0.000000 0.042830
#
#
# Mechanical properties :
#
#
# Convention : Reuss Voigt Hill
#
# Bulk Modulus (GPa) = 78.25840 79.55928 78.90884
# Shear Modulus (GPa) = -2.76405 27.19244 12.21420
#
# Velocity S-wave (km/s) = -1.16032 3.63939 2.43914
# Velocity P-wave (km/s) = 6.02691 7.51083 6.80942
#
# Compressibility (1/GPa) = 0.01277818
#
# Stress axis : x y z
#
# Youngs Moduli (GPa) = 109.94352 70.96287 93.72937
#
# Poissons Ratio (x) = 0.18970 0.15664
# Poissons Ratio (y) = 0.29391 0.58063
# Poissons Ratio (z) = 0.18374 0.43959
#
# Static dielectric constant tensor:
#      x y z
#    x 3.855270 0.000000 0.000000 
#    y 0.000000 3.839570 0.000000 
#    z 0.000000 0.000000 4.022640 
# 
# 
# High freq. dielectric constant tensor:
#      x y z
#    x 1.822880 0.000000 0.000000 
#    y 0.000000 1.798630 0.000000 
#    z 0.000000 0.000000 1.811940 
# 
# From -- ./inp_files/43106.got.cif
#   From: 2010.03.12/outbox.cif.g09.slc.cpg/sg67_22_cif.got.tgz:43106.got - 2010.04.10 22:41:39.
