data_PCOD8281407
_publ_section_title
;
Structure prediction by ZEFSAII (Michael W. Deem and Ramdas Pophale) SiO2 
 PCOD8281407
Probable space group: C M M A
;
_chemical_formula_sum "Si O2"
_cell_formula_units_Z 100
_cell_length_a 8.896545
_cell_length_b 29.852849
_cell_length_c 20.090917
_cell_angle_alpha 90.000000
_cell_angle_beta 90.000000
_cell_angle_gamma 90.000000
_cell_volume 5335.890683
_symmetry_space_group_name_H-M "C M M A"
_symmetry_group_IT_number 67
_symmetry_cell_setting 'orthorhombic'
loop_
_space_group_symop_operation_xyz
x,y,z
-x,1/2-y,z
x,-y,-z
-x,1/2+y,-z
-x,-y,-z
x,1/2+y,-z
-x,y,z
x,1/2-y,z
1/2+x,1/2+y,z
1/2-x,-y,z
1/2+x,1/2-y,-z
1/2-x,y,-z
1/2-x,1/2-y,-z
1/2+x,y,-z
1/2-x,1/2+y,z
1/2+x,-y,z
loop_
_atom_site_type_symbol
_atom_site_label
_atom_site_fract_x
_atom_site_fract_y
_atom_site_fract_z
Si Si1 0.668151 0.433425 0.609095
Si Si2 0.821815 0.137315 0.811118
Si Si3 0.250000 0.500000 0.500000
Si Si4 0.822595 0.199010 0.929898
Si Si5 0.677280 0.155934 0.434034
Si Si6 0.821453 0.798925 0.301251
Si Si7 0.179440 0.545122 0.251236
O O1 0.500000 0.418807 0.629715
O O2 0.651200 0.470244 0.550723
O O3 0.761885 0.393304 0.578445
O O4 0.754759 0.449807 0.674819
O O5 0.761118 0.161306 0.878230
O O6 0.752919 0.165213 0.749656
O O7 0.773502 0.085682 0.798995
O O8 0.000000 0.140804 0.811002
O O9 0.779262 0.250000 0.907385
O O10 0.000000 0.195313 0.937398
O O11 0.750000 0.186990 0.000000
O O12 0.500000 0.152846 0.442038
O O13 0.750000 0.176684 0.500000
O O14 0.728342 0.188575 0.375216
O O15 0.757354 0.750000 0.283629
O O16 0.000000 0.799244 0.295564
O O17 0.250000 0.500000 0.219590
O O18 0.000000 0.541495 0.257201
#
# Coordination Sequence:
#
# PCOD8281407 Si02
#       7
#    16  16   4  16  16  16  16
#     4  12  24  37  54  75 102 136 176 225 280 336
#     4   9  17  32  55  82 110 145 184 224 266 322
#     4  12  26  36  56  78 100 132 176 228 282 344
#     4   9  17  31  55  87 120 151 183 221 268 323
#     4  11  22  36  53  74 102 136 176 223 274 329
#     4   9  17  31  53  79 103 134 179 225 268 320
#     4  11  22  37  56  80 109 140 181 228 273 323
#
# _framework density 18.741014
#
# number of rings (size 3 to 8) (size 9 to 14) (size 15 to 20)
#    0.000    1.760    3.200    2.160    0.000    3.520 
#    0.000    1.600    0.000    1.920    0.000    3.360 
#    0.000    0.000    0.000    0.000    0.000    0.000 
#
# Total GULP energy -619690.848822 kJ/mol
# GULP energy per Si atom -12393.816976 kJ/mol
# Density = 1.869836 g / cm^3
# Si number density = 18.741014 Si / 1000 Ang^3
#
#
#
# Elastic Constant Matrix: (Units=GPa)
#
#
# Indices 1 2 3 4 5 6 
#
# 1 56.3945 21.6119 37.1166 0.0000 0.0000 0.0000
# 2 21.6119 132.3905 84.3278 0.0000 0.0000 0.0000
# 3 37.1166 84.3278 126.6513 0.0000 0.0000 0.0000
# 4 0.0000 0.0000 0.0000 29.8619 0.0000 0.0000
# 5 0.0000 0.0000 0.0000 0.0000 22.1358 0.0000
# 6 0.0000 0.0000 0.0000 0.0000 0.0000 15.7829
#
#
#
# Elastic Compliance Matrix: (Units=1/GPa)
#
#
# Indices 1 2 3 4 5 6 
#
# 1 0.022031 0.000896 -0.007053 0.000000 0.000000 0.000000
# 2 0.000896 0.013152 -0.009020 0.000000 0.000000 0.000000
# 3 -0.007053 -0.009020 0.015968 0.000000 0.000000 0.000000
# 4 0.000000 0.000000 0.000000 0.033487 0.000000 0.000000
# 5 0.000000 0.000000 0.000000 0.000000 0.045176 0.000000
# 6 0.000000 0.000000 0.000000 0.000000 0.000000 0.063360
#
#
# Mechanical properties :
#
#
# Convention : Reuss Voigt Hill
#
# Bulk Modulus (GPa) = 48.08141 66.83875 57.46008
# Shear Modulus (GPa) = 21.69566 25.04813 23.37190
#
# Velocity S-wave (km/s) = 3.40613 3.65984 3.53526
# Velocity P-wave (km/s) = 6.41719 7.32128 6.88409
#
# Compressibility (1/GPa) = 0.02079806
#
# Stress axis : x y z
#
# Youngs Moduli (GPa) = 45.39089 76.03153 62.62393
#
# Poissons Ratio (x) = -0.06814 0.44169
# Poissons Ratio (y) = -0.04068 0.56486
# Poissons Ratio (z) = 0.32015 0.68579
#
# Static dielectric constant tensor:
#      x y z
#    x 3.164730 0.000000 0.000000 
#    y 0.000000 3.753600 0.000000 
#    z 0.000000 0.000000 4.899160 
# 
# 
# High freq. dielectric constant tensor:
#      x y z
#    x 1.700430 0.000000 0.000000 
#    y 0.000000 1.733350 0.000000 
#    z 0.000000 0.000000 1.715500 
# 
# From -- ./inp_files/37533.got.cif
#   From: 2010.03.12/outbox.cif.g09.slc.cpg/sg67_19_cif.got.tgz:37533.got - 2010.04.10 22:41:39.
