data_PCOD8281917
_publ_section_title
;
Structure prediction by ZEFSAII (Michael W. Deem and Ramdas Pophale) SiO2 
 PCOD8281917
Probable space group: C C C A
;
_chemical_formula_sum "Si O2"
_cell_formula_units_Z 120
_cell_length_a 18.638658
_cell_length_b 22.774048
_cell_length_c 14.594677
_cell_angle_alpha 90.000000
_cell_angle_beta 90.000000
_cell_angle_gamma 90.000000
_cell_volume 6195.114808
_symmetry_space_group_name_H-M "C C C A"
_symmetry_group_IT_number 68
_space_group.IT_coordinate_system_code '2'
_symmetry_cell_setting 'orthorhombic'
loop_
_space_group_symop_operation_xyz
x,y,z
-x,1/2-y,z
x,1/2-y,1/2-z
-x,y,1/2-z
-x,-y,-z
x,1/2+y,-z
-x,1/2+y,1/2+z
x,-y,1/2+z
1/2+x,1/2+y,z
1/2-x,-y,z
1/2+x,-y,1/2-z
1/2-x,1/2+y,1/2-z
1/2-x,1/2-y,-z
1/2+x,y,-z
1/2-x,y,1/2+z
1/2+x,1/2-y,1/2+z
loop_
_atom_site_type_symbol
_atom_site_label
_atom_site_fract_x
_atom_site_fract_y
_atom_site_fract_z
Si Si1 0.257465 0.368731 0.279683
Si Si2 0.778760 0.815428 0.096684
Si Si3 0.326119 0.465306 0.856564
Si Si4 0.005363 0.183858 0.554125
Si Si5 0.000000 0.354185 0.750000
Si Si6 0.883122 0.943369 0.228113
Si Si7 0.166402 0.194770 0.556341
Si Si8 0.111568 0.590414 0.031922
O O1 0.249029 0.319886 0.200985
O O2 0.184843 0.400991 0.311411
O O3 0.302734 0.419937 0.231767
O O4 0.292051 0.343965 0.370905
O O5 0.836028 0.761967 0.092490
O O6 0.818324 0.872283 0.057700
O O7 0.707295 0.803919 0.039648
O O8 0.250000 0.500000 0.874080
O O9 0.382042 0.497196 0.787606
O O10 0.368903 0.454873 0.951370
O O11 0.983108 0.185717 0.661839
O O12 0.954255 0.135016 0.505531
O O13 0.000000 0.250000 0.513419
O O14 0.088434 0.166452 0.541260
O O15 0.066854 0.395250 0.777099
O O16 0.908304 0.949546 0.121598
#
# Coordination Sequence:
#
# PCOD8281917 Si02
#       8
#    16  16  16  16   8  16  16  16
#     4  10  19  35  56  82 112 146 191 235 289 339
#     4  10  21  33  56  86 116 147 192 232 283 348
#     4  10  21  38  58  79 111 156 196 248 288 330
#     4  11  21  33  56  87 121 150 181 230 303 355
#     4  10  19  34  54  80 114 142 183 238 288 350
#     4   9  20  35  53  80 107 141 192 238 280 334
#     4  11  20  35  55  87 119 150 184 236 288 346
#     4  10  20  37  57  86 113 152 194 237 288 355
#
# _framework density 19.370100000000001
#
# number of rings (size 3 to 8) (size 9 to 14) (size 15 to 20)
#    0.000    1.867    4.000    0.600    0.000    3.733 
#    0.000    4.000    0.000    0.000    0.000    0.933 
#    0.000    0.000    0.000    0.000    0.000    0.000 
#
# Total GULP energy -743475.864859 kJ/mol
# GULP energy per Si atom -12391.264414 kJ/mol
# Density = 1.932601 g / cm^3
# Si number density = 19.370100 Si / 1000 Ang^3
#
#
#
# Elastic Constant Matrix: (Units=GPa)
#
#
# Indices 1 2 3 4 5 6 
#
# 1 59.6592 30.2876 30.2806 0.0000 0.0000 0.0000
# 2 30.2876 80.8430 41.3339 0.0000 0.0000 0.0000
# 3 30.2806 41.3339 81.0611 0.0000 0.0000 0.0000
# 4 0.0000 0.0000 0.0000 29.2006 0.0000 0.0000
# 5 0.0000 0.0000 0.0000 0.0000 20.9390 0.0000
# 6 0.0000 0.0000 0.0000 0.0000 0.0000 31.8616
#
#
#
# Elastic Compliance Matrix: (Units=1/GPa)
#
#
# Indices 1 2 3 4 5 6 
#
# 1 0.022392 -0.005563 -0.005528 0.000000 0.000000 0.000000
# 2 -0.005563 0.018114 -0.007158 0.000000 0.000000 0.000000
# 3 -0.005528 -0.007158 0.018052 0.000000 0.000000 0.000000
# 4 0.000000 0.000000 0.000000 0.034246 0.000000 0.000000
# 5 0.000000 0.000000 0.000000 0.000000 0.047758 0.000000
# 6 0.000000 0.000000 0.000000 0.000000 0.000000 0.031386
#
#
# Mechanical properties :
#
#
# Convention : Reuss Voigt Hill
#
# Bulk Modulus (GPa) = 45.33346 47.26309 46.29827
# Shear Modulus (GPa) = 23.16989 24.37765 23.77377
#
# Velocity S-wave (km/s) = 3.46232 3.55141 3.50715
# Velocity P-wave (km/s) = 6.27998 6.42415 6.35247
#
# Compressibility (1/GPa) = 0.02205876
#
# Stress axis : x y z
#
# Youngs Moduli (GPa) = 44.65945 55.20699 55.39687
#
# Poissons Ratio (x) = 0.30709 0.30624
# Poissons Ratio (y) = 0.24842 0.39655
# Poissons Ratio (z) = 0.24688 0.39520
#
# Static dielectric constant tensor:
#      x y z
#    x 3.467050 0.000000 0.000000 
#    y 0.000000 3.546210 0.000000 
#    z 0.000000 0.000000 3.649110 
# 
# 
# High freq. dielectric constant tensor:
#      x y z
#    x 1.738050 0.000000 0.000000 
#    y 0.000000 1.744460 0.000000 
#    z 0.000000 0.000000 1.741930 
# 
# From -- ./inp_files/24856.got.cif
#   From: 2010.03.12/outbox.cif.g09.slc.cpg/sg68_13_cif.got.tgz:24856.got - 2010.04.10 23:14:56.
