data_PCOD8281843
_publ_section_title
;
Structure prediction by ZEFSAII (Michael W. Deem and Ramdas Pophale) SiO2 
 PCOD8281843
Probable space group: C C C A
;
_chemical_formula_sum "Si O2"
_cell_formula_units_Z 68
_cell_length_a 21.593163
_cell_length_b 5.200806
_cell_length_c 36.146992
_cell_angle_alpha 90.000000
_cell_angle_beta 90.000000
_cell_angle_gamma 90.000000
_cell_volume 4059.374135
_symmetry_space_group_name_H-M "C C C A"
_symmetry_group_IT_number 68
_space_group.IT_coordinate_system_code '2'
_symmetry_cell_setting 'orthorhombic'
loop_
_space_group_symop_operation_xyz
x,y,z
-x,1/2-y,z
x,1/2-y,1/2-z
-x,y,1/2-z
-x,-y,-z
x,1/2+y,-z
-x,1/2+y,1/2+z
x,-y,1/2+z
1/2+x,1/2+y,z
1/2-x,-y,z
1/2+x,-y,1/2-z
1/2-x,1/2+y,1/2-z
1/2-x,1/2-y,-z
1/2+x,y,-z
1/2-x,y,1/2+z
1/2+x,1/2-y,1/2+z
loop_
_atom_site_type_symbol
_atom_site_label
_atom_site_fract_x
_atom_site_fract_y
_atom_site_fract_z
Si Si1 0.000000 0.750000 0.750000
Si Si2 0.176438 0.999321 0.852044
Si Si3 0.676484 0.001002 0.395509
Si Si4 0.881690 0.010051 0.227975
Si Si5 0.323881 0.998480 0.021253
O O1 0.955747 0.567758 0.775206
O O2 0.152560 0.745441 0.872936
O O3 0.146306 0.014635 0.812198
O O4 0.250000 0.000000 0.847532
O O5 0.152754 0.242607 0.875430
O O6 0.649618 0.993444 0.437070
O O7 0.750000 0.000000 0.397328
O O8 0.849949 0.250000 0.250000
O O9 0.868070 0.750000 0.250000
O O10 0.250000 0.000000 0.021827
O O11 0.349117 0.250438 0.000475
#
# Coordination Sequence:
#
# PCOD8281843 Si02
#       5
#     4  16  16  16  16
#     4   8  22  36  54  68  90 112 158 190 242 272
#     4  10  19  30  45  66  94 126 153 188 233 274
#     4   9  17  28  40  60  92 124 156 189 226 268
#     4  10  20  34  51  69  89 117 156 190 236 275
#     4   9  15  23  37  56  80 118 162 191 212 251
#
# _framework density 16.751349999999999
#
# number of rings (size 3 to 8) (size 9 to 14) (size 15 to 20)
#    0.706    1.882    0.000    3.176    0.000    6.588 
#    0.000    0.000    0.000    0.000    0.000    0.000 
#    0.000    0.000    0.000   21.176    0.000    9.412 
#
# Total GULP energy -421428.654371 kJ/mol
# GULP energy per Si atom -12394.960423 kJ/mol
# Density = 1.671322 g / cm^3
# Si number density = 16.751350 Si / 1000 Ang^3
#
#
#
# Elastic Constant Matrix: (Units=GPa)
#
#
# Indices 1 2 3 4 5 6 
#
# 1 20.7086 19.2707 27.7230 0.0000 0.0000 0.0000
# 2 19.2707 184.1962 99.0057 0.0000 0.0000 0.0000
# 3 27.7230 99.0057 183.8671 0.0000 0.0000 0.0000
# 4 0.0000 0.0000 0.0000 38.2889 0.0000 0.0000
# 5 0.0000 0.0000 0.0000 0.0000 -4.1493 0.0000
# 6 0.0000 0.0000 0.0000 0.0000 0.0000 5.8520
#
#
#
# Elastic Compliance Matrix: (Units=1/GPa)
#
#
# Indices 1 2 3 4 5 6 
#
# 1 0.061033 -0.002025 -0.008112 0.000000 0.000000 0.000000
# 2 -0.002025 0.007707 -0.003845 0.000000 0.000000 0.000000
# 3 -0.008112 -0.003845 0.008732 0.000000 0.000000 0.000000
# 4 0.000000 0.000000 0.000000 0.026117 0.000000 0.000000
# 5 0.000000 0.000000 0.000000 0.000000 -0.241007 0.000000
# 6 0.000000 0.000000 0.000000 0.000000 0.000000 0.170883
#
#
# Mechanical properties :
#
#
# Convention : Reuss Voigt Hill
#
# Bulk Modulus (GPa) = 20.19840 75.64119 47.91979
# Shear Modulus (GPa) = 64.15783 24.18317 44.17050
#
# Velocity S-wave (km/s) = 6.19542 3.80367 5.14058
# Velocity P-wave (km/s) = 7.95372 8.03392 7.99392
#
# Compressibility (1/GPa) = 0.04950888
#
# Stress axis : x y z
#
# Youngs Moduli (GPa) = 16.38454 129.74417 114.51971
#
# Poissons Ratio (x) = 0.26275 0.92898
# Poissons Ratio (y) = 0.03318 0.44031
# Poissons Ratio (z) = 0.13291 0.49885
#
# Static dielectric constant tensor:
#      x y z
#    x 2.522040 0.000000 0.000000 
#    y 0.000000 3.602220 0.000000 
#    z 0.000000 0.000000 3.246810 
# 
# 
# High freq. dielectric constant tensor:
#      x y z
#    x 1.565150 0.000000 0.000000 
#    y 0.000000 1.670960 0.000000 
#    z 0.000000 0.000000 1.656530 
# 
# From -- ./inp_files/52414.got.cif
#   From: 2010.03.12/outbox.cif.g09.slc.cpg/sg68_27_cif.got.tgz:52414.got - 2010.04.10 23:14:56.
