data_PCOD8281782
_publ_section_title
;
Structure prediction by ZEFSAII (Michael W. Deem and Ramdas Pophale) SiO2 
 PCOD8281782
Probable space group: C C C A
;
_chemical_formula_sum "Si O2"
_cell_formula_units_Z 128
_cell_length_a 14.789277
_cell_length_b 18.224118
_cell_length_c 24.698326
_cell_angle_alpha 90.000000
_cell_angle_beta 90.000000
_cell_angle_gamma 90.000000
_cell_volume 6656.730592
_symmetry_space_group_name_H-M "C C C A"
_symmetry_group_IT_number 68
_space_group.IT_coordinate_system_code '2'
_symmetry_cell_setting 'orthorhombic'
loop_
_space_group_symop_operation_xyz
x,y,z
-x,1/2-y,z
x,1/2-y,1/2-z
-x,y,1/2-z
-x,-y,-z
x,1/2+y,-z
-x,1/2+y,1/2+z
x,-y,1/2+z
1/2+x,1/2+y,z
1/2-x,-y,z
1/2+x,-y,1/2-z
1/2-x,1/2+y,1/2-z
1/2-x,1/2-y,-z
1/2+x,y,-z
1/2-x,y,1/2+z
1/2+x,1/2-y,1/2+z
loop_
_atom_site_type_symbol
_atom_site_label
_atom_site_fract_x
_atom_site_fract_y
_atom_site_fract_z
Si Si1 0.907265 0.948707 0.553264
Si Si2 0.338643 0.954581 0.329630
Si Si3 0.271421 0.764737 0.910727
Si Si4 0.929083 0.597170 0.296627
Si Si5 0.923359 0.599221 0.497106
Si Si6 0.959391 0.326205 0.898999
Si Si7 0.223065 0.648663 0.490929
Si Si8 0.252444 0.189675 0.795755
O O1 0.880053 0.926570 0.613768
O O2 0.840508 0.919261 0.505751
O O3 0.011738 0.923306 0.546427
O O4 0.901097 0.035194 0.545591
O O5 0.319413 0.881361 0.294030
O O6 0.250000 0.000000 0.345538
O O7 0.400776 0.011267 0.295880
O O8 0.351068 0.822939 0.903713
O O9 0.306905 0.685443 0.933169
O O10 0.227766 0.763788 0.851051
O O11 0.206629 0.795055 0.958636
O O12 0.980810 0.613047 0.353369
O O13 0.848292 0.656380 0.289105
O O14 0.000000 0.611704 0.250000
O O15 0.986792 0.653709 0.460564
O O16 0.828803 0.629912 0.519031
O O17 0.000000 0.250000 0.879136
O O18 0.273645 0.250000 0.750000
#
# Coordination Sequence:
#
# PCOD8281782 Si02
#       8
#    16  16  16  16  16  16  16  16
#     4  11  19  33  57  81 114 154 193 235 280 351
#     4  10  19  39  62  81 109 156 201 234 285 359
#     4   9  19  32  53  81 109 149 182 229 290 349
#     4  10  22  35  57  86 113 148 188 245 303 351
#     4  10  21  32  51  87 113 147 195 230 280 359
#     4  10  19  32  51  80 118 144 181 234 296 353
#     4  10  18  34  55  79 117 149 184 235 294 340
#     4  10  21  37  61  86 111 148 202 246 290 359
#
# _framework density 19.228657999999999
#
# number of rings (size 3 to 8) (size 9 to 14) (size 15 to 20)
#    0.000    2.000    2.500    1.875    3.500    0.000 
#    0.000    1.250    0.000    3.375    0.000    0.000 
#    0.000    0.000    0.000    0.000    0.000    0.000 
#
# Total GULP energy -792887.791754 kJ/mol
# GULP energy per Si atom -12388.871746 kJ/mol
# Density = 1.918489 g / cm^3
# Si number density = 19.228658 Si / 1000 Ang^3
#
#
#
# Elastic Constant Matrix: (Units=GPa)
#
#
# Indices 1 2 3 4 5 6 
#
# 1 49.2059 24.3143 24.4521 0.0000 0.0000 0.0000
# 2 24.3143 102.8198 50.2631 0.0000 0.0000 0.0000
# 3 24.4521 50.2631 102.4421 0.0000 0.0000 0.0000
# 4 0.0000 0.0000 0.0000 33.2494 0.0000 0.0000
# 5 0.0000 0.0000 0.0000 0.0000 27.1269 0.0000
# 6 0.0000 0.0000 0.0000 0.0000 0.0000 27.8243
#
#
#
# Elastic Compliance Matrix: (Units=1/GPa)
#
#
# Indices 1 2 3 4 5 6 
#
# 1 0.024138 -0.003804 -0.003895 0.000000 0.000000 0.000000
# 2 -0.003804 0.013394 -0.005664 0.000000 0.000000 0.000000
# 3 -0.003895 -0.005664 0.013470 0.000000 0.000000 0.000000
# 4 0.000000 0.000000 0.000000 0.030076 0.000000 0.000000
# 5 0.000000 0.000000 0.000000 0.000000 0.036864 0.000000
# 6 0.000000 0.000000 0.000000 0.000000 0.000000 0.035940
#
#
# Mechanical properties :
#
#
# Convention : Reuss Voigt Hill
#
# Bulk Modulus (GPa) = 41.19189 50.28074 45.73631
# Shear Modulus (GPa) = 26.49714 28.00267 27.24991
#
# Velocity S-wave (km/s) = 3.71617 3.82029 3.76859
# Velocity P-wave (km/s) = 6.31521 6.75760 6.54014
#
# Compressibility (1/GPa) = 0.02427663
#
# Stress axis : x y z
#
# Youngs Moduli (GPa) = 41.42836 74.66028 74.23745
#
# Poissons Ratio (x) = 0.28400 0.28917
# Poissons Ratio (y) = 0.15759 0.42047
# Poissons Ratio (z) = 0.16137 0.42286
#
# Static dielectric constant tensor:
#      x y z
#    x 3.302760 0.000000 0.000000 
#    y 0.000000 3.612340 0.000000 
#    z 0.000000 0.000000 3.483920 
# 
# 
# High freq. dielectric constant tensor:
#      x y z
#    x 1.724770 0.000000 0.000000 
#    y 0.000000 1.752500 0.000000 
#    z 0.000000 0.000000 1.731860 
# 
# From -- ./inp_files/46195.got.cif
#   From: 2010.03.12/outbox.cif.g09.slc.cpg/sg68_24_cif.got.tgz:46195.got - 2010.04.10 23:14:56.
