data_PCOD8281401
_publ_section_title
;
Structure prediction by ZEFSAII (Michael W. Deem and Ramdas Pophale) SiO2 
 PCOD8281401
Probable space group: C M M A
;
_chemical_formula_sum "Si O2"
_cell_formula_units_Z 96
_cell_length_a 16.450898
_cell_length_b 18.397550
_cell_length_c 16.518342
_cell_angle_alpha 90.000000
_cell_angle_beta 90.000000
_cell_angle_gamma 90.000000
_cell_volume 4999.378926
_symmetry_space_group_name_H-M "C M M A"
_symmetry_group_IT_number 67
_symmetry_cell_setting 'orthorhombic'
loop_
_space_group_symop_operation_xyz
x,y,z
-x,1/2-y,z
x,-y,-z
-x,1/2+y,-z
-x,-y,-z
x,1/2+y,-z
-x,y,z
x,1/2-y,z
1/2+x,1/2+y,z
1/2-x,-y,z
1/2+x,1/2-y,-z
1/2-x,y,-z
1/2-x,1/2-y,-z
1/2+x,y,-z
1/2-x,1/2+y,z
1/2+x,-y,z
loop_
_atom_site_type_symbol
_atom_site_label
_atom_site_fract_x
_atom_site_fract_y
_atom_site_fract_z
Si Si1 0.838540 0.467467 0.747760
Si Si2 0.093652 0.097657 0.170366
Si Si3 0.596584 0.830809 0.012108
Si Si4 0.596504 0.829964 0.331107
Si Si5 0.903742 0.974209 0.586999
Si Si6 0.404590 0.834617 0.831585
O O1 0.750000 0.500000 0.763060
O O2 0.897314 0.513065 0.807543
O O3 0.862657 0.474775 0.653977
O O4 0.849329 0.383109 0.771456
O O5 0.133081 0.117210 0.082933
O O6 0.132305 0.145352 0.243769
O O7 0.000000 0.118006 0.163663
O O8 0.500000 0.830976 0.011203
O O9 0.628856 0.750000 0.030912
O O10 0.624472 0.855250 0.922676
O O11 0.500000 0.827403 0.325386
O O12 0.630971 0.750000 0.354237
O O13 0.621960 0.889852 0.398299
O O14 0.000000 0.984101 0.593921
O O15 0.871117 0.000000 0.500000
O O16 0.500000 0.851246 0.818247
O O17 0.387121 0.750000 0.813396
#
# Coordination Sequence:
#
# PCOD8281401 Si02
#       6
#    16  16  16  16  16  16
#     4  11  22  35  50  73 104 136 170 210 262 319
#     4   9  16  28  48  72  98 131 172 216 259 305
#     4   8  14  26  48  77 102 128 170 221 264 298
#     4   8  13  23  43  72 101 123 148 191 246 301
#     4   9  18  34  55  76  98 126 164 211 261 316
#     4   9  18  35  57  77 102 139 183 226 260 300
#
# _framework density 19.202383999999999
#
# number of rings (size 3 to 8) (size 9 to 14) (size 15 to 20)
#    0.000    3.000    0.000    4.000    0.000    3.000 
#    0.000    9.167    0.000    5.000    0.000    5.833 
#    0.000    0.000    0.000    0.000    0.000    0.000 
#
# Total GULP energy -594786.192106 kJ/mol
# GULP energy per Si atom -12391.379002 kJ/mol
# Density = 1.915868 g / cm^3
# Si number density = 19.202384 Si / 1000 Ang^3
#
#
#
# Elastic Constant Matrix: (Units=GPa)
#
#
# Indices 1 2 3 4 5 6 
#
# 1 27.5128 22.6355 28.1183 0.0000 0.0000 0.0000
# 2 22.6355 133.8447 88.2239 0.0000 0.0000 0.0000
# 3 28.1183 88.2239 143.6643 0.0000 0.0000 0.0000
# 4 0.0000 0.0000 0.0000 29.3677 0.0000 0.0000
# 5 0.0000 0.0000 0.0000 0.0000 6.6922 0.0000
# 6 0.0000 0.0000 0.0000 0.0000 0.0000 15.9334
#
#
#
# Elastic Compliance Matrix: (Units=1/GPa)
#
#
# Indices 1 2 3 4 5 6 
#
# 1 0.046194 -0.003113 -0.007130 0.000000 0.000000 0.000000
# 2 -0.003113 0.012762 -0.007228 0.000000 0.000000 0.000000
# 3 -0.007130 -0.007228 0.012795 0.000000 0.000000 0.000000
# 4 0.000000 0.000000 0.000000 0.034051 0.000000 0.000000
# 5 0.000000 0.000000 0.000000 0.000000 0.149428 0.000000
# 6 0.000000 0.000000 0.000000 0.000000 0.000000 0.062761
#
#
# Mechanical properties :
#
#
# Convention : Reuss Voigt Hill
#
# Bulk Modulus (GPa) = 27.16624 64.77524 45.97074
# Shear Modulus (GPa) = 13.69102 21.46825 17.57963
#
# Velocity S-wave (km/s) = 2.67308 3.34728 3.02899
# Velocity P-wave (km/s) = 4.86879 6.98177 6.01873
#
# Compressibility (1/GPa) = 0.03681040
#
# Stress axis : x y z
#
# Youngs Moduli (GPa) = 21.64769 78.35731 78.15679
#
# Poissons Ratio (x) = 0.24390 0.55724
# Poissons Ratio (y) = 0.06738 0.56491
# Poissons Ratio (z) = 0.15434 0.56636
#
# Static dielectric constant tensor:
#      x y z
#    x 3.027720 0.000000 0.000000 
#    y 0.000000 3.651080 0.000000 
#    z 0.000000 0.000000 3.624670 
# 
# 
# High freq. dielectric constant tensor:
#      x y z
#    x 1.700190 0.000000 0.000000 
#    y 0.000000 1.743640 0.000000 
#    z 0.000000 0.000000 1.739680 
# 
# From -- ./inp_files/34238.got.cif
#   From: 2010.03.12/outbox.cif.g09.slc.cpg/sg67_18_cif.got.tgz:34238.got - 2010.04.10 22:41:39.
