data_PCOD8281768
_publ_section_title
;
Structure prediction by ZEFSAII (Michael W. Deem and Ramdas Pophale) SiO2 
 PCOD8281768
Probable space group: C C C A
;
_chemical_formula_sum "Si O2"
_cell_formula_units_Z 80
_cell_length_a 25.444027
_cell_length_b 16.217689
_cell_length_c 8.255772
_cell_angle_alpha 90.000000
_cell_angle_beta 90.000000
_cell_angle_gamma 90.000000
_cell_volume 3406.689141
_symmetry_space_group_name_H-M "C C C A"
_symmetry_group_IT_number 68
_space_group.IT_coordinate_system_code '2'
_symmetry_cell_setting 'orthorhombic'
loop_
_space_group_symop_operation_xyz
x,y,z
-x,1/2-y,z
x,1/2-y,1/2-z
-x,y,1/2-z
-x,-y,-z
x,1/2+y,-z
-x,1/2+y,1/2+z
x,-y,1/2+z
1/2+x,1/2+y,z
1/2-x,-y,z
1/2+x,-y,1/2-z
1/2-x,1/2+y,1/2-z
1/2-x,1/2-y,-z
1/2+x,y,-z
1/2-x,y,1/2+z
1/2+x,1/2-y,1/2+z
loop_
_atom_site_type_symbol
_atom_site_label
_atom_site_fract_x
_atom_site_fract_y
_atom_site_fract_z
Si Si1 0.779032 0.914054 0.934852
Si Si2 0.111469 0.068858 0.903534
Si Si3 0.007179 0.907410 0.559464
Si Si4 0.301229 0.173205 0.868879
Si Si5 0.399443 0.110740 0.031887
O O1 0.833100 0.903303 0.028935
O O2 0.742995 0.836430 0.991849
O O3 0.750000 0.000000 0.966771
O O4 0.792220 0.907324 0.744481
O O5 0.113611 0.090019 0.715378
O O6 0.064790 0.120241 0.995609
O O7 0.103522 0.971460 0.922639
O O8 0.000000 0.899610 0.750000
O O9 0.959220 0.854051 0.480948
O O10 0.000000 0.000000 0.500000
O O11 0.295276 0.250000 0.750000
O O12 0.357958 0.175174 0.957025
#
# Coordination Sequence:
#
# PCOD8281768 Si02
#       5
#    16  16  16  16  16
#     4  12  24  41  66  94 127 172 229 279 332 399
#     4  11  21  36  63  96 129 166 221 284 329 392
#     4  10  18  32  57  93 131 164 208 269 335 389
#     4  12  26  43  63  95 136 180 225 278 347 413
#     4  11  21  37  60  94 132 171 216 271 343 401
#
# _framework density 23.483211000000001
#
# number of rings (size 3 to 8) (size 9 to 14) (size 15 to 20)
#    0.000    0.800    2.000   10.200    0.000    0.000 
#    0.000    0.000    0.000    5.400    0.000    5.600 
#    0.000    0.000    0.000    0.000    0.000    0.000 
#
# Total GULP energy -495814.163651 kJ/mol
# GULP energy per Si atom -12395.354091 kJ/mol
# Density = 2.342976 g / cm^3
# Si number density = 23.483211 Si / 1000 Ang^3
#
#
#
# Elastic Constant Matrix: (Units=GPa)
#
#
# Indices 1 2 3 4 5 6 
#
# 1 215.8219 21.7116 45.0778 0.0000 0.0000 0.0000
# 2 21.7116 36.1181 10.4076 0.0000 0.0000 0.0000
# 3 45.0778 10.4076 145.7624 0.0000 0.0000 0.0000
# 4 0.0000 0.0000 0.0000 16.0712 0.0000 0.0000
# 5 0.0000 0.0000 0.0000 0.0000 46.8864 0.0000
# 6 0.0000 0.0000 0.0000 0.0000 0.0000 12.8671
#
#
#
# Elastic Compliance Matrix: (Units=1/GPa)
#
#
# Indices 1 2 3 4 5 6 
#
# 1 0.005203 -0.002720 -0.001415 0.000000 0.000000 0.000000
# 2 -0.002720 0.029690 -0.001279 0.000000 0.000000 0.000000
# 3 -0.001415 -0.001279 0.007389 0.000000 0.000000 0.000000
# 4 0.000000 0.000000 0.000000 0.062223 0.000000 0.000000
# 5 0.000000 0.000000 0.000000 0.000000 0.021328 0.000000
# 6 0.000000 0.000000 0.000000 0.000000 0.000000 0.077718
#
#
# Mechanical properties :
#
#
# Convention : Reuss Voigt Hill
#
# Bulk Modulus (GPa) = 31.79080 61.34405 46.56742
# Shear Modulus (GPa) = 22.23577 36.53196 29.38386
#
# Velocity S-wave (km/s) = 3.08048 3.94847 3.54117
# Velocity P-wave (km/s) = 5.12050 6.85321 6.04921
#
# Compressibility (1/GPa) = 0.03145564
#
# Stress axis : x y z
#
# Youngs Moduli (GPa) = 192.21382 33.68093 135.33078
#
# Poissons Ratio (x) = 0.09160 0.19146
# Poissons Ratio (y) = 0.52277 0.17307
# Poissons Ratio (z) = 0.27193 0.04307
#
# Static dielectric constant tensor:
#      x y z
#    x 5.316610 0.000000 0.000000 
#    y 0.000000 3.643110 0.000000 
#    z 0.000000 0.000000 4.478190 
# 
# 
# High freq. dielectric constant tensor:
#      x y z
#    x 1.963440 0.000000 0.000000 
#    y 0.000000 1.866360 0.000000 
#    z 0.000000 0.000000 1.951060 
# 
# From -- ./inp_files/8778.got.cif
#   From: 2010.03.12/outbox.cif.g09.slc.cpg/sg68_5_cif.got.tgz:8778.got - 2010.04.10 23:14:56.
