data_PCOD8281089
_publ_section_title
;
Structure prediction by ZEFSAII (Michael W. Deem and Ramdas Pophale) SiO2 
 PCOD8281089
Probable space group: C M M A
;
_chemical_formula_sum "Si O2"
_cell_formula_units_Z 112
_cell_length_a 29.059721
_cell_length_b 13.969871
_cell_length_c 12.057700
_cell_angle_alpha 90.000000
_cell_angle_beta 90.000000
_cell_angle_gamma 90.000000
_cell_volume 4894.950568
_symmetry_space_group_name_H-M "C M M A"
_symmetry_group_IT_number 67
_symmetry_cell_setting 'orthorhombic'
loop_
_space_group_symop_operation_xyz
x,y,z
-x,1/2-y,z
x,-y,-z
-x,1/2+y,-z
-x,-y,-z
x,1/2+y,-z
-x,y,z
x,1/2-y,z
1/2+x,1/2+y,z
1/2-x,-y,z
1/2+x,1/2-y,-z
1/2-x,y,-z
1/2-x,1/2-y,-z
1/2+x,y,-z
1/2-x,1/2+y,z
1/2+x,-y,z
loop_
_atom_site_type_symbol
_atom_site_label
_atom_site_fract_x
_atom_site_fract_y
_atom_site_fract_z
Si Si1 0.551195 0.448435 0.759789
Si Si2 0.351223 0.647870 0.833804
Si Si3 0.106417 0.861342 0.557962
Si Si4 0.568213 0.646246 0.675864
Si Si5 0.204138 0.035221 0.184721
Si Si6 0.788920 0.137123 0.413107
Si Si7 0.120794 0.361509 0.075282
O O1 0.500000 0.401201 0.762610
O O2 0.583360 0.413858 0.660864
O O3 0.542666 0.562632 0.744186
O O4 0.579061 0.422565 0.871579
O O5 0.325066 0.750000 0.857040
O O6 0.383619 0.666884 0.731242
O O7 0.319929 0.564502 0.789348
O O8 0.380108 0.619024 0.943898
O O9 0.102970 0.750000 0.583534
O O10 0.077486 0.889534 0.449460
O O11 0.159869 0.891391 0.544678
O O12 0.541490 0.750000 0.675471
O O13 0.220432 0.085905 0.296894
O O14 0.171286 0.105182 0.115552
O O15 0.250000 0.000000 0.118433
O O16 0.784692 0.250000 0.394209
O O17 0.750000 0.101980 0.500000
O O18 0.113998 0.250000 0.105851
#
# Coordination Sequence:
#
# PCOD8281089 Si02
#       7
#    16  16  16  16  16  16  16
#     4  12  25  42  71 105 137 181 236 295 357 426
#     4  10  23  44  70  97 133 183 233 283 348 423
#     4  10  21  40  67  97 134 178 229 287 347 414
#     4  10  22  41  65  94 132 179 224 278 343 415
#     4  12  25  40  67 102 136 179 231 283 351 422
#     4  10  22  40  65  99 139 182 228 284 350 414
#     4  11  24  46  72  98 136 179 230 299 359 412
#
# _framework density 22.880723
#
# number of rings (size 3 to 8) (size 9 to 14) (size 15 to 20)
#    0.000    1.286    2.857    1.714    2.000    5.143 
#    0.000    4.286    0.000    3.000    0.000    0.000 
#    0.000    0.000    0.000    0.000    0.000    0.000 
#
# Total GULP energy -693904.740792 kJ/mol
# GULP energy per Si atom -12391.156086 kJ/mol
# Density = 2.282865 g / cm^3
# Si number density = 22.880723 Si / 1000 Ang^3
#
#
#
# Elastic Constant Matrix: (Units=GPa)
#
#
# Indices 1 2 3 4 5 6 
#
# 1 122.6347 28.3555 8.2005 0.0000 0.0000 0.0000
# 2 28.3555 76.9098 20.1527 0.0000 0.0000 0.0000
# 3 8.2005 20.1527 65.0145 0.0000 0.0000 0.0000
# 4 0.0000 0.0000 0.0000 51.9669 0.0000 0.0000
# 5 0.0000 0.0000 0.0000 0.0000 0.3446 0.0000
# 6 0.0000 0.0000 0.0000 0.0000 0.0000 -2.9823
#
#
#
# Elastic Compliance Matrix: (Units=1/GPa)
#
#
# Indices 1 2 3 4 5 6 
#
# 1 0.008915 -0.003257 -0.000115 0.000000 0.000000 0.000000
# 2 -0.003257 0.015341 -0.004345 0.000000 0.000000 0.000000
# 3 -0.000115 -0.004345 0.016742 0.000000 0.000000 0.000000
# 4 0.000000 0.000000 0.000000 0.019243 0.000000 0.000000
# 5 0.000000 0.000000 0.000000 0.000000 2.902101 0.000000
# 6 0.000000 0.000000 0.000000 0.000000 0.000000 -0.335315
#
#
# Mechanical properties :
#
#
# Convention : Reuss Voigt Hill
#
# Bulk Modulus (GPa) = 39.11423 41.99738 40.55580
# Shear Modulus (GPa) = 1.88609 23.72254 12.80432
#
# Velocity S-wave (km/s) = 0.90890 3.22342 2.36818
# Velocity P-wave (km/s) = 4.27006 5.67879 5.02405
#
# Compressibility (1/GPa) = 0.02556614
#
# Stress axis : x y z
#
# Youngs Moduli (GPa) = 112.17051 65.18326 59.72864
#
# Poissons Ratio (x) = 0.21228 0.00687
# Poissons Ratio (y) = 0.36531 0.25950
# Poissons Ratio (z) = 0.01290 0.28320
#
# Static dielectric constant tensor:
#      x y z
#    x 4.143170 0.000000 0.000000 
#    y 0.000000 5.334220 0.000000 
#    z 0.000000 0.000000 4.051710 
# 
# 
# High freq. dielectric constant tensor:
#      x y z
#    x 1.886950 0.000000 0.000000 
#    y 0.000000 1.930750 0.000000 
#    z 0.000000 0.000000 1.899000 
# 
# From -- ./inp_files/18625.got.cif
#   From: 2010.03.12/outbox.cif.g09.slc.cpg/sg67_10_cif.got.tgz:18625.got - 2010.04.10 22:41:39.
