data_PCOD8281582
_publ_section_title
;
Structure prediction by ZEFSAII (Michael W. Deem and Ramdas Pophale) SiO2 
 PCOD8281582
Probable space group: C M M A
;
_chemical_formula_sum "Si O2"
_cell_formula_units_Z 96
_cell_length_a 9.303757
_cell_length_b 19.382389
_cell_length_c 31.363123
_cell_angle_alpha 90.000000
_cell_angle_beta 90.000000
_cell_angle_gamma 90.000000
_cell_volume 5655.681778
_symmetry_space_group_name_H-M "C M M A"
_symmetry_group_IT_number 67
_symmetry_cell_setting 'orthorhombic'
loop_
_space_group_symop_operation_xyz
x,y,z
-x,1/2-y,z
x,-y,-z
-x,1/2+y,-z
-x,-y,-z
x,1/2+y,-z
-x,y,z
x,1/2-y,z
1/2+x,1/2+y,z
1/2-x,-y,z
1/2+x,1/2-y,-z
1/2-x,y,-z
1/2-x,1/2-y,-z
1/2+x,y,-z
1/2-x,1/2+y,z
1/2+x,-y,z
loop_
_atom_site_type_symbol
_atom_site_label
_atom_site_fract_x
_atom_site_fract_y
_atom_site_fract_z
Si Si1 0.664146 0.569012 0.208919
Si Si2 0.832222 0.670353 0.623346
Si Si3 0.162687 0.667899 0.459589
Si Si4 0.332123 0.428204 0.698794
Si Si5 0.168445 0.670950 0.958077
Si Si6 0.831833 0.571911 0.883308
O O1 0.500000 0.546625 0.209109
O O2 0.750000 0.500000 0.208554
O O3 0.699153 0.606579 0.254141
O O4 0.698049 0.607030 0.163762
O O5 0.798067 0.750000 0.633117
O O6 0.742254 0.642815 0.583113
O O7 0.779984 0.627021 0.664128
O O8 0.000000 0.659862 0.613166
O O9 0.161578 0.750000 0.461569
O O10 0.250000 0.638040 0.500000
O O11 0.000000 0.638956 0.460278
O O12 0.500000 0.443960 0.693030
O O13 0.250000 0.500000 0.692453
O O14 0.208596 0.750000 0.948170
O O15 0.223527 0.626106 0.918208
O O16 0.000000 0.661808 0.966016
O O17 0.250000 0.644292 0.000000
O O18 0.750000 0.500000 0.889115
O O19 0.000000 0.556883 0.889518
#
# Coordination Sequence:
#
# PCOD8281582 Si02
#       6
#    16  16  16  16  16  16
#     4   8  14  26  43  63  86 112 143 177 214 256
#     4   9  17  29  44  64  91 118 144 178 218 258
#     4   9  16  26  42  64  88 115 147 181 218 260
#     4   9  17  29  46  66  88 117 150 180 213 257
#     4   9  18  32  47  63  86 117 149 179 215 261
#     4   9  17  29  46  67  89 112 142 182 222 258
#
# _framework density 16.974081999999999
#
# number of rings (size 3 to 8) (size 9 to 14) (size 15 to 20)
#    0.000    3.167    0.000    0.500    0.000    3.667 
#    0.000    2.500    0.000    5.500    0.000    3.500 
#    0.000   18.667    0.000    0.000    0.000    0.000 
#
# Total GULP energy -594662.857221 kJ/mol
# GULP energy per Si atom -12388.809525 kJ/mol
# Density = 1.693545 g / cm^3
# Si number density = 16.974082 Si / 1000 Ang^3
#
#
#
# Elastic Constant Matrix: (Units=GPa)
#
#
# Indices 1 2 3 4 5 6 
#
# 1 53.2661 26.0799 61.1671 0.0000 0.0000 0.0000
# 2 26.0799 53.2692 68.5490 0.0000 0.0000 0.0000
# 3 61.1671 68.5490 205.9454 0.0000 0.0000 0.0000
# 4 0.0000 0.0000 0.0000 28.1819 0.0000 0.0000
# 5 0.0000 0.0000 0.0000 0.0000 24.5346 0.0000
# 6 0.0000 0.0000 0.0000 0.0000 0.0000 17.6784
#
#
#
# Elastic Compliance Matrix: (Units=1/GPa)
#
#
# Indices 1 2 3 4 5 6 
#
# 1 0.029391 -0.005521 -0.006892 0.000000 0.000000 0.000000
# 2 -0.005521 0.033875 -0.009636 0.000000 0.000000 0.000000
# 3 -0.006892 -0.009636 0.010110 0.000000 0.000000 0.000000
# 4 0.000000 0.000000 0.000000 0.035484 0.000000 0.000000
# 5 0.000000 0.000000 0.000000 0.000000 0.040759 0.000000
# 6 0.000000 0.000000 0.000000 0.000000 0.000000 0.056566
#
#
# Mechanical properties :
#
#
# Convention : Reuss Voigt Hill
#
# Bulk Modulus (GPa) = 34.15394 69.34142 51.74768
# Shear Modulus (GPa) = 19.22785 24.52464 21.87625
#
# Velocity S-wave (km/s) = 3.36933 3.80521 3.59388
# Velocity P-wave (km/s) = 5.94150 7.76185 6.91186
#
# Compressibility (1/GPa) = 0.02927920
#
# Stress axis : x y z
#
# Youngs Moduli (GPa) = 34.02455 29.52040 98.91509
#
# Poissons Ratio (x) = 0.16298 0.68168
# Poissons Ratio (y) = 0.18784 0.95310
# Poissons Ratio (z) = 0.23448 0.28444
#
# Static dielectric constant tensor:
#      x y z
#    x 3.176810 0.000000 0.000000 
#    y 0.000000 2.711990 0.000000 
#    z 0.000000 0.000000 3.905010 
# 
# 
# High freq. dielectric constant tensor:
#      x y z
#    x 1.655030 0.000000 0.000000 
#    y 0.000000 1.602360 0.000000 
#    z 0.000000 0.000000 1.679810 
# 
# From -- ./inp_files/42561.got.cif
#   From: 2010.03.12/outbox.cif.g09.slc.cpg/sg67_22_cif.got.tgz:42561.got - 2010.04.10 22:41:39.
