data_PCOD8281359
_publ_section_title
;
Structure prediction by ZEFSAII (Michael W. Deem and Ramdas Pophale) SiO2 
 PCOD8281359
Probable space group: C M M A
;
_chemical_formula_sum "Si O2"
_cell_formula_units_Z 96
_cell_length_a 26.502211
_cell_length_b 14.591527
_cell_length_c 11.822334
_cell_angle_alpha 90.000000
_cell_angle_beta 90.000000
_cell_angle_gamma 90.000000
_cell_volume 4571.787913
_symmetry_space_group_name_H-M "C M M A"
_symmetry_group_IT_number 67
_symmetry_cell_setting 'orthorhombic'
loop_
_space_group_symop_operation_xyz
x,y,z
-x,1/2-y,z
x,-y,-z
-x,1/2+y,-z
-x,-y,-z
x,1/2+y,-z
-x,y,z
x,1/2-y,z
1/2+x,1/2+y,z
1/2-x,-y,z
1/2+x,1/2-y,-z
1/2-x,y,-z
1/2-x,1/2-y,-z
1/2+x,y,-z
1/2-x,1/2+y,z
1/2+x,-y,z
loop_
_atom_site_type_symbol
_atom_site_label
_atom_site_fract_x
_atom_site_fract_y
_atom_site_fract_z
Si Si1 0.500000 0.355765 0.643007
Si Si2 0.127969 0.647939 0.220102
Si Si3 0.837488 0.847287 0.770655
Si Si4 0.400310 0.019372 0.626211
Si Si5 0.739135 0.105640 0.125924
Si Si6 0.500000 0.648846 0.096528
Si Si7 0.103481 0.399720 0.015795
O O1 0.500000 0.250000 0.586309
O O2 0.548296 0.420783 0.615650
O O3 0.500000 0.333661 0.772225
O O4 0.127222 0.750000 0.275194
O O5 0.099017 0.577314 0.304620
O O6 0.184110 0.621539 0.178695
O O7 0.097229 0.652165 0.102837
O O8 0.852433 0.750000 0.715376
O O9 0.856783 0.925035 0.688229
O O10 0.777397 0.850714 0.783815
O O11 0.861179 0.848414 0.896082
O O12 0.381604 0.000000 0.500000
O O13 0.750000 0.000000 0.118196
O O14 0.750000 0.147895 0.000000
O O15 0.500000 0.750000 0.038384
O O16 0.451937 0.588556 0.066596
O O17 0.127837 0.500000 0.000000
#
# Coordination Sequence:
#
# PCOD8281359 Si02
#       7
#     8  16  16  16  16   8  16
#     4  11  23  46  78 104 128 168 231 288 334 403
#     4  12  25  42  65 101 144 183 225 281 345 407
#     4  12  23  40  68  99 131 174 227 282 343 407
#     4  12  27  48  69  97 134 179 235 286 336 394
#     4  11  21  38  66 102 139 179 229 279 341 412
#     4  11  21  34  59  98 133 167 212 263 331 418
#     4  12  21  38  61  95 136 174 213 274 347 413
#
# _framework density 20.998349000000001
#
# number of rings (size 3 to 8) (size 9 to 14) (size 15 to 20)
#    0.000    0.333    6.667    3.000    0.000    2.667 
#    0.000    2.917    0.000    2.000    0.000    0.000 
#    0.000    0.000    0.000    0.000    0.000    0.000 
#
# Total GULP energy -594682.437539 kJ/mol
# GULP energy per Si atom -12389.217449 kJ/mol
# Density = 2.095056 g / cm^3
# Si number density = 20.998349 Si / 1000 Ang^3
#
#
#
# Elastic Constant Matrix: (Units=GPa)
#
#
# Indices 1 2 3 4 5 6 
#
# 1 76.4557 20.7086 12.3280 0.0000 0.0000 0.0000
# 2 20.7086 154.9613 36.1542 0.0000 0.0000 0.0000
# 3 12.3280 36.1542 109.2063 0.0000 0.0000 0.0000
# 4 0.0000 0.0000 0.0000 -7.6912 0.0000 0.0000
# 5 0.0000 0.0000 0.0000 0.0000 17.2259 0.0000
# 6 0.0000 0.0000 0.0000 0.0000 0.0000 -152.7305
#
#
#
# Elastic Compliance Matrix: (Units=1/GPa)
#
#
# Indices 1 2 3 4 5 6 
#
# 1 0.013674 -0.001590 -0.001017 0.000000 0.000000 0.000000
# 2 -0.001590 0.007178 -0.002197 0.000000 0.000000 0.000000
# 3 -0.001017 -0.002197 0.009999 0.000000 0.000000 0.000000
# 4 0.000000 0.000000 0.000000 -0.130019 0.000000 0.000000
# 5 0.000000 0.000000 0.000000 0.000000 0.058052 0.000000
# 6 0.000000 0.000000 0.000000 0.000000 0.000000 -0.006547
#
#
# Mechanical properties :
#
#
# Convention : Reuss Voigt Hill
#
# Bulk Modulus (GPa) = 47.07411 53.22276 50.14843
# Shear Modulus (GPa) = -161.43147 -10.54366 -85.98757
#
# Velocity S-wave (km/s) = -8.77753 -2.24323 -6.40614
# Velocity P-wave (km/s) = 8.95880 4.32339 5.54835
#
# Compressibility (1/GPa) = 0.02124310
#
# Stress axis : x y z
#
# Youngs Moduli (GPa) = 73.13062 139.30891 100.00847
#
# Poissons Ratio (x) = 0.22151 0.10173
# Poissons Ratio (y) = 0.11628 0.21972
# Poissons Ratio (z) = 0.07439 0.30606
#
# Static dielectric constant tensor:
#      x y z
#    x 3.940120 0.000000 0.000000 
#    y 0.000000 4.306010 0.000000 
#    z 0.000000 0.000000 3.608840 
# 
# 
# High freq. dielectric constant tensor:
#      x y z
#    x 1.824930 0.000000 0.000000 
#    y 0.000000 1.846070 0.000000 
#    z 0.000000 0.000000 1.786210 
# 
# From -- ./inp_files/23756.got.cif
#   From: 2010.03.12/outbox.cif.g09.slc.cpg/sg67_12_cif.got.tgz:23756.got - 2010.04.10 22:41:39.
