data_PCOD8281468
_publ_section_title
;
Structure prediction by ZEFSAII (Michael W. Deem and Ramdas Pophale) SiO2 
 PCOD8281468
Probable space group: C M M A
;
_chemical_formula_sum "Si O2"
_cell_formula_units_Z 96
_cell_length_a 24.443403
_cell_length_b 14.055007
_cell_length_c 13.655585
_cell_angle_alpha 90.000000
_cell_angle_beta 90.000000
_cell_angle_gamma 90.000000
_cell_volume 4691.406273
_symmetry_space_group_name_H-M "C M M A"
_symmetry_group_IT_number 67
_symmetry_cell_setting 'orthorhombic'
loop_
_space_group_symop_operation_xyz
x,y,z
-x,1/2-y,z
x,-y,-z
-x,1/2+y,-z
-x,-y,-z
x,1/2+y,-z
-x,y,z
x,1/2-y,z
1/2+x,1/2+y,z
1/2-x,-y,z
1/2+x,1/2-y,-z
1/2-x,y,-z
1/2-x,1/2-y,-z
1/2+x,y,-z
1/2-x,1/2+y,z
1/2+x,-y,z
loop_
_atom_site_type_symbol
_atom_site_label
_atom_site_fract_x
_atom_site_fract_y
_atom_site_fract_z
Si Si1 0.208560 0.250000 0.587608
Si Si2 0.303175 0.050588 0.798676
Si Si3 0.439928 0.914196 0.735158
Si Si4 0.914750 0.546843 0.896897
Si Si5 0.254048 0.250000 0.790353
Si Si6 0.062081 0.250000 0.035294
Si Si7 0.347104 0.547333 0.604997
Si Si8 0.373464 0.750000 0.837414
O O1 0.250000 0.250000 0.500000
O O2 0.249954 0.250000 0.675540
O O3 0.171564 0.343783 0.594109
O O4 0.352130 0.024164 0.870803
O O5 0.291948 0.161224 0.815053
O O6 0.250000 0.000000 0.840634
O O7 0.313965 0.013640 0.686961
O O8 0.500000 0.870270 0.710935
O O9 0.411250 0.952224 0.635899
O O10 0.396747 0.841398 0.782183
O O11 0.450706 0.999461 0.811631
O O12 0.928473 0.658310 0.897138
O O13 0.930323 0.500000 0.000000
O O14 0.192842 0.250000 0.838348
O O15 0.000000 0.250000 0.992829
O O16 0.105712 0.250000 0.948121
O O17 0.339149 0.500000 0.500000
#
# Coordination Sequence:
#
# PCOD8281468 Si02
#       8
#     8  16  16  16   8   8  16   8
#     4  12  22  36  61  89 121 160 204 258 305 352
#     4  11  23  40  62  88 128 170 201 252 307 363
#     4  11  22  41  67  90 126 165 202 262 317 357
#     4  11  24  41  60  93 124 161 215 252 302 375
#     4  12  21  40  59  85 128 162 201 251 308 366
#     4  12  25  41  64  91 122 160 210 264 308 361
#     4  11  24  41  62  95 126 159 214 254 300 380
#     4  12  22  39  62  97 122 155 212 259 303 370
#
# _framework density 20.462948000000001
#
# number of rings (size 3 to 8) (size 9 to 14) (size 15 to 20)
#    0.000    0.667    5.000    3.750    0.000    1.333 
#    0.000    1.667    0.000    0.000    0.000    0.000 
#    0.000    0.000    0.000    0.000    0.000    0.000 
#
# Total GULP energy -594964.248773 kJ/mol
# GULP energy per Si atom -12395.088516 kJ/mol
# Density = 2.041637 g / cm^3
# Si number density = 20.462948 Si / 1000 Ang^3
#
#
#
# Elastic Constant Matrix: (Units=GPa)
#
#
# Indices 1 2 3 4 5 6 
#
# 1 118.1712 18.0174 17.7765 0.0000 0.0000 0.0000
# 2 18.0174 136.5477 16.5284 0.0000 0.0000 0.0000
# 3 17.7765 16.5284 55.3196 0.0000 0.0000 0.0000
# 4 0.0000 0.0000 0.0000 9.9849 0.0000 0.0000
# 5 0.0000 0.0000 0.0000 0.0000 9.4047 0.0000
# 6 0.0000 0.0000 0.0000 0.0000 0.0000 18.0981
#
#
#
# Elastic Compliance Matrix: (Units=1/GPa)
#
#
# Indices 1 2 3 4 5 6 
#
# 1 0.008990 -0.000868 -0.002630 0.000000 0.000000 0.000000
# 2 -0.000868 0.007682 -0.002016 0.000000 0.000000 0.000000
# 3 -0.002630 -0.002016 0.019524 0.000000 0.000000 0.000000
# 4 0.000000 0.000000 0.000000 0.100151 0.000000 0.000000
# 5 0.000000 0.000000 0.000000 0.000000 0.106330 0.000000
# 6 0.000000 0.000000 0.000000 0.000000 0.000000 0.055254
#
#
# Mechanical properties :
#
#
# Convention : Reuss Voigt Hill
#
# Bulk Modulus (GPa) = 39.73190 46.07590 42.90390
# Shear Modulus (GPa) = 15.75551 24.67863 20.21707
#
# Velocity S-wave (km/s) = 2.77781 3.47654 3.14663
# Velocity P-wave (km/s) = 5.45408 6.21938 5.84926
#
# Compressibility (1/GPa) = 0.02516869
#
# Stress axis : x y z
#
# Youngs Moduli (GPa) = 111.23221 130.17371 51.21845
#
# Poissons Ratio (x) = 0.11298 0.13468
# Poissons Ratio (y) = 0.09654 0.10327
# Poissons Ratio (z) = 0.29250 0.26247
#
# Static dielectric constant tensor:
#      x y z
#    x 3.930590 0.000000 0.000000 
#    y 0.000000 4.055860 0.000000 
#    z 0.000000 0.000000 3.732070 
# 
# 
# High freq. dielectric constant tensor:
#      x y z
#    x 1.811770 0.000000 0.000000 
#    y 0.000000 1.816480 0.000000 
#    z 0.000000 0.000000 1.782010 
# 
# From -- ./inp_files/30105.got.cif
#   From: 2010.03.12/outbox.cif.g09.slc.cpg/sg67_16_cif.got.tgz:30105.got - 2010.04.10 22:41:39.
