data_PCOD8281005
_publ_section_title
;
Structure prediction by ZEFSAII (Michael W. Deem and Ramdas Pophale) SiO2 
 PCOD8281005
Probable space group: C M M A
;
_chemical_formula_sum "Si O2"
_cell_formula_units_Z 96
_cell_length_a 17.892080
_cell_length_b 25.207334
_cell_length_c 9.888662
_cell_angle_alpha 90.000000
_cell_angle_beta 90.000000
_cell_angle_gamma 90.000000
_cell_volume 4459.901632
_symmetry_space_group_name_H-M "C M M A"
_symmetry_group_IT_number 67
_symmetry_cell_setting 'orthorhombic'
loop_
_space_group_symop_operation_xyz
x,y,z
-x,1/2-y,z
x,-y,-z
-x,1/2+y,-z
-x,-y,-z
x,1/2+y,-z
-x,y,z
x,1/2-y,z
1/2+x,1/2+y,z
1/2-x,-y,z
1/2+x,1/2-y,-z
1/2-x,y,-z
1/2-x,1/2-y,-z
1/2+x,y,-z
1/2-x,1/2+y,z
1/2+x,-y,z
loop_
_atom_site_type_symbol
_atom_site_label
_atom_site_fract_x
_atom_site_fract_y
_atom_site_fract_z
Si Si1 0.331853 0.910157 0.522924
Si Si2 0.914652 0.435624 0.254829
Si Si3 0.694478 0.856512 0.115588
Si Si4 0.689002 0.809765 0.677104
Si Si5 0.584569 0.338177 0.091323
Si Si6 0.917954 0.444308 0.773212
O O1 0.250000 0.934502 0.500000
O O2 0.391181 0.930259 0.412423
O O3 0.324737 0.845941 0.543308
O O4 0.354056 0.932654 0.667039
O O5 0.853470 0.403806 0.174052
O O6 0.910606 0.494073 0.189207
O O7 0.000000 0.413980 0.240750
O O8 0.737879 0.827589 0.236765
O O9 0.750000 0.878689 0.000000
O O10 0.634928 0.818584 0.036151
O O11 0.700901 0.750000 0.625868
O O12 0.615493 0.812453 0.771159
O O13 0.500000 0.318899 0.069461
O O14 0.590389 0.403189 0.101255
O O15 0.000000 0.434595 0.708041
#
# Coordination Sequence:
#
# PCOD8281005 Si02
#       6
#    16  16  16  16  16  16
#     4  11  21  38  57  88 114 151 194 247 292 348
#     4  11  22  38  60  87 121 160 194 234 294 351
#     4  10  21  39  58  85 118 155 198 241 289 343
#     4  10  22  41  62  83 114 154 195 243 305 359
#     4   9  19  37  60  87 117 150 195 243 285 344
#     4   9  20  37  58  85 120 159 193 231 289 357
#
# _framework density 21.525137999999998
#
# number of rings (size 3 to 8) (size 9 to 14) (size 15 to 20)
#    0.000    2.000    1.667    1.500    0.000    7.667 
#    0.000    6.667    0.000    2.500    0.000    0.000 
#    0.000    0.000    0.000    0.000    0.000    0.000 
#
# Total GULP energy -594726.642117 kJ/mol
# GULP energy per Si atom -12390.138377 kJ/mol
# Density = 2.147615 g / cm^3
# Si number density = 21.525138 Si / 1000 Ang^3
#
#
#
# Elastic Constant Matrix: (Units=GPa)
#
#
# Indices 1 2 3 4 5 6 
#
# 1 142.5621 17.9960 6.6822 0.0000 0.0000 0.0000
# 2 17.9960 88.9036 -5.2523 0.0000 0.0000 0.0000
# 3 6.6822 -5.2523 30.3306 0.0000 0.0000 0.0000
# 4 0.0000 0.0000 0.0000 10.7408 0.0000 0.0000
# 5 0.0000 0.0000 0.0000 0.0000 28.3759 0.0000
# 6 0.0000 0.0000 0.0000 0.0000 0.0000 17.2446
#
#
#
# Elastic Compliance Matrix: (Units=1/GPa)
#
#
# Indices 1 2 3 4 5 6 
#
# 1 0.007303 -0.001590 -0.001884 0.000000 0.000000 0.000000
# 2 -0.001590 0.011710 0.002378 0.000000 0.000000 0.000000
# 3 -0.001884 0.002378 0.033797 0.000000 0.000000 0.000000
# 4 0.000000 0.000000 0.000000 0.093103 0.000000 0.000000
# 5 0.000000 0.000000 0.000000 0.000000 0.035241 0.000000
# 6 0.000000 0.000000 0.000000 0.000000 0.000000 0.057989
#
#
# Mechanical properties :
#
#
# Convention : Reuss Voigt Hill
#
# Bulk Modulus (GPa) = 19.75543 33.40534 26.58039
# Shear Modulus (GPa) = 19.36416 27.43029 23.39722
#
# Velocity S-wave (km/s) = 3.00260 3.57366 3.30050
# Velocity P-wave (km/s) = 4.60636 5.70797 5.18650
#
# Compressibility (1/GPa) = 0.05061899
#
# Stress axis : x y z
#
# Youngs Moduli (GPa) = 136.92097 85.39401 29.58848
#
# Poissons Ratio (x) = 0.13575 0.05575
# Poissons Ratio (y) = 0.21766 -0.07036
# Poissons Ratio (z) = 0.25800 -0.20308
#
# Static dielectric constant tensor:
#      x y z
#    x 4.286690 0.000000 0.000000 
#    y 0.000000 3.762960 0.000000 
#    z 0.000000 0.000000 4.012910 
# 
# 
# High freq. dielectric constant tensor:
#      x y z
#    x 1.867220 0.000000 0.000000 
#    y 0.000000 1.818500 0.000000 
#    z 0.000000 0.000000 1.834690 
# 
# From -- ./inp_files/19625.got.cif
#   From: 2010.03.12/outbox.cif.g09.slc.cpg/sg67_10_cif.got.tgz:19625.got - 2010.04.10 22:41:39.
