data_PCOD8281325
_publ_section_title
;
Structure prediction by ZEFSAII (Michael W. Deem and Ramdas Pophale) SiO2 
 PCOD8281325
Probable space group: C M M A
;
_chemical_formula_sum "Si O2"
_cell_formula_units_Z 96
_cell_length_a 17.394987
_cell_length_b 25.746563
_cell_length_c 11.934314
_cell_angle_alpha 90.000000
_cell_angle_beta 90.000000
_cell_angle_gamma 90.000000
_cell_volume 5344.915338
_symmetry_space_group_name_H-M "C M M A"
_symmetry_group_IT_number 67
_symmetry_cell_setting 'orthorhombic'
loop_
_space_group_symop_operation_xyz
x,y,z
-x,1/2-y,z
x,-y,-z
-x,1/2+y,-z
-x,-y,-z
x,1/2+y,-z
-x,y,z
x,1/2-y,z
1/2+x,1/2+y,z
1/2-x,-y,z
1/2+x,1/2-y,-z
1/2-x,y,-z
1/2-x,1/2-y,-z
1/2+x,y,-z
1/2-x,1/2+y,z
1/2+x,-y,z
loop_
_atom_site_type_symbol
_atom_site_label
_atom_site_fract_x
_atom_site_fract_y
_atom_site_fract_z
Si Si1 0.410900 0.926904 0.796189
Si Si2 0.589089 0.102504 0.673885
Si Si3 0.335406 0.620443 0.997498
Si Si4 0.167276 0.472944 0.161962
Si Si5 0.411093 0.446710 0.449691
Si Si6 0.589738 0.692913 0.172523
O O1 0.500000 0.911680 0.798920
O O2 0.364964 0.884310 0.869616
O O3 0.375539 0.928455 0.669317
O O4 0.397947 0.983307 0.851238
O O5 0.500000 0.089816 0.705933
O O6 0.646067 0.060950 0.729351
O O7 0.600295 0.099483 0.539786
O O8 0.612157 0.160002 0.716431
O O9 0.250000 0.643578 0.000000
O O10 0.334986 0.563133 0.052574
O O11 0.387997 0.661224 0.061963
O O12 0.250000 0.500000 0.177776
O O13 0.374382 0.500000 0.500000
O O14 0.500000 0.458502 0.424115
O O15 0.500000 0.701106 0.166957
O O16 0.629530 0.750000 0.177566
#
# Coordination Sequence:
#
# PCOD8281325 Si02
#       6
#    16  16  16  16  16  16
#     4  11  21  32  50  72 102 143 178 205 252 310
#     4   9  17  32  54  76 102 136 174 215 259 305
#     4  11  22  34  50  73 106 139 170 217 265 309
#     4  11  20  31  47  70 110 142 172 212 248 301
#     4   9  16  29  48  73 103 136 174 211 244 303
#     4   9  19  36  58  80  99 127 177 231 267 305
#
# _framework density 17.960995
#
# number of rings (size 3 to 8) (size 9 to 14) (size 15 to 20)
#    0.000    2.000    3.333    1.500    0.000    3.000 
#    0.000    1.667    0.000    1.000    0.000    5.833 
#    0.000    0.000    0.000    0.000    0.000    0.000 
#
# Total GULP energy -594924.187114 kJ/mol
# GULP energy per Si atom -12394.253898 kJ/mol
# Density = 1.792012 g / cm^3
# Si number density = 17.960995 Si / 1000 Ang^3
#
#
#
# Elastic Constant Matrix: (Units=GPa)
#
#
# Indices 1 2 3 4 5 6 
#
# 1 43.9014 21.5455 31.6877 0.0000 0.0000 0.0000
# 2 21.5455 109.6168 54.2971 0.0000 0.0000 0.0000
# 3 31.6877 54.2971 129.5782 0.0000 0.0000 0.0000
# 4 0.0000 0.0000 0.0000 -1.5695 0.0000 0.0000
# 5 0.0000 0.0000 0.0000 0.0000 15.1089 0.0000
# 6 0.0000 0.0000 0.0000 0.0000 0.0000 16.9304
#
#
#
# Elastic Compliance Matrix: (Units=1/GPa)
#
#
# Indices 1 2 3 4 5 6 
#
# 1 0.028276 -0.002691 -0.005787 0.000000 0.000000 0.000000
# 2 -0.002691 0.011768 -0.004273 0.000000 0.000000 0.000000
# 3 -0.005787 -0.004273 0.010923 0.000000 0.000000 0.000000
# 4 0.000000 0.000000 0.000000 -0.637152 0.000000 0.000000
# 5 0.000000 0.000000 0.000000 0.000000 0.066186 0.000000
# 6 0.000000 0.000000 0.000000 0.000000 0.000000 0.059065
#
#
# Mechanical properties :
#
#
# Convention : Reuss Voigt Hill
#
# Bulk Modulus (GPa) = 39.27007 55.35080 47.31043
# Shear Modulus (GPa) = -11.71120 17.79835 3.04358
#
# Velocity S-wave (km/s) = -2.55627 3.15134 1.30316
# Velocity P-wave (km/s) = 3.63303 6.64270 5.35370
#
# Compressibility (1/GPa) = 0.02546469
#
# Stress axis : x y z
#
# Youngs Moduli (GPa) = 35.36544 84.97410 91.54884
#
# Poissons Ratio (x) = 0.22868 0.52980
# Poissons Ratio (y) = 0.09518 0.39120
# Poissons Ratio (z) = 0.20466 0.36311
#
# Static dielectric constant tensor:
#      x y z
#    x 3.185910 0.000000 0.000000 
#    y 0.000000 3.296950 0.000000 
#    z 0.000000 0.000000 3.482340 
# 
# 
# High freq. dielectric constant tensor:
#      x y z
#    x 1.677670 0.000000 0.000000 
#    y 0.000000 1.661110 0.000000 
#    z 0.000000 0.000000 1.701140 
# 
# From -- ./inp_files/19781.got.cif
#   From: 2010.03.12/outbox.cif.g09.slc.cpg/sg67_10_cif.got.tgz:19781.got - 2010.04.10 22:41:39.
