data_PCOD8281437
_publ_section_title
;
Structure prediction by ZEFSAII (Michael W. Deem and Ramdas Pophale) SiO2 
 PCOD8281437
Probable space group: C M M A
;
_chemical_formula_sum "Si O2"
_cell_formula_units_Z 88
_cell_length_a 20.972897
_cell_length_b 14.732532
_cell_length_c 13.465022
_cell_angle_alpha 90.000000
_cell_angle_beta 90.000000
_cell_angle_gamma 90.000000
_cell_volume 4160.474690
_symmetry_space_group_name_H-M "C M M A"
_symmetry_group_IT_number 67
_symmetry_cell_setting 'orthorhombic'
loop_
_space_group_symop_operation_xyz
x,y,z
-x,1/2-y,z
x,-y,-z
-x,1/2+y,-z
-x,-y,-z
x,1/2+y,-z
-x,y,z
x,1/2-y,z
1/2+x,1/2+y,z
1/2-x,-y,z
1/2+x,1/2-y,-z
1/2-x,y,-z
1/2-x,1/2-y,-z
1/2+x,y,-z
1/2-x,1/2+y,z
1/2+x,-y,z
loop_
_atom_site_type_symbol
_atom_site_label
_atom_site_fract_x
_atom_site_fract_y
_atom_site_fract_z
Si Si1 0.250000 0.500000 0.807565
Si Si2 0.424715 0.350239 0.560927
Si Si3 0.123049 0.533680 0.737698
Si Si4 0.188625 0.846882 0.067099
Si Si5 0.070400 0.593768 0.944323
Si Si6 0.074940 0.646999 0.336661
O O1 0.199104 0.556181 0.743154
O O2 0.200054 0.436601 0.867731
O O3 0.500000 0.355610 0.560449
O O4 0.402383 0.250000 0.595863
O O5 0.398615 0.426182 0.633515
O O6 0.400486 0.368392 0.449104
O O7 0.086359 0.580777 0.828236
O O8 0.109990 0.424586 0.735720
O O9 0.184545 0.750000 0.126084
O O10 0.250000 0.843222 0.000000
O O11 0.125401 0.849861 0.998930
O O12 0.000000 0.641073 0.950435
O O13 0.066180 0.500000 0.000000
O O14 0.090831 0.750000 0.301953
O O15 0.000000 0.628978 0.328840
#
# Coordination Sequence:
#
# PCOD8281437 Si02
#       6
#     8  16  16  16  16  16
#     4  12  25  42  61  84 122 164 221 260 293 372
#     4   9  19  37  62  91 123 157 199 254 315 379
#     4  12  22  36  63  88 122 165 204 254 312 366
#     4  11  22  42  67  84 116 171 213 250 308 371
#     4  11  22  38  61  91 127 161 204 265 317 359
#     4   9  19  38  63  92 124 158 198 248 312 383
#
# _framework density 21.151430999999999
#
# number of rings (size 3 to 8) (size 9 to 14) (size 15 to 20)
#    0.000    1.455    3.636    3.545    0.000    4.000 
#    0.000    1.818    0.000    2.182    0.000    0.000 
#    0.000    0.000    0.000    0.000    0.000    0.000 
#
# Total GULP energy -545213.714287 kJ/mol
# GULP energy per Si atom -12391.220779 kJ/mol
# Density = 2.110329 g / cm^3
# Si number density = 21.151431 Si / 1000 Ang^3
#
#
#
# Elastic Constant Matrix: (Units=GPa)
#
#
# Indices 1 2 3 4 5 6 
#
# 1 127.6973 23.9013 28.0944 0.0000 0.0000 0.0000
# 2 23.9013 99.0510 20.9239 0.0000 0.0000 0.0000
# 3 28.0944 20.9239 56.7900 0.0000 0.0000 0.0000
# 4 0.0000 0.0000 0.0000 -19.9232 0.0000 0.0000
# 5 0.0000 0.0000 0.0000 0.0000 17.0437 0.0000
# 6 0.0000 0.0000 0.0000 0.0000 0.0000 -27.6820
#
#
#
# Elastic Compliance Matrix: (Units=1/GPa)
#
#
# Indices 1 2 3 4 5 6 
#
# 1 0.008945 -0.001327 -0.003936 0.000000 0.000000 0.000000
# 2 -0.001327 0.011145 -0.003450 0.000000 0.000000 0.000000
# 3 -0.003936 -0.003450 0.020827 0.000000 0.000000 0.000000
# 4 0.000000 0.000000 0.000000 -0.050193 0.000000 0.000000
# 5 0.000000 0.000000 0.000000 0.000000 0.058673 0.000000
# 6 0.000000 0.000000 0.000000 0.000000 0.000000 -0.036124
#
#
# Mechanical properties :
#
#
# Convention : Reuss Voigt Hill
#
# Bulk Modulus (GPa) = 42.56952 47.70861 45.13906
# Shear Modulus (GPa) = 129.77061 7.92895 68.84978
#
# Velocity S-wave (km/s) = 7.84132 1.93825 5.71153
# Velocity P-wave (km/s) = 10.10700 5.25488 8.05498
#
# Compressibility (1/GPa) = 0.02349099
#
# Stress axis : x y z
#
# Youngs Moduli (GPa) = 111.78876 89.72837 48.01424
#
# Poissons Ratio (x) = 0.11907 0.18901
# Poissons Ratio (y) = 0.14835 0.16564
# Poissons Ratio (z) = 0.44005 0.30954
#
# Static dielectric constant tensor:
#      x y z
#    x 4.065270 0.000000 0.000000 
#    y 0.000000 3.959560 0.000000 
#    z 0.000000 0.000000 3.851300 
# 
# 
# High freq. dielectric constant tensor:
#      x y z
#    x 1.827760 0.000000 0.000000 
#    y 0.000000 1.830450 0.000000 
#    z 0.000000 0.000000 1.818470 
# 
# From -- ./inp_files/21770.got.cif
#   From: 2010.03.12/outbox.cif.g09.slc.cpg/sg67_11_cif.got.tgz:21770.got - 2010.04.10 22:41:39.
