data_PCOD8281438
_publ_section_title
;
Structure prediction by ZEFSAII (Michael W. Deem and Ramdas Pophale) SiO2 
 PCOD8281438
Probable space group: C M M A
;
_chemical_formula_sum "Si O2"
_cell_formula_units_Z 48
_cell_length_a 20.947932
_cell_length_b 21.068041
_cell_length_c 4.817085
_cell_angle_alpha 90.000000
_cell_angle_beta 90.000000
_cell_angle_gamma 90.000000
_cell_volume 2125.933229
_symmetry_space_group_name_H-M "C M M A"
_symmetry_group_IT_number 67
_symmetry_cell_setting 'orthorhombic'
loop_
_space_group_symop_operation_xyz
x,y,z
-x,1/2-y,z
x,-y,-z
-x,1/2+y,-z
-x,-y,-z
x,1/2+y,-z
-x,y,z
x,1/2-y,z
1/2+x,1/2+y,z
1/2-x,-y,z
1/2+x,1/2-y,-z
1/2-x,y,-z
1/2-x,1/2-y,-z
1/2+x,y,-z
1/2-x,1/2+y,z
1/2+x,-y,z
loop_
_atom_site_type_symbol
_atom_site_label
_atom_site_fract_x
_atom_site_fract_y
_atom_site_fract_z
Si Si1 0.500000 0.316625 0.742501
Si Si2 0.316936 0.675999 0.377079
Si Si3 0.500000 0.935103 0.664340
Si Si4 0.893035 0.863060 0.101987
O O1 0.500000 0.250000 0.574799
O O2 0.500000 0.375630 0.538992
O O3 0.438653 0.314502 0.942267
O O4 0.312075 0.750000 0.290199
O O5 0.250000 0.651785 0.500000
O O6 0.372300 0.665610 0.603571
O O7 0.332019 0.631705 0.106437
O O8 0.565039 0.928275 0.849945
O O9 0.500000 0.000000 0.500000
#
# Coordination Sequence:
#
# PCOD8281438 Si02
#       4
#     8  16   8  16
#     4  11  22  38  65 100 133 165 214 290 354 405
#     4  11  22  38  62  98 141 179 219 275 344 415
#     4  11  26  45  68 100 135 185 232 284 350 425
#     4  11  23  39  62  98 132 175 223 281 339 415
#
# _framework density 22.578322
#
# number of rings (size 3 to 8) (size 9 to 14) (size 15 to 20)
#    0.000    1.000    3.333    4.000    0.000    9.333 
#    0.000    0.000    0.000    1.000    8.667    0.000 
#    0.000    0.000    0.000    0.000    0.000    0.000 
#
# Total GULP energy -297333.797242 kJ/mol
# GULP energy per Si atom -12388.908218 kJ/mol
# Density = 2.252693 g / cm^3
# Si number density = 22.578322 Si / 1000 Ang^3
#
#
#
# Elastic Constant Matrix: (Units=GPa)
#
#
# Indices 1 2 3 4 5 6 
#
# 1 107.3820 49.4424 30.4034 0.0000 0.0000 0.0000
# 2 49.4424 124.0711 56.1695 0.0000 0.0000 0.0000
# 3 30.4034 56.1695 133.5685 0.0000 0.0000 0.0000
# 4 0.0000 0.0000 0.0000 37.5718 0.0000 0.0000
# 5 0.0000 0.0000 0.0000 0.0000 58.3972 0.0000
# 6 0.0000 0.0000 0.0000 0.0000 0.0000 6.0368
#
#
#
# Elastic Compliance Matrix: (Units=1/GPa)
#
#
# Indices 1 2 3 4 5 6 
#
# 1 0.011483 -0.004190 -0.000852 0.000000 0.000000 0.000000
# 2 -0.004190 0.011484 -0.003876 0.000000 0.000000 0.000000
# 3 -0.000852 -0.003876 0.009310 0.000000 0.000000 0.000000
# 4 0.000000 0.000000 0.000000 0.026616 0.000000 0.000000
# 5 0.000000 0.000000 0.000000 0.000000 0.017124 0.000000
# 6 0.000000 0.000000 0.000000 0.000000 0.000000 0.165651
#
#
# Mechanical properties :
#
#
# Convention : Reuss Voigt Hill
#
# Bulk Modulus (GPa) = 69.24034 70.78359 70.01197
# Shear Modulus (GPa) = 18.91658 35.66825 27.29241
#
# Velocity S-wave (km/s) = 2.89765 3.97893 3.48054
# Velocity P-wave (km/s) = 6.47522 7.24758 6.87226
#
# Compressibility (1/GPa) = 0.01444245
#
# Stress axis : x y z
#
# Youngs Moduli (GPa) = 87.08442 87.07467 107.40590
#
# Poissons Ratio (x) = 0.36489 0.09147
# Poissons Ratio (y) = 0.36493 0.41627
# Poissons Ratio (z) = 0.07416 0.33747
#
# Static dielectric constant tensor:
#      x y z
#    x 4.733320 0.000000 0.000000 
#    y 0.000000 3.590980 0.000000 
#    z 0.000000 0.000000 4.500180 
# 
# 
# High freq. dielectric constant tensor:
#      x y z
#    x 1.910890 0.000000 0.000000 
#    y 0.000000 1.819370 0.000000 
#    z 0.000000 0.000000 1.913750 
# 
# From -- ./inp_files/2530.got.cif
#   From: 2010.03.12/outbox.cif.g09.slc.cpg/sg67_2_cif.got.tgz:2530.got - 2010.04.10 22:41:39.
