data_PCOD8281174
_publ_section_title
;
Structure prediction by ZEFSAII (Michael W. Deem and Ramdas Pophale) SiO2 
 PCOD8281174
Probable space group: C M M A
;
_chemical_formula_sum "Si O2"
_cell_formula_units_Z 64
_cell_length_a 27.149482
_cell_length_b 12.678848
_cell_length_c 8.979574
_cell_angle_alpha 90.000000
_cell_angle_beta 90.000000
_cell_angle_gamma 90.000000
_cell_volume 3090.986277
_symmetry_space_group_name_H-M "C M M A"
_symmetry_group_IT_number 67
_symmetry_cell_setting 'orthorhombic'
loop_
_space_group_symop_operation_xyz
x,y,z
-x,1/2-y,z
x,-y,-z
-x,1/2+y,-z
-x,-y,-z
x,1/2+y,-z
-x,y,z
x,1/2-y,z
1/2+x,1/2+y,z
1/2-x,-y,z
1/2+x,1/2-y,-z
1/2-x,y,-z
1/2-x,1/2-y,-z
1/2+x,y,-z
1/2-x,1/2+y,z
1/2+x,-y,z
loop_
_atom_site_type_symbol
_atom_site_label
_atom_site_fract_x
_atom_site_fract_y
_atom_site_fract_z
Si Si1 0.370366 0.580344 0.878975
Si Si2 0.057050 0.750000 0.991527
Si Si3 0.945144 0.250000 0.363026
Si Si4 0.805339 0.250000 0.713466
Si Si5 0.193923 0.750000 0.643711
Si Si6 0.375699 0.570835 0.367965
O O1 0.414435 0.648095 0.948278
O O2 0.327601 0.648124 0.797503
O O3 0.396648 0.506683 0.757148
O O4 0.346589 0.500000 0.000000
O O5 0.000000 0.750000 0.045704
O O6 0.059381 0.750000 0.814433
O O7 0.919496 0.145418 0.428557
O O8 0.000000 0.250000 0.423608
O O9 0.813814 0.250000 0.535805
O O10 0.746421 0.250000 0.723244
O O11 0.167302 0.644362 0.701799
O O12 0.353633 0.500000 0.500000
#
# Coordination Sequence:
#
# PCOD8281174 Si02
#       6
#    16   8   8   8   8  16
#     4  11  22  40  64  94 127 164 204 259 317 366
#     4  10  22  39  64  93 124 165 215 257 307 379
#     4  10  22  39  62  93 126 165 210 261 311 372
#     4  10  22  41  64  93 122 162 213 258 303 378
#     4  10  22  41  64  91 122 163 214 254 308 375
#     4  11  22  40  63  89 127 166 203 261 317 367
#
# _framework density 20.705365
#
# number of rings (size 3 to 8) (size 9 to 14) (size 15 to 20)
#    0.000    1.500    5.000    0.000    0.000    3.000 
#    0.000    5.000    0.000    0.000    0.000    0.000 
#    0.000    0.000    0.000    0.000    0.000    0.000 
#
# Total GULP energy -396553.605238 kJ/mol
# GULP energy per Si atom -12392.300164 kJ/mol
# Density = 2.065824 g / cm^3
# Si number density = 20.705365 Si / 1000 Ang^3
#
#
#
# Elastic Constant Matrix: (Units=GPa)
#
#
# Indices 1 2 3 4 5 6 
#
# 1 149.6088 55.4379 12.1882 0.0000 0.0000 0.0000
# 2 55.4379 149.9069 37.8701 0.0000 0.0000 0.0000
# 3 12.1882 37.8701 60.2095 0.0000 0.0000 0.0000
# 4 0.0000 0.0000 0.0000 18.2595 0.0000 0.0000
# 5 0.0000 0.0000 0.0000 0.0000 28.7092 0.0000
# 6 0.0000 0.0000 0.0000 0.0000 0.0000 6.1796
#
#
#
# Elastic Compliance Matrix: (Units=1/GPa)
#
#
# Indices 1 2 3 4 5 6 
#
# 1 0.007749 -0.002936 0.000278 0.000000 0.000000 0.000000
# 2 -0.002936 0.009043 -0.005094 0.000000 0.000000 0.000000
# 3 0.000278 -0.005094 0.019756 0.000000 0.000000 0.000000
# 4 0.000000 0.000000 0.000000 0.054766 0.000000 0.000000
# 5 0.000000 0.000000 0.000000 0.000000 0.034832 0.000000
# 6 0.000000 0.000000 0.000000 0.000000 0.000000 0.161824
#
#
# Mechanical properties :
#
#
# Convention : Reuss Voigt Hill
#
# Bulk Modulus (GPa) = 47.51620 63.41306 55.46463
# Shear Modulus (GPa) = 16.10360 27.57825 21.84093
#
# Velocity S-wave (km/s) = 2.79184 3.65353 3.25136
# Velocity P-wave (km/s) = 5.77850 6.96352 6.39850
#
# Compressibility (1/GPa) = 0.02104546
#
# Stress axis : x y z
#
# Youngs Moduli (GPa) = 129.04186 110.57779 50.61706
#
# Poissons Ratio (x) = 0.32467 -0.01407
# Poissons Ratio (y) = 0.37888 0.25783
# Poissons Ratio (z) = -0.03587 0.56325
#
# Static dielectric constant tensor:
#      x y z
#    x 3.608750 0.000000 0.000000 
#    y 0.000000 4.045990 0.000000 
#    z 0.000000 0.000000 3.814440 
# 
# 
# High freq. dielectric constant tensor:
#      x y z
#    x 1.786230 0.000000 0.000000 
#    y 0.000000 1.836100 0.000000 
#    z 0.000000 0.000000 1.808870 
# 
# From -- ./inp_files/14394.got.cif
#   From: 2010.03.12/outbox.cif.g09.slc.cpg/sg67_8_cif.got.tgz:14394.got - 2010.04.10 22:41:39.
