data_PCOD8281050
_publ_section_title
;
Structure prediction by ZEFSAII (Michael W. Deem and Ramdas Pophale) SiO2 
 PCOD8281050
Probable space group: C M M A
;
_chemical_formula_sum "Si O2"
_cell_formula_units_Z 72
_cell_length_a 27.078902
_cell_length_b 14.361018
_cell_length_c 8.507844
_cell_angle_alpha 90.000000
_cell_angle_beta 90.000000
_cell_angle_gamma 90.000000
_cell_volume 3308.535471
_symmetry_space_group_name_H-M "C M M A"
_symmetry_group_IT_number 67
_symmetry_cell_setting 'orthorhombic'
loop_
_space_group_symop_operation_xyz
x,y,z
-x,1/2-y,z
x,-y,-z
-x,1/2+y,-z
-x,-y,-z
x,1/2+y,-z
-x,y,z
x,1/2-y,z
1/2+x,1/2+y,z
1/2-x,-y,z
1/2+x,1/2-y,-z
1/2-x,y,-z
1/2-x,1/2-y,-z
1/2+x,y,-z
1/2-x,1/2+y,z
1/2+x,-y,z
loop_
_atom_site_type_symbol
_atom_site_label
_atom_site_fract_x
_atom_site_fract_y
_atom_site_fract_z
Si Si1 0.227223 0.647186 0.329375
Si Si2 0.388782 0.000000 0.000000
Si Si3 0.130261 0.399769 0.539599
Si Si4 0.443461 0.852383 0.787919
Si Si5 0.828834 0.644321 0.791322
O O1 0.210444 0.750000 0.274835
O O2 0.250000 0.651677 0.500000
O O3 0.177064 0.585942 0.337922
O O4 0.271163 0.610484 0.216499
O O5 0.423377 0.063792 0.106894
O O6 0.355633 0.929748 0.099946
O O7 0.108718 0.500000 0.500000
O O8 0.086648 0.344645 0.624826
O O9 0.146956 0.347914 0.381847
O O10 0.500000 0.874833 0.747585
O O11 0.439137 0.750000 0.870351
O O12 0.831496 0.750000 0.860410
#
# Coordination Sequence:
#
# PCOD8281050 Si02
#       5
#    16   8  16  16  16
#     4   8  16  32  58  89 121 158 197 246 305 367
#     4  12  23  44  63  96 128 174 214 262 310 398
#     4  11  20  39  66  97 125 163 215 265 320 374
#     4  11  25  45  67  91 124 166 214 274 333 377
#     4  10  21  39  64  95 131 170 211 258 319 382
#
# _framework density 21.761893000000001
#
# number of rings (size 3 to 8) (size 9 to 14) (size 15 to 20)
#    0.000    1.778    2.222    4.333    0.000    4.444 
#    0.000    2.222    0.000    8.000    0.000    0.000 
#    0.000    0.000    0.000    0.000    0.000    0.000 
#
# Total GULP energy -446046.857437 kJ/mol
# GULP energy per Si atom -12390.190484 kJ/mol
# Density = 2.171236 g / cm^3
# Si number density = 21.761893 Si / 1000 Ang^3
#
#
#
# Elastic Constant Matrix: (Units=GPa)
#
#
# Indices 1 2 3 4 5 6 
#
# 1 157.0915 60.3706 64.1421 0.0000 0.0000 0.0000
# 2 60.3706 121.9526 38.4228 0.0000 0.0000 0.0000
# 3 64.1421 38.4228 76.7599 0.0000 0.0000 0.0000
# 4 0.0000 0.0000 0.0000 12.3921 0.0000 0.0000
# 5 0.0000 0.0000 0.0000 0.0000 22.3052 0.0000
# 6 0.0000 0.0000 0.0000 0.0000 0.0000 15.1379
#
#
#
# Elastic Compliance Matrix: (Units=1/GPa)
#
#
# Indices 1 2 3 4 5 6 
#
# 1 0.010448 -0.002875 -0.007291 0.000000 0.000000 0.000000
# 2 -0.002875 0.010526 -0.002867 0.000000 0.000000 0.000000
# 3 -0.007291 -0.002867 0.020555 0.000000 0.000000 0.000000
# 4 0.000000 0.000000 0.000000 0.080697 0.000000 0.000000
# 5 0.000000 0.000000 0.000000 0.000000 0.044833 0.000000
# 6 0.000000 0.000000 0.000000 0.000000 0.000000 0.066059
#
#
# Mechanical properties :
#
#
# Convention : Reuss Voigt Hill
#
# Bulk Modulus (GPa) = 64.66797 75.74167 70.20482
# Shear Modulus (GPa) = 18.91520 22.82495 20.87008
#
# Velocity S-wave (km/s) = 2.95140 3.24211 3.10016
# Velocity P-wave (km/s) = 6.43390 6.99252 6.71901
#
# Compressibility (1/GPa) = 0.01546361
#
# Stress axis : x y z
#
# Youngs Moduli (GPa) = 95.71620 95.00096 48.64913
#
# Poissons Ratio (x) = 0.27310 0.35471
# Poissons Ratio (y) = 0.27515 0.13947
# Poissons Ratio (z) = 0.69789 0.27235
#
# Static dielectric constant tensor:
#      x y z
#    x 4.075740 0.000000 0.000000 
#    y 0.000000 4.110420 0.000000 
#    z 0.000000 0.000000 3.714440 
# 
# 
# High freq. dielectric constant tensor:
#      x y z
#    x 1.851390 0.000000 0.000000 
#    y 0.000000 1.871380 0.000000 
#    z 0.000000 0.000000 1.823400 
# 
# From -- ./inp_files/13348.got.cif
#   From: 2010.03.12/outbox.cif.g09.slc.cpg/sg67_7_cif.got.tgz:13348.got - 2010.04.10 22:41:39.
