data_PCOD8281166
_publ_section_title
;
Structure prediction by ZEFSAII (Michael W. Deem and Ramdas Pophale) SiO2 
 PCOD8281166
Probable space group: C M M A
;
_chemical_formula_sum "Si O2"
_cell_formula_units_Z 64
_cell_length_a 26.538749
_cell_length_b 9.525450
_cell_length_c 13.536999
_cell_angle_alpha 90.000000
_cell_angle_beta 90.000000
_cell_angle_gamma 90.000000
_cell_volume 3422.065718
_symmetry_space_group_name_H-M "C M M A"
_symmetry_group_IT_number 67
_symmetry_cell_setting 'orthorhombic'
loop_
_space_group_symop_operation_xyz
x,y,z
-x,1/2-y,z
x,-y,-z
-x,1/2+y,-z
-x,-y,-z
x,1/2+y,-z
-x,y,z
x,1/2-y,z
1/2+x,1/2+y,z
1/2-x,-y,z
1/2+x,1/2-y,-z
1/2-x,y,-z
1/2-x,1/2-y,-z
1/2+x,y,-z
1/2-x,1/2+y,z
1/2+x,-y,z
loop_
_atom_site_type_symbol
_atom_site_label
_atom_site_fract_x
_atom_site_fract_y
_atom_site_fract_z
Si Si1 0.057258 0.408545 0.091758
Si Si2 0.439374 0.750000 0.424347
Si Si3 0.698901 0.578254 0.600742
Si Si4 0.056022 0.250000 0.641467
Si Si5 0.103236 0.487205 0.289563
O O1 0.058304 0.250000 0.054422
O O2 0.097361 0.422462 0.180887
O O3 0.000000 0.449601 0.124634
O O4 0.076081 0.500000 0.000000
O O5 0.500000 0.750000 0.415534
O O6 0.415383 0.750000 0.535353
O O7 0.416523 0.614982 0.373429
O O8 0.681547 0.500000 0.500000
O O9 0.704929 0.750000 0.589024
O O10 0.750000 0.500000 0.634147
O O11 0.659426 0.541519 0.687226
O O12 0.066531 0.381148 0.709802
O O13 0.000000 0.250000 0.603750
#
# Coordination Sequence:
#
# PCOD8281166 Si02
#       5
#    16   8  16   8  16
#     4  10  22  39  60  86 117 157 204 252 299 352
#     4  11  22  36  54  82 122 163 200 234 286 357
#     4  11  24  40  62  89 119 159 206 255 304 356
#     4  11  22  34  52  84 122 159 194 236 284 359
#     4  12  23  37  59  85 119 161 202 245 300 355
#
# _framework density 18.702152999999999
#
# number of rings (size 3 to 8) (size 9 to 14) (size 15 to 20)
#    0.000    1.000    2.500    6.000    5.250    2.000 
#    0.000    0.000    0.000    0.750    0.000    3.500 
#    0.000    0.000    0.000    0.000    0.000    0.000 
#
# Total GULP energy -396574.342464 kJ/mol
# GULP energy per Si atom -12392.948202 kJ/mol
# Density = 1.865959 g / cm^3
# Si number density = 18.702153 Si / 1000 Ang^3
#
#
#
# Elastic Constant Matrix: (Units=GPa)
#
#
# Indices 1 2 3 4 5 6 
#
# 1 81.5525 33.0724 32.0624 0.0000 0.0000 0.0000
# 2 33.0724 130.0528 19.9871 0.0000 0.0000 0.0000
# 3 32.0624 19.9871 77.5586 0.0000 0.0000 0.0000
# 4 0.0000 0.0000 0.0000 33.0587 0.0000 0.0000
# 5 0.0000 0.0000 0.0000 0.0000 26.1639 0.0000
# 6 0.0000 0.0000 0.0000 0.0000 0.0000 29.9898
#
#
#
# Elastic Compliance Matrix: (Units=1/GPa)
#
#
# Indices 1 2 3 4 5 6 
#
# 1 0.015780 -0.003135 -0.005716 0.000000 0.000000 0.000000
# 2 -0.003135 0.008629 -0.000928 0.000000 0.000000 0.000000
# 3 -0.005716 -0.000928 0.015495 0.000000 0.000000 0.000000
# 4 0.000000 0.000000 0.000000 0.030249 0.000000 0.000000
# 5 0.000000 0.000000 0.000000 0.000000 0.038221 0.000000
# 6 0.000000 0.000000 0.000000 0.000000 0.000000 0.033345
#
#
# Mechanical properties :
#
#
# Convention : Reuss Voigt Hill
#
# Bulk Modulus (GPa) = 49.14397 51.04529 50.09463
# Shear Modulus (GPa) = 29.75158 31.44528 30.59843
#
# Velocity S-wave (km/s) = 3.99282 4.10490 4.04925
# Velocity P-wave (km/s) = 6.89863 7.05833 6.97894
#
# Compressibility (1/GPa) = 0.02034838
#
# Stress axis : x y z
#
# Youngs Moduli (GPa) = 63.36997 115.88964 64.53505
#
# Poissons Ratio (x) = 0.36326 0.36887
# Poissons Ratio (y) = 0.19863 0.05988
# Poissons Ratio (z) = 0.36221 0.10753
#
# Static dielectric constant tensor:
#      x y z
#    x 3.387510 0.000000 0.000000 
#    y 0.000000 3.742590 0.000000 
#    z 0.000000 0.000000 3.200900 
# 
# 
# High freq. dielectric constant tensor:
#      x y z
#    x 1.709390 0.000000 0.000000 
#    y 0.000000 1.753560 0.000000 
#    z 0.000000 0.000000 1.702830 
# 
# From -- ./inp_files/15838.got.cif
#   From: 2010.03.12/outbox.cif.g09.slc.cpg/sg67_8_cif.got.tgz:15838.got - 2010.04.10 22:41:39.
