data_PCOD8281353
_publ_section_title
;
Structure prediction by ZEFSAII (Michael W. Deem and Ramdas Pophale) SiO2 
 PCOD8281353
Probable space group: C M M A
;
_chemical_formula_sum "Si O2"
_cell_formula_units_Z 84
_cell_length_a 18.401112
_cell_length_b 26.234386
_cell_length_c 9.285892
_cell_angle_alpha 90.000000
_cell_angle_beta 90.000000
_cell_angle_gamma 90.000000
_cell_volume 4482.688915
_symmetry_space_group_name_H-M "C M M A"
_symmetry_group_IT_number 67
_symmetry_cell_setting 'orthorhombic'
loop_
_space_group_symop_operation_xyz
x,y,z
-x,1/2-y,z
x,-y,-z
-x,1/2+y,-z
-x,-y,-z
x,1/2+y,-z
-x,y,z
x,1/2-y,z
1/2+x,1/2+y,z
1/2-x,-y,z
1/2+x,1/2-y,-z
1/2-x,y,-z
1/2-x,1/2-y,-z
1/2+x,y,-z
1/2-x,1/2+y,z
1/2+x,-y,z
loop_
_atom_site_type_symbol
_atom_site_label
_atom_site_fract_x
_atom_site_fract_y
_atom_site_fract_z
Si Si1 0.359158 0.462082 0.224915
Si Si2 0.419304 0.385148 0.026280
Si Si3 0.086303 0.191070 0.745046
Si Si4 0.750000 0.500000 0.000000
Si Si5 0.331738 0.118336 0.461346
Si Si6 0.413230 0.425885 0.728739
O O1 0.422458 0.430688 0.144422
O O2 0.328653 0.431747 0.361711
O O3 0.388487 0.515690 0.279945
O O4 0.296668 0.464374 0.104678
O O5 0.500000 0.371333 0.979157
O O6 0.385698 0.335378 0.105634
O O7 0.380857 0.402120 0.877625
O O8 0.106738 0.250000 0.752954
O O9 0.129013 0.166225 0.612445
O O10 0.000000 0.182170 0.724432
O O11 0.250000 0.134406 0.500000
O O12 0.378066 0.106338 0.602453
O O13 0.500000 0.423821 0.716947
#
# Coordination Sequence:
#
# PCOD8281353 Si02
#       6
#    16  16  16   4  16  16
#     4  11  21  33  52  77 112 156 191 233 278 337
#     4   9  18  34  56  81 105 137 186 240 287 335
#     4   9  19  39  64  85 108 145 193 243 297 351
#     4  12  20  32  52  76 110 160 194 230 272 332
#     4  11  24  37  53  83 119 157 191 233 287 348
#     4  11  21  36  57  84 116 151 194 240 286 341
#
# _framework density 18.738752999999999
#
# number of rings (size 3 to 8) (size 9 to 14) (size 15 to 20)
#    0.000    1.714    1.905    2.857    0.000    5.714 
#    0.000    0.952    0.000    4.571    0.000    0.000 
#    0.000    0.000    0.000    0.000    0.000    0.000 
#
# Total GULP energy -520615.222024 kJ/mol
# GULP energy per Si atom -12395.600524 kJ/mol
# Density = 1.869610 g / cm^3
# Si number density = 18.738753 Si / 1000 Ang^3
#
#
#
# Elastic Constant Matrix: (Units=GPa)
#
#
# Indices 1 2 3 4 5 6 
#
# 1 73.0060 32.0155 26.4789 0.0000 0.0000 0.0000
# 2 32.0155 136.3353 53.3829 0.0000 0.0000 0.0000
# 3 26.4789 53.3829 105.5725 0.0000 0.0000 0.0000
# 4 0.0000 0.0000 0.0000 18.0391 0.0000 0.0000
# 5 0.0000 0.0000 0.0000 0.0000 27.4165 0.0000
# 6 0.0000 0.0000 0.0000 0.0000 0.0000 15.5054
#
#
#
# Elastic Compliance Matrix: (Units=1/GPa)
#
#
# Indices 1 2 3 4 5 6 
#
# 1 0.015825 -0.002696 -0.002606 0.000000 0.000000 0.000000
# 2 -0.002696 0.009605 -0.004181 0.000000 0.000000 0.000000
# 3 -0.002606 -0.004181 0.012240 0.000000 0.000000 0.000000
# 4 0.000000 0.000000 0.000000 0.055435 0.000000 0.000000
# 5 0.000000 0.000000 0.000000 0.000000 0.036474 0.000000
# 6 0.000000 0.000000 0.000000 0.000000 0.000000 0.064494
#
#
# Mechanical properties :
#
#
# Convention : Reuss Voigt Hill
#
# Bulk Modulus (GPa) = 53.46222 59.85205 56.65714
# Shear Modulus (GPa) = 22.80272 25.72796 24.26534
#
# Velocity S-wave (km/s) = 3.49216 3.70940 3.60241
# Velocity P-wave (km/s) = 6.69720 7.09618 6.89957
#
# Compressibility (1/GPa) = 0.01870480
#
# Stress axis : x y z
#
# Youngs Moduli (GPa) = 63.19169 104.11425 81.70140
#
# Poissons Ratio (x) = 0.28067 0.21291
# Poissons Ratio (y) = 0.17035 0.34156
# Poissons Ratio (z) = 0.16468 0.43526
#
# Static dielectric constant tensor:
#      x y z
#    x 3.427060 0.000000 0.000000 
#    y 0.000000 3.425240 0.000000 
#    z 0.000000 0.000000 3.693440 
# 
# 
# High freq. dielectric constant tensor:
#      x y z
#    x 1.719630 0.000000 0.000000 
#    y 0.000000 1.710650 0.000000 
#    z 0.000000 0.000000 1.742240 
# 
# From -- ./inp_files/11390.got.cif
#   From: 2010.03.12/outbox.cif.g09.slc.cpg/sg67_6_cif.got.tgz:11390.got - 2010.04.10 22:41:39.
