data_PCOD8281950
_publ_section_title
;
Structure prediction by ZEFSAII (Michael W. Deem and Ramdas Pophale) SiO2 
 PCOD8281950
Probable space group: C C C A
;
_chemical_formula_sum "Si O2"
_cell_formula_units_Z 120
_cell_length_a 24.971689
_cell_length_b 9.483367
_cell_length_c 26.943821
_cell_angle_alpha 90.000000
_cell_angle_beta 90.000000
_cell_angle_gamma 90.000000
_cell_volume 6380.719599
_symmetry_space_group_name_H-M "C C C A"
_symmetry_group_IT_number 68
_space_group.IT_coordinate_system_code '2'
_symmetry_cell_setting 'orthorhombic'
loop_
_space_group_symop_operation_xyz
x,y,z
-x,1/2-y,z
x,1/2-y,1/2-z
-x,y,1/2-z
-x,-y,-z
x,1/2+y,-z
-x,1/2+y,1/2+z
x,-y,1/2+z
1/2+x,1/2+y,z
1/2-x,-y,z
1/2+x,-y,1/2-z
1/2-x,1/2+y,1/2-z
1/2-x,1/2-y,-z
1/2+x,y,-z
1/2-x,y,1/2+z
1/2+x,1/2-y,1/2+z
loop_
_atom_site_type_symbol
_atom_site_label
_atom_site_fract_x
_atom_site_fract_y
_atom_site_fract_z
Si Si1 0.750000 0.500000 0.609169
Si Si2 0.690694 0.445313 0.285537
Si Si3 0.164567 0.368461 0.817351
Si Si4 0.511298 0.592526 0.952939
Si Si5 0.408992 0.946239 0.602080
Si Si6 0.874152 0.681614 0.452103
Si Si7 0.162550 0.681500 0.935321
Si Si8 0.187079 0.023020 0.388741
O O1 0.794049 0.429585 0.643401
O O2 0.779150 0.612696 0.573488
O O3 0.750000 0.500000 0.273943
O O4 0.659363 0.461360 0.233257
O O5 0.687200 0.283559 0.303246
O O6 0.665896 0.535290 0.331407
O O7 0.106107 0.377457 0.844202
O O8 0.500000 0.750000 0.970550
O O9 0.473523 0.548110 0.906003
O O10 0.573893 0.584144 0.940088
O O11 0.500000 0.500000 0.000000
O O12 0.384392 0.846192 0.558977
O O13 0.383565 0.101684 0.596262
O O14 0.852914 0.670079 0.507566
O O15 0.830810 0.621726 0.414362
O O16 0.165782 0.843429 0.918864
O O17 0.250000 0.000000 0.385646
#
# Coordination Sequence:
#
# PCOD8281950 Si02
#       8
#     8  16  16  16  16  16  16  16
#     4  10  20  34  48  82 116 156 192 226 290 344
#     4  10  19  35  57  80 112 153 200 239 293 340
#     4  10  19  35  57  81 113 156 191 248 292 349
#     4  10  21  37  61  84 113 150 198 248 297 348
#     4  10  21  39  56  85 116 150 201 244 300 348
#     4  11  22  39  57  83 119 157 193 245 292 358
#     4  11  23  34  57  81 121 158 199 235 286 359
#     4  11  24  38  54  86 119 159 198 239 289 358
#
# _framework density 18.806656
#
# number of rings (size 3 to 8) (size 9 to 14) (size 15 to 20)
#    0.000    1.600    3.333    2.400    4.667    0.533 
#    0.000    0.000    0.000    0.800    0.000    0.000 
#    0.000    4.267    0.000    0.000    0.000    0.000 
#
# Total GULP energy -743533.422477 kJ/mol
# GULP energy per Si atom -12392.223708 kJ/mol
# Density = 1.876385 g / cm^3
# Si number density = 18.806656 Si / 1000 Ang^3
#
#
#
# Elastic Constant Matrix: (Units=GPa)
#
#
# Indices 1 2 3 4 5 6 
#
# 1 77.2741 24.3492 60.4355 0.0000 0.0000 0.0000
# 2 24.3492 51.6975 16.9110 0.0000 0.0000 0.0000
# 3 60.4355 16.9110 135.5321 0.0000 0.0000 0.0000
# 4 0.0000 0.0000 0.0000 20.2979 0.0000 0.0000
# 5 0.0000 0.0000 0.0000 0.0000 21.5489 0.0000
# 6 0.0000 0.0000 0.0000 0.0000 0.0000 22.5022
#
#
#
# Elastic Compliance Matrix: (Units=1/GPa)
#
#
# Indices 1 2 3 4 5 6 
#
# 1 0.022408 -0.007595 -0.009044 0.000000 0.000000 0.000000
# 2 -0.007595 0.022741 0.000549 0.000000 0.000000 0.000000
# 3 -0.009044 0.000549 0.011343 0.000000 0.000000 0.000000
# 4 0.000000 0.000000 0.000000 0.049266 0.000000 0.000000
# 5 0.000000 0.000000 0.000000 0.000000 0.046406 0.000000
# 6 0.000000 0.000000 0.000000 0.000000 0.000000 0.044440
#
#
# Mechanical properties :
#
#
# Convention : Reuss Voigt Hill
#
# Bulk Modulus (GPa) = 41.13368 51.98836 46.56102
# Shear Modulus (GPa) = 21.10707 23.72367 22.41537
#
# Velocity S-wave (km/s) = 3.35374 3.55554 3.45611
# Velocity P-wave (km/s) = 6.07586 6.67529 6.38262
#
# Compressibility (1/GPa) = 0.02431098
#
# Stress axis : x y z
#
# Youngs Moduli (GPa) = 44.62776 43.97345 88.16279
#
# Poissons Ratio (x) = 0.33400 0.79735
# Poissons Ratio (y) = 0.33897 -0.04843
# Poissons Ratio (z) = 0.40362 -0.02416
#
# Static dielectric constant tensor:
#      x y z
#    x 3.704170 0.000000 0.000000 
#    y 0.000000 3.472550 0.000000 
#    z 0.000000 0.000000 3.812300 
# 
# 
# High freq. dielectric constant tensor:
#      x y z
#    x 1.711510 0.000000 0.000000 
#    y 0.000000 1.732540 0.000000 
#    z 0.000000 0.000000 1.731430 
# 
# From -- ./inp_files/52400.got.cif
#   From: 2010.03.12/outbox.cif.g09.slc.cpg/sg68_27_cif.got.tgz:52400.got - 2010.04.10 23:14:56.
