data_PCOD8281449
_publ_section_title
;
Structure prediction by ZEFSAII (Michael W. Deem and Ramdas Pophale) SiO2 
 PCOD8281449
Probable space group: C M M A
;
_chemical_formula_sum "Si O2"
_cell_formula_units_Z 64
_cell_length_a 18.314685
_cell_length_b 8.634815
_cell_length_c 20.495638
_cell_angle_alpha 90.000000
_cell_angle_beta 90.000000
_cell_angle_gamma 90.000000
_cell_volume 3241.260470
_symmetry_space_group_name_H-M "C M M A"
_symmetry_group_IT_number 67
_symmetry_cell_setting 'orthorhombic'
loop_
_space_group_symop_operation_xyz
x,y,z
-x,1/2-y,z
x,-y,-z
-x,1/2+y,-z
-x,-y,-z
x,1/2+y,-z
-x,y,z
x,1/2-y,z
1/2+x,1/2+y,z
1/2-x,-y,z
1/2+x,1/2-y,-z
1/2-x,y,-z
1/2-x,1/2-y,-z
1/2+x,y,-z
1/2-x,1/2+y,z
1/2+x,-y,z
loop_
_atom_site_type_symbol
_atom_site_label
_atom_site_fract_x
_atom_site_fract_y
_atom_site_fract_z
Si Si1 0.672392 0.066735 0.070144
Si Si2 0.417332 0.066967 0.432473
Si Si3 0.330318 0.566220 0.693180
Si Si4 0.085768 0.428713 0.185320
O O1 0.678127 0.250000 0.065578
O O2 0.750000 0.000000 0.093934
O O3 0.610409 0.017530 0.120552
O O4 0.650386 0.000000 0.000000
O O5 0.500000 0.006704 0.421179
O O6 0.415560 0.250000 0.436334
O O7 0.367269 0.006231 0.373574
O O8 0.385538 0.000000 0.500000
O O9 0.327942 0.750000 0.696489
O O10 0.250000 0.500000 0.697747
O O11 0.377344 0.504743 0.752563
O O12 0.108828 0.250000 0.180080
O O13 0.000000 0.449742 0.192885
#
# Coordination Sequence:
#
# PCOD8281449 Si02
#       4
#    16  16  16  16
#     4  11  22  39  63  89 120 155 193 236 284 339
#     4   9  19  36  58  83 112 148 189 234 285 341
#     4  11  23  39  59  84 116 152 193 239 288 342
#     4  11  24  41  61  86 116 151 193 239 288 343
#
# _framework density 19.745405000000002
#
# number of rings (size 3 to 8) (size 9 to 14) (size 15 to 20)
#    0.000    1.500    0.000    6.000    0.000    6.000 
#    0.000    5.000    0.000    0.000    0.000    0.000 
#    0.000    0.000    0.000    0.000    0.000    0.000 
#
# Total GULP energy -396968.988588 kJ/mol
# GULP energy per Si atom -12405.280893 kJ/mol
# Density = 1.970046 g / cm^3
# Si number density = 19.745405 Si / 1000 Ang^3
#
#
#
# Elastic Constant Matrix: (Units=GPa)
#
#
# Indices 1 2 3 4 5 6 
#
# 1 86.4034 46.7771 68.1587 0.0000 0.0000 0.0000
# 2 46.7771 118.5349 58.0587 0.0000 0.0000 0.0000
# 3 68.1587 58.0587 155.8698 0.0000 0.0000 0.0000
# 4 0.0000 0.0000 0.0000 37.2359 0.0000 0.0000
# 5 0.0000 0.0000 0.0000 0.0000 44.0716 0.0000
# 6 0.0000 0.0000 0.0000 0.0000 0.0000 36.5337
#
#
#
# Elastic Compliance Matrix: (Units=1/GPa)
#
#
# Indices 1 2 3 4 5 6 
#
# 1 0.019276 -0.004254 -0.006844 0.000000 0.000000 0.000000
# 2 -0.004254 0.011258 -0.002333 0.000000 0.000000 0.000000
# 3 -0.006844 -0.002333 0.010277 0.000000 0.000000 0.000000
# 4 0.000000 0.000000 0.000000 0.026856 0.000000 0.000000
# 5 0.000000 0.000000 0.000000 0.000000 0.022690 0.000000
# 6 0.000000 0.000000 0.000000 0.000000 0.000000 0.027372
#
#
# Mechanical properties :
#
#
# Convention : Reuss Voigt Hill
#
# Bulk Modulus (GPa) = 71.69529 78.53301 75.11415
# Shear Modulus (GPa) = 33.50256 36.08914 34.79585
#
# Velocity S-wave (km/s) = 4.12360 4.27983 4.20244
# Velocity P-wave (km/s) = 7.68510 8.01759 7.85311
#
# Compressibility (1/GPa) = 0.01394792
#
# Stress axis : x y z
#
# Youngs Moduli (GPa) = 51.87811 88.82590 97.30020
#
# Poissons Ratio (x) = 0.37791 0.66595
# Poissons Ratio (y) = 0.22071 0.22700
# Poissons Ratio (z) = 0.35507 0.20723
#
# Static dielectric constant tensor:
#      x y z
#    x 3.669450 0.000000 0.000000 
#    y 0.000000 3.709830 0.000000 
#    z 0.000000 0.000000 3.776870 
# 
# 
# High freq. dielectric constant tensor:
#      x y z
#    x 1.771030 0.000000 0.000000 
#    y 0.000000 1.780520 0.000000 
#    z 0.000000 0.000000 1.787190 
# 
# From -- ./inp_files/34637.got.cif
#   From: 2010.03.12/outbox.cif.g09.slc.cpg/sg67_18_cif.got.tgz:34637.got - 2010.04.10 22:41:39.
