data_PCOD8281657
_publ_section_title
;
Structure prediction by ZEFSAII (Michael W. Deem and Ramdas Pophale) SiO2 
 PCOD8281657
Probable space group: C C C A
;
_chemical_formula_sum "Si O2"
_cell_formula_units_Z 88
_cell_length_a 26.526070
_cell_length_b 15.402899
_cell_length_c 11.608155
_cell_angle_alpha 90.000000
_cell_angle_beta 90.000000
_cell_angle_gamma 90.000000
_cell_volume 4742.841131
_symmetry_space_group_name_H-M "C C C A"
_symmetry_group_IT_number 68
_space_group.IT_coordinate_system_code '2'
_symmetry_cell_setting 'orthorhombic'
loop_
_space_group_symop_operation_xyz
x,y,z
-x,1/2-y,z
x,1/2-y,1/2-z
-x,y,1/2-z
-x,-y,-z
x,1/2+y,-z
-x,1/2+y,1/2+z
x,-y,1/2+z
1/2+x,1/2+y,z
1/2-x,-y,z
1/2+x,-y,1/2-z
1/2-x,1/2+y,1/2-z
1/2-x,1/2-y,-z
1/2+x,y,-z
1/2-x,y,1/2+z
1/2+x,1/2-y,1/2+z
loop_
_atom_site_type_symbol
_atom_site_label
_atom_site_fract_x
_atom_site_fract_y
_atom_site_fract_z
Si Si1 0.341411 0.434387 0.165771
Si Si2 0.407097 0.558088 0.863600
Si Si3 0.163504 0.101986 0.089984
Si Si4 0.631215 0.250000 0.750000
Si Si5 0.500000 0.011618 0.750000
Si Si6 0.588872 0.403724 0.882107
Si Si7 0.750000 0.000000 0.796579
O O1 0.375559 0.388916 0.265639
O O2 0.365921 0.530045 0.148524
O O3 0.284717 0.442278 0.212837
O O4 0.340379 0.379738 0.047482
O O5 0.382922 0.461093 0.876180
O O6 0.464756 0.549122 0.826691
O O7 0.408474 0.611060 0.981230
O O8 0.163584 0.191701 0.161239
O O9 0.216762 0.057906 0.117739
O O10 0.596373 0.310503 0.826840
O O11 0.465961 0.066123 0.839172
#
# Coordination Sequence:
#
# PCOD8281657 Si02
#       7
#    16  16  16   8   8  16   8
#     4   9  18  35  57  80 105 155 189 227 276 344
#     4   9  18  35  56  82 109 154 194 229 266 342
#     4  10  20  34  58  80 116 145 188 234 289 336
#     4  12  20  39  52  90 114 146 180 247 294 328
#     4  10  16  33  56  88 109 148 200 226 270 331
#     4  10  20  33  56  84 118 144 189 235 283 333
#     4  10  16  34  58  84 104 148 192 226 276 350
#
# _framework density 18.554279999999999
#
# number of rings (size 3 to 8) (size 9 to 14) (size 15 to 20)
#    0.000    2.182    5.455    1.091    0.000    0.364 
#    0.000    1.818    0.000    0.000    0.000    0.000 
#    0.000    0.000    0.000    0.000    0.000    0.000 
#
# Total GULP energy -545279.674066 kJ/mol
# GULP energy per Si atom -12392.719865 kJ/mol
# Density = 1.851205 g / cm^3
# Si number density = 18.554280 Si / 1000 Ang^3
#
#
#
# Elastic Constant Matrix: (Units=GPa)
#
#
# Indices 1 2 3 4 5 6 
#
# 1 119.8901 22.5990 51.9743 0.0000 0.0000 0.0000
# 2 22.5990 57.7021 44.4384 0.0000 0.0000 0.0000
# 3 51.9743 44.4384 195.2140 0.0000 0.0000 0.0000
# 4 0.0000 0.0000 0.0000 30.6589 0.0000 0.0000
# 5 0.0000 0.0000 0.0000 0.0000 28.4576 0.0000
# 6 0.0000 0.0000 0.0000 0.0000 0.0000 10.4480
#
#
#
# Elastic Compliance Matrix: (Units=1/GPa)
#
#
# Indices 1 2 3 4 5 6 
#
# 1 0.009651 -0.002184 -0.002072 0.000000 0.000000 0.000000
# 2 -0.002184 0.021509 -0.004315 0.000000 0.000000 0.000000
# 3 -0.002072 -0.004315 0.006657 0.000000 0.000000 0.000000
# 4 0.000000 0.000000 0.000000 0.032617 0.000000 0.000000
# 5 0.000000 0.000000 0.000000 0.000000 0.035140 0.000000
# 6 0.000000 0.000000 0.000000 0.000000 0.000000 0.095712
#
#
# Mechanical properties :
#
#
# Convention : Reuss Voigt Hill
#
# Bulk Modulus (GPa) = 48.36934 67.86996 58.11965
# Shear Modulus (GPa) = 22.19080 30.83254 26.51167
#
# Velocity S-wave (km/s) = 3.46207 4.08088 3.78414
# Velocity P-wave (km/s) = 6.48898 7.67224 7.10529
#
# Compressibility (1/GPa) = 0.02067425
#
# Stress axis : x y z
#
# Youngs Moduli (GPa) = 103.61591 46.49297 150.22778
#
# Poissons Ratio (x) = 0.10153 0.31133
# Poissons Ratio (y) = 0.22628 0.64820
# Poissons Ratio (z) = 0.21473 0.20061
#
# Static dielectric constant tensor:
#      x y z
#    x 3.369960 0.000000 0.000000 
#    y 0.000000 2.892820 0.000000 
#    z 0.000000 0.000000 3.960520 
# 
# 
# High freq. dielectric constant tensor:
#      x y z
#    x 1.722640 0.000000 0.000000 
#    y 0.000000 1.657230 0.000000 
#    z 0.000000 0.000000 1.752740 
# 
# From -- ./inp_files/13374.got.cif
#   From: 2010.03.12/outbox.cif.g09.slc.cpg/sg68_7_cif.got.tgz:13374.got - 2010.04.10 23:14:56.
