data_PCOD8281033
_publ_section_title
;
Structure prediction by ZEFSAII (Michael W. Deem and Ramdas Pophale) SiO2 
 PCOD8281033
Probable space group: C M M A
;
_chemical_formula_sum "Si O2"
_cell_formula_units_Z 64
_cell_length_a 23.436196
_cell_length_b 19.120896
_cell_length_c 7.038480
_cell_angle_alpha 90.000000
_cell_angle_beta 90.000000
_cell_angle_gamma 90.000000
_cell_volume 3154.091163
_symmetry_space_group_name_H-M "C M M A"
_symmetry_group_IT_number 67
_symmetry_cell_setting 'orthorhombic'
loop_
_space_group_symop_operation_xyz
x,y,z
-x,1/2-y,z
x,-y,-z
-x,1/2+y,-z
-x,-y,-z
x,1/2+y,-z
-x,y,z
x,1/2-y,z
1/2+x,1/2+y,z
1/2-x,-y,z
1/2+x,1/2-y,-z
1/2-x,y,-z
1/2-x,1/2-y,-z
1/2+x,y,-z
1/2-x,1/2+y,z
1/2+x,-y,z
loop_
_atom_site_type_symbol
_atom_site_label
_atom_site_fract_x
_atom_site_fract_y
_atom_site_fract_z
Si Si1 0.817263 0.921182 0.021776
Si Si2 0.000000 0.327636 0.050876
Si Si3 0.882601 0.433781 0.610126
Si Si4 0.000000 0.454006 0.808234
Si Si5 0.885682 0.331686 0.271329
O O1 0.840672 0.901544 0.229866
O O2 0.750000 0.917479 0.000000
O O3 0.839648 0.869055 0.861592
O O4 0.840449 0.000000 0.000000
O O5 0.053510 0.344230 0.179784
O O6 0.000000 0.250000 0.970558
O O7 0.000000 0.372890 0.862244
O O8 0.853816 0.500000 0.500000
O O9 0.942528 0.465702 0.687760
O O10 0.889681 0.367089 0.475922
O O11 0.000000 0.500000 0.000000
O O12 0.869951 0.250000 0.292798
#
# Coordination Sequence:
#
# PCOD8281033 Si02
#       5
#    16   8  16   8  16
#     4  11  24  45  68  92 128 175 222 268 324 381
#     4  10  21  39  63  90 130 171 203 254 325 392
#     4  12  23  40  67  98 130 169 215 270 330 384
#     4  12  22  37  68  97 129 167 218 266 326 387
#     4  11  24  43  66  99 133 169 217 269 325 395
#
# _framework density 20.291107
#
# number of rings (size 3 to 8) (size 9 to 14) (size 15 to 20)
#    0.000    0.750    5.000    3.375    0.000    3.500 
#    0.000    1.250    0.000    0.000    0.000    0.000 
#    0.000    0.000    0.000    0.000    0.000    0.000 
#
# Total GULP energy -396787.420658 kJ/mol
# GULP energy per Si atom -12399.606896 kJ/mol
# Density = 2.024492 g / cm^3
# Si number density = 20.291107 Si / 1000 Ang^3
#
#
#
# Elastic Constant Matrix: (Units=GPa)
#
#
# Indices 1 2 3 4 5 6 
#
# 1 95.7725 28.6185 34.6668 0.0000 0.0000 0.0000
# 2 28.6185 117.4494 42.1715 0.0000 0.0000 0.0000
# 3 34.6668 42.1715 105.6568 0.0000 0.0000 0.0000
# 4 0.0000 0.0000 0.0000 46.1628 0.0000 0.0000
# 5 0.0000 0.0000 0.0000 0.0000 -240.6649 0.0000
# 6 0.0000 0.0000 0.0000 0.0000 0.0000 24.3973
#
#
#
# Elastic Compliance Matrix: (Units=1/GPa)
#
#
# Indices 1 2 3 4 5 6 
#
# 1 0.012162 -0.001787 -0.003277 0.000000 0.000000 0.000000
# 2 -0.001787 0.010201 -0.003485 0.000000 0.000000 0.000000
# 3 -0.003277 -0.003485 0.011931 0.000000 0.000000 0.000000
# 4 0.000000 0.000000 0.000000 0.021662 0.000000 0.000000
# 5 0.000000 0.000000 0.000000 0.000000 -0.004155 0.000000
# 6 0.000000 0.000000 0.000000 0.000000 0.000000 0.040988
#
#
# Mechanical properties :
#
#
# Convention : Reuss Voigt Hill
#
# Bulk Modulus (GPa) = 58.15583 58.86583 58.51083
# Shear Modulus (GPa) = 43.24535 -19.79282 11.72626
#
# Velocity S-wave (km/s) = 4.62155 -3.12660 2.40657
# Velocity P-wave (km/s) = 7.56315 4.00493 6.05148
#
# Compressibility (1/GPa) = 0.01719518
#
# Stress axis : x y z
#
# Youngs Moduli (GPa) = 82.22651 98.02828 83.81503
#
# Poissons Ratio (x) = 0.17514 0.27468
# Poissons Ratio (y) = 0.14691 0.29213
# Poissons Ratio (z) = 0.26947 0.34167
#
# Static dielectric constant tensor:
#      x y z
#    x 3.566370 0.000000 0.000000 
#    y 0.000000 3.873340 0.000000 
#    z 0.000000 0.000000 3.799580 
# 
# 
# High freq. dielectric constant tensor:
#      x y z
#    x 1.788080 0.000000 0.000000 
#    y 0.000000 1.798470 0.000000 
#    z 0.000000 0.000000 1.805450 
# 
# From -- ./inp_files/2861.got.cif
#   From: 2010.03.12/outbox.cif.g09.slc.cpg/sg67_2_cif.got.tgz:2861.got - 2010.04.10 22:41:39.
