data_PCOD8281786
_publ_section_title
;
Structure prediction by ZEFSAII (Michael W. Deem and Ramdas Pophale) SiO2 
 PCOD8281786
Probable space group: C C C A
;
_chemical_formula_sum "Si O2"
_cell_formula_units_Z 104
_cell_length_a 21.705693
_cell_length_b 17.625996
_cell_length_c 15.042173
_cell_angle_alpha 90.000000
_cell_angle_beta 90.000000
_cell_angle_gamma 90.000000
_cell_volume 5754.901604
_symmetry_space_group_name_H-M "C C C A"
_symmetry_group_IT_number 68
_space_group.IT_coordinate_system_code '2'
_symmetry_cell_setting 'orthorhombic'
loop_
_space_group_symop_operation_xyz
x,y,z
-x,1/2-y,z
x,1/2-y,1/2-z
-x,y,1/2-z
-x,-y,-z
x,1/2+y,-z
-x,1/2+y,1/2+z
x,-y,1/2+z
1/2+x,1/2+y,z
1/2-x,-y,z
1/2+x,-y,1/2-z
1/2-x,1/2+y,1/2-z
1/2-x,1/2-y,-z
1/2+x,y,-z
1/2-x,y,1/2+z
1/2+x,1/2-y,1/2+z
loop_
_atom_site_type_symbol
_atom_site_label
_atom_site_fract_x
_atom_site_fract_y
_atom_site_fract_z
Si Si1 0.121559 0.159078 0.112572
Si Si2 0.808893 0.454384 0.996451
Si Si3 0.149457 0.215231 0.511862
Si Si4 0.803570 0.750000 0.750000
Si Si5 0.267120 0.177884 0.393260
Si Si6 0.984405 0.543509 0.644999
Si Si7 0.080235 0.936684 0.007274
O O1 0.151141 0.198253 0.195696
O O2 0.061722 0.114188 0.143856
O O3 0.173909 0.104347 0.073347
O O4 0.106086 0.225128 0.041465
O O5 0.750000 0.500000 0.031081
O O6 0.793283 0.407100 0.906694
O O7 0.865046 0.509255 0.975739
O O8 0.208887 0.188173 0.457831
O O9 0.178261 0.259997 0.595432
O O10 0.106471 0.144572 0.538827
O O11 0.759146 0.811100 0.704153
O O12 0.955779 0.470183 0.593556
O O13 0.000000 0.525233 0.750000
O O14 0.041269 0.570534 0.583785
#
# Coordination Sequence:
#
# PCOD8281786 Si02
#       7
#    16  16  16   8  16  16  16
#     4   9  21  35  54  82 113 143 191 237 282 336
#     4  10  18  34  58  81 106 149 187 220 281 357
#     4   9  17  34  57  79 108 153 181 222 281 344
#     4  10  20  34  53  86 116 141 180 240 278 336
#     4   9  18  32  53  82 116 142 179 220 280 348
#     4  10  23  40  56  84 113 150 196 244 285 337
#     4  10  21  38  59  81 114 153 190 236 290 333
#
# _framework density 18.071552000000001
#
# number of rings (size 3 to 8) (size 9 to 14) (size 15 to 20)
#    0.000    2.462    1.538    0.923    4.308    0.615 
#    2.769    0.769    0.000    0.000    0.000    2.154 
#    0.000    0.000    0.000    0.000    0.000    0.000 
#
# Total GULP energy -644211.962354 kJ/mol
# GULP energy per Si atom -12388.691584 kJ/mol
# Density = 1.803042 g / cm^3
# Si number density = 18.071552 Si / 1000 Ang^3
#
#
#
# Elastic Constant Matrix: (Units=GPa)
#
#
# Indices 1 2 3 4 5 6 
#
# 1 96.0958 54.1949 45.2864 0.0000 0.0000 0.0000
# 2 54.1949 119.8781 34.2916 0.0000 0.0000 0.0000
# 3 45.2864 34.2916 83.7195 0.0000 0.0000 0.0000
# 4 0.0000 0.0000 0.0000 16.7415 0.0000 0.0000
# 5 0.0000 0.0000 0.0000 0.0000 -13.0997 0.0000
# 6 0.0000 0.0000 0.0000 0.0000 0.0000 28.0526
#
#
#
# Elastic Compliance Matrix: (Units=1/GPa)
#
#
# Indices 1 2 3 4 5 6 
#
# 1 0.016780 -0.005652 -0.006762 0.000000 0.000000 0.000000
# 2 -0.005652 0.011353 -0.001593 0.000000 0.000000 0.000000
# 3 -0.006762 -0.001593 0.016255 0.000000 0.000000 0.000000
# 4 0.000000 0.000000 0.000000 0.059732 0.000000 0.000000
# 5 0.000000 0.000000 0.000000 0.000000 -0.076338 0.000000
# 6 0.000000 0.000000 0.000000 0.000000 0.000000 0.035647
#
#
# Mechanical properties :
#
#
# Convention : Reuss Voigt Hill
#
# Bulk Modulus (GPa) = 61.07052 63.02659 62.04856
# Shear Modulus (GPa) = 51.59922 17.40025 34.49974
#
# Velocity S-wave (km/s) = 5.34927 3.10635 4.37402
# Velocity P-wave (km/s) = 8.48646 6.91504 7.74073
#
# Compressibility (1/GPa) = 0.01637451
#
# Stress axis : x y z
#
# Youngs Moduli (GPa) = 59.59312 88.08607 61.52013
#
# Poissons Ratio (x) = 0.49785 0.41600
# Poissons Ratio (y) = 0.33681 0.09799
# Poissons Ratio (z) = 0.40297 0.14030
#
# Static dielectric constant tensor:
#      x y z
#    x 3.434830 0.000000 0.000000 
#    y 0.000000 3.700180 0.000000 
#    z 0.000000 0.000000 1.681130 
# 
# 
# High freq. dielectric constant tensor:
#      x y z
#    x 1.702270 0.000000 0.000000 
#    y 0.000000 1.711880 0.000000 
#    z 0.000000 0.000000 1.673240 
# 
# From -- ./inp_files/24656.got.cif
#   From: 2010.03.12/outbox.cif.g09.slc.cpg/sg68_13_cif.got.tgz:24656.got - 2010.04.10 23:14:56.
