data_PCOD8281094
_publ_section_title
;
Structure prediction by ZEFSAII (Michael W. Deem and Ramdas Pophale) SiO2 
 PCOD8281094
Probable space group: C M M A
;
_chemical_formula_sum "Si O2"
_cell_formula_units_Z 72
_cell_length_a 27.173532
_cell_length_b 14.338939
_cell_length_c 9.501839
_cell_angle_alpha 90.000000
_cell_angle_beta 90.000000
_cell_angle_gamma 90.000000
_cell_volume 3702.292916
_symmetry_space_group_name_H-M "C M M A"
_symmetry_group_IT_number 67
_symmetry_cell_setting 'orthorhombic'
loop_
_space_group_symop_operation_xyz
x,y,z
-x,1/2-y,z
x,-y,-z
-x,1/2+y,-z
-x,-y,-z
x,1/2+y,-z
-x,y,z
x,1/2-y,z
1/2+x,1/2+y,z
1/2-x,-y,z
1/2+x,1/2-y,-z
1/2-x,y,-z
1/2-x,1/2-y,-z
1/2+x,y,-z
1/2-x,1/2+y,z
1/2+x,-y,z
loop_
_atom_site_type_symbol
_atom_site_label
_atom_site_fract_x
_atom_site_fract_y
_atom_site_fract_z
Si Si1 0.313855 0.750000 0.234057
Si Si2 0.656526 0.387558 0.997969
Si Si3 0.946981 0.407018 0.912822
Si Si4 0.700325 0.250000 0.209960
Si Si5 0.370236 0.750000 0.524997
Si Si6 0.554923 0.591916 0.588213
O O1 0.255973 0.750000 0.261608
O O2 0.340076 0.750000 0.382517
O O3 0.328580 0.844615 0.151814
O O4 0.600355 0.352185 0.027976
O O5 0.691240 0.343030 0.117381
O O6 0.661627 0.500000 0.000000
O O7 0.935978 0.431592 0.751177
O O8 0.000000 0.352517 0.925913
O O9 0.952215 0.500000 0.000000
O O10 0.666490 0.250000 0.345361
O O11 0.404774 0.838934 0.529552
O O12 0.562063 0.500000 0.500000
O O13 0.500000 0.633411 0.566936
#
# Coordination Sequence:
#
# PCOD8281094 Si02
#       6
#     8  16  16   8   8  16
#     4  11  27  40  60  87 122 153 206 258 299 347
#     4  10  21  41  66  90 116 157 198 247 305 357
#     4   9  18  34  61  92 120 151 194 239 291 352
#     4  11  23  44  61  87 117 158 202 255 302 347
#     4  12  24  40  61  90 121 163 200 240 298 366
#     4  10  22  40  63  90 125 162 195 239 293 359
#
# _framework density 19.447406000000001
#
# number of rings (size 3 to 8) (size 9 to 14) (size 15 to 20)
#    0.000    1.778    2.222    2.000    6.222    1.778 
#    0.000    3.333    0.000    4.000    0.000    0.000 
#    0.000    0.000    0.000    0.000    0.000    0.000 
#
# Total GULP energy -446166.930135 kJ/mol
# GULP energy per Si atom -12393.525837 kJ/mol
# Density = 1.940314 g / cm^3
# Si number density = 19.447406 Si / 1000 Ang^3
#
#
#
# Elastic Constant Matrix: (Units=GPa)
#
#
# Indices 1 2 3 4 5 6 
#
# 1 157.4273 48.9912 57.7099 0.0000 0.0000 0.0000
# 2 48.9912 104.2765 47.4878 0.0000 0.0000 0.0000
# 3 57.7099 47.4878 121.6093 0.0000 0.0000 0.0000
# 4 0.0000 0.0000 0.0000 39.8298 0.0000 0.0000
# 5 0.0000 0.0000 0.0000 0.0000 42.6069 0.0000
# 6 0.0000 0.0000 0.0000 0.0000 0.0000 27.0002
#
#
#
# Elastic Compliance Matrix: (Units=1/GPa)
#
#
# Indices 1 2 3 4 5 6 
#
# 1 0.008205 -0.002532 -0.002905 0.000000 0.000000 0.000000
# 2 -0.002532 0.012445 -0.003658 0.000000 0.000000 0.000000
# 3 -0.002905 -0.003658 0.011030 0.000000 0.000000 0.000000
# 4 0.000000 0.000000 0.000000 0.025107 0.000000 0.000000
# 5 0.000000 0.000000 0.000000 0.000000 0.023470 0.000000
# 6 0.000000 0.000000 0.000000 0.000000 0.000000 0.037037
#
#
# Mechanical properties :
#
#
# Convention : Reuss Voigt Hill
#
# Bulk Modulus (GPa) = 74.12846 76.85455 75.49151
# Shear Modulus (GPa) = 35.71891 37.16232 36.44062
#
# Velocity S-wave (km/s) = 4.29031 4.37614 4.33344
# Velocity P-wave (km/s) = 7.92102 8.07088 7.99630
#
# Compressibility (1/GPa) = 0.01349009
#
# Stress axis : x y z
#
# Youngs Moduli (GPa) = 121.87707 80.35050 90.66020
#
# Poissons Ratio (x) = 0.20344 0.26337
# Poissons Ratio (y) = 0.30858 0.33167
# Poissons Ratio (z) = 0.35405 0.29395
#
# Static dielectric constant tensor:
#      x y z
#    x 4.173480 0.000000 0.000000 
#    y 0.000000 3.428430 0.000000 
#    z 0.000000 0.000000 3.640770 
# 
# 
# High freq. dielectric constant tensor:
#      x y z
#    x 1.780400 0.000000 0.000000 
#    y 0.000000 1.742090 0.000000 
#    z 0.000000 0.000000 1.762160 
# 
# From -- ./inp_files/13358.got.cif
#   From: 2010.03.12/outbox.cif.g09.slc.cpg/sg67_7_cif.got.tgz:13358.got - 2010.04.10 22:41:39.
