data_PCOD8281610
_publ_section_title
;
Structure prediction by ZEFSAII (Michael W. Deem and Ramdas Pophale) SiO2 
 PCOD8281610
Probable space group: C M M A
;
_chemical_formula_sum "Si O2"
_cell_formula_units_Z 36
_cell_length_a 9.000000
_cell_length_b 15.000000
_cell_length_c 27.000000
_cell_angle_alpha 90.000000
_cell_angle_beta 90.000000
_cell_angle_gamma 90.000000
_cell_volume 3645.000000
_symmetry_space_group_name_H-M "C M M A"
_symmetry_group_IT_number 67
_symmetry_cell_setting 'orthorhombic'
loop_
_space_group_symop_operation_xyz
x,y,z
-x,1/2-y,z
x,-y,-z
-x,1/2+y,-z
-x,-y,-z
x,1/2+y,-z
-x,y,z
x,1/2-y,z
1/2+x,1/2+y,z
1/2-x,-y,z
1/2+x,1/2-y,-z
1/2-x,y,-z
1/2-x,1/2-y,-z
1/2+x,y,-z
1/2-x,1/2+y,z
1/2+x,-y,z
loop_
_atom_site_type_symbol
_atom_site_label
_atom_site_fract_x
_atom_site_fract_y
_atom_site_fract_z
Si Si1 0.824950 0.250000 0.390615
Si Si2 0.828994 0.412040 0.778251
Si Si3 0.826313 0.250000 0.051769
Si Si4 0.165616 0.250000 0.705695
Si Si5 0.320345 0.906494 0.552029
Si Si6 0.323644 0.591137 0.120557
O O1 0.802049 0.250000 0.332160
O O2 0.736556 0.335888 0.408941
O O3 0.000000 0.250000 0.404645
O O4 0.750000 0.500000 0.756637
O O5 0.814948 0.337277 0.737694
O O6 0.742985 0.379583 0.826880
O O7 0.000000 0.432905 0.791684
O O8 0.773648 0.163526 0.081095
O O9 0.000000 0.250000 0.043668
O O10 0.750000 0.250000 0.000000
O O11 0.000000 0.250000 0.681161
O O12 0.500000 0.911093 0.549220
O O13 0.250000 0.877082 0.500000
O O14 0.250000 0.000000 0.568471
O O15 0.500000 0.582042 0.125123
O O16 0.250000 0.500000 0.102310
#
# Coordination Sequence:
#
# PCOD8281610 Si02
#       6
#     8  16   8   8  16  16
#     4  12  25  40  59  86 119 158 197 236 289 344
#     4  10  20  36  59  84 110 143 184 229 278 330
#     4  10  23  38  54  78 110 146 181 222 271 326
#     4  10  23  40  56  80 115 152 188 230 282 338
#     4  11  22  40  64  90 119 152 194 242 289 341
#     4  10  20  36  57  82 109 140 181 226 273 324
#
# _framework density 9.8765429999999999
#
# number of rings (size 3 to 8) (size 9 to 14) (size 15 to 20)
#    0.000    1.556    0.000    7.333    0.000    4.889 
#    0.000    4.444    0.000    0.000    0.000    0.000 
#    0.000    0.000    0.000    0.000    0.000    0.000 
#
# Total GULP energy -446351.021234 kJ/mol
# GULP energy per Si atom -12398.639479 kJ/mol
# Density = 0.985406 g / cm^3
# Si number density = 9.876543 Si / 1000 Ang^3
#
#
#
# Elastic Constant Matrix: (Units=GPa)
#
#
# Indices 1 2 3 4 5 6 
#
# 1 162.0119 61.0368 53.7283 0.0000 0.0000 0.0000
# 2 61.0368 96.3928 81.5300 0.0000 0.0000 0.0000
# 3 53.7283 81.5300 89.6731 0.0000 0.0000 0.0000
# 4 0.0000 0.0000 0.0000 17.7056 0.0000 0.0000
# 5 0.0000 0.0000 0.0000 0.0000 37.7604 0.0000
# 6 0.0000 0.0000 0.0000 0.0000 0.0000 19.3659
#
#
#
# Elastic Compliance Matrix: (Units=1/GPa)
#
#
# Indices 1 2 3 4 5 6 
#
# 1 0.008120 -0.004445 -0.000824 0.000000 0.000000 0.000000
# 2 -0.004445 0.047343 -0.040381 0.000000 0.000000 0.000000
# 3 -0.000824 -0.040381 0.048360 0.000000 0.000000 0.000000
# 4 0.000000 0.000000 0.000000 0.056479 0.000000 0.000000
# 5 0.000000 0.000000 0.000000 0.000000 0.026483 0.000000
# 6 0.000000 0.000000 0.000000 0.000000 0.000000 0.051637
#
#
# Mechanical properties :
#
#
# Convention : Reuss Voigt Hill
#
# Bulk Modulus (GPa) = 79.85199 82.29645 81.07422
# Shear Modulus (GPa) = 14.97468 25.08523 20.02995
#
# Velocity S-wave (km/s) = 2.75634 3.56749 3.18782
# Velocity P-wave (km/s) = 7.11637 7.66305 7.39476
#
# Compressibility (1/GPa) = 0.01252317
#
# Stress axis : x y z
#
# Youngs Moduli (GPa) = 123.14942 21.12229 20.67838
#
# Poissons Ratio (x) = 0.09388 0.01705
# Poissons Ratio (y) = 0.54735 0.83502
# Poissons Ratio (z) = 0.10151 0.85294
#
# Static dielectric constant tensor:
#      x y z
#    x 3.903430 0.000000 0.000000 
#    y 0.000000 6.400080 0.000000 
#    z 0.000000 0.000000 3.370910 
# 
# 
# High freq. dielectric constant tensor:
#      x y z
#    x 1.791630 0.000000 0.000000 
#    y 0.000000 1.780950 0.000000 
#    z 0.000000 0.000000 1.753610 
# 
# From -- ./inp_files/43161.got.cif
#   From: 2010.03.12/outbox.ucp.g09.slc.cvg/sg67_22_cif.got.tgz:43161.got - 2010.05.04 19:50:31.
