data_PCOD8281059
_publ_section_title
;
Structure prediction by ZEFSAII (Michael W. Deem and Ramdas Pophale) SiO2 
 PCOD8281059
Probable space group: C M M A
;
_chemical_formula_sum "Si O2"
_cell_formula_units_Z 112
_cell_length_a 16.973854
_cell_length_b 21.589084
_cell_length_c 14.521898
_cell_angle_alpha 90.000000
_cell_angle_beta 90.000000
_cell_angle_gamma 90.000000
_cell_volume 5321.548938
_symmetry_space_group_name_H-M "C M M A"
_symmetry_group_IT_number 67
_symmetry_cell_setting 'orthorhombic'
loop_
_space_group_symop_operation_xyz
x,y,z
-x,1/2-y,z
x,-y,-z
-x,1/2+y,-z
-x,-y,-z
x,1/2+y,-z
-x,y,z
x,1/2-y,z
1/2+x,1/2+y,z
1/2-x,-y,z
1/2+x,1/2-y,-z
1/2-x,y,-z
1/2-x,1/2-y,-z
1/2+x,y,-z
1/2-x,1/2+y,z
1/2+x,-y,z
loop_
_atom_site_type_symbol
_atom_site_label
_atom_site_fract_x
_atom_site_fract_y
_atom_site_fract_z
Si Si1 0.093596 0.882539 0.828320
Si Si2 0.908254 0.397892 0.457663
Si Si3 0.826044 0.180609 0.326007
Si Si4 0.158135 0.984522 0.697321
Si Si5 0.085022 0.178481 0.808874
Si Si6 0.164810 0.384864 0.654840
Si Si7 0.157615 0.178105 0.995728
O O1 0.132313 0.825110 0.773081
O O2 0.133457 0.945659 0.788135
O O3 0.114303 0.868812 0.933987
O O4 0.000000 0.886557 0.813620
O O5 0.893229 0.334459 0.401125
O O6 0.879290 0.455659 0.395703
O O7 0.857267 0.389763 0.548883
O O8 0.000000 0.405583 0.481272
O O9 0.792566 0.250000 0.338813
O O10 0.759381 0.126960 0.337833
O O11 0.250000 0.000000 0.683616
O O12 0.128120 0.055127 0.706967
O O13 0.074201 0.250000 0.826902
O O14 0.126825 0.171803 0.710093
O O15 0.000000 0.145537 0.807745
O O16 0.135099 0.152805 0.894685
O O17 0.132859 0.250000 0.013655
O O18 0.250000 0.170107 0.000000
#
# Coordination Sequence:
#
# PCOD8281059 Si02
#       7
#    16  16  16  16  16  16  16
#     4  11  23  41  67 100 130 165 215 270 330 386
#     4  11  25  41  62  94 125 165 219 270 323 387
#     4  11  23  39  61  92 129 167 212 265 323 394
#     4  11  23  42  67  91 123 166 211 271 317 389
#     4  10  22  39  60  92 128 162 207 259 313 375
#     4  12  23  40  66  88 125 171 217 264 318 380
#     4  10  21  39  67  97 129 171 216 259 312 385
#
# _framework density 21.046502
#
# number of rings (size 3 to 8) (size 9 to 14) (size 15 to 20)
#    0.000    1.143    2.857    5.143    0.000    8.857 
#    0.000    0.714    0.000    1.714    0.000    0.000 
#    0.000    0.000    0.000    0.000    0.000    0.000 
#
# Total GULP energy -693930.426153 kJ/mol
# GULP energy per Si atom -12391.614753 kJ/mol
# Density = 2.099860 g / cm^3
# Si number density = 21.046502 Si / 1000 Ang^3
#
#
#
# Elastic Constant Matrix: (Units=GPa)
#
#
# Indices 1 2 3 4 5 6 
#
# 1 122.0380 19.8190 28.5639 0.0000 0.0000 0.0000
# 2 19.8190 95.4479 25.7686 0.0000 0.0000 0.0000
# 3 28.5639 25.7686 81.3415 0.0000 0.0000 0.0000
# 4 0.0000 0.0000 0.0000 20.4750 0.0000 0.0000
# 5 0.0000 0.0000 0.0000 0.0000 35.8782 0.0000
# 6 0.0000 0.0000 0.0000 0.0000 0.0000 21.2044
#
#
#
# Elastic Compliance Matrix: (Units=1/GPa)
#
#
# Indices 1 2 3 4 5 6 
#
# 1 0.009035 -0.001115 -0.002820 0.000000 0.000000 0.000000
# 2 -0.001115 0.011594 -0.003282 0.000000 0.000000 0.000000
# 3 -0.002820 -0.003282 0.014324 0.000000 0.000000 0.000000
# 4 0.000000 0.000000 0.000000 0.048840 0.000000 0.000000
# 5 0.000000 0.000000 0.000000 0.000000 0.027872 0.000000
# 6 0.000000 0.000000 0.000000 0.000000 0.000000 0.047160
#
#
# Mechanical properties :
#
#
# Convention : Reuss Voigt Hill
#
# Bulk Modulus (GPa) = 48.73042 49.68115 49.20578
# Shear Modulus (GPa) = 27.76274 30.48992 29.12633
#
# Velocity S-wave (km/s) = 3.63590 3.81030 3.72412
# Velocity P-wave (km/s) = 6.38986 6.55854 6.47475
#
# Compressibility (1/GPa) = 0.02052106
#
# Stress axis : x y z
#
# Youngs Moduli (GPa) = 110.67853 86.24893 69.81502
#
# Poissons Ratio (x) = 0.09616 0.19685
# Poissons Ratio (y) = 0.12339 0.22910
# Poissons Ratio (z) = 0.31207 0.28303
#
# Static dielectric constant tensor:
#      x y z
#    x 3.965620 0.000000 0.000000 
#    y 0.000000 4.042030 0.000000 
#    z 0.000000 0.000000 3.738600 
# 
# 
# High freq. dielectric constant tensor:
#      x y z
#    x 1.836970 0.000000 0.000000 
#    y 0.000000 1.814380 0.000000 
#    z 0.000000 0.000000 1.822690 
# 
# From -- ./inp_files/27529.got.cif
#   From: 2010.03.12/outbox.cif.g09.slc.cpg/sg67_14_cif.got.tgz:27529.got - 2010.04.10 22:41:39.
