data_PCOD8281988
_publ_section_title
;
Structure prediction by ZEFSAII (Michael W. Deem and Ramdas Pophale) SiO2 
 PCOD8281988
Probable space group: C C C A
;
_chemical_formula_sum "Si O2"
_cell_formula_units_Z 88
_cell_length_a 15.836031
_cell_length_b 30.266926
_cell_length_c 8.577031
_cell_angle_alpha 90.000000
_cell_angle_beta 90.000000
_cell_angle_gamma 90.000000
_cell_volume 4111.039389
_symmetry_space_group_name_H-M "C C C A"
_symmetry_group_IT_number 68
_space_group.IT_coordinate_system_code '2'
_symmetry_cell_setting 'orthorhombic'
loop_
_space_group_symop_operation_xyz
x,y,z
-x,1/2-y,z
x,1/2-y,1/2-z
-x,y,1/2-z
-x,-y,-z
x,1/2+y,-z
-x,1/2+y,1/2+z
x,-y,1/2+z
1/2+x,1/2+y,z
1/2-x,-y,z
1/2+x,-y,1/2-z
1/2-x,1/2+y,1/2-z
1/2-x,1/2-y,-z
1/2+x,y,-z
1/2-x,y,1/2+z
1/2+x,1/2-y,1/2+z
loop_
_atom_site_type_symbol
_atom_site_label
_atom_site_fract_x
_atom_site_fract_y
_atom_site_fract_z
Si Si1 0.791478 0.360795 0.815548
Si Si2 0.419774 0.631470 0.416502
Si Si3 0.750000 0.000000 0.550959
Si Si4 0.634955 0.201529 0.684479
Si Si5 0.178755 0.559484 0.790412
Si Si6 0.442134 0.170470 0.112922
O O1 0.726942 0.320172 0.829313
O O2 0.747983 0.405995 0.769145
O O3 0.860769 0.352648 0.683205
O O4 0.833609 0.364664 0.984878
O O5 0.424274 0.672454 0.297356
O O6 0.410444 0.585436 0.318552
O O7 0.502293 0.632375 0.525975
O O8 0.824496 0.978726 0.659140
O O9 0.705909 0.961951 0.452793
O O10 0.646198 0.250000 0.750000
O O11 0.589428 0.205822 0.515064
O O12 0.500000 0.192655 0.250000
#
# Coordination Sequence:
#
# PCOD8281988 Si02
#       6
#    16  16   8  16  16  16
#     4  10  21  39  64  90 125 167 214 261 311 381
#     4  10  21  38  60  89 127 171 207 259 320 378
#     4  10  20  32  62  94 126 162 216 274 304 370
#     4  11  23  40  63  93 124 164 217 262 307 374
#     4  10  19  36  59  94 123 165 216 257 317 366
#     4  10  23  41  62  91 125 172 204 257 321 376
#
# _framework density 21.405781000000001
#
# number of rings (size 3 to 8) (size 9 to 14) (size 15 to 20)
#    0.000    1.818    1.818    2.727    2.545    4.364 
#    0.000    7.273    0.000    6.545    0.000    0.000 
#    0.000    0.000    0.000    0.000    0.000    0.000 
#
# Total GULP energy -545376.775592 kJ/mol
# GULP energy per Si atom -12394.926718 kJ/mol
# Density = 2.135706 g / cm^3
# Si number density = 21.405781 Si / 1000 Ang^3
#
#
#
# Elastic Constant Matrix: (Units=GPa)
#
#
# Indices 1 2 3 4 5 6 
#
# 1 97.6772 27.3606 44.1741 0.0000 0.0000 0.0000
# 2 27.3606 117.9720 54.4481 0.0000 0.0000 0.0000
# 3 44.1741 54.4481 141.6012 0.0000 0.0000 0.0000
# 4 0.0000 0.0000 0.0000 18.8382 0.0000 0.0000
# 5 0.0000 0.0000 0.0000 0.0000 38.9427 0.0000
# 6 0.0000 0.0000 0.0000 0.0000 0.0000 -3.6003
#
#
#
# Elastic Compliance Matrix: (Units=1/GPa)
#
#
# Indices 1 2 3 4 5 6 
#
# 1 0.012079 -0.001291 -0.003272 0.000000 0.000000 0.000000
# 2 -0.001291 0.010444 -0.003613 0.000000 0.000000 0.000000
# 3 -0.003272 -0.003613 0.009472 0.000000 0.000000 0.000000
# 4 0.000000 0.000000 0.000000 0.053084 0.000000 0.000000
# 5 0.000000 0.000000 0.000000 0.000000 0.025679 0.000000
# 6 0.000000 0.000000 0.000000 0.000000 0.000000 -0.277757
#
#
# Mechanical properties :
#
#
# Convention : Reuss Voigt Hill
#
# Bulk Modulus (GPa) = 63.92753 67.69067 65.80910
# Shear Modulus (GPa) = -34.37999 26.25397 -4.06301
#
# Velocity S-wave (km/s) = -4.01198 3.50593 -1.37921
# Velocity P-wave (km/s) = 2.91001 6.93397 5.31734
#
# Compressibility (1/GPa) = 0.01564271
#
# Stress axis : x y z
#
# Youngs Moduli (GPa) = 82.78735 95.75282 105.57539
#
# Poissons Ratio (x) = 0.12366 0.34540
# Poissons Ratio (y) = 0.10692 0.38143
# Poissons Ratio (z) = 0.27085 0.34594
#
# Static dielectric constant tensor:
#      x y z
#    x 3.841150 0.000000 0.000000 
#    y 0.000000 3.670390 0.000000 
#    z 0.000000 0.000000 4.404430 
# 
# 
# High freq. dielectric constant tensor:
#      x y z
#    x 1.829350 0.000000 0.000000 
#    y 0.000000 1.815920 0.000000 
#    z 0.000000 0.000000 1.873170 
# 
# From -- ./inp_files/6404.got.cif
#   From: 2010.03.12/outbox.cif.g09.slc.cpg/sg68_4_cif.got.tgz:6404.got - 2010.04.10 23:14:56.
