data_PCOD8281528
_publ_section_title
;
Structure prediction by ZEFSAII (Michael W. Deem and Ramdas Pophale) SiO2 
 PCOD8281528
Probable space group: C M M A
;
_chemical_formula_sum "Si O2"
_cell_formula_units_Z 72
_cell_length_a 27.286029
_cell_length_b 13.815370
_cell_length_c 9.030232
_cell_angle_alpha 90.000000
_cell_angle_beta 90.000000
_cell_angle_gamma 90.000000
_cell_volume 3404.095732
_symmetry_space_group_name_H-M "C M M A"
_symmetry_group_IT_number 67
_symmetry_cell_setting 'orthorhombic'
loop_
_space_group_symop_operation_xyz
x,y,z
-x,1/2-y,z
x,-y,-z
-x,1/2+y,-z
-x,-y,-z
x,1/2+y,-z
-x,y,z
x,1/2-y,z
1/2+x,1/2+y,z
1/2-x,-y,z
1/2+x,1/2-y,-z
1/2-x,y,-z
1/2-x,1/2-y,-z
1/2+x,y,-z
1/2-x,1/2+y,z
1/2+x,-y,z
loop_
_atom_site_type_symbol
_atom_site_label
_atom_site_fract_x
_atom_site_fract_y
_atom_site_fract_z
Si Si1 0.169614 0.593604 0.203235
Si Si2 0.500000 0.040906 0.837511
Si Si3 0.390271 0.750000 0.966488
Si Si4 0.750000 0.500000 0.000000
Si Si5 0.696378 0.250000 0.440831
Si Si6 0.500000 0.250000 0.946326
Si Si7 0.619669 0.750000 0.305526
Si Si8 0.906802 0.039237 0.336882
O O1 0.129636 0.653948 0.111785
O O2 0.186616 0.653933 0.345760
O O3 0.143590 0.495227 0.258531
O O4 0.216413 0.568253 0.102710
O O5 0.500000 0.157246 0.840343
O O6 0.547363 0.998978 0.754863
O O7 0.500000 0.000000 0.000000
O O8 0.449749 0.750000 0.956923
O O9 0.368235 0.750000 0.131504
O O10 0.750000 0.250000 0.500000
O O11 0.667078 0.250000 0.593087
O O12 0.588772 0.845192 0.343165
O O13 0.910319 0.000000 0.500000
#
# Coordination Sequence:
#
# PCOD8281528 Si02
#       8
#    16   8   8   4   8   4   8  16
#     4  11  27  46  70 105 142 184 245 289 366 414
#     4  12  25  43  71 110 140 186 241 285 355 429
#     4  11  24  45  75 102 146 185 230 298 348 429
#     4  12  28  42  70 106 140 194 242 310 348 434
#     4  11  27  46  71 102 134 187 240 293 360 434
#     4  12  22  42  70 108 134 182 232 272 352 416
#     4  12  24  45  71  97 140 182 233 287 356 410
#     4  12  25  46  71 102 145 187 233 294 353 428
#
# _framework density 21.150991999999999
#
# number of rings (size 3 to 8) (size 9 to 14) (size 15 to 20)
#    0.000    0.444    4.444    3.000    7.778    0.889 
#    0.000    0.000    0.000    0.000    0.000    0.000 
#    0.000    0.000    0.000    0.000    0.000    0.000 
#
# Total GULP energy -446471.458650 kJ/mol
# GULP energy per Si atom -12401.984962 kJ/mol
# Density = 2.110285 g / cm^3
# Si number density = 21.150992 Si / 1000 Ang^3
#
#
#
# Elastic Constant Matrix: (Units=GPa)
#
#
# Indices 1 2 3 4 5 6 
#
# 1 176.2004 43.3245 79.7025 0.0000 0.0000 0.0000
# 2 43.3245 119.4636 51.9060 0.0000 0.0000 0.0000
# 3 79.7025 51.9060 160.0072 0.0000 0.0000 0.0000
# 4 0.0000 0.0000 0.0000 16.9017 0.0000 0.0000
# 5 0.0000 0.0000 0.0000 0.0000 44.0573 0.0000
# 6 0.0000 0.0000 0.0000 0.0000 0.0000 13.2830
#
#
#
# Elastic Compliance Matrix: (Units=1/GPa)
#
#
# Indices 1 2 3 4 5 6 
#
# 1 0.007489 -0.001275 -0.003317 0.000000 0.000000 0.000000
# 2 -0.001275 0.009961 -0.002596 0.000000 0.000000 0.000000
# 3 -0.003317 -0.002596 0.008744 0.000000 0.000000 0.000000
# 4 0.000000 0.000000 0.000000 0.059166 0.000000 0.000000
# 5 0.000000 0.000000 0.000000 0.000000 0.022698 0.000000
# 6 0.000000 0.000000 0.000000 0.000000 0.000000 0.075284
#
#
# Mechanical properties :
#
#
# Convention : Reuss Voigt Hill
#
# Bulk Modulus (GPa) = 84.61465 89.50412 87.05938
# Shear Modulus (GPa) = 24.79445 33.56426 29.17936
#
# Velocity S-wave (km/s) = 3.42754 3.98790 3.71829
# Velocity P-wave (km/s) = 7.46699 7.97578 7.72557
#
# Compressibility (1/GPa) = 0.01181828
#
# Stress axis : x y z
#
# Youngs Moduli (GPa) = 133.52552 100.38965 114.36131
#
# Poissons Ratio (x) = 0.12798 0.37933
# Poissons Ratio (y) = 0.17022 0.29692
# Poissons Ratio (z) = 0.44290 0.26065
#
# Static dielectric constant tensor:
#      x y z
#    x 4.011220 0.000000 0.000000 
#    y 0.000000 4.072730 0.000000 
#    z 0.000000 0.000000 16.175150 
# 
# 
# High freq. dielectric constant tensor:
#      x y z
#    x 1.835940 0.000000 0.000000 
#    y 0.000000 1.838510 0.000000 
#    z 0.000000 0.000000 1.843330 
# 
# From -- ./inp_files/13400.got.cif
#   From: 2010.03.12/outbox.cif.g09.slc.cpg/sg67_7_cif.got.tgz:13400.got - 2010.04.10 22:41:39.
