data_PCOD8281136
_publ_section_title
;
Structure prediction by ZEFSAII (Michael W. Deem and Ramdas Pophale) SiO2 
 PCOD8281136
Probable space group: C M M A
;
_chemical_formula_sum "Si O2"
_cell_formula_units_Z 88
_cell_length_a 10.065165
_cell_length_b 15.413789
_cell_length_c 29.692028
_cell_angle_alpha 90.000000
_cell_angle_beta 90.000000
_cell_angle_gamma 90.000000
_cell_volume 4606.490393
_symmetry_space_group_name_H-M "C M M A"
_symmetry_group_IT_number 67
_symmetry_cell_setting 'orthorhombic'
loop_
_space_group_symop_operation_xyz
x,y,z
-x,1/2-y,z
x,-y,-z
-x,1/2+y,-z
-x,-y,-z
x,1/2+y,-z
-x,y,z
x,1/2-y,z
1/2+x,1/2+y,z
1/2-x,-y,z
1/2+x,1/2-y,-z
1/2-x,y,-z
1/2-x,1/2-y,-z
1/2+x,y,-z
1/2-x,1/2+y,z
1/2+x,-y,z
loop_
_atom_site_type_symbol
_atom_site_label
_atom_site_fract_x
_atom_site_fract_y
_atom_site_fract_z
Si Si1 0.148658 0.353183 0.963592
Si Si2 0.154840 0.750000 0.542464
Si Si3 0.647432 0.853352 0.863216
Si Si4 0.153680 0.419389 0.399761
Si Si5 0.650299 0.575075 0.298247
Si Si6 0.644271 0.349401 0.793837
O O1 0.149849 0.250000 0.966968
O O2 0.193349 0.381686 0.913342
O O3 0.000000 0.387331 0.973915
O O4 0.250000 0.394150 0.000000
O O5 0.250000 0.750000 0.500000
O O6 0.189376 0.663695 0.570403
O O7 0.000000 0.750000 0.528106
O O8 0.500000 0.889402 0.853216
O O9 0.644901 0.750000 0.859842
O O10 0.746269 0.894829 0.825872
O O11 0.250000 0.500000 0.412580
O O12 0.178940 0.388628 0.348287
O O13 0.000000 0.448090 0.407105
O O14 0.500000 0.539217 0.296442
O O15 0.750000 0.500000 0.285700
O O16 0.676514 0.646290 0.259615
O O17 0.500000 0.392652 0.803300
O O18 0.638425 0.250000 0.807616
#
# Coordination Sequence:
#
# PCOD8281136 Si02
#       6
#    16   8  16  16  16  16
#     4   8  13  20  30  45  67 100 140 179 221 269
#     4  10  22  38  58  84 112 146 184 222 267 318
#     4   8  14  24  35  50  78 112 144 181 227 279
#     4   9  19  36  57  80 108 143 180 220 268 316
#     4   9  18  32  50  71  96 125 160 199 239 287
#     4   9  17  27  42  65  89 116 150 189 231 276
#
# _framework density 19.103480000000001
#
# number of rings (size 3 to 8) (size 9 to 14) (size 15 to 20)
#    0.000    3.273    0.000    1.091    1.273    2.545 
#    0.000    5.455    0.000    0.000    0.000    0.000 
#    0.000    0.727    0.000    8.000    0.000   13.091 
#
# Total GULP energy -545159.750193 kJ/mol
# GULP energy per Si atom -12389.994323 kJ/mol
# Density = 1.906000 g / cm^3
# Si number density = 19.103480 Si / 1000 Ang^3
#
#
#
# Elastic Constant Matrix: (Units=GPa)
#
#
# Indices 1 2 3 4 5 6 
#
# 1 119.4691 41.7445 96.0934 0.0000 0.0000 0.0000
# 2 41.7445 46.0926 42.1391 0.0000 0.0000 0.0000
# 3 96.0934 42.1391 150.4256 0.0000 0.0000 0.0000
# 4 0.0000 0.0000 0.0000 3.1120 0.0000 0.0000
# 5 0.0000 0.0000 0.0000 0.0000 38.5972 0.0000
# 6 0.0000 0.0000 0.0000 0.0000 0.0000 18.4662
#
#
#
# Elastic Compliance Matrix: (Units=1/GPa)
#
#
# Indices 1 2 3 4 5 6 
#
# 1 0.019352 -0.008368 -0.010018 0.000000 0.000000 0.000000
# 2 -0.008368 0.032783 -0.003838 0.000000 0.000000 0.000000
# 3 -0.010018 -0.003838 0.014123 0.000000 0.000000 0.000000
# 4 0.000000 0.000000 0.000000 0.321332 0.000000 0.000000
# 5 0.000000 0.000000 0.000000 0.000000 0.025909 0.000000
# 6 0.000000 0.000000 0.000000 0.000000 0.000000 0.054153
#
#
# Mechanical properties :
#
#
# Convention : Reuss Voigt Hill
#
# Bulk Modulus (GPa) = 45.85173 75.10458 60.47815
# Shear Modulus (GPa) = 9.62705 21.10244 15.36475
#
# Velocity S-wave (km/s) = 2.24730 3.32722 2.83908
# Velocity P-wave (km/s) = 5.54867 7.35938 6.51721
#
# Compressibility (1/GPa) = 0.02180943
#
# Stress axis : x y z
#
# Youngs Moduli (GPa) = 51.67327 30.50392 70.80713
#
# Poissons Ratio (x) = 0.25525 0.70938
# Poissons Ratio (y) = 0.43238 0.27177
# Poissons Ratio (z) = 0.51769 0.11708
#
# Static dielectric constant tensor:
#      x y z
#    x 3.903020 0.000000 0.000000 
#    y 0.000000 2.993200 0.000000 
#    z 0.000000 0.000000 3.677560 
# 
# 
# High freq. dielectric constant tensor:
#      x y z
#    x 1.748870 0.000000 0.000000 
#    y 0.000000 1.696290 0.000000 
#    z 0.000000 0.000000 1.749440 
# 
# From -- ./inp_files/44050.got.cif
#   From: 2010.03.12/outbox.cif.g09.slc.cpg/sg67_23_cif.got.tgz:44050.got - 2010.04.10 22:41:39.
