data_PCOD8281830
_publ_section_title
;
Structure prediction by ZEFSAII (Michael W. Deem and Ramdas Pophale) SiO2 
 PCOD8281830
Probable space group: C C C A
;
_chemical_formula_sum "Si O2"
_cell_formula_units_Z 100
_cell_length_a 29.535970
_cell_length_b 16.204926
_cell_length_c 10.249806
_cell_angle_alpha 90.000000
_cell_angle_beta 90.000000
_cell_angle_gamma 90.000000
_cell_volume 4905.846280
_symmetry_space_group_name_H-M "C C C A"
_symmetry_group_IT_number 68
_space_group.IT_coordinate_system_code '2'
_symmetry_cell_setting 'orthorhombic'
loop_
_space_group_symop_operation_xyz
x,y,z
-x,1/2-y,z
x,1/2-y,1/2-z
-x,y,1/2-z
-x,-y,-z
x,1/2+y,-z
-x,1/2+y,1/2+z
x,-y,1/2+z
1/2+x,1/2+y,z
1/2-x,-y,z
1/2+x,-y,1/2-z
1/2-x,1/2+y,1/2-z
1/2-x,1/2-y,-z
1/2+x,y,-z
1/2-x,y,1/2+z
1/2+x,1/2-y,1/2+z
loop_
_atom_site_type_symbol
_atom_site_label
_atom_site_fract_x
_atom_site_fract_y
_atom_site_fract_z
Si Si1 0.268568 0.410609 0.040368
Si Si2 0.969387 0.421922 0.636188
Si Si3 0.500000 0.750000 0.250000
Si Si4 0.039347 0.892846 0.582766
Si Si5 0.372785 0.580811 0.828278
Si Si6 0.719810 0.161168 0.305369
Si Si7 0.630644 0.059899 0.035823
O O1 0.250000 0.500000 0.999378
O O2 0.258695 0.399137 0.194855
O O3 0.321945 0.392740 0.017235
O O4 0.243870 0.346817 0.944831
O O5 0.959185 0.520039 0.660158
O O6 0.921096 0.375406 0.642773
O O7 0.000000 0.386079 0.750000
O O8 0.994025 0.400223 0.502823
O O9 0.466737 0.689408 0.331127
O O10 0.086916 0.884879 0.504634
O O11 0.333799 0.648901 0.825634
O O12 0.374972 0.533970 0.687789
O O13 0.363755 0.520259 0.947867
O O14 0.729067 0.250000 0.250000
#
# Coordination Sequence:
#
# PCOD8281830 Si02
#       7
#    16  16   4  16  16  16  16
#     4  11  22  41  67  92 120 172 222 267 313 391
#     4  10  18  38  65  88 115 166 218 249 305 381
#     4  12  24  44  58 100 144 166 204 274 328 380
#     4  10  22  38  62  92 129 167 204 261 320 370
#     4  10  21  37  64  93 123 162 213 268 311 381
#     4  11  24  42  61  92 132 163 208 272 339 380
#     4  10  21  37  64  94 123 163 222 264 307 382
#
# _framework density 20.383842000000001
#
# number of rings (size 3 to 8) (size 9 to 14) (size 15 to 20)
#    0.000    1.600    4.000    0.960    2.240    0.000 
#    7.200    0.400    0.000    0.000    0.000    0.000 
#    0.000    0.000    0.000    0.000    0.000    0.000 
#
# Total GULP energy -619593.965443 kJ/mol
# GULP energy per Si atom -12391.879309 kJ/mol
# Density = 2.033745 g / cm^3
# Si number density = 20.383842 Si / 1000 Ang^3
#
#
#
# Elastic Constant Matrix: (Units=GPa)
#
#
# Indices 1 2 3 4 5 6 
#
# 1 149.6109 21.5888 49.6958 0.0000 0.0000 0.0000
# 2 21.5888 59.5199 4.5016 0.0000 0.0000 0.0000
# 3 49.6958 4.5016 74.6917 0.0000 0.0000 0.0000
# 4 0.0000 0.0000 0.0000 27.4811 0.0000 0.0000
# 5 0.0000 0.0000 0.0000 0.0000 36.8882 0.0000
# 6 0.0000 0.0000 0.0000 0.0000 0.0000 16.9547
#
#
#
# Elastic Compliance Matrix: (Units=1/GPa)
#
#
# Indices 1 2 3 4 5 6 
#
# 1 0.009033 -0.002835 -0.005839 0.000000 0.000000 0.000000
# 2 -0.002835 0.017768 0.000815 0.000000 0.000000 0.000000
# 3 -0.005839 0.000815 0.017224 0.000000 0.000000 0.000000
# 4 0.000000 0.000000 0.000000 0.036389 0.000000 0.000000
# 5 0.000000 0.000000 0.000000 0.000000 0.027109 0.000000
# 6 0.000000 0.000000 0.000000 0.000000 0.000000 0.058981
#
#
# Mechanical properties :
#
#
# Convention : Reuss Voigt Hill
#
# Bulk Modulus (GPa) = 35.32629 48.37721 41.85175
# Shear Modulus (GPa) = 26.08854 30.13390 28.11122
#
# Velocity S-wave (km/s) = 3.58140 3.84907 3.71764
# Velocity P-wave (km/s) = 5.87112 6.59836 6.24534
#
# Compressibility (1/GPa) = 0.02830753
#
# Stress axis : x y z
#
# Youngs Moduli (GPa) = 110.71087 56.28212 58.05809
#
# Poissons Ratio (x) = 0.15954 0.33900
# Poissons Ratio (y) = 0.31383 -0.04733
# Poissons Ratio (z) = 0.64643 -0.04588
#
# Static dielectric constant tensor:
#      x y z
#    x 4.143750 0.000000 0.000000 
#    y 0.000000 3.265180 0.000000 
#    z 0.000000 0.000000 3.936570 
# 
# 
# High freq. dielectric constant tensor:
#      x y z
#    x 1.816160 0.000000 0.000000 
#    y 0.000000 1.749030 0.000000 
#    z 0.000000 0.000000 1.809950 
# 
# From -- ./inp_files/17740.got.cif
#   From: 2010.03.12/outbox.cif.g09.slc.cpg/sg68_9_cif.got.tgz:17740.got - 2010.04.10 23:14:56.
