data_PCOD8281994
_publ_section_title
;
Structure prediction by ZEFSAII (Michael W. Deem and Ramdas Pophale) SiO2 
 PCOD8281994
Probable space group: C C C A
;
_chemical_formula_sum "Si O2"
_cell_formula_units_Z 68
_cell_length_a 11.516354
_cell_length_b 9.509634
_cell_length_c 25.809407
_cell_angle_alpha 90.000000
_cell_angle_beta 90.000000
_cell_angle_gamma 90.000000
_cell_volume 2826.551058
_symmetry_space_group_name_H-M "C C C A"
_symmetry_group_IT_number 68
_space_group.IT_coordinate_system_code '2'
_symmetry_cell_setting 'orthorhombic'
loop_
_space_group_symop_operation_xyz
x,y,z
-x,1/2-y,z
x,1/2-y,1/2-z
-x,y,1/2-z
-x,-y,-z
x,1/2+y,-z
-x,1/2+y,1/2+z
x,-y,1/2+z
1/2+x,1/2+y,z
1/2-x,-y,z
1/2+x,-y,1/2-z
1/2-x,1/2+y,1/2-z
1/2-x,1/2-y,-z
1/2+x,y,-z
1/2-x,y,1/2+z
1/2+x,1/2-y,1/2+z
loop_
_atom_site_type_symbol
_atom_site_label
_atom_site_fract_x
_atom_site_fract_y
_atom_site_fract_z
Si Si1 0.223927 0.840616 0.898986
Si Si2 0.151211 0.604865 0.333939
Si Si3 0.013562 0.423212 0.415772
Si Si4 0.500000 0.750000 0.750000
Si Si5 0.395181 0.351308 0.017425
O O1 0.291272 0.740315 0.859631
O O2 0.271920 0.806981 0.957383
O O3 0.083166 0.809820 0.893066
O O4 0.250000 0.000000 0.880518
O O5 0.250000 0.500000 0.314284
O O6 0.066107 0.524988 0.373460
O O7 0.078453 0.648743 0.284464
O O8 0.114345 0.362849 0.454367
O O9 0.924339 0.499839 0.455529
O O10 0.500000 0.250000 0.033982
#
# Coordination Sequence:
#
# PCOD8281994 Si02
#       5
#    16  16  16   4  16
#     4  10  22  43  69 102 151 203 241 294 354 426
#     4  12  28  49  79 111 137 185 252 308 379 447
#     4  10  23  39  62 103 149 191 243 293 339 427
#     4  12  28  56  80 100 144 180 236 330 398 442
#     4  10  19  36  61  97 149 208 239 273 336 420
#
# _framework density 24.057590000000001
#
# number of rings (size 3 to 8) (size 9 to 14) (size 15 to 20)
#    0.000    1.412    2.353    2.824    3.294    8.471 
#    0.000    0.000    0.000    1.412    0.000    0.000 
#    0.000    0.000    0.000    0.000    0.000    0.000 
#
# Total GULP energy -421523.559992 kJ/mol
# GULP energy per Si atom -12397.751764 kJ/mol
# Density = 2.400283 g / cm^3
# Si number density = 24.057590 Si / 1000 Ang^3
#
#
#
# Elastic Constant Matrix: (Units=GPa)
#
#
# Indices 1 2 3 4 5 6 
#
# 1 188.5324 74.7222 95.3518 0.0000 0.0000 0.0000
# 2 74.7222 112.2365 77.6957 0.0000 0.0000 0.0000
# 3 95.3518 77.6957 156.1149 0.0000 0.0000 0.0000
# 4 0.0000 0.0000 0.0000 40.4930 0.0000 0.0000
# 5 0.0000 0.0000 0.0000 0.0000 12.0582 0.0000
# 6 0.0000 0.0000 0.0000 0.0000 0.0000 51.6232
#
#
#
# Elastic Compliance Matrix: (Units=1/GPa)
#
#
# Indices 1 2 3 4 5 6 
#
# 1 0.008320 -0.003084 -0.003547 0.000000 0.000000 0.000000
# 2 -0.003084 0.014736 -0.005450 0.000000 0.000000 0.000000
# 3 -0.003547 -0.005450 0.011285 0.000000 0.000000 0.000000
# 4 0.000000 0.000000 0.000000 0.024696 0.000000 0.000000
# 5 0.000000 0.000000 0.000000 0.000000 0.082931 0.000000
# 6 0.000000 0.000000 0.000000 0.000000 0.000000 0.019371
#
#
# Mechanical properties :
#
#
# Convention : Reuss Voigt Hill
#
# Bulk Modulus (GPa) = 98.24812 105.82481 102.03647
# Shear Modulus (GPa) = 26.46993 34.77583 30.62288
#
# Velocity S-wave (km/s) = 3.32064 3.80613 3.57164
# Velocity P-wave (km/s) = 7.45852 7.96236 7.71455
#
# Compressibility (1/GPa) = 0.01017831
#
# Stress axis : x y z
#
# Youngs Moduli (GPa) = 120.18718 67.86237 88.61705
#
# Poissons Ratio (x) = 0.20928 0.31434
# Poissons Ratio (y) = 0.37064 0.48298
# Poissons Ratio (z) = 0.42632 0.36986
#
# Static dielectric constant tensor:
#      x y z
#    x 5.011640 0.000000 0.000000 
#    y 0.000000 4.863410 0.000000 
#    z 0.000000 0.000000 3.938790 
# 
# 
# High freq. dielectric constant tensor:
#      x y z
#    x 1.990140 0.000000 0.000000 
#    y 0.000000 1.992880 0.000000 
#    z 0.000000 0.000000 1.905610 
# 
# From -- ./inp_files/50024.got.cif
#   From: 2010.03.12/outbox.cif.g09.slc.cpg/sg68_26_cif.got.tgz:50024.got - 2010.04.10 23:14:56.
