data_PCOD8281231
_publ_section_title
;
Structure prediction by ZEFSAII (Michael W. Deem and Ramdas Pophale) SiO2 
 PCOD8281231
Probable space group: C M M A
;
_chemical_formula_sum "Si O2"
_cell_formula_units_Z 60
_cell_length_a 21.605678
_cell_length_b 15.420727
_cell_length_c 8.417167
_cell_angle_alpha 90.000000
_cell_angle_beta 90.000000
_cell_angle_gamma 90.000000
_cell_volume 2804.391821
_symmetry_space_group_name_H-M "C M M A"
_symmetry_group_IT_number 67
_symmetry_cell_setting 'orthorhombic'
loop_
_space_group_symop_operation_xyz
x,y,z
-x,1/2-y,z
x,-y,-z
-x,1/2+y,-z
-x,-y,-z
x,1/2+y,-z
-x,y,z
x,1/2-y,z
1/2+x,1/2+y,z
1/2-x,-y,z
1/2+x,1/2-y,-z
1/2-x,y,-z
1/2-x,1/2-y,-z
1/2+x,y,-z
1/2-x,1/2+y,z
1/2+x,-y,z
loop_
_atom_site_type_symbol
_atom_site_label
_atom_site_fract_x
_atom_site_fract_y
_atom_site_fract_z
Si Si1 0.182926 0.250000 0.428155
Si Si2 0.133734 0.412300 0.600019
Si Si3 0.819071 0.907275 0.060069
Si Si4 0.000000 0.903184 0.441058
Si Si5 0.000000 0.250000 0.305901
Si Si6 0.126221 0.250000 0.109674
O O1 0.250000 0.250000 0.500000
O O2 0.147358 0.335397 0.480049
O O3 0.182402 0.250000 0.237218
O O4 0.142013 0.500000 0.500000
O O5 0.180400 0.409741 0.748258
O O6 0.063136 0.394963 0.661362
O O7 0.750000 0.887657 0.000000
O O8 0.866488 0.834712 0.999599
O O9 0.843040 0.000000 0.000000
O O10 0.000000 0.835963 0.587102
O O11 0.000000 0.000000 0.500000
O O12 0.940090 0.250000 0.193377
#
# Coordination Sequence:
#
# PCOD8281231 Si02
#       6
#     8  16  16   8   4   8
#     4  12  23  38  66  95 126 181 235 271 334 411
#     4  11  23  43  69  97 133 183 234 278 336 409
#     4  11  25  44  66 101 145 180 226 290 352 414
#     4  10  22  41  70  98 135 173 239 286 331 398
#     4  12  24  44  70 106 138 180 232 296 340 416
#     4  12  24  43  67  99 141 179 224 295 357 395
#
# _framework density 21.395012999999999
#
# number of rings (size 3 to 8) (size 9 to 14) (size 15 to 20)
#    0.000    0.800    2.667    4.400    3.733    3.733 
#    0.000    1.333    0.000    0.000    0.000    0.000 
#    0.000    0.000    0.000    0.000    0.000    0.000 
#
# Total GULP energy -371957.788011 kJ/mol
# GULP energy per Si atom -12398.592934 kJ/mol
# Density = 2.134632 g / cm^3
# Si number density = 21.395013 Si / 1000 Ang^3
#
#
#
# Elastic Constant Matrix: (Units=GPa)
#
#
# Indices 1 2 3 4 5 6 
#
# 1 124.2650 28.4431 34.2820 0.0000 0.0000 0.0000
# 2 28.4431 183.2225 45.2056 0.0000 0.0000 0.0000
# 3 34.2820 45.2056 126.4078 0.0000 0.0000 0.0000
# 4 0.0000 0.0000 0.0000 35.9769 0.0000 0.0000
# 5 0.0000 0.0000 0.0000 0.0000 39.7791 0.0000
# 6 0.0000 0.0000 0.0000 0.0000 0.0000 12.9855
#
#
#
# Elastic Compliance Matrix: (Units=1/GPa)
#
#
# Indices 1 2 3 4 5 6 
#
# 1 0.008818 -0.000854 -0.002086 0.000000 0.000000 0.000000
# 2 -0.000854 0.006069 -0.001939 0.000000 0.000000 0.000000
# 3 -0.002086 -0.001939 0.009170 0.000000 0.000000 0.000000
# 4 0.000000 0.000000 0.000000 0.027796 0.000000 0.000000
# 5 0.000000 0.000000 0.000000 0.000000 0.025139 0.000000
# 6 0.000000 0.000000 0.000000 0.000000 0.000000 0.077009
#
#
# Mechanical properties :
#
#
# Convention : Reuss Voigt Hill
#
# Bulk Modulus (GPa) = 69.93407 72.19518 71.06463
# Shear Modulus (GPa) = 29.66926 39.47929 34.57427
#
# Velocity S-wave (km/s) = 3.72793 4.30031 4.02431
# Velocity P-wave (km/s) = 7.16157 7.64683 7.40817
#
# Compressibility (1/GPa) = 0.01429918
#
# Stress axis : x y z
#
# Youngs Moduli (GPa) = 113.39990 164.77824 109.05213
#
# Poissons Ratio (x) = 0.14076 0.22749
# Poissons Ratio (y) = 0.09687 0.21141
# Poissons Ratio (z) = 0.23656 0.31944
#
# Static dielectric constant tensor:
#      x y z
#    x 4.667350 0.000000 0.000000 
#    y 0.000000 4.169040 0.000000 
#    z 0.000000 0.000000 3.729540 
# 
# 
# High freq. dielectric constant tensor:
#      x y z
#    x 1.846090 0.000000 0.000000 
#    y 0.000000 1.866590 0.000000 
#    z 0.000000 0.000000 1.826800 
# 
# From -- ./inp_files/7933.got.cif
#   From: 2010.03.12/outbox.cif.g09.slc.cpg/sg67_4_cif.got.tgz:7933.got - 2010.04.10 22:41:39.
