data_PCOD8281788
_publ_section_title
;
Structure prediction by ZEFSAII (Michael W. Deem and Ramdas Pophale) SiO2 
 PCOD8281788
Probable space group: C C C A
;
_chemical_formula_sum "Si O2"
_cell_formula_units_Z 120
_cell_length_a 21.207985
_cell_length_b 14.585662
_cell_length_c 21.051808
_cell_angle_alpha 90.000000
_cell_angle_beta 90.000000
_cell_angle_gamma 90.000000
_cell_volume 6512.008417
_symmetry_space_group_name_H-M "C C C A"
_symmetry_group_IT_number 68
_space_group.IT_coordinate_system_code '2'
_symmetry_cell_setting 'orthorhombic'
loop_
_space_group_symop_operation_xyz
x,y,z
-x,1/2-y,z
x,1/2-y,1/2-z
-x,y,1/2-z
-x,-y,-z
x,1/2+y,-z
-x,1/2+y,1/2+z
x,-y,1/2+z
1/2+x,1/2+y,z
1/2-x,-y,z
1/2+x,-y,1/2-z
1/2-x,1/2+y,1/2-z
1/2-x,1/2-y,-z
1/2+x,y,-z
1/2-x,y,1/2+z
1/2+x,1/2-y,1/2+z
loop_
_atom_site_type_symbol
_atom_site_label
_atom_site_fract_x
_atom_site_fract_y
_atom_site_fract_z
Si Si1 0.800301 0.264552 0.402445
Si Si2 0.136741 0.329963 0.704523
Si Si3 0.250000 0.500000 0.422082
Si Si4 0.062233 0.455752 0.786554
Si Si5 0.156707 0.404925 0.330518
Si Si6 0.315979 0.674994 0.958363
Si Si7 0.065319 0.290490 0.883719
Si Si8 0.271663 0.101669 0.801592
O O1 0.846046 0.191636 0.367241
O O2 0.726817 0.231537 0.407325
O O3 0.823613 0.276115 0.474218
O O4 0.808778 0.358479 0.362682
O O5 0.113262 0.250000 0.750000
O O6 0.113011 0.426990 0.732600
O O7 0.102940 0.300887 0.639262
O O8 0.211687 0.331973 0.702915
O O9 0.194826 0.473489 0.374510
O O10 0.278826 0.421385 0.467229
O O11 0.088618 0.546576 0.821921
O O12 0.048529 0.369364 0.832523
O O13 0.000000 0.486288 0.750000
O O14 0.188851 0.389744 0.262389
O O15 0.387642 0.662314 0.934253
O O16 0.000000 0.250000 0.912635
O O17 0.250000 0.000000 0.817808
#
# Coordination Sequence:
#
# PCOD8281788 Si02
#       8
#    16  16   8  16  16  16  16  16
#     4  10  23  37  56  85 114 157 200 247 298 359
#     4  10  19  30  50  84 123 144 178 235 304 359
#     4  10  18  34  58  88 118 156 192 238 306 364
#     4  11  20  33  54  90 121 156 197 244 301 370
#     4  11  20  35  57  84 119 153 193 241 312 365
#     4  10  21  38  58  83 120 158 199 245 298 364
#     4  11  20  34  59  86 122 160 192 248 305 362
#     4  12  21  33  57  89 117 147 187 252 306 358
#
# _framework density 18.427495
#
# number of rings (size 3 to 8) (size 9 to 14) (size 15 to 20)
#    0.000    1.333    6.000    1.200    4.667    0.000 
#    0.000    0.000    2.933    1.600    0.000    0.000 
#    0.000    0.000    0.000    0.000    0.000    0.000 
#
# Total GULP energy -743528.463496 kJ/mol
# GULP energy per Si atom -12392.141058 kJ/mol
# Density = 1.838555 g / cm^3
# Si number density = 18.427495 Si / 1000 Ang^3
#
#
#
# Elastic Constant Matrix: (Units=GPa)
#
#
# Indices 1 2 3 4 5 6 
#
# 1 101.2017 33.0937 26.1030 0.0000 0.0000 0.0000
# 2 33.0937 98.7703 54.0394 0.0000 0.0000 0.0000
# 3 26.1030 54.0394 62.8344 0.0000 0.0000 0.0000
# 4 0.0000 0.0000 0.0000 29.2787 0.0000 0.0000
# 5 0.0000 0.0000 0.0000 0.0000 22.3399 0.0000
# 6 0.0000 0.0000 0.0000 0.0000 0.0000 28.4974
#
#
#
# Elastic Compliance Matrix: (Units=1/GPa)
#
#
# Indices 1 2 3 4 5 6 
#
# 1 0.011339 -0.002308 -0.002726 0.000000 0.000000 0.000000
# 2 -0.002308 0.019592 -0.015891 0.000000 0.000000 0.000000
# 3 -0.002726 -0.015891 0.030714 0.000000 0.000000 0.000000
# 4 0.000000 0.000000 0.000000 0.034154 0.000000 0.000000
# 5 0.000000 0.000000 0.000000 0.000000 0.044763 0.000000
# 6 0.000000 0.000000 0.000000 0.000000 0.000000 0.035091
#
#
# Mechanical properties :
#
#
# Convention : Reuss Voigt Hill
#
# Bulk Modulus (GPa) = 50.51563 54.36428 52.43995
# Shear Modulus (GPa) = 22.31135 25.99456 24.15296
#
# Velocity S-wave (km/s) = 3.48338 3.75992 3.62429
# Velocity P-wave (km/s) = 6.60691 6.95810 6.78478
#
# Compressibility (1/GPa) = 0.01979585
#
# Stress axis : x y z
#
# Youngs Moduli (GPa) = 88.19119 51.04079 32.55854
#
# Poissons Ratio (x) = 0.11780 0.08874
# Poissons Ratio (y) = 0.20355 0.51739
# Poissons Ratio (z) = 0.24037 0.81109
#
# Static dielectric constant tensor:
#      x y z
#    x 3.186920 0.000000 0.000000 
#    y 0.000000 3.442780 0.000000 
#    z 0.000000 0.000000 3.213430 
# 
# 
# High freq. dielectric constant tensor:
#      x y z
#    x 1.691550 0.000000 0.000000 
#    y 0.000000 1.712220 0.000000 
#    z 0.000000 0.000000 1.698160 
# 
# From -- ./inp_files/46746.got.cif
#   From: 2010.03.12/outbox.cif.g09.slc.cpg/sg68_24_cif.got.tgz:46746.got - 2010.04.10 23:14:56.
