data_PCOD8281382
_publ_section_title
;
Structure prediction by ZEFSAII (Michael W. Deem and Ramdas Pophale) SiO2 
 PCOD8281382
Probable space group: C M M A
;
_chemical_formula_sum "Si O2"
_cell_formula_units_Z 112
_cell_length_a 14.979102
_cell_length_b 22.304936
_cell_length_c 16.553791
_cell_angle_alpha 90.000000
_cell_angle_beta 90.000000
_cell_angle_gamma 90.000000
_cell_volume 5530.752538
_symmetry_space_group_name_H-M "C M M A"
_symmetry_group_IT_number 67
_symmetry_cell_setting 'orthorhombic'
loop_
_space_group_symop_operation_xyz
x,y,z
-x,1/2-y,z
x,-y,-z
-x,1/2+y,-z
-x,-y,-z
x,1/2+y,-z
-x,y,z
x,1/2-y,z
1/2+x,1/2+y,z
1/2-x,-y,z
1/2+x,1/2-y,-z
1/2-x,y,-z
1/2-x,1/2-y,-z
1/2+x,y,-z
1/2-x,1/2+y,z
1/2+x,-y,z
loop_
_atom_site_type_symbol
_atom_site_label
_atom_site_fract_x
_atom_site_fract_y
_atom_site_fract_z
Si Si1 0.745995 0.820412 0.734279
Si Si2 0.601651 0.000219 0.595324
Si Si3 0.597300 0.885658 0.837837
Si Si4 0.649796 0.817990 0.991295
Si Si5 0.401186 0.863625 0.155706
Si Si6 0.145924 0.006547 0.090289
Si Si7 0.250383 0.906252 0.595189
O O1 0.726667 0.750000 0.734536
O O2 0.668997 0.854984 0.781238
O O3 0.838844 0.835561 0.776378
O O4 0.749128 0.843393 0.642137
O O5 0.500000 0.000371 0.632687
O O6 0.659584 0.942135 0.621337
O O7 0.593010 0.000000 0.500000
O O8 0.660315 0.057986 0.621459
O O9 0.500000 0.873908 0.799633
O O10 0.598956 0.858204 0.927267
O O11 0.610337 0.956778 0.847441
O O12 0.651563 0.750000 0.959459
O O13 0.750000 0.843589 0.000000
O O14 0.601404 0.821509 0.077016
O O15 0.500000 0.862677 0.192518
O O16 0.375661 0.930425 0.130452
O O17 0.250000 0.000000 0.081629
O O18 0.103169 0.000000 0.000000
O O19 0.250000 0.893323 0.500000
#
# Coordination Sequence:
#
# PCOD8281382 Si02
#       7
#    16  16  16  16  16  16  16
#     4  12  27  45  61  85 128 168 209 271 317 358
#     4   8  15  33  65 101 131 153 184 244 311 373
#     4  12  25  41  63  90 121 163 209 254 313 376
#     4  11  21  38  61  85 119 163 209 253 298 359
#     4  12  25  41  63  90 121 163 209 254 313 376
#     4  11  21  39  64  90 125 161 197 254 317 370
#     4   9  20  39  66  97 125 163 211 252 309 383
#
# _framework density 20.250409000000001
#
# number of rings (size 3 to 8) (size 9 to 14) (size 15 to 20)
#    0.000    1.286    4.286    2.571    0.000    7.143 
#    0.000    0.000    0.000    0.000    0.000    6.000 
#    0.000    0.000    0.000    0.000    0.000    0.000 
#
# Total GULP energy -694346.547901 kJ/mol
# GULP energy per Si atom -12399.045498 kJ/mol
# Density = 2.020432 g / cm^3
# Si number density = 20.250409 Si / 1000 Ang^3
#
#
#
# Elastic Constant Matrix: (Units=GPa)
#
#
# Indices 1 2 3 4 5 6 
#
# 1 147.0065 23.3595 21.0984 0.0000 0.0000 0.0000
# 2 23.3595 99.7982 32.6723 0.0000 0.0000 0.0000
# 3 21.0984 32.6723 73.3592 0.0000 0.0000 0.0000
# 4 0.0000 0.0000 0.0000 31.9955 0.0000 0.0000
# 5 0.0000 0.0000 0.0000 0.0000 -11.3784 0.0000
# 6 0.0000 0.0000 0.0000 0.0000 0.0000 -27.6159
#
#
#
# Elastic Compliance Matrix: (Units=1/GPa)
#
#
# Indices 1 2 3 4 5 6 
#
# 1 0.007212 -0.001181 -0.001548 0.000000 0.000000 0.000000
# 2 -0.001181 0.011924 -0.004971 0.000000 0.000000 0.000000
# 3 -0.001548 -0.004971 0.016291 0.000000 0.000000 0.000000
# 4 0.000000 0.000000 0.000000 0.031254 0.000000 0.000000
# 5 0.000000 0.000000 0.000000 0.000000 -0.087885 0.000000
# 6 0.000000 0.000000 0.000000 0.000000 0.000000 -0.036211
#
#
# Mechanical properties :
#
#
# Convention : Reuss Voigt Hill
#
# Bulk Modulus (GPa) = 49.93422 52.71379 51.32401
# Shear Modulus (GPa) = -141.48812 14.80250 -63.34281
#
# Velocity S-wave (km/s) = -8.36785 2.70658 -5.59890
# Velocity P-wave (km/s) = 8.28549 5.98790 4.04935
#
# Compressibility (1/GPa) = 0.02002634
#
# Stress axis : x y z
#
# Youngs Moduli (GPa) = 138.65154 83.86353 61.38453
#
# Poissons Ratio (x) = 0.09907 0.09503
# Poissons Ratio (y) = 0.16379 0.30514
# Poissons Ratio (z) = 0.21466 0.41688
#
# Static dielectric constant tensor:
#      x y z
#    x 3.972820 0.000000 0.000000 
#    y 0.000000 3.581040 0.000000 
#    z 0.000000 0.000000 3.444090 
# 
# 
# High freq. dielectric constant tensor:
#      x y z
#    x 1.803840 0.000000 0.000000 
#    y 0.000000 1.787620 0.000000 
#    z 0.000000 0.000000 1.767180 
# 
# From -- ./inp_files/27471.got.cif
#   From: 2010.03.12/outbox.cif.g09.slc.cpg/sg67_14_cif.got.tgz:27471.got - 2010.04.10 22:41:39.
