data_PCOD8281904
_publ_section_title
;
Structure prediction by ZEFSAII (Michael W. Deem and Ramdas Pophale) SiO2 
 PCOD8281904
Probable space group: C C C A
;
_chemical_formula_sum "Si O2"
_cell_formula_units_Z 112
_cell_length_a 14.471944
_cell_length_b 24.477566
_cell_length_c 18.326904
_cell_angle_alpha 90.000000
_cell_angle_beta 90.000000
_cell_angle_gamma 90.000000
_cell_volume 6492.085167
_symmetry_space_group_name_H-M "C C C A"
_symmetry_group_IT_number 68
_space_group.IT_coordinate_system_code '2'
_symmetry_cell_setting 'orthorhombic'
loop_
_space_group_symop_operation_xyz
x,y,z
-x,1/2-y,z
x,1/2-y,1/2-z
-x,y,1/2-z
-x,-y,-z
x,1/2+y,-z
-x,1/2+y,1/2+z
x,-y,1/2+z
1/2+x,1/2+y,z
1/2-x,-y,z
1/2+x,-y,1/2-z
1/2-x,1/2+y,1/2-z
1/2-x,1/2-y,-z
1/2+x,y,-z
1/2-x,y,1/2+z
1/2+x,1/2-y,1/2+z
loop_
_atom_site_type_symbol
_atom_site_label
_atom_site_fract_x
_atom_site_fract_y
_atom_site_fract_z
Si Si1 0.188787 0.049943 0.165400
Si Si2 0.689843 0.449321 0.831446
Si Si3 0.154143 0.366173 0.665775
Si Si4 0.003585 0.051134 0.413860
Si Si5 0.396953 0.748847 0.835796
Si Si6 0.153340 0.130672 0.667212
Si Si7 0.999461 0.576445 0.427656
O O1 0.166916 0.033903 0.248601
O O2 0.244034 0.106900 0.161092
O O3 0.093364 0.061665 0.125373
O O4 0.250000 0.000000 0.131115
O O5 0.750000 0.500000 0.865748
O O6 0.745893 0.393098 0.839114
O O7 0.593353 0.433721 0.867639
O O8 0.160443 0.302683 0.640869
O O9 0.116251 0.372175 0.749066
O O10 0.087565 0.395651 0.609372
O O11 0.006176 0.089489 0.486074
O O12 0.014307 0.987585 0.427058
O O13 0.500000 0.750000 0.870593
O O14 0.406532 0.750000 0.750000
O O15 0.345732 0.693371 0.861084
O O16 0.090313 0.093785 0.615588
#
# Coordination Sequence:
#
# PCOD8281904 Si02
#       7
#    16  16  16  16  16  16  16
#     4  10  20  34  55  77 103 139 177 220 260 313
#     4  10  20  34  55  77 103 139 177 220 260 313
#     4  10  19  33  55  84 108 135 176 223 271 312
#     4  11  23  35  47  75 110 147 176 200 265 321
#     4   9  16  28  54  84 108 130 166 229 283 308
#     4  10  19  33  55  84 108 135 176 223 271 312
#     4  11  21  32  50  77 109 146 167 219 259 319
#
# _framework density 17.251776
#
# number of rings (size 3 to 8) (size 9 to 14) (size 15 to 20)
#    0.000    1.857    4.286    0.857    0.000    2.286 
#    0.000    0.000    0.000    6.000    0.000    5.000 
#    0.000    0.000    0.000    0.000    0.000    0.000 
#
# Total GULP energy -694023.643179 kJ/mol
# GULP energy per Si atom -12393.279342 kJ/mol
# Density = 1.721251 g / cm^3
# Si number density = 17.251776 Si / 1000 Ang^3
#
#
#
# Elastic Constant Matrix: (Units=GPa)
#
#
# Indices 1 2 3 4 5 6 
#
# 1 110.5112 36.8768 46.8159 0.0000 0.0000 0.0000
# 2 36.8768 104.8536 24.3012 0.0000 0.0000 0.0000
# 3 46.8159 24.3012 77.9612 0.0000 0.0000 0.0000
# 4 0.0000 0.0000 0.0000 17.4599 0.0000 0.0000
# 5 0.0000 0.0000 0.0000 0.0000 16.6920 0.0000
# 6 0.0000 0.0000 0.0000 0.0000 0.0000 27.7311
#
#
#
# Elastic Compliance Matrix: (Units=1/GPa)
#
#
# Indices 1 2 3 4 5 6 
#
# 1 0.012938 -0.002964 -0.006845 0.000000 0.000000 0.000000
# 2 -0.002964 0.010959 -0.001636 0.000000 0.000000 0.000000
# 3 -0.006845 -0.001636 0.017448 0.000000 0.000000 0.000000
# 4 0.000000 0.000000 0.000000 0.057274 0.000000 0.000000
# 5 0.000000 0.000000 0.000000 0.000000 0.059909 0.000000
# 6 0.000000 0.000000 0.000000 0.000000 0.000000 0.036061
#
#
# Mechanical properties :
#
#
# Convention : Reuss Voigt Hill
#
# Bulk Modulus (GPa) = 54.19031 56.59041 55.39036
# Shear Modulus (GPa) = 22.35846 24.73208 23.54527
#
# Velocity S-wave (km/s) = 3.60392 3.79039 3.69833
# Velocity P-wave (km/s) = 6.98550 7.21318 7.10026
#
# Compressibility (1/GPa) = 0.01845348
#
# Stress axis : x y z
#
# Youngs Moduli (GPa) = 77.29354 91.25219 57.31467
#
# Poissons Ratio (x) = 0.27044 0.39234
# Poissons Ratio (y) = 0.22907 0.09378
# Poissons Ratio (z) = 0.52910 0.14931
#
# Static dielectric constant tensor:
#      x y z
#    x 3.120730 0.000000 0.000000 
#    y 0.000000 3.534400 0.000000 
#    z 0.000000 0.000000 3.830610 
# 
# 
# High freq. dielectric constant tensor:
#      x y z
#    x 1.660920 0.000000 0.000000 
#    y 0.000000 1.660160 0.000000 
#    z 0.000000 0.000000 1.643710 
# 
# From -- ./inp_files/22723.got.cif
#   From: 2010.03.12/outbox.cif.g09.slc.cpg/sg68_12_cif.got.tgz:22723.got - 2010.04.10 23:14:56.
