data_PCOD8281093
_publ_section_title
;
Structure prediction by ZEFSAII (Michael W. Deem and Ramdas Pophale) SiO2 
 PCOD8281093
Probable space group: C M M A
;
_chemical_formula_sum "Si O2"
_cell_formula_units_Z 56
_cell_length_a 25.803230
_cell_length_b 9.148522
_cell_length_c 12.361498
_cell_angle_alpha 90.000000
_cell_angle_beta 90.000000
_cell_angle_gamma 90.000000
_cell_volume 2918.072738
_symmetry_space_group_name_H-M "C M M A"
_symmetry_group_IT_number 67
_symmetry_cell_setting 'orthorhombic'
loop_
_space_group_symop_operation_xyz
x,y,z
-x,1/2-y,z
x,-y,-z
-x,1/2+y,-z
-x,-y,-z
x,1/2+y,-z
-x,y,z
x,1/2-y,z
1/2+x,1/2+y,z
1/2-x,-y,z
1/2+x,1/2-y,-z
1/2-x,y,-z
1/2-x,1/2-y,-z
1/2+x,y,-z
1/2-x,1/2+y,z
1/2+x,-y,z
loop_
_atom_site_type_symbol
_atom_site_label
_atom_site_fract_x
_atom_site_fract_y
_atom_site_fract_z
Si Si1 0.942298 0.750000 0.401792
Si Si2 0.197768 0.916928 0.690065
Si Si3 0.557551 0.750000 0.853416
Si Si4 0.653006 0.413578 0.106521
Si Si5 0.374604 0.000000 0.500000
O O1 0.946706 0.750000 0.274221
O O2 0.911437 0.609097 0.437544
O O3 0.000000 0.750000 0.453139
O O4 0.210068 0.750000 0.721611
O O5 0.250000 0.000000 0.657817
O O6 0.171372 0.996083 0.790842
O O7 0.160538 0.916721 0.586783
O O8 0.500000 0.750000 0.905896
O O9 0.590161 0.605886 0.890261
O O10 0.678479 0.250000 0.107601
O O11 0.670424 0.500000 0.000000
#
# Coordination Sequence:
#
# PCOD8281093 Si02
#       5
#     8  16   8  16   8
#     4  11  22  40  65  94 132 171 210 251 311 377
#     4  12  26  41  65  92 124 165 213 261 322 378
#     4   9  20  38  64  90 128 170 206 253 309 370
#     4  10  21  41  65  90 130 161 209 258 314 370
#     4  12  22  42  64  94 132 164 206 264 310 374
#
# _framework density 19.190747000000002
#
# number of rings (size 3 to 8) (size 9 to 14) (size 15 to 20)
#    0.857    0.286    4.286    2.571    2.000    2.286 
#    0.000    2.857    0.000    0.000    0.000    0.000 
#    0.000    0.000    0.000    0.000    0.000    0.000 
#
# Total GULP energy -347082.708390 kJ/mol
# GULP energy per Si atom -12395.811014 kJ/mol
# Density = 1.914707 g / cm^3
# Si number density = 19.190747 Si / 1000 Ang^3
#
#
#
# Elastic Constant Matrix: (Units=GPa)
#
#
# Indices 1 2 3 4 5 6 
#
# 1 96.2238 30.4293 10.7733 0.0000 0.0000 0.0000
# 2 30.4293 136.1905 26.0775 0.0000 0.0000 0.0000
# 3 10.7733 26.0775 88.7334 0.0000 0.0000 0.0000
# 4 0.0000 0.0000 0.0000 19.3290 0.0000 0.0000
# 5 0.0000 0.0000 0.0000 0.0000 -2.2913 0.0000
# 6 0.0000 0.0000 0.0000 0.0000 0.0000 32.1869
#
#
#
# Elastic Compliance Matrix: (Units=1/GPa)
#
#
# Indices 1 2 3 4 5 6 
#
# 1 0.011219 -0.002380 -0.000663 0.000000 0.000000 0.000000
# 2 -0.002380 0.008285 -0.002146 0.000000 0.000000 0.000000
# 3 -0.000663 -0.002146 0.011981 0.000000 0.000000 0.000000
# 4 0.000000 0.000000 0.000000 0.051736 0.000000 0.000000
# 5 0.000000 0.000000 0.000000 0.000000 -0.436424 0.000000
# 6 0.000000 0.000000 0.000000 0.000000 0.000000 0.031069
#
#
# Mechanical properties :
#
#
# Convention : Reuss Voigt Hill
#
# Bulk Modulus (GPa) = 47.37488 50.63423 49.00455
# Shear Modulus (GPa) = -16.40843 26.76942 5.18050
#
# Velocity S-wave (km/s) = -2.92724 3.73891 1.64479
# Velocity P-wave (km/s) = 3.64896 6.71425 5.40352
#
# Compressibility (1/GPa) = 0.02110823
#
# Stress axis : x y z
#
# Youngs Moduli (GPa) = 89.13272 120.69575 83.46649
#
# Poissons Ratio (x) = 0.28724 0.05532
# Poissons Ratio (y) = 0.21212 0.17912
# Poissons Ratio (z) = 0.05907 0.25901
#
# Static dielectric constant tensor:
#      x y z
#    x 3.729530 0.000000 0.000000 
#    y 0.000000 3.366560 0.000000 
#    z 0.000000 0.000000 3.409210 
# 
# 
# High freq. dielectric constant tensor:
#      x y z
#    x 1.749380 0.000000 0.000000 
#    y 0.000000 1.749220 0.000000 
#    z 0.000000 0.000000 1.749860 
# 
# From -- ./inp_files/22566.got.cif
#   From: 2010.03.12/outbox.cif.g09.slc.cpg/sg67_12_cif.got.tgz:22566.got - 2010.04.10 22:41:39.
