data_PCOD8281759
_publ_section_title
;
Structure prediction by ZEFSAII (Michael W. Deem and Ramdas Pophale) SiO2 
 PCOD8281759
Probable space group: C C C A
;
_chemical_formula_sum "Si O2"
_cell_formula_units_Z 96
_cell_length_a 19.498584
_cell_length_b 20.819426
_cell_length_c 12.197037
_cell_angle_alpha 90.000000
_cell_angle_beta 90.000000
_cell_angle_gamma 90.000000
_cell_volume 4951.378958
_symmetry_space_group_name_H-M "C C C A"
_symmetry_group_IT_number 68
_space_group.IT_coordinate_system_code '2'
_symmetry_cell_setting 'orthorhombic'
loop_
_space_group_symop_operation_xyz
x,y,z
-x,1/2-y,z
x,1/2-y,1/2-z
-x,y,1/2-z
-x,-y,-z
x,1/2+y,-z
-x,1/2+y,1/2+z
x,-y,1/2+z
1/2+x,1/2+y,z
1/2-x,-y,z
1/2+x,-y,1/2-z
1/2-x,1/2+y,1/2-z
1/2-x,1/2-y,-z
1/2+x,y,-z
1/2-x,y,1/2+z
1/2+x,1/2-y,1/2+z
loop_
_atom_site_type_symbol
_atom_site_label
_atom_site_fract_x
_atom_site_fract_y
_atom_site_fract_z
Si Si1 0.421417 0.929352 0.269584
Si Si2 0.826530 0.250115 0.959064
Si Si3 0.772096 0.154525 0.695509
Si Si4 0.642401 0.191942 0.824454
Si Si5 0.321133 0.464045 0.314468
Si Si6 0.657871 0.112502 0.525035
O O1 0.500000 0.945922 0.250000
O O2 0.402178 0.871108 0.190314
O O3 0.404256 0.908200 0.394586
O O4 0.381151 0.992307 0.232334
O O5 0.823962 0.288632 0.843987
O O6 0.750000 0.250000 0.000000
O O7 0.868695 0.290213 0.049320
O O8 0.857977 0.177832 0.954922
O O9 0.722707 0.179973 0.793175
O O10 0.821078 0.099587 0.741030
O O11 0.725626 0.125843 0.597344
O O12 0.613909 0.250000 0.750000
O O13 0.250000 0.500000 0.300875
O O14 0.331728 0.446305 0.441941
#
# Coordination Sequence:
#
# PCOD8281759 Si02
#       6
#    16  16  16  16  16  16
#     4  11  26  44  60  84 125 171 214 255 306 380
#     4  10  18  31  57  89 125 151 187 254 315 376
#     4  10  20  33  58  94 127 149 190 256 320 371
#     4  11  18  35  58  91 119 154 198 248 320 366
#     4  12  24  37  62  90 123 167 209 261 313 375
#     4  10  22  36  59  90 123 155 206 252 318 371
#
# _framework density 19.388539000000002
#
# number of rings (size 3 to 8) (size 9 to 14) (size 15 to 20)
#    0.000    1.333    8.333    2.000    2.333    1.000 
#    0.000    0.000    0.000    0.000    0.000    1.167 
#    0.000    0.000    0.000    0.000    0.000    0.000 
#
# Total GULP energy -594968.105519 kJ/mol
# GULP energy per Si atom -12395.168865 kJ/mol
# Density = 1.934441 g / cm^3
# Si number density = 19.388539 Si / 1000 Ang^3
#
#
#
# Elastic Constant Matrix: (Units=GPa)
#
#
# Indices 1 2 3 4 5 6 
#
# 1 82.7104 36.8661 32.3736 0.0000 0.0000 0.0000
# 2 36.8661 105.3763 46.7161 0.0000 0.0000 0.0000
# 3 32.3736 46.7161 75.5684 0.0000 0.0000 0.0000
# 4 0.0000 0.0000 0.0000 49.8065 0.0000 0.0000
# 5 0.0000 0.0000 0.0000 0.0000 14.1099 0.0000
# 6 0.0000 0.0000 0.0000 0.0000 0.0000 10.6195
#
#
#
# Elastic Compliance Matrix: (Units=1/GPa)
#
#
# Indices 1 2 3 4 5 6 
#
# 1 0.015354 -0.003383 -0.004487 0.000000 0.000000 0.000000
# 2 -0.003383 0.013818 -0.007093 0.000000 0.000000 0.000000
# 3 -0.004487 -0.007093 0.019540 0.000000 0.000000 0.000000
# 4 0.000000 0.000000 0.000000 0.020078 0.000000 0.000000
# 5 0.000000 0.000000 0.000000 0.000000 0.070872 0.000000
# 6 0.000000 0.000000 0.000000 0.000000 0.000000 0.094167
#
#
# Mechanical properties :
#
#
# Convention : Reuss Voigt Hill
#
# Bulk Modulus (GPa) = 53.22700 55.06298 54.14499
# Shear Modulus (GPa) = 18.51748 24.75380 21.63564
#
# Velocity S-wave (km/s) = 3.09378 3.57700 3.34413
# Velocity P-wave (km/s) = 6.34621 6.74695 6.54965
#
# Compressibility (1/GPa) = 0.01878746
#
# Stress axis : x y z
#
# Youngs Moduli (GPa) = 65.12870 72.37088 51.17726
#
# Poissons Ratio (x) = 0.24481 0.22961
# Poissons Ratio (y) = 0.22031 0.36300
# Poissons Ratio (z) = 0.29221 0.51332
#
# Static dielectric constant tensor:
#      x y z
#    x 3.078210 0.000000 0.000000 
#    y 0.000000 4.202450 0.000000 
#    z 0.000000 0.000000 0.934740 
# 
# 
# High freq. dielectric constant tensor:
#      x y z
#    x 1.685170 0.000000 0.000000 
#    y 0.000000 1.778060 0.000000 
#    z 0.000000 0.000000 1.760890 
# 
# From -- ./inp_files/14610.got.cif
#   From: 2010.03.12/outbox.cif.g09.slc.cpg/sg68_8_cif.got.tgz:14610.got - 2010.04.10 23:14:56.
