data_PCOD8281757
_publ_section_title
;
Structure prediction by ZEFSAII (Michael W. Deem and Ramdas Pophale) SiO2 
 PCOD8281757
Probable space group: C C C A
;
_chemical_formula_sum "Si O2"
_cell_formula_units_Z 80
_cell_length_a 8.433586
_cell_length_b 16.665951
_cell_length_c 28.680607
_cell_angle_alpha 90.000000
_cell_angle_beta 90.000000
_cell_angle_gamma 90.000000
_cell_volume 4031.166322
_symmetry_space_group_name_H-M "C C C A"
_symmetry_group_IT_number 68
_space_group.IT_coordinate_system_code '2'
_symmetry_cell_setting 'orthorhombic'
loop_
_space_group_symop_operation_xyz
x,y,z
-x,1/2-y,z
x,1/2-y,1/2-z
-x,y,1/2-z
-x,-y,-z
x,1/2+y,-z
-x,1/2+y,1/2+z
x,-y,1/2+z
1/2+x,1/2+y,z
1/2-x,-y,z
1/2+x,-y,1/2-z
1/2-x,1/2+y,1/2-z
1/2-x,1/2-y,-z
1/2+x,y,-z
1/2-x,y,1/2+z
1/2+x,1/2-y,1/2+z
loop_
_atom_site_type_symbol
_atom_site_label
_atom_site_fract_x
_atom_site_fract_y
_atom_site_fract_z
Si Si1 0.943006 0.089203 0.949194
Si Si2 0.045375 0.838954 0.860800
Si Si3 0.083933 0.899196 0.546357
Si Si4 0.353198 0.923807 0.863442
Si Si5 0.930344 0.023421 0.299631
O O1 0.766834 0.125148 0.946589
O O2 0.042980 0.115941 0.904302
O O3 0.939906 0.993494 0.947910
O O4 0.027433 0.125240 0.994818
O O5 0.228681 0.855903 0.846844
O O6 0.000000 0.750000 0.845208
O O7 0.021089 0.851409 0.916186
O O8 0.931800 0.900489 0.833781
O O9 0.250000 0.000000 0.881856
O O10 0.466042 0.950239 0.820793
O O11 0.000000 0.048347 0.250000
O O12 0.750000 0.000000 0.293486
#
# Coordination Sequence:
#
# PCOD8281757 Si02
#       5
#    16  16  16  16  16
#     4  10  18  31  56  82 110 151 207 247 285 342
#     4  11  23  39  58  88 127 158 192 244 308 359
#     4  10  19  31  53  83 115 152 197 248 290 346
#     4  10  19  35  58  85 116 153 198 244 291 347
#     4  11  22  41  67  92 116 150 203 251 293 354
#
# _framework density 19.845372000000001
#
# number of rings (size 3 to 8) (size 9 to 14) (size 15 to 20)
#    0.000    1.600    4.000    4.200    2.800    0.400 
#    0.000    8.000    0.000    1.200    0.000    0.000 
#    0.000    0.000    0.000    0.000    0.000    0.000 
#
# Total GULP energy -496079.129794 kJ/mol
# GULP energy per Si atom -12401.978245 kJ/mol
# Density = 1.980020 g / cm^3
# Si number density = 19.845372 Si / 1000 Ang^3
#
#
#
# Elastic Constant Matrix: (Units=GPa)
#
#
# Indices 1 2 3 4 5 6 
#
# 1 134.4743 34.6227 24.3163 0.0000 0.0000 0.0000
# 2 34.6227 72.2934 18.3588 0.0000 0.0000 0.0000
# 3 24.3163 18.3588 95.0395 0.0000 0.0000 0.0000
# 4 0.0000 0.0000 0.0000 8.7580 0.0000 0.0000
# 5 0.0000 0.0000 0.0000 0.0000 40.6932 0.0000
# 6 0.0000 0.0000 0.0000 0.0000 0.0000 21.3698
#
#
#
# Elastic Compliance Matrix: (Units=1/GPa)
#
#
# Indices 1 2 3 4 5 6 
#
# 1 0.008679 -0.003778 -0.001491 0.000000 0.000000 0.000000
# 2 -0.003778 0.016191 -0.002161 0.000000 0.000000 0.000000
# 3 -0.001491 -0.002161 0.011321 0.000000 0.000000 0.000000
# 4 0.000000 0.000000 0.000000 0.114181 0.000000 0.000000
# 5 0.000000 0.000000 0.000000 0.000000 0.024574 0.000000
# 6 0.000000 0.000000 0.000000 0.000000 0.000000 0.046795
#
#
# Mechanical properties :
#
#
# Convention : Reuss Voigt Hill
#
# Bulk Modulus (GPa) = 46.88011 50.71142 48.79576
# Shear Modulus (GPa) = 20.51625 29.13151 24.82388
#
# Velocity S-wave (km/s) = 3.21877 3.83551 3.54059
# Velocity P-wave (km/s) = 6.12274 6.72485 6.43084
#
# Compressibility (1/GPa) = 0.02133101
#
# Stress axis : x y z
#
# Youngs Moduli (GPa) = 115.22636 61.76443 88.33318
#
# Poissons Ratio (x) = 0.23333 0.13168
# Poissons Ratio (y) = 0.43530 0.19089
# Poissons Ratio (z) = 0.17177 0.13347
#
# Static dielectric constant tensor:
#      x y z
#    x 3.879110 0.000000 0.000000 
#    y 0.000000 3.154750 0.000000 
#    z 0.000000 0.000000 3.647970 
# 
# 
# High freq. dielectric constant tensor:
#      x y z
#    x 1.792840 0.000000 0.000000 
#    y 0.000000 1.719480 0.000000 
#    z 0.000000 0.000000 1.773290 
# 
# From -- ./inp_files/49142.got.cif
#   From: 2010.03.12/outbox.cif.g09.slc.cpg/sg68_25_cif.got.tgz:49142.got - 2010.04.10 23:14:56.
