data_PCOD8281864
_publ_section_title
;
Structure prediction by ZEFSAII (Michael W. Deem and Ramdas Pophale) SiO2 
 PCOD8281864
Probable space group: C C C A
;
_chemical_formula_sum "Si O2"
_cell_formula_units_Z 112
_cell_length_a 5.062960
_cell_length_b 34.702450
_cell_length_c 33.023254
_cell_angle_alpha 90.000000
_cell_angle_beta 90.000000
_cell_angle_gamma 90.000000
_cell_volume 5802.090497
_symmetry_space_group_name_H-M "C C C A"
_symmetry_group_IT_number 68
_space_group.IT_coordinate_system_code '2'
_symmetry_cell_setting 'orthorhombic'
loop_
_space_group_symop_operation_xyz
x,y,z
-x,1/2-y,z
x,1/2-y,1/2-z
-x,y,1/2-z
-x,-y,-z
x,1/2+y,-z
-x,1/2+y,1/2+z
x,-y,1/2+z
1/2+x,1/2+y,z
1/2-x,-y,z
1/2+x,-y,1/2-z
1/2-x,1/2+y,1/2-z
1/2-x,1/2-y,-z
1/2+x,y,-z
1/2-x,y,1/2+z
1/2+x,1/2-y,1/2+z
loop_
_atom_site_type_symbol
_atom_site_label
_atom_site_fract_x
_atom_site_fract_y
_atom_site_fract_z
Si Si1 0.536286 0.816257 0.796332
Si Si2 0.536245 0.871595 0.384125
Si Si3 0.509580 0.372914 0.972721
Si Si4 0.499168 0.975199 0.702676
Si Si5 0.464305 0.793309 0.344647
Si Si6 0.964118 0.606840 0.336714
Si Si7 0.417689 0.288087 0.974739
O O1 0.500000 0.804089 0.750000
O O2 0.325264 0.795284 0.825051
O O3 0.503904 0.862511 0.800518
O O4 0.826209 0.802747 0.809430
O O5 0.491059 0.891871 0.428346
O O6 0.498106 0.824789 0.380861
O O7 0.333466 0.891427 0.353304
O O8 0.834418 0.882526 0.372644
O O9 0.769647 0.383695 0.997706
O O10 0.489538 0.329057 0.956106
O O11 0.500000 0.965636 0.750000
O O12 0.483973 0.935551 0.678993
O O13 0.750000 0.000000 0.689518
O O14 0.250000 0.000000 0.689570
O O15 0.500000 0.750000 0.362015
O O16 0.500000 0.250000 0.948120
O O17 0.108454 0.285723 0.985221
#
# Coordination Sequence:
#
# PCOD8281864 Si02
#       7
#    16  16  16  16  16  16  16
#     4  10  20  33  51  72  96 135 179 217 259 300
#     4  10  21  35  52  73 102 141 174 211 265 316
#     4  10  19  32  50  71  95 122 164 218 260 304
#     4  10  20  34  56  86 116 144 172 204 241 287
#     4  10  21  34  48  69  98 134 177 225 269 304
#     4  10  20  36  53  75 110 141 170 203 249 313
#     4   8  14  24  38  58  83 111 145 191 250 305
#
# _framework density 19.303388000000002
#
# number of rings (size 3 to 8) (size 9 to 14) (size 15 to 20)
#    0.000    2.286    0.000    3.000    0.000    2.286 
#    0.000    4.286    0.000   10.286    0.000    0.000 
#    0.000   40.000    0.000    0.000    0.000    0.000 
#
# Total GULP energy -693904.682291 kJ/mol
# GULP energy per Si atom -12391.155041 kJ/mol
# Density = 1.925945 g / cm^3
# Si number density = 19.303388 Si / 1000 Ang^3
#
#
#
# Elastic Constant Matrix: (Units=GPa)
#
#
# Indices 1 2 3 4 5 6 
#
# 1 93.0849 14.1157 10.3287 0.0000 0.0000 0.0000
# 2 14.1157 97.8311 11.5297 0.0000 0.0000 0.0000
# 3 10.3287 11.5297 74.5682 0.0000 0.0000 0.0000
# 4 0.0000 0.0000 0.0000 6.3290 0.0000 0.0000
# 5 0.0000 0.0000 0.0000 0.0000 4.5588 0.0000
# 6 0.0000 0.0000 0.0000 0.0000 0.0000 -28.8653
#
#
#
# Elastic Compliance Matrix: (Units=1/GPa)
#
#
# Indices 1 2 3 4 5 6 
#
# 1 0.011108 -0.001448 -0.001315 0.000000 0.000000 0.000000
# 2 -0.001448 0.010600 -0.001438 0.000000 0.000000 0.000000
# 3 -0.001315 -0.001438 0.013815 0.000000 0.000000 0.000000
# 4 0.000000 0.000000 0.000000 0.158003 0.000000 0.000000
# 5 0.000000 0.000000 0.000000 0.000000 0.219355 0.000000
# 6 0.000000 0.000000 0.000000 0.000000 0.000000 -0.034644
#
#
# Mechanical properties :
#
#
# Convention : Reuss Voigt Hill
#
# Bulk Modulus (GPa) = 36.87128 37.49251 37.18189
# Shear Modulus (GPa) = 12.63646 11.70517 12.17082
#
# Velocity S-wave (km/s) = 2.56134 2.46515 2.51370
# Velocity P-wave (km/s) = 5.28107 5.25048 5.26580
#
# Compressibility (1/GPa) = 0.02712138
#
# Stress axis : x y z
#
# Youngs Moduli (GPa) = 90.02256 94.33849 72.38473
#
# Poissons Ratio (x) = 0.13659 0.09517
# Poissons Ratio (y) = 0.13034 0.10412
# Poissons Ratio (z) = 0.11836 0.13570
#
# Static dielectric constant tensor:
#      x y z
#    x 3.641220 0.000000 0.000000 
#    y 0.000000 3.315710 0.000000 
#    z 0.000000 0.000000 3.154590 
# 
# 
# High freq. dielectric constant tensor:
#      x y z
#    x 1.772150 0.000000 0.000000 
#    y 0.000000 1.721400 0.000000 
#    z 0.000000 0.000000 1.726810 
# 
# From -- ./inp_files/53500.got.cif
#   From: 2010.03.12/outbox.cif.g09.slc.cpg/sg68_27_cif.got.tgz:53500.got - 2010.04.10 23:14:56.
