data_PCOD8281225
_publ_section_title
;
Structure prediction by ZEFSAII (Michael W. Deem and Ramdas Pophale) SiO2 
 PCOD8281225
Probable space group: C M M A
;
_chemical_formula_sum "Si O2"
_cell_formula_units_Z 80
_cell_length_a 22.900108
_cell_length_b 16.756259
_cell_length_c 9.034276
_cell_angle_alpha 90.000000
_cell_angle_beta 90.000000
_cell_angle_gamma 90.000000
_cell_volume 3466.633659
_symmetry_space_group_name_H-M "C M M A"
_symmetry_group_IT_number 67
_symmetry_cell_setting 'orthorhombic'
loop_
_space_group_symop_operation_xyz
x,y,z
-x,1/2-y,z
x,-y,-z
-x,1/2+y,-z
-x,-y,-z
x,1/2+y,-z
-x,y,z
x,1/2-y,z
1/2+x,1/2+y,z
1/2-x,-y,z
1/2+x,1/2-y,-z
1/2-x,y,-z
1/2-x,1/2-y,-z
1/2+x,y,-z
1/2-x,1/2+y,z
1/2+x,-y,z
loop_
_atom_site_type_symbol
_atom_site_label
_atom_site_fract_x
_atom_site_fract_y
_atom_site_fract_z
Si Si1 0.067882 0.335459 0.931660
Si Si2 0.431948 0.059927 0.806156
Si Si3 0.250906 0.594430 0.170302
Si Si4 0.131606 0.093076 0.688504
Si Si5 0.643073 0.342287 0.630750
O O1 0.095793 0.250000 0.982698
O O2 0.082053 0.350033 0.759125
O O3 0.000000 0.327825 0.954123
O O4 0.086831 0.414901 0.025485
O O5 0.500000 0.033882 0.793722
O O6 0.418528 0.141019 0.714000
O O7 0.387296 0.996407 0.735637
O O8 0.250000 0.500000 0.186267
O O9 0.190844 0.624571 0.238744
O O10 0.303819 0.632893 0.261949
O O11 0.250000 0.622595 0.000000
O O12 0.140126 0.102336 0.514529
O O13 0.648514 0.250000 0.586509
#
# Coordination Sequence:
#
# PCOD8281225 Si02
#       5
#    16  16  16  16  16
#     4  10  22  41  66 100 141 182 231 290 346 403
#     4  11  24  43  68  98 135 186 238 285 338 408
#     4  11  25  45  72 100 132 175 225 282 341 409
#     4  12  24  41  71  99 137 180 228 285 342 417
#     4  12  27  45  68 102 141 182 227 283 351 415
#
# _framework density 23.077141000000001
#
# number of rings (size 3 to 8) (size 9 to 14) (size 15 to 20)
#    0.000    0.800    2.000    4.800    2.800    8.800 
#    0.000    0.000    0.000    0.000    0.000    0.000 
#    0.000    0.000    0.000    0.000    0.000    0.000 
#
# Total GULP energy -495590.116336 kJ/mol
# GULP energy per Si atom -12389.752908 kJ/mol
# Density = 2.302462 g / cm^3
# Si number density = 23.077141 Si / 1000 Ang^3
#
#
#
# Elastic Constant Matrix: (Units=GPa)
#
#
# Indices 1 2 3 4 5 6 
#
# 1 70.3043 19.2864 42.2916 0.0000 0.0000 0.0000
# 2 19.2864 104.4188 26.2798 0.0000 0.0000 0.0000
# 3 42.2916 26.2798 150.6810 0.0000 0.0000 0.0000
# 4 0.0000 0.0000 0.0000 -71.3687 0.0000 0.0000
# 5 0.0000 0.0000 0.0000 0.0000 32.0188 0.0000
# 6 0.0000 0.0000 0.0000 0.0000 0.0000 26.5202
#
#
#
# Elastic Compliance Matrix: (Units=1/GPa)
#
#
# Indices 1 2 3 4 5 6 
#
# 1 0.017540 -0.002093 -0.004558 0.000000 0.000000 0.000000
# 2 -0.002093 0.010266 -0.001203 0.000000 0.000000 0.000000
# 3 -0.004558 -0.001203 0.008126 0.000000 0.000000 0.000000
# 4 0.000000 0.000000 0.000000 -0.014012 0.000000 0.000000
# 5 0.000000 0.000000 0.000000 0.000000 0.031232 0.000000
# 6 0.000000 0.000000 0.000000 0.000000 0.000000 0.037707
#
#
# Mechanical properties :
#
#
# Convention : Reuss Voigt Hill
#
# Bulk Modulus (GPa) = 49.44550 55.67996 52.56273
# Shear Modulus (GPa) = 44.12785 13.27049 28.69917
#
# Velocity S-wave (km/s) = 4.37760 2.40062 3.53032
# Velocity P-wave (km/s) = 6.85740 5.64483 6.28045
#
# Compressibility (1/GPa) = 0.02022429
#
# Stress axis : x y z
#
# Youngs Moduli (GPa) = 57.01340 97.40775 123.06700
#
# Poissons Ratio (x) = 0.20383 0.56093
# Poissons Ratio (y) = 0.11930 0.14807
# Poissons Ratio (z) = 0.25986 0.11720
#
# Static dielectric constant tensor:
#      x y z
#    x 4.192810 0.000000 0.000000 
#    y 0.000000 4.680250 0.000000 
#    z 0.000000 0.000000 4.297490 
# 
# 
# High freq. dielectric constant tensor:
#      x y z
#    x 1.910460 0.000000 0.000000 
#    y 0.000000 1.919000 0.000000 
#    z 0.000000 0.000000 1.918120 
# 
# From -- ./inp_files/13500.got.cif
#   From: 2010.03.12/outbox.cif.g09.slc.cpg/sg67_7_cif.got.tgz:13500.got - 2010.04.10 22:41:39.
