data_PCOD8281719
_publ_section_title
;
Structure prediction by ZEFSAII (Michael W. Deem and Ramdas Pophale) SiO2 
 PCOD8281719
Probable space group: C C C A
;
_chemical_formula_sum "Si O2"
_cell_formula_units_Z 64
_cell_length_a 10.239149
_cell_length_b 16.291956
_cell_length_c 17.466438
_cell_angle_alpha 90.000000
_cell_angle_beta 90.000000
_cell_angle_gamma 90.000000
_cell_volume 2913.677217
_symmetry_space_group_name_H-M "C C C A"
_symmetry_group_IT_number 68
_space_group.IT_coordinate_system_code '2'
_symmetry_cell_setting 'orthorhombic'
loop_
_space_group_symop_operation_xyz
x,y,z
-x,1/2-y,z
x,1/2-y,1/2-z
-x,y,1/2-z
-x,-y,-z
x,1/2+y,-z
-x,1/2+y,1/2+z
x,-y,1/2+z
1/2+x,1/2+y,z
1/2-x,-y,z
1/2+x,-y,1/2-z
1/2-x,1/2+y,1/2-z
1/2-x,1/2-y,-z
1/2+x,y,-z
1/2-x,y,1/2+z
1/2+x,1/2-y,1/2+z
loop_
_atom_site_type_symbol
_atom_site_label
_atom_site_fract_x
_atom_site_fract_y
_atom_site_fract_z
Si Si1 0.637365 0.844509 0.731516
Si Si2 0.491650 0.160439 0.533755
Si Si3 0.389265 0.163693 0.703478
Si Si4 0.226839 0.593606 0.071064
O O1 0.615818 0.750000 0.750000
O O2 0.500000 0.890534 0.750000
O O3 0.749117 0.881316 0.788405
O O4 0.685058 0.854703 0.644771
O O5 0.500000 0.250000 0.493631
O O6 0.428975 0.175064 0.616686
O O7 0.637812 0.125486 0.535268
O O8 0.392939 0.101012 0.488599
O O9 0.375307 0.250000 0.750000
O O10 0.500000 0.112133 0.750000
O O11 0.250000 0.500000 0.094393
#
# Coordination Sequence:
#
# PCOD8281719 Si02
#       4
#    16  16  16  16
#     4  10  22  41  70  97 133 174 238 292 331 409
#     4  12  24  43  76  98 136 190 241 282 339 425
#     4  10  17  38  66  97 126 171 230 289 332 394
#     4  12  28  47  65 106 149 183 227 289 362 417
#
# _framework density 21.965371000000001
#
# number of rings (size 3 to 8) (size 9 to 14) (size 15 to 20)
#    0.000    1.000    5.000    3.000    7.000    0.000 
#    4.500    0.000    0.000    0.000    0.000    0.000 
#    0.000    0.000    0.000    0.000    0.000    0.000 
#
# Total GULP energy -396482.661739 kJ/mol
# GULP energy per Si atom -12390.083179 kJ/mol
# Density = 2.191538 g / cm^3
# Si number density = 21.965371 Si / 1000 Ang^3
#
#
#
# Elastic Constant Matrix: (Units=GPa)
#
#
# Indices 1 2 3 4 5 6 
#
# 1 240.3104 26.2059 43.5320 0.0000 0.0000 0.0000
# 2 26.2059 79.4022 25.4071 0.0000 0.0000 0.0000
# 3 43.5320 25.4071 95.8567 0.0000 0.0000 0.0000
# 4 0.0000 0.0000 0.0000 12.5676 0.0000 0.0000
# 5 0.0000 0.0000 0.0000 0.0000 70.5973 0.0000
# 6 0.0000 0.0000 0.0000 0.0000 0.0000 19.0524
#
#
#
# Elastic Compliance Matrix: (Units=1/GPa)
#
#
# Indices 1 2 3 4 5 6 
#
# 1 0.004596 -0.000928 -0.001841 0.000000 0.000000 0.000000
# 2 -0.000928 0.013948 -0.003276 0.000000 0.000000 0.000000
# 3 -0.001841 -0.003276 0.012137 0.000000 0.000000 0.000000
# 4 0.000000 0.000000 0.000000 0.079570 0.000000 0.000000
# 5 0.000000 0.000000 0.000000 0.000000 0.014165 0.000000
# 6 0.000000 0.000000 0.000000 0.000000 0.000000 0.052487
#
#
# Mechanical properties :
#
#
# Convention : Reuss Voigt Hill
#
# Bulk Modulus (GPa) = 53.78776 67.31770 60.55273
# Shear Modulus (GPa) = 25.61618 41.80508 33.71063
#
# Velocity S-wave (km/s) = 3.41868 4.36733 3.92180
# Velocity P-wave (km/s) = 6.33434 7.49301 6.93790
#
# Compressibility (1/GPa) = 0.01859159
#
# Stress axis : x y z
#
# Youngs Moduli (GPa) = 217.58032 71.69245 82.39465
#
# Poissons Ratio (x) = 0.06651 0.15172
# Poissons Ratio (y) = 0.20185 0.26991
# Poissons Ratio (z) = 0.40064 0.23485
#
# Static dielectric constant tensor:
#      x y z
#    x 6.476860 0.000000 0.000000 
#    y 0.000000 3.193730 0.000000 
#    z 0.000000 0.000000 3.801780 
# 
# 
# High freq. dielectric constant tensor:
#      x y z
#    x 1.912060 0.000000 0.000000 
#    y 0.000000 1.815830 0.000000 
#    z 0.000000 0.000000 1.855780 
# 
# From -- ./inp_files/29142.got.cif
#   From: 2010.03.12/outbox.cif.g09.slc.cpg/sg68_15_cif.got.tgz:29142.got - 2010.04.10 23:14:56.
