data_PCOD8281967
_publ_section_title
;
Structure prediction by ZEFSAII (Michael W. Deem and Ramdas Pophale) SiO2 
 PCOD8281967
Probable space group: C C C A
;
_chemical_formula_sum "Si O2"
_cell_formula_units_Z 64
_cell_length_a 15.412625
_cell_length_b 8.325843
_cell_length_c 20.662382
_cell_angle_alpha 90.000000
_cell_angle_beta 90.000000
_cell_angle_gamma 90.000000
_cell_volume 2651.460828
_symmetry_space_group_name_H-M "C C C A"
_symmetry_group_IT_number 68
_space_group.IT_coordinate_system_code '2'
_symmetry_cell_setting 'orthorhombic'
loop_
_space_group_symop_operation_xyz
x,y,z
-x,1/2-y,z
x,1/2-y,1/2-z
-x,y,1/2-z
-x,-y,-z
x,1/2+y,-z
-x,1/2+y,1/2+z
x,-y,1/2+z
1/2+x,1/2+y,z
1/2-x,-y,z
1/2+x,-y,1/2-z
1/2-x,1/2+y,1/2-z
1/2-x,1/2-y,-z
1/2+x,y,-z
1/2-x,y,1/2+z
1/2+x,1/2-y,1/2+z
loop_
_atom_site_type_symbol
_atom_site_label
_atom_site_fract_x
_atom_site_fract_y
_atom_site_fract_z
Si Si1 0.402817 0.195200 0.179545
Si Si2 0.902571 0.684917 0.684216
Si Si3 0.096002 0.311716 0.051023
Si Si4 0.829844 0.874491 0.061892
O O1 0.500000 0.250000 0.163401
O O2 0.372481 0.250000 0.250000
O O3 0.337127 0.273452 0.128067
O O4 0.397905 0.004741 0.178653
O O5 0.855779 0.750000 0.750000
O O6 0.860326 0.755200 0.619004
O O7 0.000000 0.750000 0.685464
O O8 0.088213 0.505198 0.052315
O O9 0.000000 0.250000 0.037899
O O10 0.165334 0.250806 0.997576
O O11 0.750000 0.000000 0.061791
#
# Coordination Sequence:
#
# PCOD8281967 Si02
#       4
#    16  16  16  16
#     4  11  21  39  67  96 127 171 223 275 326 393
#     4  10  19  35  61  96 127 160 213 278 329 375
#     4  11  22  40  65  92 126 173 223 270 318 389
#     4  12  25  42  63  97 136 172 213 269 335 394
#
# _framework density 24.137637000000002
#
# number of rings (size 3 to 8) (size 9 to 14) (size 15 to 20)
#    0.000    1.000    0.000   11.250    0.000    0.000 
#    0.000    3.750    0.000    1.500    0.000    0.000 
#    0.000    0.000    0.000    0.000    0.000    0.000 
#
# Total GULP energy -396636.465041 kJ/mol
# GULP energy per Si atom -12394.889533 kJ/mol
# Density = 2.408270 g / cm^3
# Si number density = 24.137637 Si / 1000 Ang^3
#
#
#
# Elastic Constant Matrix: (Units=GPa)
#
#
# Indices 1 2 3 4 5 6 
#
# 1 59.0304 4.7192 20.3152 0.0000 0.0000 0.0000
# 2 4.7192 193.9105 64.4179 0.0000 0.0000 0.0000
# 3 20.3152 64.4179 231.1343 0.0000 0.0000 0.0000
# 4 0.0000 0.0000 0.0000 73.2638 0.0000 0.0000
# 5 0.0000 0.0000 0.0000 0.0000 -2.8221 0.0000
# 6 0.0000 0.0000 0.0000 0.0000 0.0000 26.5404
#
#
#
# Elastic Compliance Matrix: (Units=1/GPa)
#
#
# Indices 1 2 3 4 5 6 
#
# 1 0.017470 0.000094 -0.001562 0.000000 0.000000 0.000000
# 2 0.000094 0.005684 -0.001592 0.000000 0.000000 0.000000
# 3 -0.001562 -0.001592 0.004908 0.000000 0.000000 0.000000
# 4 0.000000 0.000000 0.000000 0.013649 0.000000 0.000000
# 5 0.000000 0.000000 0.000000 0.000000 -0.354350 0.000000
# 6 0.000000 0.000000 0.000000 0.000000 0.000000 0.037678
#
#
# Mechanical properties :
#
#
# Convention : Reuss Voigt Hill
#
# Bulk Modulus (GPa) = 45.57686 73.66443 59.62065
# Shear Modulus (GPa) = -19.11856 45.70463 13.29303
#
# Velocity S-wave (km/s) = -2.81742 4.35616 2.34928
# Velocity P-wave (km/s) = 2.88778 7.47571 5.66681
#
# Compressibility (1/GPa) = 0.02194096
#
# Stress axis : x y z
#
# Youngs Moduli (GPa) = 57.23981 175.94157 203.76883
#
# Poissons Ratio (x) = -0.01647 0.31821
# Poissons Ratio (y) = -0.00536 0.32446
# Poissons Ratio (z) = 0.08939 0.28015
#
# Static dielectric constant tensor:
#      x y z
#    x 3.598050 0.000000 0.000000 
#    y 0.000000 4.878780 0.000000 
#    z 0.000000 0.000000 5.274820 
# 
# 
# High freq. dielectric constant tensor:
#      x y z
#    x 1.931190 0.000000 0.000000 
#    y 0.000000 1.982550 0.000000 
#    z 0.000000 0.000000 1.980240 
# 
# From -- ./inp_files/39116.got.cif
#   From: 2010.03.12/outbox.cif.g09.slc.cpg/sg68_20_cif.got.tgz:39116.got - 2010.04.10 23:14:56.
