data_PCOD8281003
_publ_section_title
;
Structure prediction by ZEFSAII (Michael W. Deem and Ramdas Pophale) SiO2 
 PCOD8281003
Probable space group: C M M A
;
_chemical_formula_sum "Si O2"
_cell_formula_units_Z 112
_cell_length_a 13.983208
_cell_length_b 17.772131
_cell_length_c 20.866159
_cell_angle_alpha 90.000000
_cell_angle_beta 90.000000
_cell_angle_gamma 90.000000
_cell_volume 5185.478477
_symmetry_space_group_name_H-M "C M M A"
_symmetry_group_IT_number 67
_symmetry_cell_setting 'orthorhombic'
loop_
_space_group_symop_operation_xyz
x,y,z
-x,1/2-y,z
x,-y,-z
-x,1/2+y,-z
-x,-y,-z
x,1/2+y,-z
-x,y,z
x,1/2-y,z
1/2+x,1/2+y,z
1/2-x,-y,z
1/2+x,1/2-y,-z
1/2-x,y,-z
1/2-x,1/2-y,-z
1/2+x,y,-z
1/2-x,1/2+y,z
1/2+x,-y,z
loop_
_atom_site_type_symbol
_atom_site_label
_atom_site_fract_x
_atom_site_fract_y
_atom_site_fract_z
Si Si1 0.886500 0.168509 0.591703
Si Si2 0.885871 0.920217 0.526503
Si Si3 0.776627 0.415698 0.086976
Si Si4 0.386597 0.837842 0.344938
Si Si5 0.104677 0.160674 0.730357
Si Si6 0.221425 0.916921 0.769517
Si Si7 0.889842 0.161351 0.977468
O O1 0.839290 0.250000 0.593843
O O2 0.842013 0.130204 0.529829
O O3 0.863410 0.128789 0.659844
O O4 0.000000 0.172902 0.584352
O O5 0.847045 0.887414 0.594559
O O6 0.000000 0.919706 0.530259
O O7 0.848730 0.000000 0.500000
O O8 0.750000 0.500000 0.065793
O O9 0.821059 0.416610 0.158790
O O10 0.859502 0.382409 0.042007
O O11 0.679811 0.365576 0.080025
O O12 0.500000 0.841754 0.342874
O O13 0.353701 0.750000 0.350150
O O14 0.348749 0.875416 0.279713
O O15 0.101831 0.250000 0.728603
O O16 0.180874 0.129849 0.779800
O O17 0.000000 0.129413 0.748866
O O18 0.250000 0.000000 0.745338
O O19 0.876584 0.250000 0.988559
O O20 0.000000 0.142127 0.960503
#
# Coordination Sequence:
#
# PCOD8281003 Si02
#       7
#    16  16  16  16  16  16  16
#     4   8  14  27  49  75 101 132 177 236 300 360
#     4   9  17  29  52  83 109 143 192 247 309 363
#     4  10  22  40  60  88 125 166 207 245 295 354
#     4  10  22  40  61  86 119 161 206 252 308 377
#     4   9  19  36  59  83 107 145 196 249 304 358
#     4  11  25  40  58  86 123 166 206 249 299 357
#     4  10  21  38  65  98 126 156 198 249 301 353
#
# _framework density 21.598779
#
# number of rings (size 3 to 8) (size 9 to 14) (size 15 to 20)
#    0.000    2.429    0.000    3.429    2.000    6.857 
#    0.000    6.429    0.000    2.571    0.000    0.000 
#    0.000    0.000    0.000    0.000    0.000    0.000 
#
# Total GULP energy -693781.744477 kJ/mol
# GULP energy per Si atom -12388.959723 kJ/mol
# Density = 2.154962 g / cm^3
# Si number density = 21.598779 Si / 1000 Ang^3
#
#
#
# Elastic Constant Matrix: (Units=GPa)
#
#
# Indices 1 2 3 4 5 6 
#
# 1 51.0004 19.6210 12.9412 0.0000 0.0000 0.0000
# 2 19.6210 112.7823 46.9180 0.0000 0.0000 0.0000
# 3 12.9412 46.9180 96.9008 0.0000 0.0000 0.0000
# 4 0.0000 0.0000 0.0000 81.3798 0.0000 0.0000
# 5 0.0000 0.0000 0.0000 0.0000 19.1413 0.0000
# 6 0.0000 0.0000 0.0000 0.0000 0.0000 21.8254
#
#
#
# Elastic Compliance Matrix: (Units=1/GPa)
#
#
# Indices 1 2 3 4 5 6 
#
# 1 0.021145 -0.003135 -0.001306 0.000000 0.000000 0.000000
# 2 -0.003135 0.011568 -0.005182 0.000000 0.000000 0.000000
# 3 -0.001306 -0.005182 0.013003 0.000000 0.000000 0.000000
# 4 0.000000 0.000000 0.000000 0.012288 0.000000 0.000000
# 5 0.000000 0.000000 0.000000 0.000000 0.052243 0.000000
# 6 0.000000 0.000000 0.000000 0.000000 0.000000 0.045818
#
#
# Mechanical properties :
#
#
# Convention : Reuss Voigt Hill
#
# Bulk Modulus (GPa) = 37.77929 46.62709 42.20319
# Shear Modulus (GPa) = 27.15377 36.54951 31.85164
#
# Velocity S-wave (km/s) = 3.54953 4.11810 3.84434
# Velocity P-wave (km/s) = 5.85904 6.65180 6.26796
#
# Compressibility (1/GPa) = 0.02646953
#
# Stress axis : x y z
#
# Youngs Moduli (GPa) = 47.29175 86.44548 76.90280
#
# Poissons Ratio (x) = 0.27105 0.10042
# Poissons Ratio (y) = 0.14828 0.39853
# Poissons Ratio (z) = 0.06176 0.44799
#
# Static dielectric constant tensor:
#      x y z
#    x 3.992360 0.000000 0.000000 
#    y 0.000000 4.155000 0.000000 
#    z 0.000000 0.000000 3.952850 
# 
# 
# High freq. dielectric constant tensor:
#      x y z
#    x 1.841930 0.000000 0.000000 
#    y 0.000000 1.849830 0.000000 
#    z 0.000000 0.000000 1.847170 
# 
# From -- ./inp_files/41954.got.cif
#   From: 2010.03.12/outbox.cif.g09.slc.cpg/sg67_21_cif.got.tgz:41954.got - 2010.04.10 22:41:39.
