data_PCOD8281581
_publ_section_title
;
Structure prediction by ZEFSAII (Michael W. Deem and Ramdas Pophale) SiO2 
 PCOD8281581
Probable space group: C M M A
;
_chemical_formula_sum "Si O2"
_cell_formula_units_Z 128
_cell_length_a 18.867006
_cell_length_b 19.941177
_cell_length_c 20.264799
_cell_angle_alpha 90.000000
_cell_angle_beta 90.000000
_cell_angle_gamma 90.000000
_cell_volume 7624.231531
_symmetry_space_group_name_H-M "C M M A"
_symmetry_group_IT_number 67
_symmetry_cell_setting 'orthorhombic'
loop_
_space_group_symop_operation_xyz
x,y,z
-x,1/2-y,z
x,-y,-z
-x,1/2+y,-z
-x,-y,-z
x,1/2+y,-z
-x,y,z
x,1/2-y,z
1/2+x,1/2+y,z
1/2-x,-y,z
1/2+x,1/2-y,-z
1/2-x,y,-z
1/2-x,1/2-y,-z
1/2+x,y,-z
1/2-x,1/2+y,z
1/2+x,-y,z
loop_
_atom_site_type_symbol
_atom_site_label
_atom_site_fract_x
_atom_site_fract_y
_atom_site_fract_z
Si Si1 0.415538 0.932420 0.534329
Si Si2 0.334423 0.925733 0.809325
Si Si3 0.666479 0.825058 0.067391
Si Si4 0.915582 0.674997 0.568300
Si Si5 0.080204 0.400636 0.303378
Si Si6 0.167985 0.420719 0.180797
Si Si7 0.334581 0.324934 0.079177
Si Si8 0.419366 0.058023 0.318876
O O1 0.500000 0.937813 0.535347
O O2 0.387681 0.868808 0.493004
O O3 0.389165 0.920453 0.609445
O O4 0.385013 0.000000 0.500000
O O5 0.250907 0.913717 0.803834
O O6 0.364810 0.876834 0.866485
O O7 0.370854 0.909991 0.738819
O O8 0.352911 0.001779 0.829628
O O9 0.640645 0.750000 0.086666
O O10 0.638509 0.881487 0.117123
O O11 0.750673 0.827719 0.072640
O O12 0.637257 0.843026 0.994250
O O13 0.885007 0.750000 0.561653
O O14 0.888506 0.642153 0.636133
O O15 0.000000 0.674769 0.568215
O O16 0.128712 0.385260 0.241064
O O17 0.083879 0.478284 0.320979
O O18 0.000000 0.378836 0.287142
O O19 0.359032 0.250000 0.099637
O O20 0.500000 0.082811 0.307303
#
# Coordination Sequence:
#
# PCOD8281581 Si02
#       8
#    16  16  16  16  16  16  16  16
#     4   9  14  24  43  63  80 106 146 181 208 246
#     4   9  17  28  42  65  90 111 137 175 219 253
#     4   8  14  25  42  63  84 110 145 178 210 251
#     4   9  16  25  39  63  90 110 136 178 217 245
#     4   9  16  27  42  61  85 114 142 168 208 259
#     4   9  17  27  42  65  90 112 135 176 218 250
#     4   8  14  26  43  61  83 111 145 181 211 251
#     4   9  16  27  45  65  84 110 145 178 208 254
#
# _framework density 16.788577
#
# number of rings (size 3 to 8) (size 9 to 14) (size 15 to 20)
#    0.000    3.250    1.250    0.750    0.000    1.000 
#    0.000    3.125    0.000    2.625    0.000    6.125 
#    0.000    0.000    0.000    0.000    0.000    0.000 
#
# Total GULP energy -793137.840668 kJ/mol
# GULP energy per Si atom -12392.778760 kJ/mol
# Density = 1.675037 g / cm^3
# Si number density = 16.788577 Si / 1000 Ang^3
#
#
#
# Elastic Constant Matrix: (Units=GPa)
#
#
# Indices 1 2 3 4 5 6 
#
# 1 19.2536 19.8553 32.0948 0.0000 0.0000 0.0000
# 2 19.8553 94.6557 90.2236 0.0000 0.0000 0.0000
# 3 32.0948 90.2236 177.3932 0.0000 0.0000 0.0000
# 4 0.0000 0.0000 0.0000 31.7149 0.0000 0.0000
# 5 0.0000 0.0000 0.0000 0.0000 21.4313 0.0000
# 6 0.0000 0.0000 0.0000 0.0000 0.0000 9.3582
#
#
#
# Elastic Compliance Matrix: (Units=1/GPa)
#
#
# Indices 1 2 3 4 5 6 
#
# 1 0.075809 -0.005490 -0.010923 0.000000 0.000000 0.000000
# 2 -0.005490 0.020903 -0.009638 0.000000 0.000000 0.000000
# 3 -0.010923 -0.009638 0.012516 0.000000 0.000000 0.000000
# 4 0.000000 0.000000 0.000000 0.031531 0.000000 0.000000
# 5 0.000000 0.000000 0.000000 0.000000 0.046661 0.000000
# 6 0.000000 0.000000 0.000000 0.000000 0.000000 0.106858
#
#
# Mechanical properties :
#
#
# Convention : Reuss Voigt Hill
#
# Bulk Modulus (GPa) = 17.50575 63.96112 40.73344
# Shear Modulus (GPa) = 13.68283 22.44280 18.06282
#
# Velocity S-wave (km/s) = 2.85793 3.66018 3.28365
# Velocity P-wave (km/s) = 4.61954 7.48621 6.22027
#
# Compressibility (1/GPa) = 0.05712409
#
# Stress axis : x y z
#
# Youngs Moduli (GPa) = 13.19113 47.83964 79.90020
#
# Poissons Ratio (x) = 0.26264 0.87278
# Poissons Ratio (y) = 0.07242 0.77010
# Poissons Ratio (z) = 0.14409 0.46109
#
# Static dielectric constant tensor:
#      x y z
#    x 2.680780 0.000000 0.000000 
#    y 0.000000 3.241190 0.000000 
#    z 0.000000 0.000000 3.492520 
# 
# 
# High freq. dielectric constant tensor:
#      x y z
#    x 1.586550 0.000000 0.000000 
#    y 0.000000 1.639380 0.000000 
#    z 0.000000 0.000000 1.659880 
# 
# From -- ./inp_files/35269.got.cif
#   From: 2010.03.12/outbox.cif.g09.slc.cpg/sg67_18_cif.got.tgz:35269.got - 2010.04.10 22:41:39.
