data_PCOD8281284
_publ_section_title
;
Structure prediction by ZEFSAII (Michael W. Deem and Ramdas Pophale) SiO2 
 PCOD8281284
Probable space group: C M M A
;
_chemical_formula_sum "Si O2"
_cell_formula_units_Z 64
_cell_length_a 18.376777
_cell_length_b 19.857188
_cell_length_c 8.079548
_cell_angle_alpha 90.000000
_cell_angle_beta 90.000000
_cell_angle_gamma 90.000000
_cell_volume 2948.316875
_symmetry_space_group_name_H-M "C M M A"
_symmetry_group_IT_number 67
_symmetry_cell_setting 'orthorhombic'
loop_
_space_group_symop_operation_xyz
x,y,z
-x,1/2-y,z
x,-y,-z
-x,1/2+y,-z
-x,-y,-z
x,1/2+y,-z
-x,y,z
x,1/2-y,z
1/2+x,1/2+y,z
1/2-x,-y,z
1/2+x,1/2-y,-z
1/2-x,y,-z
1/2-x,1/2-y,-z
1/2+x,y,-z
1/2-x,1/2+y,z
1/2+x,-y,z
loop_
_atom_site_type_symbol
_atom_site_label
_atom_site_fract_x
_atom_site_fract_y
_atom_site_fract_z
Si Si1 0.086369 0.629787 0.182450
Si Si2 0.701901 0.750000 0.334698
Si Si3 0.836532 0.998539 0.686881
Si Si4 0.084052 0.750000 0.420877
Si Si5 0.182507 0.373061 0.108654
O O1 0.126105 0.559521 0.217357
O O2 0.108206 0.683630 0.321422
O O3 0.000000 0.620320 0.169357
O O4 0.118689 0.656444 0.008430
O O5 0.750000 0.750000 0.500000
O O6 0.619060 0.750000 0.397816
O O7 0.716921 0.815569 0.224909
O O8 0.867201 0.000000 0.500000
O O9 0.750000 0.000000 0.686314
O O10 0.856909 0.929847 0.780541
O O11 0.000000 0.750000 0.454172
O O12 0.250000 0.402110 0.000000
#
# Coordination Sequence:
#
# PCOD8281284 Si02
#       5
#    16   8  16   8  16
#     4  11  24  44  70 100 134 177 224 273 334 400
#     4  12  26  41  68  99 132 173 232 276 329 398
#     4  11  24  41  65  95 135 178 220 271 330 392
#     4  10  23  45  69  97 136 173 217 273 333 391
#     4  12  24  41  65  96 133 175 221 279 332 386
#
# _framework density 21.707301999999999
#
# number of rings (size 3 to 8) (size 9 to 14) (size 15 to 20)
#    0.000    0.750    2.500    4.875    3.500    3.500 
#    0.000    0.000    0.000    0.000    0.000    0.000 
#    0.000    0.000    0.000    0.000    0.000    0.000 
#
# Total GULP energy -396870.374944 kJ/mol
# GULP energy per Si atom -12402.199217 kJ/mol
# Density = 2.165790 g / cm^3
# Si number density = 21.707302 Si / 1000 Ang^3
#
#
#
# Elastic Constant Matrix: (Units=GPa)
#
#
# Indices 1 2 3 4 5 6 
#
# 1 78.9139 23.3872 35.9598 0.0000 0.0000 0.0000
# 2 23.3872 123.7526 33.6122 0.0000 0.0000 0.0000
# 3 35.9598 33.6122 121.4236 0.0000 0.0000 0.0000
# 4 0.0000 0.0000 0.0000 31.3258 0.0000 0.0000
# 5 0.0000 0.0000 0.0000 0.0000 36.4236 0.0000
# 6 0.0000 0.0000 0.0000 0.0000 0.0000 29.2237
#
#
#
# Elastic Compliance Matrix: (Units=1/GPa)
#
#
# Indices 1 2 3 4 5 6 
#
# 1 0.014995 -0.001760 -0.003954 0.000000 0.000000 0.000000
# 2 -0.001760 0.008944 -0.001955 0.000000 0.000000 0.000000
# 3 -0.003954 -0.001955 0.009948 0.000000 0.000000 0.000000
# 4 0.000000 0.000000 0.000000 0.031923 0.000000 0.000000
# 5 0.000000 0.000000 0.000000 0.000000 0.027455 0.000000
# 6 0.000000 0.000000 0.000000 0.000000 0.000000 0.034219
#
#
# Mechanical properties :
#
#
# Convention : Reuss Voigt Hill
#
# Bulk Modulus (GPa) = 53.90742 56.66762 55.28752
# Shear Modulus (GPa) = 33.55631 34.80335 34.17983
#
# Velocity S-wave (km/s) = 3.93600 4.00847 3.97240
# Velocity P-wave (km/s) = 6.74862 6.89824 6.82384
#
# Compressibility (1/GPa) = 0.01855032
#
# Stress axis : x y z
#
# Youngs Moduli (GPa) = 66.68770 111.80484 100.52671
#
# Poissons Ratio (x) = 0.19678 0.39745
# Poissons Ratio (y) = 0.11737 0.19650
# Poissons Ratio (z) = 0.26366 0.21854
#
# Static dielectric constant tensor:
#      x y z
#    x 3.901410 0.000000 0.000000 
#    y 0.000000 3.930910 0.000000 
#    z 0.000000 0.000000 4.445580 
# 
# 
# High freq. dielectric constant tensor:
#      x y z
#    x 1.845360 0.000000 0.000000 
#    y 0.000000 1.856240 0.000000 
#    z 0.000000 0.000000 1.869410 
# 
# From -- ./inp_files/10731.got.cif
#   From: 2010.03.12/outbox.cif.g09.slc.cpg/sg67_6_cif.got.tgz:10731.got - 2010.04.10 22:41:39.
