data_PCOD8281585
_publ_section_title
;
Structure prediction by ZEFSAII (Michael W. Deem and Ramdas Pophale) SiO2 
 PCOD8281585
Probable space group: C M M A
;
_chemical_formula_sum "Si O2"
_cell_formula_units_Z 80
_cell_length_a 9.635321
_cell_length_b 37.368368
_cell_length_c 13.611204
_cell_angle_alpha 90.000000
_cell_angle_beta 90.000000
_cell_angle_gamma 90.000000
_cell_volume 4900.798674
_symmetry_space_group_name_H-M "C M M A"
_symmetry_group_IT_number 67
_symmetry_cell_setting 'orthorhombic'
loop_
_space_group_symop_operation_xyz
x,y,z
-x,1/2-y,z
x,-y,-z
-x,1/2+y,-z
-x,-y,-z
x,1/2+y,-z
-x,y,z
x,1/2-y,z
1/2+x,1/2+y,z
1/2-x,-y,z
1/2+x,1/2-y,-z
1/2-x,y,-z
1/2-x,1/2-y,-z
1/2+x,y,-z
1/2-x,1/2+y,z
1/2+x,-y,z
loop_
_atom_site_type_symbol
_atom_site_label
_atom_site_fract_x
_atom_site_fract_y
_atom_site_fract_z
Si Si1 0.836682 0.858130 0.711492
Si Si2 0.660873 0.709762 0.404535
Si Si3 0.341777 0.533636 0.209700
Si Si4 0.162114 0.605335 0.904118
Si Si5 0.161817 0.925331 0.593794
O O1 0.794550 0.817850 0.680880
O O2 0.782339 0.866866 0.820834
O O3 0.782066 0.886602 0.630960
O O4 0.000000 0.864238 0.715638
O O5 0.500000 0.704547 0.432798
O O6 0.689588 0.750000 0.366025
O O7 0.750000 0.701182 0.500000
O O8 0.500000 0.521534 0.199724
O O9 0.250000 0.500000 0.179875
O O10 0.308887 0.565374 0.133832
O O11 0.310746 0.545959 0.320699
O O12 0.000000 0.610990 0.927541
O O13 0.250000 0.613645 0.000000
O O14 0.250000 0.937364 0.500000
O O15 0.000000 0.923981 0.564925
#
# Coordination Sequence:
#
# PCOD8281585 Si02
#       5
#    16  16  16  16  16
#     4   8  15  29  46  63  88 118 145 176 213 255
#     4   9  16  26  43  68  95 122 149 175 207 248
#     4   9  19  33  46  62  86 113 140 174 217 262
#     4   9  18  33  50  66  84 109 143 181 220 260
#     4   9  17  29  44  62  85 115 147 176 209 250
#
# _framework density 16.323868999999998
#
# number of rings (size 3 to 8) (size 9 to 14) (size 15 to 20)
#    0.000    3.200    0.000    3.000    0.000    2.400 
#    0.000    8.000    0.000    0.600    0.000    0.000 
#    0.000    0.000    0.000    0.000    0.000    0.000 
#
# Total GULP energy -495842.811716 kJ/mol
# GULP energy per Si atom -12396.070293 kJ/mol
# Density = 1.628671 g / cm^3
# Si number density = 16.323869 Si / 1000 Ang^3
#
#
#
# Elastic Constant Matrix: (Units=GPa)
#
#
# Indices 1 2 3 4 5 6 
#
# 1 48.6574 39.6720 43.7575 0.0000 0.0000 0.0000
# 2 39.6720 103.3283 46.4279 0.0000 0.0000 0.0000
# 3 43.7575 46.4279 103.1553 0.0000 0.0000 0.0000
# 4 0.0000 0.0000 0.0000 15.4315 0.0000 0.0000
# 5 0.0000 0.0000 0.0000 0.0000 30.4909 0.0000
# 6 0.0000 0.0000 0.0000 0.0000 0.0000 16.0052
#
#
#
# Elastic Compliance Matrix: (Units=1/GPa)
#
#
# Indices 1 2 3 4 5 6 
#
# 1 0.039597 -0.009597 -0.012478 0.000000 0.000000 0.000000
# 2 -0.009597 0.014457 -0.002436 0.000000 0.000000 0.000000
# 3 -0.012478 -0.002436 0.016083 0.000000 0.000000 0.000000
# 4 0.000000 0.000000 0.000000 0.064802 0.000000 0.000000
# 5 0.000000 0.000000 0.000000 0.000000 0.032797 0.000000
# 6 0.000000 0.000000 0.000000 0.000000 0.000000 0.062480
#
#
# Mechanical properties :
#
#
# Convention : Reuss Voigt Hill
#
# Bulk Modulus (GPa) = 47.35439 57.20620 52.28030
# Shear Modulus (GPa) = 17.46568 20.73777 19.10172
#
# Velocity S-wave (km/s) = 3.27455 3.56813 3.42449
# Velocity P-wave (km/s) = 6.58553 7.21775 6.90888
#
# Compressibility (1/GPa) = 0.02111737
#
# Stress axis : x y z
#
# Youngs Moduli (GPa) = 25.25425 69.17088 62.17600
#
# Poissons Ratio (x) = 0.66380 0.77581
# Poissons Ratio (y) = 0.24235 0.15146
# Poissons Ratio (z) = 0.31511 0.16850
#
# Static dielectric constant tensor:
#      x y z
#    x 2.863700 0.000000 0.000000 
#    y 0.000000 3.107990 0.000000 
#    z 0.000000 0.000000 3.002480 
# 
# 
# High freq. dielectric constant tensor:
#      x y z
#    x 1.609840 0.000000 0.000000 
#    y 0.000000 1.623870 0.000000 
#    z 0.000000 0.000000 1.618540 
# 
# From -- ./inp_files/16770.got.cif
#   From: 2010.03.12/outbox.cif.g09.slc.cpg/sg67_9_cif.got.tgz:16770.got - 2010.04.10 22:41:39.
