data_PCOD8281291
_publ_section_title
;
Structure prediction by ZEFSAII (Michael W. Deem and Ramdas Pophale) SiO2 
 PCOD8281291
Probable space group: C M M A
;
_chemical_formula_sum "Si O2"
_cell_formula_units_Z 80
_cell_length_a 13.749448
_cell_length_b 20.728874
_cell_length_c 13.002143
_cell_angle_alpha 90.000000
_cell_angle_beta 90.000000
_cell_angle_gamma 90.000000
_cell_volume 3705.748255
_symmetry_space_group_name_H-M "C M M A"
_symmetry_group_IT_number 67
_symmetry_cell_setting 'orthorhombic'
loop_
_space_group_symop_operation_xyz
x,y,z
-x,1/2-y,z
x,-y,-z
-x,1/2+y,-z
-x,-y,-z
x,1/2+y,-z
-x,y,z
x,1/2-y,z
1/2+x,1/2+y,z
1/2-x,-y,z
1/2+x,1/2-y,-z
1/2-x,y,-z
1/2-x,1/2-y,-z
1/2+x,y,-z
1/2-x,1/2+y,z
1/2+x,-y,z
loop_
_atom_site_type_symbol
_atom_site_label
_atom_site_fract_x
_atom_site_fract_y
_atom_site_fract_z
Si Si1 0.759266 0.887243 0.761227
Si Si2 0.108132 0.551435 0.366476
Si Si3 0.608857 0.402103 0.581594
Si Si4 0.610285 0.322170 0.107216
Si Si5 0.112528 0.434056 0.054457
O O1 0.680363 0.940372 0.728170
O O2 0.821277 0.863690 0.661071
O O3 0.693897 0.828650 0.805704
O O4 0.829584 0.921584 0.841727
O O5 0.110026 0.477058 0.392153
O O6 0.142089 0.598056 0.461836
O O7 0.000000 0.572273 0.333280
O O8 0.500000 0.373549 0.592732
O O9 0.500000 0.333126 0.150063
O O10 0.618673 0.250000 0.061002
O O11 0.633674 0.373887 0.019406
O O12 0.000000 0.439625 0.084946
O O13 0.148121 0.500000 0.000000
#
# Coordination Sequence:
#
# PCOD8281291 Si02
#       5
#    16  16  16  16  16
#     4  12  21  32  60  88 113 148 205 248 299 359
#     4   9  19  34  52  82 123 161 195 242 301 366
#     4   9  19  34  52  82 124 161 195 240 303 364
#     4  10  24  45  63  82 117 163 207 251 305 371
#     4  10  24  41  57  86 127 161 195 250 312 362
#
# _framework density 21.588083000000001
#
# number of rings (size 3 to 8) (size 9 to 14) (size 15 to 20)
#    0.000    2.000    0.000    4.200    5.600    4.000 
#    0.000    0.000    0.000    4.800    0.000    2.800 
#    0.000    3.200    0.000    0.000    0.000    0.000 
#
# Total GULP energy -495682.538033 kJ/mol
# GULP energy per Si atom -12392.063451 kJ/mol
# Density = 2.153895 g / cm^3
# Si number density = 21.588083 Si / 1000 Ang^3
#
#
#
# Elastic Constant Matrix: (Units=GPa)
#
#
# Indices 1 2 3 4 5 6 
#
# 1 112.1211 25.4247 61.4929 0.0000 0.0000 0.0000
# 2 25.4247 84.8367 36.3297 0.0000 0.0000 0.0000
# 3 61.4929 36.3297 98.3868 0.0000 0.0000 0.0000
# 4 0.0000 0.0000 0.0000 20.2406 0.0000 0.0000
# 5 0.0000 0.0000 0.0000 0.0000 49.8964 0.0000
# 6 0.0000 0.0000 0.0000 0.0000 0.0000 4.7980
#
#
#
# Elastic Compliance Matrix: (Units=1/GPa)
#
#
# Indices 1 2 3 4 5 6 
#
# 1 0.013590 -0.000517 -0.008303 0.000000 0.000000 0.000000
# 2 -0.000517 0.014021 -0.004854 0.000000 0.000000 0.000000
# 3 -0.008303 -0.004854 0.017146 0.000000 0.000000 0.000000
# 4 0.000000 0.000000 0.000000 0.049406 0.000000 0.000000
# 5 0.000000 0.000000 0.000000 0.000000 0.020042 0.000000
# 6 0.000000 0.000000 0.000000 0.000000 0.000000 0.208421
#
#
# Mechanical properties :
#
#
# Convention : Reuss Voigt Hill
#
# Bulk Modulus (GPa) = 57.44355 60.20434 58.82394
# Shear Modulus (GPa) = 14.05380 26.46017 20.25698
#
# Velocity S-wave (km/s) = 2.55423 3.50478 3.06656
# Velocity P-wave (km/s) = 5.94689 6.65780 6.31236
#
# Compressibility (1/GPa) = 0.01740840
#
# Stress axis : x y z
#
# Youngs Moduli (GPa) = 73.58390 71.32160 58.32352
#
# Poissons Ratio (x) = 0.03689 0.48425
# Poissons Ratio (y) = 0.03806 0.28311
# Poissons Ratio (z) = 0.61096 0.34620
#
# Static dielectric constant tensor:
#      x y z
#    x 4.504850 0.000000 0.000000 
#    y 0.000000 3.387240 0.000000 
#    z 0.000000 0.000000 4.795650 
# 
# 
# High freq. dielectric constant tensor:
#      x y z
#    x 1.880870 0.000000 0.000000 
#    y 0.000000 1.783330 0.000000 
#    z 0.000000 0.000000 1.848730 
# 
# From -- ./inp_files/17939.got.cif
#   From: 2010.03.12/outbox.cif.g09.slc.cpg/sg67_9_cif.got.tgz:17939.got - 2010.04.10 22:41:39.
