data_PCOD8281895
_publ_section_title
;
Structure prediction by ZEFSAII (Michael W. Deem and Ramdas Pophale) SiO2 
 PCOD8281895
Probable space group: C C C A
;
_chemical_formula_sum "Si O2"
_cell_formula_units_Z 120
_cell_length_a 16.274343
_cell_length_b 21.779013
_cell_length_c 18.511446
_cell_angle_alpha 90.000000
_cell_angle_beta 90.000000
_cell_angle_gamma 90.000000
_cell_volume 6561.180774
_symmetry_space_group_name_H-M "C C C A"
_symmetry_group_IT_number 68
_space_group.IT_coordinate_system_code '2'
_symmetry_cell_setting 'orthorhombic'
loop_
_space_group_symop_operation_xyz
x,y,z
-x,1/2-y,z
x,1/2-y,1/2-z
-x,y,1/2-z
-x,-y,-z
x,1/2+y,-z
-x,1/2+y,1/2+z
x,-y,1/2+z
1/2+x,1/2+y,z
1/2-x,-y,z
1/2+x,-y,1/2-z
1/2-x,1/2+y,1/2-z
1/2-x,1/2-y,-z
1/2+x,y,-z
1/2-x,y,1/2+z
1/2+x,1/2-y,1/2+z
loop_
_atom_site_type_symbol
_atom_site_label
_atom_site_fract_x
_atom_site_fract_y
_atom_site_fract_z
Si Si1 0.350283 0.138144 0.624141
Si Si2 0.592538 0.261024 0.834949
Si Si3 0.672619 0.458263 0.747637
Si Si4 0.049217 0.556596 0.404660
Si Si5 0.845695 0.893158 0.612201
Si Si6 0.986242 0.575667 0.553548
Si Si7 0.500000 0.530234 0.750000
Si Si8 0.221181 0.570844 0.466629
O O1 0.342155 0.210703 0.636242
O O2 0.339075 0.099914 0.696909
O O3 0.441995 0.132232 0.591400
O O4 0.289386 0.114398 0.564785
O O5 0.500000 0.250000 0.864652
O O6 0.590627 0.250000 0.750000
O O7 0.628339 0.325797 0.861128
O O8 0.750000 0.500000 0.720478
O O9 0.698307 0.430953 0.824542
O O10 0.584278 0.491591 0.754073
O O11 0.062438 0.484745 0.421354
O O12 0.141467 0.581814 0.415385
O O13 0.988454 0.583984 0.466165
O O14 0.011573 0.570082 0.324305
O O15 0.785533 0.896368 0.544394
O O16 0.923712 0.931910 0.585717
O O17 0.250000 0.500000 0.471874
#
# Coordination Sequence:
#
# PCOD8281895 Si02
#       8
#    16  16  16  16  16  16   8  16
#     4  12  21  37  57  80 119 149 195 237 298 352
#     4  11  23  37  61  87 113 151 197 244 296 352
#     4  12  23  34  56  90 120 153 196 246 291 361
#     4  10  20  32  53  79 117 152 192 230 297 356
#     4  11  22  38  55  85 115 152 197 242 292 350
#     4  10  19  33  53  81 112 151 190 237 286 354
#     4  12  20  34  54  81 120 161 192 230 296 362
#     4  11  22  37  56  82 119 156 188 242 302 356
#
# _framework density 18.289390000000001
#
# number of rings (size 3 to 8) (size 9 to 14) (size 15 to 20)
#    0.000    0.933    6.667    1.600    0.000    1.600 
#    0.000    0.000    0.000    0.000    0.000    0.000 
#    0.000    1.333    0.000    0.000    0.000    0.000 
#
# Total GULP energy -743382.667201 kJ/mol
# GULP energy per Si atom -12389.711120 kJ/mol
# Density = 1.824776 g / cm^3
# Si number density = 18.289390 Si / 1000 Ang^3
#
#
#
# Elastic Constant Matrix: (Units=GPa)
#
#
# Indices 1 2 3 4 5 6 
#
# 1 54.2314 19.1807 25.2459 0.0000 0.0000 0.0000
# 2 19.1807 76.3601 21.0952 0.0000 0.0000 0.0000
# 3 25.2459 21.0952 124.1664 0.0000 0.0000 0.0000
# 4 0.0000 0.0000 0.0000 4.2292 0.0000 0.0000
# 5 0.0000 0.0000 0.0000 0.0000 22.0399 0.0000
# 6 0.0000 0.0000 0.0000 0.0000 0.0000 12.8935
#
#
#
# Elastic Compliance Matrix: (Units=1/GPa)
#
#
# Indices 1 2 3 4 5 6 
#
# 1 0.021715 -0.004443 -0.003660 0.000000 0.000000 0.000000
# 2 -0.004443 0.014650 -0.001586 0.000000 0.000000 0.000000
# 3 -0.003660 -0.001586 0.009067 0.000000 0.000000 0.000000
# 4 0.000000 0.000000 0.000000 0.236452 0.000000 0.000000
# 5 0.000000 0.000000 0.000000 0.000000 0.045372 0.000000
# 6 0.000000 0.000000 0.000000 0.000000 0.000000 0.077559
#
#
# Mechanical properties :
#
#
# Convention : Reuss Voigt Hill
#
# Bulk Modulus (GPa) = 38.38183 42.86683 40.62433
# Shear Modulus (GPa) = 11.55059 20.44825 15.99942
#
# Velocity S-wave (km/s) = 2.51578 3.34734 2.96090
# Velocity P-wave (km/s) = 5.42866 6.19907 5.82661
#
# Compressibility (1/GPa) = 0.02605399
#
# Stress axis : x y z
#
# Youngs Moduli (GPa) = 46.05116 68.25951 110.28648
#
# Poissons Ratio (x) = 0.30330 0.40368
# Poissons Ratio (y) = 0.20462 0.17486
# Poissons Ratio (z) = 0.16856 0.10823
#
# Static dielectric constant tensor:
#      x y z
#    x 3.393930 0.000000 0.000000 
#    y 0.000000 3.133890 0.000000 
#    z 0.000000 0.000000 3.701150 
# 
# 
# High freq. dielectric constant tensor:
#      x y z
#    x 1.707850 0.000000 0.000000 
#    y 0.000000 1.672660 0.000000 
#    z 0.000000 0.000000 1.727460 
# 
# From -- ./inp_files/32293.got.cif
#   From: 2010.03.12/outbox.cif.g09.slc.cpg/sg68_17_cif.got.tgz:32293.got - 2010.04.10 23:14:56.
