data_PCOD8281984
_publ_section_title
;
Structure prediction by ZEFSAII (Michael W. Deem and Ramdas Pophale) SiO2 
 PCOD8281984
Probable space group: C C C A
;
_chemical_formula_sum "Si O2"
_cell_formula_units_Z 120
_cell_length_a 11.445468
_cell_length_b 19.680437
_cell_length_c 25.484470
_cell_angle_alpha 90.000000
_cell_angle_beta 90.000000
_cell_angle_gamma 90.000000
_cell_volume 5740.423043
_symmetry_space_group_name_H-M "C C C A"
_symmetry_group_IT_number 68
_space_group.IT_coordinate_system_code '2'
_symmetry_cell_setting 'orthorhombic'
loop_
_space_group_symop_operation_xyz
x,y,z
-x,1/2-y,z
x,1/2-y,1/2-z
-x,y,1/2-z
-x,-y,-z
x,1/2+y,-z
-x,1/2+y,1/2+z
x,-y,1/2+z
1/2+x,1/2+y,z
1/2-x,-y,z
1/2+x,-y,1/2-z
1/2-x,1/2+y,1/2-z
1/2-x,1/2-y,-z
1/2+x,y,-z
1/2-x,y,1/2+z
1/2+x,1/2-y,1/2+z
loop_
_atom_site_type_symbol
_atom_site_label
_atom_site_fract_x
_atom_site_fract_y
_atom_site_fract_z
Si Si1 0.810708 0.064306 0.881638
Si Si2 0.891248 0.800045 0.040443
Si Si3 0.646630 0.695509 0.788202
Si Si4 0.284635 0.403908 0.770523
Si Si5 0.204505 0.193272 0.070397
Si Si6 0.429801 0.400560 0.128475
Si Si7 0.250000 0.000000 0.315787
Si Si8 0.377250 0.278187 0.819446
O O1 0.745748 0.063176 0.825856
O O2 0.791315 0.130856 0.917071
O O3 0.949347 0.057835 0.872006
O O4 0.750000 0.000000 0.911206
O O5 0.776919 0.761978 0.061739
O O6 0.904728 0.871621 0.070538
O O7 0.000000 0.750000 0.047153
O O8 0.875519 0.821639 0.979897
O O9 0.582812 0.750000 0.750000
O O10 0.666527 0.628334 0.753517
O O11 0.564813 0.668652 0.835630
O O12 0.768172 0.727646 0.809670
O O13 0.330980 0.456186 0.725356
O O14 0.373584 0.342981 0.781112
O O15 0.118912 0.201845 0.119598
O O16 0.328499 0.452462 0.146817
O O17 0.500000 0.250000 0.802629
#
# Coordination Sequence:
#
# PCOD8281984 Si02
#       8
#    16  16  16  16  16  16   8  16
#     4  11  23  45  63  92 129 178 216 261 324 389
#     4  11  21  41  72  98 123 160 210 277 342 382
#     4   9  19  35  57  93 126 160 219 267 318 375
#     4   9  20  39  58  86 128 168 219 254 315 380
#     4  10  22  40  65  98 129 158 213 270 330 404
#     4  11  23  43  67  92 132 172 219 270 322 387
#     4  10  22  44  60  96 128 176 224 258 316 384
#     4  10  19  36  58  92 131 167 209 265 329 385
#
# _framework density 20.904382999999999
#
# number of rings (size 3 to 8) (size 9 to 14) (size 15 to 20)
#    0.000    1.867    3.333    0.400    0.000    4.533 
#   13.200    4.000    0.000    0.000    0.000    0.000 
#    0.000    0.000    0.000    0.000    0.000    0.000 
#
# Total GULP energy -743434.916460 kJ/mol
# GULP energy per Si atom -12390.581941 kJ/mol
# Density = 2.085680 g / cm^3
# Si number density = 20.904383 Si / 1000 Ang^3
#
#
#
# Elastic Constant Matrix: (Units=GPa)
#
#
# Indices 1 2 3 4 5 6 
#
# 1 101.1278 43.4519 33.3656 0.0000 0.0000 0.0000
# 2 43.4519 105.6969 45.4020 0.0000 0.0000 0.0000
# 3 33.3656 45.4020 121.9435 0.0000 0.0000 0.0000
# 4 0.0000 0.0000 0.0000 27.3816 0.0000 0.0000
# 5 0.0000 0.0000 0.0000 0.0000 2.6546 0.0000
# 6 0.0000 0.0000 0.0000 0.0000 0.0000 31.7285
#
#
#
# Elastic Compliance Matrix: (Units=1/GPa)
#
#
# Indices 1 2 3 4 5 6 
#
# 1 0.012322 -0.004306 -0.001768 0.000000 0.000000 0.000000
# 2 -0.004306 0.012767 -0.003575 0.000000 0.000000 0.000000
# 3 -0.001768 -0.003575 0.010015 0.000000 0.000000 0.000000
# 4 0.000000 0.000000 0.000000 0.036521 0.000000 0.000000
# 5 0.000000 0.000000 0.000000 0.000000 0.376709 0.000000
# 6 0.000000 0.000000 0.000000 0.000000 0.000000 0.031517
#
#
# Mechanical properties :
#
#
# Convention : Reuss Voigt Hill
#
# Bulk Modulus (GPa) = 63.26924 63.68969 63.47947
# Shear Modulus (GPa) = 9.91238 26.12284 18.01761
#
# Velocity S-wave (km/s) = 2.17992 3.53885 2.93901
# Velocity P-wave (km/s) = 6.05540 6.87250 6.47685
#
# Compressibility (1/GPa) = 0.01580547
#
# Stress axis : x y z
#
# Youngs Moduli (GPa) = 81.15512 78.32731 99.84559
#
# Poissons Ratio (x) = 0.33728 0.17656
# Poissons Ratio (y) = 0.34946 0.35697
# Poissons Ratio (z) = 0.14351 0.28004
#
# Static dielectric constant tensor:
#      x y z
#    x 3.411520 0.000000 0.000000 
#    y 0.000000 4.004710 0.000000 
#    z 0.000000 0.000000 4.011880 
# 
# 
# High freq. dielectric constant tensor:
#      x y z
#    x 1.797350 0.000000 0.000000 
#    y 0.000000 1.820400 0.000000 
#    z 0.000000 0.000000 1.823780 
# 
# From -- ./inp_files/50437.got.cif
#   From: 2010.03.12/outbox.cif.g09.slc.cpg/sg68_26_cif.got.tgz:50437.got - 2010.04.10 23:14:56.
