data_PCOD8281730
_publ_section_title
;
Structure prediction by ZEFSAII (Michael W. Deem and Ramdas Pophale) SiO2 
 PCOD8281730
Probable space group: C C C A
;
_chemical_formula_sum "Si O2"
_cell_formula_units_Z 80
_cell_length_a 8.415561
_cell_length_b 17.601835
_cell_length_c 26.062070
_cell_angle_alpha 90.000000
_cell_angle_beta 90.000000
_cell_angle_gamma 90.000000
_cell_volume 3860.556607
_symmetry_space_group_name_H-M "C C C A"
_symmetry_group_IT_number 68
_space_group.IT_coordinate_system_code '2'
_symmetry_cell_setting 'orthorhombic'
loop_
_space_group_symop_operation_xyz
x,y,z
-x,1/2-y,z
x,1/2-y,1/2-z
-x,y,1/2-z
-x,-y,-z
x,1/2+y,-z
-x,1/2+y,1/2+z
x,-y,1/2+z
1/2+x,1/2+y,z
1/2-x,-y,z
1/2+x,-y,1/2-z
1/2-x,1/2+y,1/2-z
1/2-x,1/2-y,-z
1/2+x,y,-z
1/2-x,y,1/2+z
1/2+x,1/2-y,1/2+z
loop_
_atom_site_type_symbol
_atom_site_label
_atom_site_fract_x
_atom_site_fract_y
_atom_site_fract_z
Si Si1 0.660385 0.616728 0.652379
Si Si2 0.750000 0.000000 0.182904
Si Si3 0.936890 0.330299 0.550459
Si Si4 0.343202 0.423194 0.986246
Si Si5 0.000000 0.091857 0.750000
Si Si6 0.467748 0.951275 0.123106
O O1 0.588699 0.676162 0.611698
O O2 0.597801 0.641693 0.708605
O O3 0.595434 0.534960 0.635108
O O4 0.852521 0.610891 0.650947
O O5 0.628639 0.042389 0.219947
O O6 0.853278 0.056588 0.146014
O O7 0.769251 0.351684 0.525399
O O8 0.000000 0.250000 0.529299
O O9 0.056968 0.398728 0.535976
O O10 0.250000 0.500000 0.999349
O O11 0.462384 0.436920 0.938093
#
# Coordination Sequence:
#
# PCOD8281730 Si02
#       6
#    16   8  16  16   8  16
#     4   9  18  34  51  75 117 145 194 243 292 347
#     4  10  18  28  54  84 122 148 188 244 306 358
#     4  11  23  38  57  85 121 160 196 247 301 355
#     4  11  21  39  61  85 119 159 201 247 288 361
#     4  10  18  30  49  80 108 152 189 240 290 354
#     4   9  17  32  52  82 111 152 183 242 292 348
#
# _framework density 20.7224
#
# number of rings (size 3 to 8) (size 9 to 14) (size 15 to 20)
#    0.000    2.000    4.000    3.600    0.000    3.200 
#    1.800    0.500    0.000    0.000    0.000    0.000 
#    0.000    9.600    0.000    0.000    0.000    0.000 
#
# Total GULP energy -495614.569490 kJ/mol
# GULP energy per Si atom -12390.364237 kJ/mol
# Density = 2.067524 g / cm^3
# Si number density = 20.722400 Si / 1000 Ang^3
#
#
#
# Elastic Constant Matrix: (Units=GPa)
#
#
# Indices 1 2 3 4 5 6 
#
# 1 137.0622 32.0154 66.2436 0.0000 0.0000 0.0000
# 2 32.0154 49.0723 24.7733 0.0000 0.0000 0.0000
# 3 66.2436 24.7733 86.7645 0.0000 0.0000 0.0000
# 4 0.0000 0.0000 0.0000 11.9137 0.0000 0.0000
# 5 0.0000 0.0000 0.0000 0.0000 36.4176 0.0000
# 6 0.0000 0.0000 0.0000 0.0000 0.0000 24.1912
#
#
#
# Elastic Compliance Matrix: (Units=1/GPa)
#
#
# Indices 1 2 3 4 5 6 
#
# 1 0.012136 -0.003786 -0.008185 0.000000 0.000000 0.000000
# 2 -0.003786 0.024991 -0.004245 0.000000 0.000000 0.000000
# 3 -0.008185 -0.004245 0.018987 0.000000 0.000000 0.000000
# 4 0.000000 0.000000 0.000000 0.083937 0.000000 0.000000
# 5 0.000000 0.000000 0.000000 0.000000 0.027459 0.000000
# 6 0.000000 0.000000 0.000000 0.000000 0.000000 0.041337
#
#
# Mechanical properties :
#
#
# Convention : Reuss Voigt Hill
#
# Bulk Modulus (GPa) = 42.22579 57.66262 49.94420
# Shear Modulus (GPa) = 20.06641 24.49563 22.28102
#
# Velocity S-wave (km/s) = 3.11520 3.44188 3.28260
# Velocity P-wave (km/s) = 5.77585 6.60923 6.20654
#
# Compressibility (1/GPa) = 0.02368221
#
# Stress axis : x y z
#
# Youngs Moduli (GPa) = 82.39930 40.01436 52.66899
#
# Poissons Ratio (x) = 0.15148 0.43108
# Poissons Ratio (y) = 0.31194 0.22359
# Poissons Ratio (z) = 0.67442 0.16987
#
# Static dielectric constant tensor:
#      x y z
#    x 4.484480 0.000000 0.000000 
#    y 0.000000 3.140990 0.000000 
#    z 0.000000 0.000000 4.162480 
# 
# 
# High freq. dielectric constant tensor:
#      x y z
#    x 1.825290 0.000000 0.000000 
#    y 0.000000 1.747060 0.000000 
#    z 0.000000 0.000000 1.818400 
# 
# From -- ./inp_files/43059.got.cif
#   From: 2010.03.12/outbox.cif.g09.slc.cpg/sg68_22_cif.got.tgz:43059.got - 2010.04.10 23:14:56.
