data_PCOD8281138
_publ_section_title
;
Structure prediction by ZEFSAII (Michael W. Deem and Ramdas Pophale) SiO2 
 PCOD8281138
Probable space group: C M M A
;
_chemical_formula_sum "Si O2"
_cell_formula_units_Z 88
_cell_length_a 9.326430
_cell_length_b 15.771812
_cell_length_c 30.070266
_cell_angle_alpha 90.000000
_cell_angle_beta 90.000000
_cell_angle_gamma 90.000000
_cell_volume 4423.176774
_symmetry_space_group_name_H-M "C M M A"
_symmetry_group_IT_number 67
_symmetry_cell_setting 'orthorhombic'
loop_
_space_group_symop_operation_xyz
x,y,z
-x,1/2-y,z
x,-y,-z
-x,1/2+y,-z
-x,-y,-z
x,1/2+y,-z
-x,y,z
x,1/2-y,z
1/2+x,1/2+y,z
1/2-x,-y,z
1/2+x,1/2-y,-z
1/2-x,y,-z
1/2-x,1/2-y,-z
1/2+x,y,-z
1/2-x,1/2+y,z
1/2+x,-y,z
loop_
_atom_site_type_symbol
_atom_site_label
_atom_site_fract_x
_atom_site_fract_y
_atom_site_fract_z
Si Si1 0.337375 0.351048 0.957579
Si Si2 0.169615 0.750000 0.546206
Si Si3 0.660493 0.851252 0.873019
Si Si4 0.168683 0.413465 0.397535
Si Si5 0.665829 0.582358 0.297943
Si Si6 0.656906 0.346864 0.792988
O O1 0.500000 0.386198 0.958592
O O2 0.339579 0.250000 0.958134
O O3 0.257522 0.384837 0.913566
O O4 0.250000 0.385913 0.000000
O O5 0.250000 0.750000 0.500000
O O6 0.217860 0.665235 0.572237
O O7 0.000000 0.750000 0.538648
O O8 0.500000 0.888116 0.877541
O O9 0.654277 0.750000 0.873212
O O10 0.728410 0.887551 0.826935
O O11 0.250000 0.500000 0.411655
O O12 0.211133 0.386057 0.347107
O O13 0.000000 0.430759 0.402601
O O14 0.500000 0.559262 0.299244
O O15 0.750000 0.500000 0.283655
O O16 0.703667 0.648936 0.258983
O O17 0.500000 0.390339 0.799097
O O18 0.643185 0.250000 0.806584
#
# Coordination Sequence:
#
# PCOD8281138 Si02
#       6
#    16   8  16  16  16  16
#     4   9  15  22  33  49  72 106 148 191 236 289
#     4  10  22  38  58  84 114 148 188 230 275 328
#     4   9  16  25  36  53  81 114 148 189 237 289
#     4   9  19  36  57  81 110 145 183 227 276 326
#     4   9  18  32  51  73  98 128 164 204 248 298
#     4   9  17  28  44  66  90 120 156 194 237 289
#
# _framework density 19.895202000000001
#
# number of rings (size 3 to 8) (size 9 to 14) (size 15 to 20)
#    0.000    2.909    0.000    1.091    1.273    6.182 
#    0.000    1.818    0.000    0.000    0.000    0.000 
#    0.000    0.727    0.000    7.636    0.000   11.455 
#
# Total GULP energy -545291.694292 kJ/mol
# GULP energy per Si atom -12392.993052 kJ/mol
# Density = 1.984992 g / cm^3
# Si number density = 19.895202 Si / 1000 Ang^3
#
#
#
# Elastic Constant Matrix: (Units=GPa)
#
#
# Indices 1 2 3 4 5 6 
#
# 1 114.8024 34.1311 79.0490 0.0000 0.0000 0.0000
# 2 34.1311 52.9770 47.3694 0.0000 0.0000 0.0000
# 3 79.0490 47.3694 165.3917 0.0000 0.0000 0.0000
# 4 0.0000 0.0000 0.0000 1.2501 0.0000 0.0000
# 5 0.0000 0.0000 0.0000 0.0000 36.5146 0.0000
# 6 0.0000 0.0000 0.0000 0.0000 0.0000 18.9115
#
#
#
# Elastic Compliance Matrix: (Units=1/GPa)
#
#
# Indices 1 2 3 4 5 6 
#
# 1 0.013574 -0.003958 -0.005354 0.000000 0.000000 0.000000
# 2 -0.003958 0.026528 -0.005706 0.000000 0.000000 0.000000
# 3 -0.005354 -0.005706 0.010240 0.000000 0.000000 0.000000
# 4 0.000000 0.000000 0.000000 0.799965 0.000000 0.000000
# 5 0.000000 0.000000 0.000000 0.000000 0.027386 0.000000
# 6 0.000000 0.000000 0.000000 0.000000 0.000000 0.052878
#
#
# Mechanical properties :
#
#
# Convention : Reuss Voigt Hill
#
# Bulk Modulus (GPa) = 49.24797 72.69669 60.97233
# Shear Modulus (GPa) = 5.16862 22.84333 14.00598
#
# Velocity S-wave (km/s) = 1.61356 3.39216 2.65616
# Velocity P-wave (km/s) = 5.31779 7.20843 6.33405
#
# Compressibility (1/GPa) = 0.02030541
#
# Stress axis : x y z
#
# Youngs Moduli (GPa) = 73.67045 37.69566 97.66028
#
# Poissons Ratio (x) = 0.14919 0.52289
# Poissons Ratio (y) = 0.29157 0.55727
# Poissons Ratio (z) = 0.39444 0.21510
#
# Static dielectric constant tensor:
#      x y z
#    x 3.783200 0.000000 0.000000 
#    y 0.000000 3.348900 0.000000 
#    z 0.000000 0.000000 3.803660 
# 
# 
# High freq. dielectric constant tensor:
#      x y z
#    x 1.776420 0.000000 0.000000 
#    y 0.000000 1.729890 0.000000 
#    z 0.000000 0.000000 1.786920 
# 
# From -- ./inp_files/45208.got.cif
#   From: 2010.03.12/outbox.cif.g09.slc.cpg/sg67_23_cif.got.tgz:45208.got - 2010.04.10 22:41:39.
