data_PCOD8281625
_publ_section_title
;
Structure prediction by ZEFSAII (Michael W. Deem and Ramdas Pophale) SiO2 
 PCOD8281625
Probable space group: C C C A
;
_chemical_formula_sum "Si O2"
_cell_formula_units_Z 56
_cell_length_a 5.343414
_cell_length_b 30.392880
_cell_length_c 12.519362
_cell_angle_alpha 90.000000
_cell_angle_beta 90.000000
_cell_angle_gamma 90.000000
_cell_volume 2033.166179
_symmetry_space_group_name_H-M "C C C A"
_symmetry_group_IT_number 68
_space_group.IT_coordinate_system_code '2'
_symmetry_cell_setting 'orthorhombic'
loop_
_space_group_symop_operation_xyz
x,y,z
-x,1/2-y,z
x,1/2-y,1/2-z
-x,y,1/2-z
-x,-y,-z
x,1/2+y,-z
-x,1/2+y,1/2+z
x,-y,1/2+z
1/2+x,1/2+y,z
1/2-x,-y,z
1/2+x,-y,1/2-z
1/2-x,1/2+y,1/2-z
1/2-x,1/2-y,-z
1/2+x,y,-z
1/2-x,y,1/2+z
1/2+x,1/2-y,1/2+z
loop_
_atom_site_type_symbol
_atom_site_label
_atom_site_fract_x
_atom_site_fract_y
_atom_site_fract_z
Si Si1 0.748652 0.768904 0.117839
Si Si2 0.349531 0.129171 0.878808
Si Si3 0.148372 0.093870 0.616116
Si Si4 0.750000 0.500000 0.682072
O O1 0.500000 0.750000 0.176362
O O2 0.744033 0.821192 0.120254
O O3 0.000000 0.750000 0.175047
O O4 0.750000 0.750000 0.000000
O O5 0.626187 0.121805 0.824506
O O6 0.124635 0.100012 0.825046
O O7 0.411867 0.112785 0.998853
O O8 0.219625 0.042721 0.607471
O O9 0.500000 0.493282 0.750000
#
# Coordination Sequence:
#
# PCOD8281625 Si02
#       4
#    16  16  16   8
#     4  10  16  25  43  74 120 145 156 189 242 323
#     4  10  19  32  54  85 111 137 170 207 266 317
#     4  10  20  35  54  75 107 135 172 222 263 315
#     4  12  26  42  56  74 100 138 186 226 266 310
#
# _framework density 27.543251000000001
#
# number of rings (size 3 to 8) (size 9 to 14) (size 15 to 20)
#    0.000    1.714    0.000   10.286    0.000    4.571 
#    0.000    0.000    0.000    0.000    0.000    0.000 
#    0.000  278.857    0.000    0.000    0.000    0.000 
#
# Total GULP energy -347097.088022 kJ/mol
# GULP energy per Si atom -12396.324572 kJ/mol
# Density = 2.748056 g / cm^3
# Si number density = 27.543251 Si / 1000 Ang^3
#
#
#
# Elastic Constant Matrix: (Units=GPa)
#
#
# Indices 1 2 3 4 5 6 
#
# 1 325.1478 80.3244 16.2996 0.0000 0.0000 0.0000
# 2 80.3244 233.8542 2.9909 0.0000 0.0000 0.0000
# 3 16.2996 2.9909 49.6072 0.0000 0.0000 0.0000
# 4 0.0000 0.0000 0.0000 -88.8843 0.0000 0.0000
# 5 0.0000 0.0000 0.0000 0.0000 -112.0760 0.0000
# 6 0.0000 0.0000 0.0000 0.0000 0.0000 59.9498
#
#
#
# Elastic Compliance Matrix: (Units=1/GPa)
#
#
# Indices 1 2 3 4 5 6 
#
# 1 0.003415 -0.001159 -0.001052 0.000000 0.000000 0.000000
# 2 -0.001159 0.004673 0.000099 0.000000 0.000000 0.000000
# 3 -0.001052 0.000099 0.020498 0.000000 0.000000 0.000000
# 4 0.000000 0.000000 0.000000 -0.011251 0.000000 0.000000
# 5 0.000000 0.000000 0.000000 0.000000 -0.008923 0.000000
# 6 0.000000 0.000000 0.000000 0.000000 0.000000 0.016681
#
#
# Mechanical properties :
#
#
# Convention : Reuss Voigt Hill
#
# Bulk Modulus (GPa) = 41.04870 89.75988 65.40429
# Shear Modulus (GPa) = 133.55263 5.73087 69.64175
#
# Velocity S-wave (km/s) = 6.97091 1.44402 5.03383
# Velocity P-wave (km/s) = 8.92901 5.95313 7.58838
#
# Compressibility (1/GPa) = 0.02436131
#
# Stress axis : x y z
#
# Youngs Moduli (GPa) = 292.85252 213.98888 48.78510
#
# Poissons Ratio (x) = 0.24810 0.05133
# Poissons Ratio (y) = 0.33954 -0.00484
# Poissons Ratio (z) = 0.30810 -0.02123
#
# Static dielectric constant tensor:
#      x y z
#    x 4.552530 0.000000 0.000000 
#    y 0.000000 4.759790 0.000000 
#    z 0.000000 0.000000 5.002920 
# 
# 
# High freq. dielectric constant tensor:
#      x y z
#    x 2.169930 0.000000 0.000000 
#    y 0.000000 2.090200 0.000000 
#    z 0.000000 0.000000 2.147070 
# 
# From -- ./inp_files/26216.got.cif
#   From: 2010.03.12/outbox.cif.g09.slc.cpg/sg68_14_cif.got.tgz:26216.got - 2010.04.10 23:14:56.
