data_PCOD8281772
_publ_section_title
;
Structure prediction by ZEFSAII (Michael W. Deem and Ramdas Pophale) SiO2 
 PCOD8281772
Probable space group: C C C A
;
_chemical_formula_sum "Si O2"
_cell_formula_units_Z 116
_cell_length_a 8.421553
_cell_length_b 25.201937
_cell_length_c 29.456464
_cell_angle_alpha 90.000000
_cell_angle_beta 90.000000
_cell_angle_gamma 90.000000
_cell_volume 6251.823664
_symmetry_space_group_name_H-M "C C C A"
_symmetry_group_IT_number 68
_space_group.IT_coordinate_system_code '2'
_symmetry_cell_setting 'orthorhombic'
loop_
_space_group_symop_operation_xyz
x,y,z
-x,1/2-y,z
x,1/2-y,1/2-z
-x,y,1/2-z
-x,-y,-z
x,1/2+y,-z
-x,1/2+y,1/2+z
x,-y,1/2+z
1/2+x,1/2+y,z
1/2-x,-y,z
1/2+x,-y,1/2-z
1/2-x,1/2+y,1/2-z
1/2-x,1/2-y,-z
1/2+x,y,-z
1/2-x,y,1/2+z
1/2+x,1/2-y,1/2+z
loop_
_atom_site_type_symbol
_atom_site_label
_atom_site_fract_x
_atom_site_fract_y
_atom_site_fract_z
Si Si1 0.987577 0.857512 0.302360
Si Si2 0.148959 0.278991 0.628830
Si Si3 0.000000 0.250000 0.250000
Si Si4 0.106896 0.139292 0.391269
Si Si5 0.328997 0.444554 0.150279
Si Si6 0.601917 0.070772 0.528805
Si Si7 0.953561 0.542123 0.444951
Si Si8 0.164661 0.313536 0.327563
O O1 0.802809 0.856839 0.317835
O O2 0.000000 0.843596 0.250000
O O3 0.081487 0.811090 0.328102
O O4 0.069801 0.915030 0.310685
O O5 0.250180 0.319095 0.597791
O O6 0.272790 0.235627 0.644277
O O7 0.000000 0.250000 0.603309
O O8 0.897148 0.209620 0.280116
O O9 0.177714 0.088931 0.365186
O O10 0.042701 0.120804 0.440739
O O11 0.971576 0.161064 0.358451
O O12 0.250000 0.500000 0.166738
O O13 0.456543 0.449802 0.109088
O O14 0.784030 0.059441 0.536584
O O15 0.573468 0.079312 0.474476
O O16 0.502977 0.019073 0.545059
#
# Coordination Sequence:
#
# PCOD8281772 Si02
#       8
#    16  16   4  16  16  16  16  16
#     4  10  22  36  55  81 109 149 191 229 282 344
#     4   9  18  34  53  78 113 144 179 233 281 342
#     4  12  20  32  58  80 120 144 174 260 296 316
#     4  10  18  33  52  84 110 147 178 229 294 337
#     4  10  19  38  56  72 113 155 185 229 281 336
#     4   9  17  29  54  79 108 133 178 229 277 336
#     4   9  16  32  52  81 104 140 177 228 282 320
#     4  11  21  33  54  86 111 141 187 237 289 333
#
# _framework density 18.554584999999999
#
# number of rings (size 3 to 8) (size 9 to 14) (size 15 to 20)
#    0.000    2.207    4.138    0.828    1.931    3.034 
#    0.000    2.069    0.000    0.000    0.000   68.552 
#    0.000    0.000    0.000    0.000    0.000    0.000 
#
# Total GULP energy -718547.409121 kJ/mol
# GULP energy per Si atom -12388.748433 kJ/mol
# Density = 1.851235 g / cm^3
# Si number density = 18.554585 Si / 1000 Ang^3
#
#
#
# Elastic Constant Matrix: (Units=GPa)
#
#
# Indices 1 2 3 4 5 6 
#
# 1 66.9259 46.0108 24.9220 0.0000 0.0000 0.0000
# 2 46.0108 102.2938 28.9778 0.0000 0.0000 0.0000
# 3 24.9220 28.9778 66.6013 0.0000 0.0000 0.0000
# 4 0.0000 0.0000 0.0000 2.9940 0.0000 0.0000
# 5 0.0000 0.0000 0.0000 0.0000 6.7446 0.0000
# 6 0.0000 0.0000 0.0000 0.0000 0.0000 29.3415
#
#
#
# Elastic Compliance Matrix: (Units=1/GPa)
#
#
# Indices 1 2 3 4 5 6 
#
# 1 0.022826 -0.008950 -0.004647 0.000000 0.000000 0.000000
# 2 -0.008950 0.014660 -0.003029 0.000000 0.000000 0.000000
# 3 -0.004647 -0.003029 0.018072 0.000000 0.000000 0.000000
# 4 0.000000 0.000000 0.000000 0.334004 0.000000 0.000000
# 5 0.000000 0.000000 0.000000 0.000000 0.148267 0.000000
# 6 0.000000 0.000000 0.000000 0.000000 0.000000 0.034081
#
#
# Mechanical properties :
#
#
# Convention : Reuss Voigt Hill
#
# Bulk Modulus (GPa) = 44.83538 48.40471 46.62004
# Shear Modulus (GPa) = 8.16198 16.87670 12.51934
#
# Velocity S-wave (km/s) = 2.09963 3.01918 2.60038
# Velocity P-wave (km/s) = 5.48584 6.18856 5.84777
#
# Compressibility (1/GPa) = 0.02230382
#
# Stress axis : x y z
#
# Youngs Moduli (GPa) = 43.81038 68.21448 55.33550
#
# Poissons Ratio (x) = 0.61054 0.25715
# Poissons Ratio (y) = 0.39212 0.16762
# Poissons Ratio (z) = 0.20359 0.20663
#
# Static dielectric constant tensor:
#      x y z
#    x 6.474470 0.000000 0.000000 
#    y 0.000000 3.528990 0.000000 
#    z 0.000000 0.000000 3.400040 
# 
# 
# High freq. dielectric constant tensor:
#      x y z
#    x 1.720210 0.000000 0.000000 
#    y 0.000000 1.713930 0.000000 
#    z 0.000000 0.000000 1.694180 
# 
# From -- ./inp_files/54251.got.cif
#   From: 2010.03.12/outbox.cif.g09.slc.cpg/sg68_28_cif.got.tgz:54251.got - 2010.04.10 23:14:56.
