data_PCOD8281612
_publ_section_title
;
Structure prediction by ZEFSAII (Michael W. Deem and Ramdas Pophale) SiO2 
 PCOD8281612
Probable space group: C C C A
;
_chemical_formula_sum "Si O2"
_cell_formula_units_Z 104
_cell_length_a 18.636898
_cell_length_b 19.877364
_cell_length_c 14.387851
_cell_angle_alpha 90.000000
_cell_angle_beta 90.000000
_cell_angle_gamma 90.000000
_cell_volume 5330.014011
_symmetry_space_group_name_H-M "C C C A"
_symmetry_group_IT_number 68
_space_group.IT_coordinate_system_code '2'
_symmetry_cell_setting 'orthorhombic'
loop_
_space_group_symop_operation_xyz
x,y,z
-x,1/2-y,z
x,1/2-y,1/2-z
-x,y,1/2-z
-x,-y,-z
x,1/2+y,-z
-x,1/2+y,1/2+z
x,-y,1/2+z
1/2+x,1/2+y,z
1/2-x,-y,z
1/2+x,-y,1/2-z
1/2-x,1/2+y,1/2-z
1/2-x,1/2-y,-z
1/2+x,y,-z
1/2-x,y,1/2+z
1/2+x,1/2-y,1/2+z
loop_
_atom_site_type_symbol
_atom_site_label
_atom_site_fract_x
_atom_site_fract_y
_atom_site_fract_z
Si Si1 0.653362 0.358542 0.117754
Si Si2 0.852449 0.172000 0.083023
Si Si3 0.916115 0.607955 0.748596
Si Si4 0.157748 0.750000 0.250000
Si Si5 0.701263 0.362723 0.385441
Si Si6 0.321025 0.328011 0.911695
Si Si7 0.829631 0.474936 0.745674
O O1 0.614388 0.303800 0.186340
O O2 0.739795 0.344693 0.119744
O O3 0.641386 0.433897 0.155602
O O4 0.616248 0.348875 0.017829
O O5 0.907645 0.158688 0.165018
O O6 0.784819 0.122486 0.097291
O O7 0.828596 0.248567 0.084351
O O8 0.880377 0.639872 0.656548
O O9 0.881545 0.535991 0.767574
O O10 0.000000 0.596331 0.750000
O O11 0.202809 0.795552 0.322106
O O12 0.661743 0.354340 0.484417
O O13 0.666793 0.426408 0.334844
O O14 0.750000 0.500000 0.723279
#
# Coordination Sequence:
#
# PCOD8281612 Si02
#       7
#    16  16  16   8  16  16  16
#     4  10  19  32  62  95 123 154 201 269 312 347
#     4  11  20  36  60  94 128 159 203 254 315 368
#     4  12  27  43  59  86 131 175 207 248 309 384
#     4  10  14  30  54  92 122 142 182 266 334 334
#     4  10  19  32  62  95 123 154 201 269 312 347
#     4  11  20  36  60  94 128 159 203 254 315 368
#     4  11  21  39  60  89 123 171 213 257 300 367
#
# _framework density 19.512142999999998
#
# number of rings (size 3 to 8) (size 9 to 14) (size 15 to 20)
#    0.000    1.231    6.154    2.308    0.000    2.462 
#    0.000    3.077    0.000    0.000    0.000    3.231 
#    0.000    0.000    0.000    0.000    0.000    0.000 
#
# Total GULP energy -644359.724744 kJ/mol
# GULP energy per Si atom -12391.533168 kJ/mol
# Density = 1.946773 g / cm^3
# Si number density = 19.512143 Si / 1000 Ang^3
#
#
#
# Elastic Constant Matrix: (Units=GPa)
#
#
# Indices 1 2 3 4 5 6 
#
# 1 60.2741 9.1610 21.9311 0.0000 0.0000 0.0000
# 2 9.1610 69.2654 48.0409 0.0000 0.0000 0.0000
# 3 21.9311 48.0409 149.4700 0.0000 0.0000 0.0000
# 4 0.0000 0.0000 0.0000 28.1116 0.0000 0.0000
# 5 0.0000 0.0000 0.0000 0.0000 11.1928 0.0000
# 6 0.0000 0.0000 0.0000 0.0000 0.0000 13.6773
#
#
#
# Elastic Compliance Matrix: (Units=1/GPa)
#
#
# Indices 1 2 3 4 5 6 
#
# 1 0.017552 -0.000689 -0.002354 0.000000 0.000000 0.000000
# 2 -0.000689 0.018606 -0.005879 0.000000 0.000000 0.000000
# 3 -0.002354 -0.005879 0.008925 0.000000 0.000000 0.000000
# 4 0.000000 0.000000 0.000000 0.035572 0.000000 0.000000
# 5 0.000000 0.000000 0.000000 0.000000 0.089343 0.000000
# 6 0.000000 0.000000 0.000000 0.000000 0.000000 0.073114
#
#
# Mechanical properties :
#
#
# Convention : Reuss Voigt Hill
#
# Bulk Modulus (GPa) = 36.71116 48.58616 42.64866
# Shear Modulus (GPa) = 18.51608 23.92146 21.21877
#
# Velocity S-wave (km/s) = 3.08385 3.50520 3.30125
# Velocity P-wave (km/s) = 5.61565 6.42934 6.03622
#
# Compressibility (1/GPa) = 0.02723967
#
# Stress axis : x y z
#
# Youngs Moduli (GPa) = 56.97341 53.74648 112.04159
#
# Poissons Ratio (x) = 0.03702 0.26374
# Poissons Ratio (y) = 0.03924 0.65869
# Poissons Ratio (z) = 0.13411 0.31598
#
# Static dielectric constant tensor:
#      x y z
#    x 3.031770 0.000000 0.000000 
#    y 0.000000 3.741660 0.000000 
#    z 0.000000 0.000000 4.132870 
# 
# 
# High freq. dielectric constant tensor:
#      x y z
#    x 1.689390 0.000000 0.000000 
#    y 0.000000 1.774530 0.000000 
#    z 0.000000 0.000000 1.784800 
# 
# From -- ./inp_files/23806.got.cif
#   From: 2010.03.12/outbox.cif.g09.slc.cpg/sg68_12_cif.got.tgz:23806.got - 2010.04.10 23:14:56.
