data_PCOD8281334
_publ_section_title
;
Structure prediction by ZEFSAII (Michael W. Deem and Ramdas Pophale) SiO2 
 PCOD8281334
Probable space group: C M M A
;
_chemical_formula_sum "Si O2"
_cell_formula_units_Z 96
_cell_length_a 22.588720
_cell_length_b 25.896894
_cell_length_c 8.223423
_cell_angle_alpha 90.000000
_cell_angle_beta 90.000000
_cell_angle_gamma 90.000000
_cell_volume 4810.518969
_symmetry_space_group_name_H-M "C M M A"
_symmetry_group_IT_number 67
_symmetry_cell_setting 'orthorhombic'
loop_
_space_group_symop_operation_xyz
x,y,z
-x,1/2-y,z
x,-y,-z
-x,1/2+y,-z
-x,-y,-z
x,1/2+y,-z
-x,y,z
x,1/2-y,z
1/2+x,1/2+y,z
1/2-x,-y,z
1/2+x,1/2-y,-z
1/2-x,y,-z
1/2-x,1/2-y,-z
1/2+x,y,-z
1/2-x,1/2+y,z
1/2+x,-y,z
loop_
_atom_site_type_symbol
_atom_site_label
_atom_site_fract_x
_atom_site_fract_y
_atom_site_fract_z
Si Si1 0.806520 0.594714 0.912783
Si Si2 0.725195 0.807801 0.245741
Si Si3 0.566095 0.099144 0.423094
Si Si4 0.845599 0.033803 0.363668
Si Si5 0.156157 0.808546 0.423963
Si Si6 0.096758 0.040917 0.882506
O O1 0.797989 0.656497 0.901587
O O2 0.805777 0.577212 0.721868
O O3 0.750000 0.568944 0.000000
O O4 0.866655 0.581521 0.007066
O O5 0.727247 0.750000 0.176767
O O6 0.790823 0.825261 0.303212
O O7 0.679201 0.810874 0.393154
O O8 0.500000 0.111002 0.488406
O O9 0.597181 0.059866 0.549330
O O10 0.601802 0.152214 0.402396
O O11 0.557540 0.072701 0.244968
O O12 0.811103 0.000000 0.500000
O O13 0.859004 0.995071 0.217376
O O14 0.134917 0.750000 0.384595
O O15 0.061129 0.000000 0.000000
#
# Coordination Sequence:
#
# PCOD8281334 Si02
#       6
#    16  16  16  16  16  16
#     4  11  20  35  56  83 121 151 187 229 291 351
#     4   9  18  34  60  86 114 148 182 229 285 345
#     4  11  21  37  61  85 110 150 199 244 286 334
#     4   9  20  38  55  77 110 151 199 238 276 331
#     4   9  18  35  58  90 117 140 186 241 289 334
#     4   9  21  37  53  80 120 150 188 237 285 338
#
# _framework density 19.956267
#
# number of rings (size 3 to 8) (size 9 to 14) (size 15 to 20)
#    0.000    2.333    1.667    2.000    0.000    7.000 
#    0.000    7.500    0.000    0.000    0.000    0.000 
#    0.000    0.000    0.000    0.000    0.000    0.000 
#
# Total GULP energy -594682.128088 kJ/mol
# GULP energy per Si atom -12389.211002 kJ/mol
# Density = 1.991085 g / cm^3
# Si number density = 19.956267 Si / 1000 Ang^3
#
#
#
# Elastic Constant Matrix: (Units=GPa)
#
#
# Indices 1 2 3 4 5 6 
#
# 1 90.1796 46.7250 30.5307 0.0000 0.0000 0.0000
# 2 46.7250 118.6733 40.9788 0.0000 0.0000 0.0000
# 3 30.5307 40.9788 92.1142 0.0000 0.0000 0.0000
# 4 0.0000 0.0000 0.0000 38.4910 0.0000 0.0000
# 5 0.0000 0.0000 0.0000 0.0000 15.9592 0.0000
# 6 0.0000 0.0000 0.0000 0.0000 0.0000 9.5122
#
#
#
# Elastic Compliance Matrix: (Units=1/GPa)
#
#
# Indices 1 2 3 4 5 6 
#
# 1 0.014467 -0.004774 -0.002671 0.000000 0.000000 0.000000
# 2 -0.004774 0.011531 -0.003548 0.000000 0.000000 0.000000
# 3 -0.002671 -0.003548 0.013320 0.000000 0.000000 0.000000
# 4 0.000000 0.000000 0.000000 0.025980 0.000000 0.000000
# 5 0.000000 0.000000 0.000000 0.000000 0.062660 0.000000
# 6 0.000000 0.000000 0.000000 0.000000 0.000000 0.105129
#
#
# Mechanical properties :
#
#
# Convention : Reuss Voigt Hill
#
# Bulk Modulus (GPa) = 57.69518 59.71515 58.70517
# Shear Modulus (GPa) = 19.16824 24.97465 22.07144
#
# Velocity S-wave (km/s) = 3.10258 3.54145 3.32925
# Velocity P-wave (km/s) = 6.46593 6.83450 6.65277
#
# Compressibility (1/GPa) = 0.01733247
#
# Stress axis : x y z
#
# Youngs Moduli (GPa) = 69.12436 86.72285 75.07665
#
# Poissons Ratio (x) = 0.41397 0.20055
# Poissons Ratio (y) = 0.32997 0.26634
# Poissons Ratio (z) = 0.18465 0.30766
#
# Static dielectric constant tensor:
#      x y z
#    x 3.120430 0.000000 0.000000 
#    y 0.000000 3.915800 0.000000 
#    z 0.000000 0.000000 3.910420 
# 
# 
# High freq. dielectric constant tensor:
#      x y z
#    x 1.732220 0.000000 0.000000 
#    y 0.000000 1.790010 0.000000 
#    z 0.000000 0.000000 1.789350 
# 
# From -- ./inp_files/12616.got.cif
#   From: 2010.03.12/outbox.cif.g09.slc.cpg/sg67_7_cif.got.tgz:12616.got - 2010.04.10 22:41:39.
