data_PCOD8281467
_publ_section_title
;
Structure prediction by ZEFSAII (Michael W. Deem and Ramdas Pophale) SiO2 
 PCOD8281467
Probable space group: C M M A
;
_chemical_formula_sum "Si O2"
_cell_formula_units_Z 96
_cell_length_a 14.142297
_cell_length_b 22.530893
_cell_length_c 15.658716
_cell_angle_alpha 90.000000
_cell_angle_beta 90.000000
_cell_angle_gamma 90.000000
_cell_volume 4989.471038
_symmetry_space_group_name_H-M "C M M A"
_symmetry_group_IT_number 67
_symmetry_cell_setting 'orthorhombic'
loop_
_space_group_symop_operation_xyz
x,y,z
-x,1/2-y,z
x,-y,-z
-x,1/2+y,-z
-x,-y,-z
x,1/2+y,-z
-x,y,z
x,1/2-y,z
1/2+x,1/2+y,z
1/2-x,-y,z
1/2+x,1/2-y,-z
1/2-x,y,-z
1/2-x,1/2-y,-z
1/2+x,y,-z
1/2-x,1/2+y,z
1/2+x,-y,z
loop_
_atom_site_type_symbol
_atom_site_label
_atom_site_fract_x
_atom_site_fract_y
_atom_site_fract_z
Si Si1 0.892348 0.250000 0.292168
Si Si2 0.713220 0.860344 0.214860
Si Si3 0.232329 0.931139 0.625683
Si Si4 0.639040 0.750000 0.488070
Si Si5 0.111270 0.182231 0.060294
Si Si6 0.605509 0.180551 0.132861
Si Si7 0.394308 0.119346 0.475268
O O1 0.835083 0.192905 0.264480
O O2 0.897196 0.250000 0.392576
O O3 0.000000 0.250000 0.254792
O O4 0.703007 0.917924 0.275827
O O5 0.660737 0.865427 0.123223
O O6 0.824596 0.850652 0.199090
O O7 0.332032 0.899671 0.605782
O O8 0.152219 0.905673 0.562440
O O9 0.250000 0.000000 0.610985
O O10 0.750000 0.750000 0.500000
O O11 0.598351 0.690524 0.529872
O O12 0.140337 0.250000 0.087041
O O13 0.000000 0.174577 0.067308
O O14 0.143273 0.169405 0.963516
O O15 0.500000 0.154127 0.144964
O O16 0.603662 0.250000 0.151224
O O17 0.500000 0.092821 0.468018
#
# Coordination Sequence:
#
# PCOD8281467 Si02
#       7
#     8  16  16   8  16  16  16
#     4  12  22  32  52  89 123 141 176 231 289 350
#     4  12  20  33  56  80 114 152 181 226 293 332
#     4  11  26  42  56  81 112 148 204 246 272 323
#     4  12  20  38  60  92 120 144 171 223 293 360
#     4   9  17  30  52  84 117 144 179 224 279 349
#     4   9  18  32  51  81 117 150 182 219 273 350
#     4  11  22  41  66  85 112 149 185 231 289 343
#
# _framework density 19.240517000000001
#
# number of rings (size 3 to 8) (size 9 to 14) (size 15 to 20)
#    0.000    1.333    5.000    3.750    0.000    4.000 
#    0.000    0.000    0.000    2.000    0.000    2.333 
#    0.000    0.000    0.000    0.000    0.000    0.000 
#
# Total GULP energy -595015.178173 kJ/mol
# GULP energy per Si atom -12396.149545 kJ/mol
# Density = 1.919672 g / cm^3
# Si number density = 19.240517 Si / 1000 Ang^3
#
#
#
# Elastic Constant Matrix: (Units=GPa)
#
#
# Indices 1 2 3 4 5 6 
#
# 1 104.1292 16.4033 24.4448 0.0000 0.0000 0.0000
# 2 16.4033 82.8716 23.4731 0.0000 0.0000 0.0000
# 3 24.4448 23.4731 67.3581 0.0000 0.0000 0.0000
# 4 0.0000 0.0000 0.0000 15.6857 0.0000 0.0000
# 5 0.0000 0.0000 0.0000 0.0000 18.6308 0.0000
# 6 0.0000 0.0000 0.0000 0.0000 0.0000 4.3167
#
#
#
# Elastic Compliance Matrix: (Units=1/GPa)
#
#
# Indices 1 2 3 4 5 6 
#
# 1 0.010590 -0.001118 -0.003454 0.000000 0.000000 0.000000
# 2 -0.001118 0.013506 -0.004301 0.000000 0.000000 0.000000
# 3 -0.003454 -0.004301 0.017598 0.000000 0.000000 0.000000
# 4 0.000000 0.000000 0.000000 0.063752 0.000000 0.000000
# 5 0.000000 0.000000 0.000000 0.000000 0.053674 0.000000
# 6 0.000000 0.000000 0.000000 0.000000 0.000000 0.231658
#
#
# Mechanical properties :
#
#
# Convention : Reuss Voigt Hill
#
# Bulk Modulus (GPa) = 41.75443 42.55571 42.15507
# Shear Modulus (GPa) = 12.00457 20.39583 16.20020
#
# Velocity S-wave (km/s) = 2.50055 3.25937 2.90484
# Velocity P-wave (km/s) = 5.48502 6.02747 5.76263
#
# Compressibility (1/GPa) = 0.02394955
#
# Stress axis : x y z
#
# Youngs Moduli (GPa) = 94.42562 74.03903 56.82386
#
# Poissons Ratio (x) = 0.08277 0.19625
# Poissons Ratio (y) = 0.10556 0.24440
# Poissons Ratio (z) = 0.32612 0.31844
#
# Static dielectric constant tensor:
#      x y z
#    x 3.745810 0.000000 0.000000 
#    y 0.000000 3.218030 0.000000 
#    z 0.000000 0.000000 3.733130 
# 
# 
# High freq. dielectric constant tensor:
#      x y z
#    x 1.766790 0.000000 0.000000 
#    y 0.000000 1.694110 0.000000 
#    z 0.000000 0.000000 1.752080 
# 
# From -- ./inp_files/27257.got.cif
#   From: 2010.03.12/outbox.cif.g09.slc.cpg/sg67_14_cif.got.tgz:27257.got - 2010.04.10 22:41:39.
