data_PCOD8281977
_publ_section_title
;
Structure prediction by ZEFSAII (Michael W. Deem and Ramdas Pophale) SiO2 
 PCOD8281977
Probable space group: C C C A
;
_chemical_formula_sum "Si O2"
_cell_formula_units_Z 84
_cell_length_a 9.037243
_cell_length_b 19.630630
_cell_length_c 25.082611
_cell_angle_alpha 90.000000
_cell_angle_beta 90.000000
_cell_angle_gamma 90.000000
_cell_volume 4449.825090
_symmetry_space_group_name_H-M "C C C A"
_symmetry_group_IT_number 68
_space_group.IT_coordinate_system_code '2'
_symmetry_cell_setting 'orthorhombic'
loop_
_space_group_symop_operation_xyz
x,y,z
-x,1/2-y,z
x,1/2-y,1/2-z
-x,y,1/2-z
-x,-y,-z
x,1/2+y,-z
-x,1/2+y,1/2+z
x,-y,1/2+z
1/2+x,1/2+y,z
1/2-x,-y,z
1/2+x,-y,1/2-z
1/2-x,1/2+y,1/2-z
1/2-x,1/2-y,-z
1/2+x,y,-z
1/2-x,y,1/2+z
1/2+x,1/2-y,1/2+z
loop_
_atom_site_type_symbol
_atom_site_label
_atom_site_fract_x
_atom_site_fract_y
_atom_site_fract_z
Si Si1 0.000000 0.250000 0.750000
Si Si2 0.341247 0.664816 0.957930
Si Si3 0.877029 0.135716 0.673280
Si Si4 0.320174 0.181928 0.441552
Si Si5 0.809729 0.076374 0.857512
Si Si6 0.826568 0.070699 0.256058
O O1 0.091039 0.298289 0.709824
O O2 0.515985 0.666730 0.961178
O O3 0.277914 0.738686 0.942570
O O4 0.282119 0.613778 0.913099
O O5 0.284704 0.642118 0.016581
O O6 0.799885 0.157361 0.618519
O O7 0.746678 0.095552 0.702049
O O8 0.018156 0.086537 0.661811
O O9 0.714120 0.113193 0.809942
O O10 0.750000 0.000000 0.867818
O O11 0.000000 0.064305 0.250000
O O12 0.750000 0.000000 0.271044
#
# Coordination Sequence:
#
# PCOD8281977 Si02
#       6
#     4  16  16  16  16  16
#     4  12  20  36  66  80 116 156 198 238 294 356
#     4   9  18  35  54  79 107 153 188 237 285 343
#     4  11  21  37  60  88 111 157 197 240 293 357
#     4   9  19  34  58  79 113 145 199 235 289 345
#     4  10  19  36  58  81 111 151 197 237 289 352
#     4  11  22  37  57  84 116 152 192 240 295 352
#
# _framework density 18.877147000000001
#
# number of rings (size 3 to 8) (size 9 to 14) (size 15 to 20)
#    0.000    1.905    1.905    4.571    0.000    1.524 
#    0.000    5.238    0.000    0.000    0.000    0.000 
#    0.000    0.000    0.000    0.000    0.000    0.000 
#
# Total GULP energy -520313.837180 kJ/mol
# GULP energy per Si atom -12388.424695 kJ/mol
# Density = 1.883418 g / cm^3
# Si number density = 18.877147 Si / 1000 Ang^3
#
#
#
# Elastic Constant Matrix: (Units=GPa)
#
#
# Indices 1 2 3 4 5 6 
#
# 1 91.5657 42.0354 68.8023 0.0000 0.0000 0.0000
# 2 42.0354 74.7926 59.6044 0.0000 0.0000 0.0000
# 3 68.8023 59.6044 203.0286 0.0000 0.0000 0.0000
# 4 0.0000 0.0000 0.0000 28.6251 0.0000 0.0000
# 5 0.0000 0.0000 0.0000 0.0000 41.3590 0.0000
# 6 0.0000 0.0000 0.0000 0.0000 0.0000 22.3170
#
#
#
# Elastic Compliance Matrix: (Units=1/GPa)
#
#
# Indices 1 2 3 4 5 6 
#
# 1 0.016687 -0.006360 -0.003788 0.000000 0.000000 0.000000
# 2 -0.006360 0.019878 -0.003680 0.000000 0.000000 0.000000
# 3 -0.003788 -0.003680 0.007289 0.000000 0.000000 0.000000
# 4 0.000000 0.000000 0.000000 0.034934 0.000000 0.000000
# 5 0.000000 0.000000 0.000000 0.000000 0.024179 0.000000
# 6 0.000000 0.000000 0.000000 0.000000 0.000000 0.044809
#
#
# Mechanical properties :
#
#
# Convention : Reuss Voigt Hill
#
# Bulk Modulus (GPa) = 61.73588 78.91903 70.32746
# Shear Modulus (GPa) = 27.65008 31.72321 29.68664
#
# Velocity S-wave (km/s) = 3.83134 4.10385 3.96993
# Velocity P-wave (km/s) = 7.23514 8.02202 7.63872
#
# Compressibility (1/GPa) = 0.01619804
#
# Stress axis : x y z
#
# Youngs Moduli (GPa) = 59.92733 50.30749 137.18407
#
# Poissons Ratio (x) = 0.31995 0.51962
# Poissons Ratio (y) = 0.38113 0.50489
# Poissons Ratio (z) = 0.22699 0.18515
#
# Static dielectric constant tensor:
#      x y z
#    x 3.344720 0.000000 0.000000 
#    y 0.000000 7.615550 0.000000 
#    z 0.000000 0.000000 3.893620 
# 
# 
# High freq. dielectric constant tensor:
#      x y z
#    x 1.719680 0.000000 0.000000 
#    y 0.000000 1.711070 0.000000 
#    z 0.000000 0.000000 1.763260 
# 
# From -- ./inp_files/43069.got.cif
#   From: 2010.03.12/outbox.cif.g09.slc.cpg/sg68_22_cif.got.tgz:43069.got - 2010.04.10 23:14:56.
