data_PCOD8281214
_publ_section_title
;
Structure prediction by ZEFSAII (Michael W. Deem and Ramdas Pophale) SiO2 
 PCOD8281214
Probable space group: C M M A
;
_chemical_formula_sum "Si O2"
_cell_formula_units_Z 112
_cell_length_a 28.579376
_cell_length_b 15.075061
_cell_length_c 11.970632
_cell_angle_alpha 90.000000
_cell_angle_beta 90.000000
_cell_angle_gamma 90.000000
_cell_volume 5157.377252
_symmetry_space_group_name_H-M "C M M A"
_symmetry_group_IT_number 67
_symmetry_cell_setting 'orthorhombic'
loop_
_space_group_symop_operation_xyz
x,y,z
-x,1/2-y,z
x,-y,-z
-x,1/2+y,-z
-x,-y,-z
x,1/2+y,-z
-x,y,z
x,1/2-y,z
1/2+x,1/2+y,z
1/2-x,-y,z
1/2+x,1/2-y,-z
1/2-x,y,-z
1/2-x,1/2-y,-z
1/2+x,y,-z
1/2-x,1/2+y,z
1/2+x,-y,z
loop_
_atom_site_type_symbol
_atom_site_label
_atom_site_fract_x
_atom_site_fract_y
_atom_site_fract_z
Si Si1 0.700667 0.398491 0.463524
Si Si2 0.630209 0.350778 0.641750
Si Si3 0.793255 0.355433 0.793154
Si Si4 0.052993 0.991019 0.631436
Si Si5 0.191147 0.649365 0.837599
Si Si6 0.368539 0.594781 0.955721
Si Si7 0.053859 0.150118 0.794710
O O1 0.699716 0.500000 0.500000
O O2 0.750000 0.354236 0.500000
O O3 0.655308 0.353922 0.520945
O O4 0.697844 0.383173 0.332948
O O5 0.615981 0.250000 0.668913
O O6 0.583674 0.406740 0.661839
O O7 0.665662 0.393889 0.731611
O O8 0.801659 0.250000 0.811235
O O9 0.743708 0.389918 0.844453
O O10 0.831455 0.414135 0.856620
O O11 0.000000 0.968521 0.664356
O O12 0.059017 0.000000 0.500000
O O13 0.068934 0.080228 0.697807
O O14 0.200200 0.750000 0.804286
O O15 0.158738 0.646806 0.946876
O O16 0.415088 0.641463 0.907482
O O17 0.384579 0.500000 0.000000
O O18 0.060750 0.250000 0.746642
O O19 0.000000 0.134722 0.829639
#
# Coordination Sequence:
#
# PCOD8281214 Si02
#       7
#    16  16  16  16  16  16  16
#     4  11  24  39  63  94 136 178 232 281 335 401
#     4  11  23  40  65  95 135 181 225 276 339 409
#     4  11  24  42  64  92 131 179 229 274 330 405
#     4  10  23  43  66  96 135 173 219 283 347 405
#     4  10  22  41  61  88 130 173 219 271 326 390
#     4  12  26  40  65  95 132 170 220 277 338 403
#     4  10  23  46  74 102 133 176 232 288 347 419
#
# _framework density 21.716463999999998
#
# number of rings (size 3 to 8) (size 9 to 14) (size 15 to 20)
#    0.000    1.286    1.429    3.429    6.000    4.000 
#    0.000    2.143    0.000    0.857    0.000    0.000 
#    0.000    0.000    0.000    0.000    0.000    0.000 
#
# Total GULP energy -694101.725785 kJ/mol
# GULP energy per Si atom -12394.673675 kJ/mol
# Density = 2.166704 g / cm^3
# Si number density = 21.716464 Si / 1000 Ang^3
#
#
#
# Elastic Constant Matrix: (Units=GPa)
#
#
# Indices 1 2 3 4 5 6 
#
# 1 131.2382 52.5242 53.4469 0.0000 0.0000 0.0000
# 2 52.5242 105.9945 26.2357 0.0000 0.0000 0.0000
# 3 53.4469 26.2357 129.1971 0.0000 0.0000 0.0000
# 4 0.0000 0.0000 0.0000 33.9152 0.0000 0.0000
# 5 0.0000 0.0000 0.0000 0.0000 32.7254 0.0000
# 6 0.0000 0.0000 0.0000 0.0000 0.0000 19.1496
#
#
#
# Elastic Compliance Matrix: (Units=1/GPa)
#
#
# Indices 1 2 3 4 5 6 
#
# 1 0.010884 -0.004505 -0.003588 0.000000 0.000000 0.000000
# 2 -0.004505 0.011799 -0.000532 0.000000 0.000000 0.000000
# 3 -0.003588 -0.000532 0.009332 0.000000 0.000000 0.000000
# 4 0.000000 0.000000 0.000000 0.029485 0.000000 0.000000
# 5 0.000000 0.000000 0.000000 0.000000 0.030557 0.000000
# 6 0.000000 0.000000 0.000000 0.000000 0.000000 0.052220
#
#
# Mechanical properties :
#
#
# Convention : Reuss Voigt Hill
#
# Bulk Modulus (GPa) = 67.72902 70.09372 68.91137
# Shear Modulus (GPa) = 30.03906 32.77290 31.40598
#
# Velocity S-wave (km/s) = 3.72323 3.88896 3.80700
# Velocity P-wave (km/s) = 7.05257 7.24653 7.15021
#
# Compressibility (1/GPa) = 0.01476472
#
# Stress axis : x y z
#
# Youngs Moduli (GPa) = 91.87840 84.75475 107.15452
#
# Poissons Ratio (x) = 0.38185 0.38443
# Poissons Ratio (y) = 0.41395 0.05702
# Poissons Ratio (z) = 0.32963 0.04510
#
# Static dielectric constant tensor:
#      x y z
#    x 4.171580 0.000000 0.000000 
#    y 0.000000 3.911800 0.000000 
#    z 0.000000 0.000000 3.939970 
# 
# 
# High freq. dielectric constant tensor:
#      x y z
#    x 1.859990 0.000000 0.000000 
#    y 0.000000 1.852580 0.000000 
#    z 0.000000 0.000000 1.853810 
# 
# From -- ./inp_files/23813.got.cif
#   From: 2010.03.12/outbox.cif.g09.slc.cpg/sg67_12_cif.got.tgz:23813.got - 2010.04.10 22:41:39.
