data_PCOD8281685
_publ_section_title
;
Structure prediction by ZEFSAII (Michael W. Deem and Ramdas Pophale) SiO2 
 PCOD8281685
Probable space group: C C C A
;
_chemical_formula_sum "Si O2"
_cell_formula_units_Z 96
_cell_length_a 23.448358
_cell_length_b 9.212991
_cell_length_c 23.660467
_cell_angle_alpha 90.000000
_cell_angle_beta 90.000000
_cell_angle_gamma 90.000000
_cell_volume 5111.359121
_symmetry_space_group_name_H-M "C C C A"
_symmetry_group_IT_number 68
_space_group.IT_coordinate_system_code '2'
_symmetry_cell_setting 'orthorhombic'
loop_
_space_group_symop_operation_xyz
x,y,z
-x,1/2-y,z
x,1/2-y,1/2-z
-x,y,1/2-z
-x,-y,-z
x,1/2+y,-z
-x,1/2+y,1/2+z
x,-y,1/2+z
1/2+x,1/2+y,z
1/2-x,-y,z
1/2+x,-y,1/2-z
1/2-x,1/2+y,1/2-z
1/2-x,1/2-y,-z
1/2+x,y,-z
1/2-x,y,1/2+z
1/2+x,1/2-y,1/2+z
loop_
_atom_site_type_symbol
_atom_site_label
_atom_site_fract_x
_atom_site_fract_y
_atom_site_fract_z
Si Si1 0.130111 0.321519 0.867163
Si Si2 0.500000 0.250000 0.991342
Si Si3 0.371522 0.456614 0.246581
Si Si4 0.037821 0.120021 0.838481
Si Si5 0.226880 0.647010 0.163447
Si Si6 0.683666 0.250000 0.750000
Si Si7 0.953507 0.506537 0.072547
O O1 0.122531 0.352979 0.800386
O O2 0.085423 0.191358 0.880241
O O3 0.194662 0.261444 0.878890
O O4 0.111113 0.461195 0.904357
O O5 0.455925 0.344646 0.953064
O O6 0.465148 0.133008 0.027139
O O7 0.431174 0.464369 0.212462
O O8 0.319116 0.400796 0.209604
O O9 0.357070 0.617900 0.266583
O O10 0.000000 0.250000 0.812837
O O11 0.999173 0.012663 0.876133
O O12 0.250000 0.500000 0.132317
O O13 0.278724 0.726756 0.194044
#
# Coordination Sequence:
#
# PCOD8281685 Si02
#       7
#    16   8  16  16  16   8  16
#     4  10  17  30  47  77  96 141 176 205 248 329
#     4  10  20  38  52  74  98 132 162 242 276 314
#     4  10  19  27  48  70 113 135 178 199 252 300
#     4   9  17  31  47  72  95 137 168 206 241 320
#     4   9  16  28  46  69 105 143 170 210 249 295
#     4  10  18  30  42  71 105 156 164 216 242 294
#     4  10  20  34  57  73 102 128 178 214 280 322
#
# _framework density 18.781697000000001
#
# number of rings (size 3 to 8) (size 9 to 14) (size 15 to 20)
#    0.000    2.333    4.167    1.500    0.000    6.000 
#    0.000    0.000    0.000    5.000    0.000    1.167 
#    0.000    0.000    0.000    0.000    0.000    0.000 
#
# Total GULP energy -594673.635074 kJ/mol
# GULP energy per Si atom -12389.034064 kJ/mol
# Density = 1.873895 g / cm^3
# Si number density = 18.781697 Si / 1000 Ang^3
#
#
#
# Elastic Constant Matrix: (Units=GPa)
#
#
# Indices 1 2 3 4 5 6 
#
# 1 89.2255 47.4654 30.6865 0.0000 0.0000 0.0000
# 2 47.4654 100.8823 30.4551 0.0000 0.0000 0.0000
# 3 30.6865 30.4551 48.7772 0.0000 0.0000 0.0000
# 4 0.0000 0.0000 0.0000 18.1925 0.0000 0.0000
# 5 0.0000 0.0000 0.0000 0.0000 10.9404 0.0000
# 6 0.0000 0.0000 0.0000 0.0000 0.0000 31.3217
#
#
#
# Elastic Compliance Matrix: (Units=1/GPa)
#
#
# Indices 1 2 3 4 5 6 
#
# 1 0.016630 -0.005750 -0.006872 0.000000 0.000000 0.000000
# 2 -0.005750 0.014203 -0.005251 0.000000 0.000000 0.000000
# 3 -0.006872 -0.005251 0.028103 0.000000 0.000000 0.000000
# 4 0.000000 0.000000 0.000000 0.054968 0.000000 0.000000
# 5 0.000000 0.000000 0.000000 0.000000 0.091405 0.000000
# 6 0.000000 0.000000 0.000000 0.000000 0.000000 0.031927
#
#
# Mechanical properties :
#
#
# Convention : Reuss Voigt Hill
#
# Bulk Modulus (GPa) = 43.12050 50.67765 46.89908
# Shear Modulus (GPa) = 17.81200 20.77613 19.29406
#
# Velocity S-wave (km/s) = 3.08290 3.32955 3.20860
# Velocity P-wave (km/s) = 5.97336 6.46701 6.22508
#
# Compressibility (1/GPa) = 0.02319082
#
# Stress axis : x y z
#
# Youngs Moduli (GPa) = 60.13347 70.40816 35.58336
#
# Poissons Ratio (x) = 0.40483 0.24453
# Poissons Ratio (y) = 0.34575 0.18684
# Poissons Ratio (z) = 0.41324 0.36969
#
# Static dielectric constant tensor:
#      x y z
#    x 3.815970 0.000000 0.000000 
#    y 0.000000 3.787010 0.000000 
#    z 0.000000 0.000000 3.194870 
# 
# 
# High freq. dielectric constant tensor:
#      x y z
#    x 1.721490 0.000000 0.000000 
#    y 0.000000 1.727700 0.000000 
#    z 0.000000 0.000000 1.680460 
# 
# From -- ./inp_files/47218.got.cif
#   From: 2010.03.12/outbox.cif.g09.slc.cpg/sg68_24_cif.got.tgz:47218.got - 2010.04.10 23:14:56.
