data_PCOD8281074
_publ_section_title
;
Structure prediction by ZEFSAII (Michael W. Deem and Ramdas Pophale) SiO2 
 PCOD8281074
Probable space group: C M M A
;
_chemical_formula_sum "Si O2"
_cell_formula_units_Z 96
_cell_length_a 14.890293
_cell_length_b 15.737033
_cell_length_c 20.463516
_cell_angle_alpha 90.000000
_cell_angle_beta 90.000000
_cell_angle_gamma 90.000000
_cell_volume 4795.195902
_symmetry_space_group_name_H-M "C M M A"
_symmetry_group_IT_number 67
_symmetry_cell_setting 'orthorhombic'
loop_
_space_group_symop_operation_xyz
x,y,z
-x,1/2-y,z
x,-y,-z
-x,1/2+y,-z
-x,-y,-z
x,1/2+y,-z
-x,y,z
x,1/2-y,z
1/2+x,1/2+y,z
1/2-x,-y,z
1/2+x,1/2-y,-z
1/2-x,y,-z
1/2-x,1/2-y,-z
1/2+x,y,-z
1/2-x,1/2+y,z
1/2+x,-y,z
loop_
_atom_site_type_symbol
_atom_site_label
_atom_site_fract_x
_atom_site_fract_y
_atom_site_fract_z
Si Si1 0.855568 0.250000 0.926893
Si Si2 0.604085 0.350557 0.500000
Si Si3 0.899720 0.905451 0.836196
Si Si4 0.399720 0.094549 0.163804
Si Si5 0.750000 0.653785 0.254743
Si Si6 0.144432 0.250000 0.073107
Si Si7 0.250000 0.402530 0.602066
O O1 0.887485 0.335918 0.892313
O O2 0.750000 0.250000 0.928179
O O3 0.895635 0.250000 1.000000
O O4 0.500000 0.383657 0.500000
O O5 0.605114 0.250000 0.500000
O O6 0.658421 0.383219 0.562940
O O7 0.658421 0.383219 0.437060
O O8 0.837761 0.891336 0.773423
O O9 0.887485 0.835918 0.892313
O O10 0.000000 0.899102 0.808589
O O11 0.880739 1.000000 0.865318
O O12 0.500000 0.100898 0.191411
O O13 0.337761 0.108664 0.226577
O O14 0.750000 0.750000 0.229165
O O15 0.750000 0.653016 0.332757
O O16 0.250000 0.500000 0.622565
#
# Coordination Sequence:
#
# PCOD8281074 Si02
#       7
#     8  16  16  16  16   8  16
#     4  11  23  41  65  92 123 163 204 250 309 367
#     4  10  21  40  63  89 122 160 205 251 298 359
#     4  11  23  40  63  90 122 161 205 255 309 366
#     4  11  23  40  63  90 122 161 205 255 309 366
#     4  12  23  41  64  88 123 162 205 254 306 366
#     4  11  23  41  65  92 123 163 204 250 309 367
#     4  11  23  38  61  90 123 162 200 250 307 358
#
# _framework density 20.020038
#
# number of rings (size 3 to 8) (size 9 to 14) (size 15 to 20)
#    0.000    1.000    3.333    5.000    0.000    4.667 
#    0.000    3.333    0.000    0.000    0.000    0.000 
#    0.000    0.000    0.000    0.000    0.000    0.000 
#
# Total GULP energy -595199.759672 kJ/mol
# GULP energy per Si atom -12399.994993 kJ/mol
# Density = 1.997447 g / cm^3
# Si number density = 20.020038 Si / 1000 Ang^3
#
#
#
# Elastic Constant Matrix: (Units=GPa)
#
#
# Indices 1 2 3 4 5 6 
#
# 1 160.9861 46.9015 58.8051 0.0000 0.0000 0.0000
# 2 46.9015 147.9946 43.5404 0.0000 0.0000 0.0000
# 3 58.8051 43.5404 136.9428 0.0000 0.0000 0.0000
# 4 0.0000 0.0000 0.0000 23.3474 0.0000 0.0000
# 5 0.0000 0.0000 0.0000 0.0000 -7.1530 0.0000
# 6 0.0000 0.0000 0.0000 0.0000 0.0000 32.1349
#
#
#
# Elastic Compliance Matrix: (Units=1/GPa)
#
#
# Indices 1 2 3 4 5 6 
#
# 1 0.007704 -0.001620 -0.002793 0.000000 0.000000 0.000000
# 2 -0.001620 0.007795 -0.001783 0.000000 0.000000 0.000000
# 3 -0.002793 -0.001783 0.009069 0.000000 0.000000 0.000000
# 4 0.000000 0.000000 0.000000 0.042831 0.000000 0.000000
# 5 0.000000 0.000000 0.000000 0.000000 -0.139801 0.000000
# 6 0.000000 0.000000 0.000000 0.000000 0.000000 0.031119
#
#
# Mechanical properties :
#
#
# Convention : Reuss Voigt Hill
#
# Bulk Modulus (GPa) = 82.12939 82.71307 82.42123
# Shear Modulus (GPa) = -201.34432 29.44428 -85.95002
#
# Velocity S-wave (km/s) = -10.03941 3.83918 -6.55936
# Velocity P-wave (km/s) = 9.65783 7.81392 4.01350
#
# Compressibility (1/GPa) = 0.01217591
#
# Stress axis : x y z
#
# Youngs Moduli (GPa) = 129.80446 128.29036 110.27079
#
# Poissons Ratio (x) = 0.20779 0.30801
# Poissons Ratio (y) = 0.21025 0.19659
# Poissons Ratio (z) = 0.36257 0.22872
#
# Static dielectric constant tensor:
#      x y z
#    x 3.990470 0.000000 0.000000 
#    y 0.000000 3.781190 0.000000 
#    z 0.000000 0.000000 3.541340 
# 
# 
# High freq. dielectric constant tensor:
#      x y z
#    x 1.796640 0.000000 0.000000 
#    y 0.000000 1.804390 0.000000 
#    z 0.000000 0.000000 1.766100 
# 
# From -- ./inp_files/38530.got.cif
#   From: 2010.03.12/outbox.cif.g09.slc.cpg/sg67_20_cif.got.tgz:38530.got - 2010.04.10 22:41:39.
