data_PCOD8281630
_publ_section_title
;
Structure prediction by ZEFSAII (Michael W. Deem and Ramdas Pophale) SiO2 
 PCOD8281630
Probable space group: C C C A
;
_chemical_formula_sum "Si O2"
_cell_formula_units_Z 104
_cell_length_a 17.052108
_cell_length_b 25.056283
_cell_length_c 12.024657
_cell_angle_alpha 90.000000
_cell_angle_beta 90.000000
_cell_angle_gamma 90.000000
_cell_volume 5137.684336
_symmetry_space_group_name_H-M "C C C A"
_symmetry_group_IT_number 68
_space_group.IT_coordinate_system_code '2'
_symmetry_cell_setting 'orthorhombic'
loop_
_space_group_symop_operation_xyz
x,y,z
-x,1/2-y,z
x,1/2-y,1/2-z
-x,y,1/2-z
-x,-y,-z
x,1/2+y,-z
-x,1/2+y,1/2+z
x,-y,1/2+z
1/2+x,1/2+y,z
1/2-x,-y,z
1/2+x,-y,1/2-z
1/2-x,1/2+y,1/2-z
1/2-x,1/2-y,-z
1/2+x,y,-z
1/2-x,y,1/2+z
1/2+x,1/2-y,1/2+z
loop_
_atom_site_type_symbol
_atom_site_label
_atom_site_fract_x
_atom_site_fract_y
_atom_site_fract_z
Si Si1 0.380710 0.847799 0.598049
Si Si2 0.842354 0.740951 0.509510
Si Si3 0.689592 0.750000 0.250000
Si Si4 0.987106 0.559492 0.123431
Si Si5 0.235855 0.581354 0.523859
Si Si6 0.127275 0.511500 0.993395
Si Si7 0.688344 0.336966 0.328666
O O1 0.392155 0.790043 0.542038
O O2 0.453859 0.886075 0.566860
O O3 0.299080 0.872122 0.552818
O O4 0.375112 0.845258 0.731787
O O5 0.750000 0.750000 0.500000
O O6 0.863515 0.734765 0.641270
O O7 0.858960 0.688673 0.434103
O O8 0.743250 0.700163 0.281197
O O9 0.000000 0.570928 0.250000
O O10 0.070270 0.543869 0.073876
O O11 0.923306 0.511865 0.108875
O O12 0.169247 0.538080 0.557788
O O13 0.305170 0.552261 0.453313
O O14 0.272238 0.607079 0.635534
#
# Coordination Sequence:
#
# PCOD8281630 Si02
#       7
#    16  16   8  16  16  16  16
#     4  11  19  31  55  85 113 154 194 232 297 350
#     4  10  17  30  48  82 120 151 183 244 291 338
#     4  10  16  28  48  78 125 153 182 246 302 338
#     4  10  21  38  56  76 112 159 191 238 296 358
#     4  10  19  33  56  84 110 148 196 250 291 342
#     4   9  21  38  54  78 114 147 199 246 290 349
#     4  11  17  29  52  85 123 147 188 242 300 343
#
# _framework density 20.242584000000001
#
# number of rings (size 3 to 8) (size 9 to 14) (size 15 to 20)
#    0.000    1.846    6.154    0.923    0.000    1.231 
#    0.000    3.077    0.000    6.462    0.000    0.000 
#    4.615    1.538    0.000    0.000    0.000    0.000 
#
# Total GULP energy -644414.445262 kJ/mol
# GULP energy per Si atom -12392.585486 kJ/mol
# Density = 2.019651 g / cm^3
# Si number density = 20.242584 Si / 1000 Ang^3
#
#
#
# Elastic Constant Matrix: (Units=GPa)
#
#
# Indices 1 2 3 4 5 6 
#
# 1 72.6347 36.8832 20.4555 0.0000 0.0000 0.0000
# 2 36.8832 91.0750 28.0497 0.0000 0.0000 0.0000
# 3 20.4555 28.0497 114.6193 0.0000 0.0000 0.0000
# 4 0.0000 0.0000 0.0000 36.3968 0.0000 0.0000
# 5 0.0000 0.0000 0.0000 0.0000 11.8424 0.0000
# 6 0.0000 0.0000 0.0000 0.0000 0.0000 25.7834
#
#
#
# Elastic Compliance Matrix: (Units=1/GPa)
#
#
# Indices 1 2 3 4 5 6 
#
# 1 0.017569 -0.006651 -0.001508 0.000000 0.000000 0.000000
# 2 -0.006651 0.014393 -0.002335 0.000000 0.000000 0.000000
# 3 -0.001508 -0.002335 0.009565 0.000000 0.000000 0.000000
# 4 0.000000 0.000000 0.000000 0.027475 0.000000 0.000000
# 5 0.000000 0.000000 0.000000 0.000000 0.084442 0.000000
# 6 0.000000 0.000000 0.000000 0.000000 0.000000 0.038785
#
#
# Mechanical properties :
#
#
# Convention : Reuss Voigt Hill
#
# Bulk Modulus (GPa) = 48.68732 49.90065 49.29398
# Shear Modulus (GPa) = 22.72072 27.66722 25.19397
#
# Velocity S-wave (km/s) = 3.35389 3.70101 3.53172
# Velocity P-wave (km/s) = 6.25318 6.55501 6.40587
#
# Compressibility (1/GPa) = 0.02053923
#
# Stress axis : x y z
#
# Youngs Moduli (GPa) = 56.91719 69.48025 104.54644
#
# Poissons Ratio (x) = 0.46210 0.15765
# Poissons Ratio (y) = 0.37854 0.24414
# Poissons Ratio (z) = 0.08583 0.16225
#
# Static dielectric constant tensor:
#      x y z
#    x 3.523140 0.000000 0.000000 
#    y 0.000000 3.953170 0.000000 
#    z 0.000000 0.000000 4.262960 
# 
# 
# High freq. dielectric constant tensor:
#      x y z
#    x 1.761560 0.000000 0.000000 
#    y 0.000000 1.804760 0.000000 
#    z 0.000000 0.000000 1.770980 
# 
# From -- ./inp_files/14881.got.cif
#   From: 2010.03.12/outbox.cif.g09.slc.cpg/sg68_8_cif.got.tgz:14881.got - 2010.04.10 23:14:56.
