data_PCOD8281956
_publ_section_title
;
Structure prediction by ZEFSAII (Michael W. Deem and Ramdas Pophale) SiO2 
 PCOD8281956
Probable space group: C C C A
;
_chemical_formula_sum "Si O2"
_cell_formula_units_Z 96
_cell_length_a 15.758691
_cell_length_b 17.211846
_cell_length_c 19.694589
_cell_angle_alpha 90.000000
_cell_angle_beta 90.000000
_cell_angle_gamma 90.000000
_cell_volume 5341.884745
_symmetry_space_group_name_H-M "C C C A"
_symmetry_group_IT_number 68
_space_group.IT_coordinate_system_code '2'
_symmetry_cell_setting 'orthorhombic'
loop_
_space_group_symop_operation_xyz
x,y,z
-x,1/2-y,z
x,1/2-y,1/2-z
-x,y,1/2-z
-x,-y,-z
x,1/2+y,-z
-x,1/2+y,1/2+z
x,-y,1/2+z
1/2+x,1/2+y,z
1/2-x,-y,z
1/2+x,-y,1/2-z
1/2-x,1/2+y,1/2-z
1/2-x,1/2-y,-z
1/2+x,y,-z
1/2-x,y,1/2+z
1/2+x,1/2-y,1/2+z
loop_
_atom_site_type_symbol
_atom_site_label
_atom_site_fract_x
_atom_site_fract_y
_atom_site_fract_z
Si Si1 0.348637 0.314698 0.965162
Si Si2 0.441501 0.953326 0.191305
Si Si3 0.492632 0.925792 0.453611
Si Si4 0.337192 0.350504 0.484342
Si Si5 0.322949 0.184333 0.691536
Si Si6 0.309729 0.567673 0.853685
O O1 0.432939 0.365443 0.973743
O O2 0.265363 0.362840 0.991312
O O3 0.333931 0.285778 0.886670
O O4 0.358214 0.240795 0.013874
O O5 0.500000 0.981740 0.250000
O O6 0.495502 0.951663 0.123019
O O7 0.404165 0.868371 0.208309
O O8 0.372990 0.021314 0.193621
O O9 0.397565 0.890490 0.459544
O O10 0.500000 0.000000 0.500000
O O11 0.362091 0.387309 0.411919
O O12 0.315284 0.250000 0.750000
O O13 0.240118 0.129464 0.693075
O O14 0.250000 0.500000 0.887027
#
# Coordination Sequence:
#
# PCOD8281956 Si02
#       6
#    16  16  16  16  16  16
#     4   9  21  36  55  88 116 144 186 243 286 336
#     4  10  21  36  54  81 114 143 183 233 278 333
#     4  11  21  35  60  85 111 154 194 228 288 349
#     4  10  19  35  59  81 114 144 187 235 281 338
#     4   9  19  35  59  79 106 146 186 226 285 336
#     4   9  18  37  61  76 106 153 185 221 283 345
#
# _framework density 17.971184000000001
#
# number of rings (size 3 to 8) (size 9 to 14) (size 15 to 20)
#    0.000    2.333    1.667    1.500    2.333    0.333 
#    0.000    5.000    3.667    0.000    0.000    0.000 
#    0.000    0.000    0.000    0.000    0.000    0.000 
#
# Total GULP energy -594674.406177 kJ/mol
# GULP energy per Si atom -12389.050129 kJ/mol
# Density = 1.793028 g / cm^3
# Si number density = 17.971184 Si / 1000 Ang^3
#
#
#
# Elastic Constant Matrix: (Units=GPa)
#
#
# Indices 1 2 3 4 5 6 
#
# 1 97.8652 43.8077 60.3543 0.0000 0.0000 0.0000
# 2 43.8077 112.2541 67.4783 0.0000 0.0000 0.0000
# 3 60.3543 67.4783 95.8199 0.0000 0.0000 0.0000
# 4 0.0000 0.0000 0.0000 31.5894 0.0000 0.0000
# 5 0.0000 0.0000 0.0000 0.0000 22.1562 0.0000
# 6 0.0000 0.0000 0.0000 0.0000 0.0000 22.8526
#
#
#
# Elastic Compliance Matrix: (Units=1/GPa)
#
#
# Indices 1 2 3 4 5 6 
#
# 1 0.016716 -0.000337 -0.010292 0.000000 0.000000 0.000000
# 2 -0.000337 0.015455 -0.010671 0.000000 0.000000 0.000000
# 3 -0.010292 -0.010671 0.024433 0.000000 0.000000 0.000000
# 4 0.000000 0.000000 0.000000 0.031656 0.000000 0.000000
# 5 0.000000 0.000000 0.000000 0.000000 0.045134 0.000000
# 6 0.000000 0.000000 0.000000 0.000000 0.000000 0.043759
#
#
# Mechanical properties :
#
#
# Convention : Reuss Voigt Hill
#
# Bulk Modulus (GPa) = 71.40565 72.13554 71.77059
# Shear Modulus (GPa) = 22.27963 24.27291 23.27627
#
# Velocity S-wave (km/s) = 3.52482 3.67912 3.60279
# Velocity P-wave (km/s) = 7.50902 7.63378 7.57166
#
# Compressibility (1/GPa) = 0.01400449
#
# Stress axis : x y z
#
# Youngs Moduli (GPa) = 59.82333 64.70607 40.92748
#
# Poissons Ratio (x) = 0.02180 0.42121
# Poissons Ratio (y) = 0.02016 0.43674
# Poissons Ratio (z) = 0.61568 0.69049
#
# Static dielectric constant tensor:
#      x y z
#    x 3.733050 0.000000 0.000000 
#    y 0.000000 3.428210 0.000000 
#    z 0.000000 0.000000 1.477820 
# 
# 
# High freq. dielectric constant tensor:
#      x y z
#    x 1.702000 0.000000 0.000000 
#    y 0.000000 1.701340 0.000000 
#    z 0.000000 0.000000 1.671730 
# 
# From -- ./inp_files/32012.got.cif
#   From: 2010.03.12/outbox.cif.g09.slc.cpg/sg68_17_cif.got.tgz:32012.got - 2010.04.10 23:14:56.
