data_PCOD8281278
_publ_section_title
;
Structure prediction by ZEFSAII (Michael W. Deem and Ramdas Pophale) SiO2 
 PCOD8281278
Probable space group: C M M A
;
_chemical_formula_sum "Si O2"
_cell_formula_units_Z 64
_cell_length_a 19.343284
_cell_length_b 18.531492
_cell_length_c 8.247458
_cell_angle_alpha 90.000000
_cell_angle_beta 90.000000
_cell_angle_gamma 90.000000
_cell_volume 2956.383075
_symmetry_space_group_name_H-M "C M M A"
_symmetry_group_IT_number 67
_symmetry_cell_setting 'orthorhombic'
loop_
_space_group_symop_operation_xyz
x,y,z
-x,1/2-y,z
x,-y,-z
-x,1/2+y,-z
-x,-y,-z
x,1/2+y,-z
-x,y,z
x,1/2-y,z
1/2+x,1/2+y,z
1/2-x,-y,z
1/2+x,1/2-y,-z
1/2-x,y,-z
1/2-x,1/2-y,-z
1/2+x,y,-z
1/2-x,1/2+y,z
1/2+x,-y,z
loop_
_atom_site_type_symbol
_atom_site_label
_atom_site_fract_x
_atom_site_fract_y
_atom_site_fract_z
Si Si1 0.885333 0.829744 0.186434
Si Si2 0.733718 0.167219 0.684028
Si Si3 0.500000 0.958413 0.282539
Si Si4 0.635327 0.568121 0.094550
Si Si5 0.500000 0.385638 0.410940
O O1 0.906322 0.750000 0.133787
O O2 0.804788 0.835169 0.221279
O O3 0.930565 0.849409 0.343347
O O4 0.900192 0.878591 0.032946
O O5 0.703824 0.250000 0.685567
O O6 0.750000 0.142016 0.500000
O O7 0.684711 0.110288 0.777955
O O8 0.429953 0.964613 0.183464
O O9 0.500000 0.884530 0.392010
O O10 0.500000 0.030498 0.383329
O O11 0.672319 0.500000 0.000000
#
# Coordination Sequence:
#
# PCOD8281278 Si02
#       5
#    16  16   8  16   8
#     4  11  23  41  66  95 130 171 217 272 332 393
#     4  10  23  44  67  95 132 173 219 276 334 391
#     4  11  24  42  64  91 132 164 219 269 337 376
#     4  12  23  42  66  96 132 175 217 275 331 398
#     4  11  22  43  65  94 125 174 214 274 323 395
#
# _framework density 21.648074000000001
#
# number of rings (size 3 to 8) (size 9 to 14) (size 15 to 20)
#    0.000    1.000    2.500    4.500    0.000    4.000 
#    0.000    6.875    0.000    0.000    0.000    0.000 
#    0.000    0.000    0.000    0.000    0.000    0.000 
#
# Total GULP energy -396543.966171 kJ/mol
# GULP energy per Si atom -12391.998943 kJ/mol
# Density = 2.159880 g / cm^3
# Si number density = 21.648074 Si / 1000 Ang^3
#
#
#
# Elastic Constant Matrix: (Units=GPa)
#
#
# Indices 1 2 3 4 5 6 
#
# 1 88.8773 36.7032 16.0494 0.0000 0.0000 0.0000
# 2 36.7032 139.7884 51.5300 0.0000 0.0000 0.0000
# 3 16.0494 51.5300 96.8089 0.0000 0.0000 0.0000
# 4 0.0000 0.0000 0.0000 42.4248 0.0000 0.0000
# 5 0.0000 0.0000 0.0000 0.0000 30.8938 0.0000
# 6 0.0000 0.0000 0.0000 0.0000 0.0000 357.5453
#
#
#
# Elastic Compliance Matrix: (Units=1/GPa)
#
#
# Indices 1 2 3 4 5 6 
#
# 1 0.012633 -0.003166 -0.000409 0.000000 0.000000 0.000000
# 2 -0.003166 0.009694 -0.004635 0.000000 0.000000 0.000000
# 3 -0.000409 -0.004635 0.012864 0.000000 0.000000 0.000000
# 4 0.000000 0.000000 0.000000 0.023571 0.000000 0.000000
# 5 0.000000 0.000000 0.000000 0.000000 0.032369 0.000000
# 6 0.000000 0.000000 0.000000 0.000000 0.000000 0.002797
#
#
# Mechanical properties :
#
#
# Convention : Reuss Voigt Hill
#
# Bulk Modulus (GPa) = 53.27412 59.33777 56.30595
# Shear Modulus (GPa) = 42.87992 100.91890 71.89941
#
# Velocity S-wave (km/s) = 4.45542 6.83514 5.76931
# Velocity P-wave (km/s) = 7.15054 9.47428 8.39322
#
# Compressibility (1/GPa) = 0.01877084
#
# Stress axis : x y z
#
# Youngs Moduli (GPa) = 79.15888 103.16187 77.73339
#
# Poissons Ratio (x) = 0.32662 0.03180
# Poissons Ratio (y) = 0.25063 0.36028
# Poissons Ratio (z) = 0.03238 0.47814
#
# Static dielectric constant tensor:
#      x y z
#    x 3.837520 0.000000 0.000000 
#    y 0.000000 4.202470 0.000000 
#    z 0.000000 0.000000 4.276570 
# 
# 
# High freq. dielectric constant tensor:
#      x y z
#    x 1.847040 0.000000 0.000000 
#    y 0.000000 1.860740 0.000000 
#    z 0.000000 0.000000 1.862250 
# 
# From -- ./inp_files/10719.got.cif
#   From: 2010.03.12/outbox.cif.g09.slc.cpg/sg67_6_cif.got.tgz:10719.got - 2010.04.10 22:41:39.
