data_PCOD8281213
_publ_section_title
;
Structure prediction by ZEFSAII (Michael W. Deem and Ramdas Pophale) SiO2 
 PCOD8281213
Probable space group: C M M A
;
_chemical_formula_sum "Si O2"
_cell_formula_units_Z 112
_cell_length_a 13.881088
_cell_length_b 17.428644
_cell_length_c 22.630078
_cell_angle_alpha 90.000000
_cell_angle_beta 90.000000
_cell_angle_gamma 90.000000
_cell_volume 5474.861755
_symmetry_space_group_name_H-M "C M M A"
_symmetry_group_IT_number 67
_symmetry_cell_setting 'orthorhombic'
loop_
_space_group_symop_operation_xyz
x,y,z
-x,1/2-y,z
x,-y,-z
-x,1/2+y,-z
-x,-y,-z
x,1/2+y,-z
-x,y,z
x,1/2-y,z
1/2+x,1/2+y,z
1/2-x,-y,z
1/2+x,1/2-y,-z
1/2-x,y,-z
1/2-x,1/2-y,-z
1/2+x,y,-z
1/2-x,1/2+y,z
1/2+x,-y,z
loop_
_atom_site_type_symbol
_atom_site_label
_atom_site_fract_x
_atom_site_fract_y
_atom_site_fract_z
Si Si1 0.789895 0.659646 0.364358
Si Si2 0.385725 0.335647 0.040253
Si Si3 0.892453 0.067105 0.333481
Si Si4 0.611676 0.921909 0.738697
Si Si5 0.894731 0.339916 0.090231
Si Si6 0.608940 0.045073 0.442993
Si Si7 0.777816 0.586479 0.142982
O O1 0.790389 0.750000 0.376836
O O2 0.684080 0.635184 0.340868
O O3 0.866888 0.637346 0.314205
O O4 0.821003 0.615903 0.425001
O O5 0.500000 0.334374 0.041145
O O6 0.345259 0.250000 0.053463
O O7 0.348978 0.392835 0.089907
O O8 0.353058 0.363255 0.974625
O O9 0.000000 0.101531 0.323446
O O10 0.863063 0.010015 0.279642
O O11 0.891409 0.016241 0.391425
O O12 0.500000 0.915045 0.754485
O O13 0.672658 0.896292 0.794899
O O14 0.907712 0.250000 0.092340
O O15 0.821067 0.365566 0.140799
O O16 0.000000 0.377957 0.101723
O O17 0.500000 0.075857 0.454710
O O18 0.649547 0.000000 0.500000
O O19 0.750000 0.500000 0.134219
#
# Coordination Sequence:
#
# PCOD8281213 Si02
#       7
#    16  16  16  16  16  16  16
#     4  11  22  36  59  91 122 150 187 243 300 339
#     4   9  19  37  58  78 105 145 189 231 282 347
#     4   9  19  38  60  80 111 158 199 226 270 342
#     4  10  22  41  61  79 107 150 195 236 283 348
#     4   9  20  39  58  76 106 150 192 228 278 351
#     4   9  18  35  60  86 115 157 201 235 273 331
#     4  12  23  34  54  85 114 140 180 237 293 342
#
# _framework density 20.457138
#
# number of rings (size 3 to 8) (size 9 to 14) (size 15 to 20)
#    0.000    2.143    0.000    6.000    0.000    7.143 
#    0.000    3.571    0.000    2.571    0.000    0.000 
#    0.000    0.000    0.000    0.000    0.000    0.000 
#
# Total GULP energy -694294.784953 kJ/mol
# GULP energy per Si atom -12398.121160 kJ/mol
# Density = 2.041058 g / cm^3
# Si number density = 20.457138 Si / 1000 Ang^3
#
#
#
# Elastic Constant Matrix: (Units=GPa)
#
#
# Indices 1 2 3 4 5 6 
#
# 1 102.9311 45.9386 56.9480 0.0000 0.0000 0.0000
# 2 45.9386 83.5057 44.0205 0.0000 0.0000 0.0000
# 3 56.9480 44.0205 118.0384 0.0000 0.0000 0.0000
# 4 0.0000 0.0000 0.0000 26.7969 0.0000 0.0000
# 5 0.0000 0.0000 0.0000 0.0000 36.7380 0.0000
# 6 0.0000 0.0000 0.0000 0.0000 0.0000 26.1759
#
#
#
# Elastic Compliance Matrix: (Units=1/GPa)
#
#
# Indices 1 2 3 4 5 6 
#
# 1 0.015069 -0.005548 -0.005201 0.000000 0.000000 0.000000
# 2 -0.005548 0.016948 -0.003644 0.000000 0.000000 0.000000
# 3 -0.005201 -0.003644 0.012340 0.000000 0.000000 0.000000
# 4 0.000000 0.000000 0.000000 0.037318 0.000000 0.000000
# 5 0.000000 0.000000 0.000000 0.000000 0.027220 0.000000
# 6 0.000000 0.000000 0.000000 0.000000 0.000000 0.038203
#
#
# Mechanical properties :
#
#
# Convention : Reuss Voigt Hill
#
# Bulk Modulus (GPa) = 64.22090 66.47662 65.34876
# Shear Modulus (GPa) = 27.61303 28.44669 28.02986
#
# Velocity S-wave (km/s) = 3.67795 3.73305 3.70560
# Velocity P-wave (km/s) = 7.03544 7.15172 7.09382
#
# Compressibility (1/GPa) = 0.01557126
#
# Stress axis : x y z
#
# Youngs Moduli (GPa) = 66.36196 59.00315 81.03738
#
# Poissons Ratio (x) = 0.32735 0.42147
# Poissons Ratio (y) = 0.36818 0.29529
# Poissons Ratio (z) = 0.34515 0.21500
#
# Static dielectric constant tensor:
#      x y z
#    x 3.837330 0.000000 0.000000 
#    y 0.000000 3.424410 0.000000 
#    z 0.000000 0.000000 3.827270 
# 
# 
# High freq. dielectric constant tensor:
#      x y z
#    x 1.823450 0.000000 0.000000 
#    y 0.000000 1.765710 0.000000 
#    z 0.000000 0.000000 1.794030 
# 
# From -- ./inp_files/41950.got.cif
#   From: 2010.03.12/outbox.cif.g09.slc.cpg/sg67_21_cif.got.tgz:41950.got - 2010.04.10 22:41:39.
