data_PCOD8281628
_publ_section_title
;
Structure prediction by ZEFSAII (Michael W. Deem and Ramdas Pophale) SiO2 
 PCOD8281628
Probable space group: C C C A
;
_chemical_formula_sum "Si O2"
_cell_formula_units_Z 112
_cell_length_a 19.450084
_cell_length_b 16.631648
_cell_length_c 18.408878
_cell_angle_alpha 90.000000
_cell_angle_beta 90.000000
_cell_angle_gamma 90.000000
_cell_volume 5955.031809
_symmetry_space_group_name_H-M "C C C A"
_symmetry_group_IT_number 68
_space_group.IT_coordinate_system_code '2'
_symmetry_cell_setting 'orthorhombic'
loop_
_space_group_symop_operation_xyz
x,y,z
-x,1/2-y,z
x,1/2-y,1/2-z
-x,y,1/2-z
-x,-y,-z
x,1/2+y,-z
-x,1/2+y,1/2+z
x,-y,1/2+z
1/2+x,1/2+y,z
1/2-x,-y,z
1/2+x,-y,1/2-z
1/2-x,1/2+y,1/2-z
1/2-x,1/2-y,-z
1/2+x,y,-z
1/2-x,y,1/2+z
1/2+x,1/2-y,1/2+z
loop_
_atom_site_type_symbol
_atom_site_label
_atom_site_fract_x
_atom_site_fract_y
_atom_site_fract_z
Si Si1 0.330022 0.376268 0.050249
Si Si2 0.185351 0.056369 0.107468
Si Si3 0.322078 0.156518 0.922132
Si Si4 0.938655 0.950297 0.410845
Si Si5 0.360154 0.297366 0.418651
Si Si6 0.274246 0.791078 0.172436
Si Si7 0.579432 0.480990 0.920626
O O1 0.255649 0.374980 0.088575
O O2 0.376475 0.296096 0.064848
O O3 0.366942 0.448265 0.090537
O O4 0.326747 0.390428 0.964285
O O5 0.195871 0.118130 0.174479
O O6 0.250000 0.000000 0.093173
O O7 0.121371 0.000367 0.127912
O O8 0.325321 0.240647 0.879949
O O9 0.382151 0.098640 0.889390
O O10 0.328778 0.164834 0.008445
O O11 0.925607 0.853993 0.395537
O O12 0.938012 0.963983 0.496368
O O13 0.010084 0.987939 0.379945
O O14 0.303297 0.299148 0.356103
O O15 0.273520 0.750000 0.250000
#
# Coordination Sequence:
#
# PCOD8281628 Si02
#       7
#    16  16  16  16  16  16  16
#     4  10  16  27  53  81 107 137 179 215 277 324
#     4  11  17  32  54  76 103 148 180 214 276 336
#     4  10  17  33  53  76 111 141 176 221 279 320
#     4   9  18  30  50  78 112 139 182 217 267 328
#     4  10  17  32  54  80 109 142 171 226 281 326
#     4  11  21  33  52  85 107 131 186 237 270 317
#     4   9  18  29  47  82 111 140 175 227 259 321
#
# _framework density 18.807624000000001
#
# number of rings (size 3 to 8) (size 9 to 14) (size 15 to 20)
#    0.000    2.000    4.286    3.000    0.000    0.571 
#    0.000    3.571    0.000    1.714    0.000    4.000 
#    0.000    0.000    0.000    0.000    0.000    0.000 
#
# Total GULP energy -693740.064502 kJ/mol
# GULP energy per Si atom -12388.215438 kJ/mol
# Density = 1.876482 g / cm^3
# Si number density = 18.807624 Si / 1000 Ang^3
#
#
#
# Elastic Constant Matrix: (Units=GPa)
#
#
# Indices 1 2 3 4 5 6 
#
# 1 78.6840 29.4642 5.8998 0.0000 0.0000 0.0000
# 2 29.4642 112.7050 13.8211 0.0000 0.0000 0.0000
# 3 5.8998 13.8211 41.3351 0.0000 0.0000 0.0000
# 4 0.0000 0.0000 0.0000 18.8950 0.0000 0.0000
# 5 0.0000 0.0000 0.0000 0.0000 4.4375 0.0000
# 6 0.0000 0.0000 0.0000 0.0000 0.0000 29.1197
#
#
#
# Elastic Compliance Matrix: (Units=1/GPa)
#
#
# Indices 1 2 3 4 5 6 
#
# 1 0.014114 -0.003590 -0.000814 0.000000 0.000000 0.000000
# 2 -0.003590 0.010165 -0.002887 0.000000 0.000000 0.000000
# 3 -0.000814 -0.002887 0.025274 0.000000 0.000000 0.000000
# 4 0.000000 0.000000 0.000000 0.052924 0.000000 0.000000
# 5 0.000000 0.000000 0.000000 0.000000 0.225351 0.000000
# 6 0.000000 0.000000 0.000000 0.000000 0.000000 0.034341
#
#
# Mechanical properties :
#
#
# Convention : Reuss Voigt Hill
#
# Bulk Modulus (GPa) = 28.59422 36.78823 32.69123
# Shear Modulus (GPa) = 12.87304 22.72637 17.79971
#
# Velocity S-wave (km/s) = 2.61905 3.47992 3.07971
# Velocity P-wave (km/s) = 4.93786 5.97906 5.48323
#
# Compressibility (1/GPa) = 0.03497210
#
# Stress axis : x y z
#
# Youngs Moduli (GPa) = 70.84931 98.37448 39.56653
#
# Poissons Ratio (x) = 0.35317 0.03221
# Poissons Ratio (y) = 0.25435 0.11421
# Poissons Ratio (z) = 0.05768 0.28396
#
# Static dielectric constant tensor:
#      x y z
#    x 3.571070 0.000000 0.000000 
#    y 0.000000 3.975970 0.000000 
#    z 0.000000 0.000000 2.849920 
# 
# 
# High freq. dielectric constant tensor:
#      x y z
#    x 1.715920 0.000000 0.000000 
#    y 0.000000 1.755250 0.000000 
#    z 0.000000 0.000000 1.661270 
# 
# From -- ./inp_files/39726.got.cif
#   From: 2010.03.12/outbox.cif.g09.slc.cpg/sg68_20_cif.got.tgz:39726.got - 2010.04.10 23:14:56.
