data_PCOD8281865
_publ_section_title
;
Structure prediction by ZEFSAII (Michael W. Deem and Ramdas Pophale) SiO2 
 PCOD8281865
Probable space group: C C C A
;
_chemical_formula_sum "Si O2"
_cell_formula_units_Z 128
_cell_length_a 19.359440
_cell_length_b 18.345175
_cell_length_c 19.867458
_cell_angle_alpha 90.000000
_cell_angle_beta 90.000000
_cell_angle_gamma 90.000000
_cell_volume 7055.973696
_symmetry_space_group_name_H-M "C C C A"
_symmetry_group_IT_number 68
_space_group.IT_coordinate_system_code '2'
_symmetry_cell_setting 'orthorhombic'
loop_
_space_group_symop_operation_xyz
x,y,z
-x,1/2-y,z
x,1/2-y,1/2-z
-x,y,1/2-z
-x,-y,-z
x,1/2+y,-z
-x,1/2+y,1/2+z
x,-y,1/2+z
1/2+x,1/2+y,z
1/2-x,-y,z
1/2+x,-y,1/2-z
1/2-x,1/2+y,1/2-z
1/2-x,1/2-y,-z
1/2+x,y,-z
1/2-x,y,1/2+z
1/2+x,1/2-y,1/2+z
loop_
_atom_site_type_symbol
_atom_site_label
_atom_site_fract_x
_atom_site_fract_y
_atom_site_fract_z
Si Si1 0.296159 0.843898 0.864094
Si Si2 0.700248 0.178998 0.361682
Si Si3 0.573234 0.939073 0.610331
Si Si4 0.742698 0.617510 0.504158
Si Si5 0.639060 0.992626 0.480585
Si Si6 0.722731 0.581047 0.242189
Si Si7 0.925255 0.532212 0.762185
Si Si8 0.577691 0.426856 0.141641
O O1 0.302462 0.761945 0.836231
O O2 0.371871 0.876518 0.873732
O O3 0.253962 0.893980 0.812905
O O4 0.255984 0.841605 0.934518
O O5 0.723483 0.176651 0.439407
O O6 0.754426 0.134319 0.317078
O O7 0.624191 0.144955 0.355374
O O8 0.581750 0.006947 0.660876
O O9 0.498112 0.902576 0.617444
O O10 0.581494 0.970518 0.535125
O O11 0.679806 0.562320 0.491141
O O12 0.809455 0.574441 0.530866
O O13 0.605661 0.010924 0.408822
O O14 0.750000 0.500000 0.225593
O O15 0.639238 0.584522 0.245389
O O16 0.923690 0.460094 0.716045
O O17 0.000000 0.571954 0.750000
#
# Coordination Sequence:
#
# PCOD8281865 Si02
#       8
#    16  16  16  16  16  16  16  16
#     4  11  22  35  53  79 109 144 178 218 269 323
#     4  11  22  35  53  79 109 144 178 218 269 323
#     4  10  19  32  50  76 109 141 175 216 265 318
#     4   9  19  32  54  76 108 134 182 226 268 310
#     4   9  17  30  52  80 101 135 180 228 263 303
#     4  12  21  36  59  80 105 137 180 225 261 312
#     4  10  20  34  54  80 105 131 170 222 269 305
#     4  10  19  32  50  76 109 141 175 216 265 318
#
# _framework density 18.140656
#
# number of rings (size 3 to 8) (size 9 to 14) (size 15 to 20)
#    0.000    1.750    2.500    2.625    3.500    0.500 
#    0.000    0.000    0.000    5.250    0.000    0.000 
#    0.000    0.000    0.000    0.000    0.000    0.000 
#
# Total GULP energy -793701.044851 kJ/mol
# GULP energy per Si atom -12401.578826 kJ/mol
# Density = 1.809937 g / cm^3
# Si number density = 18.140656 Si / 1000 Ang^3
#
#
#
# Elastic Constant Matrix: (Units=GPa)
#
#
# Indices 1 2 3 4 5 6 
#
# 1 114.5299 20.5282 13.4751 0.0000 0.0000 0.0000
# 2 20.5282 65.1190 0.0945 0.0000 0.0000 0.0000
# 3 13.4751 0.0945 51.9787 0.0000 0.0000 0.0000
# 4 0.0000 0.0000 0.0000 19.1900 0.0000 0.0000
# 5 0.0000 0.0000 0.0000 0.0000 29.3437 0.0000
# 6 0.0000 0.0000 0.0000 0.0000 0.0000 14.7498
#
#
#
# Elastic Compliance Matrix: (Units=1/GPa)
#
#
# Indices 1 2 3 4 5 6 
#
# 1 0.009562 -0.003011 -0.002473 0.000000 0.000000 0.000000
# 2 -0.003011 0.016305 0.000751 0.000000 0.000000 0.000000
# 3 -0.002473 0.000751 0.019878 0.000000 0.000000 0.000000
# 4 0.000000 0.000000 0.000000 0.052110 0.000000 0.000000
# 5 0.000000 0.000000 0.000000 0.000000 0.034079 0.000000
# 6 0.000000 0.000000 0.000000 0.000000 0.000000 0.067797
#
#
# Mechanical properties :
#
#
# Convention : Reuss Voigt Hill
#
# Bulk Modulus (GPa) = 27.56458 33.31369 30.43913
# Shear Modulus (GPa) = 22.59467 25.82535 24.21001
#
# Velocity S-wave (km/s) = 3.53303 3.77718 3.65714
# Velocity P-wave (km/s) = 5.64544 6.11774 5.88633
#
# Compressibility (1/GPa) = 0.03627845
#
# Stress axis : x y z
#
# Youngs Moduli (GPa) = 104.58062 61.33265 50.30561
#
# Poissons Ratio (x) = 0.18466 0.12443
# Poissons Ratio (y) = 0.31487 -0.03777
# Poissons Ratio (z) = 0.25867 -0.04605
#
# Static dielectric constant tensor:
#      x y z
#    x 3.583380 0.000000 0.000000 
#    y 0.000000 3.007170 0.000000 
#    z 0.000000 0.000000 3.502700 
# 
# 
# High freq. dielectric constant tensor:
#      x y z
#    x 1.710040 0.000000 0.000000 
#    y 0.000000 1.666630 0.000000 
#    z 0.000000 0.000000 1.720300 
# 
# From -- ./inp_files/40464.got.cif
#   From: 2010.03.12/outbox.cif.g09.slc.cpg/sg68_21_cif.got.tgz:40464.got - 2010.04.10 23:14:56.
