data_PCOD8281163
_publ_section_title
;
Structure prediction by ZEFSAII (Michael W. Deem and Ramdas Pophale) SiO2 
 PCOD8281163
Probable space group: C M M A
;
_chemical_formula_sum "Si O2"
_cell_formula_units_Z 56
_cell_length_a 13.478990
_cell_length_b 9.708388
_cell_length_c 18.502141
_cell_angle_alpha 90.000000
_cell_angle_beta 90.000000
_cell_angle_gamma 90.000000
_cell_volume 2421.176568
_symmetry_space_group_name_H-M "C M M A"
_symmetry_group_IT_number 67
_symmetry_cell_setting 'orthorhombic'
loop_
_space_group_symop_operation_xyz
x,y,z
-x,1/2-y,z
x,-y,-z
-x,1/2+y,-z
-x,-y,-z
x,1/2+y,-z
-x,y,z
x,1/2-y,z
1/2+x,1/2+y,z
1/2-x,-y,z
1/2+x,1/2-y,-z
1/2-x,y,-z
1/2-x,1/2-y,-z
1/2+x,y,-z
1/2-x,1/2+y,z
1/2+x,-y,z
loop_
_atom_site_type_symbol
_atom_site_label
_atom_site_fract_x
_atom_site_fract_y
_atom_site_fract_z
Si Si1 0.617794 0.593559 0.565230
Si Si2 0.113493 0.596959 0.695405
Si Si3 0.750000 0.500000 0.816045
Si Si4 0.887921 0.096464 0.936699
O O1 0.660281 0.500000 0.500000
O O2 0.500000 0.599094 0.560071
O O3 0.660712 0.750000 0.563139
O O4 0.651426 0.518425 0.638974
O O5 0.121051 0.750000 0.660446
O O6 0.180530 0.595548 0.766776
O O7 0.000000 0.565341 0.717294
O O8 0.820543 0.406883 0.865547
O O9 0.886222 0.250000 0.968198
O O10 0.000000 0.051400 0.915985
O O11 0.845098 0.000000 0.000000
#
# Coordination Sequence:
#
# PCOD8281163 Si02
#       4
#    16  16   8  16
#     4   9  17  32  57  86 117 157 204 253 304 357
#     4  10  22  39  59  87 123 161 202 249 302 360
#     4  12  23  38  63  92 122 160 202 246 297 358
#     4  10  23  43  66  92 122 157 199 247 298 355
#
# _framework density 23.129251
#
# number of rings (size 3 to 8) (size 9 to 14) (size 15 to 20)
#    0.000    2.000    0.000    3.000    0.000    9.143 
#    0.000    6.429    0.000    3.429    0.000    0.000 
#    0.000    0.000    0.000    0.000    0.000    0.000 
#
# Total GULP energy -347202.079949 kJ/mol
# GULP energy per Si atom -12400.074284 kJ/mol
# Density = 2.307661 g / cm^3
# Si number density = 23.129251 Si / 1000 Ang^3
#
#
#
# Elastic Constant Matrix: (Units=GPa)
#
#
# Indices 1 2 3 4 5 6 
#
# 1 91.0205 40.9936 58.0361 0.0000 0.0000 0.0000
# 2 40.9936 180.4066 79.6400 0.0000 0.0000 0.0000
# 3 58.0361 79.6400 158.3270 0.0000 0.0000 0.0000
# 4 0.0000 0.0000 0.0000 38.1706 0.0000 0.0000
# 5 0.0000 0.0000 0.0000 0.0000 6.6187 0.0000
# 6 0.0000 0.0000 0.0000 0.0000 0.0000 -14.5172
#
#
#
# Elastic Compliance Matrix: (Units=1/GPa)
#
#
# Indices 1 2 3 4 5 6 
#
# 1 0.014544 -0.001223 -0.004716 0.000000 0.000000 0.000000
# 2 -0.001223 0.007228 -0.003187 0.000000 0.000000 0.000000
# 3 -0.004716 -0.003187 0.009648 0.000000 0.000000 0.000000
# 4 0.000000 0.000000 0.000000 0.026198 0.000000 0.000000
# 5 0.000000 0.000000 0.000000 0.000000 0.151087 0.000000
# 6 0.000000 0.000000 0.000000 0.000000 0.000000 -0.068884
#
#
# Mechanical properties :
#
#
# Convention : Reuss Voigt Hill
#
# Bulk Modulus (GPa) = 75.94568 87.45481 81.70024
# Shear Modulus (GPa) = 30.77599 22.79339 26.78469
#
# Velocity S-wave (km/s) = 3.65171 3.14264 3.40670
# Velocity P-wave (km/s) = 7.11945 7.14575 7.13261
#
# Compressibility (1/GPa) = 0.01316731
#
# Stress axis : x y z
#
# Youngs Moduli (GPa) = 68.75457 138.35026 103.64675
#
# Poissons Ratio (x) = 0.16920 0.48882
# Poissons Ratio (y) = 0.08408 0.33037
# Poissons Ratio (z) = 0.32426 0.44099
#
# Static dielectric constant tensor:
#      x y z
#    x 4.189150 0.000000 0.000000 
#    y 0.000000 4.127710 0.000000 
#    z 0.000000 0.000000 3.957740 
# 
# 
# High freq. dielectric constant tensor:
#      x y z
#    x 1.932360 0.000000 0.000000 
#    y 0.000000 1.911970 0.000000 
#    z 0.000000 0.000000 1.898430 
# 
# From -- ./inp_files/38211.got.cif
#   From: 2010.03.12/outbox.cif.g09.slc.cpg/sg67_20_cif.got.tgz:38211.got - 2010.04.10 22:41:39.
