data_PCOD8281530
_publ_section_title
;
Structure prediction by ZEFSAII (Michael W. Deem and Ramdas Pophale) SiO2 
 PCOD8281530
Probable space group: C M M A
;
_chemical_formula_sum "Si O2"
_cell_formula_units_Z 56
_cell_length_a 27.720109
_cell_length_b 16.023209
_cell_length_c 4.878129
_cell_angle_alpha 90.000000
_cell_angle_beta 90.000000
_cell_angle_gamma 90.000000
_cell_volume 2166.694655
_symmetry_space_group_name_H-M "C M M A"
_symmetry_group_IT_number 67
_symmetry_cell_setting 'orthorhombic'
loop_
_space_group_symop_operation_xyz
x,y,z
-x,1/2-y,z
x,-y,-z
-x,1/2+y,-z
-x,-y,-z
x,1/2+y,-z
-x,y,z
x,1/2-y,z
1/2+x,1/2+y,z
1/2-x,-y,z
1/2+x,1/2-y,-z
1/2-x,y,-z
1/2-x,1/2-y,-z
1/2+x,y,-z
1/2-x,1/2+y,z
1/2+x,-y,z
loop_
_atom_site_type_symbol
_atom_site_label
_atom_site_fract_x
_atom_site_fract_y
_atom_site_fract_z
Si Si1 0.092581 0.000000 0.000000
Si Si2 0.199449 0.654812 0.892416
Si Si3 0.140629 0.103552 0.601108
Si Si4 0.553798 0.342425 0.741672
O O1 0.061526 0.915760 0.966380
O O2 0.125634 0.011080 0.724523
O O3 0.206617 0.750000 0.795429
O O4 0.182506 0.601885 0.628095
O O5 0.250000 0.616952 0.000000
O O6 0.159164 0.651800 0.128258
O O7 0.093040 0.151334 0.498593
O O8 0.500000 0.354073 0.617810
O O9 0.558458 0.250000 0.876690
#
# Coordination Sequence:
#
# PCOD8281530 Si02
#       4
#     8  16  16  16
#     4  12  27  48  79 114 164 214 257 330 401 470
#     4  11  24  45  79 118 154 201 262 327 397 469
#     4  12  25  46  77 112 157 208 261 319 396 469
#     4  11  26  48  79 116 155 207 268 327 398 482
#
# _framework density 25.845818999999999
#
# number of rings (size 3 to 8) (size 9 to 14) (size 15 to 20)
#    0.000    0.571    2.857    4.714    0.000    8.000 
#    0.000    3.571    6.286    0.000    0.000    0.000 
#    0.000    0.000    0.000    0.000    0.000    0.000 
#
# Total GULP energy -347099.491274 kJ/mol
# GULP energy per Si atom -12396.410403 kJ/mol
# Density = 2.578699 g / cm^3
# Si number density = 25.845819 Si / 1000 Ang^3
#
#
#
# Elastic Constant Matrix: (Units=GPa)
#
#
# Indices 1 2 3 4 5 6 
#
# 1 137.3678 56.6200 45.3598 0.0000 0.0000 0.0000
# 2 56.6200 170.5021 45.6219 0.0000 0.0000 0.0000
# 3 45.3598 45.6219 162.7636 0.0000 0.0000 0.0000
# 4 0.0000 0.0000 0.0000 37.1285 0.0000 0.0000
# 5 0.0000 0.0000 0.0000 0.0000 24.0405 0.0000
# 6 0.0000 0.0000 0.0000 0.0000 0.0000 120.5496
#
#
#
# Elastic Compliance Matrix: (Units=1/GPa)
#
#
# Indices 1 2 3 4 5 6 
#
# 1 0.008889 -0.002474 -0.001784 0.000000 0.000000 0.000000
# 2 -0.002474 0.007029 -0.001281 0.000000 0.000000 0.000000
# 3 -0.001784 -0.001281 0.007000 0.000000 0.000000 0.000000
# 4 0.000000 0.000000 0.000000 0.026933 0.000000 0.000000
# 5 0.000000 0.000000 0.000000 0.000000 0.041596 0.000000
# 6 0.000000 0.000000 0.000000 0.000000 0.000000 0.008295
#
#
# Mechanical properties :
#
#
# Convention : Reuss Voigt Hill
#
# Bulk Modulus (GPa) = 84.45610 85.09298 84.77454
# Shear Modulus (GPa) = 43.56637 57.87919 50.72278
#
# Velocity S-wave (km/s) = 4.11009 4.73737 4.43483
# Velocity P-wave (km/s) = 7.43449 7.93211 7.68732
#
# Compressibility (1/GPa) = 0.01184047
#
# Stress axis : x y z
#
# Youngs Moduli (GPa) = 112.50387 142.25893 142.85911
#
# Poissons Ratio (x) = 0.35202 0.25479
# Poissons Ratio (y) = 0.27839 0.18296
# Poissons Ratio (z) = 0.20065 0.18219
#
# Static dielectric constant tensor:
#      x y z
#    x 4.893020 0.000000 0.000000 
#    y 0.000000 4.703000 0.000000 
#    z 0.000000 0.000000 4.656000 
# 
# 
# High freq. dielectric constant tensor:
#      x y z
#    x 2.037870 0.000000 0.000000 
#    y 0.000000 2.043010 0.000000 
#    z 0.000000 0.000000 2.037900 
# 
# From -- ./inp_files/4534.got.cif
#   From: 2010.03.12/outbox.cif.g09.slc.cpg/sg67_3_cif.got.tgz:4534.got - 2010.04.10 22:41:39.
