data_PCOD8281280
_publ_section_title
;
Structure prediction by ZEFSAII (Michael W. Deem and Ramdas Pophale) SiO2 
 PCOD8281280
Probable space group: C M M A
;
_chemical_formula_sum "Si O2"
_cell_formula_units_Z 96
_cell_length_a 21.673969
_cell_length_b 15.536825
_cell_length_c 13.392867
_cell_angle_alpha 90.000000
_cell_angle_beta 90.000000
_cell_angle_gamma 90.000000
_cell_volume 4509.976490
_symmetry_space_group_name_H-M "C M M A"
_symmetry_group_IT_number 67
_symmetry_cell_setting 'orthorhombic'
loop_
_space_group_symop_operation_xyz
x,y,z
-x,1/2-y,z
x,-y,-z
-x,1/2+y,-z
-x,-y,-z
x,1/2+y,-z
-x,y,z
x,1/2-y,z
1/2+x,1/2+y,z
1/2-x,-y,z
1/2+x,1/2-y,-z
1/2-x,y,-z
1/2-x,1/2-y,-z
1/2+x,y,-z
1/2-x,1/2+y,z
1/2+x,-y,z
loop_
_atom_site_type_symbol
_atom_site_label
_atom_site_fract_x
_atom_site_fract_y
_atom_site_fract_z
Si Si1 0.430909 0.076247 0.577374
Si Si2 0.252649 0.901717 0.212186
Si Si3 0.568548 0.980939 0.199973
Si Si4 0.699457 0.349698 0.580448
Si Si5 0.646110 0.154856 0.921499
Si Si6 0.126835 0.846679 0.151152
O O1 0.500000 0.121369 0.575454
O O2 0.417072 0.036855 0.685233
O O3 0.372646 0.137077 0.548322
O O4 0.431935 0.000000 0.500000
O O5 0.288572 0.899214 0.316794
O O6 0.285981 0.846611 0.126041
O O7 0.184794 0.861529 0.224437
O O8 0.250000 0.000000 0.176494
O O9 0.500000 0.954864 0.171379
O O10 0.609546 0.921766 0.130190
O O11 0.575923 0.082620 0.178570
O O12 0.710805 0.250000 0.599521
O O13 0.750000 0.383894 0.500000
O O14 0.616954 0.250000 0.900748
O O15 0.649685 0.137862 0.038671
O O16 0.100163 0.750000 0.166784
#
# Coordination Sequence:
#
# PCOD8281280 Si02
#       6
#    16  16  16  16  16  16
#     4  10  23  44  68  93 126 169 215 259 319 395
#     4  12  23  39  64  93 128 170 208 260 324 386
#     4  11  24  43  66  93 125 169 217 265 319 379
#     4  11  25  40  63  99 131 162 212 272 327 385
#     4  11  23  40  63  93 128 168 215 267 320 378
#     4  11  24  40  62  92 130 173 214 263 321 380
#
# _framework density 21.286142000000002
#
# number of rings (size 3 to 8) (size 9 to 14) (size 15 to 20)
#    0.000    1.000    3.333    2.500    4.667    4.333 
#    0.000    3.333    0.000    3.000    0.000    0.000 
#    0.000    0.000    0.000    0.000    0.000    0.000 
#
# Total GULP energy -595063.525265 kJ/mol
# GULP energy per Si atom -12397.156776 kJ/mol
# Density = 2.123769 g / cm^3
# Si number density = 21.286142 Si / 1000 Ang^3
#
#
#
# Elastic Constant Matrix: (Units=GPa)
#
#
# Indices 1 2 3 4 5 6 
#
# 1 106.2565 26.6320 36.4209 0.0000 0.0000 0.0000
# 2 26.6320 106.7686 12.8394 0.0000 0.0000 0.0000
# 3 36.4209 12.8394 58.0865 0.0000 0.0000 0.0000
# 4 0.0000 0.0000 0.0000 22.9449 0.0000 0.0000
# 5 0.0000 0.0000 0.0000 0.0000 30.8467 0.0000
# 6 0.0000 0.0000 0.0000 0.0000 0.0000 23.2830
#
#
#
# Elastic Compliance Matrix: (Units=1/GPa)
#
#
# Indices 1 2 3 4 5 6 
#
# 1 0.012485 -0.002232 -0.007335 0.000000 0.000000 0.000000
# 2 -0.002232 0.010021 -0.000815 0.000000 0.000000 0.000000
# 3 -0.007335 -0.000815 0.021995 0.000000 0.000000 0.000000
# 4 0.000000 0.000000 0.000000 0.043583 0.000000 0.000000
# 5 0.000000 0.000000 0.000000 0.000000 0.032418 0.000000
# 6 0.000000 0.000000 0.000000 0.000000 0.000000 0.042950
#
#
# Mechanical properties :
#
#
# Convention : Reuss Voigt Hill
#
# Bulk Modulus (GPa) = 42.13011 46.98847 44.55929
# Shear Modulus (GPa) = 26.02436 28.42955 27.22696
#
# Velocity S-wave (km/s) = 3.50036 3.65854 3.58032
# Velocity P-wave (km/s) = 6.01431 6.32211 6.17013
#
# Compressibility (1/GPa) = 0.02373599
#
# Stress axis : x y z
#
# Youngs Moduli (GPa) = 80.09806 99.79162 45.46518
#
# Poissons Ratio (x) = 0.22275 0.33347
# Poissons Ratio (y) = 0.17879 0.03707
# Poissons Ratio (z) = 0.58749 0.08137
#
# Static dielectric constant tensor:
#      x y z
#    x 4.107250 0.000000 0.000000 
#    y 0.000000 3.855340 0.000000 
#    z 0.000000 0.000000 4.546120 
# 
# 
# High freq. dielectric constant tensor:
#      x y z
#    x 1.837760 0.000000 0.000000 
#    y 0.000000 1.832920 0.000000 
#    z 0.000000 0.000000 1.836600 
# 
# From -- ./inp_files/29252.got.cif
#   From: 2010.03.12/outbox.cif.g09.slc.cpg/sg67_15_cif.got.tgz:29252.got - 2010.04.10 22:41:39.
