data_PCOD8281420
_publ_section_title
;
Structure prediction by ZEFSAII (Michael W. Deem and Ramdas Pophale) SiO2 
 PCOD8281420
Probable space group: C M M A
;
_chemical_formula_sum "Si O2"
_cell_formula_units_Z 80
_cell_length_a 8.849570
_cell_length_b 18.948886
_cell_length_c 25.220640
_cell_angle_alpha 90.000000
_cell_angle_beta 90.000000
_cell_angle_gamma 90.000000
_cell_volume 4229.236337
_symmetry_space_group_name_H-M "C M M A"
_symmetry_group_IT_number 67
_symmetry_cell_setting 'orthorhombic'
loop_
_space_group_symop_operation_xyz
x,y,z
-x,1/2-y,z
x,-y,-z
-x,1/2+y,-z
-x,-y,-z
x,1/2+y,-z
-x,y,z
x,1/2-y,z
1/2+x,1/2+y,z
1/2-x,-y,z
1/2+x,1/2-y,-z
1/2-x,y,-z
1/2-x,1/2-y,-z
1/2+x,y,-z
1/2-x,1/2+y,z
1/2+x,-y,z
loop_
_atom_site_type_symbol
_atom_site_label
_atom_site_fract_x
_atom_site_fract_y
_atom_site_fract_z
Si Si1 0.822347 0.074806 0.445771
Si Si2 0.178265 0.576510 0.847686
Si Si3 0.670734 0.167760 0.361552
Si Si4 0.175448 0.669283 0.239671
Si Si5 0.821604 0.330234 0.054395
O O1 0.750000 0.104808 0.500000
O O2 0.789893 0.127788 0.398003
O O3 0.000000 0.066232 0.453629
O O4 0.750000 0.000000 0.431304
O O5 0.250000 0.500000 0.849342
O O6 0.223721 0.616852 0.794465
O O7 0.237954 0.621047 0.897964
O O8 0.000000 0.568359 0.848928
O O9 0.500000 0.143110 0.374663
O O10 0.687987 0.250000 0.372952
O O11 0.708848 0.150994 0.300663
O O12 0.221721 0.750000 0.227395
O O13 0.000000 0.657492 0.226388
O O14 0.768359 0.250000 0.065622
O O15 0.000000 0.334506 0.048984
O O16 0.750000 0.358793 0.000000
#
# Coordination Sequence:
#
# PCOD8281420 Si02
#       5
#    16  16  16  16  16
#     4  11  22  37  57  80 109 145 184 224 269 322
#     4  11  23  37  54  79 112 146 182 225 270 319
#     4   9  19  37  59  83 111 141 177 223 271 320
#     4   9  19  37  60  83 108 141 180 222 270 323
#     4   9  19  36  57  80 105 137 178 222 269 321
#
# _framework density 18.915945000000001
#
# number of rings (size 3 to 8) (size 9 to 14) (size 15 to 20)
#    0.000    2.200    0.000    4.800    0.000    5.600 
#    0.000    6.000    0.000    0.000    0.000    0.000 
#    0.000    0.000    0.000    0.000    0.000    0.000 
#
# Total GULP energy -496119.721801 kJ/mol
# GULP energy per Si atom -12402.993045 kJ/mol
# Density = 1.887289 g / cm^3
# Si number density = 18.915945 Si / 1000 Ang^3
#
#
#
# Elastic Constant Matrix: (Units=GPa)
#
#
# Indices 1 2 3 4 5 6 
#
# 1 90.4077 47.6725 53.7788 0.0000 0.0000 0.0000
# 2 47.6725 103.9695 78.1238 0.0000 0.0000 0.0000
# 3 53.7788 78.1238 127.6755 0.0000 0.0000 0.0000
# 4 0.0000 0.0000 0.0000 14.3591 0.0000 0.0000
# 5 0.0000 0.0000 0.0000 0.0000 34.1686 0.0000
# 6 0.0000 0.0000 0.0000 0.0000 0.0000 23.2980
#
#
#
# Elastic Compliance Matrix: (Units=1/GPa)
#
#
# Indices 1 2 3 4 5 6 
#
# 1 0.015656 -0.004116 -0.004076 0.000000 0.000000 0.000000
# 2 -0.004116 0.018886 -0.009823 0.000000 0.000000 0.000000
# 3 -0.004076 -0.009823 0.015560 0.000000 0.000000 0.000000
# 4 0.000000 0.000000 0.000000 0.069642 0.000000 0.000000
# 5 0.000000 0.000000 0.000000 0.000000 0.029267 0.000000
# 6 0.000000 0.000000 0.000000 0.000000 0.000000 0.042922
#
#
# Mechanical properties :
#
#
# Convention : Reuss Voigt Hill
#
# Bulk Modulus (GPa) = 71.05961 75.68919 73.37440
# Shear Modulus (GPa) = 21.49120 23.86364 22.67742
#
# Velocity S-wave (km/s) = 3.37433 3.55570 3.46620
# Velocity P-wave (km/s) = 7.26835 7.54703 7.40900
#
# Compressibility (1/GPa) = 0.01407269
#
# Stress axis : x y z
#
# Youngs Moduli (GPa) = 63.87348 52.94826 64.26838
#
# Poissons Ratio (x) = 0.21793 0.26196
# Poissons Ratio (y) = 0.26289 0.63129
# Poissons Ratio (z) = 0.26035 0.52010
#
# Static dielectric constant tensor:
#      x y z
#    x 3.379870 0.000000 0.000000 
#    y 0.000000 3.418400 0.000000 
#    z 0.000000 0.000000 3.538450 
# 
# 
# High freq. dielectric constant tensor:
#      x y z
#    x 1.733470 0.000000 0.000000 
#    y 0.000000 1.732050 0.000000 
#    z 0.000000 0.000000 1.744860 
# 
# From -- ./inp_files/43285.got.cif
#   From: 2010.03.12/outbox.cif.g09.slc.cpg/sg67_22_cif.got.tgz:43285.got - 2010.04.10 22:41:39.
