data_PCOD8281143
_publ_section_title
;
Structure prediction by ZEFSAII (Michael W. Deem and Ramdas Pophale) SiO2 
 PCOD8281143
Probable space group: C M M A
;
_chemical_formula_sum "Si O2"
_cell_formula_units_Z 96
_cell_length_a 15.338928
_cell_length_b 14.198389
_cell_length_c 20.999809
_cell_angle_alpha 90.000000
_cell_angle_beta 90.000000
_cell_angle_gamma 90.000000
_cell_volume 4573.507801
_symmetry_space_group_name_H-M "C M M A"
_symmetry_group_IT_number 67
_symmetry_cell_setting 'orthorhombic'
loop_
_space_group_symop_operation_xyz
x,y,z
-x,1/2-y,z
x,-y,-z
-x,1/2+y,-z
-x,-y,-z
x,1/2+y,-z
-x,y,z
x,1/2-y,z
1/2+x,1/2+y,z
1/2-x,-y,z
1/2+x,1/2-y,-z
1/2-x,y,-z
1/2-x,1/2-y,-z
1/2+x,y,-z
1/2-x,1/2+y,z
1/2+x,-y,z
loop_
_atom_site_type_symbol
_atom_site_label
_atom_site_fract_x
_atom_site_fract_y
_atom_site_fract_z
Si Si1 0.400279 0.051935 0.440179
Si Si2 0.900402 0.423577 0.178451
Si Si3 0.173937 0.250000 0.551912
Si Si4 0.711761 0.250000 0.671643
Si Si5 0.398979 0.250000 0.103049
Si Si6 0.272452 0.250000 0.814344
Si Si7 0.159961 0.956076 0.687051
Si Si8 0.100616 0.546833 0.061968
O O1 0.500000 0.023409 0.438903
O O2 0.388229 0.161167 0.454612
O O3 0.353695 0.000000 0.500000
O O4 0.363718 0.021647 0.372193
O O5 0.832011 0.339423 0.168896
O O6 0.901084 0.464379 0.250693
O O7 0.866859 0.503274 0.128991
O O8 0.000000 0.390643 0.164091
O O9 0.250000 0.250000 0.500000
O O10 0.211152 0.250000 0.622234
O O11 0.753969 0.250000 0.740901
O O12 0.656823 0.346777 0.663453
O O13 0.500000 0.250000 0.130744
O O14 0.323239 0.250000 0.155314
O O15 0.383721 0.341311 0.059352
O O16 0.250000 0.000000 0.711575
O O17 0.000000 0.521881 0.057917
O O18 0.147419 0.500000 0.000000
#
# Coordination Sequence:
#
# PCOD8281143 Si02
#       8
#    16  16   8   8   8   8  16  16
#     4  11  25  42  62  93 127 163 209 264 317 375
#     4  10  22  40  64  92 126 169 213 262 318 378
#     4  12  23  39  64  89 121 162 210 250 315 381
#     4  10  22  38  59  95 117 161 207 255 308 366
#     4  10  22  40  62  92 126 162 211 264 319 380
#     4  10  23  39  64  90 129 161 211 264 317 376
#     4  11  22  39  65  90 127 166 213 260 318 383
#     4   9  20  39  63  91 125 167 210 260 323 384
#
# _framework density 20.990452999999999
#
# number of rings (size 3 to 8) (size 9 to 14) (size 15 to 20)
#    0.000    1.667    1.667    2.000    4.667    0.667 
#    0.000    7.917    0.000    1.000    0.000    0.000 
#    0.000    0.000    0.000    0.000    0.000    0.000 
#
# Total GULP energy -594813.556647 kJ/mol
# GULP energy per Si atom -12391.949097 kJ/mol
# Density = 2.094268 g / cm^3
# Si number density = 20.990453 Si / 1000 Ang^3
#
#
#
# Elastic Constant Matrix: (Units=GPa)
#
#
# Indices 1 2 3 4 5 6 
#
# 1 78.9230 25.4808 27.2092 0.0000 0.0000 0.0000
# 2 25.4808 153.2094 63.3724 0.0000 0.0000 0.0000
# 3 27.2092 63.3724 134.7679 0.0000 0.0000 0.0000
# 4 0.0000 0.0000 0.0000 33.9246 0.0000 0.0000
# 5 0.0000 0.0000 0.0000 0.0000 15.7394 0.0000
# 6 0.0000 0.0000 0.0000 0.0000 0.0000 23.6459
#
#
#
# Elastic Compliance Matrix: (Units=1/GPa)
#
#
# Indices 1 2 3 4 5 6 
#
# 1 0.013865 -0.001425 -0.002129 0.000000 0.000000 0.000000
# 2 -0.001425 0.008250 -0.003591 0.000000 0.000000 0.000000
# 3 -0.002129 -0.003591 0.009539 0.000000 0.000000 0.000000
# 4 0.000000 0.000000 0.000000 0.029477 0.000000 0.000000
# 5 0.000000 0.000000 0.000000 0.000000 0.063535 0.000000
# 6 0.000000 0.000000 0.000000 0.000000 0.000000 0.042291
#
#
# Mechanical properties :
#
#
# Convention : Reuss Voigt Hill
#
# Bulk Modulus (GPa) = 57.59829 66.55833 62.07831
# Shear Modulus (GPa) = 26.73303 31.38451 29.05877
#
# Velocity S-wave (km/s) = 3.57260 3.87095 3.72476
# Velocity P-wave (km/s) = 6.67216 7.19421 6.93810
#
# Compressibility (1/GPa) = 0.01736163
#
# Stress axis : x y z
#
# Youngs Moduli (GPa) = 72.12545 121.21775 104.83437
#
# Poissons Ratio (x) = 0.17277 0.22320
# Poissons Ratio (y) = 0.10280 0.37651
# Poissons Ratio (z) = 0.15356 0.43535
#
# Static dielectric constant tensor:
#      x y z
#    x 3.635550 0.000000 0.000000 
#    y 0.000000 4.499060 0.000000 
#    z 0.000000 0.000000 4.073370 
# 
# 
# High freq. dielectric constant tensor:
#      x y z
#    x 1.806020 0.000000 0.000000 
#    y 0.000000 1.833750 0.000000 
#    z 0.000000 0.000000 1.830730 
# 
# From -- ./inp_files/38568.got.cif
#   From: 2010.03.12/outbox.cif.g09.slc.cpg/sg67_20_cif.got.tgz:38568.got - 2010.04.10 22:41:39.
