data_PCOD8281667
_publ_section_title
;
Structure prediction by ZEFSAII (Michael W. Deem and Ramdas Pophale) SiO2 
 PCOD8281667
Probable space group: C C C A
;
_chemical_formula_sum "Si O2"
_cell_formula_units_Z 80
_cell_length_a 26.353808
_cell_length_b 8.546436
_cell_length_c 18.412969
_cell_angle_alpha 90.000000
_cell_angle_beta 90.000000
_cell_angle_gamma 90.000000
_cell_volume 4147.173878
_symmetry_space_group_name_H-M "C C C A"
_symmetry_group_IT_number 68
_space_group.IT_coordinate_system_code '2'
_symmetry_cell_setting 'orthorhombic'
loop_
_space_group_symop_operation_xyz
x,y,z
-x,1/2-y,z
x,1/2-y,1/2-z
-x,y,1/2-z
-x,-y,-z
x,1/2+y,-z
-x,1/2+y,1/2+z
x,-y,1/2+z
1/2+x,1/2+y,z
1/2-x,-y,z
1/2+x,-y,1/2-z
1/2-x,1/2+y,1/2-z
1/2-x,1/2-y,-z
1/2+x,y,-z
1/2-x,y,1/2+z
1/2+x,1/2-y,1/2+z
loop_
_atom_site_type_symbol
_atom_site_label
_atom_site_fract_x
_atom_site_fract_y
_atom_site_fract_z
Si Si1 0.654650 0.802385 0.912714
Si Si2 0.449022 0.819541 0.428309
Si Si3 0.949234 0.311383 0.910650
Si Si4 0.153732 0.827470 0.573064
Si Si5 0.253347 0.815568 0.170843
O O1 0.603271 0.741181 0.872458
O O2 0.701200 0.748978 0.862325
O O3 0.651164 0.986736 0.923586
O O4 0.662143 0.720145 0.990056
O O5 0.500000 0.750000 0.390809
O O6 0.449018 0.778485 0.512844
O O7 0.398182 0.745394 0.393532
O O8 0.449773 0.004198 0.419487
O O9 0.000000 0.250000 0.868490
O O10 0.200196 0.761110 0.620167
O O11 0.263037 0.750000 0.250000
O O12 0.250000 0.000000 0.175050
#
# Coordination Sequence:
#
# PCOD8281667 Si02
#       5
#    16  16  16  16  16
#     4  10  19  33  52  78 105 134 170 211 252 300
#     4  10  17  27  45  72 103 135 165 204 251 299
#     4  10  17  27  45  72 103 135 165 204 251 299
#     4  10  19  33  52  78 105 134 170 211 252 300
#     4  10  23  38  54  74 102 136 173 212 256 304
#
# _framework density 19.290246
#
# number of rings (size 3 to 8) (size 9 to 14) (size 15 to 20)
#    0.000    2.000    0.000    9.000    0.000    3.200 
#    0.000    0.000    0.000    1.200    0.000    8.400 
#    0.000    0.000    0.000    0.000    0.000    0.000 
#
# Total GULP energy -495837.315112 kJ/mol
# GULP energy per Si atom -12395.932878 kJ/mol
# Density = 1.924634 g / cm^3
# Si number density = 19.290246 Si / 1000 Ang^3
#
#
#
# Elastic Constant Matrix: (Units=GPa)
#
#
# Indices 1 2 3 4 5 6 
#
# 1 184.8700 18.4242 29.3622 0.0000 0.0000 0.0000
# 2 18.4242 70.6141 -6.6063 0.0000 0.0000 0.0000
# 3 29.3622 -6.6063 40.0724 0.0000 0.0000 0.0000
# 4 0.0000 0.0000 0.0000 16.6175 0.0000 0.0000
# 5 0.0000 0.0000 0.0000 0.0000 4.1350 0.0000
# 6 0.0000 0.0000 0.0000 0.0000 0.0000 30.7210
#
#
#
# Elastic Compliance Matrix: (Units=1/GPa)
#
#
# Indices 1 2 3 4 5 6 
#
# 1 0.006428 -0.002151 -0.005065 0.000000 0.000000 0.000000
# 2 -0.002151 0.015103 0.004066 0.000000 0.000000 0.000000
# 3 -0.005065 0.004066 0.029336 0.000000 0.000000 0.000000
# 4 0.000000 0.000000 0.000000 0.060178 0.000000 0.000000
# 5 0.000000 0.000000 0.000000 0.000000 0.241837 0.000000
# 6 0.000000 0.000000 0.000000 0.000000 0.000000 0.032551
#
#
# Mechanical properties :
#
#
# Convention : Reuss Voigt Hill
#
# Bulk Modulus (GPa) = 22.43758 41.99075 32.21417
# Shear Modulus (GPa) = 12.29745 27.25313 19.77529
#
# Velocity S-wave (km/s) = 2.52761 3.76279 3.20526
# Velocity P-wave (km/s) = 4.49168 6.37913 5.51672
#
# Compressibility (1/GPa) = 0.04456808
#
# Stress axis : x y z
#
# Youngs Moduli (GPa) = 155.57036 66.21159 34.08766
#
# Poissons Ratio (x) = 0.14242 0.17264
# Poissons Ratio (y) = 0.33463 -0.13860
# Poissons Ratio (z) = 0.78790 -0.26922
#
# Static dielectric constant tensor:
#      x y z
#    x 4.869290 0.000000 0.000000 
#    y 0.000000 3.512360 0.000000 
#    z 0.000000 0.000000 2.959560 
# 
# 
# High freq. dielectric constant tensor:
#      x y z
#    x 1.789010 0.000000 0.000000 
#    y 0.000000 1.763550 0.000000 
#    z 0.000000 0.000000 1.679920 
# 
# From -- ./inp_files/33979.got.cif
#   From: 2010.03.12/outbox.cif.g09.slc.cpg/sg68_17_cif.got.tgz:33979.got - 2010.04.10 23:14:56.
