data_PCOD8281219
_publ_section_title
;
Structure prediction by ZEFSAII (Michael W. Deem and Ramdas Pophale) SiO2 
 PCOD8281219
Probable space group: C M M A
;
_chemical_formula_sum "Si O2"
_cell_formula_units_Z 116
_cell_length_a 18.629442
_cell_length_b 18.452664
_cell_length_c 16.907277
_cell_angle_alpha 90.000000
_cell_angle_beta 90.000000
_cell_angle_gamma 90.000000
_cell_volume 5812.093452
_symmetry_space_group_name_H-M "C M M A"
_symmetry_group_IT_number 67
_symmetry_cell_setting 'orthorhombic'
loop_
_space_group_symop_operation_xyz
x,y,z
-x,1/2-y,z
x,-y,-z
-x,1/2+y,-z
-x,-y,-z
x,1/2+y,-z
-x,y,z
x,1/2-y,z
1/2+x,1/2+y,z
1/2-x,-y,z
1/2+x,1/2-y,-z
1/2-x,y,-z
1/2-x,1/2-y,-z
1/2+x,y,-z
1/2-x,1/2+y,z
1/2+x,-y,z
loop_
_atom_site_type_symbol
_atom_site_label
_atom_site_fract_x
_atom_site_fract_y
_atom_site_fract_z
Si Si1 0.135369 0.587622 0.094348
Si Si2 0.682758 0.835636 0.748648
Si Si3 0.583770 0.169940 0.945172
Si Si4 0.304212 0.565598 0.305059
Si Si5 0.750000 0.500000 0.000000
Si Si6 0.329976 0.417303 0.521316
Si Si7 0.418324 0.951087 0.173271
Si Si8 0.081840 0.835445 0.394971
O O1 0.154128 0.637762 0.167869
O O2 0.082033 0.523196 0.119815
O O3 0.096985 0.639109 0.031995
O O4 0.205911 0.552093 0.057395
O O5 0.690042 0.750000 0.749947
O O6 0.761235 0.868235 0.733397
O O7 0.627920 0.861878 0.680261
O O8 0.500000 0.176797 0.932184
O O9 0.619452 0.250000 0.936264
O O10 0.613766 0.115541 0.878341
O O11 0.250000 0.500000 0.324385
O O12 0.341681 0.593174 0.385130
O O13 0.366706 0.537433 0.247763
O O14 0.342948 0.500000 0.500000
O O15 0.250000 0.390871 0.500000
O O16 0.387680 0.369364 0.475347
O O17 0.500000 0.936522 0.201028
O O18 0.086288 0.750000 0.404610
O O19 0.000000 0.861262 0.382231
#
# Coordination Sequence:
#
# PCOD8281219 Si02
#       8
#    16  16  16  16   4  16  16  16
#     4  12  22  40  62  90 123 161 211 259 314 377
#     4  11  24  40  63  95 126 166 209 258 321 378
#     4  10  22  41  62  86 120 161 206 259 315 371
#     4  12  22  42  65  91 129 166 212 261 307 373
#     4  12  24  40  64  88 120 166 204 268 316 356
#     4  11  21  39  65  94 124 165 212 257 307 369
#     4  11  24  41  65  92 125 168 212 260 320 380
#     4  10  23  43  65  95 133 167 205 258 317 375
#
# _framework density 19.958385
#
# number of rings (size 3 to 8) (size 9 to 14) (size 15 to 20)
#    0.000    0.966    5.517    1.655    0.000    4.414 
#    0.000    2.069    0.000    1.655    0.000    0.000 
#    0.000    0.000    0.000    0.000    0.000    0.000 
#
# Total GULP energy -719418.731727 kJ/mol
# GULP energy per Si atom -12403.771237 kJ/mol
# Density = 1.991296 g / cm^3
# Si number density = 19.958385 Si / 1000 Ang^3
#
#
#
# Elastic Constant Matrix: (Units=GPa)
#
#
# Indices 1 2 3 4 5 6 
#
# 1 81.1895 15.8208 27.8646 0.0000 0.0000 0.0000
# 2 15.8208 70.0554 13.2341 0.0000 0.0000 0.0000
# 3 27.8646 13.2341 103.2569 0.0000 0.0000 0.0000
# 4 0.0000 0.0000 0.0000 36.0668 0.0000 0.0000
# 5 0.0000 0.0000 0.0000 0.0000 24.4243 0.0000
# 6 0.0000 0.0000 0.0000 0.0000 0.0000 27.7080
#
#
#
# Elastic Compliance Matrix: (Units=1/GPa)
#
#
# Indices 1 2 3 4 5 6 
#
# 1 0.013991 -0.002507 -0.003454 0.000000 0.000000 0.000000
# 2 -0.002507 0.015078 -0.001256 0.000000 0.000000 0.000000
# 3 -0.003454 -0.001256 0.010778 0.000000 0.000000 0.000000
# 4 0.000000 0.000000 0.000000 0.027726 0.000000 0.000000
# 5 0.000000 0.000000 0.000000 0.000000 0.040943 0.000000
# 6 0.000000 0.000000 0.000000 0.000000 0.000000 0.036091
#
#
# Mechanical properties :
#
#
# Convention : Reuss Voigt Hill
#
# Bulk Modulus (GPa) = 39.35149 40.92677 40.13913
# Shear Modulus (GPa) = 29.84874 30.81199 30.33036
#
# Velocity S-wave (km/s) = 3.87143 3.93340 3.90254
# Velocity P-wave (km/s) = 6.30425 6.41712 6.36093
#
# Compressibility (1/GPa) = 0.02541200
#
# Stress axis : x y z
#
# Youngs Moduli (GPa) = 71.47504 66.32248 92.78416
#
# Poissons Ratio (x) = 0.16627 0.32050
# Poissons Ratio (y) = 0.17919 0.11653
# Poissons Ratio (z) = 0.24689 0.08330
#
# Static dielectric constant tensor:
#      x y z
#    x 3.567840 0.000000 0.000000 
#    y 0.000000 3.772150 0.000000 
#    z 0.000000 0.000000 3.754890 
# 
# 
# High freq. dielectric constant tensor:
#      x y z
#    x 1.769320 0.000000 0.000000 
#    y 0.000000 1.784210 0.000000 
#    z 0.000000 0.000000 1.789360 
# 
# From -- ./inp_files/34368.got.cif
#   From: 2010.03.12/outbox.cif.g09.slc.cpg/sg67_18_cif.got.tgz:34368.got - 2010.04.10 22:41:39.
