data_PCOD8281888
_publ_section_title
;
Structure prediction by ZEFSAII (Michael W. Deem and Ramdas Pophale) SiO2 
 PCOD8281888
Probable space group: C C C A
;
_chemical_formula_sum "Si O2"
_cell_formula_units_Z 116
_cell_length_a 29.208261
_cell_length_b 18.269695
_cell_length_c 10.397542
_cell_angle_alpha 90.000000
_cell_angle_beta 90.000000
_cell_angle_gamma 90.000000
_cell_volume 5548.398955
_symmetry_space_group_name_H-M "C C C A"
_symmetry_group_IT_number 68
_space_group.IT_coordinate_system_code '2'
_symmetry_cell_setting 'orthorhombic'
loop_
_space_group_symop_operation_xyz
x,y,z
-x,1/2-y,z
x,1/2-y,1/2-z
-x,y,1/2-z
-x,-y,-z
x,1/2+y,-z
-x,1/2+y,1/2+z
x,-y,1/2+z
1/2+x,1/2+y,z
1/2-x,-y,z
1/2+x,-y,1/2-z
1/2-x,1/2+y,1/2-z
1/2-x,1/2-y,-z
1/2+x,y,-z
1/2-x,y,1/2+z
1/2+x,1/2-y,1/2+z
loop_
_atom_site_type_symbol
_atom_site_label
_atom_site_fract_x
_atom_site_fract_y
_atom_site_fract_z
Si Si1 0.691315 0.068622 0.496852
Si Si2 0.634501 0.312263 0.639378
Si Si3 0.530199 0.480337 0.379765
Si Si4 0.500000 0.750000 0.750000
Si Si5 0.924153 0.329761 0.900025
Si Si6 0.147144 0.397647 0.753576
Si Si7 0.114525 0.447150 0.205126
Si Si8 0.205981 0.095669 0.995644
O O1 0.670825 0.121455 0.387547
O O2 0.657896 0.073545 0.617403
O O3 0.740047 0.105689 0.527468
O O4 0.696359 0.985051 0.444192
O O5 0.640527 0.250000 0.750000
O O6 0.600237 0.289317 0.522174
O O7 0.608912 0.382780 0.693661
O O8 0.683994 0.340019 0.584390
O O9 0.500000 0.465278 0.250000
O O10 0.500000 0.500000 0.500000
O O11 0.561666 0.413093 0.427728
O O12 0.565269 0.548421 0.364584
O O13 0.469743 0.792585 0.851780
O O14 0.887812 0.332722 0.782138
O O15 0.121274 0.474908 0.774302
O O16 0.185271 0.404240 0.645233
#
# Coordination Sequence:
#
# PCOD8281888 Si02
#       8
#    16  16  16   4  16  16  16  16
#     4  10  19  32  65  90 125 164 210 274 320 367
#     4  11  23  43  61  89 136 175 207 264 330 396
#     4  11  23  39  66  98 130 162 213 277 337 388
#     4  12  24  48  70  88 128 164 234 242 312 412
#     4  10  24  41  65  91 123 172 209 271 317 380
#     4   9  19  36  58  90 126 152 211 267 316 367
#     4  10  22  36  60  90 125 161 209 260 326 383
#     4   9  20  34  57  95 123 168 215 261 317 382
#
# _framework density 20.906932999999999
#
# number of rings (size 3 to 8) (size 9 to 14) (size 15 to 20)
#    0.000    1.931    2.069    1.655    5.793    3.310 
#    0.000    2.414    1.517    0.000    0.000    0.000 
#    0.000    0.000    0.000    0.000    0.000    0.000 
#
# Total GULP energy -718673.456260 kJ/mol
# GULP energy per Si atom -12390.921660 kJ/mol
# Density = 2.085935 g / cm^3
# Si number density = 20.906933 Si / 1000 Ang^3
#
#
#
# Elastic Constant Matrix: (Units=GPa)
#
#
# Indices 1 2 3 4 5 6 
#
# 1 140.0487 20.3949 32.6916 0.0000 0.0000 0.0000
# 2 20.3949 48.7718 14.8321 0.0000 0.0000 0.0000
# 3 32.6916 14.8321 66.6806 0.0000 0.0000 0.0000
# 4 0.0000 0.0000 0.0000 27.5217 0.0000 0.0000
# 5 0.0000 0.0000 0.0000 0.0000 29.5376 0.0000
# 6 0.0000 0.0000 0.0000 0.0000 0.0000 8.5949
#
#
#
# Elastic Compliance Matrix: (Units=1/GPa)
#
#
# Indices 1 2 3 4 5 6 
#
# 1 0.008317 -0.002400 -0.003544 0.000000 0.000000 0.000000
# 2 -0.002400 0.022684 -0.003869 0.000000 0.000000 0.000000
# 3 -0.003544 -0.003869 0.017595 0.000000 0.000000 0.000000
# 4 0.000000 0.000000 0.000000 0.036335 0.000000 0.000000
# 5 0.000000 0.000000 0.000000 0.000000 0.033855 0.000000
# 6 0.000000 0.000000 0.000000 0.000000 0.000000 0.116348
#
#
# Mechanical properties :
#
#
# Convention : Reuss Voigt Hill
#
# Bulk Modulus (GPa) = 34.51840 43.48205 39.00023
# Shear Modulus (GPa) = 18.90957 25.63634 22.27295
#
# Velocity S-wave (km/s) = 3.01069 3.50553 3.26749
# Velocity P-wave (km/s) = 5.35089 6.10148 5.73847
#
# Compressibility (1/GPa) = 0.02897005
#
# Stress axis : x y z
#
# Youngs Moduli (GPa) = 120.23362 44.08401 56.83485
#
# Poissons Ratio (x) = 0.10581 0.20141
# Poissons Ratio (y) = 0.28860 0.21989
# Poissons Ratio (z) = 0.42608 0.17056
#
# Static dielectric constant tensor:
#      x y z
#    x 4.206500 0.000000 0.000000 
#    y 0.000000 3.537180 0.000000 
#    z 0.000000 0.000000 3.761010 
# 
# 
# High freq. dielectric constant tensor:
#      x y z
#    x 1.834280 0.000000 0.000000 
#    y 0.000000 1.784420 0.000000 
#    z 0.000000 0.000000 1.819280 
# 
# From -- ./inp_files/17251.got.cif
#   From: 2010.03.12/outbox.cif.g09.slc.cpg/sg68_9_cif.got.tgz:17251.got - 2010.04.10 23:14:56.
