data_PCOD8281583
_publ_section_title
;
Structure prediction by ZEFSAII (Michael W. Deem and Ramdas Pophale) SiO2 
 PCOD8281583
Probable space group: C M M A
;
_chemical_formula_sum "Si O2"
_cell_formula_units_Z 128
_cell_length_a 18.240211
_cell_length_b 19.669652
_cell_length_c 21.010952
_cell_angle_alpha 90.000000
_cell_angle_beta 90.000000
_cell_angle_gamma 90.000000
_cell_volume 7538.280002
_symmetry_space_group_name_H-M "C M M A"
_symmetry_group_IT_number 67
_symmetry_cell_setting 'orthorhombic'
loop_
_space_group_symop_operation_xyz
x,y,z
-x,1/2-y,z
x,-y,-z
-x,1/2+y,-z
-x,-y,-z
x,1/2+y,-z
-x,y,z
x,1/2-y,z
1/2+x,1/2+y,z
1/2-x,-y,z
1/2+x,1/2-y,-z
1/2-x,y,-z
1/2-x,1/2-y,-z
1/2+x,y,-z
1/2-x,1/2+y,z
1/2+x,-y,z
loop_
_atom_site_type_symbol
_atom_site_label
_atom_site_fract_x
_atom_site_fract_y
_atom_site_fract_z
Si Si1 0.632228 0.618378 0.756415
Si Si2 0.918353 0.979509 0.805291
Si Si3 0.086501 0.176027 0.882417
Si Si4 0.584639 0.038580 0.060031
Si Si5 0.137597 0.326866 0.617799
Si Si6 0.806964 0.671957 0.620358
Si Si7 0.285362 0.572208 0.268008
Si Si8 0.418572 0.669582 0.486916
O O1 0.585587 0.551119 0.769349
O O2 0.608591 0.674309 0.807844
O O3 0.616544 0.636021 0.683058
O O4 0.719494 0.610605 0.767433
O O5 0.853067 0.932326 0.780555
O O6 0.000000 0.948769 0.792829
O O7 0.905690 0.989039 0.880190
O O8 0.111850 0.250000 0.909359
O O9 0.120581 0.112939 0.923400
O O10 0.000000 0.168928 0.885827
O O11 0.500000 0.051077 0.043410
O O12 0.622716 0.000000 0.000000
O O13 0.111855 0.250000 0.627892
O O14 0.222914 0.330607 0.599283
O O15 0.096337 0.360974 0.557530
O O16 0.827622 0.750000 0.640529
O O17 0.818625 0.617744 0.676025
O O18 0.858776 0.644398 0.563828
O O19 0.250000 0.500000 0.291686
O O20 0.500000 0.647603 0.464564
O O21 0.411057 0.750000 0.492886
#
# Coordination Sequence:
#
# PCOD8281583 Si02
#       8
#    16  16  16  16  16  16  16  16
#     4   9  16  27  43  64  91 120 147 180 227 279
#     4   9  17  29  46  66  87 115 151 190 227 262
#     4   9  16  25  41  69 100 124 148 183 227 271
#     4   8  14  26  45  68  93 123 157 186 215 261
#     4   9  16  26  42  63  86 114 147 181 221 273
#     4   9  17  30  47  64  83 113 151 186 222 266
#     4   9  18  31  48  68  90 117 152 188 223 270
#     4   9  17  27  40  62  89 114 145 187 228 263
#
# _framework density 16.980001000000001
#
# number of rings (size 3 to 8) (size 9 to 14) (size 15 to 20)
#    0.000    3.125    0.000    1.875    0.000    3.500 
#    0.000    1.250    0.000   22.875    0.000   11.375 
#    0.000    0.000    0.000    0.000    0.000    0.000 
#
# Total GULP energy -792878.247145 kJ/mol
# GULP energy per Si atom -12388.722612 kJ/mol
# Density = 1.694135 g / cm^3
# Si number density = 16.980001 Si / 1000 Ang^3
#
#
#
# Elastic Constant Matrix: (Units=GPa)
#
#
# Indices 1 2 3 4 5 6 
#
# 1 32.7467 4.4377 25.2315 0.0000 0.0000 0.0000
# 2 4.4377 50.5608 38.2467 0.0000 0.0000 0.0000
# 3 25.2315 38.2467 103.0766 0.0000 0.0000 0.0000
# 4 0.0000 0.0000 0.0000 22.2225 0.0000 0.0000
# 5 0.0000 0.0000 0.0000 0.0000 19.7784 0.0000
# 6 0.0000 0.0000 0.0000 0.0000 0.0000 17.7628
#
#
#
# Elastic Compliance Matrix: (Units=1/GPa)
#
#
# Indices 1 2 3 4 5 6 
#
# 1 0.038605 0.005227 -0.011389 0.000000 0.000000 0.000000
# 2 0.005227 0.028203 -0.011744 0.000000 0.000000 0.000000
# 3 -0.011389 -0.011744 0.016847 0.000000 0.000000 0.000000
# 4 0.000000 0.000000 0.000000 0.045000 0.000000 0.000000
# 5 0.000000 0.000000 0.000000 0.000000 0.050560 0.000000
# 6 0.000000 0.000000 0.000000 0.000000 0.000000 0.056298
#
#
# Mechanical properties :
#
#
# Convention : Reuss Voigt Hill
#
# Bulk Modulus (GPa) = 20.90213 35.80179 28.35196
# Shear Modulus (GPa) = 17.40502 19.85059 18.62781
#
# Velocity S-wave (km/s) = 3.20508 3.42286 3.31576
# Velocity P-wave (km/s) = 5.10229 6.06232 5.60290
#
# Compressibility (1/GPa) = 0.04784202
#
# Stress axis : x y z
#
# Youngs Moduli (GPa) = 25.90364 35.45660 59.35680
#
# Poissons Ratio (x) = -0.18534 0.67604
# Poissons Ratio (y) = -0.13540 0.69711
# Poissons Ratio (z) = 0.29503 0.41642
#
# Static dielectric constant tensor:
#      x y z
#    x 3.141180 0.000000 0.000000 
#    y 0.000000 3.163750 0.000000 
#    z 0.000000 0.000000 3.256660 
# 
# 
# High freq. dielectric constant tensor:
#      x y z
#    x 1.644130 0.000000 0.000000 
#    y 0.000000 1.628490 0.000000 
#    z 0.000000 0.000000 1.645860 
# 
# From -- ./inp_files/39132.got.cif
#   From: 2010.03.12/outbox.cif.g09.slc.cpg/sg67_20_cif.got.tgz:39132.got - 2010.04.10 22:41:39.
