data_PCOD8281290
_publ_section_title
;
Structure prediction by ZEFSAII (Michael W. Deem and Ramdas Pophale) SiO2 
 PCOD8281290
Probable space group: C M M A
;
_chemical_formula_sum "Si O2"
_cell_formula_units_Z 56
_cell_length_a 15.745497
_cell_length_b 7.465161
_cell_length_c 23.461452
_cell_angle_alpha 90.000000
_cell_angle_beta 90.000000
_cell_angle_gamma 90.000000
_cell_volume 2757.721713
_symmetry_space_group_name_H-M "C M M A"
_symmetry_group_IT_number 67
_symmetry_cell_setting 'orthorhombic'
loop_
_space_group_symop_operation_xyz
x,y,z
-x,1/2-y,z
x,-y,-z
-x,1/2+y,-z
-x,-y,-z
x,1/2+y,-z
-x,y,z
x,1/2-y,z
1/2+x,1/2+y,z
1/2-x,-y,z
1/2+x,1/2-y,-z
1/2-x,y,-z
1/2-x,1/2-y,-z
1/2+x,y,-z
1/2-x,1/2+y,z
1/2+x,-y,z
loop_
_atom_site_type_symbol
_atom_site_label
_atom_site_fract_x
_atom_site_fract_y
_atom_site_fract_z
Si Si1 0.652029 0.955247 0.438406
Si Si2 0.095881 0.750000 0.352959
Si Si3 0.500000 0.042507 0.933997
Si Si4 0.601689 0.250000 0.227178
Si Si5 0.655241 0.539915 0.141211
O O1 0.635826 0.750000 0.422446
O O2 0.610042 0.000000 0.500000
O O3 0.750000 0.000000 0.442691
O O4 0.613008 0.072092 0.388609
O O5 0.141273 0.750000 0.291386
O O6 0.000000 0.750000 0.334810
O O7 0.500000 0.250000 0.923545
O O8 0.413749 0.967615 0.905007
O O9 0.500000 0.000000 0.000000
O O10 0.500000 0.250000 0.222954
O O11 0.639364 0.429236 0.198777
O O12 0.644125 0.750000 0.154601
O O13 0.750000 0.500000 0.117544
#
# Coordination Sequence:
#
# PCOD8281290 Si02
#       5
#    16   8   8   8  16
#     4  11  20  40  66  88 124 167 206 261 321 384
#     4  11  26  41  59  99 122 160 219 254 324 385
#     4  10  24  40  66 100 132 170 214 262 317 379
#     4  11  24  44  67  83 132 177 203 269 326 383
#     4  11  23  42  66  96 128 172 219 261 321 380
#
# _framework density 20.306618
#
# number of rings (size 3 to 8) (size 9 to 14) (size 15 to 20)
#    0.000    1.143    5.714    0.857    2.000    4.000 
#    0.000    5.714    0.000    0.000    0.000    0.000 
#    0.000    0.000    0.000    0.000    0.000    0.000 
#
# Total GULP energy -347124.949830 kJ/mol
# GULP energy per Si atom -12397.319637 kJ/mol
# Density = 2.026040 g / cm^3
# Si number density = 20.306618 Si / 1000 Ang^3
#
#
#
# Elastic Constant Matrix: (Units=GPa)
#
#
# Indices 1 2 3 4 5 6 
#
# 1 121.0538 28.0785 59.5562 0.0000 0.0000 0.0000
# 2 28.0785 162.3533 66.9847 0.0000 0.0000 0.0000
# 3 59.5562 66.9847 181.9434 0.0000 0.0000 0.0000
# 4 0.0000 0.0000 0.0000 35.0448 0.0000 0.0000
# 5 0.0000 0.0000 0.0000 0.0000 18.9908 0.0000
# 6 0.0000 0.0000 0.0000 0.0000 0.0000 15.2587
#
#
#
# Elastic Compliance Matrix: (Units=1/GPa)
#
#
# Indices 1 2 3 4 5 6 
#
# 1 0.009873 -0.000441 -0.003069 0.000000 0.000000 0.000000
# 2 -0.000441 0.007282 -0.002537 0.000000 0.000000 0.000000
# 3 -0.003069 -0.002537 0.007435 0.000000 0.000000 0.000000
# 4 0.000000 0.000000 0.000000 0.028535 0.000000 0.000000
# 5 0.000000 0.000000 0.000000 0.000000 0.052657 0.000000
# 6 0.000000 0.000000 0.000000 0.000000 0.000000 0.065536
#
#
# Mechanical properties :
#
#
# Convention : Reuss Voigt Hill
#
# Bulk Modulus (GPa) = 80.02633 86.06550 83.04592
# Shear Modulus (GPa) = 26.65551 34.57427 30.61489
#
# Velocity S-wave (km/s) = 3.62698 4.13075 3.88703
# Velocity P-wave (km/s) = 7.55212 8.07625 7.81858
#
# Compressibility (1/GPa) = 0.01249589
#
# Stress axis : x y z
#
# Youngs Moduli (GPa) = 101.28417 137.31942 134.50182
#
# Poissons Ratio (x) = 0.06058 0.41284
# Poissons Ratio (y) = 0.04468 0.34119
# Poissons Ratio (z) = 0.31088 0.34833
#
# Static dielectric constant tensor:
#      x y z
#    x 3.901220 0.000000 0.000000 
#    y 0.000000 3.759150 0.000000 
#    z 0.000000 0.000000 3.696830 
# 
# 
# High freq. dielectric constant tensor:
#      x y z
#    x 1.794910 0.000000 0.000000 
#    y 0.000000 1.806160 0.000000 
#    z 0.000000 0.000000 1.787880 
# 
# From -- ./inp_files/38224.got.cif
#   From: 2010.03.12/outbox.cif.g09.slc.cpg/sg67_20_cif.got.tgz:38224.got - 2010.04.10 22:41:39.
