data_PCOD8281944
_publ_section_title
;
Structure prediction by ZEFSAII (Michael W. Deem and Ramdas Pophale) SiO2 
 PCOD8281944
Probable space group: C C C A
;
_chemical_formula_sum "Si O2"
_cell_formula_units_Z 96
_cell_length_a 18.413230
_cell_length_b 16.327822
_cell_length_c 17.191387
_cell_angle_alpha 90.000000
_cell_angle_beta 90.000000
_cell_angle_gamma 90.000000
_cell_volume 5168.555120
_symmetry_space_group_name_H-M "C C C A"
_symmetry_group_IT_number 68
_space_group.IT_coordinate_system_code '2'
_symmetry_cell_setting 'orthorhombic'
loop_
_space_group_symop_operation_xyz
x,y,z
-x,1/2-y,z
x,1/2-y,1/2-z
-x,y,1/2-z
-x,-y,-z
x,1/2+y,-z
-x,1/2+y,1/2+z
x,-y,1/2+z
1/2+x,1/2+y,z
1/2-x,-y,z
1/2+x,-y,1/2-z
1/2-x,1/2+y,1/2-z
1/2-x,1/2-y,-z
1/2+x,y,-z
1/2-x,y,1/2+z
1/2+x,1/2-y,1/2+z
loop_
_atom_site_type_symbol
_atom_site_label
_atom_site_fract_x
_atom_site_fract_y
_atom_site_fract_z
Si Si1 0.402000 0.981568 0.824222
Si Si2 0.421477 0.708780 0.949108
Si Si3 0.175499 0.524087 0.956458
Si Si4 0.561709 0.452612 0.146154
Si Si5 0.815556 0.352021 0.917972
Si Si6 0.655502 0.382955 0.919675
O O1 0.477459 0.969218 0.869940
O O2 0.414828 0.963213 0.734530
O O3 0.343847 0.915845 0.853850
O O4 0.377668 0.076144 0.840787
O O5 0.500000 0.750000 0.954809
O O6 0.420493 0.637277 0.885332
O O7 0.360966 0.769059 0.914427
O O8 0.400204 0.677179 0.035551
O O9 0.250000 0.500000 0.910422
O O10 0.106558 0.520675 0.900796
O O11 0.176432 0.614150 0.993860
O O12 0.172173 0.460501 0.026968
O O13 0.730319 0.334984 0.900243
#
# Coordination Sequence:
#
# PCOD8281944 Si02
#       6
#    16  16  16  16  16  16
#     4  10  20  35  54  79 109 149 186 231 273 330
#     4  11  21  34  56  87 114 146 181 234 291 336
#     4   8  17  32  53  77 105 138 183 231 263 317
#     4  10  21  34  52  84 110 143 188 230 277 330
#     4  10  19  35  55  83 111 144 180 235 284 335
#     4   9  20  35  56  79 109 145 190 227 272 329
#
# _framework density 18.573857
#
# number of rings (size 3 to 8) (size 9 to 14) (size 15 to 20)
#    0.000    2.333    1.667    2.000    2.333    4.000 
#    0.000    0.000    0.000    3.000    0.000    0.000 
#    0.000    0.000    0.000    0.000    0.000    0.000 
#
# Total GULP energy -594980.575180 kJ/mol
# GULP energy per Si atom -12395.428650 kJ/mol
# Density = 1.853158 g / cm^3
# Si number density = 18.573857 Si / 1000 Ang^3
#
#
#
# Elastic Constant Matrix: (Units=GPa)
#
#
# Indices 1 2 3 4 5 6 
#
# 1 123.7912 38.5129 44.2589 0.0000 0.0000 0.0000
# 2 38.5129 72.3498 22.7107 0.0000 0.0000 0.0000
# 3 44.2589 22.7107 60.4608 0.0000 0.0000 0.0000
# 4 0.0000 0.0000 0.0000 19.5261 0.0000 0.0000
# 5 0.0000 0.0000 0.0000 0.0000 24.5523 0.0000
# 6 0.0000 0.0000 0.0000 0.0000 0.0000 33.3129
#
#
#
# Elastic Compliance Matrix: (Units=1/GPa)
#
#
# Indices 1 2 3 4 5 6 
#
# 1 0.011921 -0.004089 -0.007191 0.000000 0.000000 0.000000
# 2 -0.004089 0.017072 -0.003420 0.000000 0.000000 0.000000
# 3 -0.007191 -0.003420 0.023088 0.000000 0.000000 0.000000
# 4 0.000000 0.000000 0.000000 0.051214 0.000000 0.000000
# 5 0.000000 0.000000 0.000000 0.000000 0.040729 0.000000
# 6 0.000000 0.000000 0.000000 0.000000 0.000000 0.030018
#
#
# Mechanical properties :
#
#
# Convention : Reuss Voigt Hill
#
# Bulk Modulus (GPa) = 44.08640 51.95187 48.01913
# Shear Modulus (GPa) = 23.69662 25.55287 24.62474
#
# Velocity S-wave (km/s) = 3.57572 3.71313 3.64507
# Velocity P-wave (km/s) = 6.39022 6.81280 6.60489
#
# Compressibility (1/GPa) = 0.02268273
#
# Stress axis : x y z
#
# Youngs Moduli (GPa) = 83.88552 58.57693 43.31260
#
# Poissons Ratio (x) = 0.23949 0.31145
# Poissons Ratio (y) = 0.34297 0.14811
# Poissons Ratio (z) = 0.60320 0.20031
#
# Static dielectric constant tensor:
#      x y z
#    x 3.860750 0.000000 0.000000 
#    y 0.000000 3.387310 0.000000 
#    z 0.000000 0.000000 3.168310 
# 
# 
# High freq. dielectric constant tensor:
#      x y z
#    x 1.743170 0.000000 0.000000 
#    y 0.000000 1.705710 0.000000 
#    z 0.000000 0.000000 1.692390 
# 
# From -- ./inp_files/31997.got.cif
#   From: 2010.03.12/outbox.cif.g09.slc.cpg/sg68_16_cif.got.tgz:31997.got - 2010.04.10 23:14:56.
