data_PCOD8281852
_publ_section_title
;
Structure prediction by ZEFSAII (Michael W. Deem and Ramdas Pophale) SiO2 
 PCOD8281852
Probable space group: C C C A
;
_chemical_formula_sum "Si O2"
_cell_formula_units_Z 96
_cell_length_a 26.497779
_cell_length_b 14.363547
_cell_length_c 13.289524
_cell_angle_alpha 90.000000
_cell_angle_beta 90.000000
_cell_angle_gamma 90.000000
_cell_volume 5058.020663
_symmetry_space_group_name_H-M "C C C A"
_symmetry_group_IT_number 68
_space_group.IT_coordinate_system_code '2'
_symmetry_cell_setting 'orthorhombic'
loop_
_space_group_symop_operation_xyz
x,y,z
-x,1/2-y,z
x,1/2-y,1/2-z
-x,y,1/2-z
-x,-y,-z
x,1/2+y,-z
-x,1/2+y,1/2+z
x,-y,1/2+z
1/2+x,1/2+y,z
1/2-x,-y,z
1/2+x,-y,1/2-z
1/2-x,1/2+y,1/2-z
1/2-x,1/2-y,-z
1/2+x,y,-z
1/2-x,y,1/2+z
1/2+x,1/2-y,1/2+z
loop_
_atom_site_type_symbol
_atom_site_label
_atom_site_fract_x
_atom_site_fract_y
_atom_site_fract_z
Si Si1 0.558466 0.646986 0.224589
Si Si2 0.878691 0.108420 0.462685
Si Si3 0.177379 0.303654 0.021430
Si Si4 0.127191 0.032945 0.366908
Si Si5 0.744364 0.284278 0.151414
Si Si6 0.302992 0.044600 0.688963
O O1 0.580092 0.750000 0.250000
O O2 0.500000 0.642945 0.250000
O O3 0.571542 0.626270 0.106903
O O4 0.583117 0.568283 0.294174
O O5 0.851959 0.205854 0.488677
O O6 0.842430 0.036419 0.402814
O O7 0.891414 0.056317 0.568290
O O8 0.140276 0.383406 0.057855
O O9 0.227789 0.297582 0.089946
O O10 0.200264 0.333760 0.912998
O O11 0.174755 0.006753 0.294854
O O12 0.714745 0.250000 0.250000
O O13 0.790598 0.346063 0.194690
O O14 0.250000 0.000000 0.660254
#
# Coordination Sequence:
#
# PCOD8281852 Si02
#       6
#    16  16  16  16  16  16
#     4  10  21  41  68  87 107 145 190 245 310 365
#     4  10  22  36  57  88 113 148 193 244 295 344
#     4  10  20  34  52  77 113 151 199 236 281 327
#     4  11  21  36  58  83 118 146 188 250 281 340
#     4  10  19  31  48  72 107 162 200 235 264 317
#     4  10  21  32  51  76 117 156 200 226 275 337
#
# _framework density 18.979755999999998
#
# number of rings (size 3 to 8) (size 9 to 14) (size 15 to 20)
#    0.000    1.833    3.333    1.000    2.333    2.667 
#    0.000    0.000    0.000    0.000    0.000    1.167 
#    0.000    0.000    0.000    0.000    0.000    0.000 
#
# Total GULP energy -594709.102327 kJ/mol
# GULP energy per Si atom -12389.772965 kJ/mol
# Density = 1.893656 g / cm^3
# Si number density = 18.979756 Si / 1000 Ang^3
#
#
#
# Elastic Constant Matrix: (Units=GPa)
#
#
# Indices 1 2 3 4 5 6 
#
# 1 69.3874 7.0199 16.6087 0.0000 0.0000 0.0000
# 2 7.0199 44.9077 11.7405 0.0000 0.0000 0.0000
# 3 16.6087 11.7405 92.1626 0.0000 0.0000 0.0000
# 4 0.0000 0.0000 0.0000 33.7411 0.0000 0.0000
# 5 0.0000 0.0000 0.0000 0.0000 24.3192 0.0000
# 6 0.0000 0.0000 0.0000 0.0000 0.0000 22.2641
#
#
#
# Elastic Compliance Matrix: (Units=1/GPa)
#
#
# Indices 1 2 3 4 5 6 
#
# 1 0.015188 -0.001716 -0.002519 0.000000 0.000000 0.000000
# 2 -0.001716 0.023229 -0.002650 0.000000 0.000000 0.000000
# 3 -0.002519 -0.002650 0.011642 0.000000 0.000000 0.000000
# 4 0.000000 0.000000 0.000000 0.029637 0.000000 0.000000
# 5 0.000000 0.000000 0.000000 0.000000 0.041120 0.000000
# 6 0.000000 0.000000 0.000000 0.000000 0.000000 0.044915
#
#
# Mechanical properties :
#
#
# Convention : Reuss Voigt Hill
#
# Bulk Modulus (GPa) = 27.55534 30.79952 29.17743
# Shear Modulus (GPa) = 26.09646 27.47078 26.78362
#
# Velocity S-wave (km/s) = 3.71207 3.80856 3.76063
# Velocity P-wave (km/s) = 5.73781 5.96682 5.85344
#
# Compressibility (1/GPa) = 0.03629061
#
# Stress axis : x y z
#
# Youngs Moduli (GPa) = 65.84030 43.04980 85.89720
#
# Poissons Ratio (x) = 0.07386 0.21633
# Poissons Ratio (y) = 0.11297 0.22762
# Poissons Ratio (z) = 0.16582 0.11408
#
# Static dielectric constant tensor:
#      x y z
#    x 3.177310 0.000000 0.000000 
#    y 0.000000 3.443170 0.000000 
#    z 0.000000 0.000000 3.646730 
# 
# 
# High freq. dielectric constant tensor:
#      x y z
#    x 1.702460 0.000000 0.000000 
#    y 0.000000 1.728560 0.000000 
#    z 0.000000 0.000000 1.747360 
# 
# From -- ./inp_files/17160.got.cif
#   From: 2010.03.12/outbox.cif.g09.slc.cpg/sg68_9_cif.got.tgz:17160.got - 2010.04.10 23:14:56.
