data_PCOD8281054
_publ_section_title
;
Structure prediction by ZEFSAII (Michael W. Deem and Ramdas Pophale) SiO2 
 PCOD8281054
Probable space group: C M M A
;
_chemical_formula_sum "Si O2"
_cell_formula_units_Z 96
_cell_length_a 29.071864
_cell_length_b 14.979597
_cell_length_c 11.063330
_cell_angle_alpha 90.000000
_cell_angle_beta 90.000000
_cell_angle_gamma 90.000000
_cell_volume 4817.912127
_symmetry_space_group_name_H-M "C M M A"
_symmetry_group_IT_number 67
_symmetry_cell_setting 'orthorhombic'
loop_
_space_group_symop_operation_xyz
x,y,z
-x,1/2-y,z
x,-y,-z
-x,1/2+y,-z
-x,-y,-z
x,1/2+y,-z
-x,y,z
x,1/2-y,z
1/2+x,1/2+y,z
1/2-x,-y,z
1/2+x,1/2-y,-z
1/2-x,y,-z
1/2-x,1/2-y,-z
1/2+x,y,-z
1/2-x,1/2+y,z
1/2+x,-y,z
loop_
_atom_site_type_symbol
_atom_site_label
_atom_site_fract_x
_atom_site_fract_y
_atom_site_fract_z
Si Si1 0.051132 0.486223 0.640351
Si Si2 0.554112 0.351128 0.809352
Si Si3 0.880333 0.600962 0.013048
Si Si4 0.628667 0.854152 0.708549
Si Si5 0.316126 0.750000 0.005254
Si Si6 0.244062 0.750000 0.201468
Si Si7 0.230942 0.405912 0.634418
O O1 0.045924 0.500000 0.500000
O O2 0.069974 0.576022 0.708604
O O3 0.085930 0.404123 0.648751
O O4 0.000000 0.462466 0.692622
O O5 0.500000 0.350881 0.821221
O O6 0.571127 0.250000 0.775671
O O7 0.572393 0.381514 0.941329
O O8 0.881674 0.630860 0.150837
O O9 0.864213 0.500000 0.000000
O O10 0.842100 0.661970 0.950017
O O11 0.627357 0.750000 0.672885
O O12 0.675805 0.897059 0.653054
O O13 0.269721 0.750000 0.077195
O O14 0.308337 0.750000 0.855874
O O15 0.255608 0.664773 0.280387
O O16 0.250000 0.500000 0.680176
O O17 0.250000 0.388180 0.500000
#
# Coordination Sequence:
#
# PCOD8281054 Si02
#       7
#    16  16  16  16   8   8  16
#     4  10  24  44  67  97 134 174 221 268 323 393
#     4  10  21  39  65  97 132 171 214 266 322 390
#     4  12  22  39  64  91 130 165 211 265 326 388
#     4  12  24  44  67  95 134 170 216 275 331 386
#     4  11  24  40  59  96 128 162 205 270 323 400
#     4  11  23  42  66  88 129 163 212 260 333 384
#     4  11  25  44  66  93 128 169 219 272 319 389
#
# _framework density 19.925644999999999
#
# number of rings (size 3 to 8) (size 9 to 14) (size 15 to 20)
#    0.000    1.000    5.833    0.250    4.667    2.000 
#    0.000    3.333    0.000    0.000    0.000    0.000 
#    0.000    0.000    0.000    0.000    0.000    0.000 
#
# Total GULP energy -594727.520159 kJ/mol
# GULP energy per Si atom -12390.156670 kJ/mol
# Density = 1.988029 g / cm^3
# Si number density = 19.925645 Si / 1000 Ang^3
#
#
#
# Elastic Constant Matrix: (Units=GPa)
#
#
# Indices 1 2 3 4 5 6 
#
# 1 84.7687 66.6066 42.7237 0.0000 0.0000 0.0000
# 2 66.6066 193.2323 43.5067 0.0000 0.0000 0.0000
# 3 42.7237 43.5067 98.8355 0.0000 0.0000 0.0000
# 4 0.0000 0.0000 0.0000 25.1172 0.0000 0.0000
# 5 0.0000 0.0000 0.0000 0.0000 31.8443 0.0000
# 6 0.0000 0.0000 0.0000 0.0000 0.0000 38.3498
#
#
#
# Elastic Compliance Matrix: (Units=1/GPa)
#
#
# Indices 1 2 3 4 5 6 
#
# 1 0.018806 -0.005164 -0.005856 0.000000 0.000000 0.000000
# 2 -0.005164 0.007162 -0.000921 0.000000 0.000000 0.000000
# 3 -0.005856 -0.000921 0.013055 0.000000 0.000000 0.000000
# 4 0.000000 0.000000 0.000000 0.039813 0.000000 0.000000
# 5 0.000000 0.000000 0.000000 0.000000 0.031403 0.000000
# 6 0.000000 0.000000 0.000000 0.000000 0.000000 0.026076
#
#
# Mechanical properties :
#
#
# Convention : Reuss Voigt Hill
#
# Bulk Modulus (GPa) = 66.04369 75.83450 70.93910
# Shear Modulus (GPa) = 30.25852 33.99555 32.12703
#
# Velocity S-wave (km/s) = 3.90111 4.13500 4.01976
# Velocity P-wave (km/s) = 7.31496 7.80635 7.56464
#
# Compressibility (1/GPa) = 0.01514149
#
# Stress axis : x y z
#
# Youngs Moduli (GPa) = 53.17533 139.61918 76.60179
#
# Poissons Ratio (x) = 0.72096 0.44859
# Poissons Ratio (y) = 0.27458 0.07052
# Poissons Ratio (z) = 0.31140 0.12854
#
# Static dielectric constant tensor:
#      x y z
#    x 3.898980 0.000000 0.000000 
#    y 0.000000 4.937790 0.000000 
#    z 0.000000 0.000000 3.594640 
# 
# 
# High freq. dielectric constant tensor:
#      x y z
#    x 1.778680 0.000000 0.000000 
#    y 0.000000 1.791820 0.000000 
#    z 0.000000 0.000000 1.778610 
# 
# From -- ./inp_files/23739.got.cif
#   From: 2010.03.12/outbox.cif.g09.slc.cpg/sg67_12_cif.got.tgz:23739.got - 2010.04.10 22:41:39.
