data_PCOD8281256
_publ_section_title
;
Structure prediction by ZEFSAII (Michael W. Deem and Ramdas Pophale) SiO2 
 PCOD8281256
Probable space group: C M M A
;
_chemical_formula_sum "Si O2"
_cell_formula_units_Z 64
_cell_length_a 29.216837
_cell_length_b 21.063378
_cell_length_c 5.084792
_cell_angle_alpha 90.000000
_cell_angle_beta 90.000000
_cell_angle_gamma 90.000000
_cell_volume 3129.207853
_symmetry_space_group_name_H-M "C M M A"
_symmetry_group_IT_number 67
_symmetry_cell_setting 'orthorhombic'
loop_
_space_group_symop_operation_xyz
x,y,z
-x,1/2-y,z
x,-y,-z
-x,1/2+y,-z
-x,-y,-z
x,1/2+y,-z
-x,y,z
x,1/2-y,z
1/2+x,1/2+y,z
1/2-x,-y,z
1/2+x,1/2-y,-z
1/2-x,y,-z
1/2-x,1/2-y,-z
1/2+x,y,-z
1/2-x,1/2+y,z
1/2+x,-y,z
loop_
_atom_site_type_symbol
_atom_site_label
_atom_site_fract_x
_atom_site_fract_y
_atom_site_fract_z
Si Si1 0.841446 0.000000 0.500000
Si Si2 0.500000 0.955446 0.746375
Si Si3 0.596442 0.606636 0.726757
Si Si4 0.630342 0.323337 0.771349
Si Si5 0.781072 0.604132 0.746249
O O1 0.872981 0.044170 0.681530
O O2 0.809627 0.040035 0.304059
O O3 0.456629 0.909813 0.729190
O O4 0.500000 0.000000 0.500000
O O5 0.500000 0.000000 0.000000
O O6 0.608317 0.659178 0.508836
O O7 0.606100 0.633833 0.012621
O O8 0.621624 0.250000 0.829791
O O9 0.684620 0.336832 0.781731
O O10 0.750000 0.621556 0.500000
O O11 0.750000 0.593719 0.000000
#
# Coordination Sequence:
#
# PCOD8281256 Si02
#       5
#     8   8  16  16  16
#     4  10  23  39  64  92 134 164 204 267 335 394
#     4  12  24  42  69 104 137 158 204 261 319 398
#     4  11  24  42  67  98 128 171 208 262 331 383
#     4  11  25  45  65  89 130 176 222 264 311 378
#     4  11  24  39  61  92 125 168 215 268 324 374
#
# _framework density 20.452462000000001
#
# number of rings (size 3 to 8) (size 9 to 14) (size 15 to 20)
#    0.000    1.000    1.250    5.625    3.500    9.000 
#    0.000    3.750    0.000    0.000    0.000    0.000 
#    0.000    0.000    0.000    0.000    0.000    0.000 
#
# Total GULP energy -396986.386087 kJ/mol
# GULP energy per Si atom -12405.824565 kJ/mol
# Density = 2.040591 g / cm^3
# Si number density = 20.452462 Si / 1000 Ang^3
#
#
#
# Elastic Constant Matrix: (Units=GPa)
#
#
# Indices 1 2 3 4 5 6 
#
# 1 162.2664 36.5960 35.8443 0.0000 0.0000 0.0000
# 2 36.5960 88.4184 -0.3810 0.0000 0.0000 0.0000
# 3 35.8443 -0.3810 88.9466 0.0000 0.0000 0.0000
# 4 0.0000 0.0000 0.0000 32.6872 0.0000 0.0000
# 5 0.0000 0.0000 0.0000 0.0000 30.6312 0.0000
# 6 0.0000 0.0000 0.0000 0.0000 0.0000 10.3398
#
#
#
# Elastic Compliance Matrix: (Units=1/GPa)
#
#
# Indices 1 2 3 4 5 6 
#
# 1 0.007544 -0.003136 -0.003054 0.000000 0.000000 0.000000
# 2 -0.003136 0.012613 0.001318 0.000000 0.000000 0.000000
# 3 -0.003054 0.001318 0.012479 0.000000 0.000000 0.000000
# 4 0.000000 0.000000 0.000000 0.030593 0.000000 0.000000
# 5 0.000000 0.000000 0.000000 0.000000 0.032646 0.000000
# 6 0.000000 0.000000 0.000000 0.000000 0.000000 0.096713
#
#
# Mechanical properties :
#
#
# Convention : Reuss Voigt Hill
#
# Bulk Modulus (GPa) = 43.68112 53.75002 48.71557
# Shear Modulus (GPa) = 23.81355 32.56978 28.19167
#
# Velocity S-wave (km/s) = 3.41594 3.99490 3.71671
# Velocity P-wave (km/s) = 6.07963 6.90047 6.50301
#
# Compressibility (1/GPa) = 0.02289319
#
# Stress axis : x y z
#
# Youngs Moduli (GPa) = 132.54703 79.28062 80.13484
#
# Poissons Ratio (x) = 0.24861 0.24471
# Poissons Ratio (y) = 0.41564 -0.10559
# Poissons Ratio (z) = 0.40477 -0.10447
#
# Static dielectric constant tensor:
#      x y z
#    x 3.980210 0.000000 0.000000 
#    y 0.000000 3.624200 0.000000 
#    z 0.000000 0.000000 3.872950 
# 
# 
# High freq. dielectric constant tensor:
#      x y z
#    x 1.811730 0.000000 0.000000 
#    y 0.000000 1.790930 0.000000 
#    z 0.000000 0.000000 1.819590 
# 
# From -- ./inp_files/4034.got.cif
#   From: 2010.03.12/outbox.cif.g09.slc.cpg/sg67_3_cif.got.tgz:4034.got - 2010.04.10 22:41:39.
