data_PCOD8281492
_publ_section_title
;
Structure prediction by ZEFSAII (Michael W. Deem and Ramdas Pophale) SiO2 
 PCOD8281492
Probable space group: C M M A
;
_chemical_formula_sum "Si O2"
_cell_formula_units_Z 96
_cell_length_a 14.955354
_cell_length_b 15.632457
_cell_length_c 20.591632
_cell_angle_alpha 90.000000
_cell_angle_beta 90.000000
_cell_angle_gamma 90.000000
_cell_volume 4814.095578
_symmetry_space_group_name_H-M "C M M A"
_symmetry_group_IT_number 67
_symmetry_cell_setting 'orthorhombic'
loop_
_space_group_symop_operation_xyz
x,y,z
-x,1/2-y,z
x,-y,-z
-x,1/2+y,-z
-x,-y,-z
x,1/2+y,-z
-x,y,z
x,1/2-y,z
1/2+x,1/2+y,z
1/2-x,-y,z
1/2+x,1/2-y,-z
1/2-x,y,-z
1/2-x,1/2-y,-z
1/2+x,y,-z
1/2-x,1/2+y,z
1/2+x,-y,z
loop_
_atom_site_type_symbol
_atom_site_label
_atom_site_fract_x
_atom_site_fract_y
_atom_site_fract_z
Si Si1 0.750000 0.597191 0.745830
Si Si2 0.400217 0.654898 0.163696
Si Si3 0.400217 0.654898 0.836304
Si Si4 0.601747 0.351148 0.500000
Si Si5 0.855160 0.500000 0.927301
Si Si6 0.750000 0.648687 0.399428
O O1 0.750000 0.500000 0.770138
O O2 0.837543 0.641828 0.774287
O O3 0.662457 0.641828 0.774287
O O4 0.750000 0.601132 0.668689
O O5 0.500000 0.646966 0.191351
O O6 0.382786 0.750000 0.134595
O O7 0.387247 0.586047 0.107333
O O8 0.500000 0.646966 0.808649
O O9 0.382787 0.750000 0.865405
O O10 0.387247 0.586047 0.892667
O O11 0.500000 0.390304 0.500000
O O12 0.594163 0.250000 0.500000
O O13 0.659647 0.380196 0.562717
O O14 0.659646 0.380195 0.437282
O O15 0.750000 0.500000 0.928394
O O16 0.894860 0.500000 0.000000
O O17 0.749999 0.750000 0.389266
#
# Coordination Sequence:
#
# PCOD8281492 Si02
#       6
#    16  16  16  16  16  16
#     4  12  23  39  59  84 122 160 199 249 303 357
#     4  11  23  40  63  88 118 159 203 249 301 356
#     4  11  23  40  63  88 118 159 203 249 301 356
#     4   8  15  31  54  80 112 148 190 241 292 345
#     4  11  23  41  65  92 123 159 196 244 303 359
#     4   9  18  32  54  82 111 148 194 243 292 347
#
# _framework density 19.941441000000001
#
# number of rings (size 3 to 8) (size 9 to 14) (size 15 to 20)
#    0.000    1.667    3.333    3.000    0.000    3.333 
#    0.000    8.333    0.000    1.000    0.000    0.000 
#    0.000    0.000    0.000    0.000    0.000    0.000 
#
# Total GULP energy -595079.001304 kJ/mol
# GULP energy per Si atom -12397.479194 kJ/mol
# Density = 1.989605 g / cm^3
# Si number density = 19.941441 Si / 1000 Ang^3
#
#
#
# Elastic Constant Matrix: (Units=GPa)
#
#
# Indices 1 2 3 4 5 6 
#
# 1 170.3539 45.7414 67.5575 0.0000 0.0000 0.0000
# 2 45.7414 124.5617 50.0128 0.0000 0.0000 0.0000
# 3 67.5575 50.0128 144.0414 0.0000 0.0000 0.0000
# 4 0.0000 0.0000 0.0000 28.6188 0.0000 0.0000
# 5 0.0000 0.0000 0.0000 0.0000 -8.9750 0.0000
# 6 0.0000 0.0000 0.0000 0.0000 0.0000 21.0375
#
#
#
# Elastic Compliance Matrix: (Units=1/GPa)
#
#
# Indices 1 2 3 4 5 6 
#
# 1 0.007461 -0.001551 -0.002961 0.000000 0.000000 0.000000
# 2 -0.001551 0.009651 -0.002624 0.000000 0.000000 0.000000
# 3 -0.002961 -0.002624 0.009242 0.000000 0.000000 0.000000
# 4 0.000000 0.000000 0.000000 0.034942 0.000000 0.000000
# 5 0.000000 0.000000 0.000000 0.000000 -0.111421 0.000000
# 6 0.000000 0.000000 0.000000 0.000000 0.000000 0.047534
#
#
# Mechanical properties :
#
#
# Convention : Reuss Voigt Hill
#
# Bulk Modulus (GPa) = 82.75818 85.06449 83.91134
# Shear Modulus (GPa) = 318.32949 26.51263 172.42106
#
# Velocity S-wave (km/s) = 12.64827 3.65022 9.30867
# Velocity P-wave (km/s) = 15.96545 7.77915 12.55808
#
# Compressibility (1/GPa) = 0.01208340
#
# Stress axis : x y z
#
# Youngs Moduli (GPa) = 134.03582 103.61548 108.20221
#
# Poissons Ratio (x) = 0.16071 0.32035
# Poissons Ratio (y) = 0.20789 0.28387
# Poissons Ratio (z) = 0.39683 0.27184
#
# Static dielectric constant tensor:
#      x y z
#    x 4.084510 0.000000 0.000000 
#    y 0.000000 3.575370 0.000000 
#    z 0.000000 0.000000 3.584100 
# 
# 
# High freq. dielectric constant tensor:
#      x y z
#    x 1.794320 0.000000 0.000000 
#    y 0.000000 1.779410 0.000000 
#    z 0.000000 0.000000 1.762900 
# 
# From -- ./inp_files/38446.got.cif
#   From: 2010.03.12/outbox.cif.g09.slc.cpg/sg67_20_cif.got.tgz:38446.got - 2010.04.10 22:41:39.
