data_PCOD8281750
_publ_section_title
;
Structure prediction by ZEFSAII (Michael W. Deem and Ramdas Pophale) SiO2 
 PCOD8281750
Probable space group: C C C A
;
_chemical_formula_sum "Si O2"
_cell_formula_units_Z 104
_cell_length_a 9.649467
_cell_length_b 22.552675
_cell_length_c 28.756571
_cell_angle_alpha 90.000000
_cell_angle_beta 90.000000
_cell_angle_gamma 90.000000
_cell_volume 6258.042168
_symmetry_space_group_name_H-M "C C C A"
_symmetry_group_IT_number 68
_space_group.IT_coordinate_system_code '2'
_symmetry_cell_setting 'orthorhombic'
loop_
_space_group_symop_operation_xyz
x,y,z
-x,1/2-y,z
x,1/2-y,1/2-z
-x,y,1/2-z
-x,-y,-z
x,1/2+y,-z
-x,1/2+y,1/2+z
x,-y,1/2+z
1/2+x,1/2+y,z
1/2-x,-y,z
1/2+x,-y,1/2-z
1/2-x,1/2+y,1/2-z
1/2-x,1/2-y,-z
1/2+x,y,-z
1/2-x,y,1/2+z
1/2+x,1/2-y,1/2+z
loop_
_atom_site_type_symbol
_atom_site_label
_atom_site_fract_x
_atom_site_fract_y
_atom_site_fract_z
Si Si1 0.622374 0.041213 0.983117
Si Si2 0.264389 0.181824 0.753569
Si Si3 0.292464 0.568857 0.576453
Si Si4 0.005532 0.912719 0.892625
Si Si5 0.595917 0.023178 0.162926
Si Si6 0.999659 0.317188 0.178392
Si Si7 0.000000 0.403387 0.750000
O O1 0.593740 0.076882 0.936239
O O2 0.750000 0.000000 0.970779
O O3 0.646831 0.087675 0.026144
O O4 0.500000 0.000000 0.000000
O O5 0.211710 0.250000 0.750000
O O6 0.345138 0.167874 0.802054
O O7 0.381152 0.170740 0.715627
O O8 0.135677 0.137779 0.746159
O O9 0.250000 0.500000 0.571000
O O10 0.396390 0.571752 0.620695
O O11 0.155835 0.605728 0.587569
O O12 0.953768 0.855712 0.865386
O O13 0.007815 0.967742 0.856458
O O14 0.515492 0.053547 0.205535
O O15 0.750000 0.000000 0.177629
O O16 0.000000 0.250000 0.161690
#
# Coordination Sequence:
#
# PCOD8281750 Si02
#       7
#    16  16  16  16  16  16   8
#     4  11  17  30  50  74 102 132 169 200 237 312
#     4   9  19  36  54  73 100 138 182 217 253 303
#     4   8  15  30  47  66  96 133 165 188 246 300
#     4  10  18  31  51  73  98 132 168 212 249 305
#     4   9  19  31  44  69 110 141 158 192 262 318
#     4   9  19  37  57  72  95 138 185 218 253 310
#     4  12  21  30  52  82 111 132 166 220 264 300
#
# _framework density 16.618617
#
# number of rings (size 3 to 8) (size 9 to 14) (size 15 to 20)
#    0.000    2.769    4.615    3.000    0.000    3.692 
#    0.000    0.000    0.000    0.923    0.000    2.154 
#    0.000    0.000    0.000    0.000    0.000    0.000 
#
# Total GULP energy -644178.979997 kJ/mol
# GULP energy per Si atom -12388.057308 kJ/mol
# Density = 1.658079 g / cm^3
# Si number density = 16.618617 Si / 1000 Ang^3
#
#
#
# Elastic Constant Matrix: (Units=GPa)
#
#
# Indices 1 2 3 4 5 6 
#
# 1 75.9237 41.2466 44.5089 0.0000 0.0000 0.0000
# 2 41.2466 62.6140 61.0895 0.0000 0.0000 0.0000
# 3 44.5089 61.0895 145.2467 0.0000 0.0000 0.0000
# 4 0.0000 0.0000 0.0000 19.6022 0.0000 0.0000
# 5 0.0000 0.0000 0.0000 0.0000 24.2988 0.0000
# 6 0.0000 0.0000 0.0000 0.0000 0.0000 22.7445
#
#
#
# Elastic Compliance Matrix: (Units=1/GPa)
#
#
# Indices 1 2 3 4 5 6 
#
# 1 0.020601 -0.012570 -0.001026 0.000000 0.000000 0.000000
# 2 -0.012570 0.034755 -0.010766 0.000000 0.000000 0.000000
# 3 -0.001026 -0.010766 0.011727 0.000000 0.000000 0.000000
# 4 0.000000 0.000000 0.000000 0.051015 0.000000 0.000000
# 5 0.000000 0.000000 0.000000 0.000000 0.041154 0.000000
# 6 0.000000 0.000000 0.000000 0.000000 0.000000 0.043967
#
#
# Mechanical properties :
#
#
# Convention : Reuss Voigt Hill
#
# Bulk Modulus (GPa) = 54.46642 64.16381 59.31512
# Shear Modulus (GPa) = 19.37514 22.45840 20.91677
#
# Velocity S-wave (km/s) = 3.41819 3.68013 3.55157
# Velocity P-wave (km/s) = 6.95875 7.53334 7.25174
#
# Compressibility (1/GPa) = 0.01835994
#
# Stress axis : x y z
#
# Youngs Moduli (GPa) = 48.54018 28.77305 85.27112
#
# Poissons Ratio (x) = 0.36167 0.08751
# Poissons Ratio (y) = 0.61014 0.91800
# Poissons Ratio (z) = 0.04982 0.30976
#
# Static dielectric constant tensor:
#      x y z
#    x 2.930520 0.000000 0.000000 
#    y 0.000000 2.823390 0.000000 
#    z 0.000000 0.000000 3.606890 
# 
# 
# High freq. dielectric constant tensor:
#      x y z
#    x 1.634340 0.000000 0.000000 
#    y 0.000000 1.597800 0.000000 
#    z 0.000000 0.000000 1.650120 
# 
# From -- ./inp_files/54121.got.cif
#   From: 2010.03.12/outbox.cif.g09.slc.cpg/sg68_28_cif.got.tgz:54121.got - 2010.04.10 23:14:56.
