data_PCOD8281658
_publ_section_title
;
Structure prediction by ZEFSAII (Michael W. Deem and Ramdas Pophale) SiO2 
 PCOD8281658
Probable space group: C C C A
;
_chemical_formula_sum "Si O2"
_cell_formula_units_Z 76
_cell_length_a 8.088629
_cell_length_b 16.975507
_cell_length_c 28.054523
_cell_angle_alpha 90.000000
_cell_angle_beta 90.000000
_cell_angle_gamma 90.000000
_cell_volume 3852.126665
_symmetry_space_group_name_H-M "C C C A"
_symmetry_group_IT_number 68
_space_group.IT_coordinate_system_code '2'
_symmetry_cell_setting 'orthorhombic'
loop_
_space_group_symop_operation_xyz
x,y,z
-x,1/2-y,z
x,1/2-y,1/2-z
-x,y,1/2-z
-x,-y,-z
x,1/2+y,-z
-x,1/2+y,1/2+z
x,-y,1/2+z
1/2+x,1/2+y,z
1/2-x,-y,z
1/2+x,-y,1/2-z
1/2-x,1/2+y,1/2-z
1/2-x,1/2-y,-z
1/2+x,y,-z
1/2-x,y,1/2+z
1/2+x,1/2-y,1/2+z
loop_
_atom_site_type_symbol
_atom_site_label
_atom_site_fract_x
_atom_site_fract_y
_atom_site_fract_z
Si Si1 0.060037 0.415875 0.558262
Si Si2 0.750000 0.000000 0.478950
Si Si3 0.550288 0.626380 0.303695
Si Si4 0.750000 0.000000 0.639806
Si Si5 0.000000 0.250000 0.750000
Si Si6 0.500000 0.750000 0.593000
Si Si7 0.745603 0.779218 0.824738
O O1 0.174094 0.432424 0.512628
O O2 0.147094 0.439764 0.607481
O O3 0.888184 0.462778 0.554846
O O4 0.031704 0.322982 0.558340
O O5 0.500000 0.606183 0.250000
O O6 0.622796 0.548361 0.327640
O O7 0.681731 0.697011 0.305035
O O8 0.384914 0.654234 0.331465
O O9 0.110708 0.305462 0.784861
O O10 0.661775 0.732435 0.624320
#
# Coordination Sequence:
#
# PCOD8281658 Si02
#       7
#    16   8  16   8   4   8  16
#     4  10  22  43  65  92 124 160 202 257 318 390
#     4   9  22  44  69  90 126 160 189 256 340 383
#     4  11  21  42  58  87 125 177 212 264 311 363
#     4  11  24  42  59  90 128 162 213 262 312 371
#     4  10  16  34  60  84 120 158 216 266 296 370
#     4  11  22  37  64  98 120 158 218 250 297 388
#     4  10  20  36  63  87 119 168 216 257 311 356
#
# _framework density 19.729361999999998
#
# number of rings (size 3 to 8) (size 9 to 14) (size 15 to 20)
#    0.000    1.684    4.211    0.632    2.947    0.842 
#    5.684    0.000    0.000    0.000    0.000    0.000 
#    0.000    0.000    0.000    0.000    0.000    0.000 
#
# Total GULP energy -471278.026674 kJ/mol
# GULP energy per Si atom -12402.053334 kJ/mol
# Density = 1.968446 g / cm^3
# Si number density = 19.729362 Si / 1000 Ang^3
#
#
#
# Elastic Constant Matrix: (Units=GPa)
#
#
# Indices 1 2 3 4 5 6 
#
# 1 112.1048 43.4420 39.4409 0.0000 0.0000 0.0000
# 2 43.4420 123.8120 49.5786 0.0000 0.0000 0.0000
# 3 39.4409 49.5786 79.2059 0.0000 0.0000 0.0000
# 4 0.0000 0.0000 0.0000 8.2361 0.0000 0.0000
# 5 0.0000 0.0000 0.0000 0.0000 22.1731 0.0000
# 6 0.0000 0.0000 0.0000 0.0000 0.0000 32.9129
#
#
#
# Elastic Compliance Matrix: (Units=1/GPa)
#
#
# Indices 1 2 3 4 5 6 
#
# 1 0.011277 -0.002280 -0.004189 0.000000 0.000000 0.000000
# 2 -0.002280 0.011239 -0.005900 0.000000 0.000000 0.000000
# 3 -0.004189 -0.005900 0.018404 0.000000 0.000000 0.000000
# 4 0.000000 0.000000 0.000000 0.121416 0.000000 0.000000
# 5 0.000000 0.000000 0.000000 0.000000 0.045100 0.000000
# 6 0.000000 0.000000 0.000000 0.000000 0.000000 0.030383
#
#
# Mechanical properties :
#
#
# Convention : Reuss Voigt Hill
#
# Bulk Modulus (GPa) = 61.78893 64.44952 63.11922
# Shear Modulus (GPa) = 18.66013 24.84184 21.75098
#
# Velocity S-wave (km/s) = 3.07873 3.55227 3.32394
# Velocity P-wave (km/s) = 6.63509 7.04007 6.84057
#
# Compressibility (1/GPa) = 0.01618413
#
# Stress axis : x y z
#
# Youngs Moduli (GPa) = 88.67415 88.97469 54.33555
#
# Poissons Ratio (x) = 0.20282 0.22759
# Poissons Ratio (y) = 0.20214 0.32058
# Poissons Ratio (z) = 0.37143 0.52495
#
# Static dielectric constant tensor:
#      x y z
#    x 3.941140 0.000000 0.000000 
#    y 0.000000 3.333040 0.000000 
#    z 0.000000 0.000000 3.442920 
# 
# 
# High freq. dielectric constant tensor:
#      x y z
#    x 1.790440 0.000000 0.000000 
#    y 0.000000 1.745580 0.000000 
#    z 0.000000 0.000000 1.764250 
# 
# From -- ./inp_files/49222.got.cif
#   From: 2010.03.12/outbox.cif.g09.slc.cpg/sg68_25_cif.got.tgz:49222.got - 2010.04.10 23:14:56.
