data_PCOD8281620
_publ_section_title
;
Structure prediction by ZEFSAII (Michael W. Deem and Ramdas Pophale) SiO2 
 PCOD8281620
Probable space group: C C C A
;
_chemical_formula_sum "Si O2"
_cell_formula_units_Z 108
_cell_length_a 18.579044
_cell_length_b 21.046376
_cell_length_c 15.294848
_cell_angle_alpha 90.000000
_cell_angle_beta 90.000000
_cell_angle_gamma 90.000000
_cell_volume 5980.615107
_symmetry_space_group_name_H-M "C C C A"
_symmetry_group_IT_number 68
_space_group.IT_coordinate_system_code '2'
_symmetry_cell_setting 'orthorhombic'
loop_
_space_group_symop_operation_xyz
x,y,z
-x,1/2-y,z
x,1/2-y,1/2-z
-x,y,1/2-z
-x,-y,-z
x,1/2+y,-z
-x,1/2+y,1/2+z
x,-y,1/2+z
1/2+x,1/2+y,z
1/2-x,-y,z
1/2+x,-y,1/2-z
1/2-x,1/2+y,1/2-z
1/2-x,1/2-y,-z
1/2+x,y,-z
1/2-x,y,1/2+z
1/2+x,1/2-y,1/2+z
loop_
_atom_site_type_symbol
_atom_site_label
_atom_site_fract_x
_atom_site_fract_y
_atom_site_fract_z
Si Si1 0.334181 0.072067 0.213994
Si Si2 0.562270 0.841583 0.377295
Si Si3 0.500000 0.750000 0.250000
Si Si4 0.073541 0.132826 0.570776
Si Si5 0.000000 0.750000 0.481480
Si Si6 0.924615 0.079926 0.116650
Si Si7 0.454392 0.055675 0.335827
Si Si8 0.331656 0.076729 0.715084
O O1 0.361838 0.115196 0.134573
O O2 0.380943 0.088960 0.300722
O O3 0.252126 0.090712 0.229247
O O4 0.344550 0.997260 0.191925
O O5 0.557924 0.788772 0.303986
O O6 0.547476 0.803295 0.466968
O O7 0.501948 0.893634 0.357544
O O8 0.637825 0.879722 0.365343
O O9 0.099813 0.110726 0.474917
O O10 0.057811 0.208891 0.573839
O O11 0.998509 0.100721 0.599983
O O12 0.868812 0.096572 0.193683
O O13 0.932064 0.004482 0.106046
O O14 0.500000 0.035284 0.250000
#
# Coordination Sequence:
#
# PCOD8281620 Si02
#       8
#    16  16   4  16   8  16  16  16
#     4   9  20  35  54  79 107 144 170 205 262 323
#     4  10  17  30  51  77 103 135 168 209 266 307
#     4  10  16  24  48  76 102 128 168 196 248 312
#     4  10  19  35  52  74 104 135 178 220 258 294
#     4   9  22  33  51  76 105 136 180 231 253 288
#     4  10  17  29  53  83 102 127 167 226 268 304
#     4   9  17  31  54  76 101 133 175 213 256 312
#     4  10  18  34  55  79 111 134 167 211 267 323
#
# _framework density 18.058343000000001
#
# number of rings (size 3 to 8) (size 9 to 14) (size 15 to 20)
#    0.000    2.370    1.481    3.111    0.000    1.185 
#    0.000   12.963    3.259    0.000    0.000    0.000 
#    0.000    0.000    0.000    0.000    0.000    0.000 
#
# Total GULP energy -669122.599667 kJ/mol
# GULP energy per Si atom -12391.159253 kJ/mol
# Density = 1.801724 g / cm^3
# Si number density = 18.058343 Si / 1000 Ang^3
#
#
#
# Elastic Constant Matrix: (Units=GPa)
#
#
# Indices 1 2 3 4 5 6 
#
# 1 120.8400 36.3702 30.4078 0.0000 0.0000 0.0000
# 2 36.3702 76.2458 38.0063 0.0000 0.0000 0.0000
# 3 30.4078 38.0063 66.5500 0.0000 0.0000 0.0000
# 4 0.0000 0.0000 0.0000 23.4968 0.0000 0.0000
# 5 0.0000 0.0000 0.0000 0.0000 14.3321 0.0000
# 6 0.0000 0.0000 0.0000 0.0000 0.0000 22.2168
#
#
#
# Elastic Compliance Matrix: (Units=1/GPa)
#
#
# Indices 1 2 3 4 5 6 
#
# 1 0.009968 -0.003473 -0.002571 0.000000 0.000000 0.000000
# 2 -0.003473 0.019545 -0.009575 0.000000 0.000000 0.000000
# 3 -0.002571 -0.009575 0.021669 0.000000 0.000000 0.000000
# 4 0.000000 0.000000 0.000000 0.042559 0.000000 0.000000
# 5 0.000000 0.000000 0.000000 0.000000 0.069773 0.000000
# 6 0.000000 0.000000 0.000000 0.000000 0.000000 0.045011
#
#
# Mechanical properties :
#
#
# Convention : Reuss Voigt Hill
#
# Bulk Modulus (GPa) = 50.14124 52.57827 51.35975
# Shear Modulus (GPa) = 20.29124 22.59925 21.44525
#
# Velocity S-wave (km/s) = 3.35572 3.54143 3.44983
# Velocity P-wave (km/s) = 6.54531 6.77505 6.66117
#
# Compressibility (1/GPa) = 0.01994366
#
# Stress axis : x y z
#
# Youngs Moduli (GPa) = 100.32407 51.16351 46.14821
#
# Poissons Ratio (x) = 0.17770 0.11864
# Poissons Ratio (y) = 0.34845 0.44188
# Poissons Ratio (z) = 0.25792 0.48990
#
# Static dielectric constant tensor:
#      x y z
#    x 3.256110 0.000000 0.000000 
#    y 0.000000 3.411650 0.000000 
#    z 0.000000 0.000000 3.283290 
# 
# 
# High freq. dielectric constant tensor:
#      x y z
#    x 1.678610 0.000000 0.000000 
#    y 0.000000 1.695970 0.000000 
#    z 0.000000 0.000000 1.689810 
# 
# From -- ./inp_files/24788.got.cif
#   From: 2010.03.12/outbox.cif.g09.slc.cpg/sg68_13_cif.got.tgz:24788.got - 2010.04.10 23:14:56.
