data_PCOD8281275
_publ_section_title
;
Structure prediction by ZEFSAII (Michael W. Deem and Ramdas Pophale) SiO2 
 PCOD8281275
Probable space group: C M M A
;
_chemical_formula_sum "Si O2"
_cell_formula_units_Z 96
_cell_length_a 14.400473
_cell_length_b 14.679496
_cell_length_c 22.339634
_cell_angle_alpha 90.000000
_cell_angle_beta 90.000000
_cell_angle_gamma 90.000000
_cell_volume 4722.412891
_symmetry_space_group_name_H-M "C M M A"
_symmetry_group_IT_number 67
_symmetry_cell_setting 'orthorhombic'
loop_
_space_group_symop_operation_xyz
x,y,z
-x,1/2-y,z
x,-y,-z
-x,1/2+y,-z
-x,-y,-z
x,1/2+y,-z
-x,y,z
x,1/2-y,z
1/2+x,1/2+y,z
1/2-x,-y,z
1/2+x,1/2-y,-z
1/2-x,y,-z
1/2-x,1/2-y,-z
1/2+x,y,-z
1/2-x,1/2+y,z
1/2+x,-y,z
loop_
_atom_site_type_symbol
_atom_site_label
_atom_site_fract_x
_atom_site_fract_y
_atom_site_fract_z
Si Si1 0.751451 0.856476 0.618010
Si Si2 0.097485 0.250000 0.941073
Si Si3 0.853552 0.590430 0.977897
Si Si4 0.602408 0.647490 0.149450
Si Si5 0.887943 0.750000 0.188749
Si Si6 0.607558 0.999952 0.570878
Si Si7 0.253582 0.391465 0.243374
O O1 0.749051 0.750000 0.597080
O O2 0.843024 0.907295 0.593078
O O3 0.756702 0.860280 0.688992
O O4 0.659122 0.909667 0.595826
O O5 0.157701 0.250000 0.879830
O O6 0.000000 0.250000 0.906963
O O7 0.097021 0.168665 0.986874
O O8 0.855780 0.592055 0.906174
O O9 0.904759 0.500000 0.000000
O O10 0.750000 0.593051 0.000000
O O11 0.500000 0.609282 0.165471
O O12 0.594961 0.750000 0.126466
O O13 0.664518 0.643924 0.208123
O O14 0.847013 0.842966 0.218170
O O15 0.000000 0.750000 0.197733
O O16 0.500000 0.998765 0.592398
O O17 0.614220 0.000000 0.500000
O O18 0.250000 0.500000 0.236916
#
# Coordination Sequence:
#
# PCOD8281275 Si02
#       7
#    16   8  16  16   8  16  16
#     4  11  22  43  69  98 134 183 228 273 327 391
#     4  11  23  41  61  84 119 156 201 266 326 391
#     4  11  24  39  61  87 116 159 207 265 332 399
#     4  11  24  42  64  89 123 165 213 271 336 402
#     4  11  26  45  68  98 131 172 223 282 342 403
#     4  10  23  43  68 104 144 179 222 276 330 387
#     4  12  25  45  67  94 133 172 224 275 331 395
#
# _framework density 20.328590999999999
#
# number of rings (size 3 to 8) (size 9 to 14) (size 15 to 20)
#    0.000    1.000    4.167    2.750    4.667    5.333 
#    0.000    1.667    0.000    0.000    0.000    0.000 
#    0.000    0.000    0.000    0.000    0.000    0.000 
#
# Total GULP energy -594686.000479 kJ/mol
# GULP energy per Si atom -12389.291677 kJ/mol
# Density = 2.028232 g / cm^3
# Si number density = 20.328591 Si / 1000 Ang^3
#
#
#
# Elastic Constant Matrix: (Units=GPa)
#
#
# Indices 1 2 3 4 5 6 
#
# 1 158.2342 54.8714 53.4106 0.0000 0.0000 0.0000
# 2 54.8714 168.9212 35.0387 0.0000 0.0000 0.0000
# 3 53.4106 35.0387 135.2786 0.0000 0.0000 0.0000
# 4 0.0000 0.0000 0.0000 28.6975 0.0000 0.0000
# 5 0.0000 0.0000 0.0000 0.0000 19.2799 0.0000
# 6 0.0000 0.0000 0.0000 0.0000 0.0000 58.5726
#
#
#
# Elastic Compliance Matrix: (Units=1/GPa)
#
#
# Indices 1 2 3 4 5 6 
#
# 1 0.007898 -0.002028 -0.002593 0.000000 0.000000 0.000000
# 2 -0.002028 0.006777 -0.000955 0.000000 0.000000 0.000000
# 3 -0.002593 -0.000955 0.008663 0.000000 0.000000 0.000000
# 4 0.000000 0.000000 0.000000 0.034846 0.000000 0.000000
# 5 0.000000 0.000000 0.000000 0.000000 0.051868 0.000000
# 6 0.000000 0.000000 0.000000 0.000000 0.000000 0.017073
#
#
# Mechanical properties :
#
#
# Convention : Reuss Voigt Hill
#
# Bulk Modulus (GPa) = 82.05448 83.23061 82.64255
# Shear Modulus (GPa) = 35.12763 42.58421 38.85592
#
# Velocity S-wave (km/s) = 4.16142 4.58186 4.37669
# Velocity P-wave (km/s) = 7.97130 8.30799 8.14139
#
# Compressibility (1/GPa) = 0.01218702
#
# Stress axis : x y z
#
# Youngs Moduli (GPa) = 126.61100 147.56643 115.43015
#
# Poissons Ratio (x) = 0.29922 0.29933
# Poissons Ratio (y) = 0.25673 0.11019
# Poissons Ratio (z) = 0.32832 0.14087
#
# Static dielectric constant tensor:
#      x y z
#    x 3.810390 0.000000 0.000000 
#    y 0.000000 3.935070 0.000000 
#    z 0.000000 0.000000 3.794670 
# 
# 
# High freq. dielectric constant tensor:
#      x y z
#    x 1.800650 0.000000 0.000000 
#    y 0.000000 1.803220 0.000000 
#    z 0.000000 0.000000 1.804810 
# 
# From -- ./inp_files/38517.got.cif
#   From: 2010.03.12/outbox.cif.g09.slc.cpg/sg67_20_cif.got.tgz:38517.got - 2010.04.10 22:41:39.
