data_PCOD8281387
_publ_section_title
;
Structure prediction by ZEFSAII (Michael W. Deem and Ramdas Pophale) SiO2 
 PCOD8281387
Probable space group: C M M A
;
_chemical_formula_sum "Si O2"
_cell_formula_units_Z 48
_cell_length_a 18.284170
_cell_length_b 16.325310
_cell_length_c 7.822376
_cell_angle_alpha 90.000000
_cell_angle_beta 90.000000
_cell_angle_gamma 90.000000
_cell_volume 2334.938116
_symmetry_space_group_name_H-M "C M M A"
_symmetry_group_IT_number 67
_symmetry_cell_setting 'orthorhombic'
loop_
_space_group_symop_operation_xyz
x,y,z
-x,1/2-y,z
x,-y,-z
-x,1/2+y,-z
-x,-y,-z
x,1/2+y,-z
-x,y,z
x,1/2-y,z
1/2+x,1/2+y,z
1/2-x,-y,z
1/2+x,1/2-y,-z
1/2-x,y,-z
1/2-x,1/2-y,-z
1/2+x,y,-z
1/2-x,1/2+y,z
1/2+x,-y,z
loop_
_atom_site_type_symbol
_atom_site_label
_atom_site_fract_x
_atom_site_fract_y
_atom_site_fract_z
Si Si1 0.500000 0.580205 0.379772
Si Si2 0.726395 0.250000 0.689293
Si Si3 0.750000 0.000000 0.000000
Si Si4 0.000000 0.750000 0.405064
Si Si5 0.377256 0.250000 0.121071
Si Si6 0.135132 0.883287 0.842560
O O1 0.500000 0.500000 0.500000
O O2 0.500000 0.667326 0.480465
O O3 0.568476 0.573138 0.252715
O O4 0.750000 0.250000 0.500000
O O5 0.792430 0.250000 0.824872
O O6 0.674265 0.326733 0.706591
O O7 0.696464 0.948804 0.117398
O O8 0.071622 0.750000 0.286356
O O9 0.392005 0.168562 0.008293
#
# Coordination Sequence:
#
# PCOD8281387 Si02
#       6
#     8   8   4   4   8  16
#     4  12  29  46  67 104 145 185 227 289 353 415
#     4  11  21  40  70  99 132 178 227 288 347 408
#     4  12  24  40  74  96 132 172 230 292 328 400
#     4  12  26  46  68 100 138 186 228 280 360 400
#     4  11  21  44  72  99 129 188 233 283 342 418
#     4  11  24  44  67 100 135 178 233 279 344 412
#
# _framework density 20.557289999999998
#
# number of rings (size 3 to 8) (size 9 to 14) (size 15 to 20)
#    0.000    0.667    3.333    6.000    4.667    3.333 
#    0.000    0.000    0.000    0.000    0.000    0.000 
#    0.000    0.000    0.000    0.000    0.000    0.000 
#
# Total GULP energy -297526.835574 kJ/mol
# GULP energy per Si atom -12396.951482 kJ/mol
# Density = 2.051050 g / cm^3
# Si number density = 20.557290 Si / 1000 Ang^3
#
#
#
# Elastic Constant Matrix: (Units=GPa)
#
#
# Indices 1 2 3 4 5 6 
#
# 1 164.8149 61.6191 63.2001 0.0000 0.0000 0.0000
# 2 61.6191 143.0649 53.3111 0.0000 0.0000 0.0000
# 3 63.2001 53.3111 114.9523 0.0000 0.0000 0.0000
# 4 0.0000 0.0000 0.0000 12.5026 0.0000 0.0000
# 5 0.0000 0.0000 0.0000 0.0000 -181.6474 0.0000
# 6 0.0000 0.0000 0.0000 0.0000 0.0000 27.1048
#
#
#
# Elastic Compliance Matrix: (Units=1/GPa)
#
#
# Indices 1 2 3 4 5 6 
#
# 1 0.008248 -0.002252 -0.003490 0.000000 0.000000 0.000000
# 2 -0.002252 0.009065 -0.002966 0.000000 0.000000 0.000000
# 3 -0.003490 -0.002966 0.011994 0.000000 0.000000 0.000000
# 4 0.000000 0.000000 0.000000 0.079983 0.000000 0.000000
# 5 0.000000 0.000000 0.000000 0.000000 -0.005505 0.000000
# 6 0.000000 0.000000 0.000000 0.000000 0.000000 0.036894
#
#
# Mechanical properties :
#
#
# Convention : Reuss Voigt Hill
#
# Bulk Modulus (GPa) = 84.10211 86.56586 85.33399
# Shear Modulus (GPa) = 30.85328 -12.09453 9.37938
#
# Velocity S-wave (km/s) = 3.87828 -2.42819 2.13833
# Velocity P-wave (km/s) = 7.81374 5.85999 6.90631
#
# Compressibility (1/GPa) = 0.01189031
#
# Stress axis : x y z
#
# Youngs Moduli (GPa) = 121.24700 110.31541 83.37709
#
# Poissons Ratio (x) = 0.24840 0.29100
# Poissons Ratio (y) = 0.27302 0.24730
# Poissons Ratio (z) = 0.42318 0.32720
#
# Static dielectric constant tensor:
#      x y z
#    x 3.495640 0.000000 0.000000 
#    y 0.000000 3.463400 0.000000 
#    z 0.000000 0.000000 4.060800 
# 
# 
# High freq. dielectric constant tensor:
#      x y z
#    x 1.826950 0.000000 0.000000 
#    y 0.000000 1.807210 0.000000 
#    z 0.000000 0.000000 1.812640 
# 
# From -- ./inp_files/7429.got.cif
#   From: 2010.03.12/outbox.cif.g09.slc.cpg/sg67_4_cif.got.tgz:7429.got - 2010.04.10 22:41:39.
