data_PCOD8281879
_publ_section_title
;
Structure prediction by ZEFSAII (Michael W. Deem and Ramdas Pophale) SiO2 
 PCOD8281879
Probable space group: C C C A
;
_chemical_formula_sum "Si O2"
_cell_formula_units_Z 88
_cell_length_a 23.784922
_cell_length_b 20.732028
_cell_length_c 8.565566
_cell_angle_alpha 90.000000
_cell_angle_beta 90.000000
_cell_angle_gamma 90.000000
_cell_volume 4223.763414
_symmetry_space_group_name_H-M "C C C A"
_symmetry_group_IT_number 68
_space_group.IT_coordinate_system_code '2'
_symmetry_cell_setting 'orthorhombic'
loop_
_space_group_symop_operation_xyz
x,y,z
-x,1/2-y,z
x,1/2-y,1/2-z
-x,y,1/2-z
-x,-y,-z
x,1/2+y,-z
-x,1/2+y,1/2+z
x,-y,1/2+z
1/2+x,1/2+y,z
1/2-x,-y,z
1/2+x,-y,1/2-z
1/2-x,1/2+y,1/2-z
1/2-x,1/2-y,-z
1/2+x,y,-z
1/2-x,y,1/2+z
1/2+x,1/2-y,1/2+z
loop_
_atom_site_type_symbol
_atom_site_label
_atom_site_fract_x
_atom_site_fract_y
_atom_site_fract_z
Si Si1 0.704571 0.919050 0.939929
Si Si2 0.374682 0.325456 0.286506
Si Si3 0.818784 0.551733 0.700064
Si Si4 0.900823 0.139298 0.457179
Si Si5 0.914601 0.250000 0.250000
Si Si6 0.021440 0.182451 0.507161
O O1 0.676047 0.850973 0.895013
O O2 0.771074 0.914491 0.907273
O O3 0.679089 0.975444 0.830616
O O4 0.693445 0.934926 0.119668
O O5 0.368380 0.250000 0.250000
O O6 0.433087 0.344913 0.371764
O O7 0.371858 0.364344 0.125262
O O8 0.878942 0.580898 0.649702
O O9 0.880881 0.207862 0.377503
O O10 0.968468 0.134998 0.480513
O O11 0.951663 0.303822 0.338145
O O12 0.000000 0.250000 0.579992
#
# Coordination Sequence:
#
# PCOD8281879 Si02
#       6
#    16  16  16  16   8  16
#     4  11  24  44  68  91 124 172 215 269 325 388
#     4  12  22  37  62  96 130 170 214 264 320 381
#     4  11  23  45  68  90 124 170 221 265 326 386
#     4  11  21  34  61  91 125 165 217 255 317 377
#     4  10  19  32  54  88 122 166 200 252 319 378
#     4  10  19  34  57  88 126 169 204 253 316 386
#
# _framework density 20.834499000000001
#
# number of rings (size 3 to 8) (size 9 to 14) (size 15 to 20)
#    0.000    1.091    3.636    8.455    0.000    0.000 
#    1.636    2.727    0.000    2.182    0.000    0.000 
#    0.000    0.000    0.000    0.000    0.000    0.000 
#
# Total GULP energy -545379.034036 kJ/mol
# GULP energy per Si atom -12394.978046 kJ/mol
# Density = 2.078708 g / cm^3
# Si number density = 20.834499 Si / 1000 Ang^3
#
#
#
# Elastic Constant Matrix: (Units=GPa)
#
#
# Indices 1 2 3 4 5 6 
#
# 1 93.6438 52.8608 30.9033 0.0000 0.0000 0.0000
# 2 52.8608 66.7206 29.0548 0.0000 0.0000 0.0000
# 3 30.9033 29.0548 151.2330 0.0000 0.0000 0.0000
# 4 0.0000 0.0000 0.0000 31.3880 0.0000 0.0000
# 5 0.0000 0.0000 0.0000 0.0000 31.9093 0.0000
# 6 0.0000 0.0000 0.0000 0.0000 0.0000 42.2502
#
#
#
# Elastic Compliance Matrix: (Units=1/GPa)
#
#
# Indices 1 2 3 4 5 6 
#
# 1 0.019487 -0.014957 -0.001109 0.000000 0.000000 0.000000
# 2 -0.014957 0.027835 -0.002291 0.000000 0.000000 0.000000
# 3 -0.001109 -0.002291 0.007279 0.000000 0.000000 0.000000
# 4 0.000000 0.000000 0.000000 0.031859 0.000000 0.000000
# 5 0.000000 0.000000 0.000000 0.000000 0.031339 0.000000
# 6 0.000000 0.000000 0.000000 0.000000 0.000000 0.023669
#
#
# Mechanical properties :
#
#
# Convention : Reuss Voigt Hill
#
# Bulk Modulus (GPa) = 55.90165 59.69281 57.79723
# Shear Modulus (GPa) = 27.15258 34.36141 30.75700
#
# Velocity S-wave (km/s) = 3.61397 4.06551 3.84637
# Velocity P-wave (km/s) = 6.65612 7.12397 6.89402
#
# Compressibility (1/GPa) = 0.01788856
#
# Stress axis : x y z
#
# Youngs Moduli (GPa) = 51.31519 35.92555 137.37972
#
# Poissons Ratio (x) = 0.53732 0.15231
# Poissons Ratio (y) = 0.76750 0.31480
# Poissons Ratio (z) = 0.05689 0.08232
#
# Static dielectric constant tensor:
#      x y z
#    x 3.741470 0.000000 0.000000 
#    y 0.000000 3.446820 0.000000 
#    z 0.000000 0.000000 4.062490 
# 
# 
# High freq. dielectric constant tensor:
#      x y z
#    x 1.799150 0.000000 0.000000 
#    y 0.000000 1.775600 0.000000 
#    z 0.000000 0.000000 1.849250 
# 
# From -- ./inp_files/7987.got.cif
#   From: 2010.03.12/outbox.cif.g09.slc.cpg/sg68_4_cif.got.tgz:7987.got - 2010.04.10 23:14:56.
