data_PCOD8281692
_publ_section_title
;
Structure prediction by ZEFSAII (Michael W. Deem and Ramdas Pophale) SiO2 
 PCOD8281692
Probable space group: C C C A
;
_chemical_formula_sum "Si O2"
_cell_formula_units_Z 120
_cell_length_a 16.951463
_cell_length_b 22.298397
_cell_length_c 16.158624
_cell_angle_alpha 90.000000
_cell_angle_beta 90.000000
_cell_angle_gamma 90.000000
_cell_volume 6107.805585
_symmetry_space_group_name_H-M "C C C A"
_symmetry_group_IT_number 68
_space_group.IT_coordinate_system_code '2'
_symmetry_cell_setting 'orthorhombic'
loop_
_space_group_symop_operation_xyz
x,y,z
-x,1/2-y,z
x,1/2-y,1/2-z
-x,y,1/2-z
-x,-y,-z
x,1/2+y,-z
-x,1/2+y,1/2+z
x,-y,1/2+z
1/2+x,1/2+y,z
1/2-x,-y,z
1/2+x,-y,1/2-z
1/2-x,1/2+y,1/2-z
1/2-x,1/2-y,-z
1/2+x,y,-z
1/2-x,y,1/2+z
1/2+x,1/2-y,1/2+z
loop_
_atom_site_type_symbol
_atom_site_label
_atom_site_fract_x
_atom_site_fract_y
_atom_site_fract_z
Si Si1 0.924387 0.988765 0.604138
Si Si2 0.429160 0.166555 0.497204
Si Si3 0.799331 0.600944 0.938721
Si Si4 0.588273 0.810692 0.784835
Si Si5 0.750000 0.500000 0.564455
Si Si6 0.142010 0.394023 0.657071
Si Si7 0.897059 0.300009 0.519838
Si Si8 0.591894 0.046069 0.923487
O O1 0.873406 0.928206 0.608653
O O2 0.014550 0.972024 0.629323
O O3 0.887359 0.037355 0.666373
O O4 0.918395 0.016333 0.512988
O O5 0.416603 0.141705 0.404554
O O6 0.521166 0.175361 0.516645
O O7 0.384221 0.230276 0.504427
O O8 0.398367 0.118068 0.564790
O O9 0.731624 0.612946 0.872374
O O10 0.764398 0.557727 0.008079
O O11 0.824749 0.663382 0.980987
O O12 0.627166 0.750000 0.750000
O O13 0.500000 0.815802 0.750000
O O14 0.637541 0.866533 0.748819
O O15 0.595920 0.810402 0.882670
O O16 0.671602 0.482572 0.617827
#
# Coordination Sequence:
#
# PCOD8281692 Si02
#       8
#    16  16  16  16   8  16  16  16
#     4   9  17  30  51  72  99 142 185 219 275 326
#     4  10  17  32  48  76 107 140 180 225 277 339
#     4  11  19  32  51  77 109 141 183 233 281 331
#     4  11  20  35  52  75 109 151 186 224 280 350
#     4  10  18  28  48  74 102 138 174 222 282 324
#     4  11  19  32  53  76 107 148 191 227 277 346
#     4  11  21  31  53  77 109 146 185 229 286 340
#     4   9  16  28  47  75 103 135 176 225 269 328
#
# _framework density 19.646991
#
# number of rings (size 3 to 8) (size 9 to 14) (size 15 to 20)
#    0.000    1.733    8.000    0.800    1.867    0.533 
#    0.000    0.000    2.933    0.000    0.000    0.000 
#    0.000    0.133    0.000    0.000    0.000    0.000 
#
# Total GULP energy -743630.117729 kJ/mol
# GULP energy per Si atom -12393.835295 kJ/mol
# Density = 1.960227 g / cm^3
# Si number density = 19.646991 Si / 1000 Ang^3
#
#
#
# Elastic Constant Matrix: (Units=GPa)
#
#
# Indices 1 2 3 4 5 6 
#
# 1 135.4792 57.2163 30.7712 0.0000 0.0000 0.0000
# 2 57.2163 131.7989 38.1668 0.0000 0.0000 0.0000
# 3 30.7712 38.1668 35.7359 0.0000 0.0000 0.0000
# 4 0.0000 0.0000 0.0000 16.1702 0.0000 0.0000
# 5 0.0000 0.0000 0.0000 0.0000 7.4618 0.0000
# 6 0.0000 0.0000 0.0000 0.0000 0.0000 31.5325
#
#
#
# Elastic Compliance Matrix: (Units=1/GPa)
#
#
# Indices 1 2 3 4 5 6 
#
# 1 0.009759 -0.002611 -0.005615 0.000000 0.000000 0.000000
# 2 -0.002611 0.011683 -0.010230 0.000000 0.000000 0.000000
# 3 -0.005615 -0.010230 0.043744 0.000000 0.000000 0.000000
# 4 0.000000 0.000000 0.000000 0.061842 0.000000 0.000000
# 5 0.000000 0.000000 0.000000 0.000000 0.134016 0.000000
# 6 0.000000 0.000000 0.000000 0.000000 0.000000 0.031713
#
#
# Mechanical properties :
#
#
# Convention : Reuss Voigt Hill
#
# Bulk Modulus (GPa) = 35.36717 61.70253 48.53485
# Shear Modulus (GPa) = 14.74519 22.82354 18.78437
#
# Velocity S-wave (km/s) = 2.74251 3.41204 3.09543
# Velocity P-wave (km/s) = 5.29801 6.85540 6.12639
#
# Compressibility (1/GPa) = 0.02827481
#
# Stress axis : x y z
#
# Youngs Moduli (GPa) = 102.46885 85.59443 22.86035
#
# Poissons Ratio (x) = 0.22345 0.12836
# Poissons Ratio (y) = 0.26750 0.23386
# Poissons Ratio (z) = 0.57538 0.87562
#
# Static dielectric constant tensor:
#      x y z
#    x 3.913630 0.000000 0.000000 
#    y 0.000000 3.925300 0.000000 
#    z 0.000000 0.000000 2.893180 
# 
# 
# High freq. dielectric constant tensor:
#      x y z
#    x 1.770230 0.000000 0.000000 
#    y 0.000000 1.780590 0.000000 
#    z 0.000000 0.000000 1.690940 
# 
# From -- ./inp_files/32306.got.cif
#   From: 2010.03.12/outbox.cif.g09.slc.cpg/sg68_17_cif.got.tgz:32306.got - 2010.04.10 23:14:56.
