data_PCOD8281799
_publ_section_title
;
Structure prediction by ZEFSAII (Michael W. Deem and Ramdas Pophale) SiO2 
 PCOD8281799
Probable space group: C C C A
;
_chemical_formula_sum "Si O2"
_cell_formula_units_Z 128
_cell_length_a 12.609747
_cell_length_b 21.738807
_cell_length_c 23.835827
_cell_angle_alpha 90.000000
_cell_angle_beta 90.000000
_cell_angle_gamma 90.000000
_cell_volume 6533.897309
_symmetry_space_group_name_H-M "C C C A"
_symmetry_group_IT_number 68
_space_group.IT_coordinate_system_code '2'
_symmetry_cell_setting 'orthorhombic'
loop_
_space_group_symop_operation_xyz
x,y,z
-x,1/2-y,z
x,1/2-y,1/2-z
-x,y,1/2-z
-x,-y,-z
x,1/2+y,-z
-x,1/2+y,1/2+z
x,-y,1/2+z
1/2+x,1/2+y,z
1/2-x,-y,z
1/2+x,-y,1/2-z
1/2-x,1/2+y,1/2-z
1/2-x,1/2-y,-z
1/2+x,y,-z
1/2-x,y,1/2+z
1/2+x,1/2-y,1/2+z
loop_
_atom_site_type_symbol
_atom_site_label
_atom_site_fract_x
_atom_site_fract_y
_atom_site_fract_z
Si Si1 0.203577 0.744736 0.312947
Si Si2 0.440677 0.564837 0.005736
Si Si3 0.727147 0.883834 0.080572
Si Si4 0.881308 0.241898 0.101660
Si Si5 0.872962 0.121130 0.680726
Si Si6 0.214766 0.431954 0.911331
Si Si7 0.114444 0.616194 0.307785
Si Si8 0.133022 0.149971 0.023215
O O1 0.248447 0.750000 0.250000
O O2 0.302193 0.729618 0.352759
O O3 0.139480 0.805942 0.329818
O O4 0.121455 0.688964 0.318964
O O5 0.344878 0.562129 0.052308
O O6 0.516649 0.621119 0.020497
O O7 0.500000 0.500000 0.000000
O O8 0.391264 0.582794 0.946039
O O9 0.645614 0.829783 0.095730
O O10 0.792725 0.909922 0.134856
O O11 0.811545 0.856162 0.036798
O O12 0.872597 0.278657 0.042238
O O13 0.000000 0.250000 0.125194
O O14 0.845583 0.102016 0.744605
O O15 0.994242 0.099005 0.675093
O O16 0.250000 0.500000 0.926264
O O17 0.191946 0.424399 0.845693
O O18 0.307250 0.385904 0.927735
#
# Coordination Sequence:
#
# PCOD8281799 Si02
#       8
#    16  16  16  16  16  16  16  16
#     4   9  18  32  54  86 116 153 191 230 279 348
#     4  11  22  38  60  84 112 153 196 239 288 349
#     4  10  22  36  57  86 119 148 191 238 293 354
#     4  11  20  35  54  83 120 152 181 237 294 352
#     4   9  19  35  58  86 117 150 190 237 292 347
#     4  11  22  36  60  83 109 151 198 243 283 342
#     4  10  18  35  60  83 117 150 193 239 288 338
#     4  11  21  38  56  81 115 148 192 236 293 344
#
# _framework density 19.590145
#
# number of rings (size 3 to 8) (size 9 to 14) (size 15 to 20)
#    0.000    1.750    3.750    1.500    0.000    1.750 
#    0.000    0.000    8.250    0.750    0.000    0.000 
#    0.000    0.000    0.000    0.000    0.000    0.000 
#
# Total GULP energy -793322.471590 kJ/mol
# GULP energy per Si atom -12395.663619 kJ/mol
# Density = 1.954556 g / cm^3
# Si number density = 19.590145 Si / 1000 Ang^3
#
#
#
# Elastic Constant Matrix: (Units=GPa)
#
#
# Indices 1 2 3 4 5 6 
#
# 1 99.5683 11.8956 56.2420 0.0000 0.0000 0.0000
# 2 11.8956 37.3370 18.2512 0.0000 0.0000 0.0000
# 3 56.2420 18.2512 120.7117 0.0000 0.0000 0.0000
# 4 0.0000 0.0000 0.0000 48.9757 0.0000 0.0000
# 5 0.0000 0.0000 0.0000 0.0000 84.7491 0.0000
# 6 0.0000 0.0000 0.0000 0.0000 0.0000 25.7205
#
#
#
# Elastic Compliance Matrix: (Units=1/GPa)
#
#
# Indices 1 2 3 4 5 6 
#
# 1 0.013693 -0.001343 -0.006177 0.000000 0.000000 0.000000
# 2 -0.001343 0.029052 -0.003767 0.000000 0.000000 0.000000
# 3 -0.006177 -0.003767 0.011732 0.000000 0.000000 0.000000
# 4 0.000000 0.000000 0.000000 0.020418 0.000000 0.000000
# 5 0.000000 0.000000 0.000000 0.000000 0.011800 0.000000
# 6 0.000000 0.000000 0.000000 0.000000 0.000000 0.038880
#
#
# Mechanical properties :
#
#
# Convention : Reuss Voigt Hill
#
# Bulk Modulus (GPa) = 31.34468 47.82160 39.58314
# Shear Modulus (GPa) = 31.48978 43.30427 37.39703
#
# Velocity S-wave (km/s) = 4.01363 4.70671 4.37392
# Velocity P-wave (km/s) = 6.12486 7.34857 6.76444
#
# Compressibility (1/GPa) = 0.03190334
#
# Stress axis : x y z
#
# Youngs Moduli (GPa) = 73.03132 34.42066 85.24034
#
# Poissons Ratio (x) = 0.04624 0.52650
# Poissons Ratio (y) = 0.09810 0.32108
# Poissons Ratio (z) = 0.45109 0.12965
#
# Static dielectric constant tensor:
#      x y z
#    x 3.645620 0.000000 0.000000 
#    y 0.000000 3.281650 0.000000 
#    z 0.000000 0.000000 3.670380 
# 
# 
# High freq. dielectric constant tensor:
#      x y z
#    x 1.768990 0.000000 0.000000 
#    y 0.000000 1.739260 0.000000 
#    z 0.000000 0.000000 1.764330 
# 
# From -- ./inp_files/44727.got.cif
#   From: 2010.03.12/outbox.cif.g09.slc.cpg/sg68_23_cif.got.tgz:44727.got - 2010.04.10 23:14:56.
