data_PCOD8281167
_publ_section_title
;
Structure prediction by ZEFSAII (Michael W. Deem and Ramdas Pophale) SiO2 
 PCOD8281167
Probable space group: C M M A
;
_chemical_formula_sum "Si O2"
_cell_formula_units_Z 60
_cell_length_a 18.729646
_cell_length_b 9.422512
_cell_length_c 17.294251
_cell_angle_alpha 90.000000
_cell_angle_beta 90.000000
_cell_angle_gamma 90.000000
_cell_volume 3052.094850
_symmetry_space_group_name_H-M "C M M A"
_symmetry_group_IT_number 67
_symmetry_cell_setting 'orthorhombic'
loop_
_space_group_symop_operation_xyz
x,y,z
-x,1/2-y,z
x,-y,-z
-x,1/2+y,-z
-x,-y,-z
x,1/2+y,-z
-x,y,z
x,1/2-y,z
1/2+x,1/2+y,z
1/2-x,-y,z
1/2+x,1/2-y,-z
1/2-x,y,-z
1/2-x,1/2-y,-z
1/2+x,y,-z
1/2-x,1/2+y,z
1/2+x,-y,z
loop_
_atom_site_type_symbol
_atom_site_label
_atom_site_fract_x
_atom_site_fract_y
_atom_site_fract_z
Si Si1 0.500000 0.578492 0.580136
Si Si2 0.750000 0.000000 0.500000
Si Si3 0.684029 0.412806 0.793984
Si Si4 0.636545 0.910334 0.376364
Si Si5 0.081478 0.414579 0.071904
O O1 0.500000 0.750000 0.574065
O O2 0.500000 0.500000 0.500000
O O3 0.426913 0.525397 0.619108
O O4 0.696339 0.912594 0.444342
O O5 0.703538 0.250000 0.804312
O O6 0.750000 0.500000 0.826446
O O7 0.671853 0.449945 0.704673
O O8 0.616945 0.455493 0.846637
O O9 0.604925 0.750000 0.375571
O O10 0.090535 0.250000 0.052550
O O11 0.000000 0.460231 0.082530
O O12 0.115849 0.500000 0.000000
#
# Coordination Sequence:
#
# PCOD8281167 Si02
#       5
#     8   4  16  16  16
#     4  12  26  42  62  88 119 156 205 254 305 362
#     4  12  22  38  68  90 124 158 210 244 302 354
#     4  10  22  39  60  88 121 159 197 245 301 361
#     4  11  24  41  63  90 123 161 202 251 306 359
#     4   9  19  37  61  86 116 154 200 244 297 358
#
# _framework density 19.658629999999999
#
# number of rings (size 3 to 8) (size 9 to 14) (size 15 to 20)
#    0.000    1.600    2.667    1.600    1.867    3.733 
#    0.000    2.667    0.000    0.000    0.000    0.000 
#    0.000    0.000    0.000    0.000    0.000    0.000 
#
# Total GULP energy -371830.951544 kJ/mol
# GULP energy per Si atom -12394.365051 kJ/mol
# Density = 1.961389 g / cm^3
# Si number density = 19.658630 Si / 1000 Ang^3
#
#
#
# Elastic Constant Matrix: (Units=GPa)
#
#
# Indices 1 2 3 4 5 6 
#
# 1 110.8192 58.2013 51.5423 0.0000 0.0000 0.0000
# 2 58.2013 95.9379 43.4919 0.0000 0.0000 0.0000
# 3 51.5423 43.4919 140.1191 0.0000 0.0000 0.0000
# 4 0.0000 0.0000 0.0000 30.2826 0.0000 0.0000
# 5 0.0000 0.0000 0.0000 0.0000 23.4363 0.0000
# 6 0.0000 0.0000 0.0000 0.0000 0.0000 34.8024
#
#
#
# Elastic Compliance Matrix: (Units=1/GPa)
#
#
# Indices 1 2 3 4 5 6 
#
# 1 0.014234 -0.007287 -0.002974 0.000000 0.000000 0.000000
# 2 -0.007287 0.015861 -0.002243 0.000000 0.000000 0.000000
# 3 -0.002974 -0.002243 0.008927 0.000000 0.000000 0.000000
# 4 0.000000 0.000000 0.000000 0.033022 0.000000 0.000000
# 5 0.000000 0.000000 0.000000 0.000000 0.042669 0.000000
# 6 0.000000 0.000000 0.000000 0.000000 0.000000 0.028734
#
#
# Mechanical properties :
#
#
# Convention : Reuss Voigt Hill
#
# Bulk Modulus (GPa) = 71.35525 72.59414 71.97469
# Shear Modulus (GPa) = 28.88088 30.61364 29.74726
#
# Velocity S-wave (km/s) = 3.83707 3.95050 3.89420
# Velocity P-wave (km/s) = 7.48377 7.60369 7.54397
#
# Compressibility (1/GPa) = 0.01401439
#
# Stress axis : x y z
#
# Youngs Moduli (GPa) = 70.25441 63.04900 112.02107
#
# Poissons Ratio (x) = 0.45943 0.33317
# Poissons Ratio (y) = 0.51193 0.25122
# Poissons Ratio (z) = 0.20895 0.14139
#
# Static dielectric constant tensor:
#      x y z
#    x 3.513430 0.000000 0.000000 
#    y 0.000000 3.928010 0.000000 
#    z 0.000000 0.000000 3.803430 
# 
# 
# High freq. dielectric constant tensor:
#      x y z
#    x 1.768180 0.000000 0.000000 
#    y 0.000000 1.761190 0.000000 
#    z 0.000000 0.000000 1.774300 
# 
# From -- ./inp_files/33935.got.cif
#   From: 2010.03.12/outbox.cif.g09.slc.cpg/sg67_17_cif.got.tgz:33935.got - 2010.04.10 22:41:39.
