data_PCOD8281026
_publ_section_title
;
Structure prediction by ZEFSAII (Michael W. Deem and Ramdas Pophale) SiO2 
 PCOD8281026
Probable space group: C M M A
;
_chemical_formula_sum "Si O2"
_cell_formula_units_Z 64
_cell_length_a 8.928603
_cell_length_b 17.763815
_cell_length_c 20.676179
_cell_angle_alpha 90.000000
_cell_angle_beta 90.000000
_cell_angle_gamma 90.000000
_cell_volume 3279.367120
_symmetry_space_group_name_H-M "C M M A"
_symmetry_group_IT_number 67
_symmetry_cell_setting 'orthorhombic'
loop_
_space_group_symop_operation_xyz
x,y,z
-x,1/2-y,z
x,-y,-z
-x,1/2+y,-z
-x,-y,-z
x,1/2+y,-z
-x,y,z
x,1/2-y,z
1/2+x,1/2+y,z
1/2-x,-y,z
1/2+x,1/2-y,-z
1/2-x,y,-z
1/2-x,1/2-y,-z
1/2+x,y,-z
1/2-x,1/2+y,z
1/2+x,-y,z
loop_
_atom_site_type_symbol
_atom_site_label
_atom_site_fract_x
_atom_site_fract_y
_atom_site_fract_z
Si Si1 0.664025 0.839102 0.060880
Si Si2 0.677129 0.336917 0.795995
Si Si3 0.669378 0.160772 0.564070
Si Si4 0.822104 0.580129 0.320130
O O1 0.500000 0.874933 0.058593
O O2 0.654445 0.750000 0.052478
O O3 0.734259 0.856920 0.131327
O O4 0.750000 0.875547 0.000000
O O5 0.500000 0.352130 0.788746
O O6 0.711696 0.250000 0.779577
O O7 0.770407 0.390513 0.749509
O O8 0.500000 0.128527 0.567965
O O9 0.664915 0.250000 0.561900
O O10 0.750000 0.128438 0.500000
O O11 0.764951 0.137527 0.625932
O O12 0.750000 0.500000 0.334758
O O13 0.000000 0.574252 0.322137
#
# Coordination Sequence:
#
# PCOD8281026 Si02
#       4
#    16  16  16  16
#     4   8  14  25  44  72 105 138 172 214 264 316
#     4   9  18  34  55  79 109 144 180 221 271 323
#     4  10  21  39  63  89 116 144 176 217 264 315
#     4  12  25  39  56  79 109 145 185 226 270 320
#
# _framework density 19.515961000000001
#
# number of rings (size 3 to 8) (size 9 to 14) (size 15 to 20)
#    0.000    2.250    0.000    5.250    0.000    6.500 
#    0.000    5.000    0.000    0.750    0.000    5.250 
#    0.000    0.000    0.000    0.000    0.000    0.000 
#
# Total GULP energy -396709.824853 kJ/mol
# GULP energy per Si atom -12397.182027 kJ/mol
# Density = 1.947154 g / cm^3
# Si number density = 19.515961 Si / 1000 Ang^3
#
#
#
# Elastic Constant Matrix: (Units=GPa)
#
#
# Indices 1 2 3 4 5 6 
#
# 1 124.4788 20.6408 55.9257 0.0000 0.0000 0.0000
# 2 20.6408 21.2771 12.3996 0.0000 0.0000 0.0000
# 3 55.9257 12.3996 139.7105 0.0000 0.0000 0.0000
# 4 0.0000 0.0000 0.0000 2.0500 0.0000 0.0000
# 5 0.0000 0.0000 0.0000 0.0000 37.0353 0.0000
# 6 0.0000 0.0000 0.0000 0.0000 0.0000 25.6333
#
#
#
# Elastic Compliance Matrix: (Units=1/GPa)
#
#
# Indices 1 2 3 4 5 6 
#
# 1 0.011122 -0.008642 -0.003685 0.000000 0.000000 0.000000
# 2 -0.008642 0.056277 -0.001535 0.000000 0.000000 0.000000
# 3 -0.003685 -0.001535 0.008769 0.000000 0.000000 0.000000
# 4 0.000000 0.000000 0.000000 0.487794 0.000000 0.000000
# 5 0.000000 0.000000 0.000000 0.000000 0.027001 0.000000
# 6 0.000000 0.000000 0.000000 0.000000 0.000000 0.039012
#
#
# Mechanical properties :
#
#
# Convention : Reuss Voigt Hill
#
# Bulk Modulus (GPa) = 20.64264 51.48873 36.06569
# Shear Modulus (GPa) = 7.42007 26.04375 16.73191
#
# Velocity S-wave (km/s) = 1.95200 3.65702 2.93122
# Velocity P-wave (km/s) = 3.95988 6.65371 5.47506
#
# Compressibility (1/GPa) = 0.04844341
#
# Stress axis : x y z
#
# Youngs Moduli (GPa) = 89.91061 17.76919 114.03690
#
# Poissons Ratio (x) = 0.15356 0.42025
# Poissons Ratio (y) = 0.77700 0.17509
# Poissons Ratio (z) = 0.33134 0.02728
#
# Static dielectric constant tensor:
#      x y z
#    x 3.815540 0.000000 0.000000 
#    y 0.000000 3.167950 0.000000 
#    z 0.000000 0.000000 3.838900 
# 
# 
# High freq. dielectric constant tensor:
#      x y z
#    x 1.760240 0.000000 0.000000 
#    y 0.000000 1.720640 0.000000 
#    z 0.000000 0.000000 1.781350 
# 
# From -- ./inp_files/31746.got.cif
#   From: 2010.03.12/outbox.cif.g09.slc.cpg/sg67_16_cif.got.tgz:31746.got - 2010.04.10 22:41:39.
