data_PCOD8281975
_publ_section_title
;
Structure prediction by ZEFSAII (Michael W. Deem and Ramdas Pophale) SiO2 
 PCOD8281975
Probable space group: C C C A
;
_chemical_formula_sum "Si O2"
_cell_formula_units_Z 68
_cell_length_a 13.706299
_cell_length_b 18.979309
_cell_length_c 11.664622
_cell_angle_alpha 90.000000
_cell_angle_beta 90.000000
_cell_angle_gamma 90.000000
_cell_volume 3034.389088
_symmetry_space_group_name_H-M "C C C A"
_symmetry_group_IT_number 68
_space_group.IT_coordinate_system_code '2'
_symmetry_cell_setting 'orthorhombic'
loop_
_space_group_symop_operation_xyz
x,y,z
-x,1/2-y,z
x,1/2-y,1/2-z
-x,y,1/2-z
-x,-y,-z
x,1/2+y,-z
-x,1/2+y,1/2+z
x,-y,1/2+z
1/2+x,1/2+y,z
1/2-x,-y,z
1/2+x,-y,1/2-z
1/2-x,1/2+y,1/2-z
1/2-x,1/2-y,-z
1/2+x,y,-z
1/2-x,y,1/2+z
1/2+x,1/2-y,1/2+z
loop_
_atom_site_type_symbol
_atom_site_label
_atom_site_fract_x
_atom_site_fract_y
_atom_site_fract_z
Si Si1 0.699907 0.924088 0.467467
Si Si2 0.495062 0.435430 0.583858
Si Si3 0.645255 0.972157 0.707840
Si Si4 0.609768 0.362802 0.105193
Si Si5 0.500000 0.750000 0.750000
O O1 0.607248 0.917704 0.380530
O O2 0.660218 0.919201 0.599023
O O3 0.775463 0.862230 0.432090
O O4 0.750000 0.000000 0.460349
O O5 0.500000 0.500000 0.500000
O O6 0.422913 0.459006 0.685908
O O7 0.450475 0.370095 0.512679
O O8 0.592868 0.929103 0.809354
O O9 0.750000 0.000000 0.751871
O O10 0.573856 0.293348 0.169493
#
# Coordination Sequence:
#
# PCOD8281975 Si02
#       5
#    16  16  16  16   4
#     4  10  19  36  57  91 121 150 195 258 315 355
#     4  10  19  36  57  89 123 151 191 259 317 356
#     4  10  20  36  64  98 119 154 191 260 331 352
#     4  12  23  42  57  89 127 158 211 241 297 381
#     4  12  28  40  64  80 122 186 204 238 288 372
#
# _framework density 22.409783000000001
#
# number of rings (size 3 to 8) (size 9 to 14) (size 15 to 20)
#    0.000    1.412    7.059    3.529    0.000    0.000 
#    4.235    4.706    0.000    0.000    0.000    1.647 
#    0.000    0.000    0.000    0.000    0.000    0.000 
#
# Total GULP energy -421273.430238 kJ/mol
# GULP energy per Si atom -12390.395007 kJ/mol
# Density = 2.235878 g / cm^3
# Si number density = 22.409783 Si / 1000 Ang^3
#
#
#
# Elastic Constant Matrix: (Units=GPa)
#
#
# Indices 1 2 3 4 5 6 
#
# 1 199.1065 39.0835 33.3910 0.0000 0.0000 0.0000
# 2 39.0835 64.0442 19.1792 0.0000 0.0000 0.0000
# 3 33.3910 19.1792 90.7231 0.0000 0.0000 0.0000
# 4 0.0000 0.0000 0.0000 15.9969 0.0000 0.0000
# 5 0.0000 0.0000 0.0000 0.0000 32.9006 0.0000
# 6 0.0000 0.0000 0.0000 0.0000 0.0000 30.9844
#
#
#
# Elastic Compliance Matrix: (Units=1/GPa)
#
#
# Indices 1 2 3 4 5 6 
#
# 1 0.005892 -0.003145 -0.001504 0.000000 0.000000 0.000000
# 2 -0.003145 0.018349 -0.002721 0.000000 0.000000 0.000000
# 3 -0.001504 -0.002721 0.012151 0.000000 0.000000 0.000000
# 4 0.000000 0.000000 0.000000 0.062512 0.000000 0.000000
# 5 0.000000 0.000000 0.000000 0.000000 0.030395 0.000000
# 6 0.000000 0.000000 0.000000 0.000000 0.000000 0.032274
#
#
# Mechanical properties :
#
#
# Convention : Reuss Voigt Hill
#
# Bulk Modulus (GPa) = 46.18659 59.68680 52.93670
# Shear Modulus (GPa) = 27.24340 33.45773 30.35056
#
# Velocity S-wave (km/s) = 3.49046 3.86812 3.68413
# Velocity P-wave (km/s) = 6.07447 6.82949 6.46301
#
# Compressibility (1/GPa) = 0.02165131
#
# Stress axis : x y z
#
# Youngs Moduli (GPa) = 169.72102 54.50000 82.29600
#
# Poissons Ratio (x) = 0.17142 0.12374
# Poissons Ratio (y) = 0.53383 0.22395
# Poissons Ratio (z) = 0.25520 0.14831
#
# Static dielectric constant tensor:
#      x y z
#    x 5.368970 0.000000 0.000000 
#    y 0.000000 3.337550 0.000000 
#    z 0.000000 0.000000 4.900720 
# 
# 
# High freq. dielectric constant tensor:
#      x y z
#    x 1.921620 0.000000 0.000000 
#    y 0.000000 1.779420 0.000000 
#    z 0.000000 0.000000 1.909620 
# 
# From -- ./inp_files/13032.got.cif
#   From: 2010.03.12/outbox.cif.g09.slc.cpg/sg68_7_cif.got.tgz:13032.got - 2010.04.10 23:14:56.
