data_PCOD8281829
_publ_section_title
;
Structure prediction by ZEFSAII (Michael W. Deem and Ramdas Pophale) SiO2 
 PCOD8281829
Probable space group: C C C A
;
_chemical_formula_sum "Si O2"
_cell_formula_units_Z 80
_cell_length_a 13.357644
_cell_length_b 17.776810
_cell_length_c 17.479401
_cell_angle_alpha 90.000000
_cell_angle_beta 90.000000
_cell_angle_gamma 90.000000
_cell_volume 4150.593878
_symmetry_space_group_name_H-M "C C C A"
_symmetry_group_IT_number 68
_space_group.IT_coordinate_system_code '2'
_symmetry_cell_setting 'orthorhombic'
loop_
_space_group_symop_operation_xyz
x,y,z
-x,1/2-y,z
x,1/2-y,1/2-z
-x,y,1/2-z
-x,-y,-z
x,1/2+y,-z
-x,1/2+y,1/2+z
x,-y,1/2+z
1/2+x,1/2+y,z
1/2-x,-y,z
1/2+x,-y,1/2-z
1/2-x,1/2+y,1/2-z
1/2-x,1/2-y,-z
1/2+x,y,-z
1/2-x,y,1/2+z
1/2+x,1/2-y,1/2+z
loop_
_atom_site_type_symbol
_atom_site_label
_atom_site_fract_x
_atom_site_fract_y
_atom_site_fract_z
Si Si1 0.128557 0.419660 0.858012
Si Si2 0.712073 0.922459 0.224342
Si Si3 0.000000 0.514565 0.750000
Si Si4 0.749071 0.147308 0.071955
Si Si5 0.895611 0.217579 0.960066
Si Si6 0.250000 0.500000 0.981818
O O1 0.225234 0.408767 0.802311
O O2 0.032355 0.458476 0.818624
O O3 0.095526 0.337543 0.886959
O O4 0.158523 0.472947 0.928660
O O5 0.592847 0.929705 0.235610
O O6 0.731878 0.858022 0.162618
O O7 0.750000 0.000000 0.187213
O O8 0.667675 0.210581 0.062531
O O9 0.851492 0.172689 0.031821
O O10 0.711510 0.069117 0.034219
O O11 0.000000 0.250000 0.987434
#
# Coordination Sequence:
#
# PCOD8281829 Si02
#       6
#    16  16   8  16  16   8
#     4  10  21  38  61  89 125 153 200 255 303 353
#     4  10  20  38  60  92 119 151 202 254 297 355
#     4  10  20  36  63  93 114 152 200 252 298 358
#     4  10  22  40  61  87 122 156 203 250 297 359
#     4  10  24  41  59  89 123 163 200 244 305 373
#     4  10  18  38  64  84 118 158 192 254 300 338
#
# _framework density 19.274350999999999
#
# number of rings (size 3 to 8) (size 9 to 14) (size 15 to 20)
#    0.000    2.000    4.000    0.000    5.600    2.400 
#    3.600    4.000    0.000    0.000    0.000    0.000 
#    0.000    0.000    0.000    0.000    0.000    0.000 
#
# Total GULP energy -495793.259012 kJ/mol
# GULP energy per Si atom -12394.831475 kJ/mol
# Density = 1.923048 g / cm^3
# Si number density = 19.274351 Si / 1000 Ang^3
#
#
#
# Elastic Constant Matrix: (Units=GPa)
#
#
# Indices 1 2 3 4 5 6 
#
# 1 88.4180 7.5575 16.0372 0.0000 0.0000 0.0000
# 2 7.5575 90.6648 28.9352 0.0000 0.0000 0.0000
# 3 16.0372 28.9352 76.6368 0.0000 0.0000 0.0000
# 4 0.0000 0.0000 0.0000 50.2939 0.0000 0.0000
# 5 0.0000 0.0000 0.0000 0.0000 56.2827 0.0000
# 6 0.0000 0.0000 0.0000 0.0000 0.0000 19.9345
#
#
#
# Elastic Compliance Matrix: (Units=1/GPa)
#
#
# Indices 1 2 3 4 5 6 
#
# 1 0.011760 -0.000222 -0.002377 0.000000 0.000000 0.000000
# 2 -0.000222 0.012545 -0.004690 0.000000 0.000000 0.000000
# 3 -0.002377 -0.004690 0.015317 0.000000 0.000000 0.000000
# 4 0.000000 0.000000 0.000000 0.019883 0.000000 0.000000
# 5 0.000000 0.000000 0.000000 0.000000 0.017767 0.000000
# 6 0.000000 0.000000 0.000000 0.000000 0.000000 0.050164
#
#
# Mechanical properties :
#
#
# Convention : Reuss Voigt Hill
#
# Bulk Modulus (GPa) = 39.92995 40.08661 40.00828
# Shear Modulus (GPa) = 33.25293 38.84819 36.05056
#
# Velocity S-wave (km/s) = 4.15811 4.49435 4.32949
# Velocity P-wave (km/s) = 6.61927 6.91196 6.76720
#
# Compressibility (1/GPa) = 0.02504386
#
# Stress axis : x y z
#
# Youngs Moduli (GPa) = 85.03369 79.71341 65.28758
#
# Poissons Ratio (x) = 0.01766 0.15521
# Poissons Ratio (y) = 0.01884 0.30621
# Poissons Ratio (z) = 0.20215 0.37387
#
# Static dielectric constant tensor:
#      x y z
#    x 3.787310 0.000000 0.000000 
#    y 0.000000 3.627200 0.000000 
#    z 0.000000 0.000000 3.544770 
# 
# 
# High freq. dielectric constant tensor:
#      x y z
#    x 1.742340 0.000000 0.000000 
#    y 0.000000 1.751470 0.000000 
#    z 0.000000 0.000000 1.751900 
# 
# From -- ./inp_files/31792.got.cif
#   From: 2010.03.12/outbox.cif.g09.slc.cpg/sg68_16_cif.got.tgz:31792.got - 2010.04.10 23:14:56.
