data_PCOD8281311
_publ_section_title
;
Structure prediction by ZEFSAII (Michael W. Deem and Ramdas Pophale) SiO2 
 PCOD8281311
Probable space group: C M M A
;
_chemical_formula_sum "Si O2"
_cell_formula_units_Z 44
_cell_length_a 9.444284
_cell_length_b 14.477099
_cell_length_c 15.848086
_cell_angle_alpha 90.000000
_cell_angle_beta 90.000000
_cell_angle_gamma 90.000000
_cell_volume 2166.842783
_symmetry_space_group_name_H-M "C M M A"
_symmetry_group_IT_number 67
_symmetry_cell_setting 'orthorhombic'
loop_
_space_group_symop_operation_xyz
x,y,z
-x,1/2-y,z
x,-y,-z
-x,1/2+y,-z
-x,-y,-z
x,1/2+y,-z
-x,y,z
x,1/2-y,z
1/2+x,1/2+y,z
1/2-x,-y,z
1/2+x,1/2-y,-z
1/2-x,y,-z
1/2-x,1/2-y,-z
1/2+x,y,-z
1/2-x,1/2+y,z
1/2+x,-y,z
loop_
_atom_site_type_symbol
_atom_site_label
_atom_site_fract_x
_atom_site_fract_y
_atom_site_fract_z
Si Si1 0.162118 0.250000 0.415547
Si Si2 0.333567 0.409403 0.713806
Si Si3 0.156152 0.646591 0.128982
Si Si4 0.750000 0.000000 0.000000
O O1 0.250000 0.250000 0.500000
O O2 0.199540 0.338682 0.360355
O O3 0.000000 0.250000 0.442819
O O4 0.500000 0.428690 0.724453
O O5 0.250000 0.500000 0.686797
O O6 0.277288 0.371863 0.802731
O O7 0.180677 0.750000 0.091483
O O8 0.000000 0.641182 0.171282
O O9 0.156249 0.568551 0.056854
#
# Coordination Sequence:
#
# PCOD8281311 Si02
#       4
#     8  16  16   4
#     4  10  24  44  68  99 132 169 210 263 320 381
#     4  11  23  42  67  96 130 169 214 265 323 384
#     4  11  24  41  63  93 129 172 218 266 324 383
#     4  12  24  40  64  96 132 172 220 272 318 378
#
# _framework density 20.306041
#
# number of rings (size 3 to 8) (size 9 to 14) (size 15 to 20)
#    0.000    1.091    3.636    2.182    0.000    5.091 
#    0.000    3.636    0.000    0.000    0.000    0.000 
#    0.000    0.000    0.000    0.000    0.000    0.000 
#
# Total GULP energy -272764.589713 kJ/mol
# GULP energy per Si atom -12398.390442 kJ/mol
# Density = 2.025982 g / cm^3
# Si number density = 20.306041 Si / 1000 Ang^3
#
#
#
# Elastic Constant Matrix: (Units=GPa)
#
#
# Indices 1 2 3 4 5 6 
#
# 1 139.8979 81.8119 70.9855 0.0000 0.0000 0.0000
# 2 81.8119 197.4644 76.9326 0.0000 0.0000 0.0000
# 3 70.9855 76.9326 134.7236 0.0000 0.0000 0.0000
# 4 0.0000 0.0000 0.0000 22.2205 0.0000 0.0000
# 5 0.0000 0.0000 0.0000 0.0000 33.6698 0.0000
# 6 0.0000 0.0000 0.0000 0.0000 0.0000 33.1142
#
#
#
# Elastic Compliance Matrix: (Units=1/GPa)
#
#
# Indices 1 2 3 4 5 6 
#
# 1 0.010941 -0.002941 -0.004085 0.000000 0.000000 0.000000
# 2 -0.002941 0.007304 -0.002621 0.000000 0.000000 0.000000
# 3 -0.004085 -0.002621 0.011072 0.000000 0.000000 0.000000
# 4 0.000000 0.000000 0.000000 0.045003 0.000000 0.000000
# 5 0.000000 0.000000 0.000000 0.000000 0.029700 0.000000
# 6 0.000000 0.000000 0.000000 0.000000 0.000000 0.030199
#
#
# Mechanical properties :
#
#
# Convention : Reuss Voigt Hill
#
# Bulk Modulus (GPa) = 99.78437 103.50511 101.64474
# Shear Modulus (GPa) = 31.87660 33.95796 32.91728
#
# Velocity S-wave (km/s) = 3.96638 4.09382 4.03060
# Velocity P-wave (km/s) = 8.37992 8.56908 8.47503
#
# Compressibility (1/GPa) = 0.01002161
#
# Stress axis : x y z
#
# Youngs Moduli (GPa) = 91.39893 136.91028 90.31963
#
# Poissons Ratio (x) = 0.40271 0.36897
# Poissons Ratio (y) = 0.26884 0.23673
# Poissons Ratio (z) = 0.37338 0.35885
#
# Static dielectric constant tensor:
#      x y z
#    x 3.703230 0.000000 0.000000 
#    y 0.000000 4.116300 0.000000 
#    z 0.000000 0.000000 3.467410 
# 
# 
# High freq. dielectric constant tensor:
#      x y z
#    x 1.802450 0.000000 0.000000 
#    y 0.000000 1.822070 0.000000 
#    z 0.000000 0.000000 1.775080 
# 
# From -- ./inp_files/27978.got.cif
#   From: 2010.03.12/outbox.cif.g09.slc.cpg/sg67_14_cif.got.tgz:27978.got - 2010.04.10 22:41:39.
