data_PCOD8281487
_publ_section_title
;
Structure prediction by ZEFSAII (Michael W. Deem and Ramdas Pophale) SiO2 
 PCOD8281487
Probable space group: C M M A
;
_chemical_formula_sum "Si O2"
_cell_formula_units_Z 112
_cell_length_a 23.371158
_cell_length_b 14.613510
_cell_length_c 14.472592
_cell_angle_alpha 90.000000
_cell_angle_beta 90.000000
_cell_angle_gamma 90.000000
_cell_volume 4942.891660
_symmetry_space_group_name_H-M "C M M A"
_symmetry_group_IT_number 67
_symmetry_cell_setting 'orthorhombic'
loop_
_space_group_symop_operation_xyz
x,y,z
-x,1/2-y,z
x,-y,-z
-x,1/2+y,-z
-x,-y,-z
x,1/2+y,-z
-x,y,z
x,1/2-y,z
1/2+x,1/2+y,z
1/2-x,-y,z
1/2+x,1/2-y,-z
1/2-x,y,-z
1/2-x,1/2-y,-z
1/2+x,y,-z
1/2-x,1/2+y,z
1/2+x,-y,z
loop_
_atom_site_type_symbol
_atom_site_label
_atom_site_fract_x
_atom_site_fract_y
_atom_site_fract_z
Si Si1 0.628810 0.351893 0.639807
Si Si2 0.065233 0.143832 0.892862
Si Si3 0.246435 0.141765 0.850387
Si Si4 0.256746 0.899541 0.649136
Si Si5 0.834317 0.856806 0.988457
Si Si6 0.932619 0.020679 0.717114
Si Si7 0.875595 0.352326 0.569919
O O1 0.605669 0.250000 0.663901
O O2 0.697511 0.345067 0.644376
O O3 0.601281 0.424004 0.711920
O O4 0.612834 0.380955 0.535778
O O5 0.077601 0.250000 0.863681
O O6 0.100121 0.117559 0.986814
O O7 0.083028 0.076758 0.809629
O O8 0.000000 0.130031 0.920810
O O9 0.242256 0.250000 0.832209
O O10 0.227655 0.091350 0.757276
O O11 0.202942 0.104010 0.927131
O O12 0.310387 0.111521 0.887996
O O13 0.307760 0.852709 0.592512
O O14 0.250000 0.000000 0.606250
O O15 0.823711 0.750000 0.989939
O O16 0.912924 0.080239 0.630727
O O17 0.000000 0.001385 0.711073
O O18 0.898165 0.250000 0.587233
#
# Coordination Sequence:
#
# PCOD8281487 Si02
#       7
#    16  16  16  16  16  16  16
#     4  11  25  42  60  85 121 166 210 252 303 370
#     4   9  17  31  56  90 124 158 200 254 311 362
#     4   9  17  31  53  82 116 153 191 236 291 362
#     4  12  23  37  61  90 122 157 202 252 309 370
#     4   8  15  29  52  82 118 156 191 233 294 361
#     4  11  23  39  61  90 125 160 206 259 305 358
#     4  11  23  40  63  90 122 159 200 255 319 372
#
# _framework density 22.658801
#
# number of rings (size 3 to 8) (size 9 to 14) (size 15 to 20)
#    0.000    1.857    1.429    4.286    0.000    5.143 
#    0.000    2.857    0.000    0.857    0.000    4.000 
#    0.000    0.000    0.000    0.000    0.000    0.000 
#
# Total GULP energy -693967.319034 kJ/mol
# GULP energy per Si atom -12392.273554 kJ/mol
# Density = 2.260723 g / cm^3
# Si number density = 22.658801 Si / 1000 Ang^3
#
#
#
# Elastic Constant Matrix: (Units=GPa)
#
#
# Indices 1 2 3 4 5 6 
#
# 1 91.0963 20.4579 10.4985 0.0000 0.0000 0.0000
# 2 20.4579 82.2947 12.9310 0.0000 0.0000 0.0000
# 3 10.4985 12.9310 24.1133 0.0000 0.0000 0.0000
# 4 0.0000 0.0000 0.0000 11.5873 0.0000 0.0000
# 5 0.0000 0.0000 0.0000 0.0000 34.9730 0.0000
# 6 0.0000 0.0000 0.0000 0.0000 0.0000 20.4209
#
#
#
# Elastic Compliance Matrix: (Units=1/GPa)
#
#
# Indices 1 2 3 4 5 6 
#
# 1 0.011961 -0.002353 -0.003945 0.000000 0.000000 0.000000
# 2 -0.002353 0.013733 -0.006340 0.000000 0.000000 0.000000
# 3 -0.003945 -0.006340 0.046588 0.000000 0.000000 0.000000
# 4 0.000000 0.000000 0.000000 0.086302 0.000000 0.000000
# 5 0.000000 0.000000 0.000000 0.000000 0.028593 0.000000
# 6 0.000000 0.000000 0.000000 0.000000 0.000000 0.048969
#
#
# Mechanical properties :
#
#
# Convention : Reuss Voigt Hill
#
# Bulk Modulus (GPa) = 21.27446 31.69767 26.48606
# Shear Modulus (GPa) = 18.04460 23.63737 20.84098
#
# Velocity S-wave (km/s) = 2.82505 3.23334 3.03607
# Velocity P-wave (km/s) = 4.47779 5.28761 4.89946
#
# Compressibility (1/GPa) = 0.04700473
#
# Stress axis : x y z
#
# Youngs Moduli (GPa) = 83.60786 72.81916 21.46457
#
# Poissons Ratio (x) = 0.17137 0.08469
# Poissons Ratio (y) = 0.19676 0.13608
# Poissons Ratio (z) = 0.32987 0.46165
#
# Static dielectric constant tensor:
#      x y z
#    x 4.051350 0.000000 0.000000 
#    y 0.000000 3.970890 0.000000 
#    z 0.000000 0.000000 4.126430 
# 
# 
# High freq. dielectric constant tensor:
#      x y z
#    x 1.880210 0.000000 0.000000 
#    y 0.000000 1.893770 0.000000 
#    z 0.000000 0.000000 1.886820 
# 
# From -- ./inp_files/30194.got.cif
#   From: 2010.03.12/outbox.cif.g09.slc.cpg/sg67_16_cif.got.tgz:30194.got - 2010.04.10 22:41:39.
