data_PCOD8281749
_publ_section_title
;
Structure prediction by ZEFSAII (Michael W. Deem and Ramdas Pophale) SiO2 
 PCOD8281749
Probable space group: C C C A
;
_chemical_formula_sum "Si O2"
_cell_formula_units_Z 80
_cell_length_a 9.225667
_cell_length_b 24.060788
_cell_length_c 20.185944
_cell_angle_alpha 90.000000
_cell_angle_beta 90.000000
_cell_angle_gamma 90.000000
_cell_volume 4480.811614
_symmetry_space_group_name_H-M "C C C A"
_symmetry_group_IT_number 68
_space_group.IT_coordinate_system_code '2'
_symmetry_cell_setting 'orthorhombic'
loop_
_space_group_symop_operation_xyz
x,y,z
-x,1/2-y,z
x,1/2-y,1/2-z
-x,y,1/2-z
-x,-y,-z
x,1/2+y,-z
-x,1/2+y,1/2+z
x,-y,1/2+z
1/2+x,1/2+y,z
1/2-x,-y,z
1/2+x,-y,1/2-z
1/2-x,1/2+y,1/2-z
1/2-x,1/2-y,-z
1/2+x,y,-z
1/2-x,y,1/2+z
1/2+x,1/2-y,1/2+z
loop_
_atom_site_type_symbol
_atom_site_label
_atom_site_fract_x
_atom_site_fract_y
_atom_site_fract_z
Si Si1 0.250000 0.000000 0.455159
Si Si2 0.107929 0.908164 0.876862
Si Si3 0.000000 0.955389 0.750000
Si Si4 0.185845 0.087010 0.058522
Si Si5 0.000000 0.250000 0.504508
Si Si6 0.750000 0.000000 0.337334
Si Si7 0.249896 0.823393 0.958209
O O1 0.361303 0.968514 0.407601
O O2 0.156530 0.957468 0.499931
O O3 0.231812 0.862902 0.893671
O O4 0.092080 0.914933 0.798028
O O5 0.960925 0.887688 0.911875
O O6 0.892945 0.994283 0.792385
O O7 0.273148 0.055321 0.117380
O O8 0.267914 0.139638 0.025768
O O9 0.880035 0.279004 0.458156
O O10 0.907794 0.205793 0.548543
#
# Coordination Sequence:
#
# PCOD8281749 Si02
#       7
#     8  16   8  16   8   8  16
#     4   9  17  26  48  76 107 131 168 206 250 311
#     4  10  18  31  49  75 108 139 172 203 254 317
#     4  10  20  34  48  73 108 147 178 202 240 304
#     4   9  17  31  49  77 108 137 164 209 269 310
#     4  10  20  34  54  81 105 124 170 224 284 314
#     4   9  19  34  50  74 109 143 176 208 242 315
#     4  10  19  34  54  81 104 133 166 222 277 319
#
# _framework density 17.853908000000001
#
# number of rings (size 3 to 8) (size 9 to 14) (size 15 to 20)
#    0.000    2.400    2.000    1.200    0.000    1.600 
#    3.600    0.000    0.000    0.600    0.000    5.600 
#    0.000    0.000    0.000    0.000    0.000    0.000 
#
# Total GULP energy -495700.865982 kJ/mol
# GULP energy per Si atom -12392.521650 kJ/mol
# Density = 1.781327 g / cm^3
# Si number density = 17.853908 Si / 1000 Ang^3
#
#
#
# Elastic Constant Matrix: (Units=GPa)
#
#
# Indices 1 2 3 4 5 6 
#
# 1 78.7434 38.8279 36.8804 0.0000 0.0000 0.0000
# 2 38.8279 86.3035 41.8809 0.0000 0.0000 0.0000
# 3 36.8804 41.8809 109.4078 0.0000 0.0000 0.0000
# 4 0.0000 0.0000 0.0000 11.8908 0.0000 0.0000
# 5 0.0000 0.0000 0.0000 0.0000 28.2301 0.0000
# 6 0.0000 0.0000 0.0000 0.0000 0.0000 39.4134
#
#
#
# Elastic Compliance Matrix: (Units=1/GPa)
#
#
# Indices 1 2 3 4 5 6 
#
# 1 0.017354 -0.006102 -0.003514 0.000000 0.000000 0.000000
# 2 -0.006102 0.016376 -0.004212 0.000000 0.000000 0.000000
# 3 -0.003514 -0.004212 0.011937 0.000000 0.000000 0.000000
# 4 0.000000 0.000000 0.000000 0.084098 0.000000 0.000000
# 5 0.000000 0.000000 0.000000 0.000000 0.035423 0.000000
# 6 0.000000 0.000000 0.000000 0.000000 0.000000 0.025372
#
#
# Mechanical properties :
#
#
# Convention : Reuss Voigt Hill
#
# Bulk Modulus (GPa) = 55.52089 56.62589 56.07339
# Shear Modulus (GPa) = 22.29939 26.36457 24.33198
#
# Velocity S-wave (km/s) = 3.53794 3.84693 3.69567
# Velocity P-wave (km/s) = 6.91767 7.17753 7.04880
#
# Compressibility (1/GPa) = 0.01801124
#
# Stress axis : x y z
#
# Youngs Moduli (GPa) = 57.62233 61.06365 83.77395
#
# Poissons Ratio (x) = 0.37264 0.29438
# Poissons Ratio (y) = 0.35164 0.35283
# Poissons Ratio (z) = 0.20248 0.25718
#
# Static dielectric constant tensor:
#      x y z
#    x 3.284740 0.000000 0.000000 
#    y 0.000000 3.417380 0.000000 
#    z 0.000000 0.000000 3.220180 
# 
# 
# High freq. dielectric constant tensor:
#      x y z
#    x 1.686940 0.000000 0.000000 
#    y 0.000000 1.685210 0.000000 
#    z 0.000000 0.000000 1.663450 
# 
# From -- ./inp_files/34049.got.cif
#   From: 2010.03.12/outbox.cif.g09.slc.cpg/sg68_18_cif.got.tgz:34049.got - 2010.04.10 23:14:56.
