data_PCOD8281263
_publ_section_title
;
Structure prediction by ZEFSAII (Michael W. Deem and Ramdas Pophale) SiO2 
 PCOD8281263
Probable space group: C M M A
;
_chemical_formula_sum "Si O2"
_cell_formula_units_Z 80
_cell_length_a 18.334197
_cell_length_b 24.471602
_cell_length_c 8.530740
_cell_angle_alpha 90.000000
_cell_angle_beta 90.000000
_cell_angle_gamma 90.000000
_cell_volume 3827.462991
_symmetry_space_group_name_H-M "C M M A"
_symmetry_group_IT_number 67
_symmetry_cell_setting 'orthorhombic'
loop_
_space_group_symop_operation_xyz
x,y,z
-x,1/2-y,z
x,-y,-z
-x,1/2+y,-z
-x,-y,-z
x,1/2+y,-z
-x,y,z
x,1/2-y,z
1/2+x,1/2+y,z
1/2-x,-y,z
1/2+x,1/2-y,-z
1/2-x,y,-z
1/2-x,1/2-y,-z
1/2+x,y,-z
1/2-x,1/2+y,z
1/2+x,-y,z
loop_
_atom_site_type_symbol
_atom_site_label
_atom_site_fract_x
_atom_site_fract_y
_atom_site_fract_z
Si Si1 0.181302 0.383536 0.595383
Si Si2 0.167032 0.016148 0.814686
Si Si3 0.918083 0.599434 0.005934
Si Si4 0.581430 0.581224 0.336759
Si Si5 0.686875 0.313722 0.123824
O O1 0.250000 0.404808 0.500000
O O2 0.160206 0.428123 0.720815
O O3 0.115343 0.379458 0.470500
O O4 0.203555 0.328550 0.692885
O O5 0.128781 0.041783 0.976248
O O6 0.250000 0.000000 0.851640
O O7 0.126469 0.973718 0.701569
O O8 0.886354 0.653090 0.087620
O O9 0.000000 0.588557 0.070262
O O10 0.919959 0.615515 0.823340
O O11 0.500000 0.564516 0.389288
O O12 0.671229 0.250000 0.109019
O O13 0.750000 0.331577 0.000000
#
# Coordination Sequence:
#
# PCOD8281263 Si02
#       5
#    16  16  16  16  16
#     4  11  22  38  59  89 126 159 202 255 311 377
#     4  11  22  36  60  92 128 173 216 250 299 368
#     4  10  23  41  62  92 127 166 215 264 309 367
#     4  11  23  38  58  89 131 171 207 251 306 373
#     4  10  23  43  68  92 115 156 212 267 324 381
#
# _framework density 20.901574
#
# number of rings (size 3 to 8) (size 9 to 14) (size 15 to 20)
#    0.000    1.400    2.000    3.000    2.800    8.000 
#    0.000    1.000    0.000    1.200    0.000    0.000 
#    0.000    0.000    0.000    0.000    0.000    0.000 
#
# Total GULP energy -495639.762182 kJ/mol
# GULP energy per Si atom -12390.994055 kJ/mol
# Density = 2.085400 g / cm^3
# Si number density = 20.901574 Si / 1000 Ang^3
#
#
#
# Elastic Constant Matrix: (Units=GPa)
#
#
# Indices 1 2 3 4 5 6 
#
# 1 161.4710 38.7152 46.2519 0.0000 0.0000 0.0000
# 2 38.7152 86.1006 33.6444 0.0000 0.0000 0.0000
# 3 46.2519 33.6444 116.3821 0.0000 0.0000 0.0000
# 4 0.0000 0.0000 0.0000 18.2213 0.0000 0.0000
# 5 0.0000 0.0000 0.0000 0.0000 35.3275 0.0000
# 6 0.0000 0.0000 0.0000 0.0000 0.0000 20.5887
#
#
#
# Elastic Compliance Matrix: (Units=1/GPa)
#
#
# Indices 1 2 3 4 5 6 
#
# 1 0.007425 -0.002464 -0.002239 0.000000 0.000000 0.000000
# 2 -0.002464 0.013911 -0.003042 0.000000 0.000000 0.000000
# 3 -0.002239 -0.003042 0.010361 0.000000 0.000000 0.000000
# 4 0.000000 0.000000 0.000000 0.054881 0.000000 0.000000
# 5 0.000000 0.000000 0.000000 0.000000 0.028307 0.000000
# 6 0.000000 0.000000 0.000000 0.000000 0.000000 0.048570
#
#
# Mechanical properties :
#
#
# Convention : Reuss Voigt Hill
#
# Bulk Modulus (GPa) = 61.69769 66.79741 64.24755
# Shear Modulus (GPa) = 27.12270 31.18364 29.15317
#
# Velocity S-wave (km/s) = 3.60618 3.86674 3.73873
# Velocity P-wave (km/s) = 6.84994 7.20854 7.03153
#
# Compressibility (1/GPa) = 0.01620806
#
# Stress axis : x y z
#
# Youngs Moduli (GPa) = 134.67939 71.88538 96.51126
#
# Poissons Ratio (x) = 0.17712 0.21604
# Poissons Ratio (y) = 0.33184 0.29361
# Poissons Ratio (z) = 0.30148 0.21869
#
# Static dielectric constant tensor:
#      x y z
#    x 3.878420 0.000000 0.000000 
#    y 0.000000 3.488020 0.000000 
#    z 0.000000 0.000000 4.373970 
# 
# 
# High freq. dielectric constant tensor:
#      x y z
#    x 1.820480 0.000000 0.000000 
#    y 0.000000 1.790200 0.000000 
#    z 0.000000 0.000000 1.845600 
# 
# From -- ./inp_files/9977.got.cif
#   From: 2010.03.12/outbox.cif.g09.slc.cpg/sg67_5_cif.got.tgz:9977.got - 2010.04.10 22:41:39.
