data_PCOD8281394
_publ_section_title
;
Structure prediction by ZEFSAII (Michael W. Deem and Ramdas Pophale) SiO2 
 PCOD8281394
Probable space group: C M M A
;
_chemical_formula_sum "Si O2"
_cell_formula_units_Z 80
_cell_length_a 35.214583
_cell_length_b 26.036899
_cell_length_c 5.145746
_cell_angle_alpha 90.000000
_cell_angle_beta 90.000000
_cell_angle_gamma 90.000000
_cell_volume 4718.024084
_symmetry_space_group_name_H-M "C M M A"
_symmetry_group_IT_number 67
_symmetry_cell_setting 'orthorhombic'
loop_
_space_group_symop_operation_xyz
x,y,z
-x,1/2-y,z
x,-y,-z
-x,1/2+y,-z
-x,-y,-z
x,1/2+y,-z
-x,y,z
x,1/2-y,z
1/2+x,1/2+y,z
1/2-x,-y,z
1/2+x,1/2-y,-z
1/2-x,y,-z
1/2-x,1/2-y,-z
1/2+x,y,-z
1/2-x,1/2+y,z
1/2+x,-y,z
loop_
_atom_site_type_symbol
_atom_site_label
_atom_site_fract_x
_atom_site_fract_y
_atom_site_fract_z
Si Si1 0.921165 0.190289 0.873611
Si Si2 0.663227 0.311029 0.007427
Si Si3 0.544133 0.856066 0.358495
Si Si4 0.292864 0.188720 0.507006
Si Si5 0.454854 0.029208 0.749605
O O1 0.920565 0.250000 0.797711
O O2 0.880088 0.170200 0.968309
O O3 0.933209 0.159899 0.615938
O O4 0.949440 0.182030 0.115974
O O5 0.664173 0.250000 0.998487
O O6 0.686540 0.332102 0.251576
O O7 0.683503 0.333450 0.750987
O O8 0.500000 0.856087 0.434774
O O9 0.558371 0.911821 0.263036
O O10 0.292387 0.250000 0.517369
O O11 0.250000 0.167335 0.500000
O O12 0.500000 0.026503 0.757822
O O13 0.438587 0.000000 0.500000
O O14 0.437771 0.000000 0.000000
#
# Coordination Sequence:
#
# PCOD8281394 Si02
#       5
#    16  16  16  16  16
#     4  11  22  34  46  62  91 129 163 194 226 264
#     4   9  17  28  40  56  81 114 149 182 220 263
#     4  11  22  34  49  68  87 115 160 202 236 276
#     4   9  15  24  40  60  79 102 141 190 226 255
#     4   9  17  31  50  69  87 105 133 185 247 296
#
# _framework density 16.956251999999999
#
# number of rings (size 3 to 8) (size 9 to 14) (size 15 to 20)
#    0.000    2.200    0.000    4.200    0.000   11.200 
#    0.000    0.000    0.000    0.000    0.000    0.000 
#    0.000    0.000    0.000    0.000    0.000  210.000 
#
# Total GULP energy -495959.298616 kJ/mol
# GULP energy per Si atom -12398.982465 kJ/mol
# Density = 1.691766 g / cm^3
# Si number density = 16.956252 Si / 1000 Ang^3
#
#
#
# Elastic Constant Matrix: (Units=GPa)
#
#
# Indices 1 2 3 4 5 6 
#
# 1 78.2748 30.9772 41.1568 0.0000 0.0000 0.0000
# 2 30.9772 47.4243 29.5546 0.0000 0.0000 0.0000
# 3 41.1568 29.5546 148.2251 0.0000 0.0000 0.0000
# 4 0.0000 0.0000 0.0000 25.0889 0.0000 0.0000
# 5 0.0000 0.0000 0.0000 0.0000 33.2328 0.0000
# 6 0.0000 0.0000 0.0000 0.0000 0.0000 1.7250
#
#
#
# Elastic Compliance Matrix: (Units=1/GPa)
#
#
# Indices 1 2 3 4 5 6 
#
# 1 0.018395 -0.010086 -0.003097 0.000000 0.000000 0.000000
# 2 -0.010086 0.029608 -0.003103 0.000000 0.000000 0.000000
# 3 -0.003097 -0.003103 0.008225 0.000000 0.000000 0.000000
# 4 0.000000 0.000000 0.000000 0.039858 0.000000 0.000000
# 5 0.000000 0.000000 0.000000 0.000000 0.030091 0.000000
# 6 0.000000 0.000000 0.000000 0.000000 0.000000 0.579694
#
#
# Mechanical properties :
#
#
# Convention : Reuss Voigt Hill
#
# Bulk Modulus (GPa) = 42.27045 53.03349 47.65197
# Shear Modulus (GPa) = 6.69947 23.49172 15.09560
#
# Velocity S-wave (km/s) = 1.98988 3.72618 2.98697
# Velocity P-wave (km/s) = 5.50116 7.06095 6.32929
#
# Compressibility (1/GPa) = 0.02365719
#
# Stress axis : x y z
#
# Youngs Moduli (GPa) = 54.36211 33.77465 121.57965
#
# Poissons Ratio (x) = 0.34064 0.37649
# Poissons Ratio (y) = 0.54828 0.37727
# Poissons Ratio (z) = 0.16834 0.10481
#
# Static dielectric constant tensor:
#      x y z
#    x 3.147360 0.000000 0.000000 
#    y 0.000000 2.815510 0.000000 
#    z 0.000000 0.000000 3.425250 
# 
# 
# High freq. dielectric constant tensor:
#      x y z
#    x 1.637890 0.000000 0.000000 
#    y 0.000000 1.596760 0.000000 
#    z 0.000000 0.000000 1.679900 
# 
# From -- ./inp_files/4821.got.cif
#   From: 2010.03.12/outbox.cif.g09.slc.cpg/sg67_3_cif.got.tgz:4821.got - 2010.04.10 22:41:39.
