data_PCOD8281880
_publ_section_title
;
Structure prediction by ZEFSAII (Michael W. Deem and Ramdas Pophale) SiO2 
 PCOD8281880
Probable space group: C C C A
;
_chemical_formula_sum "Si O2"
_cell_formula_units_Z 112
_cell_length_a 31.941256
_cell_length_b 5.094490
_cell_length_c 33.003312
_cell_angle_alpha 90.000000
_cell_angle_beta 90.000000
_cell_angle_gamma 90.000000
_cell_volume 5370.444449
_symmetry_space_group_name_H-M "C C C A"
_symmetry_group_IT_number 68
_space_group.IT_coordinate_system_code '2'
_symmetry_cell_setting 'orthorhombic'
loop_
_space_group_symop_operation_xyz
x,y,z
-x,1/2-y,z
x,1/2-y,1/2-z
-x,y,1/2-z
-x,-y,-z
x,1/2+y,-z
-x,1/2+y,1/2+z
x,-y,1/2+z
1/2+x,1/2+y,z
1/2-x,-y,z
1/2+x,-y,1/2-z
1/2-x,1/2+y,1/2-z
1/2-x,1/2-y,-z
1/2+x,y,-z
1/2-x,y,1/2+z
1/2+x,1/2-y,1/2+z
loop_
_atom_site_type_symbol
_atom_site_label
_atom_site_fract_x
_atom_site_fract_y
_atom_site_fract_z
Si Si1 0.223826 0.752768 0.662176
Si Si2 0.850680 0.559947 0.889465
Si Si3 0.027515 0.499447 0.893421
Si Si4 0.349960 0.013850 0.483708
Si Si5 0.391016 0.554208 0.852723
Si Si6 0.557979 0.085635 0.980750
Si Si7 0.158746 0.992619 0.723964
O O1 0.250000 0.500000 0.678274
O O2 0.195456 0.635811 0.626159
O O3 0.198317 0.878815 0.699439
O O4 0.250000 0.000000 0.644416
O O5 0.853352 0.573522 0.937559
O O6 0.863502 0.267737 0.876480
O O7 0.882695 0.764606 0.870045
O O8 0.059062 0.410026 0.857622
O O9 0.055648 0.565315 0.932532
O O10 0.000000 0.750000 0.880218
O O11 0.000000 0.250000 0.904371
O O12 0.325677 0.790253 0.509978
O O13 0.393947 0.110726 0.504407
O O14 0.378943 0.576645 0.805647
O O15 0.534997 0.351073 0.995253
O O16 0.141353 0.750000 0.750000
O O17 0.171735 0.250000 0.750000
#
# Coordination Sequence:
#
# PCOD8281880 Si02
#       7
#    16  16  16  16  16  16  16
#     4  11  23  40  63  95 131 164 194 239 306 372
#     4  11  21  39  64  86 118 168 215 249 287 360
#     4  12  25  38  57  85 120 158 197 253 314 363
#     4  10  19  32  55  82 109 149 208 259 293 334
#     4  11  22  41  63  85 120 162 209 248 291 367
#     4  10  19  33  50  76 112 148 191 240 299 355
#     4  11  23  41  66  96 124 157 196 241 298 362
#
# _framework density 20.854886
#
# number of rings (size 3 to 8) (size 9 to 14) (size 15 to 20)
#    0.000    1.143    0.000   10.286    0.000    2.857 
#    0.000    1.429    0.000    5.143    0.000    0.000 
#    0.000    0.000    0.000    0.000    0.000    0.000 
#
# Total GULP energy -694116.172953 kJ/mol
# GULP energy per Si atom -12394.931660 kJ/mol
# Density = 2.080742 g / cm^3
# Si number density = 20.854886 Si / 1000 Ang^3
#
#
#
# Elastic Constant Matrix: (Units=GPa)
#
#
# Indices 1 2 3 4 5 6 
#
# 1 86.6630 32.6263 49.1499 0.0000 0.0000 0.0000
# 2 32.6263 153.6435 34.1234 0.0000 0.0000 0.0000
# 3 49.1499 34.1234 103.5809 0.0000 0.0000 0.0000
# 4 0.0000 0.0000 0.0000 33.6210 0.0000 0.0000
# 5 0.0000 0.0000 0.0000 0.0000 13.4356 0.0000
# 6 0.0000 0.0000 0.0000 0.0000 0.0000 23.9844
#
#
#
# Elastic Compliance Matrix: (Units=1/GPa)
#
#
# Indices 1 2 3 4 5 6 
#
# 1 0.016275 -0.001878 -0.007104 0.000000 0.000000 0.000000
# 2 -0.001878 0.007239 -0.001494 0.000000 0.000000 0.000000
# 3 -0.007104 -0.001494 0.013517 0.000000 0.000000 0.000000
# 4 0.000000 0.000000 0.000000 0.029743 0.000000 0.000000
# 5 0.000000 0.000000 0.000000 0.000000 0.074429 0.000000
# 6 0.000000 0.000000 0.000000 0.000000 0.000000 0.041694
#
#
# Mechanical properties :
#
#
# Convention : Reuss Voigt Hill
#
# Bulk Modulus (GPa) = 62.18951 63.96516 63.07733
# Shear Modulus (GPa) = 23.89960 29.40739 26.65350
#
# Velocity S-wave (km/s) = 3.38893 3.75920 3.57885
# Velocity P-wave (km/s) = 6.72294 7.04132 6.88397
#
# Compressibility (1/GPa) = 0.01607988
#
# Stress axis : x y z
#
# Youngs Moduli (GPa) = 61.44433 138.13787 73.98023
#
# Poissons Ratio (x) = 0.25946 0.52554
# Poissons Ratio (y) = 0.11541 0.11050
# Poissons Ratio (z) = 0.43649 0.20632
#
# Static dielectric constant tensor:
#      x y z
#    x 3.669370 0.000000 0.000000 
#    y 0.000000 4.642170 0.000000 
#    z 0.000000 0.000000 3.664960 
# 
# 
# High freq. dielectric constant tensor:
#      x y z
#    x 1.785760 0.000000 0.000000 
#    y 0.000000 1.860790 0.000000 
#    z 0.000000 0.000000 1.798220 
# 
# From -- ./inp_files/56281.got.cif
#   From: 2010.03.12/outbox.cif.g09.slc.cpg/sg68_29_cif.got.tgz:56281.got - 2010.04.10 23:14:56.
