data_PCOD8281981
_publ_section_title
;
Structure prediction by ZEFSAII (Michael W. Deem and Ramdas Pophale) SiO2 
 PCOD8281981
Probable space group: C C C A
;
_chemical_formula_sum "Si O2"
_cell_formula_units_Z 80
_cell_length_a 11.980933
_cell_length_b 13.683667
_cell_length_c 23.118394
_cell_angle_alpha 90.000000
_cell_angle_beta 90.000000
_cell_angle_gamma 90.000000
_cell_volume 3790.101122
_symmetry_space_group_name_H-M "C C C A"
_symmetry_group_IT_number 68
_space_group.IT_coordinate_system_code '2'
_symmetry_cell_setting 'orthorhombic'
loop_
_space_group_symop_operation_xyz
x,y,z
-x,1/2-y,z
x,1/2-y,1/2-z
-x,y,1/2-z
-x,-y,-z
x,1/2+y,-z
-x,1/2+y,1/2+z
x,-y,1/2+z
1/2+x,1/2+y,z
1/2-x,-y,z
1/2+x,-y,1/2-z
1/2-x,1/2+y,1/2-z
1/2-x,1/2-y,-z
1/2+x,y,-z
1/2-x,y,1/2+z
1/2+x,1/2-y,1/2+z
loop_
_atom_site_type_symbol
_atom_site_label
_atom_site_fract_x
_atom_site_fract_y
_atom_site_fract_z
Si Si1 0.147174 0.564942 0.033468
Si Si2 0.696264 0.097893 0.851154
Si Si3 0.379673 0.637626 0.235288
Si Si4 0.001007 0.108878 0.070038
Si Si5 0.291512 0.191350 0.885678
O O1 0.250000 0.500000 0.008897
O O2 0.055670 0.496545 0.062918
O O3 0.189848 0.638958 0.082443
O O4 0.090187 0.626465 0.981680
O O5 0.706480 0.091065 0.781636
O O6 0.566493 0.105558 0.869294
O O7 0.752576 0.199165 0.873283
O O8 0.750000 0.000000 0.878901
O O9 0.391686 0.750000 0.250000
O O10 0.500000 0.588135 0.250000
O O11 0.328438 0.627646 0.170851
O O12 0.904209 0.192642 0.073792
#
# Coordination Sequence:
#
# PCOD8281981 Si02
#       5
#    16  16  16  16  16
#     4   9  20  36  58  85 116 154 196 245 293 347
#     4  11  22  35  57  88 120 150 193 246 286 346
#     4   9  17  34  59  85 111 150 194 238 291 349
#     4  10  19  36  58  84 116 150 193 244 292 344
#     4  10  20  38  61  85 116 154 196 237 294 357
#
# _framework density 21.107616
#
# number of rings (size 3 to 8) (size 9 to 14) (size 15 to 20)
#    0.000    2.200    2.000    1.200    0.000    3.200 
#    0.000    5.000    0.000    0.000    0.000    0.000 
#    0.000    0.000    0.000    0.000    0.000    0.000 
#
# Total GULP energy -495635.274430 kJ/mol
# GULP energy per Si atom -12390.881861 kJ/mol
# Density = 2.105957 g / cm^3
# Si number density = 21.107616 Si / 1000 Ang^3
#
#
#
# Elastic Constant Matrix: (Units=GPa)
#
#
# Indices 1 2 3 4 5 6 
#
# 1 71.9842 34.4845 44.1838 0.0000 0.0000 0.0000
# 2 34.4845 98.3733 42.0906 0.0000 0.0000 0.0000
# 3 44.1838 42.0906 130.2780 0.0000 0.0000 0.0000
# 4 0.0000 0.0000 0.0000 26.4818 0.0000 0.0000
# 5 0.0000 0.0000 0.0000 0.0000 2.6092 0.0000
# 6 0.0000 0.0000 0.0000 0.0000 0.0000 24.5751
#
#
#
# Elastic Compliance Matrix: (Units=1/GPa)
#
#
# Indices 1 2 3 4 5 6 
#
# 1 0.019164 -0.004568 -0.005023 0.000000 0.000000 0.000000
# 2 -0.004568 0.012885 -0.002614 0.000000 0.000000 0.000000
# 3 -0.005023 -0.002614 0.010224 0.000000 0.000000 0.000000
# 4 0.000000 0.000000 0.000000 0.037762 0.000000 0.000000
# 5 0.000000 0.000000 0.000000 0.000000 0.383253 0.000000
# 6 0.000000 0.000000 0.000000 0.000000 0.000000 0.040692
#
#
# Mechanical properties :
#
#
# Convention : Reuss Voigt Hill
#
# Bulk Modulus (GPa) = 55.98475 60.23926 58.11201
# Shear Modulus (GPa) = 9.35727 22.72502 16.04114
#
# Velocity S-wave (km/s) = 2.10778 3.28476 2.75974
# Velocity P-wave (km/s) = 5.70129 6.55647 6.14378
#
# Compressibility (1/GPa) = 0.01786201
#
# Stress axis : x y z
#
# Youngs Moduli (GPa) = 52.18152 77.60918 97.80925
#
# Poissons Ratio (x) = 0.35456 0.49134
# Poissons Ratio (y) = 0.23839 0.25563
# Poissons Ratio (z) = 0.26213 0.20284
#
# Static dielectric constant tensor:
#      x y z
#    x 3.674180 0.000000 0.000000 
#    y 0.000000 4.230010 0.000000 
#    z 0.000000 0.000000 4.128400 
# 
# 
# High freq. dielectric constant tensor:
#      x y z
#    x 1.807220 0.000000 0.000000 
#    y 0.000000 1.813550 0.000000 
#    z 0.000000 0.000000 1.834770 
# 
# From -- ./inp_files/44128.got.cif
#   From: 2010.03.12/outbox.cif.g09.slc.cpg/sg68_23_cif.got.tgz:44128.got - 2010.04.10 23:14:56.
