data_PCOD8281126
_publ_section_title
;
Structure prediction by ZEFSAII (Michael W. Deem and Ramdas Pophale) SiO2 
 PCOD8281126
Probable space group: C M M A
;
_chemical_formula_sum "Si O2"
_cell_formula_units_Z 64
_cell_length_a 17.254628
_cell_length_b 17.396853
_cell_length_c 11.670256
_cell_angle_alpha 90.000000
_cell_angle_beta 90.000000
_cell_angle_gamma 90.000000
_cell_volume 3503.133413
_symmetry_space_group_name_H-M "C M M A"
_symmetry_group_IT_number 67
_symmetry_cell_setting 'orthorhombic'
loop_
_space_group_symop_operation_xyz
x,y,z
-x,1/2-y,z
x,-y,-z
-x,1/2+y,-z
-x,-y,-z
x,1/2+y,-z
-x,y,z
x,1/2-y,z
1/2+x,1/2+y,z
1/2-x,-y,z
1/2+x,1/2-y,-z
1/2-x,y,-z
1/2-x,1/2-y,-z
1/2+x,y,-z
1/2-x,1/2+y,z
1/2+x,-y,z
loop_
_atom_site_type_symbol
_atom_site_label
_atom_site_fract_x
_atom_site_fract_y
_atom_site_fract_z
Si Si1 0.910020 0.081114 0.244354
Si Si2 0.683510 0.940912 0.698266
Si Si3 0.415783 0.591046 0.499760
Si Si4 0.724977 0.159981 0.872438
O O1 0.893256 0.117460 0.371035
O O2 0.861939 0.129793 0.151419
O O3 0.000000 0.086198 0.211421
O O4 0.884325 0.991616 0.242987
O O5 0.650339 0.889125 0.592898
O O6 0.714785 0.881130 0.789380
O O7 0.750000 0.000000 0.654461
O O8 0.424177 0.500000 0.500000
O O9 0.500000 0.626974 0.532977
O O10 0.728708 0.250000 0.850325
O O11 0.750000 0.137965 0.000000
#
# Coordination Sequence:
#
# PCOD8281126 Si02
#       4
#    16  16  16  16
#     4   9  18  33  56  80 100 128 164 204 248 296
#     4   9  17  29  51  79 103 129 164 205 247 291
#     4   8  14  27  48  76 106 129 153 194 250 304
#     4  10  22  38  51  67  99 139 174 208 248 294
#
# _framework density 18.269359000000001
#
# number of rings (size 3 to 8) (size 9 to 14) (size 15 to 20)
#    0.000    3.000    0.000    2.250    0.000   16.500 
#    0.000    6.250    0.000    7.500    0.000    0.000 
#    0.000    0.000    0.000    0.000    0.000    0.000 
#
# Total GULP energy -396556.543310 kJ/mol
# GULP energy per Si atom -12392.391978 kJ/mol
# Density = 1.822778 g / cm^3
# Si number density = 18.269359 Si / 1000 Ang^3
#
#
#
# Elastic Constant Matrix: (Units=GPa)
#
#
# Indices 1 2 3 4 5 6 
#
# 1 147.2740 45.6354 90.6216 0.0000 0.0000 0.0000
# 2 45.6354 42.5562 36.0327 0.0000 0.0000 0.0000
# 3 90.6216 36.0327 96.6645 0.0000 0.0000 0.0000
# 4 0.0000 0.0000 0.0000 5.1372 0.0000 0.0000
# 5 0.0000 0.0000 0.0000 0.0000 25.0617 0.0000
# 6 0.0000 0.0000 0.0000 0.0000 0.0000 10.0879
#
#
#
# Elastic Compliance Matrix: (Units=1/GPa)
#
#
# Indices 1 2 3 4 5 6 
#
# 1 0.017394 -0.007080 -0.013667 0.000000 0.000000 0.000000
# 2 -0.007080 0.037217 -0.007236 0.000000 0.000000 0.000000
# 3 -0.013667 -0.007236 0.025855 0.000000 0.000000 0.000000
# 4 0.000000 0.000000 0.000000 0.194659 0.000000 0.000000
# 5 0.000000 0.000000 0.000000 0.000000 0.039902 0.000000
# 6 0.000000 0.000000 0.000000 0.000000 0.000000 0.099129
#
#
# Mechanical properties :
#
#
# Convention : Reuss Voigt Hill
#
# Bulk Modulus (GPa) = 40.81611 70.11934 55.46772
# Shear Modulus (GPa) = 10.45396 15.67102 13.06249
#
# Velocity S-wave (km/s) = 2.39469 2.93196 2.67684
# Velocity P-wave (km/s) = 5.48050 7.06583 6.32305
#
# Compressibility (1/GPa) = 0.02450013
#
# Stress axis : x y z
#
# Youngs Moduli (GPa) = 57.49186 26.86930 38.67722
#
# Poissons Ratio (x) = 0.19024 0.52861
# Poissons Ratio (y) = 0.40705 0.27985
# Poissons Ratio (z) = 0.78575 0.19441
#
# Static dielectric constant tensor:
#      x y z
#    x 3.682150 0.000000 0.000000 
#    y 0.000000 2.971040 0.000000 
#    z 0.000000 0.000000 3.537150 
# 
# 
# High freq. dielectric constant tensor:
#      x y z
#    x 1.722290 0.000000 0.000000 
#    y 0.000000 1.660230 0.000000 
#    z 0.000000 0.000000 1.700120 
# 
# From -- ./inp_files/17492.got.cif
#   From: 2010.03.12/outbox.cif.g09.slc.cpg/sg67_9_cif.got.tgz:17492.got - 2010.04.10 22:41:39.
