data_PCOD8281096
_publ_section_title
;
Structure prediction by ZEFSAII (Michael W. Deem and Ramdas Pophale) SiO2 
 PCOD8281096
Probable space group: C M M A
;
_chemical_formula_sum "Si O2"
_cell_formula_units_Z 64
_cell_length_a 10.177557
_cell_length_b 22.010125
_cell_length_c 13.687033
_cell_angle_alpha 90.000000
_cell_angle_beta 90.000000
_cell_angle_gamma 90.000000
_cell_volume 3066.022706
_symmetry_space_group_name_H-M "C M M A"
_symmetry_group_IT_number 67
_symmetry_cell_setting 'orthorhombic'
loop_
_space_group_symop_operation_xyz
x,y,z
-x,1/2-y,z
x,-y,-z
-x,1/2+y,-z
-x,-y,-z
x,1/2+y,-z
-x,y,z
x,1/2-y,z
1/2+x,1/2+y,z
1/2-x,-y,z
1/2+x,1/2-y,-z
1/2-x,y,-z
1/2-x,1/2-y,-z
1/2+x,y,-z
1/2-x,1/2+y,z
1/2+x,-y,z
loop_
_atom_site_type_symbol
_atom_site_label
_atom_site_fract_x
_atom_site_fract_y
_atom_site_fract_z
Si Si1 0.250000 0.645750 0.500000
Si Si2 0.741994 0.619507 0.109958
Si Si3 0.000000 0.432271 0.546468
Si Si4 0.351498 0.250000 0.624570
Si Si5 0.500000 0.036634 0.893361
Si Si6 0.000000 0.420506 0.778923
Si Si7 0.645958 0.750000 0.145503
O O1 0.373170 0.602180 0.508519
O O2 0.271907 0.689841 0.407182
O O3 0.620978 0.578219 0.141351
O O4 0.718764 0.691037 0.107183
O O5 0.870314 0.610942 0.176577
O O6 0.750000 0.595863 0.000000
O O7 0.000000 0.500000 0.500000
O O8 0.000000 0.424724 0.662836
O O9 0.500000 0.250000 0.579783
O O10 0.358128 0.250000 0.739065
O O11 0.500000 0.989008 0.808988
O O12 0.500000 0.000000 0.000000
O O13 0.500000 0.750000 0.101449
#
# Coordination Sequence:
#
# PCOD8281096 Si02
#       7
#     8  16   8   8   8   8   8
#     4  11  23  46  72  98 137 179 236 280 364 409
#     4  12  24  45  70  98 143 182 228 292 344 420
#     4  12  28  47  68 102 148 186 232 293 350 421
#     4  10  21  41  73  99 128 177 225 302 337 425
#     4  12  24  45  70  97 134 185 241 279 333 419
#     4  12  28  43  72 108 136 187 238 288 352 402
#     4  11  24  41  65 103 134 173 235 276 364 405
#
# _framework density 20.873949
#
# number of rings (size 3 to 8) (size 9 to 14) (size 15 to 20)
#    0.000    0.500    5.000    3.000    0.000    6.500 
#    0.000    2.500    0.000    0.000    0.000    0.000 
#    0.000    0.000    0.000    0.000    0.000    0.000 
#
# Total GULP energy -396439.224671 kJ/mol
# GULP energy per Si atom -12388.725771 kJ/mol
# Density = 2.082644 g / cm^3
# Si number density = 20.873949 Si / 1000 Ang^3
#
#
#
# Elastic Constant Matrix: (Units=GPa)
#
#
# Indices 1 2 3 4 5 6 
#
# 1 167.7435 75.0972 30.7727 0.0000 0.0000 0.0000
# 2 75.0972 162.2833 18.0876 0.0000 0.0000 0.0000
# 3 30.7727 18.0876 86.0298 0.0000 0.0000 0.0000
# 4 0.0000 0.0000 0.0000 19.0482 0.0000 0.0000
# 5 0.0000 0.0000 0.0000 0.0000 11.7713 0.0000
# 6 0.0000 0.0000 0.0000 0.0000 0.0000 47.1017
#
#
#
# Elastic Compliance Matrix: (Units=1/GPa)
#
#
# Indices 1 2 3 4 5 6 
#
# 1 0.007873 -0.003409 -0.002099 0.000000 0.000000 0.000000
# 2 -0.003409 0.007786 -0.000418 0.000000 0.000000 0.000000
# 3 -0.002099 -0.000418 0.012463 0.000000 0.000000 0.000000
# 4 0.000000 0.000000 0.000000 0.052498 0.000000 0.000000
# 5 0.000000 0.000000 0.000000 0.000000 0.084952 0.000000
# 6 0.000000 0.000000 0.000000 0.000000 0.000000 0.021231
#
#
# Mechanical properties :
#
#
# Convention : Reuss Voigt Hill
#
# Bulk Modulus (GPa) = 61.46483 73.77463 67.61973
# Shear Modulus (GPa) = 24.50042 35.05755 29.77899
#
# Velocity S-wave (km/s) = 3.42969 4.10260 3.78115
# Velocity P-wave (km/s) = 6.72260 7.60667 7.17826
#
# Compressibility (1/GPa) = 0.01626947
#
# Stress axis : x y z
#
# Youngs Moduli (GPa) = 127.01831 128.43185 80.24011
#
# Poissons Ratio (x) = 0.43785 0.16845
# Poissons Ratio (y) = 0.43303 0.03351
# Poissons Ratio (z) = 0.26665 0.05363
#
# Static dielectric constant tensor:
#      x y z
#    x 3.984870 0.000000 0.000000 
#    y 0.000000 4.036100 0.000000 
#    z 0.000000 0.000000 3.702770 
# 
# 
# High freq. dielectric constant tensor:
#      x y z
#    x 1.834770 0.000000 0.000000 
#    y 0.000000 1.839710 0.000000 
#    z 0.000000 0.000000 1.813060 
# 
# From -- ./inp_files/25844.got.cif
#   From: 2010.03.12/outbox.cif.g09.slc.cpg/sg67_13_cif.got.tgz:25844.got - 2010.04.10 22:41:39.
