data_PCOD8281574
_publ_section_title
;
Structure prediction by ZEFSAII (Michael W. Deem and Ramdas Pophale) SiO2 
 PCOD8281574
Probable space group: C M M A
;
_chemical_formula_sum "Si O2"
_cell_formula_units_Z 96
_cell_length_a 27.415402
_cell_length_b 9.298330
_cell_length_c 23.960893
_cell_angle_alpha 90.000000
_cell_angle_beta 90.000000
_cell_angle_gamma 90.000000
_cell_volume 6108.049860
_symmetry_space_group_name_H-M "C M M A"
_symmetry_group_IT_number 67
_symmetry_cell_setting 'orthorhombic'
loop_
_space_group_symop_operation_xyz
x,y,z
-x,1/2-y,z
x,-y,-z
-x,1/2+y,-z
-x,-y,-z
x,1/2+y,-z
-x,y,z
x,1/2-y,z
1/2+x,1/2+y,z
1/2-x,-y,z
1/2+x,1/2-y,-z
1/2-x,y,-z
1/2-x,1/2-y,-z
1/2+x,y,-z
1/2-x,1/2+y,z
1/2+x,-y,z
loop_
_atom_site_type_symbol
_atom_site_label
_atom_site_fract_x
_atom_site_fract_y
_atom_site_fract_z
Si Si1 0.058047 0.412736 0.447020
Si Si2 0.148619 0.081547 0.945241
Si Si3 0.553781 0.078766 0.115393
Si Si4 0.298783 0.581970 0.831868
Si Si5 0.442934 0.417300 0.338470
Si Si6 0.896168 0.920355 0.225319
O O1 0.078980 0.500000 0.500000
O O2 0.078455 0.250000 0.448111
O O3 0.075939 0.492196 0.391172
O O4 0.000000 0.411653 0.449317
O O5 0.149859 0.250000 0.957471
O O6 0.093578 0.029210 0.930266
O O7 0.184273 0.041526 0.894351
O O8 0.167213 0.000000 0.000000
O O9 0.500000 0.019513 0.099470
O O10 0.554013 0.250000 0.118019
O O11 0.568923 0.018401 0.176342
O O12 0.288413 0.750000 0.827520
O O13 0.250000 0.500000 0.815520
O O14 0.340429 0.534898 0.787662
O O15 0.500000 0.441172 0.327235
O O16 0.431805 0.250000 0.349970
O O17 0.413554 0.479152 0.285152
O O18 0.901146 0.750000 0.225336
#
# Coordination Sequence:
#
# PCOD8281574 Si02
#       6
#    16  16  16  16  16  16
#     4   9  16  25  36  52  79 115 150 179 203 228
#     4   9  18  30  43  61  83 104 130 165 201 240
#     4   8  13  23  40  60  81 106 134 163 196 235
#     4   9  18  32  47  62  80 103 131 165 206 247
#     4   9  15  23  39  62  84 108 138 169 201 237
#     4   8  14  25  41  61  83 104 131 167 202 241
#
# _framework density 15.716964000000001
#
# number of rings (size 3 to 8) (size 9 to 14) (size 15 to 20)
#    0.000    3.333    0.000    3.000    0.000    5.333 
#    0.000    2.500    0.000    1.000    0.000    0.000 
#    0.000    0.667    0.000    7.667    0.000    2.667 
#
# Total GULP energy -594929.377562 kJ/mol
# GULP energy per Si atom -12394.362033 kJ/mol
# Density = 1.568119 g / cm^3
# Si number density = 15.716964 Si / 1000 Ang^3
#
#
#
# Elastic Constant Matrix: (Units=GPa)
#
#
# Indices 1 2 3 4 5 6 
#
# 1 66.3829 19.5565 25.3140 0.0000 0.0000 0.0000
# 2 19.5565 47.8275 40.8559 0.0000 0.0000 0.0000
# 3 25.3140 40.8559 115.8821 0.0000 0.0000 0.0000
# 4 0.0000 0.0000 0.0000 22.3771 0.0000 0.0000
# 5 0.0000 0.0000 0.0000 0.0000 13.9364 0.0000
# 6 0.0000 0.0000 0.0000 0.0000 0.0000 17.2246
#
#
#
# Elastic Compliance Matrix: (Units=1/GPa)
#
#
# Indices 1 2 3 4 5 6 
#
# 1 0.017400 -0.005535 -0.001850 0.000000 0.000000 0.000000
# 2 -0.005535 0.031680 -0.009960 0.000000 0.000000 0.000000
# 3 -0.001850 -0.009960 0.012545 0.000000 0.000000 0.000000
# 4 0.000000 0.000000 0.000000 0.044689 0.000000 0.000000
# 5 0.000000 0.000000 0.000000 0.000000 0.071755 0.000000
# 6 0.000000 0.000000 0.000000 0.000000 0.000000 0.058056
#
#
# Mechanical properties :
#
#
# Convention : Reuss Voigt Hill
#
# Bulk Modulus (GPa) = 37.12518 44.61615 40.87067
# Shear Modulus (GPa) = 17.87040 20.33203 19.10122
#
# Velocity S-wave (km/s) = 3.37562 3.60062 3.48993
# Velocity P-wave (km/s) = 6.23422 6.76275 6.50386
#
# Compressibility (1/GPa) = 0.02693589
#
# Stress axis : x y z
#
# Youngs Moduli (GPa) = 57.47128 31.56572 79.71248
#
# Poissons Ratio (x) = 0.17471 0.14743
# Poissons Ratio (y) = 0.31809 0.79395
# Poissons Ratio (z) = 0.10630 0.31440
#
# Static dielectric constant tensor:
#      x y z
#    x 2.873070 0.000000 0.000000 
#    y 0.000000 2.711860 0.000000 
#    z 0.000000 0.000000 3.125760 
# 
# 
# High freq. dielectric constant tensor:
#      x y z
#    x 1.572930 0.000000 0.000000 
#    y 0.000000 1.574060 0.000000 
#    z 0.000000 0.000000 1.602780 
# 
# From -- ./inp_files/42692.got.cif
#   From: 2010.03.12/outbox.cif.g09.slc.cpg/sg67_22_cif.got.tgz:42692.got - 2010.04.10 22:41:39.
