data_PCOD8281527
_publ_section_title
;
Structure prediction by ZEFSAII (Michael W. Deem and Ramdas Pophale) SiO2 
 PCOD8281527
Probable space group: C M M A
;
_chemical_formula_sum "Si O2"
_cell_formula_units_Z 64
_cell_length_a 8.416211
_cell_length_b 23.796467
_cell_length_c 15.412984
_cell_angle_alpha 90.000000
_cell_angle_beta 90.000000
_cell_angle_gamma 90.000000
_cell_volume 3086.852130
_symmetry_space_group_name_H-M "C M M A"
_symmetry_group_IT_number 67
_symmetry_cell_setting 'orthorhombic'
loop_
_space_group_symop_operation_xyz
x,y,z
-x,1/2-y,z
x,-y,-z
-x,1/2+y,-z
-x,-y,-z
x,1/2+y,-z
-x,y,z
x,1/2-y,z
1/2+x,1/2+y,z
1/2-x,-y,z
1/2+x,1/2-y,-z
1/2-x,y,-z
1/2-x,1/2-y,-z
1/2+x,y,-z
1/2-x,1/2+y,z
1/2+x,-y,z
loop_
_atom_site_type_symbol
_atom_site_label
_atom_site_fract_x
_atom_site_fract_y
_atom_site_fract_z
Si Si1 0.187142 0.362530 0.908010
Si Si2 0.184534 0.750000 0.356021
Si Si3 0.813703 0.867774 0.590448
Si Si4 0.810843 0.437347 0.244436
Si Si5 0.315578 0.250000 0.832709
O O1 0.229001 0.409741 0.838425
O O2 0.277508 0.304640 0.888647
O O3 0.000000 0.351661 0.909863
O O4 0.250000 0.385069 0.000000
O O5 0.260879 0.696156 0.400216
O O6 0.210643 0.750000 0.253347
O O7 0.000000 0.750000 0.376587
O O8 0.750000 0.893041 0.500000
O O9 0.748917 0.904397 0.670580
O O10 0.000000 0.871078 0.589283
O O11 0.750000 0.500000 0.253100
O O12 0.000000 0.434630 0.234424
O O13 0.500000 0.250000 0.805780
#
# Coordination Sequence:
#
# PCOD8281527 Si02
#       5
#    16   8  16  16   8
#     4  12  25  43  68  98 132 171 215 264 322 384
#     4  12  23  38  65  97 131 171 214 260 323 386
#     4  11  24  42  66  95 132 171 214 266 323 383
#     4  11  25  45  68  94 128 170 218 272 323 380
#     4  12  23  40  65  97 135 171 212 260 321 386
#
# _framework density 20.733096
#
# number of rings (size 3 to 8) (size 9 to 14) (size 15 to 20)
#    0.000    0.500    2.500    6.750    0.000    4.000 
#    0.000    5.000    0.000    0.000    0.000    0.000 
#    0.000    0.000    0.000    0.000    0.000    0.000 
#
# Total GULP energy -397046.554270 kJ/mol
# GULP energy per Si atom -12407.704821 kJ/mol
# Density = 2.068591 g / cm^3
# Si number density = 20.733096 Si / 1000 Ang^3
#
#
#
# Elastic Constant Matrix: (Units=GPa)
#
#
# Indices 1 2 3 4 5 6 
#
# 1 66.4239 15.8400 21.1037 0.0000 0.0000 0.0000
# 2 15.8400 130.3431 51.6274 0.0000 0.0000 0.0000
# 3 21.1037 51.6274 166.5695 0.0000 0.0000 0.0000
# 4 0.0000 0.0000 0.0000 10.1175 0.0000 0.0000
# 5 0.0000 0.0000 0.0000 0.0000 38.0709 0.0000
# 6 0.0000 0.0000 0.0000 0.0000 0.0000 33.4659
#
#
#
# Elastic Compliance Matrix: (Units=1/GPa)
#
#
# Indices 1 2 3 4 5 6 
#
# 1 0.015875 -0.001291 -0.001611 0.000000 0.000000 0.000000
# 2 -0.001291 0.008851 -0.002580 0.000000 0.000000 0.000000
# 3 -0.001611 -0.002580 0.007007 0.000000 0.000000 0.000000
# 4 0.000000 0.000000 0.000000 0.098839 0.000000 0.000000
# 5 0.000000 0.000000 0.000000 0.000000 0.026267 0.000000
# 6 0.000000 0.000000 0.000000 0.000000 0.000000 0.029881
#
#
# Mechanical properties :
#
#
# Convention : Reuss Voigt Hill
#
# Bulk Modulus (GPa) = 48.14896 60.05318 54.10107
# Shear Modulus (GPa) = 24.43727 34.64856 29.54292
#
# Velocity S-wave (km/s) = 3.43689 4.09243 3.77890
# Velocity P-wave (km/s) = 6.24686 7.16648 6.72241
#
# Compressibility (1/GPa) = 0.02076888
#
# Stress axis : x y z
#
# Youngs Moduli (GPa) = 62.99384 112.98505 142.71083
#
# Poissons Ratio (x) = 0.14587 0.22992
# Poissons Ratio (y) = 0.08133 0.36815
# Poissons Ratio (z) = 0.10149 0.29146
#
# Static dielectric constant tensor:
#      x y z
#    x 3.897380 0.000000 0.000000 
#    y 0.000000 3.659780 0.000000 
#    z 0.000000 0.000000 4.302570 
# 
# 
# High freq. dielectric constant tensor:
#      x y z
#    x 1.826860 0.000000 0.000000 
#    y 0.000000 1.808330 0.000000 
#    z 0.000000 0.000000 1.832230 
# 
# From -- ./inp_files/24840.got.cif
#   From: 2010.03.12/outbox.cif.g09.slc.cpg/sg67_13_cif.got.tgz:24840.got - 2010.04.10 22:41:39.
