data_PCOD8281982
_publ_section_title
;
Structure prediction by ZEFSAII (Michael W. Deem and Ramdas Pophale) SiO2 
 PCOD8281982
Probable space group: C C C A
;
_chemical_formula_sum "Si O2"
_cell_formula_units_Z 104
_cell_length_a 19.656126
_cell_length_b 15.469476
_cell_length_c 17.962437
_cell_angle_alpha 90.000000
_cell_angle_beta 90.000000
_cell_angle_gamma 90.000000
_cell_volume 5461.837669
_symmetry_space_group_name_H-M "C C C A"
_symmetry_group_IT_number 68
_space_group.IT_coordinate_system_code '2'
_symmetry_cell_setting 'orthorhombic'
loop_
_space_group_symop_operation_xyz
x,y,z
-x,1/2-y,z
x,1/2-y,1/2-z
-x,y,1/2-z
-x,-y,-z
x,1/2+y,-z
-x,1/2+y,1/2+z
x,-y,1/2+z
1/2+x,1/2+y,z
1/2-x,-y,z
1/2+x,-y,1/2-z
1/2-x,1/2+y,1/2-z
1/2-x,1/2-y,-z
1/2+x,y,-z
1/2-x,y,1/2+z
1/2+x,1/2-y,1/2+z
loop_
_atom_site_type_symbol
_atom_site_label
_atom_site_fract_x
_atom_site_fract_y
_atom_site_fract_z
Si Si1 0.660546 0.897837 0.598402
Si Si2 0.449229 0.323222 0.530390
Si Si3 0.681430 0.286691 0.531350
Si Si4 0.718726 0.207784 0.674132
Si Si5 0.509684 0.152307 0.125732
Si Si6 0.000000 0.974695 0.250000
Si Si7 0.609658 0.431314 0.843652
O O1 0.666711 0.879405 0.508571
O O2 0.719986 0.846872 0.640033
O O3 0.589740 0.862775 0.628658
O O4 0.661276 0.999579 0.617633
O O5 0.500000 0.250000 0.562155
O O6 0.377785 0.279982 0.508833
O O7 0.479811 0.365890 0.456060
O O8 0.441130 0.397196 0.592149
O O9 0.750000 0.250000 0.500000
O O10 0.691652 0.286296 0.620742
O O11 0.744356 0.250000 0.750000
O O12 0.655070 0.145023 0.689864
O O13 0.500000 0.250000 0.152268
O O14 0.473527 0.086142 0.182592
O O15 0.063847 0.032300 0.276472
#
# Coordination Sequence:
#
# PCOD8281982 Si02
#       7
#    16  16  16  16  16   8  16
#     4  10  19  37  61  82 118 155 194 253 302 346
#     4  10  19  37  61  85 114 154 202 243 297 360
#     4   9  18  36  59  86 112 154 208 244 289 362
#     4  10  22  39  61  85 120 167 205 240 299 368
#     4  10  19  36  58  88 114 150 199 244 302 359
#     4  10  23  34  51  88 122 152 188 246 307 364
#     4  10  23  39  56  88 123 158 197 253 307 350
#
# _framework density 19.041211000000001
#
# number of rings (size 3 to 8) (size 9 to 14) (size 15 to 20)
#    0.000    2.154    3.077    0.692    0.000    7.385 
#    2.769    0.000    0.000    1.846    0.000    0.000 
#    0.000    0.000    0.000    0.000    0.000    0.000 
#
# Total GULP energy -644452.429575 kJ/mol
# GULP energy per Si atom -12393.315953 kJ/mol
# Density = 1.899787 g / cm^3
# Si number density = 19.041211 Si / 1000 Ang^3
#
#
#
# Elastic Constant Matrix: (Units=GPa)
#
#
# Indices 1 2 3 4 5 6 
#
# 1 95.3939 27.8199 39.0506 0.0000 0.0000 0.0000
# 2 27.8199 77.7227 57.7708 0.0000 0.0000 0.0000
# 3 39.0506 57.7708 120.6880 0.0000 0.0000 0.0000
# 4 0.0000 0.0000 0.0000 35.9463 0.0000 0.0000
# 5 0.0000 0.0000 0.0000 0.0000 28.8140 0.0000
# 6 0.0000 0.0000 0.0000 0.0000 0.0000 30.7485
#
#
#
# Elastic Compliance Matrix: (Units=1/GPa)
#
#
# Indices 1 2 3 4 5 6 
#
# 1 0.012331 -0.002248 -0.002914 0.000000 0.000000 0.000000
# 2 -0.002248 0.020382 -0.009029 0.000000 0.000000 0.000000
# 3 -0.002914 -0.009029 0.013551 0.000000 0.000000 0.000000
# 4 0.000000 0.000000 0.000000 0.027819 0.000000 0.000000
# 5 0.000000 0.000000 0.000000 0.000000 0.034705 0.000000
# 6 0.000000 0.000000 0.000000 0.000000 0.000000 0.032522
#
#
# Mechanical properties :
#
#
# Convention : Reuss Voigt Hill
#
# Bulk Modulus (GPa) = 55.92166 60.34299 58.13233
# Shear Modulus (GPa) = 28.46512 30.37932 29.42222
#
# Velocity S-wave (km/s) = 3.87062 3.99864 3.93515
# Velocity P-wave (km/s) = 7.02909 7.28549 7.15844
#
# Compressibility (1/GPa) = 0.01788216
#
# Stress axis : x y z
#
# Youngs Moduli (GPa) = 81.09460 49.06244 73.79662
#
# Poissons Ratio (x) = 0.11029 0.21504
# Poissons Ratio (y) = 0.18229 0.66632
# Poissons Ratio (z) = 0.23631 0.44299
#
# Static dielectric constant tensor:
#      x y z
#    x 3.551890 0.000000 0.000000 
#    y 0.000000 3.649650 0.000000 
#    z 0.000000 0.000000 3.718400 
# 
# 
# High freq. dielectric constant tensor:
#      x y z
#    x 1.751620 0.000000 0.000000 
#    y 0.000000 1.728300 0.000000 
#    z 0.000000 0.000000 1.733890 
# 
# From -- ./inp_files/33000.got.cif
#   From: 2010.03.12/outbox.cif.g09.slc.cpg/sg68_17_cif.got.tgz:33000.got - 2010.04.10 23:14:56.
