data_PCOD8281377
_publ_section_title
;
Structure prediction by ZEFSAII (Michael W. Deem and Ramdas Pophale) SiO2 
 PCOD8281377
Probable space group: C M M A
;
_chemical_formula_sum "Si O2"
_cell_formula_units_Z 112
_cell_length_a 27.763340
_cell_length_b 14.985865
_cell_length_c 12.276490
_cell_angle_alpha 90.000000
_cell_angle_beta 90.000000
_cell_angle_gamma 90.000000
_cell_volume 5107.727766
_symmetry_space_group_name_H-M "C M M A"
_symmetry_group_IT_number 67
_symmetry_cell_setting 'orthorhombic'
loop_
_space_group_symop_operation_xyz
x,y,z
-x,1/2-y,z
x,-y,-z
-x,1/2+y,-z
-x,-y,-z
x,1/2+y,-z
-x,y,z
x,1/2-y,z
1/2+x,1/2+y,z
1/2-x,-y,z
1/2+x,1/2-y,-z
1/2-x,y,-z
1/2-x,1/2-y,-z
1/2+x,y,-z
1/2-x,1/2+y,z
1/2+x,-y,z
loop_
_atom_site_type_symbol
_atom_site_label
_atom_site_fract_x
_atom_site_fract_y
_atom_site_fract_z
Si Si1 0.944968 0.476213 0.700423
Si Si2 0.112319 0.348166 0.334127
Si Si3 0.196106 0.104514 0.761076
Si Si4 0.197245 0.901943 0.802270
Si Si5 0.847614 0.350412 0.987992
Si Si6 0.553404 0.647844 0.907725
Si Si7 0.875586 0.849936 0.420340
O O1 0.924593 0.576709 0.707828
O O2 0.939179 0.424709 0.813753
O O3 0.916116 0.420598 0.611309
O O4 0.000000 0.481536 0.662572
O O5 0.087070 0.250000 0.332565
O O6 0.157431 0.340712 0.253104
O O7 0.134546 0.369236 0.452911
O O8 0.250130 0.140544 0.781942
O O9 0.163771 0.135029 0.861701
O O10 0.173703 0.141408 0.649141
O O11 0.195357 0.998737 0.749398
O O12 0.184310 0.911380 0.931415
O O13 0.835263 0.250000 0.022250
O O14 0.905363 0.369366 0.998971
O O15 0.500000 0.635590 0.959884
O O16 0.558972 0.750000 0.862518
O O17 0.895878 0.750000 0.403993
#
# Coordination Sequence:
#
# PCOD8281377 Si02
#       7
#    16  16  16  16  16  16  16
#     4  11  22  40  67  96 127 164 210 267 323 373
#     4  11  25  43  62  90 131 173 214 258 313 387
#     4  11  23  40  65  92 124 164 219 273 316 375
#     4  11  24  41  62  91 126 173 214 255 323 392
#     4  11  21  36  61  92 130 168 209 265 320 376
#     4   9  18  35  63  98 131 169 220 271 320 377
#     4  11  23  41  67  96 125 163 213 269 323 376
#
# _framework density 21.927558000000001
#
# number of rings (size 3 to 8) (size 9 to 14) (size 15 to 20)
#    0.000    1.286    2.857    2.571    0.000    6.857 
#    0.000    5.000    0.000    4.286    0.000    0.000 
#    0.000    0.000    0.000    0.000    0.000    0.000 
#
# Total GULP energy -694287.682182 kJ/mol
# GULP energy per Si atom -12397.994325 kJ/mol
# Density = 2.187765 g / cm^3
# Si number density = 21.927558 Si / 1000 Ang^3
#
#
#
# Elastic Constant Matrix: (Units=GPa)
#
#
# Indices 1 2 3 4 5 6 
#
# 1 153.0710 46.5967 44.1276 0.0000 0.0000 0.0000
# 2 46.5967 112.1406 18.0311 0.0000 0.0000 0.0000
# 3 44.1276 18.0311 68.0664 0.0000 0.0000 0.0000
# 4 0.0000 0.0000 0.0000 20.5435 0.0000 0.0000
# 5 0.0000 0.0000 0.0000 0.0000 22.9108 0.0000
# 6 0.0000 0.0000 0.0000 0.0000 0.0000 22.4690
#
#
#
# Elastic Compliance Matrix: (Units=1/GPa)
#
#
# Indices 1 2 3 4 5 6 
#
# 1 0.008841 -0.002874 -0.004970 0.000000 0.000000 0.000000
# 2 -0.002874 0.010249 -0.000851 0.000000 0.000000 0.000000
# 3 -0.004970 -0.000851 0.018139 0.000000 0.000000 0.000000
# 4 0.000000 0.000000 0.000000 0.048677 0.000000 0.000000
# 5 0.000000 0.000000 0.000000 0.000000 0.043648 0.000000
# 6 0.000000 0.000000 0.000000 0.000000 0.000000 0.044506
#
#
# Mechanical properties :
#
#
# Convention : Reuss Voigt Hill
#
# Bulk Modulus (GPa) = 50.41128 61.19876 55.80502
# Shear Modulus (GPa) = 25.24453 28.15284 26.69869
#
# Velocity S-wave (km/s) = 3.39672 3.58705 3.49318
# Velocity P-wave (km/s) = 6.19866 6.71759 6.46333
#
# Compressibility (1/GPa) = 0.01983683
#
# Stress axis : x y z
#
# Youngs Moduli (GPa) = 113.11375 97.57395 55.12938
#
# Poissons Ratio (x) = 0.28046 0.27399
# Poissons Ratio (y) = 0.32513 0.04694
# Poissons Ratio (z) = 0.56217 0.08308
#
# Static dielectric constant tensor:
#      x y z
#    x 4.225700 0.000000 0.000000 
#    y 0.000000 4.064150 0.000000 
#    z 0.000000 0.000000 3.722310 
# 
# 
# High freq. dielectric constant tensor:
#      x y z
#    x 1.861410 0.000000 0.000000 
#    y 0.000000 1.876220 0.000000 
#    z 0.000000 0.000000 1.846810 
# 
# From -- ./inp_files/23799.got.cif
#   From: 2010.03.12/outbox.cif.g09.slc.cpg/sg67_12_cif.got.tgz:23799.got - 2010.04.10 22:41:39.
