data_PCOD8281897
_publ_section_title
;
Structure prediction by ZEFSAII (Michael W. Deem and Ramdas Pophale) SiO2 
 PCOD8281897
Probable space group: C C C A
;
_chemical_formula_sum "Si O2"
_cell_formula_units_Z 88
_cell_length_a 10.218321
_cell_length_b 22.867355
_cell_length_c 18.954725
_cell_angle_alpha 90.000000
_cell_angle_beta 90.000000
_cell_angle_gamma 90.000000
_cell_volume 4429.074275
_symmetry_space_group_name_H-M "C C C A"
_symmetry_group_IT_number 68
_space_group.IT_coordinate_system_code '2'
_symmetry_cell_setting 'orthorhombic'
loop_
_space_group_symop_operation_xyz
x,y,z
-x,1/2-y,z
x,1/2-y,1/2-z
-x,y,1/2-z
-x,-y,-z
x,1/2+y,-z
-x,1/2+y,1/2+z
x,-y,1/2+z
1/2+x,1/2+y,z
1/2-x,-y,z
1/2+x,-y,1/2-z
1/2-x,1/2+y,1/2-z
1/2-x,1/2-y,-z
1/2+x,y,-z
1/2-x,y,1/2+z
1/2+x,1/2-y,1/2+z
loop_
_atom_site_type_symbol
_atom_site_label
_atom_site_fract_x
_atom_site_fract_y
_atom_site_fract_z
Si Si1 0.112327 0.846838 0.164629
Si Si2 0.221422 0.065950 0.943437
Si Si3 0.298807 0.243009 0.827359
Si Si4 0.045569 0.627227 0.485569
Si Si5 0.500000 0.250000 0.554842
Si Si6 0.677999 0.374234 0.308838
O O1 0.166752 0.781156 0.170035
O O2 0.188800 0.886829 0.224359
O O3 0.960231 0.843082 0.180478
O O4 0.126524 0.876123 0.087887
O O5 0.355857 0.100185 0.957969
O O6 0.196761 0.068967 0.858317
O O7 0.250000 0.000000 0.966944
O O8 0.093128 0.092276 0.982815
O O9 0.365987 0.250000 0.750000
O O10 0.381965 0.266120 0.892997
O O11 0.278510 0.174028 0.837887
O O12 0.019935 0.694771 0.504147
#
# Coordination Sequence:
#
# PCOD8281897 Si02
#       6
#    16  16  16  16   8  16
#     4   9  19  33  57  85 116 150 194 250 306 365
#     4  11  23  42  63  86 120 165 211 253 302 362
#     4  10  19  33  53  82 123 160 193 244 303 373
#     4  11  24  38  62  91 127 159 204 259 311 371
#     4  12  23  34  56  89 132 158 198 244 322 371
#     4   9  18  36  57  82 113 152 206 245 297 359
#
# _framework density 19.868713
#
# number of rings (size 3 to 8) (size 9 to 14) (size 15 to 20)
#    0.000    1.818    1.818    2.455    5.091    3.636 
#    0.000    0.909    0.000   17.455    0.000    0.000 
#    0.000    0.000    0.000    0.000    0.000    0.000 
#
# Total GULP energy -545087.679031 kJ/mol
# GULP energy per Si atom -12388.356342 kJ/mol
# Density = 1.982349 g / cm^3
# Si number density = 19.868713 Si / 1000 Ang^3
#
#
#
# Elastic Constant Matrix: (Units=GPa)
#
#
# Indices 1 2 3 4 5 6 
#
# 1 87.0838 42.6522 40.0193 0.0000 0.0000 0.0000
# 2 42.6522 97.0814 37.8238 0.0000 0.0000 0.0000
# 3 40.0193 37.8238 119.0209 0.0000 0.0000 0.0000
# 4 0.0000 0.0000 0.0000 20.3196 0.0000 0.0000
# 5 0.0000 0.0000 0.0000 0.0000 24.9662 0.0000
# 6 0.0000 0.0000 0.0000 0.0000 0.0000 20.8156
#
#
#
# Elastic Compliance Matrix: (Units=1/GPa)
#
#
# Indices 1 2 3 4 5 6 
#
# 1 0.015850 -0.005578 -0.003557 0.000000 0.000000 0.000000
# 2 -0.005578 0.013719 -0.002484 0.000000 0.000000 0.000000
# 3 -0.003557 -0.002484 0.010387 0.000000 0.000000 0.000000
# 4 0.000000 0.000000 0.000000 0.049214 0.000000 0.000000
# 5 0.000000 0.000000 0.000000 0.000000 0.040054 0.000000
# 6 0.000000 0.000000 0.000000 0.000000 0.000000 0.048041
#
#
# Mechanical properties :
#
#
# Convention : Reuss Voigt Hill
#
# Bulk Modulus (GPa) = 59.81423 60.46408 60.13916
# Shear Modulus (GPa) = 24.26303 25.39966 24.83134
#
# Velocity S-wave (km/s) = 3.49831 3.57932 3.53905
# Velocity P-wave (km/s) = 6.81819 6.89782 6.85812
#
# Compressibility (1/GPa) = 0.01671843
#
# Stress axis : x y z
#
# Youngs Moduli (GPa) = 63.09340 72.89106 96.27148
#
# Poissons Ratio (x) = 0.40656 0.34241
# Poissons Ratio (y) = 0.35192 0.23918
# Poissons Ratio (z) = 0.22440 0.18109
#
# Static dielectric constant tensor:
#      x y z
#    x 3.509590 0.000000 0.000000 
#    y 0.000000 3.182590 0.000000 
#    z 0.000000 0.000000 4.156160 
# 
# 
# High freq. dielectric constant tensor:
#      x y z
#    x 1.769660 0.000000 0.000000 
#    y 0.000000 1.736360 0.000000 
#    z 0.000000 0.000000 1.794640 
# 
# From -- ./inp_files/29637.got.cif
#   From: 2010.03.12/outbox.cif.g09.slc.cpg/sg68_15_cif.got.tgz:29637.got - 2010.04.10 23:14:56.
