data_PCOD8281459
_publ_section_title
;
Structure prediction by ZEFSAII (Michael W. Deem and Ramdas Pophale) SiO2 
 PCOD8281459
Probable space group: C M M A
;
_chemical_formula_sum "Si O2"
_cell_formula_units_Z 56
_cell_length_a 8.812271
_cell_length_b 15.544999
_cell_length_c 19.895322
_cell_angle_alpha 90.000000
_cell_angle_beta 90.000000
_cell_angle_gamma 90.000000
_cell_volume 2725.395379
_symmetry_space_group_name_H-M "C M M A"
_symmetry_group_IT_number 67
_symmetry_cell_setting 'orthorhombic'
loop_
_space_group_symop_operation_xyz
x,y,z
-x,1/2-y,z
x,-y,-z
-x,1/2+y,-z
-x,-y,-z
x,1/2+y,-z
-x,y,z
x,1/2-y,z
1/2+x,1/2+y,z
1/2-x,-y,z
1/2+x,1/2-y,-z
1/2-x,y,-z
1/2-x,1/2-y,-z
1/2+x,y,-z
1/2-x,1/2+y,z
1/2+x,-y,z
loop_
_atom_site_type_symbol
_atom_site_label
_atom_site_fract_x
_atom_site_fract_y
_atom_site_fract_z
Si Si1 0.180456 0.588610 0.649450
Si Si2 0.831962 0.647191 0.934989
Si Si3 0.820091 0.154592 0.209340
Si Si4 0.681448 0.250000 0.426449
O O1 0.250000 0.500000 0.621326
O O2 0.224837 0.594110 0.728466
O O3 0.258985 0.665753 0.610648
O O4 0.000000 0.592182 0.637967
O O5 0.831179 0.750000 0.937944
O O6 0.756317 0.619669 0.862852
O O7 0.000000 0.609789 0.938938
O O8 0.750000 0.607237 0.000000
O O9 0.754740 0.250000 0.224283
O O10 0.000000 0.161334 0.202003
O O11 0.500000 0.250000 0.428781
O O12 0.750000 0.250000 0.500000
#
# Coordination Sequence:
#
# PCOD8281459 Si02
#       4
#    16  16  16   8
#     4  11  22  40  65  94 127 164 204 250 302 358
#     4   8  13  22  39  66 100 140 189 241 294 350
#     4   8  14  28  52  77 107 153 199 241 297 359
#     4  12  26  46  70  98 127 160 199 242 295 358
#
# _framework density 20.547478000000002
#
# number of rings (size 3 to 8) (size 9 to 14) (size 15 to 20)
#    0.000    2.571    1.429    3.857    0.000    0.571 
#    0.000    5.714    0.000    0.857    0.000    6.000 
#    0.000    0.000    0.000    0.000    0.000    0.000 
#
# Total GULP energy -346914.893584 kJ/mol
# GULP energy per Si atom -12389.817628 kJ/mol
# Density = 2.050071 g / cm^3
# Si number density = 20.547478 Si / 1000 Ang^3
#
#
#
# Elastic Constant Matrix: (Units=GPa)
#
#
# Indices 1 2 3 4 5 6 
#
# 1 104.9682 46.9474 63.9488 0.0000 0.0000 0.0000
# 2 46.9474 110.5573 56.9834 0.0000 0.0000 0.0000
# 3 63.9488 56.9834 161.7017 0.0000 0.0000 0.0000
# 4 0.0000 0.0000 0.0000 -14.2680 0.0000 0.0000
# 5 0.0000 0.0000 0.0000 0.0000 31.7869 0.0000
# 6 0.0000 0.0000 0.0000 0.0000 0.0000 23.3821
#
#
#
# Elastic Compliance Matrix: (Units=1/GPa)
#
#
# Indices 1 2 3 4 5 6 
#
# 1 0.013682 -0.003691 -0.004110 0.000000 0.000000 0.000000
# 2 -0.003691 0.012049 -0.002786 0.000000 0.000000 0.000000
# 3 -0.004110 -0.002786 0.008791 0.000000 0.000000 0.000000
# 4 0.000000 0.000000 0.000000 -0.070087 0.000000 0.000000
# 5 0.000000 0.000000 0.000000 0.000000 0.031460 0.000000
# 6 0.000000 0.000000 0.000000 0.000000 0.000000 0.042768
#
#
# Mechanical properties :
#
#
# Convention : Reuss Voigt Hill
#
# Bulk Modulus (GPa) = 74.92414 79.22070 77.07242
# Shear Modulus (GPa) = 77.77848 22.13672 49.95760
#
# Velocity S-wave (km/s) = 6.15916 3.28585 4.93620
# Velocity P-wave (km/s) = 9.33399 7.28247 8.37131
#
# Compressibility (1/GPa) = 0.01334683
#
# Stress axis : x y z
#
# Youngs Moduli (GPa) = 73.09134 82.99714 113.74828
#
# Poissons Ratio (x) = 0.30638 0.46748
# Poissons Ratio (y) = 0.26982 0.31691
# Poissons Ratio (z) = 0.30039 0.23123
#
# Static dielectric constant tensor:
#      x y z
#    x 3.522470 0.000000 0.000000 
#    y 0.000000 3.380510 0.000000 
#    z 0.000000 0.000000 4.535780 
# 
# 
# High freq. dielectric constant tensor:
#      x y z
#    x 1.773000 0.000000 0.000000 
#    y 0.000000 1.777470 0.000000 
#    z 0.000000 0.000000 1.823300 
# 
# From -- ./inp_files/36518.got.cif
#   From: 2010.03.12/outbox.cif.g09.slc.cpg/sg67_19_cif.got.tgz:36518.got - 2010.04.10 22:41:39.
