data_PCOD8281643
_publ_section_title
;
Structure prediction by ZEFSAII (Michael W. Deem and Ramdas Pophale) SiO2 
 PCOD8281643
Probable space group: C C C A
;
_chemical_formula_sum "Si O2"
_cell_formula_units_Z 64
_cell_length_a 37.260477
_cell_length_b 15.546766
_cell_length_c 5.190806
_cell_angle_alpha 90.000000
_cell_angle_beta 90.000000
_cell_angle_gamma 90.000000
_cell_volume 3006.929669
_symmetry_space_group_name_H-M "C C C A"
_symmetry_group_IT_number 68
_space_group.IT_coordinate_system_code '2'
_symmetry_cell_setting 'orthorhombic'
loop_
_space_group_symop_operation_xyz
x,y,z
-x,1/2-y,z
x,1/2-y,1/2-z
-x,y,1/2-z
-x,-y,-z
x,1/2+y,-z
-x,1/2+y,1/2+z
x,-y,1/2+z
1/2+x,1/2+y,z
1/2-x,-y,z
1/2+x,-y,1/2-z
1/2-x,1/2+y,1/2-z
1/2-x,1/2-y,-z
1/2+x,y,-z
1/2-x,y,1/2+z
1/2+x,1/2-y,1/2+z
loop_
_atom_site_type_symbol
_atom_site_label
_atom_site_fract_x
_atom_site_fract_y
_atom_site_fract_z
Si Si1 0.984233 0.403731 0.499082
Si Si2 0.233751 0.652501 0.317499
Si Si3 0.097225 0.445206 0.992196
Si Si4 0.656442 0.305280 0.007289
O O1 0.941521 0.401669 0.486313
O O2 0.000000 0.355318 0.750000
O O3 0.000000 0.500000 0.500000
O O4 0.000000 0.354673 0.250000
O O5 0.246143 0.750000 0.250000
O O6 0.258439 0.607512 0.539927
O O7 0.192568 0.646287 0.403768
O O8 0.101946 0.519763 0.203547
O O9 0.126538 0.374398 0.059424
O O10 0.664029 0.250000 0.750000
O O11 0.642569 0.250000 0.250000
#
# Coordination Sequence:
#
# PCOD8281643 Si02
#       4
#    16  16  16  16
#     4  10  16  31  54  83  99 132 190 247 252 299
#     4   9  16  30  55  80 102 141 196 231 256 318
#     4  12  22  36  60  87 111 148 192 235 275 336
#     4  11  23  38  56  85 122 149 177 235 296 334
#
# _framework density 21.284168000000001
#
# number of rings (size 3 to 8) (size 9 to 14) (size 15 to 20)
#    0.000    1.500    5.000    5.250    0.000    0.000 
#    0.000    0.000    0.000    9.000    0.000    0.000 
#    0.000    0.000    0.000    0.000    0.000    0.000 
#
# Total GULP energy -396588.676996 kJ/mol
# GULP energy per Si atom -12393.396156 kJ/mol
# Density = 2.123572 g / cm^3
# Si number density = 21.284168 Si / 1000 Ang^3
#
#
#
# Elastic Constant Matrix: (Units=GPa)
#
#
# Indices 1 2 3 4 5 6 
#
# 1 175.3555 35.7436 58.5310 0.0000 0.0000 0.0000
# 2 35.7436 19.0444 12.6758 0.0000 0.0000 0.0000
# 3 58.5310 12.6758 189.8218 0.0000 0.0000 0.0000
# 4 0.0000 0.0000 0.0000 4.6539 0.0000 0.0000
# 5 0.0000 0.0000 0.0000 0.0000 38.0358 0.0000
# 6 0.0000 0.0000 0.0000 0.0000 0.0000 22.5360
#
#
#
# Elastic Compliance Matrix: (Units=1/GPa)
#
#
# Indices 1 2 3 4 5 6 
#
# 1 0.009841 -0.017216 -0.001885 0.000000 0.000000 0.000000
# 2 -0.017216 0.085068 -0.000372 0.000000 0.000000 0.000000
# 3 -0.001885 -0.000372 0.005874 0.000000 0.000000 0.000000
# 4 0.000000 0.000000 0.000000 0.214875 0.000000 0.000000
# 5 0.000000 0.000000 0.000000 0.000000 0.026291 0.000000
# 6 0.000000 0.000000 0.000000 0.000000 0.000000 0.044373
#
#
# Mechanical properties :
#
#
# Convention : Reuss Voigt Hill
#
# Bulk Modulus (GPa) = 16.17137 66.45807 41.31472
# Shear Modulus (GPa) = 11.21379 31.52989 21.37184
#
# Velocity S-wave (km/s) = 2.29783 3.85304 3.17222
# Velocity P-wave (km/s) = 3.82811 7.14749 5.73328
#
# Compressibility (1/GPa) = 0.06183768
#
# Stress axis : x y z
#
# Youngs Moduli (GPa) = 101.61617 11.75533 170.23783
#
# Poissons Ratio (x) = 0.20237 0.32087
# Poissons Ratio (y) = 1.74938 0.06337
# Poissons Ratio (z) = 0.19153 0.00438
#
# Static dielectric constant tensor:
#      x y z
#    x 3.782800 0.000000 0.000000 
#    y 0.000000 3.053860 0.000000 
#    z 0.000000 0.000000 3.409420 
# 
# 
# High freq. dielectric constant tensor:
#      x y z
#    x 1.842530 0.000000 0.000000 
#    y 0.000000 1.756550 0.000000 
#    z 0.000000 0.000000 1.879380 
# 
# From -- ./inp_files/2615.got.cif
#   From: 2010.03.12/outbox.cif.g09.slc.cpg/sg68_2_cif.got.tgz:2615.got - 2010.04.10 23:14:56.
