data_PCOD8281496
_publ_section_title
;
Structure prediction by ZEFSAII (Michael W. Deem and Ramdas Pophale) SiO2 
 PCOD8281496
Probable space group: C M M A
;
_chemical_formula_sum "Si O2"
_cell_formula_units_Z 48
_cell_length_a 13.793243
_cell_length_b 16.380954
_cell_length_c 10.125621
_cell_angle_alpha 90.000000
_cell_angle_beta 90.000000
_cell_angle_gamma 90.000000
_cell_volume 2287.848414
_symmetry_space_group_name_H-M "C M M A"
_symmetry_group_IT_number 67
_symmetry_cell_setting 'orthorhombic'
loop_
_space_group_symop_operation_xyz
x,y,z
-x,1/2-y,z
x,-y,-z
-x,1/2+y,-z
-x,-y,-z
x,1/2+y,-z
-x,y,z
x,1/2-y,z
1/2+x,1/2+y,z
1/2-x,-y,z
1/2+x,1/2-y,-z
1/2-x,y,-z
1/2-x,1/2-y,-z
1/2+x,y,-z
1/2-x,1/2+y,z
1/2+x,-y,z
loop_
_atom_site_type_symbol
_atom_site_label
_atom_site_fract_x
_atom_site_fract_y
_atom_site_fract_z
Si Si1 0.210191 0.091274 0.857725
Si Si2 0.500000 0.093773 0.519766
Si Si3 0.187894 0.657418 0.616474
Si Si4 0.000000 0.651730 0.220628
O O1 0.258374 0.152521 0.755049
O O2 0.093703 0.105509 0.843999
O O3 0.250000 0.000000 0.826519
O O4 0.250000 0.117852 0.000000
O O5 0.587145 0.112047 0.617925
O O6 0.500000 0.141642 0.379862
O O7 0.500000 0.000000 0.500000
O O8 0.167263 0.750000 0.578830
O O9 0.250000 0.615708 0.500000
O O10 0.000000 0.750000 0.189962
#
# Coordination Sequence:
#
# PCOD8281496 Si02
#       4
#    16   8  16   8
#     4  11  26  45  69 101 140 180 228 280 340 406
#     4  12  24  39  68  99 134 176 226 282 344 403
#     4  11  23  40  65  97 130 171 225 277 330 399
#     4  12  24  44  72 100 136 184 228 276 348 411
#
# _framework density 20.980412000000001
#
# number of rings (size 3 to 8) (size 9 to 14) (size 15 to 20)
#    0.000    0.667    3.333    4.500    0.000    6.667 
#    0.000    0.000    0.000    0.000    0.000    0.000 
#    0.000    0.000    0.000    0.000    0.000    0.000 
#
# Total GULP energy -297463.885651 kJ/mol
# GULP energy per Si atom -12394.328569 kJ/mol
# Density = 2.093266 g / cm^3
# Si number density = 20.980412 Si / 1000 Ang^3
#
#
#
# Elastic Constant Matrix: (Units=GPa)
#
#
# Indices 1 2 3 4 5 6 
#
# 1 204.9949 56.7680 56.4781 0.0000 0.0000 0.0000
# 2 56.7680 102.9931 12.6681 0.0000 0.0000 0.0000
# 3 56.4781 12.6681 124.5169 0.0000 0.0000 0.0000
# 4 0.0000 0.0000 0.0000 9.6714 0.0000 0.0000
# 5 0.0000 0.0000 0.0000 0.0000 35.6527 0.0000
# 6 0.0000 0.0000 0.0000 0.0000 0.0000 35.2242
#
#
#
# Elastic Compliance Matrix: (Units=1/GPa)
#
#
# Indices 1 2 3 4 5 6 
#
# 1 0.006503 -0.003262 -0.002618 0.000000 0.000000 0.000000
# 2 -0.003262 0.011469 0.000313 0.000000 0.000000 0.000000
# 3 -0.002618 0.000313 0.009186 0.000000 0.000000 0.000000
# 4 0.000000 0.000000 0.000000 0.103397 0.000000 0.000000
# 5 0.000000 0.000000 0.000000 0.000000 0.028048 0.000000
# 6 0.000000 0.000000 0.000000 0.000000 0.000000 0.028390
#
#
# Mechanical properties :
#
#
# Convention : Reuss Voigt Hill
#
# Bulk Modulus (GPa) = 62.40544 76.03704 69.22124
# Shear Modulus (GPa) = 24.57376 36.54903 30.56140
#
# Velocity S-wave (km/s) = 3.42610 4.17832 3.82077
# Velocity P-wave (km/s) = 6.74241 7.72000 7.24771
#
# Compressibility (1/GPa) = 0.01602424
#
# Stress axis : x y z
#
# Youngs Moduli (GPa) = 153.78148 87.19157 108.85540
#
# Poissons Ratio (x) = 0.28444 0.28494
# Poissons Ratio (y) = 0.50167 -0.03405
# Poissons Ratio (z) = 0.40254 -0.02728
#
# Static dielectric constant tensor:
#      x y z
#    x 4.166930 0.000000 0.000000 
#    y 0.000000 3.640550 0.000000 
#    z 0.000000 0.000000 3.911530 
# 
# 
# High freq. dielectric constant tensor:
#      x y z
#    x 1.842390 0.000000 0.000000 
#    y 0.000000 1.827120 0.000000 
#    z 0.000000 0.000000 1.817660 
# 
# From -- ./inp_files/7369.got.cif
#   From: 2010.03.12/outbox.cif.g09.slc.cpg/sg67_4_cif.got.tgz:7369.got - 2010.04.10 22:41:39.
