data_PCOD8281375
_publ_section_title
;
Structure prediction by ZEFSAII (Michael W. Deem and Ramdas Pophale) SiO2 
 PCOD8281375
Probable space group: C M M A
;
_chemical_formula_sum "Si O2"
_cell_formula_units_Z 88
_cell_length_a 27.282902
_cell_length_b 21.985054
_cell_length_c 7.985872
_cell_angle_alpha 90.000000
_cell_angle_beta 90.000000
_cell_angle_gamma 90.000000
_cell_volume 4790.054388
_symmetry_space_group_name_H-M "C M M A"
_symmetry_group_IT_number 67
_symmetry_cell_setting 'orthorhombic'
loop_
_space_group_symop_operation_xyz
x,y,z
-x,1/2-y,z
x,-y,-z
-x,1/2+y,-z
-x,-y,-z
x,1/2+y,-z
-x,y,z
x,1/2-y,z
1/2+x,1/2+y,z
1/2-x,-y,z
1/2+x,1/2-y,-z
1/2-x,y,-z
1/2-x,1/2-y,-z
1/2+x,y,-z
1/2-x,1/2+y,z
1/2+x,-y,z
loop_
_atom_site_type_symbol
_atom_site_label
_atom_site_fract_x
_atom_site_fract_y
_atom_site_fract_z
Si Si1 0.897428 0.677809 0.556256
Si Si2 0.057837 0.317760 0.789004
Si Si3 0.441556 0.387457 0.880724
Si Si4 0.195798 0.995929 0.245143
Si Si5 0.303341 0.103553 0.530857
Si Si6 0.385282 0.500000 0.000000
O O1 0.901636 0.750000 0.581132
O O2 0.925254 0.654673 0.388957
O O3 0.921404 0.646312 0.717331
O O4 0.841355 0.658798 0.527119
O O5 0.079398 0.250000 0.806918
O O6 0.000000 0.317286 0.789576
O O7 0.076796 0.354768 0.949396
O O8 0.500000 0.390382 0.867282
O O9 0.419899 0.454924 0.895159
O O10 0.193541 0.948670 0.393940
O O11 0.250000 0.000000 0.162181
O O12 0.186196 0.066337 0.298182
O O13 0.152986 0.969224 0.127881
O O14 0.250000 0.133928 0.500000
#
# Coordination Sequence:
#
# PCOD8281375 Si02
#       6
#    16  16  16  16  16   8
#     4  11  21  36  59  83 111 150 192 235 284 339
#     4   9  19  36  56  77 104 144 192 233 271 324
#     4  11  23  37  54  82 116 150 189 237 285 337
#     4   9  18  33  57  81 107 144 187 234 282 334
#     4   9  18  35  54  80 111 142 184 231 282 340
#     4  12  20  34  54  80 114 144 184 238 290 340
#
# _framework density 18.371400000000001
#
# number of rings (size 3 to 8) (size 9 to 14) (size 15 to 20)
#    0.000    2.000    1.818    3.818    0.000    2.182 
#    0.000    0.000    0.000    4.364    0.000    6.364 
#    0.000    0.000    0.000    0.000    0.000    0.000 
#
# Total GULP energy -545096.177153 kJ/mol
# GULP energy per Si atom -12388.549481 kJ/mol
# Density = 1.832959 g / cm^3
# Si number density = 18.371400 Si / 1000 Ang^3
#
#
#
# Elastic Constant Matrix: (Units=GPa)
#
#
# Indices 1 2 3 4 5 6 
#
# 1 95.1623 40.0504 44.5626 0.0000 0.0000 0.0000
# 2 40.0504 60.6993 33.0334 0.0000 0.0000 0.0000
# 3 44.5626 33.0334 116.6980 0.0000 0.0000 0.0000
# 4 0.0000 0.0000 0.0000 20.6775 0.0000 0.0000
# 5 0.0000 0.0000 0.0000 0.0000 69.6254 0.0000
# 6 0.0000 0.0000 0.0000 0.0000 0.0000 27.2612
#
#
#
# Elastic Compliance Matrix: (Units=1/GPa)
#
#
# Indices 1 2 3 4 5 6 
#
# 1 0.015752 -0.008416 -0.003633 0.000000 0.000000 0.000000
# 2 -0.008416 0.023972 -0.003572 0.000000 0.000000 0.000000
# 3 -0.003633 -0.003572 0.010967 0.000000 0.000000 0.000000
# 4 0.000000 0.000000 0.000000 0.048362 0.000000 0.000000
# 5 0.000000 0.000000 0.000000 0.000000 0.014363 0.000000
# 6 0.000000 0.000000 0.000000 0.000000 0.000000 0.036682
#
#
# Mechanical properties :
#
#
# Convention : Reuss Voigt Hill
#
# Bulk Modulus (GPa) = 51.41549 56.42804 53.92176
# Shear Modulus (GPa) = 26.62109 33.84037 30.23073
#
# Velocity S-wave (km/s) = 3.81077 4.29652 4.06092
# Velocity P-wave (km/s) = 6.88550 7.44280 7.16957
#
# Compressibility (1/GPa) = 0.01944939
#
# Stress axis : x y z
#
# Youngs Moduli (GPa) = 63.48600 41.71598 91.18003
#
# Poissons Ratio (x) = 0.35109 0.33122
# Poissons Ratio (y) = 0.53431 0.32567
# Poissons Ratio (z) = 0.23062 0.14900
#
# Static dielectric constant tensor:
#      x y z
#    x 3.570760 0.000000 0.000000 
#    y 0.000000 3.347450 0.000000 
#    z 0.000000 0.000000 3.214530 
# 
# 
# High freq. dielectric constant tensor:
#      x y z
#    x 1.718910 0.000000 0.000000 
#    y 0.000000 1.692990 0.000000 
#    z 0.000000 0.000000 1.721390 
# 
# From -- ./inp_files/12455.got.cif
#   From: 2010.03.12/outbox.cif.g09.slc.cpg/sg67_7_cif.got.tgz:12455.got - 2010.04.10 22:41:39.
