data_PCOD8281066
_publ_section_title
;
Structure prediction by ZEFSAII (Michael W. Deem and Ramdas Pophale) SiO2 
 PCOD8281066
Probable space group: C M M A
;
_chemical_formula_sum "Si O2"
_cell_formula_units_Z 96
_cell_length_a 22.768224
_cell_length_b 18.835709
_cell_length_c 11.366895
_cell_angle_alpha 90.000000
_cell_angle_beta 90.000000
_cell_angle_gamma 90.000000
_cell_volume 4874.757049
_symmetry_space_group_name_H-M "C M M A"
_symmetry_group_IT_number 67
_symmetry_cell_setting 'orthorhombic'
loop_
_space_group_symop_operation_xyz
x,y,z
-x,1/2-y,z
x,-y,-z
-x,1/2+y,-z
-x,-y,-z
x,1/2+y,-z
-x,y,z
x,1/2-y,z
1/2+x,1/2+y,z
1/2-x,-y,z
1/2+x,1/2-y,-z
1/2-x,y,-z
1/2-x,1/2-y,-z
1/2+x,y,-z
1/2-x,1/2+y,z
1/2+x,-y,z
loop_
_atom_site_type_symbol
_atom_site_label
_atom_site_fract_x
_atom_site_fract_y
_atom_site_fract_z
Si Si1 0.892185 0.932622 0.856575
Si Si2 0.164368 0.167019 0.744628
Si Si3 0.064087 0.828780 0.678217
Si Si4 0.430026 0.913937 0.880926
Si Si5 0.329047 0.667213 0.472383
Si Si6 0.270228 0.421039 0.724832
O O1 0.933917 0.877483 0.791960
O O2 0.825392 0.923626 0.812776
O O3 0.917796 0.009613 0.823490
O O4 0.898018 0.914564 0.993319
O O5 0.174476 0.250000 0.767850
O O6 0.102011 0.145361 0.801748
O O7 0.165344 0.146638 0.607540
O O8 0.218836 0.120969 0.796296
O O9 0.080379 0.750000 0.721963
O O10 0.107532 0.853604 0.576927
O O11 0.000000 0.831799 0.620709
O O12 0.500000 0.898731 0.889199
O O13 0.312325 0.750000 0.455377
O O14 0.282057 0.621459 0.397796
O O15 0.250000 0.500000 0.691425
#
# Coordination Sequence:
#
# PCOD8281066 Si02
#       6
#    16  16  16  16  16  16
#     4  10  21  40  62  86 118 153 201 257 305 358
#     4  11  24  41  59  90 127 163 204 246 300 369
#     4   9  17  32  57  87 115 150 198 248 297 349
#     4  11  23  41  63  86 118 165 205 246 304 359
#     4   9  20  37  59  86 123 163 197 244 306 359
#     4  11  21  39  63  91 121 156 204 255 305 362
#
# _framework density 19.693289
#
# number of rings (size 3 to 8) (size 9 to 14) (size 15 to 20)
#    0.000    1.833    1.667    3.000    0.000    5.667 
#    0.000    2.500    0.000    3.000    0.000    0.000 
#    0.000    0.000    0.000    0.000    0.000    0.000 
#
# Total GULP energy -595046.267395 kJ/mol
# GULP energy per Si atom -12396.797237 kJ/mol
# Density = 1.964847 g / cm^3
# Si number density = 19.693289 Si / 1000 Ang^3
#
#
#
# Elastic Constant Matrix: (Units=GPa)
#
#
# Indices 1 2 3 4 5 6 
#
# 1 120.8781 47.4052 51.8320 0.0000 0.0000 0.0000
# 2 47.4052 102.6965 40.4435 0.0000 0.0000 0.0000
# 3 51.8320 40.4435 74.5652 0.0000 0.0000 0.0000
# 4 0.0000 0.0000 0.0000 27.6559 0.0000 0.0000
# 5 0.0000 0.0000 0.0000 0.0000 16.3616 0.0000
# 6 0.0000 0.0000 0.0000 0.0000 0.0000 33.1452
#
#
#
# Elastic Compliance Matrix: (Units=1/GPa)
#
#
# Indices 1 2 3 4 5 6 
#
# 1 0.012463 -0.002977 -0.007048 0.000000 0.000000 0.000000
# 2 -0.002977 0.013093 -0.005032 0.000000 0.000000 0.000000
# 3 -0.007048 -0.005032 0.021040 0.000000 0.000000 0.000000
# 4 0.000000 0.000000 0.000000 0.036159 0.000000 0.000000
# 5 0.000000 0.000000 0.000000 0.000000 0.061119 0.000000
# 6 0.000000 0.000000 0.000000 0.000000 0.000000 0.030170
#
#
# Mechanical properties :
#
#
# Convention : Reuss Voigt Hill
#
# Bulk Modulus (GPa) = 60.67724 64.16680 62.42202
# Shear Modulus (GPa) = 23.84894 25.99646 24.92270
#
# Velocity S-wave (km/s) = 3.48374 3.63721 3.56131
# Velocity P-wave (km/s) = 6.86003 7.09175 6.97685
#
# Compressibility (1/GPa) = 0.01648064
#
# Stress axis : x y z
#
# Youngs Moduli (GPa) = 80.24006 76.37385 47.52842
#
# Poissons Ratio (x) = 0.22737 0.33499
# Poissons Ratio (y) = 0.23888 0.23918
# Poissons Ratio (z) = 0.56556 0.38434
#
# Static dielectric constant tensor:
#      x y z
#    x 3.864730 0.000000 0.000000 
#    y 0.000000 3.715620 0.000000 
#    z 0.000000 0.000000 3.405610 
# 
# 
# High freq. dielectric constant tensor:
#      x y z
#    x 1.787300 0.000000 0.000000 
#    y 0.000000 1.773090 0.000000 
#    z 0.000000 0.000000 1.749110 
# 
# From -- ./inp_files/21942.got.cif
#   From: 2010.03.12/outbox.cif.g09.slc.cpg/sg67_11_cif.got.tgz:21942.got - 2010.04.10 22:41:39.
