data_PCOD8281262
_publ_section_title
;
Structure prediction by ZEFSAII (Michael W. Deem and Ramdas Pophale) SiO2 
 PCOD8281262
Probable space group: C M M A
;
_chemical_formula_sum "Si O2"
_cell_formula_units_Z 52
_cell_length_a 14.556117
_cell_length_b 28.129914
_cell_length_c 5.393613
_cell_angle_alpha 90.000000
_cell_angle_beta 90.000000
_cell_angle_gamma 90.000000
_cell_volume 2208.481289
_symmetry_space_group_name_H-M "C M M A"
_symmetry_group_IT_number 67
_symmetry_cell_setting 'orthorhombic'
loop_
_space_group_symop_operation_xyz
x,y,z
-x,1/2-y,z
x,-y,-z
-x,1/2+y,-z
-x,-y,-z
x,1/2+y,-z
-x,y,z
x,1/2-y,z
1/2+x,1/2+y,z
1/2-x,-y,z
1/2+x,1/2-y,-z
1/2-x,y,-z
1/2-x,1/2-y,-z
1/2+x,y,-z
1/2-x,1/2+y,z
1/2+x,-y,z
loop_
_atom_site_type_symbol
_atom_site_label
_atom_site_fract_x
_atom_site_fract_y
_atom_site_fract_z
Si Si1 0.600961 0.044544 0.177716
Si Si2 0.893785 0.850769 0.047609
Si Si3 0.250000 0.000000 0.500000
Si Si4 0.109165 0.304427 0.450557
O O1 0.500000 0.049038 0.311097
O O2 0.621198 0.092605 0.027024
O O3 0.684867 0.036831 0.360279
O O4 0.598351 0.000000 0.000000
O O5 0.850326 0.830404 0.303866
O O6 0.000000 0.836554 0.050333
O O7 0.848755 0.828020 0.800317
O O8 0.140795 0.250000 0.459347
O O9 0.000000 0.309744 0.445499
#
# Coordination Sequence:
#
# PCOD8281262 Si02
#       4
#    16  16   4  16
#     4  10  23  41  62  90 129 169 210 263 320 381
#     4   9  18  31  52  82 118 161 203 250 312 371
#     4  12  24  40  64  92 122 164 220 264 318 378
#     4   9  16  28  49  81 119 156 201 255 307 366
#
# _framework density 23.545593
#
# number of rings (size 3 to 8) (size 9 to 14) (size 15 to 20)
#    0.000    2.462    0.000    1.846    4.308    3.692 
#    0.000    0.000    0.000    0.000    0.000    6.462 
#    0.000    0.000    0.000    0.000    0.000    0.308 
#
# Total GULP energy -322219.307755 kJ/mol
# GULP energy per Si atom -12393.050298 kJ/mol
# Density = 2.349200 g / cm^3
# Si number density = 23.545593 Si / 1000 Ang^3
#
#
#
# Elastic Constant Matrix: (Units=GPa)
#
#
# Indices 1 2 3 4 5 6 
#
# 1 94.9091 17.8480 30.8013 0.0000 0.0000 0.0000
# 2 17.8480 197.3364 85.6310 0.0000 0.0000 0.0000
# 3 30.8013 85.6310 160.9764 0.0000 0.0000 0.0000
# 4 0.0000 0.0000 0.0000 42.1672 0.0000 0.0000
# 5 0.0000 0.0000 0.0000 0.0000 -0.0002 0.0000
# 6 0.0000 0.0000 0.0000 0.0000 0.0000 -36.2957
#
#
#
# Elastic Compliance Matrix: (Units=1/GPa)
#
#
# Indices 1 2 3 4 5 6 
#
# 1 0.011236 -0.000108 -0.002092 0.000000 0.000000 0.000000
# 2 -0.000108 0.006589 -0.003484 0.000000 0.000000 0.000000
# 3 -0.002092 -0.003484 0.008466 0.000000 0.000000 0.000000
# 4 0.000000 0.000000 0.000000 0.023715 0.000000 0.000000
# 5 0.000000 0.000000 0.000000 0.000000********** 0.000000
# 6 0.000000 0.000000 0.000000 0.000000 0.000000 -0.027551
#
#
# Mechanical properties :
#
#
# Convention : Reuss Voigt Hill
#
# Bulk Modulus (GPa) = 67.01946 80.19807 73.60876
# Shear Modulus (GPa) = -0.00090 22.43703 11.21807
#
# Velocity S-wave (km/s) = -0.01956 3.09029 2.18512
# Velocity P-wave (km/s) = 5.34088 6.84601 6.13974
#
# Compressibility (1/GPa) = 0.01492104
#
# Stress axis : x y z
#
# Youngs Moduli (GPa) = 89.00143 151.76113 118.12012
#
# Poissons Ratio (x) = 0.01644 0.24714
# Poissons Ratio (y) = 0.00964 0.41158
# Poissons Ratio (z) = 0.18621 0.52880
#
# Static dielectric constant tensor:
#      x y z
#    x 4.254450 0.000000 0.000000 
#    y 0.000000 4.146540 0.000000 
#    z 0.000000 0.000000 4.482330 
# 
# 
# High freq. dielectric constant tensor:
#      x y z
#    x 1.911550 0.000000 0.000000 
#    y 0.000000 1.941570 0.000000 
#    z 0.000000 0.000000 1.926230 
# 
# From -- ./inp_files/1393.got.cif
#   From: 2010.03.12/outbox.cif.g09.slc.cpg/sg67_1_cif.got.tgz:1393.got - 2010.04.10 22:41:39.
