data_PCOD8281617
_publ_section_title
;
Structure prediction by ZEFSAII (Michael W. Deem and Ramdas Pophale) SiO2 
 PCOD8281617
Probable space group: C C C A
;
_chemical_formula_sum "Si O2"
_cell_formula_units_Z 76
_cell_length_a 14.318846
_cell_length_b 15.425948
_cell_length_c 17.744198
_cell_angle_alpha 90.000000
_cell_angle_beta 90.000000
_cell_angle_gamma 90.000000
_cell_volume 3919.369929
_symmetry_space_group_name_H-M "C C C A"
_symmetry_group_IT_number 68
_space_group.IT_coordinate_system_code '2'
_symmetry_cell_setting 'orthorhombic'
loop_
_space_group_symop_operation_xyz
x,y,z
-x,1/2-y,z
x,1/2-y,1/2-z
-x,y,1/2-z
-x,-y,-z
x,1/2+y,-z
-x,1/2+y,1/2+z
x,-y,1/2+z
1/2+x,1/2+y,z
1/2-x,-y,z
1/2+x,-y,1/2-z
1/2-x,1/2+y,1/2-z
1/2-x,1/2-y,-z
1/2+x,y,-z
1/2-x,y,1/2+z
1/2+x,1/2-y,1/2+z
loop_
_atom_site_type_symbol
_atom_site_label
_atom_site_fract_x
_atom_site_fract_y
_atom_site_fract_z
Si Si1 0.375233 0.425361 0.499587
Si Si2 0.750000 0.500000 0.374025
Si Si3 0.756259 0.801499 0.923662
Si Si4 0.500000 0.750000 0.750000
Si Si5 0.646890 0.839150 0.646662
Si Si6 0.925820 0.383166 0.019123
O O1 0.314041 0.438652 0.574040
O O2 0.314876 0.382212 0.432740
O O3 0.411474 0.515100 0.465528
O O4 0.463264 0.363832 0.523528
O O5 0.692504 0.430163 0.323685
O O6 0.722840 0.739997 0.854733
O O7 0.750000 0.750000 0.000000
O O8 0.864422 0.833537 0.916643
O O9 0.562138 0.814013 0.700096
O O10 0.609359 0.856364 0.563172
#
# Coordination Sequence:
#
# PCOD8281617 Si02
#       6
#    16   8  16   4  16  16
#     4  10  15  28  48  80 117 147 167 216 289 343
#     4  10  18  36  54  76 110 154 174 230 292 344
#     4  10  16  29  48  82 109 139 173 224 279 339
#     4  12  24  40  60  80 102 158 208 250 264 324
#     4  10  21  36  56  77 110 147 192 231 282 335
#     4   9  18  28  52  83 114 145 173 223 287 352
#
# _framework density 19.390872000000002
#
# number of rings (size 3 to 8) (size 9 to 14) (size 15 to 20)
#    0.000    2.105    6.316    1.263    0.000    2.526 
#    0.000    0.000   18.526    0.000    0.000    0.000 
#    0.000    0.000    0.000    0.000    0.000    0.000 
#
# Total GULP energy -470815.436503 kJ/mol
# GULP energy per Si atom -12389.879908 kJ/mol
# Density = 1.934674 g / cm^3
# Si number density = 19.390872 Si / 1000 Ang^3
#
#
#
# Elastic Constant Matrix: (Units=GPa)
#
#
# Indices 1 2 3 4 5 6 
#
# 1 152.1277 52.9975 24.3821 0.0000 0.0000 0.0000
# 2 52.9975 98.9699 30.7406 0.0000 0.0000 0.0000
# 3 24.3821 30.7406 27.5964 0.0000 0.0000 0.0000
# 4 0.0000 0.0000 0.0000 8.3041 0.0000 0.0000
# 5 0.0000 0.0000 0.0000 0.0000 23.9847 0.0000
# 6 0.0000 0.0000 0.0000 0.0000 0.0000 39.6673
#
#
#
# Elastic Compliance Matrix: (Units=1/GPa)
#
#
# Indices 1 2 3 4 5 6 
#
# 1 0.008315 -0.003319 -0.003649 0.000000 0.000000 0.000000
# 2 -0.003319 0.016774 -0.015753 0.000000 0.000000 0.000000
# 3 -0.003649 -0.015753 0.057009 0.000000 0.000000 0.000000
# 4 0.000000 0.000000 0.000000 0.120423 0.000000 0.000000
# 5 0.000000 0.000000 0.000000 0.000000 0.041693 0.000000
# 6 0.000000 0.000000 0.000000 0.000000 0.000000 0.025210
#
#
# Mechanical properties :
#
#
# Convention : Reuss Voigt Hill
#
# Bulk Modulus (GPa) = 27.28121 54.99270 41.13696
# Shear Modulus (GPa) = 15.28661 25.76281 20.52471
#
# Velocity S-wave (km/s) = 2.81079 3.64896 3.25695
# Velocity P-wave (km/s) = 4.96323 6.79521 5.95015
#
# Compressibility (1/GPa) = 0.03665526
#
# Stress axis : x y z
#
# Youngs Moduli (GPa) = 120.27179 59.61470 17.54120
#
# Poissons Ratio (x) = 0.19786 0.06401
# Poissons Ratio (y) = 0.39918 0.27633
# Poissons Ratio (z) = 0.43887 0.93912
#
# Static dielectric constant tensor:
#      x y z
#    x 3.925720 0.000000 0.000000 
#    y 0.000000 3.813960 0.000000 
#    z 0.000000 0.000000 2.763350 
# 
# 
# High freq. dielectric constant tensor:
#      x y z
#    x 1.776050 0.000000 0.000000 
#    y 0.000000 1.776340 0.000000 
#    z 0.000000 0.000000 1.661300 
# 
# From -- ./inp_files/30848.got.cif
#   From: 2010.03.12/outbox.cif.g09.slc.cpg/sg68_16_cif.got.tgz:30848.got - 2010.04.10 23:14:56.
