data_PCOD8281366
_publ_section_title
;
Structure prediction by ZEFSAII (Michael W. Deem and Ramdas Pophale) SiO2 
 PCOD8281366
Probable space group: C M M A
;
_chemical_formula_sum "Si O2"
_cell_formula_units_Z 64
_cell_length_a 19.892405
_cell_length_b 16.298737
_cell_length_c 9.676031
_cell_angle_alpha 90.000000
_cell_angle_beta 90.000000
_cell_angle_gamma 90.000000
_cell_volume 3137.173196
_symmetry_space_group_name_H-M "C M M A"
_symmetry_group_IT_number 67
_symmetry_cell_setting 'orthorhombic'
loop_
_space_group_symop_operation_xyz
x,y,z
-x,1/2-y,z
x,-y,-z
-x,1/2+y,-z
-x,-y,-z
x,1/2+y,-z
-x,y,z
x,1/2-y,z
1/2+x,1/2+y,z
1/2-x,-y,z
1/2+x,1/2-y,-z
1/2-x,y,-z
1/2-x,1/2-y,-z
1/2+x,y,-z
1/2-x,1/2+y,z
1/2+x,-y,z
loop_
_atom_site_type_symbol
_atom_site_label
_atom_site_fract_x
_atom_site_fract_y
_atom_site_fract_z
Si Si1 0.294338 0.343539 0.690503
Si Si2 0.673655 0.904988 0.027945
Si Si3 0.162045 0.912418 0.425922
Si Si4 0.424091 0.343846 0.198820
O O1 0.274639 0.250000 0.725423
O O2 0.339644 0.383279 0.811651
O O3 0.227377 0.399083 0.671594
O O4 0.337253 0.345330 0.548835
O O5 0.750000 0.877134 0.000000
O O6 0.622279 0.854243 0.935147
O O7 0.661490 0.000000 0.000000
O O8 0.097838 0.900831 0.327818
O O9 0.162630 0.000000 0.500000
O O10 0.500000 0.368476 0.158936
O O11 0.419271 0.250000 0.247346
#
# Coordination Sequence:
#
# PCOD8281366 Si02
#       4
#    16  16  16  16
#     4  11  21  35  61  92 123 156 204 263 316 363
#     4  11  23  38  64  93 125 163 204 262 315 370
#     4  11  22  37  60  88 123 161 204 257 308 368
#     4  11  24  43  64  89 127 172 212 253 309 374
#
# _framework density 20.400531000000001
#
# number of rings (size 3 to 8) (size 9 to 14) (size 15 to 20)
#    0.000    1.000    2.500    6.750    3.500    2.000 
#    0.000    1.250    0.000    4.500    0.000    0.000 
#    0.000    0.000    0.000    0.000    0.000    0.000 
#
# Total GULP energy -396839.430208 kJ/mol
# GULP energy per Si atom -12401.232194 kJ/mol
# Density = 2.035410 g / cm^3
# Si number density = 20.400531 Si / 1000 Ang^3
#
#
#
# Elastic Constant Matrix: (Units=GPa)
#
#
# Indices 1 2 3 4 5 6 
#
# 1 118.4591 40.1466 62.9525 0.0000 0.0000 0.0000
# 2 40.1466 121.7810 42.1909 0.0000 0.0000 0.0000
# 3 62.9525 42.1909 134.7882 0.0000 0.0000 0.0000
# 4 0.0000 0.0000 0.0000 36.9317 0.0000 0.0000
# 5 0.0000 0.0000 0.0000 0.0000 31.5066 0.0000
# 6 0.0000 0.0000 0.0000 0.0000 0.0000 14.0913
#
#
#
# Elastic Compliance Matrix: (Units=1/GPa)
#
#
# Indices 1 2 3 4 5 6 
#
# 1 0.011736 -0.002210 -0.004790 0.000000 0.000000 0.000000
# 2 -0.002210 0.009626 -0.001981 0.000000 0.000000 0.000000
# 3 -0.004790 -0.001981 0.010276 0.000000 0.000000 0.000000
# 4 0.000000 0.000000 0.000000 0.027077 0.000000 0.000000
# 5 0.000000 0.000000 0.000000 0.000000 0.031739 0.000000
# 6 0.000000 0.000000 0.000000 0.000000 0.000000 0.070966
#
#
# Mechanical properties :
#
#
# Convention : Reuss Voigt Hill
#
# Bulk Modulus (GPa) = 73.11217 73.95650 73.53433
# Shear Modulus (GPa) = 27.18274 31.82180 29.50227
#
# Velocity S-wave (km/s) = 3.65424 3.95378 3.80696
# Velocity P-wave (km/s) = 7.32945 7.56136 7.44630
#
# Compressibility (1/GPa) = 0.01367761
#
# Stress axis : x y z
#
# Youngs Moduli (GPa) = 85.20867 103.88257 97.31244
#
# Poissons Ratio (x) = 0.22953 0.46609
# Poissons Ratio (y) = 0.18827 0.19280
# Poissons Ratio (z) = 0.40812 0.20581
#
# Static dielectric constant tensor:
#      x y z
#    x 3.471670 0.000000 0.000000 
#    y 0.000000 3.720730 0.000000 
#    z 0.000000 0.000000 4.064900 
# 
# 
# High freq. dielectric constant tensor:
#      x y z
#    x 1.754930 0.000000 0.000000 
#    y 0.000000 1.804920 0.000000 
#    z 0.000000 0.000000 1.817380 
# 
# From -- ./inp_files/18968.got.cif
#   From: 2010.03.12/outbox.cif.g09.slc.cpg/sg67_10_cif.got.tgz:18968.got - 2010.04.10 22:41:39.
