data_PCOD8281195
_publ_section_title
;
Structure prediction by ZEFSAII (Michael W. Deem and Ramdas Pophale) SiO2 
 PCOD8281195
Probable space group: C M M A
;
_chemical_formula_sum "Si O2"
_cell_formula_units_Z 68
_cell_length_a 13.565486
_cell_length_b 9.745408
_cell_length_c 22.106358
_cell_angle_alpha 90.000000
_cell_angle_beta 90.000000
_cell_angle_gamma 90.000000
_cell_volume 2922.486962
_symmetry_space_group_name_H-M "C M M A"
_symmetry_group_IT_number 67
_symmetry_cell_setting 'orthorhombic'
loop_
_space_group_symop_operation_xyz
x,y,z
-x,1/2-y,z
x,-y,-z
-x,1/2+y,-z
-x,-y,-z
x,1/2+y,-z
-x,y,z
x,1/2-y,z
1/2+x,1/2+y,z
1/2-x,-y,z
1/2+x,1/2-y,-z
1/2-x,y,-z
1/2-x,1/2-y,-z
1/2+x,y,-z
1/2-x,1/2+y,z
1/2+x,-y,z
loop_
_atom_site_type_symbol
_atom_site_label
_atom_site_fract_x
_atom_site_fract_y
_atom_site_fract_z
Si Si1 0.250000 0.500000 0.500000
Si Si2 0.387384 0.902825 0.399645
Si Si3 0.117181 0.095191 0.708556
Si Si4 0.117104 0.903954 0.814314
Si Si5 0.882915 0.402475 0.051336
O O1 0.320035 0.405520 0.540918
O O2 0.500000 0.936727 0.418006
O O3 0.381203 0.750000 0.371211
O O4 0.348250 0.013627 0.351119
O O5 0.159897 0.250000 0.706632
O O6 0.000000 0.098771 0.711693
O O7 0.160342 0.014441 0.766798
O O8 0.157284 0.750000 0.800873
O O9 0.148874 0.952593 0.881619
O O10 0.000000 0.900088 0.809073
O O11 0.842501 0.250000 0.039607
O O12 0.000000 0.402947 0.046734
O O13 0.836102 0.500000 0.000000
#
# Coordination Sequence:
#
# PCOD8281195 Si02
#       5
#     4  16  16  16  16
#     4  12  24  40  64  92 114 144 188 230 266 322
#     4  10  22  40  61  85 115 150 185 225 277 333
#     4   9  17  29  47  71  97 128 171 222 270 319
#     4   8  13  22  36  54  80 118 164 212 265 323
#     4   8  13  19  27  43  71 110 156 206 259 315
#
# _framework density 23.267854
#
# number of rings (size 3 to 8) (size 9 to 14) (size 15 to 20)
#    0.000    3.059    0.000    2.824    0.000    5.647 
#    0.000    7.059    0.000    0.000    0.000    0.000 
#    0.000    0.000    0.000    1.059    0.000   18.588 
#
# Total GULP energy -421464.786485 kJ/mol
# GULP energy per Si atom -12396.023132 kJ/mol
# Density = 2.321490 g / cm^3
# Si number density = 23.267854 Si / 1000 Ang^3
#
#
#
# Elastic Constant Matrix: (Units=GPa)
#
#
# Indices 1 2 3 4 5 6 
#
# 1 51.2744 25.9051 28.8760 0.0000 0.0000 0.0000
# 2 25.9051 185.4976 113.1989 0.0000 0.0000 0.0000
# 3 28.8760 113.1989 201.2556 0.0000 0.0000 0.0000
# 4 0.0000 0.0000 0.0000 47.7438 0.0000 0.0000
# 5 0.0000 0.0000 0.0000 0.0000 -21.5012 0.0000
# 6 0.0000 0.0000 0.0000 0.0000 0.0000 4.1637
#
#
#
# Elastic Compliance Matrix: (Units=1/GPa)
#
#
# Indices 1 2 3 4 5 6 
#
# 1 0.021568 -0.001711 -0.002132 0.000000 0.000000 0.000000
# 2 -0.001711 0.008344 -0.004448 0.000000 0.000000 0.000000
# 3 -0.002132 -0.004448 0.007776 0.000000 0.000000 0.000000
# 4 0.000000 0.000000 0.000000 0.020945 0.000000 0.000000
# 5 0.000000 0.000000 0.000000 0.000000 -0.046509 0.000000
# 6 0.000000 0.000000 0.000000 0.000000 0.000000 0.240173
#
#
# Mechanical properties :
#
#
# Convention : Reuss Voigt Hill
#
# Bulk Modulus (GPa) = 47.37797 85.99861 66.68829
# Shear Modulus (GPa) = 18.12154 24.08442 21.10298
#
# Velocity S-wave (km/s) = 2.79377 3.22078 3.01484
# Velocity P-wave (km/s) = 5.55095 7.13244 6.39080
#
# Compressibility (1/GPa) = 0.02110685
#
# Stress axis : x y z
#
# Youngs Moduli (GPa) = 46.36480 119.84613 128.59358
#
# Poissons Ratio (x) = 0.20503 0.27420
# Poissons Ratio (y) = 0.07932 0.57195
# Poissons Ratio (z) = 0.09886 0.53305
#
# Static dielectric constant tensor:
#      x y z
#    x 3.745380 0.000000 0.000000 
#    y 0.000000 4.400750 0.000000 
#    z 0.000000 0.000000 4.289670 
# 
# 
# High freq. dielectric constant tensor:
#      x y z
#    x 1.912380 0.000000 0.000000 
#    y 0.000000 1.913530 0.000000 
#    z 0.000000 0.000000 1.916450 
# 
# From -- ./inp_files/42098.got.cif
#   From: 2010.03.12/outbox.cif.g09.slc.cpg/sg67_22_cif.got.tgz:42098.got - 2010.04.10 22:41:39.
