data_PCOD8281652
_publ_section_title
;
Structure prediction by ZEFSAII (Michael W. Deem and Ramdas Pophale) SiO2 
 PCOD8281652
Probable space group: C C C A
;
_chemical_formula_sum "Si O2"
_cell_formula_units_Z 84
_cell_length_a 23.414100
_cell_length_b 28.938169
_cell_length_c 5.227143
_cell_angle_alpha 90.000000
_cell_angle_beta 90.000000
_cell_angle_gamma 90.000000
_cell_volume 3541.709194
_symmetry_space_group_name_H-M "C C C A"
_symmetry_group_IT_number 68
_space_group.IT_coordinate_system_code '2'
_symmetry_cell_setting 'orthorhombic'
loop_
_space_group_symop_operation_xyz
x,y,z
-x,1/2-y,z
x,1/2-y,1/2-z
-x,y,1/2-z
-x,-y,-z
x,1/2+y,-z
-x,1/2+y,1/2+z
x,-y,1/2+z
1/2+x,1/2+y,z
1/2-x,-y,z
1/2+x,-y,1/2-z
1/2-x,1/2+y,1/2-z
1/2-x,1/2-y,-z
1/2+x,y,-z
1/2-x,y,1/2+z
1/2+x,1/2-y,1/2+z
loop_
_atom_site_type_symbol
_atom_site_label
_atom_site_fract_x
_atom_site_fract_y
_atom_site_fract_z
Si Si1 0.906753 0.179097 0.135975
Si Si2 0.723065 0.197853 0.727463
Si Si3 0.774344 0.448577 0.858482
Si Si4 0.905045 0.970116 0.124234
Si Si5 0.500000 0.250000 0.750000
Si Si6 0.939618 0.870073 0.156989
O O1 0.845197 0.199636 0.200666
O O2 0.955729 0.218270 0.085342
O O3 0.925436 0.148029 0.375969
O O4 0.897230 0.148435 0.879292
O O5 0.746323 0.250000 0.750000
O O6 0.755338 0.172923 0.488830
O O7 0.750000 0.500000 0.829921
O O8 0.752909 0.422314 0.602666
O O9 0.841715 0.449680 0.876233
O O10 0.944473 0.925459 0.144021
O O11 0.917690 0.003280 0.362190
O O12 0.000000 0.850668 0.250000
#
# Coordination Sequence:
#
# PCOD8281652 Si02
#       6
#    16  16  16  16   4  16
#     4  12  25  47  72 108 139 179 239 288 352 408
#     4  10  21  40  68  99 137 182 223 276 342 433
#     4  10  16  32  58  87 119 152 222 287 315 380
#     4  12  23  40  67  92 122 184 229 261 350 417
#     4  12  24  46  84 106 128 202 240 276 340 438
#     4  12  27  46  65 100 149 170 223 318 341 391
#
# _framework density 23.717362000000001
#
# number of rings (size 3 to 8) (size 9 to 14) (size 15 to 20)
#    0.000    0.762    6.667    2.286    0.000    2.286 
#    0.000    5.714    0.000    0.000    0.000    0.000 
#    0.000    0.000    0.000    0.000    0.000    0.000 
#
# Total GULP energy -520565.055556 kJ/mol
# GULP energy per Si atom -12394.406085 kJ/mol
# Density = 2.366338 g / cm^3
# Si number density = 23.717362 Si / 1000 Ang^3
#
#
#
# Elastic Constant Matrix: (Units=GPa)
#
#
# Indices 1 2 3 4 5 6 
#
# 1 107.1442 12.8067 25.5704 0.0000 0.0000 0.0000
# 2 12.8067 80.5864 35.0521 0.0000 0.0000 0.0000
# 3 25.5704 35.0521 199.4409 0.0000 0.0000 0.0000
# 4 0.0000 0.0000 0.0000 34.4410 0.0000 0.0000
# 5 0.0000 0.0000 0.0000 0.0000 27.5454 0.0000
# 6 0.0000 0.0000 0.0000 0.0000 0.0000 20.3323
#
#
#
# Elastic Compliance Matrix: (Units=1/GPa)
#
#
# Indices 1 2 3 4 5 6 
#
# 1 0.009715 -0.001085 -0.001055 0.000000 0.000000 0.000000
# 2 -0.001085 0.013557 -0.002244 0.000000 0.000000 0.000000
# 3 -0.001055 -0.002244 0.005544 0.000000 0.000000 0.000000
# 4 0.000000 0.000000 0.000000 0.029035 0.000000 0.000000
# 5 0.000000 0.000000 0.000000 0.000000 0.036304 0.000000
# 6 0.000000 0.000000 0.000000 0.000000 0.000000 0.049183
#
#
# Mechanical properties :
#
#
# Convention : Reuss Voigt Hill
#
# Bulk Modulus (GPa) = 49.87871 59.33667 54.60769
# Shear Modulus (GPa) = 31.48872 37.37990 34.43431
#
# Velocity S-wave (km/s) = 3.64767 3.97426 3.81446
# Velocity P-wave (km/s) = 6.23031 6.79207 6.51725
#
# Compressibility (1/GPa) = 0.02004863
#
# Stress axis : x y z
#
# Youngs Moduli (GPa) = 102.93738 73.76064 180.38900
#
# Poissons Ratio (x) = 0.08003 0.19028
# Poissons Ratio (y) = 0.11169 0.40472
# Poissons Ratio (z) = 0.10858 0.16549
#
# Static dielectric constant tensor:
#      x y z
#    x 4.118120 0.000000 0.000000 
#    y 0.000000 3.730060 0.000000 
#    z 0.000000 0.000000 4.997250 
# 
# 
# High freq. dielectric constant tensor:
#      x y z
#    x 1.940060 0.000000 0.000000 
#    y 0.000000 1.921590 0.000000 
#    z 0.000000 0.000000 1.959640 
# 
# From -- ./inp_files/2065.got.cif
#   From: 2010.03.12/outbox.cif.g09.slc.cpg/sg68_2_cif.got.tgz:2065.got - 2010.04.10 23:14:56.
