data_PCOD8281424
_publ_section_title
;
Structure prediction by ZEFSAII (Michael W. Deem and Ramdas Pophale) SiO2 
 PCOD8281424
Probable space group: C M M A
;
_chemical_formula_sum "Si O2"
_cell_formula_units_Z 80
_cell_length_a 16.629998
_cell_length_b 9.534771
_cell_length_c 24.175636
_cell_angle_alpha 90.000000
_cell_angle_beta 90.000000
_cell_angle_gamma 90.000000
_cell_volume 3833.366754
_symmetry_space_group_name_H-M "C M M A"
_symmetry_group_IT_number 67
_symmetry_cell_setting 'orthorhombic'
loop_
_space_group_symop_operation_xyz
x,y,z
-x,1/2-y,z
x,-y,-z
-x,1/2+y,-z
-x,-y,-z
x,1/2+y,-z
-x,y,z
x,1/2-y,z
1/2+x,1/2+y,z
1/2-x,-y,z
1/2+x,1/2-y,-z
1/2-x,y,-z
1/2-x,1/2-y,-z
1/2+x,y,-z
1/2-x,1/2+y,z
1/2+x,-y,z
loop_
_atom_site_type_symbol
_atom_site_label
_atom_site_fract_x
_atom_site_fract_y
_atom_site_fract_z
Si Si1 0.404234 0.910661 0.947823
Si Si2 0.095430 0.095441 0.744619
Si Si3 0.325155 0.250000 0.572565
Si Si4 0.908794 0.002347 0.624310
Si Si5 0.862745 0.250000 0.550652
Si Si6 0.904099 0.090862 0.155953
O O1 0.500000 0.905553 0.948203
O O2 0.371093 0.750000 0.949030
O O3 0.372395 0.993294 0.893923
O O4 0.372242 0.000000 0.000000
O O5 0.128300 0.250000 0.760896
O O6 0.123031 0.062346 0.682415
O O7 0.000000 0.097174 0.747664
O O8 0.128672 0.978878 0.787277
O O9 0.347167 0.382645 0.608807
O O10 0.231045 0.250000 0.563348
O O11 0.374947 0.250000 0.515289
O O12 0.906601 0.116628 0.576106
O O13 0.000000 0.945449 0.629703
O O14 0.870503 0.250000 0.150885
O O15 0.000000 0.095115 0.155240
#
# Coordination Sequence:
#
# PCOD8281424 Si02
#       6
#    16  16   8  16   8  16
#     4   9  15  22  32  48  75 114 163 212 255 307
#     4   9  17  30  46  66  94 126 163 210 265 320
#     4  11  25  39  59  83 113 143 180 223 276 334
#     4  11  22  37  59  85 110 140 183 232 275 324
#     4  11  23  43  59  79 111 151 180 215 274 346
#     4   9  16  24  37  57  83 117 158 208 264 315
#
# _framework density 20.869384
#
# number of rings (size 3 to 8) (size 9 to 14) (size 15 to 20)
#    0.000    2.200    1.000    3.000    1.400    8.800 
#    0.000    0.000    0.000    0.000    0.000    0.000 
#    0.000    0.000    0.000    0.000    0.000    6.000 
#
# Total GULP energy -495938.657492 kJ/mol
# GULP energy per Si atom -12398.466437 kJ/mol
# Density = 2.082188 g / cm^3
# Si number density = 20.869384 Si / 1000 Ang^3
#
#
#
# Elastic Constant Matrix: (Units=GPa)
#
#
# Indices 1 2 3 4 5 6 
#
# 1 18.6287 6.8042 7.8623 0.0000 0.0000 0.0000
# 2 6.8042 186.3577 73.9114 0.0000 0.0000 0.0000
# 3 7.8623 73.9114 143.9553 0.0000 0.0000 0.0000
# 4 0.0000 0.0000 0.0000 43.5199 0.0000 0.0000
# 5 0.0000 0.0000 0.0000 0.0000 3.1265 0.0000
# 6 0.0000 0.0000 0.0000 0.0000 0.0000 21.0514
#
#
#
# Elastic Compliance Matrix: (Units=1/GPa)
#
#
# Indices 1 2 3 4 5 6 
#
# 1 0.055104 -0.001028 -0.002482 0.000000 0.000000 0.000000
# 2 -0.001028 0.006757 -0.003413 0.000000 0.000000 0.000000
# 3 -0.002482 -0.003413 0.008835 0.000000 0.000000 0.000000
# 4 0.000000 0.000000 0.000000 0.022978 0.000000 0.000000
# 5 0.000000 0.000000 0.000000 0.000000 0.319848 0.000000
# 6 0.000000 0.000000 0.000000 0.000000 0.000000 0.047503
#
#
# Mechanical properties :
#
#
# Convention : Reuss Voigt Hill
#
# Bulk Modulus (GPa) = 17.59020 58.45529 38.02274
# Shear Modulus (GPa) = 10.12515 30.89713 20.51114
#
# Velocity S-wave (km/s) = 2.20504 3.85190 3.13842
# Velocity P-wave (km/s) = 3.86393 6.91764 5.60284
#
# Compressibility (1/GPa) = 0.05684985
#
# Stress axis : x y z
#
# Youngs Moduli (GPa) = 18.14765 147.98829 113.19060
#
# Poissons Ratio (x) = 0.15206 0.28094
# Poissons Ratio (y) = 0.01865 0.38635
# Poissons Ratio (z) = 0.04504 0.50513
#
# Static dielectric constant tensor:
#      x y z
#    x 3.048350 0.000000 0.000000 
#    y 0.000000 3.897310 0.000000 
#    z 0.000000 0.000000 4.038930 
# 
# 
# High freq. dielectric constant tensor:
#      x y z
#    x 1.749840 0.000000 0.000000 
#    y 0.000000 1.832400 0.000000 
#    z 0.000000 0.000000 1.830030 
# 
# From -- ./inp_files/42308.got.cif
#   From: 2010.03.12/outbox.cif.g09.slc.cpg/sg67_22_cif.got.tgz:42308.got - 2010.04.10 22:41:39.
