data_PCOD8281945
_publ_section_title
;
Structure prediction by ZEFSAII (Michael W. Deem and Ramdas Pophale) SiO2 
 PCOD8281945
Probable space group: C C C A
;
_chemical_formula_sum "Si O2"
_cell_formula_units_Z 88
_cell_length_a 10.410749
_cell_length_b 12.240094
_cell_length_c 32.138593
_cell_angle_alpha 90.000000
_cell_angle_beta 90.000000
_cell_angle_gamma 90.000000
_cell_volume 4095.374188
_symmetry_space_group_name_H-M "C C C A"
_symmetry_group_IT_number 68
_space_group.IT_coordinate_system_code '2'
_symmetry_cell_setting 'orthorhombic'
loop_
_space_group_symop_operation_xyz
x,y,z
-x,1/2-y,z
x,1/2-y,1/2-z
-x,y,1/2-z
-x,-y,-z
x,1/2+y,-z
-x,1/2+y,1/2+z
x,-y,1/2+z
1/2+x,1/2+y,z
1/2-x,-y,z
1/2+x,-y,1/2-z
1/2-x,1/2+y,1/2-z
1/2-x,1/2-y,-z
1/2+x,y,-z
1/2-x,y,1/2+z
1/2+x,1/2-y,1/2+z
loop_
_atom_site_type_symbol
_atom_site_label
_atom_site_fract_x
_atom_site_fract_y
_atom_site_fract_z
Si Si1 0.106271 0.334634 0.932028
Si Si2 0.302895 0.620880 0.366803
Si Si3 0.250000 0.000000 0.835591
Si Si4 0.376281 0.067476 0.987014
Si Si5 0.455999 0.035356 0.899995
Si Si6 0.151628 0.776227 0.796177
O O1 0.236326 0.318733 0.906029
O O2 0.000000 0.250000 0.917423
O O3 0.055214 0.454362 0.921570
O O4 0.131235 0.326927 0.982098
O O5 0.250000 0.500000 0.357492
O O6 0.456530 0.622345 0.375185
O O7 0.273889 0.694426 0.326744
O O8 0.366090 0.970977 0.867294
O O9 0.300914 0.100567 0.807442
O O10 0.378441 0.096485 0.937574
O O11 0.250000 0.000000 0.997070
O O12 0.500000 0.000000 0.000000
O O13 0.201237 0.750000 0.750000
O O14 0.000000 0.750000 0.798889
#
# Coordination Sequence:
#
# PCOD8281945 Si02
#       6
#    16  16   8  16  16  16
#     4  10  20  36  57  87 127 173 225 277 334 399
#     4  10  21  42  68  92 133 177 222 284 346 408
#     4  12  22  42  70  96 136 174 220 270 350 412
#     4  10  19  35  55  83 123 172 223 279 336 394
#     4  10  20  37  62  89 123 176 222 273 334 410
#     4  11  25  44  69 102 135 173 224 282 351 423
#
# _framework density 21.487656999999999
#
# number of rings (size 3 to 8) (size 9 to 14) (size 15 to 20)
#    0.000    1.636    2.727    3.818    1.273    0.000 
#    3.273    4.545    0.000    7.091    0.000    0.000 
#    0.000    0.000    0.000    0.000    0.000    0.000 
#
# Total GULP energy -545126.760593 kJ/mol
# GULP energy per Si atom -12389.244559 kJ/mol
# Density = 2.143875 g / cm^3
# Si number density = 21.487657 Si / 1000 Ang^3
#
#
#
# Elastic Constant Matrix: (Units=GPa)
#
#
# Indices 1 2 3 4 5 6 
#
# 1 119.1314 31.0068 45.9317 0.0000 0.0000 0.0000
# 2 31.0068 89.3913 57.4202 0.0000 0.0000 0.0000
# 3 45.9317 57.4202 174.9869 0.0000 0.0000 0.0000
# 4 0.0000 0.0000 0.0000 25.3930 0.0000 0.0000
# 5 0.0000 0.0000 0.0000 0.0000 25.2455 0.0000
# 6 0.0000 0.0000 0.0000 0.0000 0.0000 32.4622
#
#
#
# Elastic Compliance Matrix: (Units=1/GPa)
#
#
# Indices 1 2 3 4 5 6 
#
# 1 0.009664 -0.002183 -0.001820 0.000000 0.000000 0.000000
# 2 -0.002183 0.014667 -0.004240 0.000000 0.000000 0.000000
# 3 -0.001820 -0.004240 0.007584 0.000000 0.000000 0.000000
# 4 0.000000 0.000000 0.000000 0.039381 0.000000 0.000000
# 5 0.000000 0.000000 0.000000 0.000000 0.039611 0.000000
# 6 0.000000 0.000000 0.000000 0.000000 0.000000 0.030805
#
#
# Mechanical properties :
#
#
# Convention : Reuss Voigt Hill
#
# Bulk Modulus (GPa) = 64.81332 72.46966 68.64149
# Shear Modulus (GPa) = 30.61060 33.23018 31.92039
#
# Velocity S-wave (km/s) = 3.77844 3.93679 3.85843
# Velocity P-wave (km/s) = 7.01883 7.37996 7.20166
#
# Compressibility (1/GPa) = 0.01542893
#
# Stress axis : x y z
#
# Youngs Moduli (GPa) = 103.47582 68.17799 131.85868
#
# Poissons Ratio (x) = 0.14882 0.24004
# Poissons Ratio (y) = 0.22587 0.55909
# Poissons Ratio (z) = 0.18837 0.28908
#
# Static dielectric constant tensor:
#      x y z
#    x 3.975300 0.000000 0.000000 
#    y 0.000000 3.555280 0.000000 
#    z 0.000000 0.000000 4.451400 
# 
# 
# High freq. dielectric constant tensor:
#      x y z
#    x 1.849420 0.000000 0.000000 
#    y 0.000000 1.816970 0.000000 
#    z 0.000000 0.000000 1.852820 
# 
# From -- ./inp_files/54643.got.cif
#   From: 2010.03.12/outbox.cif.g09.slc.cpg/sg68_28_cif.got.tgz:54643.got - 2010.04.10 23:14:56.
