data_PCOD8281283
_publ_section_title
;
Structure prediction by ZEFSAII (Michael W. Deem and Ramdas Pophale) SiO2 
 PCOD8281283
Probable space group: C M M A
;
_chemical_formula_sum "Si O2"
_cell_formula_units_Z 44
_cell_length_a 12.802651
_cell_length_b 26.466340
_cell_length_c 5.298081
_cell_angle_alpha 90.000000
_cell_angle_beta 90.000000
_cell_angle_gamma 90.000000
_cell_volume 1795.198133
_symmetry_space_group_name_H-M "C M M A"
_symmetry_group_IT_number 67
_symmetry_cell_setting 'orthorhombic'
loop_
_space_group_symop_operation_xyz
x,y,z
-x,1/2-y,z
x,-y,-z
-x,1/2+y,-z
-x,-y,-z
x,1/2+y,-z
-x,y,z
x,1/2-y,z
1/2+x,1/2+y,z
1/2-x,-y,z
1/2+x,1/2-y,-z
1/2-x,y,-z
1/2-x,1/2-y,-z
1/2+x,y,-z
1/2-x,1/2+y,z
1/2+x,-y,z
loop_
_atom_site_type_symbol
_atom_site_label
_atom_site_fract_x
_atom_site_fract_y
_atom_site_fract_z
Si Si1 0.117534 0.640681 0.161139
Si Si2 0.817212 0.750000 0.246867
Si Si3 0.250000 0.500000 0.500000
Si Si4 0.125393 0.910998 0.660928
O O1 0.113523 0.699888 0.228184
O O2 0.169651 0.610700 0.393815
O O3 0.000000 0.621185 0.141970
O O4 0.167833 0.626069 0.887261
O O5 0.750000 0.750000 0.500000
O O6 0.750000 0.750000 0.000000
O O7 0.175107 0.466754 0.316489
O O8 0.000000 0.913753 0.662521
#
# Coordination Sequence:
#
# PCOD8281283 Si02
#       4
#    16   8   4  16
#     4  10  23  45  66  93 134 176 216 267 330 398
#     4  12  25  38  67 104 134 167 215 268 323 406
#     4  12  26  42  72  94 136 174 230 286 352 386
#     4  10  24  43  67  97 131 174 226 276 330 402
#
# _framework density 24.509830999999998
#
# number of rings (size 3 to 8) (size 9 to 14) (size 15 to 20)
#    0.000    1.455    0.000    3.273    7.636    2.909 
#    0.000   12.727    0.000    0.000    0.000    0.000 
#    0.000    0.000    0.000    0.000    0.000    0.000 
#
# Total GULP energy -272773.972393 kJ/mol
# GULP energy per Si atom -12398.816927 kJ/mol
# Density = 2.445405 g / cm^3
# Si number density = 24.509831 Si / 1000 Ang^3
#
#
#
# Elastic Constant Matrix: (Units=GPa)
#
#
# Indices 1 2 3 4 5 6 
#
# 1 31.1750 23.5922 60.8463 0.0000 0.0000 0.0000
# 2 23.5922 182.9630 82.0033 0.0000 0.0000 0.0000
# 3 60.8463 82.0033 231.5562 0.0000 0.0000 0.0000
# 4 0.0000 0.0000 0.0000 36.6569 0.0000 0.0000
# 5 0.0000 0.0000 0.0000 0.0000 35.8687 0.0000
# 6 0.0000 0.0000 0.0000 0.0000 0.0000 47.3582
#
#
#
# Elastic Compliance Matrix: (Units=1/GPa)
#
#
# Indices 1 2 3 4 5 6 
#
# 1 0.065967 -0.000876 -0.017024 0.000000 0.000000 0.000000
# 2 -0.000876 0.006508 -0.002075 0.000000 0.000000 0.000000
# 3 -0.017024 -0.002075 0.009527 0.000000 0.000000 0.000000
# 4 0.000000 0.000000 0.000000 0.027280 0.000000 0.000000
# 5 0.000000 0.000000 0.000000 0.000000 0.027879 0.000000
# 6 0.000000 0.000000 0.000000 0.000000 0.000000 0.021116
#
#
# Mechanical properties :
#
#
# Convention : Reuss Voigt Hill
#
# Bulk Modulus (GPa) = 23.77981 86.50866 55.14424
# Shear Modulus (GPa) = 23.55784 42.59357 33.07571
#
# Velocity S-wave (km/s) = 3.10362 4.17323 3.67752
# Velocity P-wave (km/s) = 4.75042 7.65463 6.37023
#
# Compressibility (1/GPa) = 0.04205248
#
# Stress axis : x y z
#
# Youngs Moduli (GPa) = 15.15920 153.64718 104.96785
#
# Poissons Ratio (x) = 0.13460 1.78696
# Poissons Ratio (y) = 0.01328 0.21778
# Poissons Ratio (z) = 0.25807 0.31877
#
# Static dielectric constant tensor:
#      x y z
#    x 4.333570 0.000000 0.000000 
#    y 0.000000 -0.654010 0.000000 
#    z 0.000000 0.000000 4.799260 
# 
# 
# High freq. dielectric constant tensor:
#      x y z
#    x 2.013050 0.000000 0.000000 
#    y 0.000000 1.964730 0.000000 
#    z 0.000000 0.000000 1.987440 
# 
# From -- ./inp_files/1196.got.cif
#   From: 2010.03.12/outbox.cif.g09.slc.cpg/sg67_1_cif.got.tgz:1196.got - 2010.04.10 22:41:39.
