data_PCOD8281241
_publ_section_title
;
Structure prediction by ZEFSAII (Michael W. Deem and Ramdas Pophale) SiO2 
 PCOD8281241
Probable space group: C M M A
;
_chemical_formula_sum "Si O2"
_cell_formula_units_Z 64
_cell_length_a 18.389427
_cell_length_b 9.307541
_cell_length_c 18.345618
_cell_angle_alpha 90.000000
_cell_angle_beta 90.000000
_cell_angle_gamma 90.000000
_cell_volume 3140.042320
_symmetry_space_group_name_H-M "C M M A"
_symmetry_group_IT_number 67
_symmetry_cell_setting 'orthorhombic'
loop_
_space_group_symop_operation_xyz
x,y,z
-x,1/2-y,z
x,-y,-z
-x,1/2+y,-z
-x,-y,-z
x,1/2+y,-z
-x,y,z
x,1/2-y,z
1/2+x,1/2+y,z
1/2-x,-y,z
1/2+x,1/2-y,-z
1/2-x,y,-z
1/2-x,1/2-y,-z
1/2+x,y,-z
1/2-x,1/2+y,z
1/2+x,-y,z
loop_
_atom_site_type_symbol
_atom_site_label
_atom_site_fract_x
_atom_site_fract_y
_atom_site_fract_z
Si Si1 0.834487 0.027125 0.343732
Si Si2 0.668145 0.750000 0.466690
Si Si3 0.675649 0.088152 0.815698
Si Si4 0.585925 0.250000 0.386332
Si Si5 0.586189 0.915130 0.928934
O O1 0.850747 0.114262 0.416909
O O2 0.851843 0.105373 0.267692
O O3 0.750000 0.000000 0.346052
O O4 0.882168 0.884920 0.343827
O O5 0.750000 0.750000 0.500000
O O6 0.609876 0.750000 0.530231
O O7 0.685343 0.250000 0.847149
O O8 0.750000 0.000000 0.821540
O O9 0.615394 0.999451 0.859090
O O10 0.500000 0.250000 0.381061
O O11 0.500000 0.918749 0.924838
O O12 0.614175 0.750000 0.930779
O O13 0.614784 0.000000 0.000000
#
# Coordination Sequence:
#
# PCOD8281241 Si02
#       5
#    16   8  16   8  16
#     4  11  23  42  67  95 128 177 227 269 337 420
#     4  12  22  42  70  98 123 179 232 277 338 417
#     4  11  24  41  65  98 134 170 220 280 329 395
#     4  12  28  42  64 100 135 165 221 293 344 394
#     4  10  22  42  69  98 132 177 225 270 329 405
#
# _framework density 20.381891
#
# number of rings (size 3 to 8) (size 9 to 14) (size 15 to 20)
#    0.000    1.000    3.750    2.250    7.000    5.000 
#    0.000    2.500    0.000    0.000    0.000    0.000 
#    0.000    0.000    0.000    0.000    0.000    0.000 
#
# Total GULP energy -396745.689731 kJ/mol
# GULP energy per Si atom -12398.302804 kJ/mol
# Density = 2.033550 g / cm^3
# Si number density = 20.381891 Si / 1000 Ang^3
#
#
#
# Elastic Constant Matrix: (Units=GPa)
#
#
# Indices 1 2 3 4 5 6 
#
# 1 91.3685 47.8285 22.8910 0.0000 0.0000 0.0000
# 2 47.8285 175.8802 39.5178 0.0000 0.0000 0.0000
# 3 22.8910 39.5178 89.4896 0.0000 0.0000 0.0000
# 4 0.0000 0.0000 0.0000 39.3408 0.0000 0.0000
# 5 0.0000 0.0000 0.0000 0.0000 45.3191 0.0000
# 6 0.0000 0.0000 0.0000 0.0000 0.0000 26.7855
#
#
#
# Elastic Compliance Matrix: (Units=1/GPa)
#
#
# Indices 1 2 3 4 5 6 
#
# 1 0.013066 -0.003111 -0.001969 0.000000 0.000000 0.000000
# 2 -0.003111 0.007053 -0.002319 0.000000 0.000000 0.000000
# 3 -0.001969 -0.002319 0.012702 0.000000 0.000000 0.000000
# 4 0.000000 0.000000 0.000000 0.025419 0.000000 0.000000
# 5 0.000000 0.000000 0.000000 0.000000 0.022066 0.000000
# 6 0.000000 0.000000 0.000000 0.000000 0.000000 0.037334
#
#
# Mechanical properties :
#
#
# Convention : Reuss Voigt Hill
#
# Bulk Modulus (GPa) = 55.47946 64.13477 59.80712
# Shear Modulus (GPa) = 36.11580 38.72248 37.41914
#
# Velocity S-wave (km/s) = 4.21403 4.36345 4.28939
# Velocity P-wave (km/s) = 7.13838 7.54461 7.34430
#
# Compressibility (1/GPa) = 0.01802469
#
# Stress axis : x y z
#
# Youngs Moduli (GPa) = 76.53244 141.79114 78.72835
#
# Poissons Ratio (x) = 0.44110 0.15498
# Poissons Ratio (y) = 0.23809 0.18254
# Poissons Ratio (z) = 0.15066 0.32876
#
# Static dielectric constant tensor:
#      x y z
#    x 3.431270 0.000000 0.000000 
#    y 0.000000 3.823550 0.000000 
#    z 0.000000 0.000000 4.272860 
# 
# 
# High freq. dielectric constant tensor:
#      x y z
#    x 1.774600 0.000000 0.000000 
#    y 0.000000 1.817440 0.000000 
#    z 0.000000 0.000000 1.810180 
# 
# From -- ./inp_files/34668.got.cif
#   From: 2010.03.12/outbox.cif.g09.slc.cpg/sg67_18_cif.got.tgz:34668.got - 2010.04.10 22:41:39.
