data_PCOD8281815
_publ_section_title
;
Structure prediction by ZEFSAII (Michael W. Deem and Ramdas Pophale) SiO2 
 PCOD8281815
Probable space group: C C C A
;
_chemical_formula_sum "Si O2"
_cell_formula_units_Z 112
_cell_length_a 14.882609
_cell_length_b 25.509830
_cell_length_c 13.988304
_cell_angle_alpha 90.000000
_cell_angle_beta 90.000000
_cell_angle_gamma 90.000000
_cell_volume 5310.699138
_symmetry_space_group_name_H-M "C C C A"
_symmetry_group_IT_number 68
_space_group.IT_coordinate_system_code '2'
_symmetry_cell_setting 'orthorhombic'
loop_
_space_group_symop_operation_xyz
x,y,z
-x,1/2-y,z
x,1/2-y,1/2-z
-x,y,1/2-z
-x,-y,-z
x,1/2+y,-z
-x,1/2+y,1/2+z
x,-y,1/2+z
1/2+x,1/2+y,z
1/2-x,-y,z
1/2+x,-y,1/2-z
1/2-x,1/2+y,1/2-z
1/2-x,1/2-y,-z
1/2+x,y,-z
1/2-x,y,1/2+z
1/2+x,1/2-y,1/2+z
loop_
_atom_site_type_symbol
_atom_site_label
_atom_site_fract_x
_atom_site_fract_y
_atom_site_fract_z
Si Si1 0.160590 0.969787 0.699767
Si Si2 0.356438 0.695841 0.209619
Si Si3 0.883114 0.635140 0.611169
Si Si4 0.259873 0.099819 0.860155
Si Si5 0.689142 0.630100 0.561151
Si Si6 0.099417 0.423829 0.758841
Si Si7 0.535351 0.695681 0.475940
O O1 0.122959 0.928429 0.621313
O O2 0.179443 0.938974 0.797935
O O3 0.250000 0.000000 0.662899
O O4 0.086653 0.013967 0.723022
O O5 0.315784 0.750000 0.250000
O O6 0.409838 0.662761 0.289755
O O7 0.275587 0.660658 0.167764
O O8 0.427727 0.709974 0.128277
O O9 0.784504 0.657645 0.583414
O O10 0.956673 0.651566 0.531848
O O11 0.154625 0.087377 0.839473
O O12 0.291480 0.092063 0.969888
O O13 0.658357 0.597825 0.653381
O O14 0.614175 0.673721 0.542287
O O15 0.000000 0.398694 0.750000
O O16 0.500000 0.750000 0.522129
#
# Coordination Sequence:
#
# PCOD8281815 Si02
#       7
#    16  16  16  16  16  16  16
#     4   9  18  42  63  90 124 169 215 268 325 392
#     4  10  18  37  64  91 120 164 216 275 328 374
#     4  11  21  39  68  89 131 172 214 272 330 387
#     4   9  21  41  63  92 128 171 218 267 330 399
#     4  11  24  43  64  95 136 175 219 271 332 409
#     4  11  23  43  66  93 134 175 218 272 336 396
#     4  11  24  38  62 100 130 163 224 279 331 394
#
# _framework density 21.089502
#
# number of rings (size 3 to 8) (size 9 to 14) (size 15 to 20)
#    0.000    1.714    5.714    0.429    2.000    4.000 
#    7.714    1.429    0.000    0.000    0.000    0.000 
#    0.000    0.000    0.000    0.000    0.000    0.000 
#
# Total GULP energy -694055.910689 kJ/mol
# GULP energy per Si atom -12393.855548 kJ/mol
# Density = 2.104150 g / cm^3
# Si number density = 21.089502 Si / 1000 Ang^3
#
#
#
# Elastic Constant Matrix: (Units=GPa)
#
#
# Indices 1 2 3 4 5 6 
#
# 1 110.4436 26.6843 21.5059 0.0000 0.0000 0.0000
# 2 26.6843 106.8629 15.1996 0.0000 0.0000 0.0000
# 3 21.5059 15.1996 58.1290 0.0000 0.0000 0.0000
# 4 0.0000 0.0000 0.0000 13.8129 0.0000 0.0000
# 5 0.0000 0.0000 0.0000 0.0000 16.8247 0.0000
# 6 0.0000 0.0000 0.0000 0.0000 0.0000 30.2424
#
#
#
# Elastic Compliance Matrix: (Units=1/GPa)
#
#
# Indices 1 2 3 4 5 6 
#
# 1 0.010186 -0.002085 -0.003223 0.000000 0.000000 0.000000
# 2 -0.002085 0.010146 -0.001882 0.000000 0.000000 0.000000
# 3 -0.003223 -0.001882 0.018888 0.000000 0.000000 0.000000
# 4 0.000000 0.000000 0.000000 0.072396 0.000000 0.000000
# 5 0.000000 0.000000 0.000000 0.000000 0.059436 0.000000
# 6 0.000000 0.000000 0.000000 0.000000 0.000000 0.033066
#
#
# Mechanical properties :
#
#
# Convention : Reuss Voigt Hill
#
# Bulk Modulus (GPa) = 40.25801 44.69054 42.47428
# Shear Modulus (GPa) = 22.04800 26.31238 24.18019
#
# Velocity S-wave (km/s) = 3.23685 3.53605 3.38975
# Velocity P-wave (km/s) = 5.75327 6.15698 5.95855
#
# Compressibility (1/GPa) = 0.02483978
#
# Stress axis : x y z
#
# Youngs Moduli (GPa) = 98.17606 98.56052 52.94476
#
# Poissons Ratio (x) = 0.20550 0.17065
# Poissons Ratio (y) = 0.20470 0.09962
# Poissons Ratio (z) = 0.31644 0.18545
#
# Static dielectric constant tensor:
#      x y z
#    x 3.775540 0.000000 0.000000 
#    y 0.000000 3.932760 0.000000 
#    z 0.000000 0.000000 3.718620 
# 
# 
# High freq. dielectric constant tensor:
#      x y z
#    x 1.821930 0.000000 0.000000 
#    y 0.000000 1.821660 0.000000 
#    z 0.000000 0.000000 1.806210 
# 
# From -- ./inp_files/22585.got.cif
#   From: 2010.03.12/outbox.cif.g09.slc.cpg/sg68_12_cif.got.tgz:22585.got - 2010.04.10 23:14:56.
