data_PCOD8281014
_publ_section_title
;
Structure prediction by ZEFSAII (Michael W. Deem and Ramdas Pophale) SiO2 
 PCOD8281014
Probable space group: C M M A
;
_chemical_formula_sum "Si O2"
_cell_formula_units_Z 96
_cell_length_a 18.534428
_cell_length_b 18.714989
_cell_length_c 14.280137
_cell_angle_alpha 90.000000
_cell_angle_beta 90.000000
_cell_angle_gamma 90.000000
_cell_volume 4953.374200
_symmetry_space_group_name_H-M "C M M A"
_symmetry_group_IT_number 67
_symmetry_cell_setting 'orthorhombic'
loop_
_space_group_symop_operation_xyz
x,y,z
-x,1/2-y,z
x,-y,-z
-x,1/2+y,-z
-x,-y,-z
x,1/2+y,-z
-x,y,z
x,1/2-y,z
1/2+x,1/2+y,z
1/2-x,-y,z
1/2+x,1/2-y,-z
1/2-x,y,-z
1/2-x,1/2-y,-z
1/2+x,y,-z
1/2-x,1/2+y,z
1/2+x,-y,z
loop_
_atom_site_type_symbol
_atom_site_label
_atom_site_fract_x
_atom_site_fract_y
_atom_site_fract_z
Si Si1 0.669307 0.080399 0.467414
Si Si2 0.675314 0.399961 0.765631
Si Si3 0.671338 0.434124 0.253588
Si Si4 0.918425 0.166599 0.393199
Si Si5 0.081477 0.668539 0.916593
Si Si6 0.419133 0.560451 0.930598
O O1 0.750000 0.103975 0.500000
O O2 0.652946 0.092999 0.357597
O O3 0.608490 0.129226 0.513187
O O4 0.655954 0.000000 0.500000
O O5 0.679163 0.481330 0.732418
O O6 0.760385 0.385668 0.779482
O O7 0.636990 0.350941 0.689399
O O8 0.633246 0.385415 0.861141
O O9 0.613779 0.426301 0.171259
O O10 0.917350 0.250000 0.411024
O O11 0.000000 0.140963 0.368636
O O12 0.110376 0.750000 0.914466
O O13 0.000000 0.665868 0.875359
O O14 0.082448 0.638476 0.021651
O O15 0.500000 0.533089 0.911879
O O16 0.382664 0.500000 0.000000
#
# Coordination Sequence:
#
# PCOD8281014 Si02
#       6
#    16  16  16  16  16  16
#     4  11  20  42  65  87 123 163 202 250 315 377
#     4  11  20  38  59  89 123 158 198 261 310 362
#     4  11  22  37  63  93 120 157 205 257 305 373
#     4  11  24  40  60  91 126 162 210 262 310 367
#     4  10  21  39  62  88 123 165 206 253 308 366
#     4  10  21  39  61  88 125 165 208 256 309 369
#
# _framework density 19.380728999999999
#
# number of rings (size 3 to 8) (size 9 to 14) (size 15 to 20)
#    0.000    1.333    5.000    2.000    0.000    4.000 
#    0.000    3.333    0.000    2.000    0.000    0.000 
#    0.000    0.000    0.000    0.000    0.000    0.000 
#
# Total GULP energy -594712.837848 kJ/mol
# GULP energy per Si atom -12389.850788 kJ/mol
# Density = 1.933662 g / cm^3
# Si number density = 19.380729 Si / 1000 Ang^3
#
#
#
# Elastic Constant Matrix: (Units=GPa)
#
#
# Indices 1 2 3 4 5 6 
#
# 1 96.9351 41.0304 53.1371 0.0000 0.0000 0.0000
# 2 41.0304 65.1752 21.0086 0.0000 0.0000 0.0000
# 3 53.1371 21.0086 138.9000 0.0000 0.0000 0.0000
# 4 0.0000 0.0000 0.0000 24.5697 0.0000 0.0000
# 5 0.0000 0.0000 0.0000 0.0000 36.3384 0.0000
# 6 0.0000 0.0000 0.0000 0.0000 0.0000 29.5152
#
#
#
# Elastic Compliance Matrix: (Units=1/GPa)
#
#
# Indices 1 2 3 4 5 6 
#
# 1 0.016935 -0.009012 -0.005116 0.000000 0.000000 0.000000
# 2 -0.009012 0.020926 0.000283 0.000000 0.000000 0.000000
# 3 -0.005116 0.000283 0.009114 0.000000 0.000000 0.000000
# 4 0.000000 0.000000 0.000000 0.040701 0.000000 0.000000
# 5 0.000000 0.000000 0.000000 0.000000 0.027519 0.000000
# 6 0.000000 0.000000 0.000000 0.000000 0.000000 0.033881
#
#
# Mechanical properties :
#
#
# Convention : Reuss Voigt Hill
#
# Bulk Modulus (GPa) = 51.85600 59.04028 55.44814
# Shear Modulus (GPa) = 27.29356 30.47361 28.88358
#
# Velocity S-wave (km/s) = 3.75678 3.96961 3.86466
# Velocity P-wave (km/s) = 6.75518 7.17913 6.97038
#
# Compressibility (1/GPa) = 0.01928417
#
# Stress axis : x y z
#
# Youngs Moduli (GPa) = 59.04893 47.78790 109.72577
#
# Poissons Ratio (x) = 0.43068 0.56130
# Poissons Ratio (y) = 0.53217 -0.03102
# Poissons Ratio (z) = 0.30207 -0.01351
#
# Static dielectric constant tensor:
#      x y z
#    x 3.756620 0.000000 0.000000 
#    y 0.000000 3.471380 0.000000 
#    z 0.000000 0.000000 3.566870 
# 
# 
# High freq. dielectric constant tensor:
#      x y z
#    x 1.747660 0.000000 0.000000 
#    y 0.000000 1.741130 0.000000 
#    z 0.000000 0.000000 1.760540 
# 
# From -- ./inp_files/27164.got.cif
#   From: 2010.03.12/outbox.cif.g09.slc.cpg/sg67_14_cif.got.tgz:27164.got - 2010.04.10 22:41:39.
