data_PCOD8281872
_publ_section_title
;
Structure prediction by ZEFSAII (Michael W. Deem and Ramdas Pophale) SiO2 
 PCOD8281872
Probable space group: C C C A
;
_chemical_formula_sum "Si O2"
_cell_formula_units_Z 80
_cell_length_a 8.347466
_cell_length_b 16.095636
_cell_length_c 29.293674
_cell_angle_alpha 90.000000
_cell_angle_beta 90.000000
_cell_angle_gamma 90.000000
_cell_volume 3935.832838
_symmetry_space_group_name_H-M "C C C A"
_symmetry_group_IT_number 68
_space_group.IT_coordinate_system_code '2'
_symmetry_cell_setting 'orthorhombic'
loop_
_space_group_symop_operation_xyz
x,y,z
-x,1/2-y,z
x,1/2-y,1/2-z
-x,y,1/2-z
-x,-y,-z
x,1/2+y,-z
-x,1/2+y,1/2+z
x,-y,1/2+z
1/2+x,1/2+y,z
1/2-x,-y,z
1/2+x,-y,1/2-z
1/2-x,1/2+y,1/2-z
1/2-x,1/2-y,-z
1/2+x,y,-z
1/2-x,y,1/2+z
1/2+x,1/2-y,1/2+z
loop_
_atom_site_type_symbol
_atom_site_label
_atom_site_fract_x
_atom_site_fract_y
_atom_site_fract_z
Si Si1 0.931162 0.657701 0.551778
Si Si2 0.135693 0.077703 0.875092
Si Si3 0.946447 0.344772 0.542945
Si Si4 0.561346 0.492252 0.700018
Si Si5 0.443880 0.656631 0.145700
O O1 0.741878 0.652525 0.548878
O O2 0.000000 0.750000 0.555598
O O3 0.007834 0.616529 0.506569
O O4 0.984149 0.614767 0.599086
O O5 0.250320 0.153989 0.859073
O O6 0.034467 0.100530 0.919477
O O7 0.250000 0.000000 0.885909
O O8 0.014330 0.059202 0.834204
O O9 0.000000 0.250000 0.546286
O O10 0.500000 0.514554 0.750000
O O11 0.750000 0.500000 0.697600
O O12 0.505132 0.399112 0.687547
O O13 0.500000 0.750000 0.154781
#
# Coordination Sequence:
#
# PCOD8281872 Si02
#       5
#    16  16  16  16  16
#     4  10  19  32  53  84 117 153 192 240 289 334
#     4  10  22  39  59  87 120 154 190 237 292 347
#     4  11  19  33  56  82 115 158 200 236 279 341
#     4  11  23  42  63  85 115 154 190 234 296 353
#     4  10  20  38  61  87 117 151 194 241 284 338
#
# _framework density 20.326065
#
# number of rings (size 3 to 8) (size 9 to 14) (size 15 to 20)
#    0.000    1.600    0.000    9.000    0.000    0.400 
#    0.000   10.000    0.000    4.200    0.000    0.000 
#    0.000    0.000    0.000    0.000    0.000    0.000 
#
# Total GULP energy -495948.110089 kJ/mol
# GULP energy per Si atom -12398.702752 kJ/mol
# Density = 2.027980 g / cm^3
# Si number density = 20.326065 Si / 1000 Ang^3
#
#
#
# Elastic Constant Matrix: (Units=GPa)
#
#
# Indices 1 2 3 4 5 6 
#
# 1 165.8700 9.6489 25.0573 0.0000 0.0000 0.0000
# 2 9.6489 38.2521 6.7901 0.0000 0.0000 0.0000
# 3 25.0573 6.7901 107.1803 0.0000 0.0000 0.0000
# 4 0.0000 0.0000 0.0000 33.8254 0.0000 0.0000
# 5 0.0000 0.0000 0.0000 0.0000 47.7356 0.0000
# 6 0.0000 0.0000 0.0000 0.0000 0.0000 925.2701
#
#
#
# Elastic Compliance Matrix: (Units=1/GPa)
#
#
# Indices 1 2 3 4 5 6 
#
# 1 0.006317 -0.001346 -0.001392 0.000000 0.000000 0.000000
# 2 -0.001346 0.026727 -0.001378 0.000000 0.000000 0.000000
# 3 -0.001392 -0.001378 0.009743 0.000000 0.000000 0.000000
# 4 0.000000 0.000000 0.000000 0.029564 0.000000 0.000000
# 5 0.000000 0.000000 0.000000 0.000000 0.020949 0.000000
# 6 0.000000 0.000000 0.000000 0.000000 0.000000 0.001081
#
#
# Mechanical properties :
#
#
# Convention : Reuss Voigt Hill
#
# Bulk Modulus (GPa) = 28.94039 43.81054 36.37546
# Shear Modulus (GPa) = 43.80941 219.35332 131.58136
#
# Velocity S-wave (km/s) = 4.64759 10.39959 8.05455
# Velocity P-wave (km/s) = 6.56271 12.87644 10.21939
#
# Compressibility (1/GPa) = 0.03455379
#
# Stress axis : x y z
#
# Youngs Moduli (GPa) = 158.29369 37.41580 102.64059
#
# Poissons Ratio (x) = 0.05038 0.14284
# Poissons Ratio (y) = 0.21314 0.14148
# Poissons Ratio (z) = 0.22028 0.05157
#
# Static dielectric constant tensor:
#      x y z
#    x 3.954400 0.000000 0.000000 
#    y 0.000000 3.361680 0.000000 
#    z 0.000000 0.000000 4.076530 
# 
# 
# High freq. dielectric constant tensor:
#      x y z
#    x 1.816890 0.000000 0.000000 
#    y 0.000000 1.769580 0.000000 
#    z 0.000000 0.000000 1.803280 
# 
# From -- ./inp_files/49147.got.cif
#   From: 2010.03.12/outbox.cif.g09.slc.cpg/sg68_25_cif.got.tgz:49147.got - 2010.04.10 23:14:56.
