data_PCOD8281489
_publ_section_title
;
Structure prediction by ZEFSAII (Michael W. Deem and Ramdas Pophale) SiO2 
 PCOD8281489
Probable space group: C M M A
;
_chemical_formula_sum "Si O2"
_cell_formula_units_Z 52
_cell_length_a 9.885553
_cell_length_b 16.347382
_cell_length_c 16.996219
_cell_angle_alpha 90.000000
_cell_angle_beta 90.000000
_cell_angle_gamma 90.000000
_cell_volume 2746.638469
_symmetry_space_group_name_H-M "C M M A"
_symmetry_group_IT_number 67
_symmetry_cell_setting 'orthorhombic'
loop_
_space_group_symop_operation_xyz
x,y,z
-x,1/2-y,z
x,-y,-z
-x,1/2+y,-z
-x,-y,-z
x,1/2+y,-z
-x,y,z
x,1/2-y,z
1/2+x,1/2+y,z
1/2-x,-y,z
1/2+x,1/2-y,-z
1/2-x,y,-z
1/2-x,1/2-y,-z
1/2+x,y,-z
1/2-x,1/2+y,z
1/2+x,-y,z
loop_
_atom_site_type_symbol
_atom_site_label
_atom_site_fract_x
_atom_site_fract_y
_atom_site_fract_z
Si Si1 0.500000 0.871460 0.323714
Si Si2 0.224405 0.750000 0.091726
Si Si3 0.229303 0.658102 0.411953
Si Si4 0.000000 0.335906 0.829434
Si Si5 0.000000 0.750000 0.813588
Si Si6 0.000000 0.935113 0.321749
O O1 0.628674 0.838053 0.369090
O O2 0.500000 0.832963 0.237120
O O3 0.500000 0.968367 0.320802
O O4 0.136099 0.831314 0.116103
O O5 0.367773 0.750000 0.133407
O O6 0.250000 0.750000 0.000000
O O7 0.167695 0.750000 0.414566
O O8 0.250000 0.623888 0.500000
O O9 0.132114 0.597117 0.365541
O O10 0.000000 0.250000 0.778533
O O11 0.000000 0.411158 0.770319
#
# Coordination Sequence:
#
# PCOD8281489 Si02
#       6
#     8   8  16   8   4   8
#     4  12  25  37  59  87 119 150 201 248 294 331
#     4   9  19  35  63  89 108 148 190 223 273 353
#     4  11  23  40  59  81 117 159 201 247 293 338
#     4   8  19  35  59  84 114 149 187 228 273 356
#     4  12  20  38  60  82 120 144 188 244 286 344
#     4  12  23  38  59  86 118 159 195 242 291 349
#
# _framework density 18.932234000000001
#
# number of rings (size 3 to 8) (size 9 to 14) (size 15 to 20)
#    0.923    0.308    1.538    6.000    0.000    6.154 
#    0.000    0.000    0.000    5.538    0.000    0.000 
#    0.000    0.000    0.000    0.000    0.000    0.000 
#
# Total GULP energy -322259.085866 kJ/mol
# GULP energy per Si atom -12394.580226 kJ/mol
# Density = 1.888914 g / cm^3
# Si number density = 18.932234 Si / 1000 Ang^3
#
#
#
# Elastic Constant Matrix: (Units=GPa)
#
#
# Indices 1 2 3 4 5 6 
#
# 1 154.8051 23.0558 71.4960 0.0000 0.0000 0.0000
# 2 23.0558 108.1160 43.0801 0.0000 0.0000 0.0000
# 3 71.4960 43.0801 161.4825 0.0000 0.0000 0.0000
# 4 0.0000 0.0000 0.0000 3.4643 0.0000 0.0000
# 5 0.0000 0.0000 0.0000 0.0000 39.5177 0.0000
# 6 0.0000 0.0000 0.0000 0.0000 0.0000 20.9015
#
#
#
# Elastic Compliance Matrix: (Units=1/GPa)
#
#
# Indices 1 2 3 4 5 6 
#
# 1 0.008131 -0.000335 -0.003511 0.000000 0.000000 0.000000
# 2 -0.000335 0.010363 -0.002616 0.000000 0.000000 0.000000
# 3 -0.003511 -0.002616 0.008445 0.000000 0.000000 0.000000
# 4 0.000000 0.000000 0.000000 0.288659 0.000000 0.000000
# 5 0.000000 0.000000 0.000000 0.000000 0.025305 0.000000
# 6 0.000000 0.000000 0.000000 0.000000 0.000000 0.047843
#
#
# Mechanical properties :
#
#
# Convention : Reuss Voigt Hill
#
# Bulk Modulus (GPa) = 71.35140 77.74084 74.54612
# Shear Modulus (GPa) = 12.30488 31.89482 22.09985
#
# Velocity S-wave (km/s) = 2.55216 4.10894 3.42030
# Velocity P-wave (km/s) = 6.81574 7.97891 7.42015
#
# Compressibility (1/GPa) = 0.01401514
#
# Stress axis : x y z
#
# Youngs Moduli (GPa) = 122.98630 96.49439 118.41460
#
# Poissons Ratio (x) = 0.03234 0.41570
# Poissons Ratio (y) = 0.04121 0.30981
# Poissons Ratio (z) = 0.43175 0.25246
#
# Static dielectric constant tensor:
#      x y z
#    x 3.621130 0.000000 0.000000 
#    y 0.000000 3.258330 0.000000 
#    z 0.000000 0.000000 3.449610 
# 
# 
# High freq. dielectric constant tensor:
#      x y z
#    x 1.757400 0.000000 0.000000 
#    y 0.000000 1.713360 0.000000 
#    z 0.000000 0.000000 1.731660 
# 
# From -- ./inp_files/25623.got.cif
#   From: 2010.03.12/outbox.cif.g09.slc.cpg/sg67_13_cif.got.tgz:25623.got - 2010.04.10 22:41:39.
