data_PCOD8281661
_publ_section_title
;
Structure prediction by ZEFSAII (Michael W. Deem and Ramdas Pophale) SiO2 
 PCOD8281661
Probable space group: C C C A
;
_chemical_formula_sum "Si O2"
_cell_formula_units_Z 88
_cell_length_a 17.961046
_cell_length_b 18.293419
_cell_length_c 13.346047
_cell_angle_alpha 90.000000
_cell_angle_beta 90.000000
_cell_angle_gamma 90.000000
_cell_volume 4385.096518
_symmetry_space_group_name_H-M "C C C A"
_symmetry_group_IT_number 68
_space_group.IT_coordinate_system_code '2'
_symmetry_cell_setting 'orthorhombic'
loop_
_space_group_symop_operation_xyz
x,y,z
-x,1/2-y,z
x,1/2-y,1/2-z
-x,y,1/2-z
-x,-y,-z
x,1/2+y,-z
-x,1/2+y,1/2+z
x,-y,1/2+z
1/2+x,1/2+y,z
1/2-x,-y,z
1/2+x,-y,1/2-z
1/2-x,1/2+y,1/2-z
1/2-x,1/2-y,-z
1/2+x,y,-z
1/2-x,y,1/2+z
1/2+x,1/2-y,1/2+z
loop_
_atom_site_type_symbol
_atom_site_label
_atom_site_fract_x
_atom_site_fract_y
_atom_site_fract_z
Si Si1 0.266304 0.334199 0.009232
Si Si2 0.475331 0.416618 0.105591
Si Si3 0.000000 0.455168 0.250000
Si Si4 0.851829 0.332084 0.790767
Si Si5 0.112619 0.580242 0.904584
Si Si6 0.353199 0.082453 0.100004
O O1 0.293542 0.348035 0.121169
O O2 0.250000 0.250000 0.000000
O O3 0.328969 0.355233 0.925933
O O4 0.192222 0.382287 0.992150
O O5 0.464794 0.492851 0.164699
O O6 0.433808 0.353228 0.168325
O O7 0.560810 0.393510 0.092881
O O8 0.444261 0.428077 0.995509
O O9 0.064677 0.405854 0.302341
O O10 0.852980 0.250000 0.750000
O O11 0.822219 0.384418 0.703224
O O12 0.158067 0.504472 0.897090
#
# Coordination Sequence:
#
# PCOD8281661 Si02
#       6
#    16  16   8  16  16  16
#     4  11  24  42  58  93 137 168 207 264 318 385
#     4  10  20  37  64  97 123 152 213 276 317 366
#     4  10  16  36  61  90 123 158 202 268 308 370
#     4  11  21  39  64  91 125 167 211 261 325 384
#     4  10  22  39  62  94 128 165 213 263 320 377
#     4  11  20  41  63  92 125 165 214 263 316 383
#
# _framework density 20.067972999999999
#
# number of rings (size 3 to 8) (size 9 to 14) (size 15 to 20)
#    0.000    1.455    5.455    2.727    0.000    1.455 
#    6.545    1.818    0.000    0.000    0.000    0.000 
#    0.000    0.000    0.000    0.000    0.000    0.000 
#
# Total GULP energy -545516.107106 kJ/mol
# GULP energy per Si atom -12398.093343 kJ/mol
# Density = 2.002230 g / cm^3
# Si number density = 20.067973 Si / 1000 Ang^3
#
#
#
# Elastic Constant Matrix: (Units=GPa)
#
#
# Indices 1 2 3 4 5 6 
#
# 1 105.1776 52.1319 68.1102 0.0000 0.0000 0.0000
# 2 52.1319 112.6916 50.8722 0.0000 0.0000 0.0000
# 3 68.1102 50.8722 109.6248 0.0000 0.0000 0.0000
# 4 0.0000 0.0000 0.0000 35.9470 0.0000 0.0000
# 5 0.0000 0.0000 0.0000 0.0000 37.9821 0.0000
# 6 0.0000 0.0000 0.0000 0.0000 0.0000 34.3681
#
#
#
# Elastic Compliance Matrix: (Units=1/GPa)
#
#
# Indices 1 2 3 4 5 6 
#
# 1 0.017202 -0.003963 -0.008849 0.000000 0.000000 0.000000
# 2 -0.003963 0.012139 -0.003171 0.000000 0.000000 0.000000
# 3 -0.008849 -0.003171 0.016091 0.000000 0.000000 0.000000
# 4 0.000000 0.000000 0.000000 0.027819 0.000000 0.000000
# 5 0.000000 0.000000 0.000000 0.000000 0.026328 0.000000
# 6 0.000000 0.000000 0.000000 0.000000 0.000000 0.029097
#
#
# Mechanical properties :
#
#
# Convention : Reuss Voigt Hill
#
# Bulk Modulus (GPa) = 74.25661 74.41364 74.33513
# Shear Modulus (GPa) = 30.27927 32.08476 31.18201
#
# Velocity S-wave (km/s) = 3.88859 4.00284 3.94613
# Velocity P-wave (km/s) = 7.56600 7.65016 7.60820
#
# Compressibility (1/GPa) = 0.01346681
#
# Stress axis : x y z
#
# Youngs Moduli (GPa) = 58.13165 82.38229 62.14659
#
# Poissons Ratio (x) = 0.32651 0.54991
# Poissons Ratio (y) = 0.23040 0.19704
# Poissons Ratio (z) = 0.51438 0.26119
#
# Static dielectric constant tensor:
#      x y z
#    x 3.876970 0.000000 0.000000 
#    y 0.000000 3.540340 0.000000 
#    z 0.000000 0.000000 3.943380 
# 
# 
# High freq. dielectric constant tensor:
#      x y z
#    x 1.784960 0.000000 0.000000 
#    y 0.000000 1.762390 0.000000 
#    z 0.000000 0.000000 1.795370 
# 
# From -- ./inp_files/14429.got.cif
#   From: 2010.03.12/outbox.cif.g09.slc.cpg/sg68_8_cif.got.tgz:14429.got - 2010.04.10 23:14:56.
