data_PCOD8281223
_publ_section_title
;
Structure prediction by ZEFSAII (Michael W. Deem and Ramdas Pophale) SiO2 
 PCOD8281223
Probable space group: C M M A
;
_chemical_formula_sum "Si O2"
_cell_formula_units_Z 68
_cell_length_a 18.280927
_cell_length_b 14.959730
_cell_length_c 12.537851
_cell_angle_alpha 90.000000
_cell_angle_beta 90.000000
_cell_angle_gamma 90.000000
_cell_volume 3428.823057
_symmetry_space_group_name_H-M "C M M A"
_symmetry_group_IT_number 67
_symmetry_cell_setting 'orthorhombic'
loop_
_space_group_symop_operation_xyz
x,y,z
-x,1/2-y,z
x,-y,-z
-x,1/2+y,-z
-x,-y,-z
x,1/2+y,-z
-x,y,z
x,1/2-y,z
1/2+x,1/2+y,z
1/2-x,-y,z
1/2+x,1/2-y,-z
1/2-x,y,-z
1/2-x,1/2-y,-z
1/2+x,y,-z
1/2-x,1/2+y,z
1/2+x,-y,z
loop_
_atom_site_type_symbol
_atom_site_label
_atom_site_fract_x
_atom_site_fract_y
_atom_site_fract_z
Si Si1 0.500000 0.353732 0.284207
Si Si2 0.500000 0.598251 0.957279
Si Si3 0.658048 0.350874 0.373159
Si Si4 0.260777 0.903252 0.824430
Si Si5 0.750000 0.500000 0.500000
Si Si6 0.153050 0.348042 0.014988
O O1 0.500000 0.250000 0.254304
O O2 0.500000 0.404871 0.171299
O O3 0.573025 0.377831 0.351856
O O4 0.433242 0.649423 0.010681
O O5 0.500000 0.500000 0.000000
O O6 0.661653 0.250000 0.426091
O O7 0.701519 0.339765 0.261954
O O8 0.695968 0.431344 0.438430
O O9 0.313180 0.915411 0.927726
O O10 0.250000 0.000000 0.770670
O O11 0.182051 0.867328 0.865065
O O12 0.180087 0.250000 0.980509
#
# Coordination Sequence:
#
# PCOD8281223 Si02
#       6
#     8   8  16  16   4  16
#     4  10  22  41  65  88 117 160 204 253 305 360
#     4  12  22  32  51  82 121 162 200 242 284 347
#     4  11  23  43  67  92 122 157 203 256 310 369
#     4  11  20  35  56  84 118 156 198 241 292 351
#     4  12  26  42  68  96 120 150 198 260 324 382
#     4  11  21  33  52  82 118 161 202 242 288 347
#
# _framework density 19.831878
#
# number of rings (size 3 to 8) (size 9 to 14) (size 15 to 20)
#    0.000    0.941    3.529    7.059    0.000    0.471 
#    0.000    0.000    0.000    0.000    0.000    4.941 
#    0.000    0.000    0.000    0.000    0.000    0.000 
#
# Total GULP energy -421240.841978 kJ/mol
# GULP energy per Si atom -12389.436529 kJ/mol
# Density = 1.978674 g / cm^3
# Si number density = 19.831878 Si / 1000 Ang^3
#
#
#
# Elastic Constant Matrix: (Units=GPa)
#
#
# Indices 1 2 3 4 5 6 
#
# 1 172.9002 46.0365 55.4287 0.0000 0.0000 0.0000
# 2 46.0365 117.3346 36.4588 0.0000 0.0000 0.0000
# 3 55.4287 36.4588 75.0888 0.0000 0.0000 0.0000
# 4 0.0000 0.0000 0.0000 27.8105 0.0000 0.0000
# 5 0.0000 0.0000 0.0000 0.0000 27.7940 0.0000
# 6 0.0000 0.0000 0.0000 0.0000 0.0000 31.0349
#
#
#
# Elastic Compliance Matrix: (Units=1/GPa)
#
#
# Indices 1 2 3 4 5 6 
#
# 1 0.007793 -0.001496 -0.005027 0.000000 0.000000 0.000000
# 2 -0.001496 0.010324 -0.003909 0.000000 0.000000 0.000000
# 3 -0.005027 -0.003909 0.018926 0.000000 0.000000 0.000000
# 4 0.000000 0.000000 0.000000 0.035958 0.000000 0.000000
# 5 0.000000 0.000000 0.000000 0.000000 0.035979 0.000000
# 6 0.000000 0.000000 0.000000 0.000000 0.000000 0.032222
#
#
# Mechanical properties :
#
#
# Convention : Reuss Voigt Hill
#
# Bulk Modulus (GPa) = 61.79988 71.24128 66.52058
# Shear Modulus (GPa) = 29.85834 32.48786 31.17310
#
# Velocity S-wave (km/s) = 3.88438 4.05181 3.96898
# Velocity P-wave (km/s) = 7.16571 7.60856 7.39045
#
# Compressibility (1/GPa) = 0.01618126
#
# Stress axis : x y z
#
# Youngs Moduli (GPa) = 128.31353 96.86144 52.83786
#
# Poissons Ratio (x) = 0.14489 0.26559
# Poissons Ratio (y) = 0.19194 0.20652
# Poissons Ratio (z) = 0.64498 0.37859
#
# Static dielectric constant tensor:
#      x y z
#    x 3.811640 0.000000 0.000000 
#    y 0.000000 3.986850 0.000000 
#    z 0.000000 0.000000 3.312960 
# 
# 
# High freq. dielectric constant tensor:
#      x y z
#    x 1.786250 0.000000 0.000000 
#    y 0.000000 1.786330 0.000000 
#    z 0.000000 0.000000 1.734570 
# 
# From -- ./inp_files/20450.got.cif
#   From: 2010.03.12/outbox.cif.g09.slc.cpg/sg67_11_cif.got.tgz:20450.got - 2010.04.10 22:41:39.
