data_PCOD8281038
_publ_section_title
;
Structure prediction by ZEFSAII (Michael W. Deem and Ramdas Pophale) SiO2 
 PCOD8281038
Probable space group: C M M A
;
_chemical_formula_sum "Si O2"
_cell_formula_units_Z 68
_cell_length_a 9.094088
_cell_length_b 14.955739
_cell_length_c 21.586171
_cell_angle_alpha 90.000000
_cell_angle_beta 90.000000
_cell_angle_gamma 90.000000
_cell_volume 2935.909356
_symmetry_space_group_name_H-M "C M M A"
_symmetry_group_IT_number 67
_symmetry_cell_setting 'orthorhombic'
loop_
_space_group_symop_operation_xyz
x,y,z
-x,1/2-y,z
x,-y,-z
-x,1/2+y,-z
-x,-y,-z
x,1/2+y,-z
-x,y,z
x,1/2-y,z
1/2+x,1/2+y,z
1/2-x,-y,z
1/2+x,1/2-y,-z
1/2-x,y,-z
1/2-x,1/2-y,-z
1/2+x,y,-z
1/2-x,1/2+y,z
1/2+x,-y,z
loop_
_atom_site_type_symbol
_atom_site_label
_atom_site_fract_x
_atom_site_fract_y
_atom_site_fract_z
Si Si1 0.662172 0.648498 0.592445
Si Si2 0.250000 0.500000 0.500000
Si Si3 0.334843 0.355067 0.713027
Si Si4 0.175027 0.910634 0.166575
Si Si5 0.160901 0.349985 0.055763
O O1 0.500000 0.652052 0.622251
O O2 0.699959 0.750000 0.567120
O O3 0.656606 0.570388 0.540826
O O4 0.778828 0.619780 0.644611
O O5 0.500000 0.393712 0.721068
O O6 0.334403 0.250000 0.722405
O O7 0.226145 0.396664 0.763039
O O8 0.242423 0.840193 0.118606
O O9 0.000000 0.911454 0.164505
O O10 0.250000 0.000000 0.140668
O O11 0.129820 0.250000 0.033293
O O12 0.000000 0.396245 0.066935
O O13 0.250000 0.399760 0.000000
#
# Coordination Sequence:
#
# PCOD8281038 Si02
#       5
#    16   4  16  16  16
#     4  10  23  43  66  95 131 173 221 271 330 398
#     4  12  24  40  68 100 134 172 220 278 330 390
#     4  10  22  42  67  93 124 163 209 263 320 379
#     4  12  25  40  61  90 126 165 209 260 317 379
#     4  10  21  39  63  91 124 163 210 260 313 376
#
# _framework density 23.161477000000001
#
# number of rings (size 3 to 8) (size 9 to 14) (size 15 to 20)
#    0.000    1.412    0.000    4.941    1.647    8.000 
#    0.000    4.706    0.000    0.000    0.000    0.000 
#    0.000    0.000    0.000    0.000    0.000    0.000 
#
# Total GULP energy -421283.544207 kJ/mol
# GULP energy per Si atom -12390.692477 kJ/mol
# Density = 2.310876 g / cm^3
# Si number density = 23.161477 Si / 1000 Ang^3
#
#
#
# Elastic Constant Matrix: (Units=GPa)
#
#
# Indices 1 2 3 4 5 6 
#
# 1 223.3668 33.0735 74.1125 0.0000 0.0000 0.0000
# 2 33.0735 75.8865 36.1496 0.0000 0.0000 0.0000
# 3 74.1125 36.1496 127.0214 0.0000 0.0000 0.0000
# 4 0.0000 0.0000 0.0000 1740.6156 0.0000 0.0000
# 5 0.0000 0.0000 0.0000 0.0000 37.0704 0.0000
# 6 0.0000 0.0000 0.0000 0.0000 0.0000 25.4953
#
#
#
# Elastic Compliance Matrix: (Units=1/GPa)
#
#
# Indices 1 2 3 4 5 6 
#
# 1 0.005620 -0.001026 -0.002987 0.000000 0.000000 0.000000
# 2 -0.001026 0.015432 -0.003793 0.000000 0.000000 0.000000
# 3 -0.002987 -0.003793 0.010695 0.000000 0.000000 0.000000
# 4 0.000000 0.000000 0.000000 0.000575 0.000000 0.000000
# 5 0.000000 0.000000 0.000000 0.000000 0.026976 0.000000
# 6 0.000000 0.000000 0.000000 0.000000 0.000000 0.039223
#
#
# Mechanical properties :
#
#
# Convention : Reuss Voigt Hill
#
# Bulk Modulus (GPa) = 61.98076 79.21620 70.59848
# Shear Modulus (GPa) = 41.83739 379.49887 210.66813
#
# Velocity S-wave (km/s) = 4.25471 12.81424 9.54745
# Velocity P-wave (km/s) = 7.13829 15.91276 12.33229
#
# Compressibility (1/GPa) = 0.01613404
#
# Stress axis : x y z
#
# Youngs Moduli (GPa) = 177.93632 64.80156 93.50260
#
# Poissons Ratio (x) = 0.06652 0.27929
# Poissons Ratio (y) = 0.18265 0.35464
# Poissons Ratio (z) = 0.53148 0.24578
#
# Static dielectric constant tensor:
#      x y z
#    x 4.424970 0.000000 0.000000 
#    y 0.000000 4.224540 0.000000 
#    z 0.000000 0.000000 3.960360 
# 
# 
# High freq. dielectric constant tensor:
#      x y z
#    x 1.926540 0.000000 0.000000 
#    y 0.000000 1.910660 0.000000 
#    z 0.000000 0.000000 1.910580 
# 
# From -- ./inp_files/36654.got.cif
#   From: 2010.03.12/outbox.cif.g09.slc.cpg/sg67_19_cif.got.tgz:36654.got - 2010.04.10 22:41:39.
