data_PCOD8281836
_publ_section_title
;
Structure prediction by ZEFSAII (Michael W. Deem and Ramdas Pophale) SiO2 
 PCOD8281836
Probable space group: C C C A
;
_chemical_formula_sum "Si O2"
_cell_formula_units_Z 64
_cell_length_a 17.775683
_cell_length_b 8.589822
_cell_length_c 20.620412
_cell_angle_alpha 90.000000
_cell_angle_beta 90.000000
_cell_angle_gamma 90.000000
_cell_volume 3148.529737
_symmetry_space_group_name_H-M "C C C A"
_symmetry_group_IT_number 68
_space_group.IT_coordinate_system_code '2'
_symmetry_cell_setting 'orthorhombic'
loop_
_space_group_symop_operation_xyz
x,y,z
-x,1/2-y,z
x,1/2-y,1/2-z
-x,y,1/2-z
-x,-y,-z
x,1/2+y,-z
-x,1/2+y,1/2+z
x,-y,1/2+z
1/2+x,1/2+y,z
1/2-x,-y,z
1/2+x,-y,1/2-z
1/2-x,1/2+y,1/2-z
1/2-x,1/2-y,-z
1/2+x,y,-z
1/2-x,y,1/2+z
1/2+x,1/2-y,1/2+z
loop_
_atom_site_type_symbol
_atom_site_label
_atom_site_fract_x
_atom_site_fract_y
_atom_site_fract_z
Si Si1 0.023741 0.427507 0.683703
Si Si2 0.192780 0.638522 0.187537
Si Si3 0.459568 0.411246 0.443563
Si Si4 0.211504 0.662299 0.439970
O O1 0.112816 0.440535 0.672236
O O2 0.000000 0.250000 0.691518
O O3 0.000000 0.516725 0.750000
O O4 0.975899 0.503482 0.624079
O O5 0.187627 0.750000 0.250000
O O6 0.250000 0.500000 0.202484
O O7 0.218239 0.733030 0.124022
O O8 0.500000 0.250000 0.433316
O O9 0.500000 0.500000 0.500000
O O10 0.373230 0.381166 0.459500
O O11 0.250000 0.500000 0.424269
O O12 0.250000 0.750000 0.500000
#
# Coordination Sequence:
#
# PCOD8281836 Si02
#       4
#    16  16  16  16
#     4  10  18  40  70  88 119 169 222 258 325 389
#     4  12  24  42  69 100 132 171 220 276 334 396
#     4  11  22  40  65  92 123 174 219 259 320 390
#     4  12  25  41  63  97 136 171 215 275 328 386
#
# _framework density 20.326948000000002
#
# number of rings (size 3 to 8) (size 9 to 14) (size 15 to 20)
#    0.000    0.750    7.500    3.000    3.500    0.000 
#    0.000    0.000    0.000    0.000    0.000    0.000 
#    0.000    0.000    0.000    0.000    0.000    0.000 
#
# Total GULP energy -396660.461244 kJ/mol
# GULP energy per Si atom -12395.639414 kJ/mol
# Density = 2.028068 g / cm^3
# Si number density = 20.326948 Si / 1000 Ang^3
#
#
#
# Elastic Constant Matrix: (Units=GPa)
#
#
# Indices 1 2 3 4 5 6 
#
# 1 173.0943 34.1466 52.6751 0.0000 0.0000 0.0000
# 2 34.1466 48.2187 31.8401 0.0000 0.0000 0.0000
# 3 52.6751 31.8401 205.9309 0.0000 0.0000 0.0000
# 4 0.0000 0.0000 0.0000 34.5659 0.0000 0.0000
# 5 0.0000 0.0000 0.0000 0.0000 39.5130 0.0000
# 6 0.0000 0.0000 0.0000 0.0000 0.0000 24.5295
#
#
#
# Elastic Compliance Matrix: (Units=1/GPa)
#
#
# Indices 1 2 3 4 5 6 
#
# 1 0.006944 -0.004171 -0.001131 0.000000 0.000000 0.000000
# 2 -0.004171 0.025602 -0.002892 0.000000 0.000000 0.000000
# 3 -0.001131 -0.002892 0.005592 0.000000 0.000000 0.000000
# 4 0.000000 0.000000 0.000000 0.028930 0.000000 0.000000
# 5 0.000000 0.000000 0.000000 0.000000 0.025308 0.000000
# 6 0.000000 0.000000 0.000000 0.000000 0.000000 0.040767
#
#
# Mechanical properties :
#
#
# Convention : Reuss Voigt Hill
#
# Bulk Modulus (GPa) = 45.97444 73.84082 59.90763
# Shear Modulus (GPa) = 31.89149 40.29382 36.09266
#
# Velocity S-wave (km/s) = 3.96527 4.45712 4.21837
# Velocity P-wave (km/s) = 6.60538 7.93053 7.29809
#
# Compressibility (1/GPa) = 0.02175122
#
# Stress axis : x y z
#
# Youngs Moduli (GPa) = 144.00434 39.05998 178.81097
#
# Poissons Ratio (x) = 0.16290 0.20231
# Poissons Ratio (y) = 0.60057 0.51705
# Poissons Ratio (z) = 0.16293 0.11295
#
# Static dielectric constant tensor:
#      x y z
#    x 4.130330 0.000000 0.000000 
#    y 0.000000 3.746180 0.000000 
#    z 0.000000 0.000000 3.342080 
# 
# 
# High freq. dielectric constant tensor:
#      x y z
#    x 1.810850 0.000000 0.000000 
#    y 0.000000 1.755170 0.000000 
#    z 0.000000 0.000000 1.828460 
# 
# From -- ./inp_files/39113.got.cif
#   From: 2010.03.12/outbox.cif.g09.slc.cpg/sg68_20_cif.got.tgz:39113.got - 2010.04.10 23:14:56.
