data_PCOD8281853
_publ_section_title
;
Structure prediction by ZEFSAII (Michael W. Deem and Ramdas Pophale) SiO2 
 PCOD8281853
Probable space group: C C C A
;
_chemical_formula_sum "Si O2"
_cell_formula_units_Z 104
_cell_length_a 18.159675
_cell_length_b 24.592342
_cell_length_c 12.966689
_cell_angle_alpha 90.000000
_cell_angle_beta 90.000000
_cell_angle_gamma 90.000000
_cell_volume 5790.779873
_symmetry_space_group_name_H-M "C C C A"
_symmetry_group_IT_number 68
_space_group.IT_coordinate_system_code '2'
_symmetry_cell_setting 'orthorhombic'
loop_
_space_group_symop_operation_xyz
x,y,z
-x,1/2-y,z
x,1/2-y,1/2-z
-x,y,1/2-z
-x,-y,-z
x,1/2+y,-z
-x,1/2+y,1/2+z
x,-y,1/2+z
1/2+x,1/2+y,z
1/2-x,-y,z
1/2+x,-y,1/2-z
1/2-x,1/2+y,1/2-z
1/2-x,1/2-y,-z
1/2+x,y,-z
1/2-x,y,1/2+z
1/2+x,1/2-y,1/2+z
loop_
_atom_site_type_symbol
_atom_site_label
_atom_site_fract_x
_atom_site_fract_y
_atom_site_fract_z
Si Si1 0.609178 0.448040 0.533165
Si Si2 0.323278 0.866911 0.565322
Si Si3 0.784259 0.377338 0.892534
Si Si4 0.545424 0.065166 0.465044
Si Si5 0.728839 0.060094 0.797668
Si Si6 0.000000 0.398672 0.750000
Si Si7 0.625117 0.810860 0.748690
O O1 0.657513 0.420652 0.441300
O O2 0.525812 0.424239 0.538036
O O3 0.593986 0.511765 0.507784
O O4 0.649841 0.437929 0.643028
O O5 0.266951 0.850058 0.477858
O O6 0.402449 0.882934 0.518076
O O7 0.292925 0.919334 0.626707
O O8 0.332607 0.816416 0.642444
O O9 0.730967 0.405889 0.808228
O O10 0.820180 0.322905 0.845530
O O11 0.515087 0.062231 0.347176
O O12 0.750000 0.000000 0.765707
O O13 0.067428 0.358588 0.732837
O O14 0.591976 0.750000 0.750000
#
# Coordination Sequence:
#
# PCOD8281853 Si02
#       7
#    16  16  16  16  16   8  16
#     4  10  20  33  49  76 108 146 176 213 262 320
#     4   9  20  35  50  78 110 133 179 221 262 328
#     4  10  21  35  54  76 108 143 175 225 266 320
#     4  10  19  33  51  75 112 142 176 218 259 320
#     4  10  19  31  49  75 106 145 180 208 261 321
#     4  10  19  36  52  80 112 136 178 225 270 324
#     4  10  20  36  58  79 101 138 181 233 279 309
#
# _framework density 17.959584
#
# number of rings (size 3 to 8) (size 9 to 14) (size 15 to 20)
#    0.000    2.154    3.077    0.231    2.154    0.615 
#    2.769    0.000    0.000    0.000    0.000    0.000 
#    0.000    0.000    0.000    0.000    0.000    0.000 
#
# Total GULP energy -644244.167504 kJ/mol
# GULP energy per Si atom -12389.310914 kJ/mol
# Density = 1.791871 g / cm^3
# Si number density = 17.959584 Si / 1000 Ang^3
#
#
#
# Elastic Constant Matrix: (Units=GPa)
#
#
# Indices 1 2 3 4 5 6 
#
# 1 87.1052 14.0511 36.9961 0.0000 0.0000 0.0000
# 2 14.0511 55.9136 23.9354 0.0000 0.0000 0.0000
# 3 36.9961 23.9354 69.9915 0.0000 0.0000 0.0000
# 4 0.0000 0.0000 0.0000 10.6462 0.0000 0.0000
# 5 0.0000 0.0000 0.0000 0.0000 30.5756 0.0000
# 6 0.0000 0.0000 0.0000 0.0000 0.0000 -59.0074
#
#
#
# Elastic Compliance Matrix: (Units=1/GPa)
#
#
# Indices 1 2 3 4 5 6 
#
# 1 0.014813 -0.000434 -0.007681 0.000000 0.000000 0.000000
# 2 -0.000434 0.020965 -0.006940 0.000000 0.000000 0.000000
# 3 -0.007681 -0.006940 0.020721 0.000000 0.000000 0.000000
# 4 0.000000 0.000000 0.000000 0.093930 0.000000 0.000000
# 5 0.000000 0.000000 0.000000 0.000000 0.032706 0.000000
# 6 0.000000 0.000000 0.000000 0.000000 0.000000 -0.016947
#
#
# Mechanical properties :
#
#
# Convention : Reuss Voigt Hill
#
# Bulk Modulus (GPa) = 37.89657 40.33059 39.11358
# Shear Modulus (GPa) = 24.37911 5.64476 15.01193
#
# Velocity S-wave (km/s) = 3.68835 1.77478 2.89428
# Velocity P-wave (km/s) = 6.26780 5.16767 5.74414
#
# Compressibility (1/GPa) = 0.02638761
#
# Stress axis : x y z
#
# Youngs Moduli (GPa) = 67.50881 47.69932 48.26055
#
# Poissons Ratio (x) = 0.02072 0.37070
# Poissons Ratio (y) = 0.02932 0.33492
# Poissons Ratio (z) = 0.51855 0.33103
#
# Static dielectric constant tensor:
#      x y z
#    x 3.595290 0.000000 0.000000 
#    y 0.000000 2.958090 0.000000 
#    z 0.000000 0.000000 3.437640 
# 
# 
# High freq. dielectric constant tensor:
#      x y z
#    x 1.706140 0.000000 0.000000 
#    y 0.000000 1.660800 0.000000 
#    z 0.000000 0.000000 1.689410 
# 
# From -- ./inp_files/14770.got.cif
#   From: 2010.03.12/outbox.cif.g09.slc.cpg/sg68_8_cif.got.tgz:14770.got - 2010.04.10 23:14:56.
