data_PCOD8281857
_publ_section_title
;
Structure prediction by ZEFSAII (Michael W. Deem and Ramdas Pophale) SiO2 
 PCOD8281857
Probable space group: C C C A
;
_chemical_formula_sum "Si O2"
_cell_formula_units_Z 128
_cell_length_a 25.641098
_cell_length_b 12.558049
_cell_length_c 21.858653
_cell_angle_alpha 90.000000
_cell_angle_beta 90.000000
_cell_angle_gamma 90.000000
_cell_volume 7038.533592
_symmetry_space_group_name_H-M "C C C A"
_symmetry_group_IT_number 68
_space_group.IT_coordinate_system_code '2'
_symmetry_cell_setting 'orthorhombic'
loop_
_space_group_symop_operation_xyz
x,y,z
-x,1/2-y,z
x,1/2-y,1/2-z
-x,y,1/2-z
-x,-y,-z
x,1/2+y,-z
-x,1/2+y,1/2+z
x,-y,1/2+z
1/2+x,1/2+y,z
1/2-x,-y,z
1/2+x,-y,1/2-z
1/2-x,1/2+y,1/2-z
1/2-x,1/2-y,-z
1/2+x,y,-z
1/2-x,y,1/2+z
1/2+x,1/2-y,1/2+z
loop_
_atom_site_type_symbol
_atom_site_label
_atom_site_fract_x
_atom_site_fract_y
_atom_site_fract_z
Si Si1 0.696511 0.439941 0.175842
Si Si2 0.205221 0.244621 0.071750
Si Si3 0.939285 0.744366 0.593727
Si Si4 0.645504 0.194425 0.684236
Si Si5 0.375969 0.845968 0.505996
Si Si6 0.134214 0.556089 0.922757
Si Si7 0.808417 0.531588 0.315322
Si Si8 0.182772 0.231731 0.896313
O O1 0.750000 0.500000 0.159651
O O2 0.650056 0.504404 0.142392
O O3 0.688755 0.423256 0.247327
O O4 0.697834 0.319818 0.153002
O O5 0.191721 0.251792 0.144421
O O6 0.181594 0.129771 0.050411
O O7 0.266213 0.266378 0.058746
O O8 0.173794 0.339433 0.038847
O O9 0.910858 0.791416 0.653303
O O10 0.927198 0.811588 0.531798
O O11 0.918472 0.623928 0.585720
O O12 0.000000 0.750000 0.606680
O O13 0.647377 0.250000 0.750000
O O14 0.653590 0.068520 0.686072
O O15 0.367296 0.765097 0.563391
O O16 0.379820 0.966916 0.527678
O O17 0.750000 0.500000 0.334398
O O18 0.828500 0.619591 0.363671
#
# Coordination Sequence:
#
# PCOD8281857 Si02
#       8
#    16  16  16  16  16  16  16  16
#     4  10  19  31  53  77 114 159 189 213 265 340
#     4  10  19  33  50  76 112 152 186 222 265 333
#     4  10  23  42  61  81 104 139 193 252 299 334
#     4  10  21  36  56  81 116 146 186 232 284 335
#     4   9  21  34  53  77 107 142 184 237 283 336
#     4   9  18  36  55  79 108 145 186 227 281 341
#     4  11  21  30  50  81 115 154 184 228 267 325
#     4  11  20  33  47  80 114 153 197 216 263 332
#
# _framework density 18.185607000000001
#
# number of rings (size 3 to 8) (size 9 to 14) (size 15 to 20)
#    0.000    2.250    2.500    2.250    1.750    4.750 
#    0.000    0.000    0.000    0.000    0.000    0.000 
#    0.000    3.000    0.000    0.000    0.000    0.000 
#
# Total GULP energy -793303.005052 kJ/mol
# GULP energy per Si atom -12395.359454 kJ/mol
# Density = 1.814422 g / cm^3
# Si number density = 18.185607 Si / 1000 Ang^3
#
#
#
# Elastic Constant Matrix: (Units=GPa)
#
#
# Indices 1 2 3 4 5 6 
#
# 1 74.9645 30.8533 14.1210 0.0000 0.0000 0.0000
# 2 30.8533 125.3595 42.5103 0.0000 0.0000 0.0000
# 3 14.1210 42.5103 73.7963 0.0000 0.0000 0.0000
# 4 0.0000 0.0000 0.0000 29.5512 0.0000 0.0000
# 5 0.0000 0.0000 0.0000 0.0000 19.0955 0.0000
# 6 0.0000 0.0000 0.0000 0.0000 0.0000 16.0132
#
#
#
# Elastic Compliance Matrix: (Units=1/GPa)
#
#
# Indices 1 2 3 4 5 6 
#
# 1 0.014893 -0.003354 -0.000918 0.000000 0.000000 0.000000
# 2 -0.003354 0.010669 -0.005504 0.000000 0.000000 0.000000
# 3 -0.000918 -0.005504 0.016897 0.000000 0.000000 0.000000
# 4 0.000000 0.000000 0.000000 0.033840 0.000000 0.000000
# 5 0.000000 0.000000 0.000000 0.000000 0.052368 0.000000
# 6 0.000000 0.000000 0.000000 0.000000 0.000000 0.062449
#
#
# Mechanical properties :
#
#
# Convention : Reuss Voigt Hill
#
# Bulk Modulus (GPa) = 43.65426 49.89883 46.77654
# Shear Modulus (GPa) = 22.90393 25.37437 24.13915
#
# Velocity S-wave (km/s) = 3.55273 3.73942 3.64727
# Velocity P-wave (km/s) = 6.39423 6.79283 6.59654
#
# Compressibility (1/GPa) = 0.02290727
#
# Stress axis : x y z
#
# Youngs Moduli (GPa) = 67.14558 93.72886 59.18212
#
# Poissons Ratio (x) = 0.31439 0.05430
# Poissons Ratio (y) = 0.22523 0.32574
# Poissons Ratio (z) = 0.06161 0.51589
#
# Static dielectric constant tensor:
#      x y z
#    x 2.951210 0.000000 0.000000 
#    y 0.000000 3.446420 0.000000 
#    z 0.000000 0.000000 3.516690 
# 
# 
# High freq. dielectric constant tensor:
#      x y z
#    x 1.652030 0.000000 0.000000 
#    y 0.000000 1.714710 0.000000 
#    z 0.000000 0.000000 1.719030 
# 
# From -- ./inp_files/47362.got.cif
#   From: 2010.03.12/outbox.cif.g09.slc.cpg/sg68_24_cif.got.tgz:47362.got - 2010.04.10 23:14:56.
