data_PCOD8281834
_publ_section_title
;
Structure prediction by ZEFSAII (Michael W. Deem and Ramdas Pophale) SiO2 
 PCOD8281834
Probable space group: C C C A
;
_chemical_formula_sum "Si O2"
_cell_formula_units_Z 100
_cell_length_a 13.091437
_cell_length_b 28.361795
_cell_length_c 13.057729
_cell_angle_alpha 90.000000
_cell_angle_beta 90.000000
_cell_angle_gamma 90.000000
_cell_volume 4848.291066
_symmetry_space_group_name_H-M "C C C A"
_symmetry_group_IT_number 68
_space_group.IT_coordinate_system_code '2'
_symmetry_cell_setting 'orthorhombic'
loop_
_space_group_symop_operation_xyz
x,y,z
-x,1/2-y,z
x,1/2-y,1/2-z
-x,y,1/2-z
-x,-y,-z
x,1/2+y,-z
-x,1/2+y,1/2+z
x,-y,1/2+z
1/2+x,1/2+y,z
1/2-x,-y,z
1/2+x,-y,1/2-z
1/2-x,1/2+y,1/2-z
1/2-x,1/2-y,-z
1/2+x,y,-z
1/2-x,y,1/2+z
1/2+x,1/2-y,1/2+z
loop_
_atom_site_type_symbol
_atom_site_label
_atom_site_fract_x
_atom_site_fract_y
_atom_site_fract_z
Si Si1 0.693530 0.210606 0.672707
Si Si2 0.940211 0.438953 0.118752
Si Si3 0.850770 0.395910 0.309407
Si Si4 0.392890 0.189019 0.412141
Si Si5 0.500000 0.750000 0.750000
Si Si6 0.500000 0.976158 0.750000
Si Si7 0.000000 0.250000 0.429719
Si Si8 0.636635 0.418117 0.395997
O O1 0.739388 0.250000 0.750000
O O2 0.669859 0.158863 0.717622
O O3 0.772757 0.202952 0.578287
O O4 0.587104 0.230544 0.639541
O O5 0.855286 0.418401 0.196308
O O6 0.960009 0.492328 0.155487
O O7 0.044315 0.407354 0.128267
O O8 0.893364 0.441579 0.004807
O O9 0.758705 0.417687 0.377530
O O10 0.428564 0.215270 0.311679
O O11 0.458257 0.205826 0.507420
O O12 0.410148 0.133921 0.399442
O O13 0.588945 0.944340 0.701726
#
# Coordination Sequence:
#
# PCOD8281834 Si02
#       8
#    16  16  16  16   4   8   8  16
#     4  11  22  36  59  88 121 164 208 249 293 363
#     4  10  23  43  64  90 131 155 204 269 310 383
#     4   9  23  41  60  93 128 167 203 255 319 364
#     4  10  22  38  57  87 123 160 210 244 303 366
#     4  10  18  40  54  78 126 164 186 266 292 336
#     4  10  23  42  66  99 119 156 212 257 316 388
#     4  11  23  35  59  88 120 168 205 255 307 351
#     4  11  22  41  66  92 122 168 207 254 319 375
#
# _framework density 20.625824000000001
#
# number of rings (size 3 to 8) (size 9 to 14) (size 15 to 20)
#    0.000    1.920    0.800    2.640    6.720    3.840 
#    0.000    3.200    0.000    0.000    0.000    0.000 
#    0.000    0.000    0.000    0.000    0.000    0.000 
#
# Total GULP energy -619632.387718 kJ/mol
# GULP energy per Si atom -12392.647754 kJ/mol
# Density = 2.057888 g / cm^3
# Si number density = 20.625824 Si / 1000 Ang^3
#
#
#
# Elastic Constant Matrix: (Units=GPa)
#
#
# Indices 1 2 3 4 5 6 
#
# 1 132.7979 35.5681 44.8901 0.0000 0.0000 0.0000
# 2 35.5681 119.9209 28.8811 0.0000 0.0000 0.0000
# 3 44.8901 28.8811 93.2706 0.0000 0.0000 0.0000
# 4 0.0000 0.0000 0.0000 66.0637 0.0000 0.0000
# 5 0.0000 0.0000 0.0000 0.0000 51.4355 0.0000
# 6 0.0000 0.0000 0.0000 0.0000 0.0000 26.6488
#
#
#
# Elastic Compliance Matrix: (Units=1/GPa)
#
#
# Indices 1 2 3 4 5 6 
#
# 1 0.009349 -0.001825 -0.003934 0.000000 0.000000 0.000000
# 2 -0.001825 0.009367 -0.002022 0.000000 0.000000 0.000000
# 3 -0.003934 -0.002022 0.013241 0.000000 0.000000 0.000000
# 4 0.000000 0.000000 0.000000 0.015137 0.000000 0.000000
# 5 0.000000 0.000000 0.000000 0.000000 0.019442 0.000000
# 6 0.000000 0.000000 0.000000 0.000000 0.000000 0.037525
#
#
# Mechanical properties :
#
#
# Convention : Reuss Voigt Hill
#
# Bulk Modulus (GPa) = 60.99817 62.74088 61.86952
# Shear Modulus (GPa) = 39.97139 44.60628 42.28884
#
# Velocity S-wave (km/s) = 4.40697 4.65547 4.53292
# Velocity P-wave (km/s) = 7.45205 7.70600 7.58009
#
# Compressibility (1/GPa) = 0.01639394
#
# Stress axis : x y z
#
# Youngs Moduli (GPa) = 106.96223 106.75547 75.52197
#
# Poissons Ratio (x) = 0.19487 0.29713
# Poissons Ratio (y) = 0.19525 0.15271
# Poissons Ratio (z) = 0.42083 0.21586
#
# Static dielectric constant tensor:
#      x y z
#    x 3.869390 0.000000 0.000000 
#    y 0.000000 3.875050 0.000000 
#    z 0.000000 0.000000 2.521110 
# 
# 
# High freq. dielectric constant tensor:
#      x y z
#    x 1.815420 0.000000 0.000000 
#    y 0.000000 1.820500 0.000000 
#    z 0.000000 0.000000 1.793650 
# 
# From -- ./inp_files/22714.got.cif
#   From: 2010.03.12/outbox.cif.g09.slc.cpg/sg68_12_cif.got.tgz:22714.got - 2010.04.10 23:14:56.
