data_PCOD8281253
_publ_section_title
;
Structure prediction by ZEFSAII (Michael W. Deem and Ramdas Pophale) SiO2 
 PCOD8281253
Probable space group: C M M A
;
_chemical_formula_sum "Si O2"
_cell_formula_units_Z 84
_cell_length_a 14.889190
_cell_length_b 22.237779
_cell_length_c 11.939380
_cell_angle_alpha 90.000000
_cell_angle_beta 90.000000
_cell_angle_gamma 90.000000
_cell_volume 3953.158766
_symmetry_space_group_name_H-M "C M M A"
_symmetry_group_IT_number 67
_symmetry_cell_setting 'orthorhombic'
loop_
_space_group_symop_operation_xyz
x,y,z
-x,1/2-y,z
x,-y,-z
-x,1/2+y,-z
-x,-y,-z
x,1/2+y,-z
-x,y,z
x,1/2-y,z
1/2+x,1/2+y,z
1/2-x,-y,z
1/2+x,1/2-y,-z
1/2-x,y,-z
1/2-x,1/2-y,-z
1/2+x,y,-z
1/2-x,1/2+y,z
1/2+x,-y,z
loop_
_atom_site_type_symbol
_atom_site_label
_atom_site_fract_x
_atom_site_fract_y
_atom_site_fract_z
Si Si1 0.250000 0.000000 0.500000
Si Si2 0.102627 0.974837 0.337522
Si Si3 0.097764 0.349547 0.740151
Si Si4 0.145353 0.181178 0.491883
Si Si5 0.733932 0.317654 0.875064
Si Si6 0.899403 0.891514 0.724654
O O1 0.180110 0.958663 0.429212
O O2 0.109575 0.921790 0.246137
O O3 0.000000 0.976939 0.387066
O O4 0.128868 0.038657 0.283724
O O5 0.099186 0.333380 0.609214
O O6 0.172291 0.314686 0.809267
O O7 0.000000 0.330224 0.786803
O O8 0.125623 0.250000 0.457568
O O9 0.250000 0.168906 0.500000
O O10 0.104748 0.138627 0.396860
O O11 0.694647 0.250000 0.878062
O O12 0.665004 0.360862 0.813911
O O13 0.750000 0.342237 0.000000
O O14 0.000000 0.886154 0.771639
#
# Coordination Sequence:
#
# PCOD8281253 Si02
#       6
#     4  16  16  16  16  16
#     4  12  18  28  56  82 124 172 194 232 292 350
#     4  10  23  37  55  90 126 160 206 251 297 364
#     4  11  23  41  63  90 126 164 202 249 308 367
#     4  11  22  36  57  88 127 163 199 246 298 354
#     4  11  25  44  65  91 120 154 205 261 308 364
#     4  11  23  41  63  90 126 164 202 249 308 367
#
# _framework density 21.248829000000001
#
# number of rings (size 3 to 8) (size 9 to 14) (size 15 to 20)
#    0.000    1.143    1.905    4.286    2.667    7.619 
#    0.000    3.810    0.000    3.429    0.000    0.000 
#    0.000    0.000    0.000    0.000    0.000    0.000 
#
# Total GULP energy -520793.720346 kJ/mol
# GULP energy per Si atom -12399.850484 kJ/mol
# Density = 2.120047 g / cm^3
# Si number density = 21.248829 Si / 1000 Ang^3
#
#
#
# Elastic Constant Matrix: (Units=GPa)
#
#
# Indices 1 2 3 4 5 6 
#
# 1 126.5853 30.8196 32.5996 0.0000 0.0000 0.0000
# 2 30.8196 100.5299 21.3749 0.0000 0.0000 0.0000
# 3 32.5996 21.3749 105.8995 0.0000 0.0000 0.0000
# 4 0.0000 0.0000 0.0000 14.1406 0.0000 0.0000
# 5 0.0000 0.0000 0.0000 0.0000 -3.2954 0.0000
# 6 0.0000 0.0000 0.0000 0.0000 0.0000 89.1518
#
#
#
# Elastic Compliance Matrix: (Units=1/GPa)
#
#
# Indices 1 2 3 4 5 6 
#
# 1 0.009054 -0.002281 -0.002327 0.000000 0.000000 0.000000
# 2 -0.002281 0.010968 -0.001512 0.000000 0.000000 0.000000
# 3 -0.002327 -0.001512 0.010464 0.000000 0.000000 0.000000
# 4 0.000000 0.000000 0.000000 0.070718 0.000000 0.000000
# 5 0.000000 0.000000 0.000000 0.000000 -0.303456 0.000000
# 6 0.000000 0.000000 0.000000 0.000000 0.000000 0.011217
#
#
# Mechanical properties :
#
#
# Convention : Reuss Voigt Hill
#
# Bulk Modulus (GPa) = 54.80155 55.84477 55.32316
# Shear Modulus (GPa) = -28.94988 36.54744 3.79878
#
# Velocity S-wave (km/s) = -3.69511 4.15176 1.33852
# Velocity P-wave (km/s) = 2.76429 7.02290 5.33678
#
# Compressibility (1/GPa) = 0.01824766
#
# Stress axis : x y z
#
# Youngs Moduli (GPa) = 110.44328 91.17425 95.56290
#
# Poissons Ratio (x) = 0.20798 0.22236
# Poissons Ratio (y) = 0.25193 0.14445
# Poissons Ratio (z) = 0.25699 0.13782
#
# Static dielectric constant tensor:
#      x y z
#    x 4.085440 0.000000 0.000000 
#    y 0.000000 4.044600 0.000000 
#    z 0.000000 0.000000 3.487360 
# 
# 
# High freq. dielectric constant tensor:
#      x y z
#    x 1.854510 0.000000 0.000000 
#    y 0.000000 1.851420 0.000000 
#    z 0.000000 0.000000 1.784610 
# 
# From -- ./inp_files/18097.got.cif
#   From: 2010.03.12/outbox.cif.g09.slc.cpg/sg67_10_cif.got.tgz:18097.got - 2010.04.10 22:41:39.
