data_PCOD8281230
_publ_section_title
;
Structure prediction by ZEFSAII (Michael W. Deem and Ramdas Pophale) SiO2 
 PCOD8281230
Probable space group: C M M A
;
_chemical_formula_sum "Si O2"
_cell_formula_units_Z 104
_cell_length_a 21.595202
_cell_length_b 25.888461
_cell_length_c 8.171144
_cell_angle_alpha 90.000000
_cell_angle_beta 90.000000
_cell_angle_gamma 90.000000
_cell_volume 4568.213243
_symmetry_space_group_name_H-M "C M M A"
_symmetry_group_IT_number 67
_symmetry_cell_setting 'orthorhombic'
loop_
_space_group_symop_operation_xyz
x,y,z
-x,1/2-y,z
x,-y,-z
-x,1/2+y,-z
-x,-y,-z
x,1/2+y,-z
-x,y,z
x,1/2-y,z
1/2+x,1/2+y,z
1/2-x,-y,z
1/2+x,1/2-y,-z
1/2-x,y,-z
1/2-x,1/2-y,-z
1/2+x,y,-z
1/2-x,1/2+y,z
1/2+x,-y,z
loop_
_atom_site_type_symbol
_atom_site_label
_atom_site_fract_x
_atom_site_fract_y
_atom_site_fract_z
Si Si1 0.070497 0.308392 0.507260
Si Si2 0.153098 0.102364 0.352380
Si Si3 0.068294 0.616981 0.936518
Si Si4 0.108881 0.035594 0.840183
Si Si5 0.384159 0.000000 0.500000
Si Si6 0.721983 0.604268 0.822369
Si Si7 0.626222 0.692416 0.849005
O O1 0.083550 0.250000 0.443177
O O2 0.120397 0.347251 0.428416
O O3 0.076917 0.309459 0.702378
O O4 0.000000 0.325061 0.462542
O O5 0.115271 0.088871 0.187433
O O6 0.153513 0.053076 0.472355
O O7 0.225006 0.110578 0.313574
O O8 0.000000 0.619541 0.859714
O O9 0.068681 0.585496 0.108478
O O10 0.092428 0.674057 0.983273
O O11 0.079293 0.010124 0.673395
O O12 0.179033 0.053562 0.795372
O O13 0.107193 0.000000 0.000000
O O14 0.684437 0.657049 0.806217
O O15 0.750000 0.598527 0.000000
O O16 0.651103 0.750000 0.879435
#
# Coordination Sequence:
#
# PCOD8281230 Si02
#       7
#    16  16  16  16   8  16  16
#     4  10  23  45  69  96 136 181 234 294 344 413
#     4  12  24  43  66 101 137 181 233 287 358 422
#     4  11  23  43  66  93 134 178 233 291 341 421
#     4  11  23  45  66  96 133 180 229 283 350 409
#     4  12  26  43  67 102 136 180 231 283 352 426
#     4  11  22  42  66  98 139 177 220 289 348 415
#     4  10  22  41  68  99 132 180 229 283 358 415
#
# _framework density 22.766012
#
# number of rings (size 3 to 8) (size 9 to 14) (size 15 to 20)
#    0.000    1.077    4.615    2.769    0.000    8.000 
#    0.000    4.231    0.000    0.000    0.000    0.000 
#    0.000    0.000    0.000    0.000    0.000    0.000 
#
# Total GULP energy -644272.343034 kJ/mol
# GULP energy per Si atom -12389.852751 kJ/mol
# Density = 2.271420 g / cm^3
# Si number density = 22.766012 Si / 1000 Ang^3
#
#
#
# Elastic Constant Matrix: (Units=GPa)
#
#
# Indices 1 2 3 4 5 6 
#
# 1 86.0845 8.1553 9.2250 0.0000 0.0000 0.0000
# 2 8.1553 105.6471 35.6581 0.0000 0.0000 0.0000
# 3 9.2250 35.6581 122.5924 0.0000 0.0000 0.0000
# 4 0.0000 0.0000 0.0000 41.8833 0.0000 0.0000
# 5 0.0000 0.0000 0.0000 0.0000 10.2440 0.0000
# 6 0.0000 0.0000 0.0000 0.0000 0.0000 9.4939
#
#
#
# Elastic Compliance Matrix: (Units=1/GPa)
#
#
# Indices 1 2 3 4 5 6 
#
# 1 0.011754 -0.000675 -0.000688 0.000000 0.000000 0.000000
# 2 -0.000675 0.010535 -0.003013 0.000000 0.000000 0.000000
# 3 -0.000688 -0.003013 0.009085 0.000000 0.000000 0.000000
# 4 0.000000 0.000000 0.000000 0.023876 0.000000 0.000000
# 5 0.000000 0.000000 0.000000 0.000000 0.097618 0.000000
# 6 0.000000 0.000000 0.000000 0.000000 0.000000 0.105331
#
#
# Mechanical properties :
#
#
# Convention : Reuss Voigt Hill
#
# Bulk Modulus (GPa) = 44.20666 46.71119 45.45893
# Shear Modulus (GPa) = 18.21542 29.74327 23.97935
#
# Velocity S-wave (km/s) = 2.83170 3.61844 3.24897
# Velocity P-wave (km/s) = 5.49102 6.16604 5.83829
#
# Compressibility (1/GPa) = 0.02262102
#
# Stress axis : x y z
#
# Youngs Moduli (GPa) = 85.07605 94.92461 110.06678
#
# Poissons Ratio (x) = 0.06408 0.07574
# Poissons Ratio (y) = 0.05743 0.33167
# Poissons Ratio (z) = 0.05854 0.28605
#
# Static dielectric constant tensor:
#      x y z
#    x 4.075570 0.000000 0.000000 
#    y 0.000000 4.447970 0.000000 
#    z 0.000000 0.000000 4.357320 
# 
# 
# High freq. dielectric constant tensor:
#      x y z
#    x 1.874310 0.000000 0.000000 
#    y 0.000000 1.907660 0.000000 
#    z 0.000000 0.000000 1.912070 
# 
# From -- ./inp_files/11566.got.cif
#   From: 2010.03.12/outbox.cif.g09.slc.cpg/sg67_6_cif.got.tgz:11566.got - 2010.04.10 22:41:39.
