data_PCOD8281536
_publ_section_title
;
Structure prediction by ZEFSAII (Michael W. Deem and Ramdas Pophale) SiO2 
 PCOD8281536
Probable space group: C M M A
;
_chemical_formula_sum "Si O2"
_cell_formula_units_Z 36
_cell_length_a 14.070528
_cell_length_b 20.187295
_cell_length_c 5.310584
_cell_angle_alpha 90.000000
_cell_angle_beta 90.000000
_cell_angle_gamma 90.000000
_cell_volume 1508.449609
_symmetry_space_group_name_H-M "C M M A"
_symmetry_group_IT_number 67
_symmetry_cell_setting 'orthorhombic'
loop_
_space_group_symop_operation_xyz
x,y,z
-x,1/2-y,z
x,-y,-z
-x,1/2+y,-z
-x,-y,-z
x,1/2+y,-z
-x,y,z
x,1/2-y,z
1/2+x,1/2+y,z
1/2-x,-y,z
1/2+x,1/2-y,-z
1/2-x,y,-z
1/2-x,1/2-y,-z
1/2+x,y,-z
1/2-x,1/2+y,z
1/2+x,-y,z
loop_
_atom_site_type_symbol
_atom_site_label
_atom_site_fract_x
_atom_site_fract_y
_atom_site_fract_z
Si Si1 0.000000 0.173612 0.859151
Si Si2 0.250000 0.500000 0.000000
Si Si3 0.000000 0.056472 0.218821
Si Si4 0.652222 0.407582 0.393107
O O1 0.093186 0.155662 0.698644
O O2 0.000000 0.250000 0.934421
O O3 0.000000 0.130304 0.110068
O O4 0.322469 0.455995 0.162838
O O5 0.093451 0.050877 0.396308
O O6 0.000000 0.000000 0.000000
O O7 0.750000 0.378861 0.500000
#
# Coordination Sequence:
#
# PCOD8281536 Si02
#       4
#     8   4   8  16
#     4  11  28  50  72 110 160 208 258 312 386 464
#     4  12  26  46  76 124 148 196 262 316 392 448
#     4  11  28  48  76 117 155 200 257 324 388 448
#     4  11  27  46  79 111 157 199 253 325 379 460
#
# _framework density 23.865561
#
# number of rings (size 3 to 8) (size 9 to 14) (size 15 to 20)
#    0.000    0.889    0.000    3.333   18.667    8.889 
#    0.000    7.778    0.000    0.000    0.000    0.000 
#    0.000    0.000    0.000    0.000    0.000    0.000 
#
# Total GULP energy -223150.946588 kJ/mol
# GULP energy per Si atom -12397.274810 kJ/mol
# Density = 2.381124 g / cm^3
# Si number density = 23.865561 Si / 1000 Ang^3
#
#
#
# Elastic Constant Matrix: (Units=GPa)
#
#
# Indices 1 2 3 4 5 6 
#
# 1 206.4964 63.1937 69.9109 0.0000 0.0000 0.0000
# 2 63.1937 198.7540 78.9202 0.0000 0.0000 0.0000
# 3 69.9109 78.9202 172.0694 0.0000 0.0000 0.0000
# 4 0.0000 0.0000 0.0000 31.2989 0.0000 0.0000
# 5 0.0000 0.0000 0.0000 0.0000 62.2683 0.0000
# 6 0.0000 0.0000 0.0000 0.0000 0.0000 32.0717
#
#
#
# Elastic Compliance Matrix: (Units=1/GPa)
#
#
# Indices 1 2 3 4 5 6 
#
# 1 0.005810 -0.001112 -0.001850 0.000000 0.000000 0.000000
# 2 -0.001112 0.006365 -0.002467 0.000000 0.000000 0.000000
# 3 -0.001850 -0.002467 0.007695 0.000000 0.000000 0.000000
# 4 0.000000 0.000000 0.000000 0.031950 0.000000 0.000000
# 5 0.000000 0.000000 0.000000 0.000000 0.016060 0.000000
# 6 0.000000 0.000000 0.000000 0.000000 0.000000 0.031180
#
#
# Mechanical properties :
#
#
# Convention : Reuss Voigt Hill
#
# Bulk Modulus (GPa) = 110.99398 111.26325 111.12861
# Shear Modulus (GPa) = 44.27849 49.48078 46.87964
#
# Velocity S-wave (km/s) = 4.31203 4.55830 4.43687
# Velocity P-wave (km/s) = 8.44988 8.62706 8.53893
#
# Compressibility (1/GPa) = 0.00900950
#
# Stress axis : x y z
#
# Youngs Moduli (GPa) = 172.13094 157.11593 129.95623
#
# Poissons Ratio (x) = 0.17479 0.24044
# Poissons Ratio (y) = 0.19149 0.32063
# Poissons Ratio (z) = 0.31846 0.38764
#
# Static dielectric constant tensor:
#      x y z
#    x 4.656740 0.000000 0.000000 
#    y 0.000000 3.626980 0.000000 
#    z 0.000000 0.000000 4.891770 
# 
# 
# High freq. dielectric constant tensor:
#      x y z
#    x 1.982630 0.000000 0.000000 
#    y 0.000000 1.900660 0.000000 
#    z 0.000000 0.000000 1.974700 
# 
# From -- ./inp_files/1021.got.cif
#   From: 2010.03.12/outbox.cif.g09.slc.cpg/sg67_1_cif.got.tgz:1021.got - 2010.04.10 22:41:39.
