data_PCOD8281711
_publ_section_title
;
Structure prediction by ZEFSAII (Michael W. Deem and Ramdas Pophale) SiO2 
 PCOD8281711
Probable space group: C C C A
;
_chemical_formula_sum "Si O2"
_cell_formula_units_Z 88
_cell_length_a 16.265365
_cell_length_b 29.544297
_cell_length_c 8.895879
_cell_angle_alpha 90.000000
_cell_angle_beta 90.000000
_cell_angle_gamma 90.000000
_cell_volume 4274.903750
_symmetry_space_group_name_H-M "C C C A"
_symmetry_group_IT_number 68
_space_group.IT_coordinate_system_code '2'
_symmetry_cell_setting 'orthorhombic'
loop_
_space_group_symop_operation_xyz
x,y,z
-x,1/2-y,z
x,1/2-y,1/2-z
-x,y,1/2-z
-x,-y,-z
x,1/2+y,-z
-x,1/2+y,1/2+z
x,-y,1/2+z
1/2+x,1/2+y,z
1/2-x,-y,z
1/2+x,-y,1/2-z
1/2-x,1/2+y,1/2-z
1/2-x,1/2-y,-z
1/2+x,y,-z
1/2-x,y,1/2+z
1/2+x,1/2-y,1/2+z
loop_
_atom_site_type_symbol
_atom_site_label
_atom_site_fract_x
_atom_site_fract_y
_atom_site_fract_z
Si Si1 0.642389 0.800967 0.748481
Si Si2 0.386598 0.563138 0.863805
Si Si3 0.740906 0.660710 0.481302
Si Si4 0.843140 0.985976 0.660588
Si Si5 0.710317 0.899529 0.286502
Si Si6 0.000000 0.132967 0.750000
O O1 0.608324 0.750000 0.750000
O O2 0.673352 0.814238 0.915678
O O3 0.717090 0.803153 0.629550
O O4 0.571444 0.834450 0.687544
O O5 0.395891 0.527446 0.725351
O O6 0.306475 0.592804 0.826370
O O7 0.462036 0.598611 0.874439
O O8 0.385976 0.533684 0.013977
O O9 0.697779 0.621924 0.378895
O O10 0.812959 0.636408 0.582964
O O11 0.839026 0.946644 0.789922
O O12 0.750000 0.000000 0.618721
#
# Coordination Sequence:
#
# PCOD8281711 Si02
#       6
#    16  16  16  16  16   8
#     4  11  23  40  65  92 118 151 199 254 310 363
#     4  11  22  34  54  82 121 162 200 237 291 355
#     4  10  19  36  63  91 115 154 199 248 292 357
#     4  10  20  33  56  87 120 161 206 250 283 338
#     4  10  17  34  58  89 119 153 198 243 295 343
#     4  12  23  40  58  86 128 162 192 246 315 370
#
# _framework density 20.585258
#
# number of rings (size 3 to 8) (size 9 to 14) (size 15 to 20)
#    0.000    1.455    5.455    2.455    2.545    0.727 
#    0.000    0.000    0.000   10.909    0.000   16.545 
#    0.000    0.000    0.000    0.000    0.000    0.000 
#
# Total GULP energy -545195.087616 kJ/mol
# GULP energy per Si atom -12390.797446 kJ/mol
# Density = 2.053840 g / cm^3
# Si number density = 20.585258 Si / 1000 Ang^3
#
#
#
# Elastic Constant Matrix: (Units=GPa)
#
#
# Indices 1 2 3 4 5 6 
#
# 1 55.3265 37.1328 13.7541 0.0000 0.0000 0.0000
# 2 37.1328 131.9300 30.7687 0.0000 0.0000 0.0000
# 3 13.7541 30.7687 82.5347 0.0000 0.0000 0.0000
# 4 0.0000 0.0000 0.0000 25.2444 0.0000 0.0000
# 5 0.0000 0.0000 0.0000 0.0000 2.8139 0.0000
# 6 0.0000 0.0000 0.0000 0.0000 0.0000 35.5449
#
#
#
# Elastic Compliance Matrix: (Units=1/GPa)
#
#
# Indices 1 2 3 4 5 6 
#
# 1 0.022456 -0.005967 -0.001518 0.000000 0.000000 0.000000
# 2 -0.005967 0.009887 -0.002691 0.000000 0.000000 0.000000
# 3 -0.001518 -0.002691 0.013372 0.000000 0.000000 0.000000
# 4 0.000000 0.000000 0.000000 0.039613 0.000000 0.000000
# 5 0.000000 0.000000 0.000000 0.000000 0.355377 0.000000
# 6 0.000000 0.000000 0.000000 0.000000 0.000000 0.028133
#
#
# Mechanical properties :
#
#
# Convention : Reuss Voigt Hill
#
# Bulk Modulus (GPa) = 39.42641 48.12249 43.77445
# Shear Modulus (GPa) = 10.04733 25.26304 17.65518
#
# Velocity S-wave (km/s) = 2.21166 3.50700 2.93176
# Velocity P-wave (km/s) = 5.07112 6.31083 5.72463
#
# Compressibility (1/GPa) = 0.02536371
#
# Stress axis : x y z
#
# Youngs Moduli (GPa) = 44.53087 101.14492 74.78057
#
# Poissons Ratio (x) = 0.60348 0.11351
# Poissons Ratio (y) = 0.26569 0.20127
# Poissons Ratio (z) = 0.06760 0.27223
#
# Static dielectric constant tensor:
#      x y z
#    x 3.296570 0.000000 0.000000 
#    y 0.000000 4.012030 0.000000 
#    z 0.000000 0.000000 3.703190 
# 
# 
# High freq. dielectric constant tensor:
#      x y z
#    x 1.750780 0.000000 0.000000 
#    y 0.000000 1.828230 0.000000 
#    z 0.000000 0.000000 1.799560 
# 
# From -- ./inp_files/7451.got.cif
#   From: 2010.03.12/outbox.cif.g09.slc.cpg/sg68_4_cif.got.tgz:7451.got - 2010.04.10 23:14:56.
