data_PCOD8281655
_publ_section_title
;
Structure prediction by ZEFSAII (Michael W. Deem and Ramdas Pophale) SiO2 
 PCOD8281655
Probable space group: C C C A
;
_chemical_formula_sum "Si O2"
_cell_formula_units_Z 108
_cell_length_a 12.175805
_cell_length_b 20.391191
_cell_length_c 26.652264
_cell_angle_alpha 90.000000
_cell_angle_beta 90.000000
_cell_angle_gamma 90.000000
_cell_volume 6617.201860
_symmetry_space_group_name_H-M "C C C A"
_symmetry_group_IT_number 68
_space_group.IT_coordinate_system_code '2'
_symmetry_cell_setting 'orthorhombic'
loop_
_space_group_symop_operation_xyz
x,y,z
-x,1/2-y,z
x,1/2-y,1/2-z
-x,y,1/2-z
-x,-y,-z
x,1/2+y,-z
-x,1/2+y,1/2+z
x,-y,1/2+z
1/2+x,1/2+y,z
1/2-x,-y,z
1/2+x,-y,1/2-z
1/2-x,1/2+y,1/2-z
1/2-x,1/2-y,-z
1/2+x,y,-z
1/2-x,y,1/2+z
1/2+x,1/2-y,1/2+z
loop_
_atom_site_type_symbol
_atom_site_label
_atom_site_fract_x
_atom_site_fract_y
_atom_site_fract_z
Si Si1 0.500000 0.250000 0.946673
Si Si2 0.291174 0.812947 0.407162
Si Si3 0.694689 0.434178 0.038566
Si Si4 0.500000 0.750000 0.750000
Si Si5 0.352904 0.043652 0.925233
Si Si6 0.915409 0.696088 0.345587
Si Si7 0.520976 0.923375 0.590648
Si Si8 0.640347 0.345925 0.492779
O O1 0.601551 0.267641 0.910759
O O2 0.537143 0.191601 0.983587
O O3 0.336663 0.886565 0.398252
O O4 0.210894 0.790736 0.361922
O O5 0.221692 0.801905 0.458584
O O6 0.750000 0.500000 0.058369
O O7 0.606378 0.411509 0.079362
O O8 0.635497 0.444560 0.984819
O O9 0.788050 0.378427 0.036726
O O10 0.576358 0.796622 0.714887
O O11 0.250000 0.000000 0.910964
O O12 0.456225 0.001844 0.902841
O O13 0.949098 0.622308 0.361922
O O14 0.000000 0.750000 0.370233
O O15 0.596397 0.903081 0.543410
#
# Coordination Sequence:
#
# PCOD8281655 Si02
#       8
#     8  16  16   4  16  16  16  16
#     4  12  24  29  42  71 112 153 172 219 256 308
#     4  10  21  33  49  72 106 139 180 212 259 302
#     4  10  19  28  42  68 102 148 184 206 238 278
#     4   8  20  38  64  82  92 112 164 220 286 340
#     4  10  16  33  46  71 100 142 185 207 232 285
#     4   9  20  36  56  81  93 121 165 225 270 321
#     4  11  19  30  51  69 102 135 179 222 246 297
#     4  10  20  30  43  64 102 149 189 212 239 282
#
# _framework density 16.321097999999999
#
# number of rings (size 3 to 8) (size 9 to 14) (size 15 to 20)
#    0.444    1.481    5.926    2.667    8.296    0.000 
#    0.000    0.000    0.000    0.444    3.852    0.000 
#    0.000    0.000    0.000    0.000    0.000    0.000 
#
# Total GULP energy -669177.716472 kJ/mol
# GULP energy per Si atom -12392.179935 kJ/mol
# Density = 1.628395 g / cm^3
# Si number density = 16.321098 Si / 1000 Ang^3
#
#
#
# Elastic Constant Matrix: (Units=GPa)
#
#
# Indices 1 2 3 4 5 6 
#
# 1 101.4891 31.0356 42.2217 0.0000 0.0000 0.0000
# 2 31.0356 68.6542 30.5784 0.0000 0.0000 0.0000
# 3 42.2217 30.5784 65.4676 0.0000 0.0000 0.0000
# 4 0.0000 0.0000 0.0000 6.6541 0.0000 0.0000
# 5 0.0000 0.0000 0.0000 0.0000 13.5374 0.0000
# 6 0.0000 0.0000 0.0000 0.0000 0.0000 34.7517
#
#
#
# Elastic Compliance Matrix: (Units=1/GPa)
#
#
# Indices 1 2 3 4 5 6 
#
# 1 0.013907 -0.002894 -0.007617 0.000000 0.000000 0.000000
# 2 -0.002894 0.018994 -0.007005 0.000000 0.000000 0.000000
# 3 -0.007617 -0.007005 0.023459 0.000000 0.000000 0.000000
# 4 0.000000 0.000000 0.000000 0.150283 0.000000 0.000000
# 5 0.000000 0.000000 0.000000 0.000000 0.073869 0.000000
# 6 0.000000 0.000000 0.000000 0.000000 0.000000 0.028776
#
#
# Mechanical properties :
#
#
# Convention : Reuss Voigt Hill
#
# Bulk Modulus (GPa) = 46.88820 49.25359 48.07090
# Shear Modulus (GPa) = 14.22754 19.77367 17.00061
#
# Velocity S-wave (km/s) = 2.95571 3.48450 3.23094
# Velocity P-wave (km/s) = 6.35918 6.81413 6.59058
#
# Compressibility (1/GPa) = 0.02132733
#
# Stress axis : x y z
#
# Youngs Moduli (GPa) = 71.90465 52.64768 42.62691
#
# Poissons Ratio (x) = 0.15237 0.32471
# Poissons Ratio (y) = 0.20810 0.29861
# Poissons Ratio (z) = 0.54773 0.36881
#
# Static dielectric constant tensor:
#      x y z
#    x 3.318500 0.000000 0.000000 
#    y 0.000000 3.203180 0.000000 
#    z 0.000000 0.000000 2.485200 
# 
# 
# High freq. dielectric constant tensor:
#      x y z
#    x 1.638140 0.000000 0.000000 
#    y 0.000000 1.635840 0.000000 
#    z 0.000000 0.000000 1.545410 
# 
# From -- ./inp_files/50485.got.cif
#   From: 2010.03.12/outbox.cif.g09.slc.cpg/sg68_26_cif.got.tgz:50485.got - 2010.04.10 23:14:56.
