data_PCOD8281695
_publ_section_title
;
Structure prediction by ZEFSAII (Michael W. Deem and Ramdas Pophale) SiO2 
 PCOD8281695
Probable space group: C C C A
;
_chemical_formula_sum "Si O2"
_cell_formula_units_Z 96
_cell_length_a 16.863501
_cell_length_b 10.688276
_cell_length_c 27.808936
_cell_angle_alpha 90.000000
_cell_angle_beta 90.000000
_cell_angle_gamma 90.000000
_cell_volume 5012.331374
_symmetry_space_group_name_H-M "C C C A"
_symmetry_group_IT_number 68
_space_group.IT_coordinate_system_code '2'
_symmetry_cell_setting 'orthorhombic'
loop_
_space_group_symop_operation_xyz
x,y,z
-x,1/2-y,z
x,1/2-y,1/2-z
-x,y,1/2-z
-x,-y,-z
x,1/2+y,-z
-x,1/2+y,1/2+z
x,-y,1/2+z
1/2+x,1/2+y,z
1/2-x,-y,z
1/2+x,-y,1/2-z
1/2-x,1/2+y,1/2-z
1/2-x,1/2-y,-z
1/2+x,y,-z
1/2-x,y,1/2+z
1/2+x,1/2-y,1/2+z
loop_
_atom_site_type_symbol
_atom_site_label
_atom_site_fract_x
_atom_site_fract_y
_atom_site_fract_z
Si Si1 0.839035 0.878321 0.263817
Si Si2 0.591923 0.758520 0.472752
Si Si3 0.660132 0.517615 0.635846
Si Si4 0.841236 0.869484 0.724845
Si Si5 0.092612 0.756264 0.639180
Si Si6 0.842646 0.474330 0.530358
O O1 0.883912 0.750000 0.250000
O O2 0.750220 0.873707 0.241772
O O3 0.843363 0.880239 0.321831
O O4 0.881849 0.999538 0.240786
O O5 0.500000 0.750000 0.484727
O O6 0.611005 0.737442 0.416752
O O7 0.638133 0.647701 0.499358
O O8 0.617790 0.897551 0.489534
O O9 0.750000 0.500000 0.621742
O O10 0.622478 0.391302 0.656878
O O11 0.622281 0.555420 0.584302
O O12 0.883569 0.750000 0.750000
O O13 0.856882 0.849880 0.667857
O O14 0.000000 0.750000 0.650791
O O15 0.750000 0.500000 0.528626
#
# Coordination Sequence:
#
# PCOD8281695 Si02
#       6
#    16  16  16  16  16  16
#     4  10  18  31  53  78 110 139 184 230 281 337
#     4  10  21  40  60  84 120 156 191 233 295 355
#     4  10  17  35  58  79 111 150 186 226 293 347
#     4  10  17  32  53  79 103 141 188 225 266 338
#     4  10  21  36  58  85 112 148 196 236 274 340
#     4  10  21  36  61  88 115 148 192 248 286 337
#
# _framework density 19.152764000000001
#
# number of rings (size 3 to 8) (size 9 to 14) (size 15 to 20)
#    0.000    2.000    3.333    2.000    0.000    0.333 
#    6.000    0.000    0.000    1.000    0.000    0.000 
#    0.000    0.000    0.000    0.000    0.000    0.000 
#
# Total GULP energy -594666.779772 kJ/mol
# GULP energy per Si atom -12388.891245 kJ/mol
# Density = 1.910917 g / cm^3
# Si number density = 19.152764 Si / 1000 Ang^3
#
#
#
# Elastic Constant Matrix: (Units=GPa)
#
#
# Indices 1 2 3 4 5 6 
#
# 1 56.4819 29.7098 21.7680 0.0000 0.0000 0.0000
# 2 29.7098 163.5022 68.3554 0.0000 0.0000 0.0000
# 3 21.7680 68.3554 110.1191 0.0000 0.0000 0.0000
# 4 0.0000 0.0000 0.0000 35.2668 0.0000 0.0000
# 5 0.0000 0.0000 0.0000 0.0000 13.5368 0.0000
# 6 0.0000 0.0000 0.0000 0.0000 0.0000 26.2531
#
#
#
# Elastic Compliance Matrix: (Units=1/GPa)
#
#
# Indices 1 2 3 4 5 6 
#
# 1 0.019995 -0.002675 -0.002292 0.000000 0.000000 0.000000
# 2 -0.002675 0.008617 -0.004820 0.000000 0.000000 0.000000
# 3 -0.002292 -0.004820 0.012526 0.000000 0.000000 0.000000
# 4 0.000000 0.000000 0.000000 0.028355 0.000000 0.000000
# 5 0.000000 0.000000 0.000000 0.000000 0.073873 0.000000
# 6 0.000000 0.000000 0.000000 0.000000 0.000000 0.038091
#
#
# Mechanical properties :
#
#
# Convention : Reuss Voigt Hill
#
# Bulk Modulus (GPa) = 46.37359 63.30774 54.84066
# Shear Modulus (GPa) = 24.01293 29.02933 26.52113
#
# Velocity S-wave (km/s) = 3.54469 3.89739 3.72521
# Velocity P-wave (km/s) = 6.40454 7.30607 6.87011
#
# Compressibility (1/GPa) = 0.02156400
#
# Stress axis : x y z
#
# Youngs Moduli (GPa) = 50.01189 116.04315 79.83147
#
# Poissons Ratio (x) = 0.31042 0.18298
# Poissons Ratio (y) = 0.13379 0.38482
# Poissons Ratio (z) = 0.11463 0.55938
#
# Static dielectric constant tensor:
#      x y z
#    x 3.200670 0.000000 0.000000 
#    y 0.000000 4.382800 0.000000 
#    z 0.000000 0.000000 3.664550 
# 
# 
# High freq. dielectric constant tensor:
#      x y z
#    x 1.712430 0.000000 0.000000 
#    y 0.000000 1.750040 0.000000 
#    z 0.000000 0.000000 1.751660 
# 
# From -- ./inp_files/44434.got.cif
#   From: 2010.03.12/outbox.cif.g09.slc.cpg/sg68_23_cif.got.tgz:44434.got - 2010.04.10 23:14:56.
