data_PCOD8281153
_publ_section_title
;
Structure prediction by ZEFSAII (Michael W. Deem and Ramdas Pophale) SiO2 
 PCOD8281153
Probable space group: C M M A
;
_chemical_formula_sum "Si O2"
_cell_formula_units_Z 64
_cell_length_a 15.035164
_cell_length_b 8.608745
_cell_length_c 24.620550
_cell_angle_alpha 90.000000
_cell_angle_beta 90.000000
_cell_angle_gamma 90.000000
_cell_volume 3186.733632
_symmetry_space_group_name_H-M "C M M A"
_symmetry_group_IT_number 67
_symmetry_cell_setting 'orthorhombic'
loop_
_space_group_symop_operation_xyz
x,y,z
-x,1/2-y,z
x,-y,-z
-x,1/2+y,-z
-x,-y,-z
x,1/2+y,-z
-x,y,z
x,1/2-y,z
1/2+x,1/2+y,z
1/2-x,-y,z
1/2+x,1/2-y,-z
1/2-x,y,-z
1/2-x,1/2-y,-z
1/2+x,y,-z
1/2-x,1/2+y,z
1/2+x,-y,z
loop_
_atom_site_type_symbol
_atom_site_label
_atom_site_fract_x
_atom_site_fract_y
_atom_site_fract_z
Si Si1 0.000000 0.565095 0.559904
Si Si2 0.847137 0.432104 0.243938
Si Si3 0.846908 0.431721 0.363037
Si Si4 0.349630 0.933710 0.865376
Si Si5 0.000000 0.065566 0.059967
O O1 0.000000 0.500000 0.500000
O O2 0.913385 0.501202 0.591574
O O3 0.000000 0.750000 0.558937
O O4 0.845661 0.250000 0.230644
O O5 0.750000 0.500000 0.248680
O O6 0.889827 0.466676 0.303135
O O7 0.893401 0.518572 0.193081
O O8 0.835856 0.250000 0.369794
O O9 0.750000 0.500000 0.372415
O O10 0.347623 0.750000 0.871319
O O11 0.250000 0.000000 0.870979
O O12 0.410696 0.004925 0.911792
O O13 0.000000 0.250000 0.059710
O O14 0.000000 0.000000 0.000000
#
# Coordination Sequence:
#
# PCOD8281153 Si02
#       5
#     8  16  16  16   8
#     4  10  22  39  54  75 105 142 186 232 277 332
#     4   9  16  30  54  84 114 147 183 227 280 339
#     4   9  19  35  56  80 110 144 182 226 279 334
#     4  11  22  39  62  91 123 157 193 236 287 344
#     4  12  26  45  64  87 117 154 200 248 291 340
#
# _framework density 20.083258000000001
#
# number of rings (size 3 to 8) (size 9 to 14) (size 15 to 20)
#    0.000    2.000    0.000    5.625    0.000    4.000 
#    0.000    7.500    0.000    0.000    0.000    0.000 
#    0.000    0.000    0.000    0.000    0.000    0.000 
#
# Total GULP energy -396572.326813 kJ/mol
# GULP energy per Si atom -12392.885213 kJ/mol
# Density = 2.003755 g / cm^3
# Si number density = 20.083258 Si / 1000 Ang^3
#
#
#
# Elastic Constant Matrix: (Units=GPa)
#
#
# Indices 1 2 3 4 5 6 
#
# 1 113.7760 46.1051 86.3753 0.0000 0.0000 0.0000
# 2 46.1051 128.1654 68.0811 0.0000 0.0000 0.0000
# 3 86.3753 68.0811 200.7172 0.0000 0.0000 0.0000
# 4 0.0000 0.0000 0.0000 37.6360 0.0000 0.0000
# 5 0.0000 0.0000 0.0000 0.0000 60.9938 0.0000
# 6 0.0000 0.0000 0.0000 0.0000 0.0000 27.2707
#
#
#
# Elastic Compliance Matrix: (Units=1/GPa)
#
#
# Indices 1 2 3 4 5 6 
#
# 1 0.013529 -0.002164 -0.005088 0.000000 0.000000 0.000000
# 2 -0.002164 0.009863 -0.002414 0.000000 0.000000 0.000000
# 3 -0.005088 -0.002414 0.007990 0.000000 0.000000 0.000000
# 4 0.000000 0.000000 0.000000 0.026570 0.000000 0.000000
# 5 0.000000 0.000000 0.000000 0.000000 0.016395 0.000000
# 6 0.000000 0.000000 0.000000 0.000000 0.000000 0.036669
#
#
# Mechanical properties :
#
#
# Convention : Reuss Voigt Hill
#
# Bulk Modulus (GPa) = 82.98611 93.75351 88.36981
# Shear Modulus (GPa) = 37.21170 41.31989 39.26579
#
# Velocity S-wave (km/s) = 4.30917 4.54081 4.42651
# Velocity P-wave (km/s) = 8.13445 8.61834 8.37989
#
# Compressibility (1/GPa) = 0.01205021
#
# Stress axis : x y z
#
# Youngs Moduli (GPa) = 73.91733 101.38541 125.14888
#
# Poissons Ratio (x) = 0.21940 0.63673
# Poissons Ratio (y) = 0.15996 0.30214
# Poissons Ratio (z) = 0.37608 0.24477
#
# Static dielectric constant tensor:
#      x y z
#    x 3.343140 0.000000 0.000000 
#    y 0.000000 3.690570 0.000000 
#    z 0.000000 0.000000 4.313390 
# 
# 
# High freq. dielectric constant tensor:
#      x y z
#    x 1.772730 0.000000 0.000000 
#    y 0.000000 1.787990 0.000000 
#    z 0.000000 0.000000 1.797650 
# 
# From -- ./inp_files/41716.got.cif
#   From: 2010.03.12/outbox.cif.g09.slc.cpg/sg67_21_cif.got.tgz:41716.got - 2010.04.10 22:41:39.
