data_PCOD8281687
_publ_section_title
;
Structure prediction by ZEFSAII (Michael W. Deem and Ramdas Pophale) SiO2 
 PCOD8281687
Probable space group: C C C A
;
_chemical_formula_sum "Si O2"
_cell_formula_units_Z 96
_cell_length_a 21.842014
_cell_length_b 18.413464
_cell_length_c 13.353165
_cell_angle_alpha 90.000000
_cell_angle_beta 90.000000
_cell_angle_gamma 90.000000
_cell_volume 5370.471221
_symmetry_space_group_name_H-M "C C C A"
_symmetry_group_IT_number 68
_space_group.IT_coordinate_system_code '2'
_symmetry_cell_setting 'orthorhombic'
loop_
_space_group_symop_operation_xyz
x,y,z
-x,1/2-y,z
x,1/2-y,1/2-z
-x,y,1/2-z
-x,-y,-z
x,1/2+y,-z
-x,1/2+y,1/2+z
x,-y,1/2+z
1/2+x,1/2+y,z
1/2-x,-y,z
1/2+x,-y,1/2-z
1/2-x,1/2+y,1/2-z
1/2-x,1/2-y,-z
1/2+x,y,-z
1/2-x,y,1/2+z
1/2+x,1/2-y,1/2+z
loop_
_atom_site_type_symbol
_atom_site_label
_atom_site_fract_x
_atom_site_fract_y
_atom_site_fract_z
Si Si1 0.326036 0.389698 0.900577
Si Si2 0.545009 0.098623 0.994748
Si Si3 0.835574 0.914516 0.674358
Si Si4 0.039192 0.014094 0.346293
Si Si5 0.000000 0.250000 0.044405
Si Si6 0.868382 0.237464 0.133569
Si Si7 0.750000 0.500000 0.468117
O O1 0.394519 0.413944 0.928147
O O2 0.307211 0.406078 0.785527
O O3 0.329350 0.301976 0.920594
O O4 0.276179 0.432917 0.966543
O O5 0.491555 0.063121 0.930605
O O6 0.522842 0.180761 0.020087
O O7 0.556086 0.062404 0.102419
O O8 0.903255 0.942591 0.694436
O O9 0.835385 0.839080 0.611873
O O10 0.802301 0.972180 0.605053
O O11 0.000000 0.995308 0.250000
O O12 0.940398 0.230914 0.109597
O O13 0.865676 0.250000 0.250000
#
# Coordination Sequence:
#
# PCOD8281687 Si02
#       7
#    16  16  16  16   8  16   8
#     4  10  21  37  55  83 109 145 187 230 268 333
#     4  10  20  33  55  86 113 139 179 220 288 329
#     4  11  21  37  56  83 110 151 182 231 278 320
#     4  11  20  34  56  84 114 142 175 232 284 335
#     4  10  17  30  55  84 112 140 172 232 282 338
#     4   9  19  32  55  81 112 138 182 227 286 320
#     4  12  24  38  56  76 116 150 196 220 266 324
#
# _framework density 17.875527000000002
#
# number of rings (size 3 to 8) (size 9 to 14) (size 15 to 20)
#    0.000    1.667    5.000    0.750    0.000    0.667 
#    0.000    0.417    0.000    0.000    0.000    0.000 
#    0.000    0.000    0.000    0.000    0.000    0.000 
#
# Total GULP energy -594700.556481 kJ/mol
# GULP energy per Si atom -12389.594927 kJ/mol
# Density = 1.783484 g / cm^3
# Si number density = 17.875527 Si / 1000 Ang^3
#
#
#
# Elastic Constant Matrix: (Units=GPa)
#
#
# Indices 1 2 3 4 5 6 
#
# 1 53.3808 25.6860 20.7181 0.0000 0.0000 0.0000
# 2 25.6860 106.8578 42.8930 0.0000 0.0000 0.0000
# 3 20.7181 42.8930 73.4075 0.0000 0.0000 0.0000
# 4 0.0000 0.0000 0.0000 27.0675 0.0000 0.0000
# 5 0.0000 0.0000 0.0000 0.0000 116.3009 0.0000
# 6 0.0000 0.0000 0.0000 0.0000 0.0000 28.3045
#
#
#
# Elastic Compliance Matrix: (Units=1/GPa)
#
#
# Indices 1 2 3 4 5 6 
#
# 1 0.022085 -0.003667 -0.004091 0.000000 0.000000 0.000000
# 2 -0.003667 0.012835 -0.006464 0.000000 0.000000 0.000000
# 3 -0.004091 -0.006464 0.018554 0.000000 0.000000 0.000000
# 4 0.000000 0.000000 0.000000 0.036945 0.000000 0.000000
# 5 0.000000 0.000000 0.000000 0.000000 0.008598 0.000000
# 6 0.000000 0.000000 0.000000 0.000000 0.000000 0.035330
#
#
# Mechanical properties :
#
#
# Convention : Reuss Voigt Hill
#
# Bulk Modulus (GPa) = 39.95144 45.80447 42.87795
# Shear Modulus (GPa) = 29.21675 43.95787 36.58731
#
# Velocity S-wave (km/s) = 4.04723 4.96432 4.52905
# Velocity P-wave (km/s) = 6.65119 7.65108 7.16859
#
# Compressibility (1/GPa) = 0.02503039
#
# Stress axis : x y z
#
# Youngs Moduli (GPa) = 45.27883 77.91499 53.89554
#
# Poissons Ratio (x) = 0.28570 0.22047
# Poissons Ratio (y) = 0.16603 0.34841
# Poissons Ratio (z) = 0.18522 0.50368
#
# Static dielectric constant tensor:
#      x y z
#    x 3.160680 0.000000 0.000000 
#    y 0.000000 3.943400 0.000000 
#    z 0.000000 0.000000 3.122080 
# 
# 
# High freq. dielectric constant tensor:
#      x y z
#    x 1.680560 0.000000 0.000000 
#    y 0.000000 1.705610 0.000000 
#    z 0.000000 0.000000 1.671930 
# 
# From -- ./inp_files/15616.got.cif
#   From: 2010.03.12/outbox.cif.g09.slc.cpg/sg68_8_cif.got.tgz:15616.got - 2010.04.10 23:14:56.
