data_PCOD8281813
_publ_section_title
;
Structure prediction by ZEFSAII (Michael W. Deem and Ramdas Pophale) SiO2 
 PCOD8281813
Probable space group: C C C A
;
_chemical_formula_sum "Si O2"
_cell_formula_units_Z 96
_cell_length_a 15.091038
_cell_length_b 17.516335
_cell_length_c 19.360559
_cell_angle_alpha 90.000000
_cell_angle_beta 90.000000
_cell_angle_gamma 90.000000
_cell_volume 5117.763915
_symmetry_space_group_name_H-M "C C C A"
_symmetry_group_IT_number 68
_space_group.IT_coordinate_system_code '2'
_symmetry_cell_setting 'orthorhombic'
loop_
_space_group_symop_operation_xyz
x,y,z
-x,1/2-y,z
x,1/2-y,1/2-z
-x,y,1/2-z
-x,-y,-z
x,1/2+y,-z
-x,1/2+y,1/2+z
x,-y,1/2+z
1/2+x,1/2+y,z
1/2-x,-y,z
1/2+x,-y,1/2-z
1/2-x,1/2+y,1/2-z
1/2-x,1/2-y,-z
1/2+x,y,-z
1/2-x,y,1/2+z
1/2+x,1/2-y,1/2+z
loop_
_atom_site_type_symbol
_atom_site_label
_atom_site_fract_x
_atom_site_fract_y
_atom_site_fract_z
Si Si1 0.653780 0.043450 0.340433
Si Si2 0.851466 0.684070 0.622297
Si Si3 0.993308 0.583547 0.671056
Si Si4 0.331587 0.140219 0.880674
Si Si5 0.277965 0.835377 0.748468
Si Si6 0.728231 0.087755 0.471678
O O1 0.648385 0.104138 0.277579
O O2 0.650029 0.088574 0.413738
O O3 0.750000 0.000000 0.337270
O O4 0.566347 0.992237 0.336120
O O5 0.949746 0.651566 0.628077
O O6 0.864459 0.773411 0.613092
O O7 0.802613 0.663832 0.694094
O O8 0.806925 0.641201 0.557363
O O9 0.000000 0.607641 0.750000
O O10 0.092482 0.578721 0.639971
O O11 0.254026 0.136487 0.823536
O O12 0.297252 0.121466 0.955688
O O13 0.319195 0.750000 0.750000
O O14 0.750000 0.000000 0.484903
#
# Coordination Sequence:
#
# PCOD8281813 Si02
#       6
#    16  16  16  16  16  16
#     4  10  18  37  57  75 116 160 189 224 304 361
#     4  10  19  38  55  80 120 154 179 239 308 350
#     4  12  21  34  59  89 113 145 188 249 303 342
#     4  11  22  31  57  92 113 141 201 246 286 342
#     4   9  18  34  58  84 113 151 196 241 281 348
#     4  10  20  38  56  76 113 161 193 224 281 361
#
# _framework density 18.758192000000001
#
# number of rings (size 3 to 8) (size 9 to 14) (size 15 to 20)
#    0.000    1.667    6.667    1.000    0.000    3.333 
#    0.000    0.000    0.000    0.500    0.000    0.000 
#    0.000    0.000    0.000    0.000    0.000    0.000 
#
# Total GULP energy -594740.732519 kJ/mol
# GULP energy per Si atom -12390.431927 kJ/mol
# Density = 1.871550 g / cm^3
# Si number density = 18.758192 Si / 1000 Ang^3
#
#
#
# Elastic Constant Matrix: (Units=GPa)
#
#
# Indices 1 2 3 4 5 6 
#
# 1 56.6914 35.8536 50.0958 0.0000 0.0000 0.0000
# 2 35.8536 99.3080 55.5833 0.0000 0.0000 0.0000
# 3 50.0958 55.5833 157.5466 0.0000 0.0000 0.0000
# 4 0.0000 0.0000 0.0000 25.1274 0.0000 0.0000
# 5 0.0000 0.0000 0.0000 0.0000 21.8131 0.0000
# 6 0.0000 0.0000 0.0000 0.0000 0.0000 19.0963
#
#
#
# Elastic Compliance Matrix: (Units=1/GPa)
#
#
# Indices 1 2 3 4 5 6 
#
# 1 0.027311 -0.006230 -0.006486 0.000000 0.000000 0.000000
# 2 -0.006230 0.013968 -0.002947 0.000000 0.000000 0.000000
# 3 -0.006486 -0.002947 0.009450 0.000000 0.000000 0.000000
# 4 0.000000 0.000000 0.000000 0.039797 0.000000 0.000000
# 5 0.000000 0.000000 0.000000 0.000000 0.045844 0.000000
# 6 0.000000 0.000000 0.000000 0.000000 0.000000 0.052366
#
#
# Mechanical properties :
#
#
# Convention : Reuss Voigt Hill
#
# Bulk Modulus (GPa) = 51.54002 66.29015 58.91509
# Shear Modulus (GPa) = 22.07208 24.67490 23.37349
#
# Velocity S-wave (km/s) = 3.43397 3.63081 3.53376
# Velocity P-wave (km/s) = 6.57712 7.27963 6.93728
#
# Compressibility (1/GPa) = 0.01940240
#
# Stress axis : x y z
#
# Youngs Moduli (GPa) = 36.61536 71.59001 105.82458
#
# Poissons Ratio (x) = 0.44599 0.68641
# Poissons Ratio (y) = 0.22811 0.31189
# Poissons Ratio (z) = 0.23750 0.21099
#
# Static dielectric constant tensor:
#      x y z
#    x 3.245860 0.000000 0.000000 
#    y 0.000000 4.127060 0.000000 
#    z 0.000000 0.000000 3.635200 
# 
# 
# High freq. dielectric constant tensor:
#      x y z
#    x 1.686060 0.000000 0.000000 
#    y 0.000000 1.738650 0.000000 
#    z 0.000000 0.000000 1.735340 
# 
# From -- ./inp_files/32027.got.cif
#   From: 2010.03.12/outbox.cif.g09.slc.cpg/sg68_17_cif.got.tgz:32027.got - 2010.04.10 23:14:56.
