data_PCOD8281718
_publ_section_title
;
Structure prediction by ZEFSAII (Michael W. Deem and Ramdas Pophale) SiO2 
 PCOD8281718
Probable space group: C C C A
;
_chemical_formula_sum "Si O2"
_cell_formula_units_Z 56
_cell_length_a 9.747696
_cell_length_b 16.808382
_cell_length_c 16.782235
_cell_angle_alpha 90.000000
_cell_angle_beta 90.000000
_cell_angle_gamma 90.000000
_cell_volume 2749.651695
_symmetry_space_group_name_H-M "C C C A"
_symmetry_group_IT_number 68
_space_group.IT_coordinate_system_code '2'
_symmetry_cell_setting 'orthorhombic'
loop_
_space_group_symop_operation_xyz
x,y,z
-x,1/2-y,z
x,1/2-y,1/2-z
-x,y,1/2-z
-x,-y,-z
x,1/2+y,-z
-x,1/2+y,1/2+z
x,-y,1/2+z
1/2+x,1/2+y,z
1/2-x,-y,z
1/2+x,-y,1/2-z
1/2-x,1/2+y,1/2-z
1/2-x,1/2-y,-z
1/2+x,y,-z
1/2-x,y,1/2+z
1/2+x,1/2-y,1/2+z
loop_
_atom_site_type_symbol
_atom_site_label
_atom_site_fract_x
_atom_site_fract_y
_atom_site_fract_z
Si Si1 0.000000 0.250000 0.097968
Si Si2 0.684766 0.579732 0.574644
Si Si3 0.285585 0.244174 0.159865
Si Si4 0.904571 0.364709 0.964018
O O1 0.128516 0.273607 0.153308
O O2 0.036678 0.176001 0.042808
O O3 0.750000 0.500000 0.613573
O O4 0.706555 0.652913 0.633738
O O5 0.762410 0.593294 0.489480
O O6 0.520241 0.571118 0.562260
O O7 0.338185 0.250000 0.250000
O O8 0.381166 0.299430 0.104770
#
# Coordination Sequence:
#
# PCOD8281718 Si02
#       4
#     8  16  16  16
#     4  10  17  38  63  90 110 160 218 246 287 364
#     4  11  22  37  61  90 123 157 205 259 303 360
#     4  11  22  37  65  89 124 160 209 253 311 378
#     4  11  19  39  63  87 117 160 210 246 296 371
#
# _framework density 20.366216000000001
#
# number of rings (size 3 to 8) (size 9 to 14) (size 15 to 20)
#    0.000    1.143    5.714    3.000    0.000    2.286 
#    0.000    1.429   12.571    0.000    0.000    0.000 
#    0.000    0.000    0.000    0.000    0.000    0.000 
#
# Total GULP energy -347088.941188 kJ/mol
# GULP energy per Si atom -12396.033614 kJ/mol
# Density = 2.031986 g / cm^3
# Si number density = 20.366216 Si / 1000 Ang^3
#
#
#
# Elastic Constant Matrix: (Units=GPa)
#
#
# Indices 1 2 3 4 5 6 
#
# 1 129.8746 43.2667 34.1556 0.0000 0.0000 0.0000
# 2 43.2667 113.5306 40.1500 0.0000 0.0000 0.0000
# 3 34.1556 40.1500 107.5659 0.0000 0.0000 0.0000
# 4 0.0000 0.0000 0.0000 12.0141 0.0000 0.0000
# 5 0.0000 0.0000 0.0000 0.0000 12.4818 0.0000
# 6 0.0000 0.0000 0.0000 0.0000 0.0000 32.0560
#
#
#
# Elastic Compliance Matrix: (Units=1/GPa)
#
#
# Indices 1 2 3 4 5 6 
#
# 1 0.009126 -0.002826 -0.001843 0.000000 0.000000 0.000000
# 2 -0.002826 0.011023 -0.003217 0.000000 0.000000 0.000000
# 3 -0.001843 -0.003217 0.011083 0.000000 0.000000 0.000000
# 4 0.000000 0.000000 0.000000 0.083235 0.000000 0.000000
# 5 0.000000 0.000000 0.000000 0.000000 0.080117 0.000000
# 6 0.000000 0.000000 0.000000 0.000000 0.000000 0.031195
#
#
# Mechanical properties :
#
#
# Convention : Reuss Voigt Hill
#
# Bulk Modulus (GPa) = 64.68592 65.12396 64.90494
# Shear Modulus (GPa) = 20.26719 26.87030 23.56875
#
# Velocity S-wave (km/s) = 3.15800 3.63624 3.40552
# Velocity P-wave (km/s) = 6.71771 7.04808 6.88488
#
# Compressibility (1/GPa) = 0.01545932
#
# Stress axis : x y z
#
# Youngs Moduli (GPa) = 109.57819 90.71986 90.23170
#
# Poissons Ratio (x) = 0.25639 0.16629
# Poissons Ratio (y) = 0.30969 0.29028
# Poissons Ratio (z) = 0.20194 0.29185
#
# Static dielectric constant tensor:
#      x y z
#    x 4.364450 0.000000 0.000000 
#    y 0.000000 3.533640 0.000000 
#    z 0.000000 0.000000 3.357970 
# 
# 
# High freq. dielectric constant tensor:
#      x y z
#    x 1.827090 0.000000 0.000000 
#    y 0.000000 1.775180 0.000000 
#    z 0.000000 0.000000 1.758300 
# 
# From -- ./inp_files/20325.got.cif
#   From: 2010.03.12/outbox.cif.g09.slc.cpg/sg68_11_cif.got.tgz:20325.got - 2010.04.10 23:14:56.
