data_PCOD8281532
_publ_section_title
;
Structure prediction by ZEFSAII (Michael W. Deem and Ramdas Pophale) SiO2 
 PCOD8281532
Probable space group: C M M A
;
_chemical_formula_sum "Si O2"
_cell_formula_units_Z 88
_cell_length_a 24.615889
_cell_length_b 14.377011
_cell_length_c 12.262148
_cell_angle_alpha 90.000000
_cell_angle_beta 90.000000
_cell_angle_gamma 90.000000
_cell_volume 4339.609822
_symmetry_space_group_name_H-M "C M M A"
_symmetry_group_IT_number 67
_symmetry_cell_setting 'orthorhombic'
loop_
_space_group_symop_operation_xyz
x,y,z
-x,1/2-y,z
x,-y,-z
-x,1/2+y,-z
-x,-y,-z
x,1/2+y,-z
-x,y,z
x,1/2-y,z
1/2+x,1/2+y,z
1/2-x,-y,z
1/2+x,1/2-y,-z
1/2-x,y,-z
1/2-x,1/2-y,-z
1/2+x,y,-z
1/2-x,1/2+y,z
1/2+x,-y,z
loop_
_atom_site_type_symbol
_atom_site_label
_atom_site_fract_x
_atom_site_fract_y
_atom_site_fract_z
Si Si1 0.563577 0.856413 0.852956
Si Si2 0.440986 0.358900 0.390816
Si Si3 0.293880 0.647227 0.090653
Si Si4 0.871460 0.000000 0.000000
Si Si5 0.169612 0.894304 0.490066
Si Si6 0.255759 0.609372 0.323788
O O1 0.500000 0.859873 0.878574
O O2 0.584756 0.750000 0.869235
O O3 0.575112 0.893501 0.730074
O O4 0.593121 0.927550 0.932288
O O5 0.500000 0.400976 0.426496
O O6 0.447621 0.250000 0.382978
O O7 0.395227 0.383642 0.479798
O O8 0.319987 0.750000 0.070196
O O9 0.262579 0.652694 0.205377
O O10 0.250000 0.623904 0.000000
O O11 0.337291 0.563433 0.084920
O O12 0.201044 0.852201 0.384513
O O13 0.192600 0.853849 0.603885
O O14 0.187148 0.000000 0.500000
O O15 0.250000 0.500000 0.308537
#
# Coordination Sequence:
#
# PCOD8281532 Si02
#       6
#    16  16  16   8  16  16
#     4   9  20  38  60  88 117 149 198 249 292 351
#     4   9  19  35  55  82 113 146 191 244 293 346
#     4  11  25  39  55  85 120 157 199 239 288 354
#     4  12  22  36  62  84 114 160 194 242 302 344
#     4   9  19  33  59  84 111 149 188 237 291 346
#     4   9  19  37  55  83 117 149 191 240 290 350
#
# _framework density 20.278320999999998
#
# number of rings (size 3 to 8) (size 9 to 14) (size 15 to 20)
#    0.000    2.364    0.000    4.364    7.636    1.818 
#    0.000    1.818    0.000    0.000    0.000    2.545 
#    0.000    0.000    0.000    0.000    0.000    0.000 
#
# Total GULP energy -545117.735249 kJ/mol
# GULP energy per Si atom -12389.039437 kJ/mol
# Density = 2.023217 g / cm^3
# Si number density = 20.278321 Si / 1000 Ang^3
#
#
#
# Elastic Constant Matrix: (Units=GPa)
#
#
# Indices 1 2 3 4 5 6 
#
# 1 123.0862 28.3128 64.2705 0.0000 0.0000 0.0000
# 2 28.3128 84.3832 18.9779 0.0000 0.0000 0.0000
# 3 64.2705 18.9779 126.2014 0.0000 0.0000 0.0000
# 4 0.0000 0.0000 0.0000 -93.0713 0.0000 0.0000
# 5 0.0000 0.0000 0.0000 0.0000 68.3514 0.0000
# 6 0.0000 0.0000 0.0000 0.0000 0.0000 35.9188
#
#
#
# Elastic Compliance Matrix: (Units=1/GPa)
#
#
# Indices 1 2 3 4 5 6 
#
# 1 0.011616 -0.002657 -0.005516 0.000000 0.000000 0.000000
# 2 -0.002657 0.012873 -0.000583 0.000000 0.000000 0.000000
# 3 -0.005516 -0.000583 0.010821 0.000000 0.000000 0.000000
# 4 0.000000 0.000000 0.000000 -0.010744 0.000000 0.000000
# 5 0.000000 0.000000 0.000000 0.000000 0.014630 0.000000
# 6 0.000000 0.000000 0.000000 0.000000 0.000000 0.027841
#
#
# Mechanical properties :
#
#
# Convention : Reuss Voigt Hill
#
# Bulk Modulus (GPa) = 56.18521 61.86591 59.02556
# Shear Modulus (GPa) = 55.26078 17.04709 36.15394
#
# Velocity S-wave (km/s) = 5.22593 2.90255 4.22700
# Velocity P-wave (km/s) = 8.01130 6.46589 7.27972
#
# Compressibility (1/GPa) = 0.01779828
#
# Stress axis : x y z
#
# Youngs Moduli (GPa) = 86.08989 77.68076 92.41607
#
# Poissons Ratio (x) = 0.20638 0.50977
# Poissons Ratio (y) = 0.22873 0.05386
# Poissons Ratio (z) = 0.47487 0.04527
#
# Static dielectric constant tensor:
#      x y z
#    x 3.201530 0.000000 0.000000 
#    y 0.000000 3.606100 0.000000 
#    z 0.000000 0.000000 3.797930 
# 
# 
# High freq. dielectric constant tensor:
#      x y z
#    x 1.784690 0.000000 0.000000 
#    y 0.000000 1.791460 0.000000 
#    z 0.000000 0.000000 1.785380 
# 
# From -- ./inp_files/21752.got.cif
#   From: 2010.03.12/outbox.cif.g09.slc.cpg/sg67_11_cif.got.tgz:21752.got - 2010.04.10 22:41:39.
