data_PCOD8281827
_publ_section_title
;
Structure prediction by ZEFSAII (Michael W. Deem and Ramdas Pophale) SiO2 
 PCOD8281827
Probable space group: C C C A
;
_chemical_formula_sum "Si O2"
_cell_formula_units_Z 120
_cell_length_a 17.514906
_cell_length_b 17.752641
_cell_length_c 19.783054
_cell_angle_alpha 90.000000
_cell_angle_beta 90.000000
_cell_angle_gamma 90.000000
_cell_volume 6151.260481
_symmetry_space_group_name_H-M "C C C A"
_symmetry_group_IT_number 68
_space_group.IT_coordinate_system_code '2'
_symmetry_cell_setting 'orthorhombic'
loop_
_space_group_symop_operation_xyz
x,y,z
-x,1/2-y,z
x,1/2-y,1/2-z
-x,y,1/2-z
-x,-y,-z
x,1/2+y,-z
-x,1/2+y,1/2+z
x,-y,1/2+z
1/2+x,1/2+y,z
1/2-x,-y,z
1/2+x,-y,1/2-z
1/2-x,1/2+y,1/2-z
1/2-x,1/2-y,-z
1/2+x,y,-z
1/2-x,y,1/2+z
1/2+x,1/2-y,1/2+z
loop_
_atom_site_type_symbol
_atom_site_label
_atom_site_fract_x
_atom_site_fract_y
_atom_site_fract_z
Si Si1 0.075934 0.161901 0.470160
Si Si2 0.908917 0.901324 0.980998
Si Si3 0.188782 0.060942 0.290192
Si Si4 0.252441 0.773294 0.320142
Si Si5 0.324530 0.268496 0.043195
Si Si6 0.879196 0.856363 0.830706
Si Si7 0.663515 0.523821 0.434757
Si Si8 0.500000 0.750000 0.142229
O O1 0.104033 0.212893 0.531832
O O2 0.148447 0.109736 0.454644
O O3 0.066443 0.216107 0.405388
O O4 0.997359 0.120604 0.488318
O O5 0.883329 0.899796 0.902410
O O6 0.851835 0.850982 0.024208
O O7 0.897422 0.981048 0.017750
O O8 0.221822 0.139594 0.318501
O O9 0.134065 0.080920 0.227104
O O10 0.146956 0.018793 0.353592
O O11 0.250000 0.000000 0.262623
O O12 0.211938 0.750000 0.250000
O O13 0.190432 0.764459 0.377725
O O14 0.319043 0.711713 0.331026
O O15 0.250000 0.250000 0.000000
O O16 0.960603 0.815938 0.813993
O O17 0.750000 0.500000 0.451578
#
# Coordination Sequence:
#
# PCOD8281827 Si02
#       8
#    16  16  16  16  16  16  16   8
#     4  11  21  38  60  90 127 151 199 262 318 360
#     4  11  22  38  59  94 125 159 201 261 317 372
#     4  10  21  39  56  85 129 165 198 254 313 373
#     4  10  21  37  59  90 122 158 210 262 305 360
#     4  12  18  34  65  90 115 156 206 250 301 370
#     4  10  20  37  62  92 125 160 204 261 319 370
#     4  11  23  38  60  87 118 168 205 244 306 376
#     4  10  18  38  61  96 123 152 202 260 320 378
#
# _framework density 19.508196000000002
#
# number of rings (size 3 to 8) (size 9 to 14) (size 15 to 20)
#    0.000    1.333    4.000    4.400    0.000    0.533 
#    2.400   14.333    0.000    1.600    0.000    0.000 
#    0.000    0.000    0.000    0.000    0.000    0.000 
#
# Total GULP energy -743476.296671 kJ/mol
# GULP energy per Si atom -12391.271611 kJ/mol
# Density = 1.946379 g / cm^3
# Si number density = 19.508196 Si / 1000 Ang^3
#
#
#
# Elastic Constant Matrix: (Units=GPa)
#
#
# Indices 1 2 3 4 5 6 
#
# 1 70.2142 28.3046 43.3313 0.0000 0.0000 0.0000
# 2 28.3046 83.7958 44.8534 0.0000 0.0000 0.0000
# 3 43.3313 44.8534 122.7299 0.0000 0.0000 0.0000
# 4 0.0000 0.0000 0.0000 55.2689 0.0000 0.0000
# 5 0.0000 0.0000 0.0000 0.0000 32.3513 0.0000
# 6 0.0000 0.0000 0.0000 0.0000 0.0000 34.2745
#
#
#
# Elastic Compliance Matrix: (Units=1/GPa)
#
#
# Indices 1 2 3 4 5 6 
#
# 1 0.019008 -0.003516 -0.005426 0.000000 0.000000 0.000000
# 2 -0.003516 0.015486 -0.004418 0.000000 0.000000 0.000000
# 3 -0.005426 -0.004418 0.011678 0.000000 0.000000 0.000000
# 4 0.000000 0.000000 0.000000 0.018093 0.000000 0.000000
# 5 0.000000 0.000000 0.000000 0.000000 0.030911 0.000000
# 6 0.000000 0.000000 0.000000 0.000000 0.000000 0.029176
#
#
# Mechanical properties :
#
#
# Convention : Reuss Voigt Hill
#
# Bulk Modulus (GPa) = 51.40867 56.63541 54.02204
# Shear Modulus (GPa) = 31.73428 35.06230 33.39829
#
# Velocity S-wave (km/s) = 4.03763 4.24407 4.14214
# Velocity P-wave (km/s) = 6.93874 7.28772 7.11537
#
# Compressibility (1/GPa) = 0.01945197
#
# Stress axis : x y z
#
# Youngs Moduli (GPa) = 52.60910 64.57253 85.62798
#
# Poissons Ratio (x) = 0.22705 0.46462
# Poissons Ratio (y) = 0.18498 0.37833
# Poissons Ratio (z) = 0.28546 0.28530
#
# Static dielectric constant tensor:
#      x y z
#    x 2.583010 0.000000 0.000000 
#    y 0.000000 3.915050 0.000000 
#    z 0.000000 0.000000 3.742710 
# 
# 
# High freq. dielectric constant tensor:
#      x y z
#    x 1.744480 0.000000 0.000000 
#    y 0.000000 1.766680 0.000000 
#    z 0.000000 0.000000 1.759490 
# 
# From -- ./inp_files/39788.got.cif
#   From: 2010.03.12/outbox.cif.g09.slc.cpg/sg68_20_cif.got.tgz:39788.got - 2010.04.10 23:14:56.
