data_PCOD8281523
_publ_section_title
;
Structure prediction by ZEFSAII (Michael W. Deem and Ramdas Pophale) SiO2 
 PCOD8281523
Probable space group: C M M A
;
_chemical_formula_sum "Si O2"
_cell_formula_units_Z 60
_cell_length_a 18.990939
_cell_length_b 8.960701
_cell_length_c 17.032781
_cell_angle_alpha 90.000000
_cell_angle_beta 90.000000
_cell_angle_gamma 90.000000
_cell_volume 2898.504556
_symmetry_space_group_name_H-M "C M M A"
_symmetry_group_IT_number 67
_symmetry_cell_setting 'orthorhombic'
loop_
_space_group_symop_operation_xyz
x,y,z
-x,1/2-y,z
x,-y,-z
-x,1/2+y,-z
-x,-y,-z
x,1/2+y,-z
-x,y,z
x,1/2-y,z
1/2+x,1/2+y,z
1/2-x,-y,z
1/2+x,1/2-y,-z
1/2-x,y,-z
1/2-x,1/2-y,-z
1/2+x,y,-z
1/2-x,1/2+y,z
1/2+x,-y,z
loop_
_atom_site_type_symbol
_atom_site_label
_atom_site_fract_x
_atom_site_fract_y
_atom_site_fract_z
Si Si1 0.920526 0.424263 0.423102
Si Si2 0.000000 0.428224 0.083644
Si Si3 0.358083 0.581203 0.869170
Si Si4 0.750000 0.000000 0.000000
Si Si5 0.682730 0.926559 0.287545
O O1 0.885890 0.500000 0.500000
O O2 0.915911 0.250000 0.437746
O O3 0.882711 0.468304 0.342463
O O4 0.000000 0.481642 0.412834
O O5 0.071769 0.481903 0.123458
O O6 0.000000 0.250000 0.080411
O O7 0.000000 0.500000 0.000000
O O8 0.381409 0.750000 0.851636
O O9 0.319800 0.508506 0.795719
O O10 0.304148 0.589244 0.943460
O O11 0.690734 0.750000 0.274964
O O12 0.750000 0.000000 0.330631
#
# Coordination Sequence:
#
# PCOD8281523 Si02
#       5
#    16   8  16   4  16
#     4   9  20  40  65  93 124 166 211 261 321 385
#     4  12  26  44  66  92 127 166 215 270 324 384
#     4  12  26  44  67  96 129 170 220 269 327 387
#     4  12  26  42  72  94 132 170 218 268 330 374
#     4  11  24  41  63  93 131 169 212 266 325 384
#
# _framework density 20.700330000000001
#
# number of rings (size 3 to 8) (size 9 to 14) (size 15 to 20)
#    0.000    1.067    2.667    3.200    1.867    4.800 
#    0.000    2.667    0.000    0.000    0.000    0.000 
#    0.000    0.000    0.000    0.000    0.000    0.000 
#
# Total GULP energy -371819.255309 kJ/mol
# GULP energy per Si atom -12393.975177 kJ/mol
# Density = 2.065322 g / cm^3
# Si number density = 20.700330 Si / 1000 Ang^3
#
#
#
# Elastic Constant Matrix: (Units=GPa)
#
#
# Indices 1 2 3 4 5 6 
#
# 1 119.3649 54.6286 46.5590 0.0000 0.0000 0.0000
# 2 54.6286 136.9005 51.9858 0.0000 0.0000 0.0000
# 3 46.5590 51.9858 125.4865 0.0000 0.0000 0.0000
# 4 0.0000 0.0000 0.0000 31.0820 0.0000 0.0000
# 5 0.0000 0.0000 0.0000 0.0000 7.2573 0.0000
# 6 0.0000 0.0000 0.0000 0.0000 0.0000 30.9568
#
#
#
# Elastic Compliance Matrix: (Units=1/GPa)
#
#
# Indices 1 2 3 4 5 6 
#
# 1 0.010957 -0.003357 -0.002675 0.000000 0.000000 0.000000
# 2 -0.003357 0.009696 -0.002772 0.000000 0.000000 0.000000
# 3 -0.002675 -0.002772 0.010110 0.000000 0.000000 0.000000
# 4 0.000000 0.000000 0.000000 0.032173 0.000000 0.000000
# 5 0.000000 0.000000 0.000000 0.000000 0.137792 0.000000
# 6 0.000000 0.000000 0.000000 0.000000 0.000000 0.032303
#
#
# Mechanical properties :
#
#
# Convention : Reuss Voigt Hill
#
# Bulk Modulus (GPa) = 76.00432 76.45542 76.22987
# Shear Modulus (GPa) = 19.60602 29.09777 24.35189
#
# Velocity S-wave (km/s) = 3.08090 3.75329 3.43359
# Velocity P-wave (km/s) = 7.03222 7.46977 7.25429
#
# Compressibility (1/GPa) = 0.01315715
#
# Stress axis : x y z
#
# Youngs Moduli (GPa) = 91.26411 103.13035 98.91548
#
# Poissons Ratio (x) = 0.34617 0.26459
# Poissons Ratio (y) = 0.30634 0.27415
# Poissons Ratio (z) = 0.24412 0.28584
#
# Static dielectric constant tensor:
#      x y z
#    x 4.840010 0.000000 0.000000 
#    y 0.000000 3.579130 0.000000 
#    z 0.000000 0.000000 3.765010 
# 
# 
# High freq. dielectric constant tensor:
#      x y z
#    x 1.825640 0.000000 0.000000 
#    y 0.000000 1.812430 0.000000 
#    z 0.000000 0.000000 1.810330 
# 
# From -- ./inp_files/33936.got.cif
#   From: 2010.03.12/outbox.cif.g09.slc.cpg/sg67_17_cif.got.tgz:33936.got - 2010.04.10 22:41:39.
