data_PCOD8281425
_publ_section_title
;
Structure prediction by ZEFSAII (Michael W. Deem and Ramdas Pophale) SiO2 
 PCOD8281425
Probable space group: C M M A
;
_chemical_formula_sum "Si O2"
_cell_formula_units_Z 64
_cell_length_a 16.681831
_cell_length_b 9.702361
_cell_length_c 18.953115
_cell_angle_alpha 90.000000
_cell_angle_beta 90.000000
_cell_angle_gamma 90.000000
_cell_volume 3067.621299
_symmetry_space_group_name_H-M "C M M A"
_symmetry_group_IT_number 67
_symmetry_cell_setting 'orthorhombic'
loop_
_space_group_symop_operation_xyz
x,y,z
-x,1/2-y,z
x,-y,-z
-x,1/2+y,-z
-x,-y,-z
x,1/2+y,-z
-x,y,z
x,1/2-y,z
1/2+x,1/2+y,z
1/2-x,-y,z
1/2+x,1/2-y,-z
1/2-x,y,-z
1/2-x,1/2-y,-z
1/2+x,y,-z
1/2-x,1/2+y,z
1/2+x,-y,z
loop_
_atom_site_type_symbol
_atom_site_label
_atom_site_fract_x
_atom_site_fract_y
_atom_site_fract_z
Si Si1 0.173589 0.750000 0.406910
Si Si2 0.360890 0.750000 0.434833
Si Si3 0.095151 0.402618 0.189616
Si Si4 0.095557 0.907121 0.064883
Si Si5 0.591336 0.496306 0.657185
O O1 0.267825 0.750000 0.416777
O O2 0.126797 0.750000 0.481177
O O3 0.150436 0.881685 0.361856
O O4 0.404494 0.617398 0.403612
O O5 0.127805 0.250000 0.169237
O O6 0.128163 0.518516 0.135822
O O7 0.122879 0.436722 0.268735
O O8 0.000000 0.400228 0.185518
O O9 0.129060 0.750000 0.060661
O O10 0.000000 0.902164 0.064289
O O11 0.127072 0.000000 0.000000
O O12 0.500000 0.549564 0.663472
#
# Coordination Sequence:
#
# PCOD8281425 Si02
#       5
#     8   8  16  16  16
#     4  11  25  39  59  83 114 147 190 242 291 345
#     4  11  23  43  59  79 112 155 190 232 293 353
#     4   9  17  30  47  70 105 144 182 228 281 333
#     4   9  16  25  41  67 103 146 185 221 271 335
#     4  11  22  37  59  86 114 148 191 240 291 342
#
# _framework density 20.863071000000001
#
# number of rings (size 3 to 8) (size 9 to 14) (size 15 to 20)
#    0.000    2.000    1.250    3.000    1.750    8.000 
#    0.000    0.000    0.000    0.000    0.000    0.000 
#    0.000    6.000    0.000    0.000    0.000    0.000 
#
# Total GULP energy -396813.543628 kJ/mol
# GULP energy per Si atom -12400.423238 kJ/mol
# Density = 2.081559 g / cm^3
# Si number density = 20.863071 Si / 1000 Ang^3
#
#
#
# Elastic Constant Matrix: (Units=GPa)
#
#
# Indices 1 2 3 4 5 6 
#
# 1 24.2611 8.2351 9.2051 0.0000 0.0000 0.0000
# 2 8.2351 180.0555 67.7449 0.0000 0.0000 0.0000
# 3 9.2051 67.7449 132.7438 0.0000 0.0000 0.0000
# 4 0.0000 0.0000 0.0000 42.8601 0.0000 0.0000
# 5 0.0000 0.0000 0.0000 0.0000 6.3840 0.0000
# 6 0.0000 0.0000 0.0000 0.0000 0.0000 28.4279
#
#
#
# Elastic Compliance Matrix: (Units=1/GPa)
#
#
# Indices 1 2 3 4 5 6 
#
# 1 0.042487 -0.001033 -0.002419 0.000000 0.000000 0.000000
# 2 -0.001033 0.006899 -0.003449 0.000000 0.000000 0.000000
# 3 -0.002419 -0.003449 0.009461 0.000000 0.000000 0.000000
# 4 0.000000 0.000000 0.000000 0.023332 0.000000 0.000000
# 5 0.000000 0.000000 0.000000 0.000000 0.156641 0.000000
# 6 0.000000 0.000000 0.000000 0.000000 0.000000 0.035177
#
#
# Mechanical properties :
#
#
# Convention : Reuss Voigt Hill
#
# Bulk Modulus (GPa) = 22.20032 56.38118 39.29075
# Shear Modulus (GPa) = 16.51181 32.32610 24.41895
#
# Velocity S-wave (km/s) = 2.81630 3.94056 3.42488
# Velocity P-wave (km/s) = 4.60863 6.91282 5.87480
#
# Compressibility (1/GPa) = 0.04504439
#
# Stress axis : x y z
#
# Youngs Moduli (GPa) = 23.53679 144.95264 105.69384
#
# Poissons Ratio (x) = 0.14974 0.25568
# Poissons Ratio (y) = 0.02431 0.36455
# Poissons Ratio (z) = 0.05694 0.49996
#
# Static dielectric constant tensor:
#      x y z
#    x 3.173360 0.000000 0.000000 
#    y 0.000000 3.849380 0.000000 
#    z 0.000000 0.000000 4.021950 
# 
# 
# High freq. dielectric constant tensor:
#      x y z
#    x 1.762450 0.000000 0.000000 
#    y 0.000000 1.831510 0.000000 
#    z 0.000000 0.000000 1.828260 
# 
# From -- ./inp_files/34654.got.cif
#   From: 2010.03.12/outbox.cif.g09.slc.cpg/sg67_18_cif.got.tgz:34654.got - 2010.04.10 22:41:39.
