data_PCOD8281373
_publ_section_title
;
Structure prediction by ZEFSAII (Michael W. Deem and Ramdas Pophale) SiO2 
 PCOD8281373
Probable space group: C M M A
;
_chemical_formula_sum "Si O2"
_cell_formula_units_Z 80
_cell_length_a 9.824943
_cell_length_b 16.850907
_cell_length_c 24.597258
_cell_angle_alpha 90.000000
_cell_angle_beta 90.000000
_cell_angle_gamma 90.000000
_cell_volume 4072.302376
_symmetry_space_group_name_H-M "C M M A"
_symmetry_group_IT_number 67
_symmetry_cell_setting 'orthorhombic'
loop_
_space_group_symop_operation_xyz
x,y,z
-x,1/2-y,z
x,-y,-z
-x,1/2+y,-z
-x,-y,-z
x,1/2+y,-z
-x,y,z
x,1/2-y,z
1/2+x,1/2+y,z
1/2-x,-y,z
1/2+x,1/2-y,-z
1/2-x,y,-z
1/2-x,1/2-y,-z
1/2+x,y,-z
1/2-x,1/2+y,z
1/2+x,-y,z
loop_
_atom_site_type_symbol
_atom_site_label
_atom_site_fract_x
_atom_site_fract_y
_atom_site_fract_z
Si Si1 0.349823 0.344095 0.265677
Si Si2 0.259781 0.841269 0.378018
Si Si3 0.656405 0.155462 0.950198
Si Si4 0.154761 0.344289 0.854149
Si Si5 0.000000 0.609071 0.442597
Si Si6 0.500000 0.421224 0.563891
O O1 0.500000 0.380118 0.274245
O O2 0.359680 0.250000 0.267432
O O3 0.257854 0.372496 0.315932
O O4 0.295519 0.371160 0.206246
O O5 0.307957 0.750000 0.378740
O O6 0.126309 0.849661 0.414105
O O7 0.368869 0.898824 0.402705
O O8 0.500000 0.122743 0.953427
O O9 0.650412 0.250000 0.949982
O O10 0.733553 0.122263 0.896479
O O11 0.750000 0.125255 0.000000
O O12 0.151534 0.250000 0.858484
O O13 0.000000 0.375142 0.866150
O O14 0.000000 0.626603 0.507009
O O15 0.000000 0.514976 0.439618
#
# Coordination Sequence:
#
# PCOD8281373 Si02
#       6
#    16  16  16  16   8   8
#     4   8  14  27  46  67  90 120 160 203 251 308
#     4  11  21  36  58  82 105 134 177 224 264 311
#     4   9  15  21  29  45  71 107 153 198 239 287
#     4   8  13  22  36  52  74 107 148 195 243 290
#     4  11  23  41  59  73 105 147 178 203 260 338
#     4  11  25  39  53  81 111 137 168 219 272 316
#
# _framework density 19.644905999999999
#
# number of rings (size 3 to 8) (size 9 to 14) (size 15 to 20)
#    0.000    2.600    1.000    3.600    0.000    6.400 
#    1.800    0.000    0.000    0.000    0.000    0.000 
#    0.000    0.000    0.000    0.000    0.000    6.000 
#
# Total GULP energy -495647.669029 kJ/mol
# GULP energy per Si atom -12391.191726 kJ/mol
# Density = 1.960019 g / cm^3
# Si number density = 19.644906 Si / 1000 Ang^3
#
#
#
# Elastic Constant Matrix: (Units=GPa)
#
#
# Indices 1 2 3 4 5 6 
#
# 1 130.7064 2.7097 77.0874 0.0000 0.0000 0.0000
# 2 2.7097 15.5290 9.7475 0.0000 0.0000 0.0000
# 3 77.0874 9.7475 183.6358 0.0000 0.0000 0.0000
# 4 0.0000 0.0000 0.0000 2.2733 0.0000 0.0000
# 5 0.0000 0.0000 0.0000 0.0000 27.9230 0.0000
# 6 0.0000 0.0000 0.0000 0.0000 0.0000 17.7090
#
#
#
# Elastic Compliance Matrix: (Units=1/GPa)
#
#
# Indices 1 2 3 4 5 6 
#
# 1 0.010181 0.000937 -0.004324 0.000000 0.000000 0.000000
# 2 0.000937 0.066702 -0.003934 0.000000 0.000000 0.000000
# 3 -0.004324 -0.003934 0.007469 0.000000 0.000000 0.000000
# 4 0.000000 0.000000 0.000000 0.439882 0.000000 0.000000
# 5 0.000000 0.000000 0.000000 0.000000 0.035813 0.000000
# 6 0.000000 0.000000 0.000000 0.000000 0.000000 0.056469
#
#
# Mechanical properties :
#
#
# Convention : Reuss Voigt Hill
#
# Bulk Modulus (GPa) = 14.34480 56.55114 35.44797
# Shear Modulus (GPa) = 7.64067 25.60284 16.62175
#
# Velocity S-wave (km/s) = 1.97429 3.61402 2.91195
# Velocity P-wave (km/s) = 3.53766 6.80176 5.42121
#
# Compressibility (1/GPa) = 0.06971166
#
# Stress axis : x y z
#
# Youngs Moduli (GPa) = 98.21909 14.99214 133.87938
#
# Poissons Ratio (x) = -0.01405 0.57886
# Poissons Ratio (y) = -0.09207 0.52669
# Poissons Ratio (z) = 0.42467 0.05898
#
# Static dielectric constant tensor:
#      x y z
#    x 3.545100 0.000000 0.000000 
#    y 0.000000 2.929640 0.000000 
#    z 0.000000 0.000000 4.180980 
# 
# 
# High freq. dielectric constant tensor:
#      x y z
#    x 1.761950 0.000000 0.000000 
#    y 0.000000 1.700580 0.000000 
#    z 0.000000 0.000000 1.787620 
# 
# From -- ./inp_files/43362.got.cif
#   From: 2010.03.12/outbox.cif.g09.slc.cpg/sg67_22_cif.got.tgz:43362.got - 2010.04.10 22:41:39.
