data_PCOD8281733
_publ_section_title
;
Structure prediction by ZEFSAII (Michael W. Deem and Ramdas Pophale) SiO2 
 PCOD8281733
Probable space group: C C C A
;
_chemical_formula_sum "Si O2"
_cell_formula_units_Z 72
_cell_length_a 14.761770
_cell_length_b 18.697283
_cell_length_c 16.374911
_cell_angle_alpha 90.000000
_cell_angle_beta 90.000000
_cell_angle_gamma 90.000000
_cell_volume 4519.557168
_symmetry_space_group_name_H-M "C C C A"
_symmetry_group_IT_number 68
_space_group.IT_coordinate_system_code '2'
_symmetry_cell_setting 'orthorhombic'
loop_
_space_group_symop_operation_xyz
x,y,z
-x,1/2-y,z
x,1/2-y,1/2-z
-x,y,1/2-z
-x,-y,-z
x,1/2+y,-z
-x,1/2+y,1/2+z
x,-y,1/2+z
1/2+x,1/2+y,z
1/2-x,-y,z
1/2+x,-y,1/2-z
1/2-x,1/2+y,1/2-z
1/2-x,1/2-y,-z
1/2+x,y,-z
1/2-x,y,1/2+z
1/2+x,1/2-y,1/2+z
loop_
_atom_site_type_symbol
_atom_site_label
_atom_site_fract_x
_atom_site_fract_y
_atom_site_fract_z
Si Si1 0.601074 0.835497 0.575244
Si Si2 0.602814 0.402827 0.251803
Si Si3 0.735125 0.922452 0.467572
Si Si4 0.106907 0.828654 0.083270
Si Si5 0.750000 0.500000 0.687948
O O1 0.626463 0.862948 0.664844
O O2 0.652686 0.880941 0.507505
O O3 0.495331 0.844523 0.555450
O O4 0.632283 0.753639 0.569548
O O5 0.500000 0.431774 0.250000
O O6 0.617735 0.346442 0.178929
O O7 0.668814 0.471028 0.243981
O O8 0.827618 0.876568 0.473028
O O9 0.711448 0.936967 0.371654
O O10 0.750000 0.000000 0.511398
#
# Coordination Sequence:
#
# PCOD8281733 Si02
#       5
#    16  16  16  16   8
#     4  10  18  29  53  71  89 120 161 188 224 278
#     4   9  17  31  48  69  91 119 152 194 229 265
#     4   9  19  32  45  67  98 125 147 184 233 274
#     4   9  18  33  47  71  96 119 148 197 235 260
#     4   8  18  32  42  64 102 120 144 188 238 266
#
# _framework density 15.930764999999999
#
# number of rings (size 3 to 8) (size 9 to 14) (size 15 to 20)
#    0.667    2.222    0.000    1.333    1.556    3.556 
#    0.000    0.000    0.000    0.000    0.000    0.000 
#    0.000    7.111    0.000    0.000    0.000    0.000 
#
# Total GULP energy -446197.918579 kJ/mol
# GULP energy per Si atom -12394.386627 kJ/mol
# Density = 1.589451 g / cm^3
# Si number density = 15.930765 Si / 1000 Ang^3
#
#
#
# Elastic Constant Matrix: (Units=GPa)
#
#
# Indices 1 2 3 4 5 6 
#
# 1 97.1467 80.5393 47.4255 0.0000 0.0000 0.0000
# 2 80.5393 129.1506 41.6658 0.0000 0.0000 0.0000
# 3 47.4255 41.6658 55.2421 0.0000 0.0000 0.0000
# 4 0.0000 0.0000 0.0000 10.4306 0.0000 0.0000
# 5 0.0000 0.0000 0.0000 0.0000 24.5681 0.0000
# 6 0.0000 0.0000 0.0000 0.0000 0.0000 33.4641
#
#
#
# Elastic Compliance Matrix: (Units=1/GPa)
#
#
# Indices 1 2 3 4 5 6 
#
# 1 0.027838 -0.012753 -0.014280 0.000000 0.000000 0.000000
# 2 -0.012753 0.016075 -0.001176 0.000000 0.000000 0.000000
# 3 -0.014280 -0.001176 0.031249 0.000000 0.000000 0.000000
# 4 0.000000 0.000000 0.000000 0.095872 0.000000 0.000000
# 5 0.000000 0.000000 0.000000 0.000000 0.040703 0.000000
# 6 0.000000 0.000000 0.000000 0.000000 0.000000 0.029883
#
#
# Mechanical properties :
#
#
# Convention : Reuss Voigt Hill
#
# Bulk Modulus (GPa) = 53.35196 68.97785 61.16491
# Shear Modulus (GPa) = 16.43192 21.15314 18.79253
#
# Velocity S-wave (km/s) = 3.21512 3.64788 3.43831
# Velocity P-wave (km/s) = 6.88079 7.81890 7.36480
#
# Compressibility (1/GPa) = 0.01874345
#
# Stress axis : x y z
#
# Youngs Moduli (GPa) = 35.92237 62.20794 32.00129
#
# Poissons Ratio (x) = 0.79333 0.45698
# Poissons Ratio (y) = 0.45811 0.03764
# Poissons Ratio (z) = 0.51298 0.07316
#
# Static dielectric constant tensor:
#      x y z
#    x 3.001560 0.000000 0.000000 
#    y 0.000000 3.062770 0.000000 
#    z 0.000000 0.000000 2.814460 
# 
# 
# High freq. dielectric constant tensor:
#      x y z
#    x 1.608030 0.000000 0.000000 
#    y 0.000000 1.613760 0.000000 
#    z 0.000000 0.000000 1.592840 
# 
# From -- ./inp_files/22006.got.cif
#   From: 2010.03.12/outbox.cif.g09.slc.cpg/sg68_12_cif.got.tgz:22006.got - 2010.04.10 23:14:56.
