data_PCOD8281001
_publ_section_title
;
Structure prediction by ZEFSAII (Michael W. Deem and Ramdas Pophale) SiO2 
 PCOD8281001
Probable space group: C M M A
;
_chemical_formula_sum "Si O2"
_cell_formula_units_Z 64
_cell_length_a 8.290203
_cell_length_b 23.896242
_cell_length_c 15.338641
_cell_angle_alpha 90.000000
_cell_angle_beta 90.000000
_cell_angle_gamma 90.000000
_cell_volume 3038.656829
_symmetry_space_group_name_H-M "C M M A"
_symmetry_group_IT_number 67
_symmetry_cell_setting 'orthorhombic'
loop_
_space_group_symop_operation_xyz
x,y,z
-x,1/2-y,z
x,-y,-z
-x,1/2+y,-z
-x,-y,-z
x,1/2+y,-z
-x,y,z
x,1/2-y,z
1/2+x,1/2+y,z
1/2-x,-y,z
1/2+x,1/2-y,-z
1/2-x,y,-z
1/2-x,1/2-y,-z
1/2+x,y,-z
1/2-x,1/2+y,z
1/2+x,-y,z
loop_
_atom_site_type_symbol
_atom_site_label
_atom_site_fract_x
_atom_site_fract_y
_atom_site_fract_z
Si Si1 0.307817 0.369287 0.094261
Si Si2 0.816154 0.750000 0.661138
Si Si3 0.811248 0.062671 0.256008
Si Si4 0.314586 0.750000 0.848939
Si Si5 0.687516 0.862078 0.590750
O O1 0.500000 0.372326 0.104123
O O2 0.226461 0.410132 0.163245
O O3 0.238515 0.306384 0.110342
O O4 0.250000 0.389868 0.000000
O O5 0.702519 0.750000 0.745198
O O6 0.783735 0.804574 0.603985
O O7 0.000000 0.750000 0.693448
O O8 0.718004 0.094910 0.331731
O O9 0.000000 0.065220 0.275394
O O10 0.750000 0.000000 0.254561
O O11 0.500000 0.750000 0.873621
O O12 0.500000 0.848371 0.585936
O O13 0.750000 0.888743 0.500000
#
# Coordination Sequence:
#
# PCOD8281001 Si02
#       5
#    16   8  16   8  16
#     4  11  23  41  66  98 134 174 217 267 324 386
#     4  12  23  38  65  99 134 174 216 262 323 388
#     4  12  26  46  69  96 128 170 220 271 327 386
#     4  10  21  38  64  95 134 174 213 260 323 386
#     4  12  25  44  68  98 134 172 216 267 324 386
#
# _framework density 21.061938999999999
#
# number of rings (size 3 to 8) (size 9 to 14) (size 15 to 20)
#    0.000    0.500    2.500    7.125    0.000    2.000 
#    0.000    5.000    0.000    0.000    0.000    0.000 
#    0.000    0.000    0.000    0.000    0.000    0.000 
#
# Total GULP energy -397022.075520 kJ/mol
# GULP energy per Si atom -12406.939860 kJ/mol
# Density = 2.101400 g / cm^3
# Si number density = 21.061939 Si / 1000 Ang^3
#
#
#
# Elastic Constant Matrix: (Units=GPa)
#
#
# Indices 1 2 3 4 5 6 
#
# 1 80.5477 21.4501 4.3287 0.0000 0.0000 0.0000
# 2 21.4501 142.9569 47.8363 0.0000 0.0000 0.0000
# 3 4.3287 47.8363 148.2216 0.0000 0.0000 0.0000
# 4 0.0000 0.0000 0.0000 -27.6004 0.0000 0.0000
# 5 0.0000 0.0000 0.0000 0.0000 35.4153 0.0000
# 6 0.0000 0.0000 0.0000 0.0000 0.0000 47.7084
#
#
#
# Elastic Compliance Matrix: (Units=1/GPa)
#
#
# Indices 1 2 3 4 5 6 
#
# 1 0.012942 -0.002035 0.000279 0.000000 0.000000 0.000000
# 2 -0.002035 0.008162 -0.002575 0.000000 0.000000 0.000000
# 3 0.000279 -0.002575 0.007569 0.000000 0.000000 0.000000
# 4 0.000000 0.000000 0.000000 -0.036231 0.000000 0.000000
# 5 0.000000 0.000000 0.000000 0.000000 0.028236 0.000000
# 6 0.000000 0.000000 0.000000 0.000000 0.000000 0.020961
#
#
# Mechanical properties :
#
#
# Convention : Reuss Voigt Hill
#
# Bulk Modulus (GPa) = 49.97161 57.66182 53.81672
# Shear Modulus (GPa) = 87.76258 30.97873 59.37065
#
# Velocity S-wave (km/s) = 6.46214 3.83931 5.31505
# Velocity P-wave (km/s) = 8.91384 6.86225 7.95446
#
# Compressibility (1/GPa) = 0.02001136
#
# Stress axis : x y z
#
# Youngs Moduli (GPa) = 77.26777 122.51824 132.10962
#
# Poissons Ratio (x) = 0.24935 -0.03684
# Poissons Ratio (y) = 0.15726 0.34015
# Poissons Ratio (z) = -0.02155 0.31545
#
# Static dielectric constant tensor:
#      x y z
#    x 3.849950 0.000000 0.000000 
#    y 0.000000 3.923070 0.000000 
#    z 0.000000 0.000000 3.895110 
# 
# 
# High freq. dielectric constant tensor:
#      x y z
#    x 1.835320 0.000000 0.000000 
#    y 0.000000 1.824810 0.000000 
#    z 0.000000 0.000000 1.839620 
# 
# From -- ./inp_files/24847.got.cif
#   From: 2010.03.12/outbox.cif.g09.slc.cpg/sg67_13_cif.got.tgz:24847.got - 2010.04.10 22:41:39.
