data_PCOD8281369
_publ_section_title
;
Structure prediction by ZEFSAII (Michael W. Deem and Ramdas Pophale) SiO2 
 PCOD8281369
Probable space group: C M M A
;
_chemical_formula_sum "Si O2"
_cell_formula_units_Z 72
_cell_length_a 25.319381
_cell_length_b 8.724836
_cell_length_c 19.724195
_cell_angle_alpha 90.000000
_cell_angle_beta 90.000000
_cell_angle_gamma 90.000000
_cell_volume 4357.221559
_symmetry_space_group_name_H-M "C M M A"
_symmetry_group_IT_number 67
_symmetry_cell_setting 'orthorhombic'
loop_
_space_group_symop_operation_xyz
x,y,z
-x,1/2-y,z
x,-y,-z
-x,1/2+y,-z
-x,-y,-z
x,1/2+y,-z
-x,y,z
x,1/2-y,z
1/2+x,1/2+y,z
1/2-x,-y,z
1/2+x,1/2-y,-z
1/2-x,y,-z
1/2-x,1/2-y,-z
1/2+x,y,-z
1/2-x,1/2+y,z
1/2+x,-y,z
loop_
_atom_site_type_symbol
_atom_site_label
_atom_site_fract_x
_atom_site_fract_y
_atom_site_fract_z
Si Si1 0.807007 0.566907 0.428205
Si Si2 0.400651 0.431114 0.651663
Si Si3 0.559368 0.071573 0.796951
Si Si4 0.000000 0.432751 0.574552
Si Si5 0.937355 0.923791 0.067561
O O1 0.826708 0.500000 0.500000
O O2 0.804897 0.750000 0.431848
O O3 0.750000 0.500000 0.409731
O O4 0.846505 0.509938 0.370554
O O5 0.400536 0.250000 0.636674
O O6 0.405618 0.466393 0.731450
O O7 0.448518 0.507997 0.612375
O O8 0.500000 0.008040 0.784211
O O9 0.556843 0.250000 0.811294
O O10 0.585850 0.995940 0.863354
O O11 0.000000 0.500000 0.500000
O O12 0.000000 0.250000 0.572029
O O13 0.919695 0.750000 0.065792
O O14 0.000000 0.947371 0.068086
O O15 0.913086 0.000000 0.000000
#
# Coordination Sequence:
#
# PCOD8281369 Si02
#       5
#    16  16  16   8  16
#     4  11  22  38  57  77  97 125 162 207 254 300
#     4  11  21  36  53  73 100 131 164 203 249 298
#     4   9  17  30  46  65  93 129 162 196 240 288
#     4  12  24  36  50  70  97 130 167 204 242 294
#     4   9  16  25  39  60  87 122 162 201 235 277
#
# _framework density 16.524291999999999
#
# number of rings (size 3 to 8) (size 9 to 14) (size 15 to 20)
#    0.000    1.778    1.111    5.667    0.000    4.444 
#    0.000    0.000    0.000    0.000    0.000    0.000 
#    0.000    0.889    0.000    9.333    0.000    4.444 
#
# Total GULP energy -446407.540975 kJ/mol
# GULP energy per Si atom -12400.209472 kJ/mol
# Density = 1.648668 g / cm^3
# Si number density = 16.524292 Si / 1000 Ang^3
#
#
#
# Elastic Constant Matrix: (Units=GPa)
#
#
# Indices 1 2 3 4 5 6 
#
# 1 64.9424 40.8733 54.4463 0.0000 0.0000 0.0000
# 2 40.8733 128.5972 81.4517 0.0000 0.0000 0.0000
# 3 54.4463 81.4517 154.0883 0.0000 0.0000 0.0000
# 4 0.0000 0.0000 0.0000 32.4682 0.0000 0.0000
# 5 0.0000 0.0000 0.0000 0.0000 -9.8622 0.0000
# 6 0.0000 0.0000 0.0000 0.0000 0.0000 22.3487
#
#
#
# Elastic Compliance Matrix: (Units=1/GPa)
#
#
# Indices 1 2 3 4 5 6 
#
# 1 0.022730 -0.003213 -0.006333 0.000000 0.000000 0.000000
# 2 -0.003213 0.012144 -0.005284 0.000000 0.000000 0.000000
# 3 -0.006333 -0.005284 0.011521 0.000000 0.000000 0.000000
# 4 0.000000 0.000000 0.000000 0.030799 0.000000 0.000000
# 5 0.000000 0.000000 0.000000 0.000000 -0.101397 0.000000
# 6 0.000000 0.000000 0.000000 0.000000 0.000000 0.044745
#
#
# Mechanical properties :
#
#
# Convention : Reuss Voigt Hill
#
# Bulk Modulus (GPa) = 59.75744 77.90783 68.83263
# Shear Modulus (GPa) = 89.63511 20.38139 55.00825
#
# Velocity S-wave (km/s) = 7.37307 3.51582 5.77595
# Velocity P-wave (km/s) = 10.42712 7.98318 9.28590
#
# Compressibility (1/GPa) = 0.01673432
#
# Stress axis : x y z
#
# Youngs Moduli (GPa) = 43.99460 82.34186 86.79965
#
# Poissons Ratio (x) = 0.26459 0.54970
# Poissons Ratio (y) = 0.14137 0.45867
# Poissons Ratio (z) = 0.27862 0.43511
#
# Static dielectric constant tensor:
#      x y z
#    x 2.784230 0.000000 0.000000 
#    y 0.000000 3.253560 0.000000 
#    z 0.000000 0.000000 3.313000 
# 
# 
# High freq. dielectric constant tensor:
#      x y z
#    x 1.585810 0.000000 0.000000 
#    y 0.000000 1.654350 0.000000 
#    z 0.000000 0.000000 1.647440 
# 
# From -- ./inp_files/31951.got.cif
#   From: 2010.03.12/outbox.cif.g09.slc.cpg/sg67_16_cif.got.tgz:31951.got - 2010.04.10 22:41:39.
