data_PCOD8281823
_publ_section_title
;
Structure prediction by ZEFSAII (Michael W. Deem and Ramdas Pophale) SiO2 
 PCOD8281823
Probable space group: C C C A
;
_chemical_formula_sum "Si O2"
_cell_formula_units_Z 112
_cell_length_a 12.585754
_cell_length_b 26.860017
_cell_length_c 15.147323
_cell_angle_alpha 90.000000
_cell_angle_beta 90.000000
_cell_angle_gamma 90.000000
_cell_volume 5120.606562
_symmetry_space_group_name_H-M "C C C A"
_symmetry_group_IT_number 68
_space_group.IT_coordinate_system_code '2'
_symmetry_cell_setting 'orthorhombic'
loop_
_space_group_symop_operation_xyz
x,y,z
-x,1/2-y,z
x,1/2-y,1/2-z
-x,y,1/2-z
-x,-y,-z
x,1/2+y,-z
-x,1/2+y,1/2+z
x,-y,1/2+z
1/2+x,1/2+y,z
1/2-x,-y,z
1/2+x,-y,1/2-z
1/2-x,1/2+y,1/2-z
1/2-x,1/2-y,-z
1/2+x,y,-z
1/2-x,y,1/2+z
1/2+x,1/2-y,1/2+z
loop_
_atom_site_type_symbol
_atom_site_label
_atom_site_fract_x
_atom_site_fract_y
_atom_site_fract_z
Si Si1 0.176178 0.647722 0.431603
Si Si2 0.676452 0.955738 0.860161
Si Si3 0.632935 0.250000 0.750000
Si Si4 0.344586 0.086634 0.763330
Si Si5 0.531718 0.692678 0.944126
Si Si6 0.500000 0.004632 0.750000
Si Si7 0.239026 0.174766 0.378252
Si Si8 0.600018 0.835336 0.365424
O O1 0.170870 0.587296 0.435138
O O2 0.189023 0.675436 0.524911
O O3 0.271243 0.667639 0.370400
O O4 0.064601 0.666414 0.392198
O O5 0.734349 0.933220 0.775276
O O6 0.750000 0.000000 0.899862
O O7 0.559128 0.972853 0.826914
O O8 0.704296 0.221534 0.678802
O O9 0.560603 0.288657 0.693684
O O10 0.411703 0.039449 0.798490
O O11 0.307439 0.123878 0.839029
O O12 0.420355 0.113386 0.688094
O O13 0.500000 0.750000 0.956170
O O14 0.634093 0.680445 0.885380
O O15 0.544213 0.665946 0.040007
#
# Coordination Sequence:
#
# PCOD8281823 Si02
#       8
#    16  16   8  16  16   8  16  16
#     4  10  21  39  61  83 124 165 193 250 313 364
#     4   9  20  40  62  88 118 157 201 257 312 368
#     4  10  18  38  60  82 114 166 196 244 292 340
#     4   9  20  38  61  87 118 156 199 259 304 355
#     4  11  22  36  59  90 124 162 200 241 306 375
#     4  10  20  36  66  87 117 150 208 250 312 372
#     4  10  22  38  59  88 126 155 205 252 296 362
#     4   9  20  38  57  82 121 155 201 246 292 355
#
# _framework density 21.872408
#
# number of rings (size 3 to 8) (size 9 to 14) (size 15 to 20)
#    0.000    2.286    0.000    1.714    4.000    2.286 
#    0.000    8.929    0.000    0.000    0.000    0.000 
#    0.000    0.000    0.000    0.000    0.000    0.000 
#
# Total GULP energy -693925.435189 kJ/mol
# GULP energy per Si atom -12391.525628 kJ/mol
# Density = 2.182263 g / cm^3
# Si number density = 21.872408 Si / 1000 Ang^3
#
#
#
# Elastic Constant Matrix: (Units=GPa)
#
#
# Indices 1 2 3 4 5 6 
#
# 1 99.1460 26.2888 6.0043 0.0000 0.0000 0.0000
# 2 26.2888 108.7936 21.4026 0.0000 0.0000 0.0000
# 3 6.0043 21.4026 51.3406 0.0000 0.0000 0.0000
# 4 0.0000 0.0000 0.0000 30.5706 0.0000 0.0000
# 5 0.0000 0.0000 0.0000 0.0000 17.3300 0.0000
# 6 0.0000 0.0000 0.0000 0.0000 0.0000 36.8067
#
#
#
# Elastic Compliance Matrix: (Units=1/GPa)
#
#
# Indices 1 2 3 4 5 6 
#
# 1 0.010778 -0.002567 -0.000190 0.000000 0.000000 0.000000
# 2 -0.002567 0.010624 -0.004129 0.000000 0.000000 0.000000
# 3 -0.000190 -0.004129 0.021221 0.000000 0.000000 0.000000
# 4 0.000000 0.000000 0.000000 0.032711 0.000000 0.000000
# 5 0.000000 0.000000 0.000000 0.000000 0.057703 0.000000
# 6 0.000000 0.000000 0.000000 0.000000 0.000000 0.027169
#
#
# Mechanical properties :
#
#
# Convention : Reuss Voigt Hill
#
# Bulk Modulus (GPa) = 34.66032 40.74126 37.70079
# Shear Modulus (GPa) = 27.23359 30.64709 28.94034
#
# Velocity S-wave (km/s) = 3.53244 3.74729 3.64145
# Velocity P-wave (km/s) = 5.70250 6.11475 5.91222
#
# Compressibility (1/GPa) = 0.02885143
#
# Stress axis : x y z
#
# Youngs Moduli (GPa) = 92.77892 94.12433 47.12266
#
# Poissons Ratio (x) = 0.24162 0.00897
# Poissons Ratio (y) = 0.23816 0.19456
# Poissons Ratio (z) = 0.01767 0.38862
#
# Static dielectric constant tensor:
#      x y z
#    x 4.172630 0.000000 0.000000 
#    y 0.000000 4.253130 0.000000 
#    z 0.000000 0.000000 3.669700 
# 
# 
# High freq. dielectric constant tensor:
#      x y z
#    x 1.878800 0.000000 0.000000 
#    y 0.000000 1.871200 0.000000 
#    z 0.000000 0.000000 1.827950 
# 
# From -- ./inp_files/22764.got.cif
#   From: 2010.03.12/outbox.cif.g09.slc.cpg/sg68_12_cif.got.tgz:22764.got - 2010.04.10 23:14:56.
