data_PCOD8281289
_publ_section_title
;
Structure prediction by ZEFSAII (Michael W. Deem and Ramdas Pophale) SiO2 
 PCOD8281289
Probable space group: C M M A
;
_chemical_formula_sum "Si O2"
_cell_formula_units_Z 56
_cell_length_a 15.373423
_cell_length_b 7.564985
_cell_length_c 23.525255
_cell_angle_alpha 90.000000
_cell_angle_beta 90.000000
_cell_angle_gamma 90.000000
_cell_volume 2735.980438
_symmetry_space_group_name_H-M "C M M A"
_symmetry_group_IT_number 67
_symmetry_cell_setting 'orthorhombic'
loop_
_space_group_symop_operation_xyz
x,y,z
-x,1/2-y,z
x,-y,-z
-x,1/2+y,-z
-x,-y,-z
x,1/2+y,-z
-x,y,z
x,1/2-y,z
1/2+x,1/2+y,z
1/2-x,-y,z
1/2+x,1/2-y,-z
1/2-x,y,-z
1/2-x,1/2-y,-z
1/2+x,y,-z
1/2-x,1/2+y,z
1/2+x,-y,z
loop_
_atom_site_type_symbol
_atom_site_label
_atom_site_fract_x
_atom_site_fract_y
_atom_site_fract_z
Si Si1 0.603524 0.946163 0.438306
Si Si2 0.103749 0.750000 0.357252
Si Si3 0.500000 0.044718 0.934385
Si Si4 0.603256 0.250000 0.228745
Si Si5 0.654507 0.542049 0.143576
O O1 0.500000 0.955878 0.440361
O O2 0.635762 0.750000 0.422587
O O3 0.640732 0.000000 0.500000
O O4 0.639720 0.077731 0.390139
O O5 0.138583 0.750000 0.293014
O O6 0.000000 0.750000 0.357076
O O7 0.500000 0.250000 0.925778
O O8 0.413471 0.971232 0.903821
O O9 0.500000 0.000000 0.000000
O O10 0.500000 0.250000 0.225243
O O11 0.639937 0.428708 0.200432
O O12 0.643019 0.750000 0.157619
O O13 0.750000 0.500000 0.119001
#
# Coordination Sequence:
#
# PCOD8281289 Si02
#       5
#    16   8   8   8  16
#     4   9  14  22  38  61  99 143 184 235 292 363
#     4   9  18  28  42  74 101 150 199 228 310 369
#     4  10  24  40  64  98 130 162 206 254 305 367
#     4  11  22  38  62  82 126 165 200 268 314 370
#     4  11  23  41  64  92 122 168 213 252 312 368
#
# _framework density 20.467981000000002
#
# number of rings (size 3 to 8) (size 9 to 14) (size 15 to 20)
#    0.000    2.000    4.286    0.000    2.000    1.714 
#    0.000    5.714    0.000    0.000    0.000    0.000 
#    0.000    3.429    0.000    0.000    0.000    0.000 
#
# Total GULP energy -347150.548215 kJ/mol
# GULP energy per Si atom -12398.233865 kJ/mol
# Density = 2.042140 g / cm^3
# Si number density = 20.467981 Si / 1000 Ang^3
#
#
#
# Elastic Constant Matrix: (Units=GPa)
#
#
# Indices 1 2 3 4 5 6 
#
# 1 97.8202 28.0566 52.9732 0.0000 0.0000 0.0000
# 2 28.0566 161.5939 81.7417 0.0000 0.0000 0.0000
# 3 52.9732 81.7417 190.7004 0.0000 0.0000 0.0000
# 4 0.0000 0.0000 0.0000 37.4172 0.0000 0.0000
# 5 0.0000 0.0000 0.0000 0.0000 2.9839 0.0000
# 6 0.0000 0.0000 0.0000 0.0000 0.0000 17.3745
#
#
#
# Elastic Compliance Matrix: (Units=1/GPa)
#
#
# Indices 1 2 3 4 5 6 
#
# 1 0.012066 -0.000510 -0.003133 0.000000 0.000000 0.000000
# 2 -0.000510 0.007923 -0.003255 0.000000 0.000000 0.000000
# 3 -0.003133 -0.003255 0.007509 0.000000 0.000000 0.000000
# 4 0.000000 0.000000 0.000000 0.026726 0.000000 0.000000
# 5 0.000000 0.000000 0.000000 0.000000 0.335127 0.000000
# 6 0.000000 0.000000 0.000000 0.000000 0.000000 0.057556
#
#
# Mechanical properties :
#
#
# Convention : Reuss Voigt Hill
#
# Bulk Modulus (GPa) = 72.97725 86.18417 79.58071
# Shear Modulus (GPa) = 10.74647 30.71133 20.72890
#
# Velocity S-wave (km/s) = 2.29386 3.87778 3.18582
# Velocity P-wave (km/s) = 6.53815 7.88973 7.24552
#
# Compressibility (1/GPa) = 0.01370290
#
# Stress axis : x y z
#
# Youngs Moduli (GPa) = 82.87896 126.21176 133.17117
#
# Poissons Ratio (x) = 0.06438 0.41723
# Poissons Ratio (y) = 0.04228 0.43341
# Poissons Ratio (z) = 0.25966 0.41076
#
# Static dielectric constant tensor:
#      x y z
#    x 3.702560 0.000000 0.000000 
#    y 0.000000 4.069560 0.000000 
#    z 0.000000 0.000000 3.582580 
# 
# 
# High freq. dielectric constant tensor:
#      x y z
#    x 1.778200 0.000000 0.000000 
#    y 0.000000 1.814620 0.000000 
#    z 0.000000 0.000000 1.787790 
# 
# From -- ./inp_files/38222.got.cif
#   From: 2010.03.12/outbox.cif.g09.slc.cpg/sg67_20_cif.got.tgz:38222.got - 2010.04.10 22:41:39.
