data_PCOD8281619
_publ_section_title
;
Structure prediction by ZEFSAII (Michael W. Deem and Ramdas Pophale) SiO2 
 PCOD8281619
Probable space group: C C C A
;
_chemical_formula_sum "Si O2"
_cell_formula_units_Z 72
_cell_length_a 9.266890
_cell_length_b 22.450913
_cell_length_c 17.655963
_cell_angle_alpha 90.000000
_cell_angle_beta 90.000000
_cell_angle_gamma 90.000000
_cell_volume 3673.325595
_symmetry_space_group_name_H-M "C C C A"
_symmetry_group_IT_number 68
_space_group.IT_coordinate_system_code '2'
_symmetry_cell_setting 'orthorhombic'
loop_
_space_group_symop_operation_xyz
x,y,z
-x,1/2-y,z
x,1/2-y,1/2-z
-x,y,1/2-z
-x,-y,-z
x,1/2+y,-z
-x,1/2+y,1/2+z
x,-y,1/2+z
1/2+x,1/2+y,z
1/2-x,-y,z
1/2+x,-y,1/2-z
1/2-x,1/2+y,1/2-z
1/2-x,1/2-y,-z
1/2+x,y,-z
1/2-x,y,1/2+z
1/2+x,1/2-y,1/2+z
loop_
_atom_site_type_symbol
_atom_site_label
_atom_site_fract_x
_atom_site_fract_y
_atom_site_fract_z
Si Si1 0.571728 0.666725 0.857758
Si Si2 0.877389 0.793409 0.978207
Si Si3 0.733821 0.750000 0.750000
Si Si4 0.259863 0.645672 0.337995
Si Si5 0.336241 0.443531 0.229573
O O1 0.639913 0.725464 0.820923
O O2 0.409658 0.660851 0.828640
O O3 0.662131 0.607855 0.834309
O O4 0.566879 0.672033 0.948313
O O5 0.828926 0.846502 0.920831
O O6 0.000000 0.750000 0.943263
O O7 0.750000 0.750000 0.000000
O O8 0.832266 0.696517 0.715866
O O9 0.262900 0.579349 0.302127
O O10 0.500000 0.461999 0.250000
O O11 0.250000 0.500000 0.196660
#
# Coordination Sequence:
#
# PCOD8281619 Si02
#       5
#    16  16   8  16  16
#     4  10  18  32  57  79 107 146 184 219 276 339
#     4  12  21  34  54  83 122 146 176 219 275 344
#     4  10  15  28  53  80 101 142 183 216 263 346
#     4  10  19  33  55  80 110 145 182 222 279 331
#     4   9  20  40  61  79 104 144 196 240 273 322
#
# _framework density 19.600767999999999
#
# number of rings (size 3 to 8) (size 9 to 14) (size 15 to 20)
#    0.000    1.778    4.444    3.333    0.000    0.000 
#    4.000    1.667    0.000    5.333    0.000    0.000 
#    0.000    0.000    0.000    0.000    0.000    0.000 
#
# Total GULP energy -445994.309527 kJ/mol
# GULP energy per Si atom -12388.730820 kJ/mol
# Density = 1.955616 g / cm^3
# Si number density = 19.600768 Si / 1000 Ang^3
#
#
#
# Elastic Constant Matrix: (Units=GPa)
#
#
# Indices 1 2 3 4 5 6 
#
# 1 44.7575 24.6753 -0.5454 0.0000 0.0000 0.0000
# 2 24.6753 106.3457 20.0671 0.0000 0.0000 0.0000
# 3 -0.5454 20.0671 80.1105 0.0000 0.0000 0.0000
# 4 0.0000 0.0000 0.0000 22.3082 0.0000 0.0000
# 5 0.0000 0.0000 0.0000 0.0000 20.0015 0.0000
# 6 0.0000 0.0000 0.0000 0.0000 0.0000 27.7188
#
#
#
# Elastic Compliance Matrix: (Units=1/GPa)
#
#
# Indices 1 2 3 4 5 6 
#
# 1 0.025855 -0.006332 0.001762 0.000000 0.000000 0.000000
# 2 -0.006332 0.011420 -0.002904 0.000000 0.000000 0.000000
# 3 0.001762 -0.002904 0.013222 0.000000 0.000000 0.000000
# 4 0.000000 0.000000 0.000000 0.044827 0.000000 0.000000
# 5 0.000000 0.000000 0.000000 0.000000 0.049996 0.000000
# 6 0.000000 0.000000 0.000000 0.000000 0.000000 0.036077
#
#
# Mechanical properties :
#
#
# Convention : Reuss Voigt Hill
#
# Bulk Modulus (GPa) = 28.12895 35.51198 31.82046
# Shear Modulus (GPa) = 24.01611 26.47347 25.24479
#
# Velocity S-wave (km/s) = 3.50417 3.67908 3.59269
# Velocity P-wave (km/s) = 5.54567 6.01702 5.78614
#
# Compressibility (1/GPa) = 0.03555056
#
# Stress axis : x y z
#
# Youngs Moduli (GPa) = 38.67759 87.56310 75.63072
#
# Poissons Ratio (x) = 0.55441 -0.13326
# Poissons Ratio (y) = 0.24489 0.21962
# Poissons Ratio (z) = -0.06815 0.25427
#
# Static dielectric constant tensor:
#      x y z
#    x 3.306740 0.000000 0.000000 
#    y 0.000000 3.540030 0.000000 
#    z 0.000000 0.000000 3.759630 
# 
# 
# High freq. dielectric constant tensor:
#      x y z
#    x 1.741930 0.000000 0.000000 
#    y 0.000000 1.750170 0.000000 
#    z 0.000000 0.000000 1.755570 
# 
# From -- ./inp_files/28156.got.cif
#   From: 2010.03.12/outbox.cif.g09.slc.cpg/sg68_15_cif.got.tgz:28156.got - 2010.04.10 23:14:56.
