data_PCOD8281550
_publ_section_title
;
Structure prediction by ZEFSAII (Michael W. Deem and Ramdas Pophale) SiO2 
 PCOD8281550
Probable space group: C M M A
;
_chemical_formula_sum "Si O2"
_cell_formula_units_Z 72
_cell_length_a 25.372184
_cell_length_b 8.994860
_cell_length_c 16.791311
_cell_angle_alpha 90.000000
_cell_angle_beta 90.000000
_cell_angle_gamma 90.000000
_cell_volume 3832.100285
_symmetry_space_group_name_H-M "C M M A"
_symmetry_group_IT_number 67
_symmetry_cell_setting 'orthorhombic'
loop_
_space_group_symop_operation_xyz
x,y,z
-x,1/2-y,z
x,-y,-z
-x,1/2+y,-z
-x,-y,-z
x,1/2+y,-z
-x,y,z
x,1/2-y,z
1/2+x,1/2+y,z
1/2-x,-y,z
1/2+x,1/2-y,-z
1/2-x,y,-z
1/2-x,1/2-y,-z
1/2+x,y,-z
1/2-x,1/2+y,z
1/2+x,-y,z
loop_
_atom_site_type_symbol
_atom_site_label
_atom_site_fract_x
_atom_site_fract_y
_atom_site_fract_z
Si Si1 0.443614 0.426083 0.370446
Si Si2 0.833536 0.925623 0.422456
Si Si3 0.000000 0.427215 0.085718
Si Si4 0.698128 0.575670 0.752012
Si Si5 0.415766 0.574982 0.805588
O O1 0.500000 0.485113 0.404303
O O2 0.440857 0.250000 0.372755
O O3 0.394230 0.485875 0.420777
O O4 0.439476 0.474328 0.278758
O O5 0.829724 0.750000 0.431387
O O6 0.807321 0.978637 0.339950
O O7 0.806245 0.000000 0.500000
O O8 0.053600 0.480774 0.128518
O O9 0.000000 0.250000 0.079801
O O10 0.000000 0.500000 0.000000
O O11 0.706356 0.750000 0.752990
O O12 0.750000 0.500000 0.789650
O O13 0.646710 0.534351 0.804446
O O14 0.424139 0.750000 0.821901
#
# Coordination Sequence:
#
# PCOD8281550 Si02
#       5
#    16  16   8  16  16
#     4   8  13  25  48  68  88 128 173 210 256 314
#     4   9  18  30  43  65  95 131 175 220 269 316
#     4  12  24  36  56  88 119 144 167 200 249 302
#     4   9  19  34  54  77 101 137 182 223 268 316
#     4   9  17  34  57  78 104 140 177 213 256 310
#
# _framework density 18.788651999999999
#
# number of rings (size 3 to 8) (size 9 to 14) (size 15 to 20)
#    0.000    2.889    1.111    3.667    0.000    2.667 
#    0.000    5.556    0.000    0.667    0.000    4.667 
#    0.000    0.000    0.000    0.000    0.000    0.000 
#
# Total GULP energy -446025.532980 kJ/mol
# GULP energy per Si atom -12389.598138 kJ/mol
# Density = 1.874589 g / cm^3
# Si number density = 18.788652 Si / 1000 Ang^3
#
#
#
# Elastic Constant Matrix: (Units=GPa)
#
#
# Indices 1 2 3 4 5 6 
#
# 1 132.2437 41.4442 32.3851 0.0000 0.0000 0.0000
# 2 41.4442 58.8610 36.4930 0.0000 0.0000 0.0000
# 3 32.3851 36.4930 83.6405 0.0000 0.0000 0.0000
# 4 0.0000 0.0000 0.0000 25.4390 0.0000 0.0000
# 5 0.0000 0.0000 0.0000 0.0000 -9.0019 0.0000
# 6 0.0000 0.0000 0.0000 0.0000 0.0000 28.0150
#
#
#
# Elastic Compliance Matrix: (Units=1/GPa)
#
#
# Indices 1 2 3 4 5 6 
#
# 1 0.009772 -0.006216 -0.001072 0.000000 0.000000 0.000000
# 2 -0.006216 0.027243 -0.009479 0.000000 0.000000 0.000000
# 3 -0.001072 -0.009479 0.016507 0.000000 0.000000 0.000000
# 4 0.000000 0.000000 0.000000 0.039310 0.000000 0.000000
# 5 0.000000 0.000000 0.000000 0.000000 -0.111088 0.000000
# 6 0.000000 0.000000 0.000000 0.000000 0.000000 0.035695
#
#
# Mechanical properties :
#
#
# Convention : Reuss Voigt Hill
#
# Bulk Modulus (GPa) = 50.03107 55.04331 52.53719
# Shear Modulus (GPa) = 86.74986 19.85195 53.30091
#
# Velocity S-wave (km/s) = 6.80233 3.25405 5.33200
# Velocity P-wave (km/s) = 9.40115 6.59379 8.11972
#
# Compressibility (1/GPa) = 0.01998758
#
# Stress axis : x y z
#
# Youngs Moduli (GPa) = 102.32916 36.70625 60.58110
#
# Poissons Ratio (x) = 0.22818 0.06491
# Poissons Ratio (y) = 0.63612 0.57428
# Poissons Ratio (z) = 0.10965 0.34796
#
# Static dielectric constant tensor:
#      x y z
#    x 3.875740 0.000000 0.000000 
#    y 0.000000 3.031130 0.000000 
#    z 0.000000 0.000000 3.187710 
# 
# 
# High freq. dielectric constant tensor:
#      x y z
#    x 1.746660 0.000000 0.000000 
#    y 0.000000 1.697210 0.000000 
#    z 0.000000 0.000000 1.695920 
# 
# From -- ./inp_files/30528.got.cif
#   From: 2010.03.12/outbox.cif.g09.slc.cpg/sg67_16_cif.got.tgz:30528.got - 2010.04.10 22:41:39.
