data_PCOD8281894
_publ_section_title
;
Structure prediction by ZEFSAII (Michael W. Deem and Ramdas Pophale) SiO2 
 PCOD8281894
Probable space group: C C C A
;
_chemical_formula_sum "Si O2"
_cell_formula_units_Z 116
_cell_length_a 7.989626
_cell_length_b 27.332641
_cell_length_c 24.952028
_cell_angle_alpha 90.000000
_cell_angle_beta 90.000000
_cell_angle_gamma 90.000000
_cell_volume 5448.963470
_symmetry_space_group_name_H-M "C C C A"
_symmetry_group_IT_number 68
_space_group.IT_coordinate_system_code '2'
_symmetry_cell_setting 'orthorhombic'
loop_
_space_group_symop_operation_xyz
x,y,z
-x,1/2-y,z
x,1/2-y,1/2-z
-x,y,1/2-z
-x,-y,-z
x,1/2+y,-z
-x,1/2+y,1/2+z
x,-y,1/2+z
1/2+x,1/2+y,z
1/2-x,-y,z
1/2+x,-y,1/2-z
1/2-x,1/2+y,1/2-z
1/2-x,1/2-y,-z
1/2+x,y,-z
1/2-x,y,1/2+z
1/2+x,1/2-y,1/2+z
loop_
_atom_site_type_symbol
_atom_site_label
_atom_site_fract_x
_atom_site_fract_y
_atom_site_fract_z
Si Si1 0.872439 0.669968 0.176900
Si Si2 0.887001 0.443111 0.330558
Si Si3 0.500000 0.750000 0.750000
Si Si4 0.198795 0.701187 0.930424
Si Si5 0.166004 0.312303 0.042166
Si Si6 0.414531 0.026859 0.125338
Si Si7 0.626376 0.117130 0.109198
Si Si8 0.264121 0.074931 0.718739
O O1 0.755790 0.679320 0.125830
O O2 0.802696 0.630195 0.218799
O O3 0.882063 0.718580 0.211627
O O4 0.052379 0.652469 0.154898
O O5 0.796501 0.406578 0.370234
O O6 0.771237 0.449223 0.277634
O O7 0.923992 0.492478 0.364629
O O8 0.060470 0.420396 0.311610
O O9 0.195976 0.759955 0.929543
O O10 0.022983 0.674154 0.942140
O O11 0.329156 0.688267 0.977647
O O12 0.310762 0.350375 0.059629
O O13 0.484503 0.075162 0.093829
O O14 0.360856 0.040972 0.185366
O O15 0.250000 0.000000 0.097409
#
# Coordination Sequence:
#
# PCOD8281894 Si02
#       8
#    16  16   4  16  16  16  16  16
#     4  11  22  38  56  82 118 162 197 239 291 351
#     4  10  19  33  53  79 113 151 195 247 299 352
#     4  12  24  36  56  82 124 164 200 238 292 350
#     4  10  21  39  63  89 121 150 193 243 297 347
#     4  10  21  38  63  94 117 149 194 249 296 347
#     4   9  20  34  51  80 116 154 193 243 301 355
#     4  11  21  34  56  85 117 152 197 241 292 352
#     4   9  20  34  51  77 111 150 200 246 291 355
#
# _framework density 21.288451999999999
#
# number of rings (size 3 to 8) (size 9 to 14) (size 15 to 20)
#    0.000    1.931    0.000    3.724    0.000   10.483 
#    0.000    1.379    0.000    1.655    0.000   68.552 
#    0.000    0.000    0.000    0.000    0.000    0.000 
#
# Total GULP energy -718766.448014 kJ/mol
# GULP energy per Si atom -12392.524966 kJ/mol
# Density = 2.124000 g / cm^3
# Si number density = 21.288452 Si / 1000 Ang^3
#
#
#
# Elastic Constant Matrix: (Units=GPa)
#
#
# Indices 1 2 3 4 5 6 
#
# 1 100.6437 44.4789 33.5789 0.0000 0.0000 0.0000
# 2 44.4789 94.1553 30.8783 0.0000 0.0000 0.0000
# 3 33.5789 30.8783 67.9578 0.0000 0.0000 0.0000
# 4 0.0000 0.0000 0.0000 15.2586 0.0000 0.0000
# 5 0.0000 0.0000 0.0000 0.0000 30.1669 0.0000
# 6 0.0000 0.0000 0.0000 0.0000 0.0000 42.2207
#
#
#
# Elastic Compliance Matrix: (Units=1/GPa)
#
#
# Indices 1 2 3 4 5 6 
#
# 1 0.013625 -0.004969 -0.004474 0.000000 0.000000 0.000000
# 2 -0.004969 0.014293 -0.004039 0.000000 0.000000 0.000000
# 3 -0.004474 -0.004039 0.018761 0.000000 0.000000 0.000000
# 4 0.000000 0.000000 0.000000 0.065537 0.000000 0.000000
# 5 0.000000 0.000000 0.000000 0.000000 0.033149 0.000000
# 6 0.000000 0.000000 0.000000 0.000000 0.000000 0.023685
#
#
# Mechanical properties :
#
#
# Convention : Reuss Voigt Hill
#
# Bulk Modulus (GPa) = 50.72584 53.40323 52.06454
# Shear Modulus (GPa) = 24.68089 27.78395 26.23242
#
# Velocity S-wave (km/s) = 3.40863 3.61656 3.51413
# Velocity P-wave (km/s) = 6.27465 6.52529 6.40119
#
# Compressibility (1/GPa) = 0.01971382
#
# Stress axis : x y z
#
# Youngs Moduli (GPa) = 73.39485 69.96586 53.30167
#
# Poissons Ratio (x) = 0.34766 0.23850
# Poissons Ratio (y) = 0.36470 0.21529
# Poissons Ratio (z) = 0.32840 0.28259
#
# Static dielectric constant tensor:
#      x y z
#    x 4.101410 0.000000 0.000000 
#    y 0.000000 4.008620 0.000000 
#    z 0.000000 0.000000 3.435330 
# 
# 
# High freq. dielectric constant tensor:
#      x y z
#    x 1.850220 0.000000 0.000000 
#    y 0.000000 1.840120 0.000000 
#    z 0.000000 0.000000 1.796410 
# 
# From -- ./inp_files/43532.got.cif
#   From: 2010.03.12/outbox.cif.g09.slc.cpg/sg68_22_cif.got.tgz:43532.got - 2010.04.10 23:14:56.
