data_PCOD8281092
_publ_section_title
;
Structure prediction by ZEFSAII (Michael W. Deem and Ramdas Pophale) SiO2 
 PCOD8281092
Probable space group: C M M A
;
_chemical_formula_sum "Si O2"
_cell_formula_units_Z 52
_cell_length_a 14.135635
_cell_length_b 10.540689
_cell_length_c 15.655683
_cell_angle_alpha 90.000000
_cell_angle_beta 90.000000
_cell_angle_gamma 90.000000
_cell_volume 2332.686315
_symmetry_space_group_name_H-M "C M M A"
_symmetry_group_IT_number 67
_symmetry_cell_setting 'orthorhombic'
loop_
_space_group_symop_operation_xyz
x,y,z
-x,1/2-y,z
x,-y,-z
-x,1/2+y,-z
-x,-y,-z
x,1/2+y,-z
-x,y,z
x,1/2-y,z
1/2+x,1/2+y,z
1/2-x,-y,z
1/2+x,1/2-y,-z
1/2-x,y,-z
1/2-x,1/2-y,-z
1/2+x,y,-z
1/2-x,1/2+y,z
1/2+x,-y,z
loop_
_atom_site_type_symbol
_atom_site_label
_atom_site_fract_x
_atom_site_fract_y
_atom_site_fract_z
Si Si1 0.893151 0.605012 0.631848
Si Si2 0.611363 0.991385 0.187383
Si Si3 0.750000 0.000000 0.500000
Si Si4 0.387440 0.250000 0.108113
Si Si5 0.612584 0.250000 0.914272
O O1 0.892345 0.750000 0.662095
O O2 0.862010 0.520763 0.712890
O O3 0.818334 0.587747 0.556202
O O4 0.000000 0.567835 0.601843
O O5 0.500000 0.989097 0.174983
O O6 0.653892 0.875053 0.132395
O O7 0.653455 0.124912 0.154903
O O8 0.500000 0.250000 0.111886
O O9 0.350700 0.250000 0.011256
O O10 0.500000 0.250000 0.911070
#
# Coordination Sequence:
#
# PCOD8281092 Si02
#       5
#    16  16   4   8   8
#     4  10  21  41  64  88 123 161 199 247 309 374
#     4   9  16  29  49  77 116 160 196 239 299 354
#     4  12  24  40  64  96 114 146 206 264 310 360
#     4   9  16  24  42  81 120 150 198 252 285 335
#     4   9  14  24  46  75 114 158 200 242 289 347
#
# _framework density 22.291896000000001
#
# number of rings (size 3 to 8) (size 9 to 14) (size 15 to 20)
#    0.000    2.462    1.538    1.846    0.000    3.692 
#    5.538    0.000    0.000    0.000    0.000    6.462 
#    0.000    0.000    0.000    0.000    0.000    1.846 
#
# Total GULP energy -322329.066975 kJ/mol
# GULP energy per Si atom -12397.271807 kJ/mol
# Density = 2.224116 g / cm^3
# Si number density = 22.291896 Si / 1000 Ang^3
#
#
#
# Elastic Constant Matrix: (Units=GPa)
#
#
# Indices 1 2 3 4 5 6 
#
# 1 89.0994 23.7819 49.0302 0.0000 0.0000 0.0000
# 2 23.7819 176.3601 87.4818 0.0000 0.0000 0.0000
# 3 49.0302 87.4818 162.9548 0.0000 0.0000 0.0000
# 4 0.0000 0.0000 0.0000 35.0886 0.0000 0.0000
# 5 0.0000 0.0000 0.0000 0.0000 -42.7117 0.0000
# 6 0.0000 0.0000 0.0000 0.0000 0.0000 -7.2362
#
#
#
# Elastic Compliance Matrix: (Units=1/GPa)
#
#
# Indices 1 2 3 4 5 6 
#
# 1 0.013459 0.000264 -0.004192 0.000000 0.000000 0.000000
# 2 0.000264 0.007733 -0.004231 0.000000 0.000000 0.000000
# 3 -0.004192 -0.004231 0.009669 0.000000 0.000000 0.000000
# 4 0.000000 0.000000 0.000000 0.028499 0.000000 0.000000
# 5 0.000000 0.000000 0.000000 0.000000 -0.023413 0.000000
# 6 0.000000 0.000000 0.000000 0.000000 0.000000 -0.138195
#
#
# Mechanical properties :
#
#
# Convention : Reuss Voigt Hill
#
# Bulk Modulus (GPa) = 68.75134 83.22247 75.98690
# Shear Modulus (GPa) = -61.66710 14.90284 -23.38213
#
# Velocity S-wave (km/s) = -5.26531 2.58840 -3.24220
# Velocity P-wave (km/s) = 2.46096 6.80788 4.48837
#
# Compressibility (1/GPa) = 0.01454517
#
# Stress axis : x y z
#
# Youngs Moduli (GPa) = 74.29723 129.30906 103.42004
#
# Poissons Ratio (x) = -0.03416 0.43349
# Poissons Ratio (y) = -0.01963 0.43759
# Poissons Ratio (z) = 0.31142 0.54713
#
# Static dielectric constant tensor:
#      x y z
#    x 3.710660 0.000000 0.000000 
#    y 0.000000 4.186020 0.000000 
#    z 0.000000 0.000000 3.928390 
# 
# 
# High freq. dielectric constant tensor:
#      x y z
#    x 1.872070 0.000000 0.000000 
#    y 0.000000 1.875870 0.000000 
#    z 0.000000 0.000000 1.874640 
# 
# From -- ./inp_files/26636.got.cif
#   From: 2010.03.12/outbox.cif.g09.slc.cpg/sg67_14_cif.got.tgz:26636.got - 2010.04.10 22:41:39.
