data_PCOD8281150
_publ_section_title
;
Structure prediction by ZEFSAII (Michael W. Deem and Ramdas Pophale) SiO2 
 PCOD8281150
Probable space group: C M M A
;
_chemical_formula_sum "Si O2"
_cell_formula_units_Z 56
_cell_length_a 20.402083
_cell_length_b 14.510816
_cell_length_c 9.256968
_cell_angle_alpha 90.000000
_cell_angle_beta 90.000000
_cell_angle_gamma 90.000000
_cell_volume 2740.533452
_symmetry_space_group_name_H-M "C M M A"
_symmetry_group_IT_number 67
_symmetry_cell_setting 'orthorhombic'
loop_
_space_group_symop_operation_xyz
x,y,z
-x,1/2-y,z
x,-y,-z
-x,1/2+y,-z
-x,-y,-z
x,1/2+y,-z
-x,y,z
x,1/2-y,z
1/2+x,1/2+y,z
1/2-x,-y,z
1/2+x,1/2-y,-z
1/2-x,y,-z
1/2-x,1/2-y,-z
1/2+x,y,-z
1/2-x,1/2+y,z
1/2+x,-y,z
loop_
_atom_site_type_symbol
_atom_site_label
_atom_site_fract_x
_atom_site_fract_y
_atom_site_fract_z
Si Si1 0.119660 0.388173 0.336581
Si Si2 0.429316 0.250000 0.880270
Si Si3 0.132206 0.750000 0.172857
Si Si4 0.923552 0.589253 0.348285
Si Si5 0.268015 0.250000 0.665063
O O1 0.072586 0.340697 0.220090
O O2 0.095618 0.365056 0.498850
O O3 0.119584 0.498135 0.316727
O O4 0.191055 0.343608 0.307689
O O5 0.500000 0.250000 0.959056
O O6 0.370965 0.250000 0.998641
O O7 0.092987 0.839637 0.223614
O O8 0.206585 0.750000 0.227469
O O9 0.000000 0.562362 0.348088
O O10 0.250000 0.250000 0.500000
#
# Coordination Sequence:
#
# PCOD8281150 Si02
#       5
#    16   8   8  16   8
#     4  10  22  38  65  89 121 166 211 269 316 374
#     4  11  22  40  62  93 131 171 209 265 334 392
#     4  12  25  38  60  91 130 174 207 257 324 380
#     4  11  21  39  63  96 123 160 218 271 319 373
#     4  11  21  43  62  92 124 164 214 256 313 385
#
# _framework density 20.433979999999998
#
# number of rings (size 3 to 8) (size 9 to 14) (size 15 to 20)
#    0.000    1.143    2.857    5.571    0.000    4.571 
#    0.000    2.857    0.000    6.857    0.000    0.000 
#    0.000    0.000    0.000    0.000    0.000    0.000 
#
# Total GULP energy -347162.376810 kJ/mol
# GULP energy per Si atom -12398.656315 kJ/mol
# Density = 2.038747 g / cm^3
# Si number density = 20.433980 Si / 1000 Ang^3
#
#
#
# Elastic Constant Matrix: (Units=GPa)
#
#
# Indices 1 2 3 4 5 6 
#
# 1 132.6308 44.1539 41.7590 0.0000 0.0000 0.0000
# 2 44.1539 137.9460 58.3325 0.0000 0.0000 0.0000
# 3 41.7590 58.3325 121.0308 0.0000 0.0000 0.0000
# 4 0.0000 0.0000 0.0000 8.6087 0.0000 0.0000
# 5 0.0000 0.0000 0.0000 0.0000 34.0223 0.0000
# 6 0.0000 0.0000 0.0000 0.0000 0.0000 21.1573
#
#
#
# Elastic Compliance Matrix: (Units=1/GPa)
#
#
# Indices 1 2 3 4 5 6 
#
# 1 0.008852 -0.001937 -0.002121 0.000000 0.000000 0.000000
# 2 -0.001937 0.009528 -0.003924 0.000000 0.000000 0.000000
# 3 -0.002121 -0.003924 0.010885 0.000000 0.000000 0.000000
# 4 0.000000 0.000000 0.000000 0.116162 0.000000 0.000000
# 5 0.000000 0.000000 0.000000 0.000000 0.029392 0.000000
# 6 0.000000 0.000000 0.000000 0.000000 0.000000 0.047265
#
#
# Mechanical properties :
#
#
# Convention : Reuss Voigt Hill
#
# Bulk Modulus (GPa) = 75.17230 75.56649 75.36939
# Shear Modulus (GPa) = 20.61997 29.24846 24.93422
#
# Velocity S-wave (km/s) = 3.18008 3.78744 3.49697
# Velocity P-wave (km/s) = 7.09589 7.49582 7.29860
#
# Compressibility (1/GPa) = 0.01330277
#
# Stress axis : x y z
#
# Youngs Moduli (GPa) = 112.96634 104.94844 91.86565
#
# Poissons Ratio (x) = 0.20324 0.19484
# Poissons Ratio (y) = 0.21877 0.36050
# Poissons Ratio (z) = 0.23959 0.41184
#
# Static dielectric constant tensor:
#      x y z
#    x 3.839600 0.000000 0.000000 
#    y 0.000000 3.603010 0.000000 
#    z 0.000000 0.000000 3.607940 
# 
# 
# High freq. dielectric constant tensor:
#      x y z
#    x 1.798520 0.000000 0.000000 
#    y 0.000000 1.803290 0.000000 
#    z 0.000000 0.000000 1.793500 
# 
# From -- ./inp_files/7715.got.cif
#   From: 2010.03.12/outbox.cif.g09.slc.cpg/sg67_4_cif.got.tgz:7715.got - 2010.04.10 22:41:39.
