data_PCOD8281676
_publ_section_title
;
Structure prediction by ZEFSAII (Michael W. Deem and Ramdas Pophale) SiO2 
 PCOD8281676
Probable space group: C C C A
;
_chemical_formula_sum "Si O2"
_cell_formula_units_Z 96
_cell_length_a 20.758913
_cell_length_b 14.181759
_cell_length_c 19.121026
_cell_angle_alpha 90.000000
_cell_angle_beta 90.000000
_cell_angle_gamma 90.000000
_cell_volume 5629.189924
_symmetry_space_group_name_H-M "C C C A"
_symmetry_group_IT_number 68
_space_group.IT_coordinate_system_code '2'
_symmetry_cell_setting 'orthorhombic'
loop_
_space_group_symop_operation_xyz
x,y,z
-x,1/2-y,z
x,1/2-y,1/2-z
-x,y,1/2-z
-x,-y,-z
x,1/2+y,-z
-x,1/2+y,1/2+z
x,-y,1/2+z
1/2+x,1/2+y,z
1/2-x,-y,z
1/2+x,-y,1/2-z
1/2-x,1/2+y,1/2-z
1/2-x,1/2-y,-z
1/2+x,y,-z
1/2-x,y,1/2+z
1/2+x,1/2-y,1/2+z
loop_
_atom_site_type_symbol
_atom_site_label
_atom_site_fract_x
_atom_site_fract_y
_atom_site_fract_z
Si Si1 0.476513 0.347642 0.441460
Si Si2 0.616925 0.386282 0.431500
Si Si3 0.143288 0.918151 0.981559
Si Si4 0.118507 0.773679 0.171902
Si Si5 0.311956 0.273237 0.954627
Si Si6 0.225873 0.598500 0.378909
O O1 0.500000 0.250000 0.478084
O O2 0.540557 0.407572 0.425616
O O3 0.429659 0.408684 0.490092
O O4 0.441418 0.319466 0.368834
O O5 0.651632 0.487986 0.434821
O O6 0.641011 0.323550 0.366079
O O7 0.633769 0.328141 0.501435
O O8 0.158462 0.828005 0.932240
O O9 0.192069 0.922628 0.046757
O O10 0.096850 0.750000 0.250000
O O11 0.177524 0.847852 0.173170
O O12 0.289414 0.335987 0.889046
O O13 0.250000 0.250000 0.000000
O O14 0.250000 0.500000 0.345418
#
# Coordination Sequence:
#
# PCOD8281676 Si02
#       6
#    16  16  16  16  16  16
#     4   9  17  31  47  71 102 132 162 205 257 300
#     4  11  18  29  51  74  99 132 166 208 256 306
#     4  10  18  28  47  76 104 125 163 212 258 311
#     4  10  21  36  50  72 105 138 176 206 241 301
#     4  10  17  29  46  75 102 129 162 208 265 309
#     4  10  18  32  53  71  99 139 168 205 264 306
#
# _framework density 17.053963
#
# number of rings (size 3 to 8) (size 9 to 14) (size 15 to 20)
#    0.000    2.000    8.333    0.500    0.000    3.000 
#    0.000    1.667    0.000    0.000    0.000    0.000 
#    0.000    0.000    0.000    0.000    0.000    0.000 
#
# Total GULP energy -594793.893532 kJ/mol
# GULP energy per Si atom -12391.539449 kJ/mol
# Density = 1.701515 g / cm^3
# Si number density = 17.053963 Si / 1000 Ang^3
#
#
#
# Elastic Constant Matrix: (Units=GPa)
#
#
# Indices 1 2 3 4 5 6 
#
# 1 77.0421 33.3277 18.1356 0.0000 0.0000 0.0000
# 2 33.3277 131.8448 19.4757 0.0000 0.0000 0.0000
# 3 18.1356 19.4757 33.0679 0.0000 0.0000 0.0000
# 4 0.0000 0.0000 0.0000 13.2710 0.0000 0.0000
# 5 0.0000 0.0000 0.0000 0.0000 11.3731 0.0000
# 6 0.0000 0.0000 0.0000 0.0000 0.0000 30.4286
#
#
#
# Elastic Compliance Matrix: (Units=1/GPa)
#
#
# Indices 1 2 3 4 5 6 
#
# 1 0.015915 -0.002994 -0.006965 0.000000 0.000000 0.000000
# 2 -0.002994 0.008871 -0.003582 0.000000 0.000000 0.000000
# 3 -0.006965 -0.003582 0.036170 0.000000 0.000000 0.000000
# 4 0.000000 0.000000 0.000000 0.075352 0.000000 0.000000
# 5 0.000000 0.000000 0.000000 0.000000 0.087927 0.000000
# 6 0.000000 0.000000 0.000000 0.000000 0.000000 0.032864
#
#
# Mechanical properties :
#
#
# Convention : Reuss Voigt Hill
#
# Bulk Modulus (GPa) = 29.52184 42.64809 36.08496
# Shear Modulus (GPa) = 16.92208 22.41561 19.66884
#
# Velocity S-wave (km/s) = 3.15344 3.62939 3.39976
# Velocity P-wave (km/s) = 5.53239 6.52881 6.05114
#
# Compressibility (1/GPa) = 0.03387323
#
# Stress axis : x y z
#
# Youngs Moduli (GPa) = 62.83533 112.73064 27.64687
#
# Poissons Ratio (x) = 0.33752 0.19255
# Poissons Ratio (y) = 0.18813 0.09904
# Poissons Ratio (z) = 0.43763 0.40385
#
# Static dielectric constant tensor:
#      x y z
#    x 3.456290 0.000000 0.000000 
#    y 0.000000 3.503040 0.000000 
#    z 0.000000 0.000000 2.608560 
# 
# 
# High freq. dielectric constant tensor:
#      x y z
#    x 1.669890 0.000000 0.000000 
#    y 0.000000 1.670950 0.000000 
#    z 0.000000 0.000000 1.580500 
# 
# From -- ./inp_files/38857.got.cif
#   From: 2010.03.12/outbox.cif.g09.slc.cpg/sg68_20_cif.got.tgz:38857.got - 2010.04.10 23:14:56.
