data_PCOD8281814
_publ_section_title
;
Structure prediction by ZEFSAII (Michael W. Deem and Ramdas Pophale) SiO2 
 PCOD8281814
Probable space group: C C C A
;
_chemical_formula_sum "Si O2"
_cell_formula_units_Z 96
_cell_length_a 22.476619
_cell_length_b 17.300621
_cell_length_c 12.165734
_cell_angle_alpha 90.000000
_cell_angle_beta 90.000000
_cell_angle_gamma 90.000000
_cell_volume 4730.760835
_symmetry_space_group_name_H-M "C C C A"
_symmetry_group_IT_number 68
_space_group.IT_coordinate_system_code '2'
_symmetry_cell_setting 'orthorhombic'
loop_
_space_group_symop_operation_xyz
x,y,z
-x,1/2-y,z
x,1/2-y,1/2-z
-x,y,1/2-z
-x,-y,-z
x,1/2+y,-z
-x,1/2+y,1/2+z
x,-y,1/2+z
1/2+x,1/2+y,z
1/2-x,-y,z
1/2+x,-y,1/2-z
1/2-x,1/2+y,1/2-z
1/2-x,1/2-y,-z
1/2+x,y,-z
1/2-x,y,1/2+z
1/2+x,1/2-y,1/2+z
loop_
_atom_site_type_symbol
_atom_site_label
_atom_site_fract_x
_atom_site_fract_y
_atom_site_fract_z
Si Si1 0.595898 0.601999 0.105894
Si Si2 0.377075 0.750000 0.750000
Si Si3 0.907096 0.593160 0.346396
Si Si4 0.819996 0.732687 0.627960
Si Si5 0.000000 0.474676 0.250000
Si Si6 0.301971 0.669681 0.933783
Si Si7 0.315912 0.477074 0.304508
O O1 0.616103 0.689805 0.130495
O O2 0.533303 0.581152 0.163074
O O3 0.647521 0.550433 0.157589
O O4 0.590527 0.593679 0.976446
O O5 0.418272 0.678244 0.707990
O O6 0.334950 0.727734 0.851184
O O7 0.955667 0.531188 0.311765
O O8 0.843074 0.564046 0.303234
O O9 0.798498 0.750000 0.750000
O O10 0.769383 0.680045 0.570849
O O11 0.825527 0.811553 0.556887
O O12 0.317359 0.581379 0.907781
O O13 0.250000 0.500000 0.269561
#
# Coordination Sequence:
#
# PCOD8281814 Si02
#       7
#    16   8  16  16   8  16  16
#     4  11  22  42  63  92 126 172 213 266 327 382
#     4  10  18  37  62  94 124 161 208 260 314 380
#     4  10  22  39  66  89 124 168 219 271 320 380
#     4  11  22  36  61  89 128 169 204 250 320 389
#     4  10  24  43  65  88 126 166 222 280 320 372
#     4  10  20  35  57  92 132 165 198 255 312 386
#     4  10  21  36  58  97 132 165 209 255 324 398
#
# _framework density 20.292719999999999
#
# number of rings (size 3 to 8) (size 9 to 14) (size 15 to 20)
#    0.000    1.667    4.167    0.500    0.000    3.667 
#    0.000    2.083    3.667    0.000    0.000    0.000 
#    0.000    0.000    0.000    0.000    0.000    0.000 
#
# Total GULP energy -595148.986377 kJ/mol
# GULP energy per Si atom -12398.937216 kJ/mol
# Density = 2.024653 g / cm^3
# Si number density = 20.292720 Si / 1000 Ang^3
#
#
#
# Elastic Constant Matrix: (Units=GPa)
#
#
# Indices 1 2 3 4 5 6 
#
# 1 104.0340 46.7019 44.2994 0.0000 0.0000 0.0000
# 2 46.7019 79.3393 39.2410 0.0000 0.0000 0.0000
# 3 44.2994 39.2410 147.4971 0.0000 0.0000 0.0000
# 4 0.0000 0.0000 0.0000 27.4773 0.0000 0.0000
# 5 0.0000 0.0000 0.0000 0.0000 23.0518 0.0000
# 6 0.0000 0.0000 0.0000 0.0000 0.0000 20.0038
#
#
#
# Elastic Compliance Matrix: (Units=1/GPa)
#
#
# Indices 1 2 3 4 5 6 
#
# 1 0.013692 -0.006939 -0.002266 0.000000 0.000000 0.000000
# 2 -0.006939 0.018030 -0.002713 0.000000 0.000000 0.000000
# 3 -0.002266 -0.002713 0.008182 0.000000 0.000000 0.000000
# 4 0.000000 0.000000 0.000000 0.036394 0.000000 0.000000
# 5 0.000000 0.000000 0.000000 0.000000 0.043381 0.000000
# 6 0.000000 0.000000 0.000000 0.000000 0.000000 0.049990
#
#
# Mechanical properties :
#
#
# Convention : Reuss Voigt Hill
#
# Bulk Modulus (GPa) = 62.23259 65.70611 63.96935
# Shear Modulus (GPa) = 25.14312 27.48179 26.31245
#
# Velocity S-wave (km/s) = 3.52379 3.68403 3.60480
# Velocity P-wave (km/s) = 6.87679 7.10954 6.99413
#
# Compressibility (1/GPa) = 0.01606875
#
# Stress axis : x y z
#
# Youngs Moduli (GPa) = 73.03453 55.46216 122.21648
#
# Poissons Ratio (x) = 0.38484 0.27698
# Poissons Ratio (y) = 0.50677 0.33156
# Poissons Ratio (z) = 0.16552 0.15046
#
# Static dielectric constant tensor:
#      x y z
#    x 3.656810 0.000000 0.000000 
#    y 0.000000 3.846460 0.000000 
#    z 0.000000 0.000000 3.694710 
# 
# 
# High freq. dielectric constant tensor:
#      x y z
#    x 1.777870 0.000000 0.000000 
#    y 0.000000 1.795590 0.000000 
#    z 0.000000 0.000000 1.797360 
# 
# From -- ./inp_files/14658.got.cif
#   From: 2010.03.12/outbox.cif.g09.slc.cpg/sg68_8_cif.got.tgz:14658.got - 2010.04.10 23:14:56.
