data_PCOD8281662
_publ_section_title
;
Structure prediction by ZEFSAII (Michael W. Deem and Ramdas Pophale) SiO2 
 PCOD8281662
Probable space group: C C C A
;
_chemical_formula_sum "Si O2"
_cell_formula_units_Z 56
_cell_length_a 8.795292
_cell_length_b 14.871933
_cell_length_c 19.617894
_cell_angle_alpha 90.000000
_cell_angle_beta 90.000000
_cell_angle_gamma 90.000000
_cell_volume 2566.079258
_symmetry_space_group_name_H-M "C C C A"
_symmetry_group_IT_number 68
_space_group.IT_coordinate_system_code '2'
_symmetry_cell_setting 'orthorhombic'
loop_
_space_group_symop_operation_xyz
x,y,z
-x,1/2-y,z
x,1/2-y,1/2-z
-x,y,1/2-z
-x,-y,-z
x,1/2+y,-z
-x,1/2+y,1/2+z
x,-y,1/2+z
1/2+x,1/2+y,z
1/2-x,-y,z
1/2+x,-y,1/2-z
1/2-x,1/2+y,1/2-z
1/2-x,1/2-y,-z
1/2+x,y,-z
1/2-x,y,1/2+z
1/2+x,1/2-y,1/2+z
loop_
_atom_site_type_symbol
_atom_site_label
_atom_site_fract_x
_atom_site_fract_y
_atom_site_fract_z
Si Si1 0.220545 0.902683 0.593625
Si Si2 0.000000 0.750000 0.750000
Si Si3 0.421036 0.155176 0.970160
Si Si4 0.745289 0.285285 0.844283
Si Si5 0.000000 0.750000 0.250000
O O1 0.349208 0.889358 0.535979
O O2 0.238947 0.823923 0.648983
O O3 0.050999 0.906813 0.562082
O O4 0.250000 0.000000 0.627796
O O5 0.102543 0.814141 0.797756
O O6 0.500000 0.250000 0.988453
O O7 0.277233 0.169014 0.917852
O O8 0.897455 0.310709 0.801900
#
# Coordination Sequence:
#
# PCOD8281662 Si02
#       5
#    16   4  16  16   4
#     4  11  22  36  58  90 121 147 181 241 302 341
#     4  10  16  38  60  78 104 150 206 228 280 326
#     4  10  20  37  60  86 112 153 190 238 281 349
#     4  10  20  37  60  84 109 150 201 237 280 340
#     4  10  24  34  64  86 104 154 210 248 256 342
#
# _framework density 21.823177000000001
#
# number of rings (size 3 to 8) (size 9 to 14) (size 15 to 20)
#    0.000    1.714    4.286    4.286    6.000    0.000 
#    0.000    1.429    0.000    0.000    0.000    0.000 
#    0.000    0.000    0.000    0.000    0.000    0.000 
#
# Total GULP energy -346918.284328 kJ/mol
# GULP energy per Si atom -12389.938726 kJ/mol
# Density = 2.177351 g / cm^3
# Si number density = 21.823177 Si / 1000 Ang^3
#
#
#
# Elastic Constant Matrix: (Units=GPa)
#
#
# Indices 1 2 3 4 5 6 
#
# 1 120.4549 9.9435 19.4889 0.0000 0.0000 0.0000
# 2 9.9435 86.0023 11.7502 0.0000 0.0000 0.0000
# 3 19.4889 11.7502 68.1353 0.0000 0.0000 0.0000
# 4 0.0000 0.0000 0.0000 8.5074 0.0000 0.0000
# 5 0.0000 0.0000 0.0000 0.0000 42.1569 0.0000
# 6 0.0000 0.0000 0.0000 0.0000 0.0000 14.5129
#
#
#
# Elastic Compliance Matrix: (Units=1/GPa)
#
#
# Indices 1 2 3 4 5 6 
#
# 1 0.008744 -0.000685 -0.002383 0.000000 0.000000 0.000000
# 2 -0.000685 0.011962 -0.001867 0.000000 0.000000 0.000000
# 3 -0.002383 -0.001867 0.015680 0.000000 0.000000 0.000000
# 4 0.000000 0.000000 0.000000 0.117545 0.000000 0.000000
# 5 0.000000 0.000000 0.000000 0.000000 0.023721 0.000000
# 6 0.000000 0.000000 0.000000 0.000000 0.000000 0.068904
#
#
# Mechanical properties :
#
#
# Convention : Reuss Voigt Hill
#
# Bulk Modulus (GPa) = 37.71324 39.66196 38.68760
# Shear Modulus (GPa) = 18.84905 28.59609 23.72257
#
# Velocity S-wave (km/s) = 2.94209 3.62381 3.30060
# Velocity P-wave (km/s) = 5.37215 5.97687 5.68256
#
# Compressibility (1/GPa) = 0.02651589
#
# Stress axis : x y z
#
# Youngs Moduli (GPa) = 114.36443 83.59871 63.77467
#
# Poissons Ratio (x) = 0.05730 0.15197
# Poissons Ratio (y) = 0.07839 0.11906
# Poissons Ratio (z) = 0.27251 0.15606
#
# Static dielectric constant tensor:
#      x y z
#    x 4.263790 0.000000 0.000000 
#    y 0.000000 3.451620 0.000000 
#    z 0.000000 0.000000 3.959470 
# 
# 
# High freq. dielectric constant tensor:
#      x y z
#    x 1.882310 0.000000 0.000000 
#    y 0.000000 1.787800 0.000000 
#    z 0.000000 0.000000 1.859940 
# 
# From -- ./inp_files/35636.got.cif
#   From: 2010.03.12/outbox.cif.g09.slc.cpg/sg68_18_cif.got.tgz:35636.got - 2010.04.10 23:14:56.
