data_PCOD8281155
_publ_section_title
;
Structure prediction by ZEFSAII (Michael W. Deem and Ramdas Pophale) SiO2 
 PCOD8281155
Probable space group: C M M A
;
_chemical_formula_sum "Si O2"
_cell_formula_units_Z 88
_cell_length_a 14.622654
_cell_length_b 14.135422
_cell_length_c 20.832401
_cell_angle_alpha 90.000000
_cell_angle_beta 90.000000
_cell_angle_gamma 90.000000
_cell_volume 4306.002811
_symmetry_space_group_name_H-M "C M M A"
_symmetry_group_IT_number 67
_symmetry_cell_setting 'orthorhombic'
loop_
_space_group_symop_operation_xyz
x,y,z
-x,1/2-y,z
x,-y,-z
-x,1/2+y,-z
-x,-y,-z
x,1/2+y,-z
-x,y,z
x,1/2-y,z
1/2+x,1/2+y,z
1/2-x,-y,z
1/2+x,1/2-y,-z
1/2-x,y,-z
1/2-x,1/2-y,-z
1/2+x,y,-z
1/2-x,1/2+y,z
1/2+x,-y,z
loop_
_atom_site_type_symbol
_atom_site_label
_atom_site_fract_x
_atom_site_fract_y
_atom_site_fract_z
Si Si1 0.107867 0.979078 0.603883
Si Si2 0.500000 0.137851 0.124153
Si Si3 0.808887 0.362169 0.818321
Si Si4 0.250000 0.000000 0.710659
Si Si5 0.194494 0.362393 0.060792
Si Si6 0.500000 0.637431 0.019892
Si Si7 0.107889 0.145634 0.513640
O O1 0.133285 0.082049 0.575003
O O2 0.000000 0.969804 0.618502
O O3 0.164084 0.965110 0.668761
O O4 0.142512 0.901135 0.552575
O O5 0.500000 0.250000 0.117017
O O6 0.410677 0.104515 0.162649
O O7 0.500000 0.094432 0.052191
O O8 0.803656 0.250000 0.808532
O O9 0.780547 0.410662 0.752410
O O10 0.739744 0.398352 0.873541
O O11 0.199675 0.250000 0.058310
O O12 0.089735 0.398189 0.057755
O O13 0.250000 0.403743 0.000000
O O14 0.500000 0.750000 0.015306
O O15 0.151465 0.250000 0.521755
O O16 0.000000 0.151552 0.508597
#
# Coordination Sequence:
#
# PCOD8281155 Si02
#       7
#    16   8  16   8  16   8  16
#     4   9  20  38  57  83 118 150 187 232 281 337
#     4   9  16  32  61  87 106 139 191 246 302 348
#     4  10  22  39  57  82 114 152 196 240 287 348
#     4  12  26  39  55  80 118 166 198 232 276 334
#     4   9  15  28  52  80 109 139 183 242 298 349
#     4   9  14  24  53  87 107 136 179 241 317 358
#     4   8  15  33  63  92 115 142 181 236 292 334
#
# _framework density 20.436586999999999
#
# number of rings (size 3 to 8) (size 9 to 14) (size 15 to 20)
#    0.000    2.727    1.818    1.091    1.273    2.909 
#    1.636    1.364    0.000    1.091    0.000    0.000 
#    0.000    0.000    0.000    0.000    0.000    0.000 
#
# Total GULP energy -545523.848780 kJ/mol
# GULP energy per Si atom -12398.269290 kJ/mol
# Density = 2.039007 g / cm^3
# Si number density = 20.436587 Si / 1000 Ang^3
#
#
#
# Elastic Constant Matrix: (Units=GPa)
#
#
# Indices 1 2 3 4 5 6 
#
# 1 150.0459 22.1294 70.8019 0.0000 0.0000 0.0000
# 2 22.1294 72.3028 27.2494 0.0000 0.0000 0.0000
# 3 70.8019 27.2494 136.2163 0.0000 0.0000 0.0000
# 4 0.0000 0.0000 0.0000 -117.7504 0.0000 0.0000
# 5 0.0000 0.0000 0.0000 0.0000 41.7981 0.0000
# 6 0.0000 0.0000 0.0000 0.0000 0.0000 12.1571
#
#
#
# Elastic Compliance Matrix: (Units=1/GPa)
#
#
# Indices 1 2 3 4 5 6 
#
# 1 0.008905 -0.001061 -0.004416 0.000000 0.000000 0.000000
# 2 -0.001061 0.015085 -0.002466 0.000000 0.000000 0.000000
# 3 -0.004416 -0.002466 0.010130 0.000000 0.000000 0.000000
# 4 0.000000 0.000000 0.000000 -0.008493 0.000000 0.000000
# 5 0.000000 0.000000 0.000000 0.000000 0.023925 0.000000
# 6 0.000000 0.000000 0.000000 0.000000 0.000000 0.082256
#
#
# Mechanical properties :
#
#
# Convention : Reuss Voigt Hill
#
# Bulk Modulus (GPa) = 54.84588 66.54737 60.69662
# Shear Modulus (GPa) = 32.51543 3.13326 17.82435
#
# Velocity S-wave (km/s) = 3.99311 1.23955 2.95647
# Velocity P-wave (km/s) = 6.93940 5.88916 6.43574
#
# Compressibility (1/GPa) = 0.01823291
#
# Stress axis : x y z
#
# Youngs Moduli (GPa) = 112.29563 66.29141 98.71550
#
# Poissons Ratio (x) = 0.07034 0.43596
# Poissons Ratio (y) = 0.11916 0.24344
# Poissons Ratio (z) = 0.49594 0.16348
#
# Static dielectric constant tensor:
#      x y z
#    x 3.838690 0.000000 0.000000 
#    y 0.000000 3.835730 0.000000 
#    z 0.000000 0.000000 3.534750 
# 
# 
# High freq. dielectric constant tensor:
#      x y z
#    x 1.807220 0.000000 0.000000 
#    y 0.000000 1.789940 0.000000 
#    z 0.000000 0.000000 1.779550 
# 
# From -- ./inp_files/38345.got.cif
#   From: 2010.03.12/outbox.cif.g09.slc.cpg/sg67_20_cif.got.tgz:38345.got - 2010.04.10 22:41:39.
