data_PCOD8281640
_publ_section_title
;
Structure prediction by ZEFSAII (Michael W. Deem and Ramdas Pophale) SiO2 
 PCOD8281640
Probable space group: C C C A
;
_chemical_formula_sum "Si O2"
_cell_formula_units_Z 52
_cell_length_a 31.357472
_cell_length_b 16.966049
_cell_length_c 5.233092
_cell_angle_alpha 90.000000
_cell_angle_beta 90.000000
_cell_angle_gamma 90.000000
_cell_volume 2784.069868
_symmetry_space_group_name_H-M "C C C A"
_symmetry_group_IT_number 68
_space_group.IT_coordinate_system_code '2'
_symmetry_cell_setting 'orthorhombic'
loop_
_space_group_symop_operation_xyz
x,y,z
-x,1/2-y,z
x,1/2-y,1/2-z
-x,y,1/2-z
-x,-y,-z
x,1/2+y,-z
-x,1/2+y,1/2+z
x,-y,1/2+z
1/2+x,1/2+y,z
1/2-x,-y,z
1/2+x,-y,1/2-z
1/2-x,1/2+y,1/2-z
1/2-x,1/2-y,-z
1/2+x,y,-z
1/2-x,y,1/2+z
1/2+x,1/2-y,1/2+z
loop_
_atom_site_type_symbol
_atom_site_label
_atom_site_fract_x
_atom_site_fract_y
_atom_site_fract_z
Si Si1 0.081440 0.296455 0.509988
Si Si2 0.865035 0.050645 0.456636
Si Si3 0.768336 0.412024 0.053227
Si Si4 0.500000 0.750000 0.750000
O O1 0.090938 0.250000 0.250000
O O2 0.099165 0.383873 0.490422
O O3 0.030462 0.303368 0.567651
O O4 0.103172 0.250000 0.750000
O O5 0.818822 0.090150 0.481015
O O6 0.870927 0.986489 0.677721
O O7 0.750000 0.500000 0.089908
O O8 0.754127 0.368008 0.314172
#
# Coordination Sequence:
#
# PCOD8281640 Si02
#       4
#    16  16  16   4
#     4  10  22  41  64  82 115 158 190 228 294 368
#     4  12  21  34  60  95 116 143 201 249 279 319
#     4  10  16  30  49  80 113 159 180 225 274 349
#     4   8  22  44  66  76 106 172 188 208 306 388
#
# _framework density 18.677693999999999
#
# number of rings (size 3 to 8) (size 9 to 14) (size 15 to 20)
#    0.923    0.615    6.154    2.308    0.000    0.000 
#    0.000    1.538    0.000    5.538    0.000    0.000 
#    0.000    0.000    0.000    0.000    0.000    0.000 
#
# Total GULP energy -322194.381019 kJ/mol
# GULP energy per Si atom -12392.091578 kJ/mol
# Density = 1.863518 g / cm^3
# Si number density = 18.677694 Si / 1000 Ang^3
#
#
#
# Elastic Constant Matrix: (Units=GPa)
#
#
# Indices 1 2 3 4 5 6 
#
# 1 110.9365 38.7961 12.7593 0.0000 0.0000 0.0000
# 2 38.7961 43.0647 17.1187 0.0000 0.0000 0.0000
# 3 12.7593 17.1187 140.5253 0.0000 0.0000 0.0000
# 4 0.0000 0.0000 0.0000 -0.4009 0.0000 0.0000
# 5 0.0000 0.0000 0.0000 0.0000 16.2610 0.0000
# 6 0.0000 0.0000 0.0000 0.0000 0.0000 9.3396
#
#
#
# Elastic Compliance Matrix: (Units=1/GPa)
#
#
# Indices 1 2 3 4 5 6 
#
# 1 0.013170 -0.011968 0.000262 0.000000 0.000000 0.000000
# 2 -0.011968 0.035279 -0.003211 0.000000 0.000000 0.000000
# 3 0.000262 -0.003211 0.007484 0.000000 0.000000 0.000000
# 4 0.000000 0.000000 0.000000 -2.494352 0.000000 0.000000
# 5 0.000000 0.000000 0.000000 0.000000 0.061497 0.000000
# 6 0.000000 0.000000 0.000000 0.000000 0.000000 0.107071
#
#
# Mechanical properties :
#
#
# Convention : Reuss Voigt Hill
#
# Bulk Modulus (GPa) = 38.31703 47.98608 43.15155
# Shear Modulus (GPa) = -2.24083 20.09677 8.92797
#
# Velocity S-wave (km/s) = -1.09651 3.28377 2.18870
# Velocity P-wave (km/s) = 4.35388 6.33442 5.43513
#
# Compressibility (1/GPa) = 0.02609806
#
# Stress axis : x y z
#
# Youngs Moduli (GPa) = 75.93291 28.34515 133.62711
#
# Poissons Ratio (x) = 0.33925 -0.03504
# Poissons Ratio (y) = 0.90879 0.42908
# Poissons Ratio (z) = -0.01991 0.09102
#
# Static dielectric constant tensor:
#      x y z
#    x 3.348690 0.000000 0.000000 
#    y 0.000000 2.854630 0.000000 
#    z 0.000000 0.000000 4.557110 
# 
# 
# High freq. dielectric constant tensor:
#      x y z
#    x 1.720050 0.000000 0.000000 
#    y 0.000000 1.665740 0.000000 
#    z 0.000000 0.000000 1.762670 
# 
# From -- ./inp_files/929.got.cif
#   From: 2010.03.12/outbox.cif.g09.slc.cpg/sg68_1_cif.got.tgz:929.got - 2010.04.10 23:14:56.
