data_PCOD8281128
_publ_section_title
;
Structure prediction by ZEFSAII (Michael W. Deem and Ramdas Pophale) SiO2 
 PCOD8281128
Probable space group: C M M A
;
_chemical_formula_sum "Si O2"
_cell_formula_units_Z 128
_cell_length_a 28.027297
_cell_length_b 23.040437
_cell_length_c 10.684901
_cell_angle_alpha 90.000000
_cell_angle_beta 90.000000
_cell_angle_gamma 90.000000
_cell_volume 6899.894180
_symmetry_space_group_name_H-M "C M M A"
_symmetry_group_IT_number 67
_symmetry_cell_setting 'orthorhombic'
loop_
_space_group_symop_operation_xyz
x,y,z
-x,1/2-y,z
x,-y,-z
-x,1/2+y,-z
-x,-y,-z
x,1/2+y,-z
-x,y,z
x,1/2-y,z
1/2+x,1/2+y,z
1/2-x,-y,z
1/2+x,1/2-y,-z
1/2-x,y,-z
1/2-x,1/2-y,-z
1/2+x,y,-z
1/2-x,1/2+y,z
1/2+x,-y,z
loop_
_atom_site_type_symbol
_atom_site_label
_atom_site_fract_x
_atom_site_fract_y
_atom_site_fract_z
Si Si1 0.817682 0.682131 0.820081
Si Si2 0.946321 0.586750 0.071667
Si Si3 0.140733 0.419898 0.309782
Si Si4 0.052506 0.969099 0.800943
Si Si5 0.714086 0.816282 0.710202
Si Si6 0.155024 0.871631 0.080788
Si Si7 0.196008 0.983714 0.189584
Si Si8 0.200798 0.920371 0.448530
O O1 0.830036 0.750000 0.811930
O O2 0.853104 0.647684 0.726708
O O3 0.763776 0.668709 0.777895
O O4 0.823787 0.659483 0.959949
O O5 0.936742 0.536880 0.174983
O O6 0.902873 0.632135 0.084774
O O7 0.000000 0.613356 0.092652
O O8 0.942964 0.562841 0.932415
O O9 0.086127 0.440268 0.303936
O O10 0.167501 0.455937 0.199044
O O11 0.159795 0.430758 0.449339
O O12 0.000000 0.961475 0.744747
O O13 0.710239 0.750000 0.670334
O O14 0.671696 0.833455 0.802708
O O15 0.708332 0.852427 0.582322
O O16 0.174401 0.938794 0.087255
O O17 0.188168 0.954393 0.323876
O O18 0.250000 0.000000 0.154853
O O19 0.250000 0.946482 0.500000
#
# Coordination Sequence:
#
# PCOD8281128 Si02
#       8
#    16  16  16  16  16  16  16  16
#     4  11  23  37  54  79 113 150 189 226 266 323
#     4   9  17  32  55  82 113 143 178 221 276 341
#     4  12  20  34  58  81 110 146 181 226 277 323
#     4   9  18  33  54  83 113 143 175 219 276 340
#     4  10  22  38  54  76 109 154 196 226 262 321
#     4  11  20  35  55  82 114 147 178 224 286 329
#     4  11  22  34  52  80 117 149 177 221 272 341
#     4  11  21  35  54  78 109 148 182 229 271 317
#
# _framework density 18.551009000000001
#
# number of rings (size 3 to 8) (size 9 to 14) (size 15 to 20)
#    0.000    1.500    5.000    2.625    0.000    2.250 
#    0.000    1.875    0.000    7.125    0.000    0.000 
#    0.000    0.000    0.000    0.000    0.000    0.000 
#
# Total GULP energy -793436.144020 kJ/mol
# GULP energy per Si atom -12397.439750 kJ/mol
# Density = 1.850879 g / cm^3
# Si number density = 18.551009 Si / 1000 Ang^3
#
#
#
# Elastic Constant Matrix: (Units=GPa)
#
#
# Indices 1 2 3 4 5 6 
#
# 1 126.1870 31.3391 29.2311 0.0000 0.0000 0.0000
# 2 31.3391 80.7626 12.8161 0.0000 0.0000 0.0000
# 3 29.2311 12.8161 57.5220 0.0000 0.0000 0.0000
# 4 0.0000 0.0000 0.0000 22.1552 0.0000 0.0000
# 5 0.0000 0.0000 0.0000 0.0000 25.0525 0.0000
# 6 0.0000 0.0000 0.0000 0.0000 0.0000 23.1018
#
#
#
# Elastic Compliance Matrix: (Units=1/GPa)
#
#
# Indices 1 2 3 4 5 6 
#
# 1 0.009669 -0.003081 -0.004227 0.000000 0.000000 0.000000
# 2 -0.003081 0.013818 -0.001513 0.000000 0.000000 0.000000
# 3 -0.004227 -0.001513 0.019870 0.000000 0.000000 0.000000
# 4 0.000000 0.000000 0.000000 0.045136 0.000000 0.000000
# 5 0.000000 0.000000 0.000000 0.000000 0.039916 0.000000
# 6 0.000000 0.000000 0.000000 0.000000 0.000000 0.043287
#
#
# Mechanical properties :
#
#
# Convention : Reuss Voigt Hill
#
# Bulk Modulus (GPa) = 38.88881 45.69380 42.29131
# Shear Modulus (GPa) = 25.26410 26.80094 26.03252
#
# Velocity S-wave (km/s) = 3.69436 3.80507 3.75012
# Velocity P-wave (km/s) = 6.26150 6.63247 6.44965
#
# Compressibility (1/GPa) = 0.02571434
#
# Stress axis : x y z
#
# Youngs Moduli (GPa) = 103.42131 72.37104 50.32761
#
# Poissons Ratio (x) = 0.22299 0.21274
# Poissons Ratio (y) = 0.31867 0.07614
# Poissons Ratio (z) = 0.43717 0.10949
#
# Static dielectric constant tensor:
#      x y z
#    x 3.587380 0.000000 0.000000 
#    y 0.000000 3.521570 0.000000 
#    z 0.000000 0.000000 3.288270 
# 
# 
# High freq. dielectric constant tensor:
#      x y z
#    x 1.708430 0.000000 0.000000 
#    y 0.000000 1.709860 0.000000 
#    z 0.000000 0.000000 1.710470 
# 
# From -- ./inp_files/23263.got.cif
#   From: 2010.03.12/outbox.cif.g09.slc.cpg/sg67_12_cif.got.tgz:23263.got - 2010.04.10 22:41:39.
