data_PCOD8281684
_publ_section_title
;
Structure prediction by ZEFSAII (Michael W. Deem and Ramdas Pophale) SiO2 
 PCOD8281684
Probable space group: C C C A
;
_chemical_formula_sum "Si O2"
_cell_formula_units_Z 92
_cell_length_a 19.217960
_cell_length_b 10.109634
_cell_length_c 25.379908
_cell_angle_alpha 90.000000
_cell_angle_beta 90.000000
_cell_angle_gamma 90.000000
_cell_volume 4930.974557
_symmetry_space_group_name_H-M "C C C A"
_symmetry_group_IT_number 68
_space_group.IT_coordinate_system_code '2'
_symmetry_cell_setting 'orthorhombic'
loop_
_space_group_symop_operation_xyz
x,y,z
-x,1/2-y,z
x,1/2-y,1/2-z
-x,y,1/2-z
-x,-y,-z
x,1/2+y,-z
-x,1/2+y,1/2+z
x,-y,1/2+z
1/2+x,1/2+y,z
1/2-x,-y,z
1/2+x,-y,1/2-z
1/2-x,1/2+y,1/2-z
1/2-x,1/2-y,-z
1/2+x,y,-z
1/2-x,y,1/2+z
1/2+x,1/2-y,1/2+z
loop_
_atom_site_type_symbol
_atom_site_label
_atom_site_fract_x
_atom_site_fract_y
_atom_site_fract_z
Si Si1 0.701450 0.878818 0.502856
Si Si2 0.303498 0.161291 0.846548
Si Si3 0.000000 0.750000 0.250000
Si Si4 0.732496 0.250000 0.250000
Si Si5 0.114138 0.838813 0.176867
Si Si6 0.155659 0.105534 0.888019
Si Si7 0.826255 0.062210 0.387331
O O1 0.750000 0.750000 0.500000
O O2 0.642754 0.876434 0.549209
O O3 0.660225 0.906111 0.448676
O O4 0.750000 0.000000 0.517836
O O5 0.280867 0.151881 0.784962
O O6 0.235216 0.153493 0.882507
O O7 0.338668 0.303021 0.855308
O O8 0.354766 0.041799 0.863640
O O9 0.047441 0.848019 0.214791
O O10 0.684694 0.339114 0.211686
O O11 0.105374 0.702225 0.144315
O O12 0.116968 0.960139 0.135792
O O13 0.750000 0.000000 0.380123
#
# Coordination Sequence:
#
# PCOD8281684 Si02
#       7
#    16  16   4   8  16  16  16
#     4  11  17  27  46  76 120 152 164 199 273 348
#     4  10  18  27  43  73 114 138 167 206 268 328
#     4  10  24  44  60  74  96 152 202 244 280 308
#     4   9  18  29  44  68  98 137 169 218 260 307
#     4  10  21  35  55  72  99 140 195 233 264 322
#     4  10  17  30  46  76 108 146 166 208 264 332
#     4  11  18  29  49  83 114 142 176 220 269 343
#
# _framework density 18.65757
#
# number of rings (size 3 to 8) (size 9 to 14) (size 15 to 20)
#    0.000    1.739    6.957    1.043    0.000    6.957 
#    0.000    0.000    0.000    3.130    0.000    0.000 
#    0.000    0.000    0.000    0.000    0.000    0.000 
#
# Total GULP energy -570143.426780 kJ/mol
# GULP energy per Si atom -12394.422321 kJ/mol
# Density = 1.861510 g / cm^3
# Si number density = 18.657570 Si / 1000 Ang^3
#
#
#
# Elastic Constant Matrix: (Units=GPa)
#
#
# Indices 1 2 3 4 5 6 
#
# 1 34.6485 28.0554 35.4272 0.0000 0.0000 0.0000
# 2 28.0554 146.9864 59.3540 0.0000 0.0000 0.0000
# 3 35.4272 59.3540 162.7163 0.0000 0.0000 0.0000
# 4 0.0000 0.0000 0.0000 23.9245 0.0000 0.0000
# 5 0.0000 0.0000 0.0000 0.0000 21.5427 0.0000
# 6 0.0000 0.0000 0.0000 0.0000 0.0000 8.7217
#
#
#
# Elastic Compliance Matrix: (Units=1/GPa)
#
#
# Indices 1 2 3 4 5 6 
#
# 1 0.039828 -0.004809 -0.006917 0.000000 0.000000 0.000000
# 2 -0.004809 0.008559 -0.002075 0.000000 0.000000 0.000000
# 3 -0.006917 -0.002075 0.008409 0.000000 0.000000 0.000000
# 4 0.000000 0.000000 0.000000 0.041798 0.000000 0.000000
# 5 0.000000 0.000000 0.000000 0.000000 0.046419 0.000000
# 6 0.000000 0.000000 0.000000 0.000000 0.000000 0.114656
#
#
# Mechanical properties :
#
#
# Convention : Reuss Voigt Hill
#
# Bulk Modulus (GPa) = 34.25458 65.55829 49.90644
# Shear Modulus (GPa) = 16.83483 25.60542 21.22013
#
# Velocity S-wave (km/s) = 3.00710 3.70859 3.37612
# Velocity P-wave (km/s) = 5.51873 7.31793 6.48107
#
# Compressibility (1/GPa) = 0.02919317
#
# Stress axis : x y z
#
# Youngs Moduli (GPa) = 25.10810 116.83408 118.92438
#
# Poissons Ratio (x) = 0.56182 0.82265
# Poissons Ratio (y) = 0.12074 0.24679
# Poissons Ratio (z) = 0.17368 0.24245
#
# Static dielectric constant tensor:
#      x y z
#    x 2.678510 0.000000 0.000000 
#    y 0.000000 3.533730 0.000000 
#    z 0.000000 0.000000 3.830900 
# 
# 
# High freq. dielectric constant tensor:
#      x y z
#    x 1.624880 0.000000 0.000000 
#    y 0.000000 1.731550 0.000000 
#    z 0.000000 0.000000 1.753040 
# 
# From -- ./inp_files/46035.got.cif
#   From: 2010.03.12/outbox.cif.g09.slc.cpg/sg68_24_cif.got.tgz:46035.got - 2010.04.10 23:14:56.
