data_PCOD8281870
_publ_section_title
;
Structure prediction by ZEFSAII (Michael W. Deem and Ramdas Pophale) SiO2 
 PCOD8281870
Probable space group: C C C A
;
_chemical_formula_sum "Si O2"
_cell_formula_units_Z 96
_cell_length_a 23.241289
_cell_length_b 23.205371
_cell_length_c 8.284674
_cell_angle_alpha 90.000000
_cell_angle_beta 90.000000
_cell_angle_gamma 90.000000
_cell_volume 4468.113030
_symmetry_space_group_name_H-M "C C C A"
_symmetry_group_IT_number 68
_space_group.IT_coordinate_system_code '2'
_symmetry_cell_setting 'orthorhombic'
loop_
_space_group_symop_operation_xyz
x,y,z
-x,1/2-y,z
x,1/2-y,1/2-z
-x,y,1/2-z
-x,-y,-z
x,1/2+y,-z
-x,1/2+y,1/2+z
x,-y,1/2+z
1/2+x,1/2+y,z
1/2-x,-y,z
1/2+x,-y,1/2-z
1/2-x,1/2+y,1/2-z
1/2-x,1/2-y,-z
1/2+x,y,-z
1/2-x,y,1/2+z
1/2+x,1/2-y,1/2+z
loop_
_atom_site_type_symbol
_atom_site_label
_atom_site_fract_x
_atom_site_fract_y
_atom_site_fract_z
Si Si1 0.086019 0.903800 0.829465
Si Si2 0.295340 0.447124 0.323199
Si Si3 0.271480 0.131915 0.452674
Si Si4 0.025289 0.932535 0.520980
Si Si5 0.322224 0.315624 0.749380
Si Si6 0.417153 0.522987 0.777876
O O1 0.133091 0.854353 0.853289
O O2 0.056378 0.891905 0.653711
O O3 0.111233 0.968786 0.819435
O O4 0.040396 0.906892 0.980891
O O5 0.250000 0.500000 0.329184
O O6 0.299806 0.421564 0.142188
O O7 0.276725 0.395670 0.435829
O O8 0.361406 0.456907 0.379218
O O9 0.318823 0.163063 0.564712
O O10 0.240089 0.178378 0.336449
O O11 0.969281 0.001114 0.396646
O O12 0.056670 0.929773 0.346890
O O13 0.343026 0.250000 0.750000
#
# Coordination Sequence:
#
# PCOD8281870 Si02
#       6
#    16  16  16  16  16  16
#     4   9  20  32  54  77 110 139 192 233 276 331
#     4  11  22  31  56  86 125 159 183 223 291 370
#     4  10  23  38  52  87 116 150 193 237 285 358
#     4   9  20  33  52  80 115 149 186 225 272 352
#     4  11  22  40  62  78 108 151 200 252 295 333
#     4  10  19  32  53  79 118 157 177 220 288 352
#
# _framework density 21.485581
#
# number of rings (size 3 to 8) (size 9 to 14) (size 15 to 20)
#    1.000    1.000    0.000    4.500    7.000    0.000 
#    0.000    1.667    0.000    0.000    0.000    0.000 
#    0.000    0.000    0.000    0.000    0.000    0.000 
#
# Total GULP energy -594635.292051 kJ/mol
# GULP energy per Si atom -12388.235251 kJ/mol
# Density = 2.143668 g / cm^3
# Si number density = 21.485581 Si / 1000 Ang^3
#
#
#
# Elastic Constant Matrix: (Units=GPa)
#
#
# Indices 1 2 3 4 5 6 
#
# 1 101.7332 23.5332 17.8903 0.0000 0.0000 0.0000
# 2 23.5332 89.5251 11.9484 0.0000 0.0000 0.0000
# 3 17.8903 11.9484 70.8892 0.0000 0.0000 0.0000
# 4 0.0000 0.0000 0.0000 21.4890 0.0000 0.0000
# 5 0.0000 0.0000 0.0000 0.0000 28.7378 0.0000
# 6 0.0000 0.0000 0.0000 0.0000 0.0000 21.8706
#
#
#
# Elastic Compliance Matrix: (Units=1/GPa)
#
#
# Indices 1 2 3 4 5 6 
#
# 1 0.010822 -0.002537 -0.002303 0.000000 0.000000 0.000000
# 2 -0.002537 0.012022 -0.001386 0.000000 0.000000 0.000000
# 3 -0.002303 -0.001386 0.014921 0.000000 0.000000 0.000000
# 4 0.000000 0.000000 0.000000 0.046535 0.000000 0.000000
# 5 0.000000 0.000000 0.000000 0.000000 0.034797 0.000000
# 6 0.000000 0.000000 0.000000 0.000000 0.000000 0.045723
#
#
# Mechanical properties :
#
#
# Convention : Reuss Voigt Hill
#
# Bulk Modulus (GPa) = 39.50724 40.98792 40.24758
# Shear Modulus (GPa) = 26.92343 28.33785 27.63064
#
# Velocity S-wave (km/s) = 3.54375 3.63564 3.58999
# Velocity P-wave (km/s) = 5.93059 6.06153 5.99642
#
# Compressibility (1/GPa) = 0.02531181
#
# Stress axis : x y z
#
# Youngs Moduli (GPa) = 92.40758 83.18098 67.01761
#
# Poissons Ratio (x) = 0.21105 0.15437
# Poissons Ratio (y) = 0.23446 0.09289
# Poissons Ratio (z) = 0.21285 0.11529
#
# Static dielectric constant tensor:
#      x y z
#    x 3.773580 0.000000 0.000000 
#    y 0.000000 3.329960 0.000000 
#    z 0.000000 0.000000 4.276760 
# 
# 
# High freq. dielectric constant tensor:
#      x y z
#    x 1.847810 0.000000 0.000000 
#    y 0.000000 1.774180 0.000000 
#    z 0.000000 0.000000 1.866220 
# 
# From -- ./inp_files/8127.got.cif
#   From: 2010.03.12/outbox.cif.g09.slc.cpg/sg68_5_cif.got.tgz:8127.got - 2010.04.10 23:14:56.
