data_PCOD8281106
_publ_section_title
;
Structure prediction by ZEFSAII (Michael W. Deem and Ramdas Pophale) SiO2 
 PCOD8281106
Probable space group: C M M A
;
_chemical_formula_sum "Si O2"
_cell_formula_units_Z 88
_cell_length_a 25.120108
_cell_length_b 8.924232
_cell_length_c 24.939146
_cell_angle_alpha 90.000000
_cell_angle_beta 90.000000
_cell_angle_gamma 90.000000
_cell_volume 5590.799683
_symmetry_space_group_name_H-M "C M M A"
_symmetry_group_IT_number 67
_symmetry_cell_setting 'orthorhombic'
loop_
_space_group_symop_operation_xyz
x,y,z
-x,1/2-y,z
x,-y,-z
-x,1/2+y,-z
-x,-y,-z
x,1/2+y,-z
-x,y,z
x,1/2-y,z
1/2+x,1/2+y,z
1/2-x,-y,z
1/2+x,1/2-y,-z
1/2-x,y,-z
1/2-x,1/2-y,-z
1/2+x,y,-z
1/2-x,1/2+y,z
1/2+x,-y,z
loop_
_atom_site_type_symbol
_atom_site_label
_atom_site_fract_x
_atom_site_fract_y
_atom_site_fract_z
Si Si1 0.896359 0.073154 0.623457
Si Si2 0.500000 0.574508 0.557436
Si Si3 0.438182 0.926081 0.274623
Si Si4 0.806896 0.070388 0.444255
Si Si5 0.436669 0.583942 0.155722
Si Si6 0.936507 0.417137 0.947634
O O1 0.885255 0.250000 0.619152
O O2 0.948174 0.023350 0.590101
O O3 0.903960 0.026629 0.685083
O O4 0.846848 0.978156 0.602173
O O5 0.500000 0.750000 0.548446
O O6 0.500000 0.500000 0.500000
O O7 0.500000 0.964084 0.283133
O O8 0.427882 0.750000 0.284057
O O9 0.419691 0.974333 0.214663
O O10 0.803149 0.250000 0.448816
O O11 0.827895 0.000000 0.500000
O O12 0.750000 0.000000 0.430038
O O13 0.500000 0.587648 0.153347
O O14 0.413982 0.750000 0.146697
O O15 0.413177 0.483785 0.107724
O O16 0.915306 0.250000 0.951492
O O17 0.000000 0.426128 0.946974
O O18 0.913790 0.500000 0.000000
#
# Coordination Sequence:
#
# PCOD8281106 Si02
#       6
#    16   8  16  16  16  16
#     4  11  21  34  49  70  95 122 152 185 223 267
#     4  10  22  34  46  66  92 120 147 178 219 262
#     4   9  17  29  44  62  85 116 150 183 222 266
#     4  11  22  38  57  76  94 117 146 183 225 271
#     4   8  14  24  36  50  71 100 136 176 216 258
#     4   9  15  21  30  45  65  92 129 173 219 259
#
# _framework density 15.740145999999999
#
# number of rings (size 3 to 8) (size 9 to 14) (size 15 to 20)
#    0.000    2.364    0.909    4.909    0.000    5.818 
#    0.000    1.818    0.000    0.000    0.000    0.000 
#    0.000    0.000    0.000    0.000    0.000    0.909 
#
# Total GULP energy -545479.444578 kJ/mol
# GULP energy per Si atom -12397.260104 kJ/mol
# Density = 1.570432 g / cm^3
# Si number density = 15.740146 Si / 1000 Ang^3
#
#
#
# Elastic Constant Matrix: (Units=GPa)
#
#
# Indices 1 2 3 4 5 6 
#
# 1 39.5789 29.8933 35.1735 0.0000 0.0000 0.0000
# 2 29.8933 105.4349 65.1831 0.0000 0.0000 0.0000
# 3 35.1735 65.1831 146.0937 0.0000 0.0000 0.0000
# 4 0.0000 0.0000 0.0000 33.7998 0.0000 0.0000
# 5 0.0000 0.0000 0.0000 0.0000 9.2674 0.0000
# 6 0.0000 0.0000 0.0000 0.0000 0.0000 16.1871
#
#
#
# Elastic Compliance Matrix: (Units=1/GPa)
#
#
# Indices 1 2 3 4 5 6 
#
# 1 0.035125 -0.006533 -0.005542 0.000000 0.000000 0.000000
# 2 -0.006533 0.014312 -0.004813 0.000000 0.000000 0.000000
# 3 -0.005542 -0.004813 0.010327 0.000000 0.000000 0.000000
# 4 0.000000 0.000000 0.000000 0.029586 0.000000 0.000000
# 5 0.000000 0.000000 0.000000 0.000000 0.107905 0.000000
# 6 0.000000 0.000000 0.000000 0.000000 0.000000 0.061778
#
#
# Mechanical properties :
#
#
# Convention : Reuss Voigt Hill
#
# Bulk Modulus (GPa) = 38.47809 61.28972 49.88390
# Shear Modulus (GPa) = 16.58539 22.57471 19.58005
#
# Velocity S-wave (km/s) = 3.24960 3.79121 3.53080
# Velocity P-wave (km/s) = 6.21118 7.62806 6.95579
#
# Compressibility (1/GPa) = 0.02598882
#
# Stress axis : x y z
#
# Youngs Moduli (GPa) = 28.46968 69.87067 96.83703
#
# Poissons Ratio (x) = 0.45643 0.53668
# Poissons Ratio (y) = 0.18598 0.46607
# Poissons Ratio (z) = 0.15778 0.33628
#
# Static dielectric constant tensor:
#      x y z
#    x 2.534520 0.000000 0.000000 
#    y 0.000000 3.094640 0.000000 
#    z 0.000000 0.000000 3.196650 
# 
# 
# High freq. dielectric constant tensor:
#      x y z
#    x 1.535900 0.000000 0.000000 
#    y 0.000000 1.614650 0.000000 
#    z 0.000000 0.000000 1.617230 
# 
# From -- ./inp_files/42373.got.cif
#   From: 2010.03.12/outbox.cif.g09.slc.cpg/sg67_22_cif.got.tgz:42373.got - 2010.04.10 22:41:39.
