data_PCOD8281907
_publ_section_title
;
Structure prediction by ZEFSAII (Michael W. Deem and Ramdas Pophale) SiO2 
 PCOD8281907
Probable space group: C C C A
;
_chemical_formula_sum "Si O2"
_cell_formula_units_Z 96
_cell_length_a 10.369272
_cell_length_b 20.587306
_cell_length_c 23.648654
_cell_angle_alpha 90.000000
_cell_angle_beta 90.000000
_cell_angle_gamma 90.000000
_cell_volume 5048.405297
_symmetry_space_group_name_H-M "C C C A"
_symmetry_group_IT_number 68
_space_group.IT_coordinate_system_code '2'
_symmetry_cell_setting 'orthorhombic'
loop_
_space_group_symop_operation_xyz
x,y,z
-x,1/2-y,z
x,1/2-y,1/2-z
-x,y,1/2-z
-x,-y,-z
x,1/2+y,-z
-x,1/2+y,1/2+z
x,-y,1/2+z
1/2+x,1/2+y,z
1/2-x,-y,z
1/2+x,-y,1/2-z
1/2-x,1/2+y,1/2-z
1/2-x,1/2-y,-z
1/2+x,y,-z
1/2-x,y,1/2+z
1/2+x,1/2-y,1/2+z
loop_
_atom_site_type_symbol
_atom_site_label
_atom_site_fract_x
_atom_site_fract_y
_atom_site_fract_z
Si Si1 0.007990 0.824653 0.084247
Si Si2 0.857541 0.326757 0.245894
Si Si3 0.718537 0.180366 0.877211
Si Si4 0.754033 0.833741 0.136901
Si Si5 0.688152 0.065088 0.548022
Si Si6 0.079843 0.888311 0.525792
O O1 0.902602 0.854474 0.126943
O O2 0.000000 0.750000 0.097053
O O3 0.149357 0.850346 0.099097
O O4 0.971251 0.836546 0.019581
O O5 0.865325 0.250000 0.250000
O O6 0.796203 0.347140 0.186224
O O7 0.774372 0.352979 0.298416
O O8 0.000000 0.357035 0.250000
O O9 0.718124 0.258893 0.877685
O O10 0.604651 0.151612 0.916276
O O11 0.674226 0.877566 0.093563
O O12 0.785358 0.080392 0.495576
O O13 0.536447 0.058029 0.530333
O O14 0.750000 0.000000 0.575501
#
# Coordination Sequence:
#
# PCOD8281907 Si02
#       6
#    16  16  16  16  16  16
#     4   9  19  31  49  83 115 142 175 218 282 342
#     4   9  17  31  50  80 110 138 174 217 274 335
#     4  10  19  33  56  85 113 140 177 230 288 339
#     4   9  20  34  54  81 112 144 180 226 279 336
#     4  11  23  37  54  77 108 151 188 224 270 328
#     4  11  21  35  56  80 110 142 182 233 275 327
#
# _framework density 19.015906000000001
#
# number of rings (size 3 to 8) (size 9 to 14) (size 15 to 20)
#    0.000    2.167    1.667    1.500    2.333    4.000 
#    0.000    3.333    0.000    1.000   17.333    0.000 
#    0.000    0.000    0.000    0.000    0.000    0.000 
#
# Total GULP energy -594703.212639 kJ/mol
# GULP energy per Si atom -12389.650263 kJ/mol
# Density = 1.897262 g / cm^3
# Si number density = 19.015906 Si / 1000 Ang^3
#
#
#
# Elastic Constant Matrix: (Units=GPa)
#
#
# Indices 1 2 3 4 5 6 
#
# 1 132.7841 23.4795 62.9612 0.0000 0.0000 0.0000
# 2 23.4795 43.2094 24.7363 0.0000 0.0000 0.0000
# 3 62.9612 24.7363 140.1297 0.0000 0.0000 0.0000
# 4 0.0000 0.0000 0.0000 11.0104 0.0000 0.0000
# 5 0.0000 0.0000 0.0000 0.0000 21.3820 0.0000
# 6 0.0000 0.0000 0.0000 0.0000 0.0000 20.7230
#
#
#
# Elastic Compliance Matrix: (Units=1/GPa)
#
#
# Indices 1 2 3 4 5 6 
#
# 1 0.009944 -0.003166 -0.003909 0.000000 0.000000 0.000000
# 2 -0.003166 0.026753 -0.003300 0.000000 0.000000 0.000000
# 3 -0.003909 -0.003300 0.009475 0.000000 0.000000 0.000000
# 4 0.000000 0.000000 0.000000 0.090823 0.000000 0.000000
# 5 0.000000 0.000000 0.000000 0.000000 0.046768 0.000000
# 6 0.000000 0.000000 0.000000 0.000000 0.000000 0.048256
#
#
# Mechanical properties :
#
#
# Convention : Reuss Voigt Hill
#
# Bulk Modulus (GPa) = 39.33591 59.83077 49.58334
# Shear Modulus (GPa) = 19.13921 24.28615 21.71268
#
# Velocity S-wave (km/s) = 3.17596 3.57760 3.38274
# Velocity P-wave (km/s) = 5.84633 6.97119 6.43339
#
# Compressibility (1/GPa) = 0.02542206
#
# Stress axis : x y z
#
# Youngs Moduli (GPa) = 100.55883 37.37962 105.53809
#
# Poissons Ratio (x) = 0.11833 0.41258
# Poissons Ratio (y) = 0.31834 0.34828
# Poissons Ratio (z) = 0.39311 0.12336
#
# Static dielectric constant tensor:
#      x y z
#    x 3.969150 0.000000 0.000000 
#    y 0.000000 3.088750 0.000000 
#    z 0.000000 0.000000 3.502620 
# 
# 
# High freq. dielectric constant tensor:
#      x y z
#    x 1.759680 0.000000 0.000000 
#    y 0.000000 1.690080 0.000000 
#    z 0.000000 0.000000 1.734790 
# 
# From -- ./inp_files/37765.got.cif
#   From: 2010.03.12/outbox.cif.g09.slc.cpg/sg68_19_cif.got.tgz:37765.got - 2010.04.10 23:14:56.
