data_PCOD8281458
_publ_section_title
;
Structure prediction by ZEFSAII (Michael W. Deem and Ramdas Pophale) SiO2 
 PCOD8281458
Probable space group: C M M A
;
_chemical_formula_sum "Si O2"
_cell_formula_units_Z 80
_cell_length_a 23.674659
_cell_length_b 8.445448
_cell_length_c 20.250188
_cell_angle_alpha 90.000000
_cell_angle_beta 90.000000
_cell_angle_gamma 90.000000
_cell_volume 4048.885395
_symmetry_space_group_name_H-M "C M M A"
_symmetry_group_IT_number 67
_symmetry_cell_setting 'orthorhombic'
loop_
_space_group_symop_operation_xyz
x,y,z
-x,1/2-y,z
x,-y,-z
-x,1/2+y,-z
-x,-y,-z
x,1/2+y,-z
-x,y,z
x,1/2-y,z
1/2+x,1/2+y,z
1/2-x,-y,z
1/2+x,1/2-y,-z
1/2-x,y,-z
1/2-x,1/2-y,-z
1/2+x,y,-z
1/2-x,1/2+y,z
1/2+x,-y,z
loop_
_atom_site_type_symbol
_atom_site_label
_atom_site_fract_x
_atom_site_fract_y
_atom_site_fract_z
Si Si1 0.310377 0.434368 0.070676
Si Si2 0.500000 0.436097 0.380885
Si Si3 0.812908 0.436466 0.691271
Si Si4 0.000000 0.435674 0.774109
Si Si5 0.382000 0.062608 0.571551
Si Si6 0.381883 0.565130 0.186921
O O1 0.303630 0.250000 0.063430
O O2 0.250000 0.500000 0.093993
O O3 0.356988 0.474560 0.124485
O O4 0.329640 0.500000 0.000000
O O5 0.500000 0.250000 0.396599
O O6 0.500000 0.470603 0.303486
O O7 0.553881 0.516731 0.413435
O O8 0.814148 0.250000 0.703775
O O9 0.750000 0.500000 0.695049
O O10 0.839417 0.476180 0.620866
O O11 0.849761 0.520449 0.746645
O O12 0.946584 0.516201 0.807582
O O13 0.000000 0.250000 0.788490
O O14 0.374100 0.250000 0.576671
O O15 0.364758 0.000000 0.500000
O O16 0.376217 0.750000 0.174287
#
# Coordination Sequence:
#
# PCOD8281458 Si02
#       6
#    16   8  16   8  16  16
#     4  11  22  40  65  96 132 170 212 258 308 363
#     4  11  22  40  65  92 124 160 204 257 311 368
#     4  12  25  43  64  91 123 161 207 257 311 371
#     4  11  23  40  65  94 126 164 206 256 312 367
#     4  12  25  42  64  91 123 161 205 256 313 373
#     4  12  24  41  65  95 128 166 209 256 310 368
#
# _framework density 19.758521999999999
#
# number of rings (size 3 to 8) (size 9 to 14) (size 15 to 20)
#    0.000    0.400    2.000    9.300    0.000    1.200 
#    0.000    2.500    0.000    0.000    0.000    0.000 
#    0.000    0.000    0.000    0.000    0.000    0.000 
#
# Total GULP energy -496316.146497 kJ/mol
# GULP energy per Si atom -12407.903662 kJ/mol
# Density = 1.971355 g / cm^3
# Si number density = 19.758522 Si / 1000 Ang^3
#
#
#
# Elastic Constant Matrix: (Units=GPa)
#
#
# Indices 1 2 3 4 5 6 
#
# 1 129.0791 13.0091 44.5641 0.0000 0.0000 0.0000
# 2 13.0091 90.7311 14.0028 0.0000 0.0000 0.0000
# 3 44.5641 14.0028 105.1585 0.0000 0.0000 0.0000
# 4 0.0000 0.0000 0.0000 33.5064 0.0000 0.0000
# 5 0.0000 0.0000 0.0000 0.0000 51.7007 0.0000
# 6 0.0000 0.0000 0.0000 0.0000 0.0000 38.7225
#
#
#
# Elastic Compliance Matrix: (Units=1/GPa)
#
#
# Indices 1 2 3 4 5 6 
#
# 1 0.009122 -0.000726 -0.003769 0.000000 0.000000 0.000000
# 2 -0.000726 0.011311 -0.001198 0.000000 0.000000 0.000000
# 3 -0.003769 -0.001198 0.011266 0.000000 0.000000 0.000000
# 4 0.000000 0.000000 0.000000 0.029845 0.000000 0.000000
# 5 0.000000 0.000000 0.000000 0.000000 0.019342 0.000000
# 6 0.000000 0.000000 0.000000 0.000000 0.000000 0.025825
#
#
# Mechanical properties :
#
#
# Convention : Reuss Voigt Hill
#
# Bulk Modulus (GPa) = 49.23298 52.01342 50.62320
# Shear Modulus (GPa) = 40.04240 41.67876 40.86058
#
# Velocity S-wave (km/s) = 4.50665 4.59781 4.55246
# Velocity P-wave (km/s) = 7.21466 7.38703 7.30135
#
# Compressibility (1/GPa) = 0.02031159
#
# Stress axis : x y z
#
# Youngs Moduli (GPa) = 109.63046 88.41221 88.76118
#
# Poissons Ratio (x) = 0.06421 0.33453
# Poissons Ratio (y) = 0.07961 0.10637
# Poissons Ratio (z) = 0.41318 0.10595
#
# Static dielectric constant tensor:
#      x y z
#    x 3.682020 0.000000 0.000000 
#    y 0.000000 4.027420 0.000000 
#    z 0.000000 0.000000 7.549030 
# 
# 
# High freq. dielectric constant tensor:
#      x y z
#    x 1.777540 0.000000 0.000000 
#    y 0.000000 1.796140 0.000000 
#    z 0.000000 0.000000 1.779380 
# 
# From -- ./inp_files/39533.got.cif
#   From: 2010.03.12/outbox.cif.g09.slc.cpg/sg67_20_cif.got.tgz:39533.got - 2010.04.10 22:41:39.
