data_PCOD8281330
_publ_section_title
;
Structure prediction by ZEFSAII (Michael W. Deem and Ramdas Pophale) SiO2 
 PCOD8281330
Probable space group: C M M A
;
_chemical_formula_sum "Si O2"
_cell_formula_units_Z 112
_cell_length_a 29.351323
_cell_length_b 15.060731
_cell_length_c 11.686159
_cell_angle_alpha 90.000000
_cell_angle_beta 90.000000
_cell_angle_gamma 90.000000
_cell_volume 5165.894401
_symmetry_space_group_name_H-M "C M M A"
_symmetry_group_IT_number 67
_symmetry_cell_setting 'orthorhombic'
loop_
_space_group_symop_operation_xyz
x,y,z
-x,1/2-y,z
x,-y,-z
-x,1/2+y,-z
-x,-y,-z
x,1/2+y,-z
-x,y,z
x,1/2-y,z
1/2+x,1/2+y,z
1/2-x,-y,z
1/2+x,1/2-y,-z
1/2-x,y,-z
1/2-x,1/2-y,-z
1/2+x,y,-z
1/2-x,1/2+y,z
1/2+x,-y,z
loop_
_atom_site_type_symbol
_atom_site_label
_atom_site_fract_x
_atom_site_fract_y
_atom_site_fract_z
Si Si1 0.051895 0.021356 0.280771
Si Si2 0.421968 0.351734 0.911148
Si Si3 0.646098 0.510809 0.370425
Si Si4 0.711386 0.350244 0.754503
Si Si5 0.175765 0.099948 0.014701
Si Si6 0.314513 0.849950 0.757904
Si Si7 0.949055 0.844808 0.161985
O O1 0.049955 0.098781 0.187106
O O2 0.092370 0.040920 0.371557
O O3 0.000000 0.014134 0.332445
O O4 0.071094 0.930098 0.224694
O O5 0.414186 0.250000 0.873517
O O6 0.374117 0.400165 0.929345
O O7 0.450694 0.359594 0.026458
O O8 0.662710 0.500000 0.500000
O O9 0.676033 0.585517 0.308214
O O10 0.652090 0.417199 0.306110
O O11 0.701377 0.250000 0.713287
O O12 0.708494 0.353829 0.892830
O O13 0.763011 0.378347 0.726115
O O14 0.175918 0.149989 0.894024
O O15 0.192914 0.000000 0.000000
O O16 0.323849 0.750000 0.714469
O O17 0.923271 0.750000 0.189946
O O18 0.000000 0.835315 0.206523
#
# Coordination Sequence:
#
# PCOD8281330 Si02
#       7
#    16  16  16  16  16  16  16
#     4  11  23  40  62  88 120 164 219 273 330 387
#     4  11  20  32  55  89 132 174 209 250 308 383
#     4  12  27  46  67  91 124 171 226 283 334 384
#     4  11  24  43  67  98 136 174 213 263 325 391
#     4  12  21  35  63 101 141 174 204 252 315 388
#     4  11  24  42  68 101 134 171 215 263 322 395
#     4   9  18  32  53  85 122 157 198 253 315 382
#
# _framework density 21.680658999999999
#
# number of rings (size 3 to 8) (size 9 to 14) (size 15 to 20)
#    0.000    1.000    2.857    4.714    0.000    7.429 
#    0.000    1.429    0.000    0.000    0.000    4.000 
#    0.000    0.000    0.000    0.000    0.000    0.000 
#
# Total GULP energy -694153.106127 kJ/mol
# GULP energy per Si atom -12395.591181 kJ/mol
# Density = 2.163131 g / cm^3
# Si number density = 21.680659 Si / 1000 Ang^3
#
#
#
# Elastic Constant Matrix: (Units=GPa)
#
#
# Indices 1 2 3 4 5 6 
#
# 1 119.8664 29.7253 22.5921 0.0000 0.0000 0.0000
# 2 29.7253 99.6932 20.3380 0.0000 0.0000 0.0000
# 3 22.5921 20.3380 81.8968 0.0000 0.0000 0.0000
# 4 0.0000 0.0000 0.0000 2.3667 0.0000 0.0000
# 5 0.0000 0.0000 0.0000 0.0000 15.9715 0.0000
# 6 0.0000 0.0000 0.0000 0.0000 0.0000 17.4322
#
#
#
# Elastic Compliance Matrix: (Units=1/GPa)
#
#
# Indices 1 2 3 4 5 6 
#
# 1 0.009303 -0.002370 -0.001978 0.000000 0.000000 0.000000
# 2 -0.002370 0.011170 -0.002120 0.000000 0.000000 0.000000
# 3 -0.001978 -0.002120 0.013283 0.000000 0.000000 0.000000
# 4 0.000000 0.000000 0.000000 0.422527 0.000000 0.000000
# 5 0.000000 0.000000 0.000000 0.000000 0.062612 0.000000
# 6 0.000000 0.000000 0.000000 0.000000 0.000000 0.057365
#
#
# Mechanical properties :
#
#
# Convention : Reuss Voigt Hill
#
# Bulk Modulus (GPa) = 48.03204 49.64080 48.83642
# Shear Modulus (GPa) = 8.38735 22.40747 15.39741
#
# Velocity S-wave (km/s) = 1.96901 3.21833 2.66783
# Velocity P-wave (km/s) = 5.23180 6.06270 5.66251
#
# Compressibility (1/GPa) = 0.02081944
#
# Stress axis : x y z
#
# Youngs Moduli (GPa) = 107.48972 89.52498 75.28675
#
# Poissons Ratio (x) = 0.21221 0.14890
# Poissons Ratio (y) = 0.25480 0.15961
# Poissons Ratio (z) = 0.21258 0.18980
#
# Static dielectric constant tensor:
#      x y z
#    x 3.952000 0.000000 0.000000 
#    y 0.000000 4.145230 0.000000 
#    z 0.000000 0.000000 3.492270 
# 
# 
# High freq. dielectric constant tensor:
#      x y z
#    x 1.866590 0.000000 0.000000 
#    y 0.000000 1.865880 0.000000 
#    z 0.000000 0.000000 1.801190 
# 
# From -- ./inp_files/18586.got.cif
#   From: 2010.03.12/outbox.cif.g09.slc.cpg/sg67_10_cif.got.tgz:18586.got - 2010.04.10 22:41:39.
