data_PCOD8281898
_publ_section_title
;
Structure prediction by ZEFSAII (Michael W. Deem and Ramdas Pophale) SiO2 
 PCOD8281898
Probable space group: C C C A
;
_chemical_formula_sum "Si O2"
_cell_formula_units_Z 96
_cell_length_a 26.199843
_cell_length_b 16.307241
_cell_length_c 11.428654
_cell_angle_alpha 90.000000
_cell_angle_beta 90.000000
_cell_angle_gamma 90.000000
_cell_volume 4882.859895
_symmetry_space_group_name_H-M "C C C A"
_symmetry_group_IT_number 68
_space_group.IT_coordinate_system_code '2'
_symmetry_cell_setting 'orthorhombic'
loop_
_space_group_symop_operation_xyz
x,y,z
-x,1/2-y,z
x,1/2-y,1/2-z
-x,y,1/2-z
-x,-y,-z
x,1/2+y,-z
-x,1/2+y,1/2+z
x,-y,1/2+z
1/2+x,1/2+y,z
1/2-x,-y,z
1/2+x,-y,1/2-z
1/2-x,1/2+y,1/2-z
1/2-x,1/2-y,-z
1/2+x,y,-z
1/2-x,y,1/2+z
1/2+x,1/2-y,1/2+z
loop_
_atom_site_type_symbol
_atom_site_label
_atom_site_fract_x
_atom_site_fract_y
_atom_site_fract_z
Si Si1 0.374163 0.536943 0.652494
Si Si2 0.124046 0.897915 0.016956
Si Si3 0.709463 0.864122 0.538270
Si Si4 0.695692 0.001014 0.841967
Si Si5 0.190666 0.788096 0.879113
Si Si6 0.059255 0.839743 0.222129
O O1 0.391784 0.485550 0.539545
O O2 0.332422 0.608178 0.631936
O O3 0.348535 0.474498 0.748670
O O4 0.422954 0.585550 0.696805
O O5 0.138844 0.836199 0.912471
O O6 0.174029 0.916143 0.099220
O O7 0.075977 0.862040 0.089115
O O8 0.761954 0.851241 0.610164
O O9 0.694056 0.780136 0.478062
O O10 0.710289 0.933903 0.440852
O O11 0.750000 0.000000 0.773058
O O12 0.187135 0.750000 0.750000
O O13 0.083206 0.750000 0.250000
O O14 0.000000 0.835275 0.250000
#
# Coordination Sequence:
#
# PCOD8281898 Si02
#       6
#    16  16  16  16  16  16
#     4  10  22  34  60  84 114 153 190 254 297 353
#     4  10  21  37  55  87 117 151 200 254 297 361
#     4  10  22  34  48  78 113 156 198 231 282 346
#     4  10  19  33  54  76 114 157 201 237 285 354
#     4  11  22  33  51  78 118 162 197 236 291 354
#     4  10  22  42  66  87 111 152 203 257 319 373
#
# _framework density 19.660609000000001
#
# number of rings (size 3 to 8) (size 9 to 14) (size 15 to 20)
#    0.000    1.833    1.667    2.000    4.667    2.667 
#    0.000    0.000    0.000    0.000    0.000    1.167 
#    0.000    0.000    0.000    0.000    0.000    0.000 
#
# Total GULP energy -594652.791314 kJ/mol
# GULP energy per Si atom -12388.599819 kJ/mol
# Density = 1.961586 g / cm^3
# Si number density = 19.660609 Si / 1000 Ang^3
#
#
#
# Elastic Constant Matrix: (Units=GPa)
#
#
# Indices 1 2 3 4 5 6 
#
# 1 82.6943 42.2367 45.0629 0.0000 0.0000 0.0000
# 2 42.2367 86.7404 45.5729 0.0000 0.0000 0.0000
# 3 45.0629 45.5729 110.7730 0.0000 0.0000 0.0000
# 4 0.0000 0.0000 0.0000 41.9743 0.0000 0.0000
# 5 0.0000 0.0000 0.0000 0.0000 21.0399 0.0000
# 6 0.0000 0.0000 0.0000 0.0000 0.0000 21.4093
#
#
#
# Elastic Compliance Matrix: (Units=1/GPa)
#
#
# Indices 1 2 3 4 5 6 
#
# 1 0.017824 -0.006212 -0.004695 0.000000 0.000000 0.000000
# 2 -0.006212 0.016873 -0.004414 0.000000 0.000000 0.000000
# 3 -0.004695 -0.004414 0.012754 0.000000 0.000000 0.000000
# 4 0.000000 0.000000 0.000000 0.023824 0.000000 0.000000
# 5 0.000000 0.000000 0.000000 0.000000 0.047529 0.000000
# 6 0.000000 0.000000 0.000000 0.000000 0.000000 0.046709
#
#
# Mechanical properties :
#
#
# Convention : Reuss Voigt Hill
#
# Bulk Modulus (GPa) = 59.49944 60.66138 60.08041
# Shear Modulus (GPa) = 24.78207 26.70705 25.74456
#
# Velocity S-wave (km/s) = 3.55419 3.68965 3.62256
# Velocity P-wave (km/s) = 6.86819 7.00519 6.93703
#
# Compressibility (1/GPa) = 0.01680688
#
# Stress axis : x y z
#
# Youngs Moduli (GPa) = 56.10309 59.26623 78.40906
#
# Poissons Ratio (x) = 0.36819 0.36814
# Poissons Ratio (y) = 0.34854 0.34613
# Poissons Ratio (z) = 0.26341 0.26163
#
# Static dielectric constant tensor:
#      x y z
#    x 3.292840 0.000000 0.000000 
#    y 0.000000 4.056390 0.000000 
#    z 0.000000 0.000000 3.680170 
# 
# 
# High freq. dielectric constant tensor:
#      x y z
#    x 1.725990 0.000000 0.000000 
#    y 0.000000 1.775460 0.000000 
#    z 0.000000 0.000000 1.775420 
# 
# From -- ./inp_files/14641.got.cif
#   From: 2010.03.12/outbox.cif.g09.slc.cpg/sg68_8_cif.got.tgz:14641.got - 2010.04.10 23:14:56.
