data_PCOD8281787
_publ_section_title
;
Structure prediction by ZEFSAII (Michael W. Deem and Ramdas Pophale) SiO2 
 PCOD8281787
Probable space group: C C C A
;
_chemical_formula_sum "Si O2"
_cell_formula_units_Z 104
_cell_length_a 21.050658
_cell_length_b 17.568015
_cell_length_c 14.938328
_cell_angle_alpha 90.000000
_cell_angle_beta 90.000000
_cell_angle_gamma 90.000000
_cell_volume 5524.466700
_symmetry_space_group_name_H-M "C C C A"
_symmetry_group_IT_number 68
_space_group.IT_coordinate_system_code '2'
_symmetry_cell_setting 'orthorhombic'
loop_
_space_group_symop_operation_xyz
x,y,z
-x,1/2-y,z
x,1/2-y,1/2-z
-x,y,1/2-z
-x,-y,-z
x,1/2+y,-z
-x,1/2+y,1/2+z
x,-y,1/2+z
1/2+x,1/2+y,z
1/2-x,-y,z
1/2+x,-y,1/2-z
1/2-x,1/2+y,1/2-z
1/2-x,1/2-y,-z
1/2+x,y,-z
1/2-x,y,1/2+z
1/2+x,1/2-y,1/2+z
loop_
_atom_site_type_symbol
_atom_site_label
_atom_site_fract_x
_atom_site_fract_y
_atom_site_fract_z
Si Si1 0.000000 0.060878 0.250000
Si Si2 0.712348 0.269394 0.852857
Si Si3 0.435476 0.795999 0.556464
Si Si4 0.401783 0.122753 0.877409
Si Si5 0.458022 0.448673 0.383601
Si Si6 0.402544 0.969197 0.954445
Si Si7 0.824675 0.681619 0.475157
O O1 0.960290 0.118583 0.190218
O O2 0.951987 0.002461 0.298126
O O3 0.733717 0.250000 0.750000
O O4 0.652448 0.323917 0.838395
O O5 0.765856 0.315316 0.907011
O O6 0.693778 0.198973 0.920160
O O7 0.500000 0.750000 0.565585
O O8 0.435226 0.842663 0.464503
O O9 0.432770 0.862116 0.633288
O O10 0.374695 0.742482 0.562952
O O11 0.374613 0.037185 0.892439
O O12 0.412921 0.492892 0.450629
O O13 0.530966 0.439381 0.415524
O O14 0.352000 0.902561 0.967025
#
# Coordination Sequence:
#
# PCOD8281787 Si02
#       7
#     8  16  16  16  16  16  16
#     4  10  20  32  54  90 122 142 178 248 298 348
#     4  10  23  41  58  86 116 155 202 247 290 351
#     4  10  18  34  58  84 108 150 193 229 289 359
#     4   9  21  35  57  86 119 144 192 243 295 352
#     4   9  18  32  52  86 121 142 184 227 298 355
#     4   9  17  34  59  81 112 158 180 232 291 354
#     4  10  21  38  63  81 116 159 196 239 295 345
#
# _framework density 18.825346
#
# number of rings (size 3 to 8) (size 9 to 14) (size 15 to 20)
#    0.000    2.462    1.538    0.923    2.154    1.846 
#    5.538    0.385    0.000    1.846    0.000    0.000 
#    0.000    0.000    0.000    0.000    0.000    0.000 
#
# Total GULP energy -644213.342711 kJ/mol
# GULP energy per Si atom -12388.718129 kJ/mol
# Density = 1.878250 g / cm^3
# Si number density = 18.825346 Si / 1000 Ang^3
#
#
#
# Elastic Constant Matrix: (Units=GPa)
#
#
# Indices 1 2 3 4 5 6 
#
# 1 51.5010 20.9332 20.5893 0.0000 0.0000 0.0000
# 2 20.9332 90.6779 25.3671 0.0000 0.0000 0.0000
# 3 20.5893 25.3671 72.0666 0.0000 0.0000 0.0000
# 4 0.0000 0.0000 0.0000 13.9841 0.0000 0.0000
# 5 0.0000 0.0000 0.0000 0.0000 21.5647 0.0000
# 6 0.0000 0.0000 0.0000 0.0000 0.0000 32.7652
#
#
#
# Elastic Compliance Matrix: (Units=1/GPa)
#
#
# Indices 1 2 3 4 5 6 
#
# 1 0.023080 -0.003864 -0.005234 0.000000 0.000000 0.000000
# 2 -0.003864 0.012879 -0.003430 0.000000 0.000000 0.000000
# 3 -0.005234 -0.003430 0.016579 0.000000 0.000000 0.000000
# 4 0.000000 0.000000 0.000000 0.071510 0.000000 0.000000
# 5 0.000000 0.000000 0.000000 0.000000 0.046372 0.000000
# 6 0.000000 0.000000 0.000000 0.000000 0.000000 0.030520
#
#
# Mechanical properties :
#
#
# Convention : Reuss Voigt Hill
#
# Bulk Modulus (GPa) = 36.38567 38.66940 37.52753
# Shear Modulus (GPa) = 21.26249 23.48653 22.37451
#
# Velocity S-wave (km/s) = 3.36439 3.53597 3.45125
# Velocity P-wave (km/s) = 5.87045 6.10381 5.98827
#
# Compressibility (1/GPa) = 0.02748335
#
# Stress axis : x y z
#
# Youngs Moduli (GPa) = 43.32752 77.64300 60.31888
#
# Poissons Ratio (x) = 0.30000 0.31570
# Poissons Ratio (y) = 0.16741 0.20687
# Poissons Ratio (z) = 0.22677 0.26628
#
# Static dielectric constant tensor:
#      x y z
#    x 3.307460 0.000000 0.000000 
#    y 0.000000 3.702760 0.000000 
#    z 0.000000 0.000000 3.508650 
# 
# 
# High freq. dielectric constant tensor:
#      x y z
#    x 1.714350 0.000000 0.000000 
#    y 0.000000 1.742870 0.000000 
#    z 0.000000 0.000000 1.719870 
# 
# From -- ./inp_files/24660.got.cif
#   From: 2010.03.12/outbox.cif.g09.slc.cpg/sg68_13_cif.got.tgz:24660.got - 2010.04.10 23:14:56.
