data_PCOD8281710
_publ_section_title
;
Structure prediction by ZEFSAII (Michael W. Deem and Ramdas Pophale) SiO2 
 PCOD8281710
Probable space group: C C C A
;
_chemical_formula_sum "Si O2"
_cell_formula_units_Z 104
_cell_length_a 17.347957
_cell_length_b 15.017832
_cell_length_c 21.413458
_cell_angle_alpha 90.000000
_cell_angle_beta 90.000000
_cell_angle_gamma 90.000000
_cell_volume 5578.820456
_symmetry_space_group_name_H-M "C C C A"
_symmetry_group_IT_number 68
_space_group.IT_coordinate_system_code '2'
_symmetry_cell_setting 'orthorhombic'
loop_
_space_group_symop_operation_xyz
x,y,z
-x,1/2-y,z
x,1/2-y,1/2-z
-x,y,1/2-z
-x,-y,-z
x,1/2+y,-z
-x,1/2+y,1/2+z
x,-y,1/2+z
1/2+x,1/2+y,z
1/2-x,-y,z
1/2+x,-y,1/2-z
1/2-x,1/2+y,1/2-z
1/2-x,1/2-y,-z
1/2+x,y,-z
1/2-x,y,1/2+z
1/2+x,1/2-y,1/2+z
loop_
_atom_site_type_symbol
_atom_site_label
_atom_site_fract_x
_atom_site_fract_y
_atom_site_fract_z
Si Si1 0.191925 0.381093 0.971018
Si Si2 0.750000 0.500000 0.635063
Si Si3 0.104463 0.422137 0.298720
Si Si4 0.589848 0.247190 0.866120
Si Si5 0.848881 0.197449 0.497671
Si Si6 0.437148 0.440381 0.660846
Si Si7 0.080099 0.022483 0.967197
O O1 0.221908 0.415470 0.904699
O O2 0.139314 0.291644 0.965562
O O3 0.265179 0.346666 0.011299
O O4 0.147920 0.462909 0.003131
O O5 0.820691 0.528412 0.677542
O O6 0.110911 0.314026 0.305276
O O7 0.090009 0.463667 0.230563
O O8 0.030045 0.438904 0.342503
O O9 0.500000 0.250000 0.883597
O O10 0.609481 0.349293 0.852333
O O11 0.639651 0.211934 0.923903
O O12 0.910868 0.127393 0.522235
O O13 0.415400 0.510353 0.607460
O O14 0.000000 0.000000 0.000000
#
# Coordination Sequence:
#
# PCOD8281710 Si02
#       7
#    16   8  16  16  16  16  16
#     4  11  22  37  57  84 122 156 186 245 301 363
#     4  12  20  40  58  82 118 164 198 224 300 376
#     4  10  21  37  58  84 113 159 193 241 296 347
#     4  10  17  34  58  85 114 144 194 249 300 345
#     4  11  22  36  56  87 122 155 189 244 307 351
#     4  10  21  37  59  85 117 144 199 252 290 343
#     4  12  22  37  61  90 117 156 196 247 298 358
#
# _framework density 18.641932000000001
#
# number of rings (size 3 to 8) (size 9 to 14) (size 15 to 20)
#    0.000    1.231    4.615    3.231    0.000    1.846 
#    2.769    0.000    0.000    0.000    0.000    2.154 
#    0.000    0.000    0.000    0.000    0.000    0.000 
#
# Total GULP energy -644324.835225 kJ/mol
# GULP energy per Si atom -12390.862216 kJ/mol
# Density = 1.859950 g / cm^3
# Si number density = 18.641932 Si / 1000 Ang^3
#
#
#
# Elastic Constant Matrix: (Units=GPa)
#
#
# Indices 1 2 3 4 5 6 
#
# 1 74.9206 35.6757 38.2515 0.0000 0.0000 0.0000
# 2 35.6757 106.5882 36.6000 0.0000 0.0000 0.0000
# 3 38.2515 36.6000 97.4266 0.0000 0.0000 0.0000
# 4 0.0000 0.0000 0.0000 22.2971 0.0000 0.0000
# 5 0.0000 0.0000 0.0000 0.0000 24.5501 0.0000
# 6 0.0000 0.0000 0.0000 0.0000 0.0000 33.4624
#
#
#
# Elastic Compliance Matrix: (Units=1/GPa)
#
#
# Indices 1 2 3 4 5 6 
#
# 1 0.018178 -0.004172 -0.005570 0.000000 0.000000 0.000000
# 2 -0.004172 0.011729 -0.002768 0.000000 0.000000 0.000000
# 3 -0.005570 -0.002768 0.013491 0.000000 0.000000 0.000000
# 4 0.000000 0.000000 0.000000 0.044849 0.000000 0.000000
# 5 0.000000 0.000000 0.000000 0.000000 0.040733 0.000000
# 6 0.000000 0.000000 0.000000 0.000000 0.000000 0.029884
#
#
# Mechanical properties :
#
#
# Convention : Reuss Voigt Hill
#
# Bulk Modulus (GPa) = 54.41291 55.55442 54.98366
# Shear Modulus (GPa) = 26.31461 27.28914 26.80187
#
# Velocity S-wave (km/s) = 3.76118 3.83019 3.79584
# Velocity P-wave (km/s) = 6.93641 7.03036 6.98354
#
# Compressibility (1/GPa) = 0.01837799
#
# Stress axis : x y z
#
# Youngs Moduli (GPa) = 55.01280 85.26081 74.12430
#
# Poissons Ratio (x) = 0.35568 0.41285
# Poissons Ratio (y) = 0.22949 0.20519
# Poissons Ratio (z) = 0.30641 0.23602
#
# Static dielectric constant tensor:
#      x y z
#    x 3.492380 0.000000 0.000000 
#    y 0.000000 3.691240 0.000000 
#    z 0.000000 0.000000 3.263230 
# 
# 
# High freq. dielectric constant tensor:
#      x y z
#    x 1.722290 0.000000 0.000000 
#    y 0.000000 1.724020 0.000000 
#    z 0.000000 0.000000 1.705460 
# 
# From -- ./inp_files/39619.got.cif
#   From: 2010.03.12/outbox.cif.g09.slc.cpg/sg68_20_cif.got.tgz:39619.got - 2010.04.10 23:14:56.
