data_PCOD8281562
_publ_section_title
;
Structure prediction by ZEFSAII (Michael W. Deem and Ramdas Pophale) SiO2 
 PCOD8281562
Probable space group: C M M A
;
_chemical_formula_sum "Si O2"
_cell_formula_units_Z 68
_cell_length_a 10.069072
_cell_length_b 21.248683
_cell_length_c 20.407750
_cell_angle_alpha 90.000000
_cell_angle_beta 90.000000
_cell_angle_gamma 90.000000
_cell_volume 4366.330336
_symmetry_space_group_name_H-M "C M M A"
_symmetry_group_IT_number 67
_symmetry_cell_setting 'orthorhombic'
loop_
_space_group_symop_operation_xyz
x,y,z
-x,1/2-y,z
x,-y,-z
-x,1/2+y,-z
-x,-y,-z
x,1/2+y,-z
-x,y,z
x,1/2-y,z
1/2+x,1/2+y,z
1/2-x,-y,z
1/2+x,1/2-y,-z
1/2-x,y,-z
1/2-x,1/2-y,-z
1/2+x,y,-z
1/2-x,1/2+y,z
1/2+x,-y,z
loop_
_atom_site_type_symbol
_atom_site_label
_atom_site_fract_x
_atom_site_fract_y
_atom_site_fract_z
Si Si1 0.650145 0.120860 0.446914
Si Si2 0.250000 0.000000 0.500000
Si Si3 0.851301 0.824886 0.946969
Si Si4 0.652161 0.176142 0.308658
Si Si5 0.851318 0.675234 0.801069
O O1 0.500000 0.143864 0.460709
O O2 0.750000 0.152846 0.500000
O O3 0.695171 0.140819 0.374694
O O4 0.659167 0.044738 0.453708
O O5 0.843392 0.750000 0.948349
O O6 0.813785 0.849062 0.873994
O O7 0.000000 0.846948 0.965278
O O8 0.750000 0.854363 0.000000
O O9 0.500000 0.161486 0.289860
O O10 0.674465 0.250000 0.319622
O O11 0.745013 0.148754 0.250883
O O12 0.846491 0.750000 0.800884
O O13 0.000000 0.652420 0.782186
#
# Coordination Sequence:
#
# PCOD8281562 Si02
#       5
#    16   4  16  16  16
#     4   9  18  30  45  61  78 100 128 160 196 236
#     4   8  18  32  48  60  78 100 124 162 198 236
#     4   8  13  20  30  45  66  93 128 164 192 219
#     4   9  17  28  40  57  80 104 130 161 196 234
#     4   8  14  24  35  49  72 101 131 162 193 228
#
# _framework density 15.573719000000001
#
# number of rings (size 3 to 8) (size 9 to 14) (size 15 to 20)
#    0.706    2.824    0.000    1.765    0.000    2.353 
#    0.000    4.706    0.000    0.000    0.000    0.000 
#    0.000    0.000    0.000    1.059    0.000   17.412 
#
# Total GULP energy -421241.054552 kJ/mol
# GULP energy per Si atom -12389.442781 kJ/mol
# Density = 1.553827 g / cm^3
# Si number density = 15.573719 Si / 1000 Ang^3
#
#
#
# Elastic Constant Matrix: (Units=GPa)
#
#
# Indices 1 2 3 4 5 6 
#
# 1 116.2567 12.5608 102.5905 0.0000 0.0000 0.0000
# 2 12.5608 17.7514 23.1325 0.0000 0.0000 0.0000
# 3 102.5905 23.1325 156.1264 0.0000 0.0000 0.0000
# 4 0.0000 0.0000 0.0000 0.4612 0.0000 0.0000
# 5 0.0000 0.0000 0.0000 0.0000 38.5987 0.0000
# 6 0.0000 0.0000 0.0000 0.0000 0.0000 9.2242
#
#
#
# Elastic Compliance Matrix: (Units=1/GPa)
#
#
# Indices 1 2 3 4 5 6 
#
# 1 0.020679 0.003811 -0.014153 0.000000 0.000000 0.000000
# 2 0.003811 0.070515 -0.012952 0.000000 0.000000 0.000000
# 3 -0.014153 -0.012952 0.017624 0.000000 0.000000 0.000000
# 4 0.000000 0.000000 0.000000 2.168085 0.000000 0.000000
# 5 0.000000 0.000000 0.000000 0.000000 0.025908 0.000000
# 6 0.000000 0.000000 0.000000 0.000000 0.000000 0.108411
#
#
# Mechanical properties :
#
#
# Convention : Reuss Voigt Hill
#
# Bulk Modulus (GPa) = 16.06939 62.96692 39.51815
# Shear Modulus (GPa) = 2.01731 19.78020 10.89875
#
# Velocity S-wave (km/s) = 1.13936 3.56771 2.64828
# Velocity P-wave (km/s) = 3.47441 7.58227 5.89755
#
# Compressibility (1/GPa) = 0.06223011
#
# Stress axis : x y z
#
# Youngs Moduli (GPa) = 48.35819 14.18132 56.74132
#
# Poissons Ratio (x) = -0.05404 0.80305
# Poissons Ratio (y) = -0.18427 0.73490
# Poissons Ratio (z) = 0.68440 0.18367
#
# Static dielectric constant tensor:
#      x y z
#    x 3.136740 0.000000 0.000000 
#    y 0.000000 2.369530 0.000000 
#    z 0.000000 0.000000 3.196020 
# 
# 
# High freq. dielectric constant tensor:
#      x y z
#    x 1.605910 0.000000 0.000000 
#    y 0.000000 1.523330 0.000000 
#    z 0.000000 0.000000 1.602890 
# 
# From -- ./inp_files/25921.got.cif
#   From: 2010.03.12/outbox.cif.g09.slc.cpg/sg67_13_cif.got.tgz:25921.got - 2010.04.10 22:41:39.
