data_PCOD8281929
_publ_section_title
;
Structure prediction by ZEFSAII (Michael W. Deem and Ramdas Pophale) SiO2 
 PCOD8281929
Probable space group: C C C A
;
_chemical_formula_sum "Si O2"
_cell_formula_units_Z 80
_cell_length_a 18.084146
_cell_length_b 18.611346
_cell_length_c 12.902641
_cell_angle_alpha 90.000000
_cell_angle_beta 90.000000
_cell_angle_gamma 90.000000
_cell_volume 4342.645730
_symmetry_space_group_name_H-M "C C C A"
_symmetry_group_IT_number 68
_space_group.IT_coordinate_system_code '2'
_symmetry_cell_setting 'orthorhombic'
loop_
_space_group_symop_operation_xyz
x,y,z
-x,1/2-y,z
x,1/2-y,1/2-z
-x,y,1/2-z
-x,-y,-z
x,1/2+y,-z
-x,1/2+y,1/2+z
x,-y,1/2+z
1/2+x,1/2+y,z
1/2-x,-y,z
1/2+x,-y,1/2-z
1/2-x,1/2+y,1/2-z
1/2-x,1/2-y,-z
1/2+x,y,-z
1/2-x,y,1/2+z
1/2+x,1/2-y,1/2+z
loop_
_atom_site_type_symbol
_atom_site_label
_atom_site_fract_x
_atom_site_fract_y
_atom_site_fract_z
Si Si1 0.922223 0.590490 0.441986
Si Si2 0.836784 0.491377 0.110268
Si Si3 0.587249 0.378430 0.009017
Si Si4 0.076313 0.547203 0.695520
Si Si5 0.587284 0.741603 0.864089
O O1 0.862794 0.565275 0.525069
O O2 0.938496 0.529874 0.356857
O O3 0.887098 0.662339 0.395241
O O4 0.999410 0.610534 0.494337
O O5 0.750000 0.500000 0.102903
O O6 0.858162 0.461067 0.222349
O O7 0.875977 0.567176 0.089960
O O8 0.607799 0.395071 0.888909
O O9 0.613058 0.299851 0.049059
O O10 0.000000 0.572882 0.750000
O O11 0.500000 0.750000 0.853775
O O12 0.623275 0.750000 0.750000
#
# Coordination Sequence:
#
# PCOD8281929 Si02
#       5
#    16  16  16  16  16
#     4  10  19  34  58  81 109 143 189 230 275 328
#     4  11  22  35  54  83 114 143 184 235 283 329
#     4  10  19  35  57  83 109 145 188 231 276 331
#     4  11  18  32  58  80 108 146 187 228 275 325
#     4   9  18  31  55  85 113 142 189 235 272 323
#
# _framework density 18.421949999999999
#
# number of rings (size 3 to 8) (size 9 to 14) (size 15 to 20)
#    0.000    1.800    4.000    2.400    2.800    3.200 
#    0.000    2.000    0.000    2.400    0.000    0.000 
#    0.000    0.000    0.000    0.000    0.000    0.000 
#
# Total GULP energy -495836.436544 kJ/mol
# GULP energy per Si atom -12395.910914 kJ/mol
# Density = 1.838002 g / cm^3
# Si number density = 18.421950 Si / 1000 Ang^3
#
#
#
# Elastic Constant Matrix: (Units=GPa)
#
#
# Indices 1 2 3 4 5 6 
#
# 1 58.6864 -14.2096 14.7268 0.0000 0.0000 0.0000
# 2 -14.2096 81.8051 27.4100 0.0000 0.0000 0.0000
# 3 14.7268 27.4100 112.8762 0.0000 0.0000 0.0000
# 4 0.0000 0.0000 0.0000 34.1362 0.0000 0.0000
# 5 0.0000 0.0000 0.0000 0.0000 34.4582 0.0000
# 6 0.0000 0.0000 0.0000 0.0000 0.0000 6.3094
#
#
#
# Elastic Compliance Matrix: (Units=1/GPa)
#
#
# Indices 1 2 3 4 5 6 
#
# 1 0.019027 0.004503 -0.003576 0.000000 0.000000 0.000000
# 2 0.004503 0.014373 -0.004078 0.000000 0.000000 0.000000
# 3 -0.003576 -0.004078 0.010316 0.000000 0.000000 0.000000
# 4 0.000000 0.000000 0.000000 0.029294 0.000000 0.000000
# 5 0.000000 0.000000 0.000000 0.000000 0.029021 0.000000
# 6 0.000000 0.000000 0.000000 0.000000 0.000000 0.158495
#
#
# Mechanical properties :
#
#
# Convention : Reuss Voigt Hill
#
# Bulk Modulus (GPa) = 26.72703 34.35800 30.54252
# Shear Modulus (GPa) = 17.90200 30.01012 23.95606
#
# Velocity S-wave (km/s) = 3.12071 4.04052 3.61003
# Velocity P-wave (km/s) = 5.24642 6.36072 5.83025
#
# Compressibility (1/GPa) = 0.03741531
#
# Stress axis : x y z
#
# Youngs Moduli (GPa) = 52.55563 69.57638 96.93658
#
# Poissons Ratio (x) = -0.31332 0.34665
# Poissons Ratio (y) = -0.23667 0.39528
# Poissons Ratio (z) = 0.18794 0.28371
#
# Static dielectric constant tensor:
#      x y z
#    x 2.970850 0.000000 0.000000 
#    y 0.000000 3.518220 0.000000 
#    z 0.000000 0.000000 3.650710 
# 
# 
# High freq. dielectric constant tensor:
#      x y z
#    x 1.672920 0.000000 0.000000 
#    y 0.000000 1.706580 0.000000 
#    z 0.000000 0.000000 1.729750 
# 
# From -- ./inp_files/23494.got.cif
#   From: 2010.03.12/outbox.cif.g09.slc.cpg/sg68_12_cif.got.tgz:23494.got - 2010.04.10 23:14:56.
