data_PCOD8281567
_publ_section_title
;
Structure prediction by ZEFSAII (Michael W. Deem and Ramdas Pophale) SiO2 
 PCOD8281567
Probable space group: C M M A
;
_chemical_formula_sum "Si O2"
_cell_formula_units_Z 112
_cell_length_a 18.705997
_cell_length_b 19.393494
_cell_length_c 18.906183
_cell_angle_alpha 90.000000
_cell_angle_beta 90.000000
_cell_angle_gamma 90.000000
_cell_volume 6858.683743
_symmetry_space_group_name_H-M "C M M A"
_symmetry_group_IT_number 67
_symmetry_cell_setting 'orthorhombic'
loop_
_space_group_symop_operation_xyz
x,y,z
-x,1/2-y,z
x,-y,-z
-x,1/2+y,-z
-x,-y,-z
x,1/2+y,-z
-x,y,z
x,1/2-y,z
1/2+x,1/2+y,z
1/2-x,-y,z
1/2+x,1/2-y,-z
1/2-x,y,-z
1/2-x,1/2-y,-z
1/2+x,y,-z
1/2-x,1/2+y,z
1/2+x,-y,z
loop_
_atom_site_type_symbol
_atom_site_label
_atom_site_fract_x
_atom_site_fract_y
_atom_site_fract_z
Si Si1 0.419127 0.331076 0.698745
Si Si2 0.219776 0.667579 0.073300
Si Si3 0.578645 0.168241 0.145277
Si Si4 0.916025 0.424062 0.428669
Si Si5 0.084732 0.077938 0.586073
Si Si6 0.147712 0.831080 0.291330
Si Si7 0.211538 0.331235 0.213908
O O1 0.500000 0.353014 0.718861
O O2 0.412997 0.250000 0.686484
O O3 0.392566 0.365786 0.626402
O O4 0.366772 0.356632 0.761382
O O5 0.221400 0.750000 0.070781
O O6 0.138383 0.641951 0.089053
O O7 0.270087 0.638397 0.136479
O O8 0.250000 0.636431 0.000000
O O9 0.500000 0.138127 0.125924
O O10 0.577468 0.250000 0.142056
O O11 0.598381 0.146324 0.225149
O O12 0.887890 0.403826 0.506670
O O13 0.890819 0.498879 0.400603
O O14 0.000000 0.429054 0.436908
O O15 0.125890 0.127255 0.639567
O O16 0.000000 0.088849 0.595926
O O17 0.139665 0.750000 0.307373
O O18 0.229115 0.851616 0.272008
O O19 0.212728 0.250000 0.205612
#
# Coordination Sequence:
#
# PCOD8281567 Si02
#       7
#    16  16  16  16  16  16  16
#     4   9  16  28  46  61  74 101 140 175 205 240
#     4   8  13  22  36  53  78 112 137 153 191 248
#     4   8  13  21  33  52  78 105 134 167 197 228
#     4   8  16  29  42  58  81 107 134 170 212 241
#     4   9  16  27  42  59  82 110 137 167 204 242
#     4   9  16  25  39  59  83 110 136 165 204 245
#     4   8  15  27  40  57  82 106 131 168 208 241
#
# _framework density 16.329663
#
# number of rings (size 3 to 8) (size 9 to 14) (size 15 to 20)
#    0.000    3.571    0.000    3.000    0.000    1.429 
#    0.000    3.571    0.000    8.571    0.000    0.000 
#    0.000    9.143    0.000   22.143    0.000   21.429 
#
# Total GULP energy -693788.019080 kJ/mol
# GULP energy per Si atom -12389.071769 kJ/mol
# Density = 1.629250 g / cm^3
# Si number density = 16.329663 Si / 1000 Ang^3
#
#
#
# Elastic Constant Matrix: (Units=GPa)
#
#
# Indices 1 2 3 4 5 6 
#
# 1 108.6324 26.3177 75.8166 0.0000 0.0000 0.0000
# 2 26.3177 28.7320 38.3352 0.0000 0.0000 0.0000
# 3 75.8166 38.3352 133.6770 0.0000 0.0000 0.0000
# 4 0.0000 0.0000 0.0000 1.1670 0.0000 0.0000
# 5 0.0000 0.0000 0.0000 0.0000 24.4227 0.0000
# 6 0.0000 0.0000 0.0000 0.0000 0.0000 9.7769
#
#
#
# Elastic Compliance Matrix: (Units=1/GPa)
#
#
# Indices 1 2 3 4 5 6 
#
# 1 0.015515 -0.004002 -0.007652 0.000000 0.000000 0.000000
# 2 -0.004002 0.057407 -0.014193 0.000000 0.000000 0.000000
# 3 -0.007652 -0.014193 0.015891 0.000000 0.000000 0.000000
# 4 0.000000 0.000000 0.000000 0.856866 0.000000 0.000000
# 5 0.000000 0.000000 0.000000 0.000000 0.040945 0.000000
# 6 0.000000 0.000000 0.000000 0.000000 0.000000 0.102282
#
#
# Mechanical properties :
#
#
# Convention : Reuss Voigt Hill
#
# Bulk Modulus (GPa) = 26.94035 61.33113 44.13574
# Shear Modulus (GPa) = 4.33661 15.77812 10.05737
#
# Velocity S-wave (km/s) = 1.63139 3.11179 2.48442
# Velocity P-wave (km/s) = 4.48132 7.10990 5.94276
#
# Compressibility (1/GPa) = 0.03711904
#
# Stress axis : x y z
#
# Youngs Moduli (GPa) = 64.45189 17.41942 62.92893
#
# Poissons Ratio (x) = 0.06971 0.48154
# Poissons Ratio (y) = 0.25794 0.89316
# Poissons Ratio (z) = 0.49319 0.24724
#
# Static dielectric constant tensor:
#      x y z
#    x 3.355550 0.000000 0.000000 
#    y 0.000000 2.717870 0.000000 
#    z 0.000000 0.000000 3.443920 
# 
# 
# High freq. dielectric constant tensor:
#      x y z
#    x 1.622420 0.000000 0.000000 
#    y 0.000000 1.578790 0.000000 
#    z 0.000000 0.000000 1.623690 
# 
# From -- ./inp_files/35099.got.cif
#   From: 2010.03.12/outbox.cif.g09.slc.cpg/sg67_18_cif.got.tgz:35099.got - 2010.04.10 22:41:39.
