data_PCOD8281129
_publ_section_title
;
Structure prediction by ZEFSAII (Michael W. Deem and Ramdas Pophale) SiO2 
 PCOD8281129
Probable space group: C M M A
;
_chemical_formula_sum "Si O2"
_cell_formula_units_Z 88
_cell_length_a 24.996595
_cell_length_b 14.757464
_cell_length_c 12.096572
_cell_angle_alpha 90.000000
_cell_angle_beta 90.000000
_cell_angle_gamma 90.000000
_cell_volume 4462.260303
_symmetry_space_group_name_H-M "C M M A"
_symmetry_group_IT_number 67
_symmetry_cell_setting 'orthorhombic'
loop_
_space_group_symop_operation_xyz
x,y,z
-x,1/2-y,z
x,-y,-z
-x,1/2+y,-z
-x,-y,-z
x,1/2+y,-z
-x,y,z
x,1/2-y,z
1/2+x,1/2+y,z
1/2-x,-y,z
1/2+x,1/2-y,-z
1/2-x,y,-z
1/2-x,1/2-y,-z
1/2+x,y,-z
1/2-x,1/2+y,z
1/2+x,-y,z
loop_
_atom_site_type_symbol
_atom_site_label
_atom_site_fract_x
_atom_site_fract_y
_atom_site_fract_z
Si Si1 0.132977 0.999491 0.627283
Si Si2 0.741932 0.149268 0.875140
Si Si3 0.562743 0.143744 0.253838
Si Si4 0.058604 0.357099 0.992358
Si Si5 0.120641 0.851784 0.800778
Si Si6 0.250000 0.000000 0.290564
O O1 0.109332 0.912894 0.693062
O O2 0.116646 0.000000 0.500000
O O3 0.104958 0.090352 0.671213
O O4 0.197545 0.989424 0.634305
O O5 0.767494 0.250000 0.865868
O O6 0.681124 0.151589 0.838592
O O7 0.769398 0.082564 0.788076
O O8 0.750000 0.113215 0.000000
O O9 0.500000 0.117060 0.273241
O O10 0.569797 0.250000 0.278596
O O11 0.581189 0.119658 0.128737
O O12 0.057442 0.250000 0.005887
O O13 0.000000 0.399045 0.003493
O O14 0.091964 0.398312 0.093707
O O15 0.100121 0.750000 0.773298
#
# Coordination Sequence:
#
# PCOD8281129 Si02
#       6
#    16  16  16  16  16   8
#     4  11  24  39  57  79 111 157 203 244 283 333
#     4   9  18  32  52  79 110 142 177 226 288 350
#     4   9  20  39  62  89 117 146 188 240 293 351
#     4   8  15  31  56  84 112 139 170 218 283 351
#     4   9  19  35  54  79 112 143 180 231 282 339
#     4  10  22  38  54  78 112 151 199 242 282 338
#
# _framework density 19.720946999999999
#
# number of rings (size 3 to 8) (size 9 to 14) (size 15 to 20)
#    0.000    2.727    0.000    1.636    2.545    3.273 
#    0.000    1.818    0.000    7.636    0.000    0.000 
#    0.000    0.000    0.000    0.000    0.000    0.000 
#
# Total GULP energy -545133.888426 kJ/mol
# GULP energy per Si atom -12389.406555 kJ/mol
# Density = 1.967606 g / cm^3
# Si number density = 19.720947 Si / 1000 Ang^3
#
#
#
# Elastic Constant Matrix: (Units=GPa)
#
#
# Indices 1 2 3 4 5 6 
#
# 1 45.3987 24.1856 34.1288 0.0000 0.0000 0.0000
# 2 24.1856 79.3559 51.9183 0.0000 0.0000 0.0000
# 3 34.1288 51.9183 152.8187 0.0000 0.0000 0.0000
# 4 0.0000 0.0000 0.0000 27.5633 0.0000 0.0000
# 5 0.0000 0.0000 0.0000 0.0000 27.7161 0.0000
# 6 0.0000 0.0000 0.0000 0.0000 0.0000 18.9427
#
#
#
# Elastic Compliance Matrix: (Units=1/GPa)
#
#
# Indices 1 2 3 4 5 6 
#
# 1 0.028402 -0.005794 -0.004375 0.000000 0.000000 0.000000
# 2 -0.005794 0.017385 -0.004612 0.000000 0.000000 0.000000
# 3 -0.004375 -0.004612 0.009088 0.000000 0.000000 0.000000
# 4 0.000000 0.000000 0.000000 0.036280 0.000000 0.000000
# 5 0.000000 0.000000 0.000000 0.000000 0.036080 0.000000
# 6 0.000000 0.000000 0.000000 0.000000 0.000000 0.052791
#
#
# Mechanical properties :
#
#
# Convention : Reuss Voigt Hill
#
# Bulk Modulus (GPa) = 39.50569 55.33762 47.42166
# Shear Modulus (GPa) = 22.93304 26.00046 24.46675
#
# Velocity S-wave (km/s) = 3.41380 3.63494 3.52610
# Velocity P-wave (km/s) = 5.96779 6.76301 6.37781
#
# Compressibility (1/GPa) = 0.02531281
#
# Stress axis : x y z
#
# Youngs Moduli (GPa) = 35.20823 57.52088 110.03960
#
# Poissons Ratio (x) = 0.33329 0.48137
# Poissons Ratio (y) = 0.20401 0.50754
# Poissons Ratio (z) = 0.15402 0.26530
#
# Static dielectric constant tensor:
#      x y z
#    x 3.560340 0.000000 0.000000 
#    y 0.000000 3.979350 0.000000 
#    z 0.000000 0.000000 3.517740 
# 
# 
# High freq. dielectric constant tensor:
#      x y z
#    x 1.759710 0.000000 0.000000 
#    y 0.000000 1.767290 0.000000 
#    z 0.000000 0.000000 1.756390 
# 
# From -- ./inp_files/21747.got.cif
#   From: 2010.03.12/outbox.cif.g09.slc.cpg/sg67_11_cif.got.tgz:21747.got - 2010.04.10 22:41:39.
