data_PCOD8281013
_publ_section_title
;
Structure prediction by ZEFSAII (Michael W. Deem and Ramdas Pophale) SiO2 
 PCOD8281013
Probable space group: C M M A
;
_chemical_formula_sum "Si O2"
_cell_formula_units_Z 96
_cell_length_a 21.244597
_cell_length_b 16.296750
_cell_length_c 12.989322
_cell_angle_alpha 90.000000
_cell_angle_beta 90.000000
_cell_angle_gamma 90.000000
_cell_volume 4497.135605
_symmetry_space_group_name_H-M "C M M A"
_symmetry_group_IT_number 67
_symmetry_cell_setting 'orthorhombic'
loop_
_space_group_symop_operation_xyz
x,y,z
-x,1/2-y,z
x,-y,-z
-x,1/2+y,-z
-x,-y,-z
x,1/2+y,-z
-x,y,z
x,1/2-y,z
1/2+x,1/2+y,z
1/2-x,-y,z
1/2+x,1/2-y,-z
1/2-x,y,-z
1/2-x,1/2-y,-z
1/2+x,y,-z
1/2-x,1/2+y,z
1/2+x,-y,z
loop_
_atom_site_type_symbol
_atom_site_label
_atom_site_fract_x
_atom_site_fract_y
_atom_site_fract_z
Si Si1 0.632876 0.897403 0.723972
Si Si2 0.429563 0.344489 0.080426
Si Si3 0.337124 0.550251 0.403227
Si Si4 0.928878 0.158071 0.522157
Si Si5 0.815002 0.407249 0.041642
Si Si6 0.229919 0.654301 0.751435
O O1 0.583762 0.898410 0.817879
O O2 0.608106 0.843499 0.629541
O O3 0.696069 0.856754 0.769669
O O4 0.643781 0.990316 0.689074
O O5 0.500000 0.366509 0.040158
O O6 0.425748 0.250000 0.113099
O O7 0.378279 0.361202 0.992191
O O8 0.308090 0.500000 0.500000
O O9 0.399626 0.597478 0.438385
O O10 0.286048 0.615093 0.360506
O O11 0.925693 0.250000 0.477974
O O12 0.000000 0.129288 0.541610
O O13 0.810379 0.397260 0.164829
O O14 0.818533 0.500000 0.000000
O O15 0.750000 0.365904 0.000000
O O16 0.211407 0.750000 0.754404
#
# Coordination Sequence:
#
# PCOD8281013 Si02
#       6
#    16  16  16  16  16  16
#     4  11  22  37  61  91 123 164 211 266 322 385
#     4  11  23  40  63  94 130 167 211 265 324 390
#     4  10  24  41  61  89 125 168 211 263 325 390
#     4  10  21  39  61  87 122 164 212 264 322 389
#     4  11  24  42  68  95 129 173 215 269 327 393
#     4  12  24  40  66  96 128 166 218 271 328 387
#
# _framework density 21.346920999999998
#
# number of rings (size 3 to 8) (size 9 to 14) (size 15 to 20)
#    0.000    1.167    1.667    4.500    2.333   10.667 
#    0.000    5.000    0.000    3.000    0.000    0.000 
#    0.000    0.000    0.000    0.000    0.000    0.000 
#
# Total GULP energy -595255.779187 kJ/mol
# GULP energy per Si atom -12401.162066 kJ/mol
# Density = 2.129833 g / cm^3
# Si number density = 21.346921 Si / 1000 Ang^3
#
#
#
# Elastic Constant Matrix: (Units=GPa)
#
#
# Indices 1 2 3 4 5 6 
#
# 1 150.7628 44.5401 52.5246 0.0000 0.0000 0.0000
# 2 44.5401 103.6892 46.3066 0.0000 0.0000 0.0000
# 3 52.5246 46.3066 101.0569 0.0000 0.0000 0.0000
# 4 0.0000 0.0000 0.0000 27.2146 0.0000 0.0000
# 5 0.0000 0.0000 0.0000 0.0000 37.1050 0.0000
# 6 0.0000 0.0000 0.0000 0.0000 0.0000 26.7385
#
#
#
# Elastic Compliance Matrix: (Units=1/GPa)
#
#
# Indices 1 2 3 4 5 6 
#
# 1 0.008447 -0.002097 -0.003430 0.000000 0.000000 0.000000
# 2 -0.002097 0.012646 -0.004705 0.000000 0.000000 0.000000
# 3 -0.003430 -0.004705 0.013834 0.000000 0.000000 0.000000
# 4 0.000000 0.000000 0.000000 0.036745 0.000000 0.000000
# 5 0.000000 0.000000 0.000000 0.000000 0.026951 0.000000
# 6 0.000000 0.000000 0.000000 0.000000 0.000000 0.037399
#
#
# Mechanical properties :
#
#
# Convention : Reuss Voigt Hill
#
# Bulk Modulus (GPa) = 69.13523 71.36127 70.24825
# Shear Modulus (GPa) = 30.99693 32.35413 31.67553
#
# Velocity S-wave (km/s) = 3.81472 3.89734 3.85625
# Velocity P-wave (km/s) = 7.20136 7.33173 7.26684
#
# Compressibility (1/GPa) = 0.01446441
#
# Stress axis : x y z
#
# Youngs Moduli (GPa) = 118.38105 79.07583 72.28644
#
# Poissons Ratio (x) = 0.16582 0.24792
# Poissons Ratio (y) = 0.24824 0.34010
# Poissons Ratio (z) = 0.40601 0.37204
#
# Static dielectric constant tensor:
#      x y z
#    x 3.943460 0.000000 0.000000 
#    y 0.000000 3.834500 0.000000 
#    z 0.000000 0.000000 3.769480 
# 
# 
# High freq. dielectric constant tensor:
#      x y z
#    x 1.837860 0.000000 0.000000 
#    y 0.000000 1.839670 0.000000 
#    z 0.000000 0.000000 1.831880 
# 
# From -- ./inp_files/21952.got.cif
#   From: 2010.03.12/outbox.cif.g09.slc.cpg/sg67_11_cif.got.tgz:21952.got - 2010.04.10 22:41:39.
