data_PCOD8281413
_publ_section_title
;
Structure prediction by ZEFSAII (Michael W. Deem and Ramdas Pophale) SiO2 
 PCOD8281413
Probable space group: C M M A
;
_chemical_formula_sum "Si O2"
_cell_formula_units_Z 88
_cell_length_a 23.894871
_cell_length_b 14.950502
_cell_length_c 11.746295
_cell_angle_alpha 90.000000
_cell_angle_beta 90.000000
_cell_angle_gamma 90.000000
_cell_volume 4196.250146
_symmetry_space_group_name_H-M "C M M A"
_symmetry_group_IT_number 67
_symmetry_cell_setting 'orthorhombic'
loop_
_space_group_symop_operation_xyz
x,y,z
-x,1/2-y,z
x,-y,-z
-x,1/2+y,-z
-x,-y,-z
x,1/2+y,-z
-x,y,z
x,1/2-y,z
1/2+x,1/2+y,z
1/2-x,-y,z
1/2+x,1/2-y,-z
1/2-x,y,-z
1/2-x,1/2-y,-z
1/2+x,y,-z
1/2-x,1/2+y,z
1/2+x,-y,z
loop_
_atom_site_type_symbol
_atom_site_label
_atom_site_fract_x
_atom_site_fract_y
_atom_site_fract_z
Si Si1 0.061766 0.647153 0.248126
Si Si2 0.250000 0.500000 0.288998
Si Si3 0.372159 0.503377 0.369876
Si Si4 0.603488 0.102742 0.021944
Si Si5 0.720582 0.850867 0.887703
Si Si6 0.564109 0.648929 0.223662
O O1 0.080430 0.750000 0.259518
O O2 0.108243 0.588411 0.311737
O O3 0.055047 0.616796 0.115488
O O4 0.000000 0.632962 0.302210
O O5 0.305104 0.514333 0.365260
O O6 0.259503 0.411880 0.215090
O O7 0.391642 0.500000 0.500000
O O8 0.400639 0.586914 0.307219
O O9 0.655006 0.148404 0.087138
O O10 0.588901 0.149368 0.903559
O O11 0.616953 0.000000 0.000000
O O12 0.739965 0.750000 0.859055
O O13 0.750000 0.888487 0.000000
O O14 0.500000 0.614792 0.220570
O O15 0.567610 0.750000 0.270321
#
# Coordination Sequence:
#
# PCOD8281413 Si02
#       6
#    16   8  16  16  16  16
#     4  11  24  43  69 100 133 171 217 271 334 403
#     4  12  24  44  66  92 128 173 227 276 334 390
#     4  12  27  46  68  93 127 176 235 287 332 383
#     4  12  21  37  65 103 140 172 212 261 328 406
#     4  11  22  36  61  96 136 175 212 260 325 401
#     4  11  24  42  67 101 139 176 216 268 334 404
#
# _framework density 20.971105000000001
#
# number of rings (size 3 to 8) (size 9 to 14) (size 15 to 20)
#    0.000    0.545    3.636    5.455    0.000    6.545 
#    0.000    1.818    0.000    3.273    0.000    0.000 
#    0.000    0.000    0.000    0.000    0.000    0.000 
#
# Total GULP energy -545674.089686 kJ/mol
# GULP energy per Si atom -12401.683857 kJ/mol
# Density = 2.092337 g / cm^3
# Si number density = 20.971105 Si / 1000 Ang^3
#
#
#
# Elastic Constant Matrix: (Units=GPa)
#
#
# Indices 1 2 3 4 5 6 
#
# 1 115.6712 42.5169 39.0019 0.0000 0.0000 0.0000
# 2 42.5169 119.8647 47.2979 0.0000 0.0000 0.0000
# 3 39.0019 47.2979 129.7679 0.0000 0.0000 0.0000
# 4 0.0000 0.0000 0.0000 7.9259 0.0000 0.0000
# 5 0.0000 0.0000 0.0000 0.0000 20.1511 0.0000
# 6 0.0000 0.0000 0.0000 0.0000 0.0000 27.5340
#
#
#
# Elastic Compliance Matrix: (Units=1/GPa)
#
#
# Indices 1 2 3 4 5 6 
#
# 1 0.010401 -0.002868 -0.002081 0.000000 0.000000 0.000000
# 2 -0.002868 0.010535 -0.002978 0.000000 0.000000 0.000000
# 3 -0.002081 -0.002978 0.009417 0.000000 0.000000 0.000000
# 4 0.000000 0.000000 0.000000 0.126168 0.000000 0.000000
# 5 0.000000 0.000000 0.000000 0.000000 0.049625 0.000000
# 6 0.000000 0.000000 0.000000 0.000000 0.000000 0.036319
#
#
# Mechanical properties :
#
#
# Convention : Reuss Voigt Hill
#
# Bulk Modulus (GPa) = 68.96781 69.21526 69.09153
# Shear Modulus (GPa) = 19.00049 26.88804 22.94426
#
# Velocity S-wave (km/s) = 3.01330 3.58459 3.31129
# Velocity P-wave (km/s) = 6.71306 7.08584 6.90196
#
# Compressibility (1/GPa) = 0.01449952
#
# Stress axis : x y z
#
# Youngs Moduli (GPa) = 96.14434 94.92013 106.19392
#
# Poissons Ratio (x) = 0.27226 0.22095
# Poissons Ratio (y) = 0.27577 0.31622
# Poissons Ratio (z) = 0.20004 0.28265
#
# Static dielectric constant tensor:
#      x y z
#    x 3.954790 0.000000 0.000000 
#    y 0.000000 3.950530 0.000000 
#    z 0.000000 0.000000 3.615120 
# 
# 
# High freq. dielectric constant tensor:
#      x y z
#    x 1.835560 0.000000 0.000000 
#    y 0.000000 1.835120 0.000000 
#    z 0.000000 0.000000 1.799760 
# 
# From -- ./inp_files/18076.got.cif
#   From: 2010.03.12/outbox.cif.g09.slc.cpg/sg67_10_cif.got.tgz:18076.got - 2010.04.10 22:41:39.
