data_PCOD8281439
_publ_section_title
;
Structure prediction by ZEFSAII (Michael W. Deem and Ramdas Pophale) SiO2 
 PCOD8281439
Probable space group: C M M A
;
_chemical_formula_sum "Si O2"
_cell_formula_units_Z 80
_cell_length_a 22.319052
_cell_length_b 14.495935
_cell_length_c 11.180997
_cell_angle_alpha 90.000000
_cell_angle_beta 90.000000
_cell_angle_gamma 90.000000
_cell_volume 3617.449757
_symmetry_space_group_name_H-M "C M M A"
_symmetry_group_IT_number 67
_symmetry_cell_setting 'orthorhombic'
loop_
_space_group_symop_operation_xyz
x,y,z
-x,1/2-y,z
x,-y,-z
-x,1/2+y,-z
-x,-y,-z
x,1/2+y,-z
-x,y,z
x,1/2-y,z
1/2+x,1/2+y,z
1/2-x,-y,z
1/2+x,1/2-y,-z
1/2-x,y,-z
1/2-x,1/2-y,-z
1/2+x,y,-z
1/2-x,1/2+y,z
1/2+x,-y,z
loop_
_atom_site_type_symbol
_atom_site_label
_atom_site_fract_x
_atom_site_fract_y
_atom_site_fract_z
Si Si1 0.656930 0.352915 0.553615
Si Si2 0.568760 0.144341 0.938165
Si Si3 0.930149 0.531125 0.706161
Si Si4 0.879404 0.146185 0.810992
Si Si5 0.729965 0.897975 0.677081
O O1 0.631845 0.250000 0.526190
O O2 0.604152 0.419917 0.597279
O O3 0.685473 0.398920 0.436612
O O4 0.709925 0.340440 0.651952
O O5 0.500000 0.124726 0.973458
O O6 0.578147 0.250000 0.899336
O O7 0.589117 0.081947 0.828030
O O8 0.608610 0.117307 0.052333
O O9 0.912564 0.423673 0.719687
O O10 0.000000 0.541092 0.678582
O O11 0.904043 0.250000 0.788311
O O12 0.807697 0.143517 0.787910
O O13 0.750000 0.000000 0.709878
#
# Coordination Sequence:
#
# PCOD8281439 Si02
#       5
#    16  16  16  16  16
#     4  11  22  39  66  93 122 164 208 259 314 370
#     4   9  19  38  63  91 127 168 208 252 309 373
#     4  11  23  39  63  94 129 168 210 255 306 369
#     4  11  22  38  63  94 124 164 211 258 307 368
#     4  11  22  42  67  89 122 159 208 259 317 374
#
# _framework density 22.115026
#
# number of rings (size 3 to 8) (size 9 to 14) (size 15 to 20)
#    0.000    1.400    2.000    5.400    0.000    4.000 
#    0.000    4.000    0.000    8.400    0.000    0.000 
#    0.000    0.000    0.000    0.000    0.000    0.000 
#
# Total GULP energy -495991.803894 kJ/mol
# GULP energy per Si atom -12399.795097 kJ/mol
# Density = 2.206469 g / cm^3
# Si number density = 22.115026 Si / 1000 Ang^3
#
#
#
# Elastic Constant Matrix: (Units=GPa)
#
#
# Indices 1 2 3 4 5 6 
#
# 1 97.0954 17.3477 32.2288 0.0000 0.0000 0.0000
# 2 17.3477 106.1954 11.1368 0.0000 0.0000 0.0000
# 3 32.2288 11.1368 40.4486 0.0000 0.0000 0.0000
# 4 0.0000 0.0000 0.0000 13.5768 0.0000 0.0000
# 5 0.0000 0.0000 0.0000 0.0000 46.0459 0.0000
# 6 0.0000 0.0000 0.0000 0.0000 0.0000 30.1545
#
#
#
# Elastic Compliance Matrix: (Units=1/GPa)
#
#
# Indices 1 2 3 4 5 6 
#
# 1 0.014140 -0.001162 -0.010947 0.000000 0.000000 0.000000
# 2 -0.001162 0.009792 -0.001770 0.000000 0.000000 0.000000
# 3 -0.010947 -0.001770 0.033932 0.000000 0.000000 0.000000
# 4 0.000000 0.000000 0.000000 0.073655 0.000000 0.000000
# 5 0.000000 0.000000 0.000000 0.000000 0.021717 0.000000
# 6 0.000000 0.000000 0.000000 0.000000 0.000000 0.033163
#
#
# Mechanical properties :
#
#
# Convention : Reuss Voigt Hill
#
# Bulk Modulus (GPa) = 33.21518 40.57398 36.89458
# Shear Modulus (GPa) = 22.30217 30.15719 26.22968
#
# Velocity S-wave (km/s) = 3.17907 3.69677 3.44765
# Velocity P-wave (km/s) = 5.34109 6.05046 5.70681
#
# Compressibility (1/GPa) = 0.03010671
#
# Stress axis : x y z
#
# Youngs Moduli (GPa) = 70.71981 102.12355 29.47034
#
# Poissons Ratio (x) = 0.11866 0.32261
# Poissons Ratio (y) = 0.08217 0.05217
# Poissons Ratio (z) = 0.77416 0.18079
#
# Static dielectric constant tensor:
#      x y z
#    x 4.060240 0.000000 0.000000 
#    y 0.000000 4.155350 0.000000 
#    z 0.000000 0.000000 3.863850 
# 
# 
# High freq. dielectric constant tensor:
#      x y z
#    x 1.858040 0.000000 0.000000 
#    y 0.000000 1.890220 0.000000 
#    z 0.000000 0.000000 1.849770 
# 
# From -- ./inp_files/21639.got.cif
#   From: 2010.03.12/outbox.cif.g09.slc.cpg/sg67_11_cif.got.tgz:21639.got - 2010.04.10 22:41:39.
