data_PCOD8281571
_publ_section_title
;
Structure prediction by ZEFSAII (Michael W. Deem and Ramdas Pophale) SiO2 
 PCOD8281571
Probable space group: C M M A
;
_chemical_formula_sum "Si O2"
_cell_formula_units_Z 80
_cell_length_a 9.214977
_cell_length_b 19.832342
_cell_length_c 26.143658
_cell_angle_alpha 90.000000
_cell_angle_beta 90.000000
_cell_angle_gamma 90.000000
_cell_volume 4777.873117
_symmetry_space_group_name_H-M "C M M A"
_symmetry_group_IT_number 67
_symmetry_cell_setting 'orthorhombic'
loop_
_space_group_symop_operation_xyz
x,y,z
-x,1/2-y,z
x,-y,-z
-x,1/2+y,-z
-x,-y,-z
x,1/2+y,-z
-x,y,z
x,1/2-y,z
1/2+x,1/2+y,z
1/2-x,-y,z
1/2+x,1/2-y,-z
1/2-x,y,-z
1/2-x,1/2-y,-z
1/2+x,y,-z
1/2-x,1/2+y,z
1/2+x,-y,z
loop_
_atom_site_type_symbol
_atom_site_label
_atom_site_fract_x
_atom_site_fract_y
_atom_site_fract_z
Si Si1 0.831181 0.429764 0.840598
Si Si2 0.330765 0.928894 0.953692
Si Si3 0.172934 0.174952 0.757769
Si Si4 0.837064 0.830457 0.548984
Si Si5 0.338652 0.830172 0.645103
O O1 0.750000 0.500000 0.833761
O O2 0.810203 0.396822 0.897302
O O3 0.766085 0.376345 0.800250
O O4 0.000000 0.444041 0.830375
O O5 0.500000 0.937149 0.967080
O O6 0.250000 0.000000 0.951181
O O7 0.250000 0.887384 0.000000
O O8 0.235068 0.250000 0.768860
O O9 0.221792 0.149501 0.701295
O O10 0.000000 0.177861 0.759528
O O11 0.835494 0.750000 0.549399
O O12 0.750000 0.858001 0.500000
O O13 0.765309 0.859221 0.600931
O O14 0.000000 0.858382 0.545791
O O15 0.500000 0.859846 0.636356
O O16 0.346233 0.750000 0.642007
#
# Coordination Sequence:
#
# PCOD8281571 Si02
#       5
#    16  16  16  16  16
#     4   9  17  28  43  64  86 108 136 171 209 245
#     4   9  15  23  37  57  80 104 131 164 202 243
#     4   8  14  26  44  62  80 107 143 175 201 239
#     4   9  15  21  30  46  70  99 129 161 197 237
#     4   8  13  22  36  52  70  95 128 164 199 234
#
# _framework density 16.743850999999999
#
# number of rings (size 3 to 8) (size 9 to 14) (size 15 to 20)
#    0.000    3.400    0.000    3.000    0.000    3.200 
#    0.000    1.000    0.000    2.400    0.000    0.000 
#    0.000    0.800    0.000    9.200    0.000   16.600 
#
# Total GULP energy -495526.184847 kJ/mol
# GULP energy per Si atom -12388.154621 kJ/mol
# Density = 1.670574 g / cm^3
# Si number density = 16.743851 Si / 1000 Ang^3
#
#
#
# Elastic Constant Matrix: (Units=GPa)
#
#
# Indices 1 2 3 4 5 6 
#
# 1 90.7813 19.9694 68.1733 0.0000 0.0000 0.0000
# 2 19.9694 34.6408 45.7632 0.0000 0.0000 0.0000
# 3 68.1733 45.7632 184.3186 0.0000 0.0000 0.0000
# 4 0.0000 0.0000 0.0000 10.4692 0.0000 0.0000
# 5 0.0000 0.0000 0.0000 0.0000 24.4029 0.0000
# 6 0.0000 0.0000 0.0000 0.0000 0.0000 7.9633
#
#
#
# Elastic Compliance Matrix: (Units=1/GPa)
#
#
# Indices 1 2 3 4 5 6 
#
# 1 0.015345 -0.002006 -0.005178 0.000000 0.000000 0.000000
# 2 -0.002006 0.043220 -0.009989 0.000000 0.000000 0.000000
# 3 -0.005178 -0.009989 0.009820 0.000000 0.000000 0.000000
# 4 0.000000 0.000000 0.000000 0.095519 0.000000 0.000000
# 5 0.000000 0.000000 0.000000 0.000000 0.040979 0.000000
# 6 0.000000 0.000000 0.000000 0.000000 0.000000 0.125575
#
#
# Mechanical properties :
#
#
# Convention : Reuss Voigt Hill
#
# Bulk Modulus (GPa) = 29.37658 64.17251 46.77454
# Shear Modulus (GPa) = 13.29258 20.28941 16.79099
#
# Velocity S-wave (km/s) = 2.82064 3.48480 3.17016
# Velocity P-wave (km/s) = 5.30950 7.38925 6.43396
#
# Compressibility (1/GPa) = 0.03404072
#
# Stress axis : x y z
#
# Youngs Moduli (GPa) = 65.16844 23.13738 101.82834
#
# Poissons Ratio (x) = 0.04641 0.52722
# Poissons Ratio (y) = 0.13072 1.01715
# Poissons Ratio (z) = 0.33741 0.23112
#
# Static dielectric constant tensor:
#      x y z
#    x 3.123530 0.000000 0.000000 
#    y 0.000000 2.573720 0.000000 
#    z 0.000000 0.000000 4.025820 
# 
# 
# High freq. dielectric constant tensor:
#      x y z
#    x 1.633210 0.000000 0.000000 
#    y 0.000000 1.561030 0.000000 
#    z 0.000000 0.000000 1.673000 
# 
# From -- ./inp_files/43262.got.cif
#   From: 2010.03.12/outbox.cif.g09.slc.cpg/sg67_22_cif.got.tgz:43262.got - 2010.04.10 22:41:39.
