data_PCOD8281868
_publ_section_title
;
Structure prediction by ZEFSAII (Michael W. Deem and Ramdas Pophale) SiO2 
 PCOD8281868
Probable space group: C C C A
;
_chemical_formula_sum "Si O2"
_cell_formula_units_Z 48
_cell_length_a 15.289231
_cell_length_b 9.468702
_cell_length_c 17.597979
_cell_angle_alpha 90.000000
_cell_angle_beta 90.000000
_cell_angle_gamma 90.000000
_cell_volume 2547.644851
_symmetry_space_group_name_H-M "C C C A"
_symmetry_group_IT_number 68
_space_group.IT_coordinate_system_code '2'
_symmetry_cell_setting 'orthorhombic'
loop_
_space_group_symop_operation_xyz
x,y,z
-x,1/2-y,z
x,1/2-y,1/2-z
-x,y,1/2-z
-x,-y,-z
x,1/2+y,-z
-x,1/2+y,1/2+z
x,-y,1/2+z
1/2+x,1/2+y,z
1/2-x,-y,z
1/2+x,-y,1/2-z
1/2-x,1/2+y,1/2-z
1/2-x,1/2-y,-z
1/2+x,y,-z
1/2-x,y,1/2+z
1/2+x,1/2-y,1/2+z
loop_
_atom_site_type_symbol
_atom_site_label
_atom_site_fract_x
_atom_site_fract_y
_atom_site_fract_z
Si Si1 0.595476 0.718187 0.591675
Si Si2 0.738846 0.340894 0.681351
Si Si3 0.342218 0.565402 0.466963
O O1 0.500000 0.750000 0.626410
O O2 0.666854 0.724155 0.658560
O O3 0.615544 0.837700 0.529902
O O4 0.593669 0.564167 0.552392
O O5 0.698135 0.250000 0.750000
O O6 0.750000 0.500000 0.710994
O O7 0.674901 0.339168 0.608394
O O8 0.250000 0.500000 0.495046
#
# Coordination Sequence:
#
# PCOD8281868 Si02
#       3
#    16  16  16
#     4  10  19  32  52  77 102 126 159 206 250 289
#     4   9  19  33  50  72  98 130 168 201 238 292
#     4   9  18  33  51  74  98 129 168 199 237 295
#
# _framework density 18.840931000000001
#
# number of rings (size 3 to 8) (size 9 to 14) (size 15 to 20)
#    0.000    3.333    0.000    5.000    0.000    4.667 
#    0.000    0.000    0.000    9.000    0.000    0.000 
#    0.000    0.000    0.000    0.000    0.000    0.000 
#
# Total GULP energy -297477.942285 kJ/mol
# GULP energy per Si atom -12394.914262 kJ/mol
# Density = 1.879805 g / cm^3
# Si number density = 18.840931 Si / 1000 Ang^3
#
#
#
# Elastic Constant Matrix: (Units=GPa)
#
#
# Indices 1 2 3 4 5 6 
#
# 1 77.2836 22.0831 7.7305 0.0000 0.0000 0.0000
# 2 22.0831 61.6446 27.5782 0.0000 0.0000 0.0000
# 3 7.7305 27.5782 51.8632 0.0000 0.0000 0.0000
# 4 0.0000 0.0000 0.0000 34.3554 0.0000 0.0000
# 5 0.0000 0.0000 0.0000 0.0000 6.8018 0.0000
# 6 0.0000 0.0000 0.0000 0.0000 0.0000 26.9341
#
#
#
# Elastic Compliance Matrix: (Units=1/GPa)
#
#
# Indices 1 2 3 4 5 6 
#
# 1 0.014439 -0.005524 0.000785 0.000000 0.000000 0.000000
# 2 -0.005524 0.023399 -0.011619 0.000000 0.000000 0.000000
# 3 0.000785 -0.011619 0.025343 0.000000 0.000000 0.000000
# 4 0.000000 0.000000 0.000000 0.029107 0.000000 0.000000
# 5 0.000000 0.000000 0.000000 0.000000 0.147021 0.000000
# 6 0.000000 0.000000 0.000000 0.000000 0.000000 0.037128
#
#
# Mechanical properties :
#
#
# Convention : Reuss Voigt Hill
#
# Bulk Modulus (GPa) = 32.82408 33.95279 33.38843
# Shear Modulus (GPa) = 15.65890 22.51156 19.08523
#
# Velocity S-wave (km/s) = 2.88603 3.46037 3.18617
# Velocity P-wave (km/s) = 5.34463 5.83313 5.59421
#
# Compressibility (1/GPa) = 0.03046544
#
# Stress axis : x y z
#
# Youngs Moduli (GPa) = 69.25589 42.73711 39.45887
#
# Poissons Ratio (x) = 0.23607 -0.03098
# Poissons Ratio (y) = 0.38256 0.45847
# Poissons Ratio (z) = -0.05437 0.49656
#
# Static dielectric constant tensor:
#      x y z
#    x 3.302250 0.000000 0.000000 
#    y 0.000000 3.521290 0.000000 
#    z 0.000000 0.000000 3.164650 
# 
# 
# High freq. dielectric constant tensor:
#      x y z
#    x 1.710080 0.000000 0.000000 
#    y 0.000000 1.742600 0.000000 
#    z 0.000000 0.000000 1.711870 
# 
# From -- ./inp_files/19928.got.cif
#   From: 2010.03.12/outbox.cif.g09.slc.cpg/sg68_10_cif.got.tgz:19928.got - 2010.04.10 23:14:56.
