data_PCOD8281866
_publ_section_title
;
Structure prediction by ZEFSAII (Michael W. Deem and Ramdas Pophale) SiO2 
 PCOD8281866
Probable space group: C C C A
;
_chemical_formula_sum "Si O2"
_cell_formula_units_Z 80
_cell_length_a 16.489007
_cell_length_b 8.757981
_cell_length_c 28.737917
_cell_angle_alpha 90.000000
_cell_angle_beta 90.000000
_cell_angle_gamma 90.000000
_cell_volume 4150.054377
_symmetry_space_group_name_H-M "C C C A"
_symmetry_group_IT_number 68
_space_group.IT_coordinate_system_code '2'
_symmetry_cell_setting 'orthorhombic'
loop_
_space_group_symop_operation_xyz
x,y,z
-x,1/2-y,z
x,1/2-y,1/2-z
-x,y,1/2-z
-x,-y,-z
x,1/2+y,-z
-x,1/2+y,1/2+z
x,-y,1/2+z
1/2+x,1/2+y,z
1/2-x,-y,z
1/2+x,-y,1/2-z
1/2-x,1/2+y,1/2-z
1/2-x,1/2-y,-z
1/2+x,y,-z
1/2-x,y,1/2+z
1/2+x,1/2-y,1/2+z
loop_
_atom_site_type_symbol
_atom_site_label
_atom_site_fract_x
_atom_site_fract_y
_atom_site_fract_z
Si Si1 0.760208 0.819775 0.300802
Si Si2 0.831120 0.904526 0.533002
Si Si3 0.087729 0.297732 0.537903
Si Si4 0.828492 0.605076 0.863814
Si Si5 0.088305 0.695382 0.145005
O O1 0.760503 0.750000 0.250000
O O2 0.683372 0.746067 0.328497
O O3 0.845573 0.783184 0.324716
O O4 0.750000 0.000000 0.298210
O O5 0.841382 0.781349 0.492406
O O6 0.834910 0.825885 0.584052
O O7 0.750000 0.000000 0.525402
O O8 0.906245 0.021611 0.530725
O O9 0.101791 0.253009 0.591606
O O10 0.000000 0.250000 0.519479
O O11 0.750000 0.500000 0.861128
O O12 0.903082 0.490589 0.850555
O O13 0.000000 0.750000 0.162474
#
# Coordination Sequence:
#
# PCOD8281866 Si02
#       5
#    16  16  16  16  16
#     4  11  22  38  60  82 104 136 177 226 278 330
#     4  10  19  32  51  75 105 142 181 222 259 307
#     4  10  20  33  50  76 111 145 177 216 265 314
#     4   8  17  35  54  76 108 142 178 219 266 323
#     4   9  19  36  56  79 110 146 179 217 268 324
#
# _framework density 19.276855000000001
#
# number of rings (size 3 to 8) (size 9 to 14) (size 15 to 20)
#    0.000    2.400    0.000    4.200    0.000    2.800 
#    0.000    1.000    0.000    1.200    0.000    0.000 
#    0.000    0.000    0.000    0.000    0.000    0.000 
#
# Total GULP energy -495828.813012 kJ/mol
# GULP energy per Si atom -12395.720325 kJ/mol
# Density = 1.923298 g / cm^3
# Si number density = 19.276855 Si / 1000 Ang^3
#
#
#
# Elastic Constant Matrix: (Units=GPa)
#
#
# Indices 1 2 3 4 5 6 
#
# 1 81.7201 36.6270 41.0645 0.0000 0.0000 0.0000
# 2 36.6270 112.8763 66.2544 0.0000 0.0000 0.0000
# 3 41.0645 66.2544 125.0523 0.0000 0.0000 0.0000
# 4 0.0000 0.0000 0.0000 -58.6925 0.0000 0.0000
# 5 0.0000 0.0000 0.0000 0.0000 9.3273 0.0000
# 6 0.0000 0.0000 0.0000 0.0000 0.0000 31.7951
#
#
#
# Elastic Compliance Matrix: (Units=1/GPa)
#
#
# Indices 1 2 3 4 5 6 
#
# 1 0.015292 -0.002924 -0.003473 0.000000 0.000000 0.000000
# 2 -0.002924 0.013417 -0.006148 0.000000 0.000000 0.000000
# 3 -0.003473 -0.006148 0.012394 0.000000 0.000000 0.000000
# 4 0.000000 0.000000 0.000000 -0.017038 0.000000 0.000000
# 5 0.000000 0.000000 0.000000 0.000000 0.107212 0.000000
# 6 0.000000 0.000000 0.000000 0.000000 0.000000 0.031451
#
#
# Mechanical properties :
#
#
# Convention : Reuss Voigt Hill
#
# Bulk Modulus (GPa) = 62.44488 67.50449 64.97469
# Shear Modulus (GPa) = 25.88572 8.19950 17.04261
#
# Velocity S-wave (km/s) = 3.66845 2.06465 2.97660
# Velocity P-wave (km/s) = 7.09982 6.38578 6.75224
#
# Compressibility (1/GPa) = 0.01601412
#
# Stress axis : x y z
#
# Youngs Moduli (GPa) = 65.39217 74.53310 80.68154
#
# Poissons Ratio (x) = 0.21793 0.28017
# Poissons Ratio (y) = 0.19120 0.49605
# Poissons Ratio (z) = 0.22708 0.45825
#
# Static dielectric constant tensor:
#      x y z
#    x 3.618080 0.000000 0.000000 
#    y 0.000000 3.805160 0.000000 
#    z 0.000000 0.000000 3.612950 
# 
# 
# High freq. dielectric constant tensor:
#      x y z
#    x 1.739120 0.000000 0.000000 
#    y 0.000000 1.739950 0.000000 
#    z 0.000000 0.000000 1.751440 
# 
# From -- ./inp_files/49098.got.cif
#   From: 2010.03.12/outbox.cif.g09.slc.cpg/sg68_25_cif.got.tgz:49098.got - 2010.04.10 23:14:56.
