data_PCOD8281452
_publ_section_title
;
Structure prediction by ZEFSAII (Michael W. Deem and Ramdas Pophale) SiO2 
 PCOD8281452
Probable space group: C M M A
;
_chemical_formula_sum "Si O2"
_cell_formula_units_Z 72
_cell_length_a 8.086522
_cell_length_b 27.418053
_cell_length_c 15.151042
_cell_angle_alpha 90.000000
_cell_angle_beta 90.000000
_cell_angle_gamma 90.000000
_cell_volume 3359.238864
_symmetry_space_group_name_H-M "C M M A"
_symmetry_group_IT_number 67
_symmetry_cell_setting 'orthorhombic'
loop_
_space_group_symop_operation_xyz
x,y,z
-x,1/2-y,z
x,-y,-z
-x,1/2+y,-z
-x,-y,-z
x,1/2+y,-z
-x,y,z
x,1/2-y,z
1/2+x,1/2+y,z
1/2-x,-y,z
1/2+x,1/2-y,-z
1/2-x,y,-z
1/2-x,1/2-y,-z
1/2+x,y,-z
1/2-x,1/2+y,z
1/2+x,-y,z
loop_
_atom_site_type_symbol
_atom_site_label
_atom_site_fract_x
_atom_site_fract_y
_atom_site_fract_z
Si Si1 0.819742 0.450027 0.861527
Si Si2 0.250000 0.371816 0.000000
Si Si3 0.810470 0.946010 0.675261
Si Si4 0.000000 0.694157 0.901492
Si Si5 0.691637 0.647457 0.597909
Si Si6 0.500000 0.304791 0.692788
O O1 0.750000 0.500000 0.904922
O O2 0.706197 0.433668 0.779543
O O3 0.000000 0.461857 0.821622
O O4 0.844929 0.407876 0.933794
O O5 0.152784 0.335442 0.061768
O O6 0.698256 0.910296 0.616165
O O7 0.000000 0.938385 0.647633
O O8 0.750000 0.000000 0.653964
O O9 0.000000 0.750000 0.936035
O O10 0.000000 0.692987 0.797249
O O11 0.500000 0.665373 0.612846
O O12 0.750000 0.660454 0.500000
O O13 0.826935 0.671407 0.662621
O O14 0.500000 0.250000 0.656741
#
# Coordination Sequence:
#
# PCOD8281452 Si02
#       6
#    16   8  16   8  16   8
#     4  11  23  37  59  95 132 174 225 274 338 416
#     4  12  24  40  68  92 126 176 218 286 346 398
#     4  11  22  39  64  97 141 189 230 280 341 411
#     4  11  26  48  69  96 133 175 236 292 350 419
#     4  12  24  45  71 107 144 180 232 290 345 422
#     4  11  26  50  76 101 137 189 233 292 365 421
#
# _framework density 21.433427999999999
#
# number of rings (size 3 to 8) (size 9 to 14) (size 15 to 20)
#    0.000    0.667    3.333    6.000    3.111    2.222 
#    2.000    2.222    0.000    0.000    0.000    0.000 
#    0.000    0.000    0.000    0.000    0.000    0.000 
#
# Total GULP energy -446165.485617 kJ/mol
# GULP energy per Si atom -12393.485712 kJ/mol
# Density = 2.138464 g / cm^3
# Si number density = 21.433428 Si / 1000 Ang^3
#
#
#
# Elastic Constant Matrix: (Units=GPa)
#
#
# Indices 1 2 3 4 5 6 
#
# 1 163.4030 42.7747 26.6322 0.0000 0.0000 0.0000
# 2 42.7747 122.5755 30.2360 0.0000 0.0000 0.0000
# 3 26.6322 30.2360 60.4598 0.0000 0.0000 0.0000
# 4 0.0000 0.0000 0.0000 14.0568 0.0000 0.0000
# 5 0.0000 0.0000 0.0000 0.0000 38.9047 0.0000
# 6 0.0000 0.0000 0.0000 0.0000 0.0000 21.4430
#
#
#
# Elastic Compliance Matrix: (Units=1/GPa)
#
#
# Indices 1 2 3 4 5 6 
#
# 1 0.006964 -0.001909 -0.002113 0.000000 0.000000 0.000000
# 2 -0.001909 0.009830 -0.004075 0.000000 0.000000 0.000000
# 3 -0.002113 -0.004075 0.019508 0.000000 0.000000 0.000000
# 4 0.000000 0.000000 0.000000 0.071140 0.000000 0.000000
# 5 0.000000 0.000000 0.000000 0.000000 0.025704 0.000000
# 6 0.000000 0.000000 0.000000 0.000000 0.000000 0.046635
#
#
# Mechanical properties :
#
#
# Convention : Reuss Voigt Hill
#
# Bulk Modulus (GPa) = 49.73027 60.63602 55.18314
# Shear Modulus (GPa) = 24.66976 31.33393 28.00184
#
# Velocity S-wave (km/s) = 3.39631 3.82765 3.61841
# Velocity P-wave (km/s) = 6.21550 6.92000 6.57719
#
# Compressibility (1/GPa) = 0.02010848
#
# Stress axis : x y z
#
# Youngs Moduli (GPa) = 143.59712 101.73390 51.25976
#
# Poissons Ratio (x) = 0.19421 0.10831
# Poissons Ratio (y) = 0.27412 0.20888
# Poissons Ratio (z) = 0.30340 0.41455
#
# Static dielectric constant tensor:
#      x y z
#    x 3.778340 0.000000 0.000000 
#    y 0.000000 4.059530 0.000000 
#    z 0.000000 0.000000 3.746710 
# 
# 
# High freq. dielectric constant tensor:
#      x y z
#    x 1.853170 0.000000 0.000000 
#    y 0.000000 1.843930 0.000000 
#    z 0.000000 0.000000 1.837830 
# 
# From -- ./inp_files/25147.got.cif
#   From: 2010.03.12/outbox.cif.g09.slc.cpg/sg67_13_cif.got.tgz:25147.got - 2010.04.10 22:41:39.
