data_PCOD8281152
_publ_section_title
;
Structure prediction by ZEFSAII (Michael W. Deem and Ramdas Pophale) SiO2 
 PCOD8281152
Probable space group: C M M A
;
_chemical_formula_sum "Si O2"
_cell_formula_units_Z 64
_cell_length_a 23.839531
_cell_length_b 16.617309
_cell_length_c 8.823238
_cell_angle_alpha 90.000000
_cell_angle_beta 90.000000
_cell_angle_gamma 90.000000
_cell_volume 3495.315614
_symmetry_space_group_name_H-M "C M M A"
_symmetry_group_IT_number 67
_symmetry_cell_setting 'orthorhombic'
loop_
_space_group_symop_operation_xyz
x,y,z
-x,1/2-y,z
x,-y,-z
-x,1/2+y,-z
-x,-y,-z
x,1/2+y,-z
-x,y,z
x,1/2-y,z
1/2+x,1/2+y,z
1/2-x,-y,z
1/2+x,1/2-y,-z
1/2-x,y,-z
1/2-x,1/2-y,-z
1/2+x,y,-z
1/2-x,1/2+y,z
1/2+x,-y,z
loop_
_atom_site_type_symbol
_atom_site_label
_atom_site_fract_x
_atom_site_fract_y
_atom_site_fract_z
Si Si1 0.684645 0.013598 0.328063
Si Si2 0.500000 0.660947 0.154711
Si Si3 0.877577 0.655785 0.196116
Si Si4 0.000000 0.161868 0.795640
Si Si5 0.106403 0.424887 0.101738
O O1 0.668861 0.105437 0.286573
O O2 0.665966 0.000000 0.500000
O O3 0.750000 0.000000 0.304604
O O4 0.654390 0.950447 0.218126
O O5 0.500000 0.750000 0.230627
O O6 0.444642 0.611019 0.201895
O O7 0.500000 0.669922 0.975405
O O8 0.870004 0.750000 0.231769
O O9 0.940002 0.622188 0.249514
O O10 0.869847 0.642212 0.015136
O O11 0.000000 0.250000 0.721727
O O12 0.085336 0.500000 0.000000
#
# Coordination Sequence:
#
# PCOD8281152 Si02
#       5
#    16   8  16   8  16
#     4  10  22  39  52  68 102 144 178 211 256 306
#     4   9  15  27  47  78 110 131 156 201 255 309
#     4   9  17  33  57  83 104 130 168 212 254 302
#     4   7  12  25  49  78 106 127 152 197 256 305
#     4   9  17  30  53  78 103 132 167 209 255 303
#
# _framework density 18.310220000000001
#
# number of rings (size 3 to 8) (size 9 to 14) (size 15 to 20)
#    0.000    3.000    0.000    2.625    0.000    7.500 
#    0.000   11.250    0.000    1.500    0.000    0.000 
#    0.000    0.000    0.000    0.000    0.000    0.000 
#
# Total GULP energy -396439.398842 kJ/mol
# GULP energy per Si atom -12388.731214 kJ/mol
# Density = 1.826854 g / cm^3
# Si number density = 18.310220 Si / 1000 Ang^3
#
#
#
# Elastic Constant Matrix: (Units=GPa)
#
#
# Indices 1 2 3 4 5 6 
#
# 1 112.8646 63.1978 52.4418 0.0000 0.0000 0.0000
# 2 63.1978 101.9855 35.9607 0.0000 0.0000 0.0000
# 3 52.4418 35.9607 70.3869 0.0000 0.0000 0.0000
# 4 0.0000 0.0000 0.0000 12.2801 0.0000 0.0000
# 5 0.0000 0.0000 0.0000 0.0000 1.2225 0.0000
# 6 0.0000 0.0000 0.0000 0.0000 0.0000 28.5730
#
#
#
# Elastic Compliance Matrix: (Units=1/GPa)
#
#
# Indices 1 2 3 4 5 6 
#
# 1 0.017259 -0.007514 -0.009019 0.000000 0.000000 0.000000
# 2 -0.007514 0.015232 -0.002183 0.000000 0.000000 0.000000
# 3 -0.009019 -0.002183 0.022043 0.000000 0.000000 0.000000
# 4 0.000000 0.000000 0.000000 0.081433 0.000000 0.000000
# 5 0.000000 0.000000 0.000000 0.000000 0.817999 0.000000
# 6 0.000000 0.000000 0.000000 0.000000 0.000000 0.034998
#
#
# Mechanical properties :
#
#
# Convention : Reuss Voigt Hill
#
# Bulk Modulus (GPa) = 58.48418 65.38195 61.93307
# Shear Modulus (GPa) = 4.84451 17.32425 11.08438
#
# Velocity S-wave (km/s) = 1.62836 3.07930 2.46309
# Velocity P-wave (km/s) = 5.96200 6.95903 6.47972
#
# Compressibility (1/GPa) = 0.01709864
#
# Stress axis : x y z
#
# Youngs Moduli (GPa) = 57.94203 65.65293 45.36681
#
# Poissons Ratio (x) = 0.49334 0.40918
# Poissons Ratio (y) = 0.43540 0.09905
# Poissons Ratio (z) = 0.52260 0.14334
#
# Static dielectric constant tensor:
#      x y z
#    x 3.472130 0.000000 0.000000 
#    y 0.000000 3.493040 0.000000 
#    z 0.000000 0.000000 3.058420 
# 
# 
# High freq. dielectric constant tensor:
#      x y z
#    x 1.709000 0.000000 0.000000 
#    y 0.000000 1.709990 0.000000 
#    z 0.000000 0.000000 1.665530 
# 
# From -- ./inp_files/9637.got.cif
#   From: 2010.03.12/outbox.cif.g09.slc.cpg/sg67_5_cif.got.tgz:9637.got - 2010.04.10 22:41:39.
