data_PCOD8281107
_publ_section_title
;
Structure prediction by ZEFSAII (Michael W. Deem and Ramdas Pophale) SiO2 
 PCOD8281107
Probable space group: C M M A
;
_chemical_formula_sum "Si O2"
_cell_formula_units_Z 72
_cell_length_a 8.775181
_cell_length_b 25.219705
_cell_length_c 19.760032
_cell_angle_alpha 90.000000
_cell_angle_beta 90.000000
_cell_angle_gamma 90.000000
_cell_volume 4373.042810
_symmetry_space_group_name_H-M "C M M A"
_symmetry_group_IT_number 67
_symmetry_cell_setting 'orthorhombic'
loop_
_space_group_symop_operation_xyz
x,y,z
-x,1/2-y,z
x,-y,-z
-x,1/2+y,-z
-x,-y,-z
x,1/2+y,-z
-x,y,z
x,1/2-y,z
1/2+x,1/2+y,z
1/2-x,-y,z
1/2+x,1/2-y,-z
1/2-x,y,-z
1/2-x,1/2-y,-z
1/2+x,y,-z
1/2-x,1/2+y,z
1/2+x,-y,z
loop_
_atom_site_type_symbol
_atom_site_label
_atom_site_fract_x
_atom_site_fract_y
_atom_site_fract_z
Si Si1 0.821125 0.147186 0.155481
Si Si2 0.678093 0.309914 0.434526
Si Si3 0.679476 0.250000 0.926565
Si Si4 0.819059 0.443146 0.929141
Si Si5 0.176943 0.687592 0.285870
O O1 0.764685 0.198368 0.113773
O O2 0.727106 0.096910 0.129800
O O3 0.782530 0.155740 0.234035
O O4 0.000000 0.136873 0.146644
O O5 0.500000 0.310611 0.444644
O O6 0.741280 0.250000 0.433474
O O7 0.750000 0.340175 0.500000
O O8 0.719029 0.334713 0.361082
O O9 0.500000 0.250000 0.933817
O O10 0.750000 0.250000 0.000000
O O11 0.750000 0.500000 0.910523
O O12 0.000000 0.447357 0.935572
O O13 0.750000 0.422348 0.000000
O O14 0.212188 0.750000 0.281339
O O15 0.000000 0.677035 0.269484
#
# Coordination Sequence:
#
# PCOD8281107 Si02
#       5
#    16  16   8  16  16
#     4  11  21  34  49  71  98 128 163 200 240 289
#     4   8  14  24  38  58  85 119 160 198 233 276
#     4  10  22  34  46  66  93 124 159 194 233 280
#     4  11  22  38  57  76  95 122 157 201 248 292
#     4   9  17  29  44  64  93 129 164 198 239 286
#
# _framework density 16.464509
#
# number of rings (size 3 to 8) (size 9 to 14) (size 15 to 20)
#    0.000    2.222    1.111    5.333    0.000    4.444 
#    0.000    2.222    0.000    0.000    0.000    0.000 
#    0.000    0.889    0.000    9.333    0.000    5.556 
#
# Total GULP energy -446279.102051 kJ/mol
# GULP energy per Si atom -12396.641724 kJ/mol
# Density = 1.642703 g / cm^3
# Si number density = 16.464509 Si / 1000 Ang^3
#
#
#
# Elastic Constant Matrix: (Units=GPa)
#
#
# Indices 1 2 3 4 5 6 
#
# 1 75.8012 30.4362 43.3427 0.0000 0.0000 0.0000
# 2 30.4362 55.9707 41.7344 0.0000 0.0000 0.0000
# 3 43.3427 41.7344 139.2831 0.0000 0.0000 0.0000
# 4 0.0000 0.0000 0.0000 12.2052 0.0000 0.0000
# 5 0.0000 0.0000 0.0000 0.0000 33.9003 0.0000
# 6 0.0000 0.0000 0.0000 0.0000 0.0000 19.8073
#
#
#
# Elastic Compliance Matrix: (Units=1/GPa)
#
#
# Indices 1 2 3 4 5 6 
#
# 1 0.018080 -0.007258 -0.003451 0.000000 0.000000 0.000000
# 2 -0.007258 0.025921 -0.005508 0.000000 0.000000 0.000000
# 3 -0.003451 -0.005508 0.009904 0.000000 0.000000 0.000000
# 4 0.000000 0.000000 0.000000 0.081932 0.000000 0.000000
# 5 0.000000 0.000000 0.000000 0.000000 0.029498 0.000000
# 6 0.000000 0.000000 0.000000 0.000000 0.000000 0.050486
#
#
# Mechanical properties :
#
#
# Convention : Reuss Voigt Hill
#
# Bulk Modulus (GPa) = 46.57818 55.78684 51.18251
# Shear Modulus (GPa) = 19.57604 23.55200 21.56402
#
# Velocity S-wave (km/s) = 3.45191 3.78626 3.62294
# Velocity P-wave (km/s) = 6.65124 7.28498 6.97531
#
# Compressibility (1/GPa) = 0.02146928
#
# Stress axis : x y z
#
# Youngs Moduli (GPa) = 55.30870 38.57941 100.96839
#
# Poissons Ratio (x) = 0.28002 0.34849
# Poissons Ratio (y) = 0.40145 0.55614
# Poissons Ratio (z) = 0.19090 0.21250
#
# Static dielectric constant tensor:
#      x y z
#    x 3.078970 0.000000 0.000000 
#    y 0.000000 2.777430 0.000000 
#    z 0.000000 0.000000 3.352170 
# 
# 
# High freq. dielectric constant tensor:
#      x y z
#    x 1.639390 0.000000 0.000000 
#    y 0.000000 1.582040 0.000000 
#    z 0.000000 0.000000 1.646300 
# 
# From -- ./inp_files/32066.got.cif
#   From: 2010.03.12/outbox.cif.g09.slc.cpg/sg67_17_cif.got.tgz:32066.got - 2010.04.10 22:41:39.
