data_PCOD8281683
_publ_section_title
;
Structure prediction by ZEFSAII (Michael W. Deem and Ramdas Pophale) SiO2 
 PCOD8281683
Probable space group: C C C A
;
_chemical_formula_sum "Si O2"
_cell_formula_units_Z 104
_cell_length_a 9.567613
_cell_length_b 18.684207
_cell_length_c 29.608421
_cell_angle_alpha 90.000000
_cell_angle_beta 90.000000
_cell_angle_gamma 90.000000
_cell_volume 5292.897914
_symmetry_space_group_name_H-M "C C C A"
_symmetry_group_IT_number 68
_space_group.IT_coordinate_system_code '2'
_symmetry_cell_setting 'orthorhombic'
loop_
_space_group_symop_operation_xyz
x,y,z
-x,1/2-y,z
x,1/2-y,1/2-z
-x,y,1/2-z
-x,-y,-z
x,1/2+y,-z
-x,1/2+y,1/2+z
x,-y,1/2+z
1/2+x,1/2+y,z
1/2-x,-y,z
1/2+x,-y,1/2-z
1/2-x,1/2+y,1/2-z
1/2-x,1/2-y,-z
1/2+x,y,-z
1/2-x,y,1/2+z
1/2+x,1/2-y,1/2+z
loop_
_atom_site_type_symbol
_atom_site_label
_atom_site_fract_x
_atom_site_fract_y
_atom_site_fract_z
Si Si1 0.598239 0.370309 0.003928
Si Si2 0.854142 0.443004 0.276570
Si Si3 0.000000 0.750000 0.559411
Si Si4 0.500000 0.250000 0.351831
Si Si5 0.250000 0.000000 0.364684
Si Si6 0.342149 0.399882 0.056444
Si Si7 0.297398 0.235834 0.076486
Si Si8 0.133363 0.175129 0.773760
O O1 0.489353 0.420424 0.031868
O O2 0.690312 0.317602 0.034740
O O3 0.509493 0.321372 0.970225
O O4 0.707871 0.418896 0.975274
O O5 0.750000 0.500000 0.252584
O O6 0.866014 0.463965 0.330408
O O7 0.777576 0.367017 0.272412
O O8 0.000000 0.440514 0.250000
O O9 0.135601 0.758414 0.591056
O O10 0.387763 0.293569 0.381904
O O11 0.415220 0.189910 0.324692
O O12 0.326578 0.058552 0.396087
O O13 0.354261 0.314597 0.063819
O O14 0.163053 0.250000 0.750000
O O15 0.000000 0.135440 0.750000
#
# Coordination Sequence:
#
# PCOD8281683 Si02
#       8
#    16  16   8   8   8  16  16  16
#     4  11  18  32  58  80 113 162 201 263 307 355
#     4  10  22  42  70  92 119 163 208 256 323 395
#     4  10  17  30  44  87 113 146 209 247 306 342
#     4  10  18  32  56  87 126 158 198 251 317 380
#     4  10  26  40  62  86 118 168 208 256 304 390
#     4  11  20  36  55  81 121 159 215 249 305 359
#     4  11  18  29  55  85 111 161 201 256 307 361
#     4   9  20  39  64  97 125 157 198 255 331 402
#
# _framework density 19.648972000000001
#
# number of rings (size 3 to 8) (size 9 to 14) (size 15 to 20)
#    0.462    1.385    4.615    2.308    0.000    0.923 
#    0.000    9.231    3.385    0.000    0.000    0.000 
#    0.000    0.000    0.000    0.000    0.000    0.000 
#
# Total GULP energy -644246.787876 kJ/mol
# GULP energy per Si atom -12389.361305 kJ/mol
# Density = 1.960425 g / cm^3
# Si number density = 19.648972 Si / 1000 Ang^3
#
#
#
# Elastic Constant Matrix: (Units=GPa)
#
#
# Indices 1 2 3 4 5 6 
#
# 1 167.4072 40.5142 74.8558 0.0000 0.0000 0.0000
# 2 40.5142 52.4671 36.1891 0.0000 0.0000 0.0000
# 3 74.8558 36.1891 119.6143 0.0000 0.0000 0.0000
# 4 0.0000 0.0000 0.0000 24.0217 0.0000 0.0000
# 5 0.0000 0.0000 0.0000 0.0000 29.9058 0.0000
# 6 0.0000 0.0000 0.0000 0.0000 0.0000 23.3367
#
#
#
# Elastic Compliance Matrix: (Units=1/GPa)
#
#
# Indices 1 2 3 4 5 6 
#
# 1 0.008860 -0.003813 -0.004391 0.000000 0.000000 0.000000
# 2 -0.003813 0.025727 -0.005398 0.000000 0.000000 0.000000
# 3 -0.004391 -0.005398 0.012741 0.000000 0.000000 0.000000
# 4 0.000000 0.000000 0.000000 0.041629 0.000000 0.000000
# 5 0.000000 0.000000 0.000000 0.000000 0.033438 0.000000
# 6 0.000000 0.000000 0.000000 0.000000 0.000000 0.042851
#
#
# Mechanical properties :
#
#
# Convention : Reuss Voigt Hill
#
# Bulk Modulus (GPa) = 49.68921 71.40075 60.54498
# Shear Modulus (GPa) = 25.10595 27.98147 26.54371
#
# Velocity S-wave (km/s) = 3.57840 3.77778 3.67944
# Velocity P-wave (km/s) = 6.51281 7.44620 6.99509
#
# Compressibility (1/GPa) = 0.02012509
#
# Stress axis : x y z
#
# Youngs Moduli (GPa) = 112.87309 38.87033 78.48615
#
# Poissons Ratio (x) = 0.14820 0.34462
# Poissons Ratio (y) = 0.43033 0.42364
# Poissons Ratio (z) = 0.49561 0.20981
#
# Static dielectric constant tensor:
#      x y z
#    x 3.658990 0.000000 0.000000 
#    y 0.000000 3.255770 0.000000 
#    z 0.000000 0.000000 3.646130 
# 
# 
# High freq. dielectric constant tensor:
#      x y z
#    x 1.768700 0.000000 0.000000 
#    y 0.000000 1.737990 0.000000 
#    z 0.000000 0.000000 1.757040 
# 
# From -- ./inp_files/54161.got.cif
#   From: 2010.03.12/outbox.cif.g09.slc.cpg/sg68_28_cif.got.tgz:54161.got - 2010.04.10 23:14:56.
