data_PCOD8281454
_publ_section_title
;
Structure prediction by ZEFSAII (Michael W. Deem and Ramdas Pophale) SiO2 
 PCOD8281454
Probable space group: C M M A
;
_chemical_formula_sum "Si O2"
_cell_formula_units_Z 56
_cell_length_a 15.342281
_cell_length_b 7.644348
_cell_length_c 23.289719
_cell_angle_alpha 90.000000
_cell_angle_beta 90.000000
_cell_angle_gamma 90.000000
_cell_volume 2731.458654
_symmetry_space_group_name_H-M "C M M A"
_symmetry_group_IT_number 67
_symmetry_cell_setting 'orthorhombic'
loop_
_space_group_symop_operation_xyz
x,y,z
-x,1/2-y,z
x,-y,-z
-x,1/2+y,-z
-x,-y,-z
x,1/2+y,-z
-x,y,z
x,1/2-y,z
1/2+x,1/2+y,z
1/2-x,-y,z
1/2+x,1/2-y,-z
1/2-x,y,-z
1/2-x,1/2-y,-z
1/2+x,y,-z
1/2-x,1/2+y,z
1/2+x,-y,z
loop_
_atom_site_type_symbol
_atom_site_label
_atom_site_fract_x
_atom_site_fract_y
_atom_site_fract_z
Si Si1 0.603775 0.944686 0.437746
Si Si2 0.104027 0.750000 0.357104
Si Si3 0.500000 0.954690 0.933756
Si Si4 0.396838 0.250000 0.227558
Si Si5 0.656176 0.551575 0.144308
O O1 0.500000 0.951138 0.439341
O O2 0.636804 0.750000 0.422276
O O3 0.640397 0.000000 0.500000
O O4 0.639723 0.077990 0.389771
O O5 0.139537 0.750000 0.292260
O O6 0.000000 0.750000 0.357095
O O7 0.500000 0.750000 0.921526
O O8 0.413927 0.036389 0.906166
O O9 0.500000 0.000000 0.000000
O O10 0.500000 0.250000 0.225016
O O11 0.363427 0.425740 0.197571
O O12 0.656713 0.750000 0.167605
O O13 0.750000 0.500000 0.117889
#
# Coordination Sequence:
#
# PCOD8281454 Si02
#       5
#    16   8   8   8  16
#     4   9  14  22  38  62  99 145 188 237 300 371
#     4   9  18  28  44  72 105 154 197 240 312 373
#     4  12  24  44  68 103 137 168 211 260 312 374
#     4  11  22  40  60  86 130 163 210 272 316 382
#     4  12  23  42  67  93 126 174 215 259 320 372
#
# _framework density 20.501868000000002
#
# number of rings (size 3 to 8) (size 9 to 14) (size 15 to 20)
#    0.000    1.429    5.714    1.286    0.000    1.714 
#    0.000    5.714    0.000    0.000    0.000    0.000 
#    0.000    3.429    0.000    0.000    0.000    0.000 
#
# Total GULP energy -347233.815620 kJ/mol
# GULP energy per Si atom -12401.207701 kJ/mol
# Density = 2.045520 g / cm^3
# Si number density = 20.501868 Si / 1000 Ang^3
#
#
#
# Elastic Constant Matrix: (Units=GPa)
#
#
# Indices 1 2 3 4 5 6 
#
# 1 94.2434 35.5671 46.9129 0.0000 0.0000 0.0000
# 2 35.5671 212.1066 83.9250 0.0000 0.0000 0.0000
# 3 46.9129 83.9250 176.5019 0.0000 0.0000 0.0000
# 4 0.0000 0.0000 0.0000 37.2753 0.0000 0.0000
# 5 0.0000 0.0000 0.0000 0.0000 -4.6180 0.0000
# 6 0.0000 0.0000 0.0000 0.0000 0.0000 22.6206
#
#
#
# Elastic Compliance Matrix: (Units=1/GPa)
#
#
# Indices 1 2 3 4 5 6 
#
# 1 0.012383 -0.000954 -0.002838 0.000000 0.000000 0.000000
# 2 -0.000954 0.005881 -0.002543 0.000000 0.000000 0.000000
# 3 -0.002838 -0.002543 0.007629 0.000000 0.000000 0.000000
# 4 0.000000 0.000000 0.000000 0.026827 0.000000 0.000000
# 5 0.000000 0.000000 0.000000 0.000000 -0.216544 0.000000
# 6 0.000000 0.000000 0.000000 0.000000 0.000000 0.044207
#
#
# Mechanical properties :
#
#
# Convention : Reuss Voigt Hill
#
# Bulk Modulus (GPa) = 75.61766 90.62912 83.12339
# Shear Modulus (GPa) = -48.76192 32.15203 -8.30495
#
# Velocity S-wave (km/s) = -4.88219 3.96441 -2.01485
# Velocity P-wave (km/s) = 2.27648 8.07816 5.93460
#
# Compressibility (1/GPa) = 0.01322442
#
# Stress axis : x y z
#
# Youngs Moduli (GPa) = 80.75317 170.05070 131.07851
#
# Poissons Ratio (x) = 0.16216 0.37200
# Poissons Ratio (y) = 0.07701 0.33329
# Poissons Ratio (z) = 0.22918 0.43239
#
# Static dielectric constant tensor:
#      x y z
#    x 3.659200 0.000000 0.000000 
#    y 0.000000 4.048370 0.000000 
#    z 0.000000 0.000000 3.545710 
# 
# 
# High freq. dielectric constant tensor:
#      x y z
#    x 1.781150 0.000000 0.000000 
#    y 0.000000 1.824110 0.000000 
#    z 0.000000 0.000000 1.788590 
# 
# From -- ./inp_files/38223.got.cif
#   From: 2010.03.12/outbox.cif.g09.slc.cpg/sg67_20_cif.got.tgz:38223.got - 2010.04.10 22:41:39.
