data_PCOD8281903
_publ_section_title
;
Structure prediction by ZEFSAII (Michael W. Deem and Ramdas Pophale) SiO2 
 PCOD8281903
Probable space group: C C C A
;
_chemical_formula_sum "Si O2"
_cell_formula_units_Z 112
_cell_length_a 28.777492
_cell_length_b 18.931125
_cell_length_c 10.325712
_cell_angle_alpha 90.000000
_cell_angle_beta 90.000000
_cell_angle_gamma 90.000000
_cell_volume 5625.347720
_symmetry_space_group_name_H-M "C C C A"
_symmetry_group_IT_number 68
_space_group.IT_coordinate_system_code '2'
_symmetry_cell_setting 'orthorhombic'
loop_
_space_group_symop_operation_xyz
x,y,z
-x,1/2-y,z
x,1/2-y,1/2-z
-x,y,1/2-z
-x,-y,-z
x,1/2+y,-z
-x,1/2+y,1/2+z
x,-y,1/2+z
1/2+x,1/2+y,z
1/2-x,-y,z
1/2+x,-y,1/2-z
1/2-x,1/2+y,1/2-z
1/2-x,1/2-y,-z
1/2+x,y,-z
1/2-x,y,1/2+z
1/2+x,1/2-y,1/2+z
loop_
_atom_site_type_symbol
_atom_site_label
_atom_site_fract_x
_atom_site_fract_y
_atom_site_fract_z
Si Si1 0.552893 0.443940 0.892983
Si Si2 0.447107 0.943940 0.107016
Si Si3 0.889104 0.167114 0.507821
Si Si4 0.110896 0.167114 0.507820
Si Si5 0.712274 0.166201 0.397557
Si Si6 0.787726 0.666201 0.397557
Si Si7 0.449172 0.166657 0.250000
O O1 0.500000 0.417835 0.920340
O O2 0.555934 0.478641 0.750000
O O3 0.569060 0.500000 1.000000
O O4 0.589119 0.377923 0.890770
O O5 0.410881 0.877922 0.109230
O O6 0.891423 0.250000 0.474528
O O7 0.837207 0.143656 0.544423
O O8 0.921559 0.142707 0.625053
O O9 0.162793 0.143656 0.544424
O O10 0.078440 0.142707 0.625051
O O11 0.750000 0.135968 0.500000
O O12 0.715828 0.250000 0.389562
O O13 0.719329 0.136388 0.250000
O O14 0.453826 0.250000 0.250000
O O15 0.500000 0.130551 0.250000
#
# Coordination Sequence:
#
# PCOD8281903 Si02
#       7
#    16  16  16  16  16  16  16
#     4  10  23  40  57  80 112 151 189 227 278 341
#     4  10  23  40  57  80 112 151 189 227 278 341
#     4  10  19  33  55  83 113 145 187 234 280 331
#     4  10  19  33  55  83 113 145 187 234 280 331
#     4   9  17  30  49  76 111 148 186 230 280 334
#     4   9  17  30  49  76 111 148 186 230 280 334
#     4   9  16  26  46  78 110 139 173 219 274 325
#
# _framework density 19.909880000000001
#
# number of rings (size 3 to 8) (size 9 to 14) (size 15 to 20)
#    0.000    2.429    1.429    0.857    2.000    3.429 
#    0.000    4.286    0.000    0.857    0.000    4.000 
#    0.000    0.000    0.000    0.000    0.000    0.000 
#
# Total GULP energy -694043.157869 kJ/mol
# GULP energy per Si atom -12393.627819 kJ/mol
# Density = 1.986456 g / cm^3
# Si number density = 19.909880 Si / 1000 Ang^3
#
#
#
# Elastic Constant Matrix: (Units=GPa)
#
#
# Indices 1 2 3 4 5 6 
#
# 1 157.5520 34.5473 62.8104 0.0000 0.0000 0.0000
# 2 34.5473 48.1864 39.3579 0.0000 0.0000 0.0000
# 3 62.8104 39.3579 123.3092 0.0000 0.0000 0.0000
# 4 0.0000 0.0000 0.0000 18.6135 0.0000 0.0000
# 5 0.0000 0.0000 0.0000 0.0000 50.0513 0.0000
# 6 0.0000 0.0000 0.0000 0.0000 0.0000 16.4479
#
#
#
# Elastic Compliance Matrix: (Units=1/GPa)
#
#
# Indices 1 2 3 4 5 6 
#
# 1 0.008357 -0.003401 -0.003171 0.000000 0.000000 0.000000
# 2 -0.003401 0.029455 -0.007669 0.000000 0.000000 0.000000
# 3 -0.003171 -0.007669 0.012173 0.000000 0.000000 0.000000
# 4 0.000000 0.000000 0.000000 0.053724 0.000000 0.000000
# 5 0.000000 0.000000 0.000000 0.000000 0.019979 0.000000
# 6 0.000000 0.000000 0.000000 0.000000 0.000000 0.060798
#
#
# Mechanical properties :
#
#
# Convention : Reuss Voigt Hill
#
# Bulk Modulus (GPa) = 46.50730 66.94210 56.72470
# Shear Modulus (GPa) = 22.71301 29.84468 26.27885
#
# Velocity S-wave (km/s) = 3.38122 3.87588 3.63697
# Velocity P-wave (km/s) = 6.21717 7.32976 6.79627
#
# Compressibility (1/GPa) = 0.02150200
#
# Stress axis : x y z
#
# Youngs Moduli (GPa) = 119.65665 33.94971 82.15016
#
# Poissons Ratio (x) = 0.11548 0.26052
# Poissons Ratio (y) = 0.40701 0.63000
# Poissons Ratio (z) = 0.37946 0.26036
#
# Static dielectric constant tensor:
#      x y z
#    x 3.775770 0.000000 0.000000 
#    y 0.000000 3.089200 0.000000 
#    z 0.000000 0.000000 3.830590 
# 
# 
# High freq. dielectric constant tensor:
#      x y z
#    x 1.778550 0.000000 0.000000 
#    y 0.000000 1.728560 0.000000 
#    z 0.000000 0.000000 1.783020 
# 
# From -- ./inp_files/16572.got.cif
#   From: 2010.03.12/outbox.cif.g09.slc.cpg/sg68_9_cif.got.tgz:16572.got - 2010.04.10 23:14:56.
