data_PCOD8281552
_publ_section_title
;
Structure prediction by ZEFSAII (Michael W. Deem and Ramdas Pophale) SiO2 
 PCOD8281552
Probable space group: C M M A
;
_chemical_formula_sum "Si O2"
_cell_formula_units_Z 96
_cell_length_a 14.589498
_cell_length_b 17.430360
_cell_length_c 19.380494
_cell_angle_alpha 90.000000
_cell_angle_beta 90.000000
_cell_angle_gamma 90.000000
_cell_volume 4928.463546
_symmetry_space_group_name_H-M "C M M A"
_symmetry_group_IT_number 67
_symmetry_cell_setting 'orthorhombic'
loop_
_space_group_symop_operation_xyz
x,y,z
-x,1/2-y,z
x,-y,-z
-x,1/2+y,-z
-x,-y,-z
x,1/2+y,-z
-x,y,z
x,1/2-y,z
1/2+x,1/2+y,z
1/2-x,-y,z
1/2+x,1/2-y,-z
1/2-x,y,-z
1/2-x,1/2-y,-z
1/2+x,y,-z
1/2-x,1/2+y,z
1/2+x,-y,z
loop_
_atom_site_type_symbol
_atom_site_label
_atom_site_fract_x
_atom_site_fract_y
_atom_site_fract_z
Si Si1 0.604871 0.424686 0.845737
Si Si2 0.254484 0.837739 0.242993
Si Si3 0.605379 0.106504 0.142176
Si Si4 0.397312 0.409351 0.502995
Si Si5 0.752731 0.909228 0.390050
Si Si6 0.608294 0.916295 0.005175
O O1 0.500000 0.405842 0.828749
O O2 0.664093 0.390403 0.784714
O O3 0.620580 0.515648 0.849325
O O4 0.634712 0.383725 0.918918
O O5 0.286002 0.750000 0.241543
O O6 0.163578 0.847140 0.197397
O O7 0.234171 0.862970 0.320299
O O8 0.500000 0.128859 0.154706
O O9 0.637575 0.131098 0.063629
O O10 0.404981 0.500000 0.500000
O O11 0.500000 0.372856 0.503435
O O12 0.341759 0.384607 0.571753
O O13 0.339782 0.383638 0.436102
O O14 0.750000 0.000000 0.375798
O O15 0.500000 0.925981 0.001874
O O16 0.653849 0.000000 0.000000
#
# Coordination Sequence:
#
# PCOD8281552 Si02
#       6
#    16  16  16  16  16  16
#     4   9  18  35  58  79 100 133 181 232 276 318
#     4  12  25  36  48  74 116 154 179 210 256 314
#     4   9  18  35  58  79 100 133 181 232 276 318
#     4   8  15  31  58  86 104 122 158 213 266 303
#     4   9  18  34  55  79 105 132 170 213 250 302
#     4   7  12  27  53  80  99 121 168 234 285 315
#
# _framework density 19.478687000000001
#
# number of rings (size 3 to 8) (size 9 to 14) (size 15 to 20)
#    0.000    3.000    0.000    4.500    0.000    2.667 
#    0.000    9.167    0.000    4.000    0.000    0.000 
#    0.000    0.000    0.000    0.000    0.000    0.000 
#
# Total GULP energy -594673.324520 kJ/mol
# GULP energy per Si atom -12389.027594 kJ/mol
# Density = 1.943435 g / cm^3
# Si number density = 19.478687 Si / 1000 Ang^3
#
#
#
# Elastic Constant Matrix: (Units=GPa)
#
#
# Indices 1 2 3 4 5 6 
#
# 1 97.4120 8.7246 34.1373 0.0000 0.0000 0.0000
# 2 8.7246 29.0265 13.3191 0.0000 0.0000 0.0000
# 3 34.1373 13.3191 124.3525 0.0000 0.0000 0.0000
# 4 0.0000 0.0000 0.0000 0.8498 0.0000 0.0000
# 5 0.0000 0.0000 0.0000 0.0000 25.3236 0.0000
# 6 0.0000 0.0000 0.0000 0.0000 0.0000 96.9753
#
#
#
# Elastic Compliance Matrix: (Units=1/GPa)
#
#
# Indices 1 2 3 4 5 6 
#
# 1 0.011480 -0.002108 -0.002926 0.000000 0.000000 0.000000
# 2 -0.002108 0.036619 -0.003343 0.000000 0.000000 0.000000
# 3 -0.002926 -0.003343 0.009203 0.000000 0.000000 0.000000
# 4 0.000000 0.000000 0.000000 1.176753 0.000000 0.000000
# 5 0.000000 0.000000 0.000000 0.000000 0.039489 0.000000
# 6 0.000000 0.000000 0.000000 0.000000 0.000000 0.010312
#
#
# Mechanical properties :
#
#
# Convention : Reuss Voigt Hill
#
# Bulk Modulus (GPa) = 24.66247 40.35034 32.50640
# Shear Modulus (GPa) = 3.80481 37.60372 20.70427
#
# Velocity S-wave (km/s) = 1.39913 4.39852 3.26378
# Velocity P-wave (km/s) = 3.91137 6.82320 5.56124
#
# Compressibility (1/GPa) = 0.04054744
#
# Stress axis : x y z
#
# Youngs Moduli (GPa) = 87.10990 27.30813 108.66114
#
# Poissons Ratio (x) = 0.05757 0.31790
# Poissons Ratio (y) = 0.18363 0.36331
# Poissons Ratio (z) = 0.25485 0.09130
#
# Static dielectric constant tensor:
#      x y z
#    x 3.756970 0.000000 0.000000 
#    y 0.000000 3.010940 0.000000 
#    z 0.000000 0.000000 3.736150 
# 
# 
# High freq. dielectric constant tensor:
#      x y z
#    x 1.761590 0.000000 0.000000 
#    y 0.000000 1.700160 0.000000 
#    z 0.000000 0.000000 1.768190 
# 
# From -- ./inp_files/38502.got.cif
#   From: 2010.03.12/outbox.cif.g09.slc.cpg/sg67_20_cif.got.tgz:38502.got - 2010.04.10 22:41:39.
