data_PCOD8281847
_publ_section_title
;
Structure prediction by ZEFSAII (Michael W. Deem and Ramdas Pophale) SiO2 
 PCOD8281847
Probable space group: C C C A
;
_chemical_formula_sum "Si O2"
_cell_formula_units_Z 96
_cell_length_a 23.018533
_cell_length_b 12.194822
_cell_length_c 17.489771
_cell_angle_alpha 90.000000
_cell_angle_beta 90.000000
_cell_angle_gamma 90.000000
_cell_volume 4909.499620
_symmetry_space_group_name_H-M "C C C A"
_symmetry_group_IT_number 68
_space_group.IT_coordinate_system_code '2'
_symmetry_cell_setting 'orthorhombic'
loop_
_space_group_symop_operation_xyz
x,y,z
-x,1/2-y,z
x,1/2-y,1/2-z
-x,y,1/2-z
-x,-y,-z
x,1/2+y,-z
-x,1/2+y,1/2+z
x,-y,1/2+z
1/2+x,1/2+y,z
1/2-x,-y,z
1/2+x,-y,1/2-z
1/2-x,1/2+y,1/2-z
1/2-x,1/2-y,-z
1/2+x,y,-z
1/2-x,y,1/2+z
1/2+x,1/2-y,1/2+z
loop_
_atom_site_type_symbol
_atom_site_label
_atom_site_fract_x
_atom_site_fract_y
_atom_site_fract_z
Si Si1 0.750000 0.000000 0.762929
Si Si2 0.131876 0.964799 0.160695
Si Si3 0.065415 0.361004 0.719131
Si Si4 0.129828 0.733214 0.091013
Si Si5 0.659714 0.651200 0.069484
Si Si6 0.239789 0.830749 0.867221
Si Si7 0.750000 0.000000 0.510193
O O1 0.699476 0.961880 0.818943
O O2 0.769050 0.895128 0.711973
O O3 0.096911 0.963496 0.241161
O O4 0.115240 0.860512 0.107461
O O5 0.113984 0.079919 0.119680
O O6 0.096370 0.250000 0.750000
O O7 0.080322 0.349502 0.628315
O O8 0.000000 0.362571 0.750000
O O9 0.193022 0.703222 0.124140
O O10 0.128395 0.715454 0.999395
O O11 0.696704 0.727625 0.126785
O O12 0.700580 0.553925 0.039895
O O13 0.220224 0.907689 0.937253
#
# Coordination Sequence:
#
# PCOD8281847 Si02
#       7
#     8  16  16  16  16  16   8
#     4  11  21  32  50  80 116 150 186 226 274 340
#     4  11  21  33  53  80 107 141 185 225 277 340
#     4   9  19  37  59  79 102 139 190 242 277 318
#     4  10  19  35  53  75 110 144 180 228 276 324
#     4  11  20  31  50  78 114 149 177 218 278 339
#     4  10  19  30  48  76 116 146 178 213 270 336
#     4   9  17  30  44  70 108 150 174 202 256 328
#
# _framework density 19.553927000000002
#
# number of rings (size 3 to 8) (size 9 to 14) (size 15 to 20)
#    0.000    1.833    1.667    5.500    0.000    2.000 
#    0.000    0.833    0.000    0.000    0.000    1.167 
#    0.000    0.000    0.000    0.000    0.000    0.000 
#
# Total GULP energy -594687.991013 kJ/mol
# GULP energy per Si atom -12389.333146 kJ/mol
# Density = 1.950942 g / cm^3
# Si number density = 19.553927 Si / 1000 Ang^3
#
#
#
# Elastic Constant Matrix: (Units=GPa)
#
#
# Indices 1 2 3 4 5 6 
#
# 1 63.7684 23.0021 28.7571 0.0000 0.0000 0.0000
# 2 23.0021 94.6234 33.0961 0.0000 0.0000 0.0000
# 3 28.7571 33.0961 86.0530 0.0000 0.0000 0.0000
# 4 0.0000 0.0000 0.0000 16.6573 0.0000 0.0000
# 5 0.0000 0.0000 0.0000 0.0000 21.5505 0.0000
# 6 0.0000 0.0000 0.0000 0.0000 0.0000 15.7331
#
#
#
# Elastic Compliance Matrix: (Units=1/GPa)
#
#
# Indices 1 2 3 4 5 6 
#
# 1 0.019078 -0.002782 -0.005305 0.000000 0.000000 0.000000
# 2 -0.002782 0.012616 -0.003923 0.000000 0.000000 0.000000
# 3 -0.005305 -0.003923 0.014902 0.000000 0.000000 0.000000
# 4 0.000000 0.000000 0.000000 0.060034 0.000000 0.000000
# 5 0.000000 0.000000 0.000000 0.000000 0.046403 0.000000
# 6 0.000000 0.000000 0.000000 0.000000 0.000000 0.063560
#
#
# Mechanical properties :
#
#
# Convention : Reuss Voigt Hill
#
# Bulk Modulus (GPa) = 44.29380 46.01728 45.15554
# Shear Modulus (GPa) = 20.15001 21.42749 20.78875
#
# Velocity S-wave (km/s) = 3.21360 3.31390 3.26413
# Velocity P-wave (km/s) = 6.03912 6.18281 6.11139
#
# Compressibility (1/GPa) = 0.02257652
#
# Stress axis : x y z
#
# Youngs Moduli (GPa) = 52.41695 79.26137 67.10345
#
# Poissons Ratio (x) = 0.22050 0.35601
# Poissons Ratio (y) = 0.14582 0.26322
# Poissons Ratio (z) = 0.27810 0.31091
#
# Static dielectric constant tensor:
#      x y z
#    x 3.070880 0.000000 0.000000 
#    y 0.000000 3.870710 0.000000 
#    z 0.000000 0.000000 3.921860 
# 
# 
# High freq. dielectric constant tensor:
#      x y z
#    x 1.700170 0.000000 0.000000 
#    y 0.000000 1.763350 0.000000 
#    z 0.000000 0.000000 1.772350 
# 
# From -- ./inp_files/34094.got.cif
#   From: 2010.03.12/outbox.cif.g09.slc.cpg/sg68_18_cif.got.tgz:34094.got - 2010.04.10 23:14:56.
