data_PCOD8281385
_publ_section_title
;
Structure prediction by ZEFSAII (Michael W. Deem and Ramdas Pophale) SiO2 
 PCOD8281385
Probable space group: C M M A
;
_chemical_formula_sum "Si O2"
_cell_formula_units_Z 88
_cell_length_a 20.093108
_cell_length_b 24.469618
_cell_length_c 8.982674
_cell_angle_alpha 90.000000
_cell_angle_beta 90.000000
_cell_angle_gamma 90.000000
_cell_volume 4416.517409
_symmetry_space_group_name_H-M "C M M A"
_symmetry_group_IT_number 67
_symmetry_cell_setting 'orthorhombic'
loop_
_space_group_symop_operation_xyz
x,y,z
-x,1/2-y,z
x,-y,-z
-x,1/2+y,-z
-x,-y,-z
x,1/2+y,-z
-x,y,z
x,1/2-y,z
1/2+x,1/2+y,z
1/2-x,-y,z
1/2+x,1/2-y,-z
1/2-x,y,-z
1/2-x,1/2-y,-z
1/2+x,y,-z
1/2-x,1/2+y,z
1/2+x,-y,z
loop_
_atom_site_type_symbol
_atom_site_label
_atom_site_fract_x
_atom_site_fract_y
_atom_site_fract_z
Si Si1 0.675613 0.063348 0.169477
Si Si2 0.624670 0.250000 0.821500
Si Si3 0.234697 0.250000 0.670330
Si Si4 0.922684 0.645481 0.659988
Si Si5 0.570811 0.750000 0.871998
Si Si6 0.375085 0.663335 0.671563
Si Si7 0.170808 0.562199 0.826558
O O1 0.630454 0.101154 0.273741
O O2 0.752400 0.072754 0.214576
O O3 0.653961 0.001276 0.198689
O O4 0.661180 0.078863 0.998386
O O5 0.700518 0.250000 0.770996
O O6 0.585384 0.303113 0.767459
O O7 0.627404 0.250000 0.001243
O O8 0.250000 0.250000 0.500000
O O9 0.193966 0.305057 0.702388
O O10 0.896559 0.663744 0.499264
O O11 0.878232 0.595780 0.720731
O O12 0.000000 0.627579 0.653790
O O13 0.500000 0.750000 0.955426
O O14 0.571544 0.803874 0.768757
#
# Coordination Sequence:
#
# PCOD8281385 Si02
#       7
#    16   8   8  16   8  16  16
#     4   9  19  39  64  89 115 149 194 254 310 350
#     4  12  23  38  64  87 116 156 198 247 303 357
#     4  11  21  39  58  92 124 146 196 255 302 351
#     4  12  24  39  58  87 123 163 200 239 294 367
#     4  11  24  42  58  85 121 160 203 243 293 362
#     4  11  23  37  61  85 121 160 194 247 301 351
#     4   9  20  39  63  89 117 149 198 251 301 357
#
# _framework density 19.925201000000001
#
# number of rings (size 3 to 8) (size 9 to 14) (size 15 to 20)
#    0.000    1.455    1.818    5.182    0.000    3.636 
#    0.000    7.273    0.000    0.000    0.000    0.000 
#    0.000    0.000    0.000    0.000    0.000    0.000 
#
# Total GULP energy -545609.642518 kJ/mol
# GULP energy per Si atom -12400.219148 kJ/mol
# Density = 1.987985 g / cm^3
# Si number density = 19.925201 Si / 1000 Ang^3
#
#
#
# Elastic Constant Matrix: (Units=GPa)
#
#
# Indices 1 2 3 4 5 6 
#
# 1 112.1644 37.6573 44.8239 0.0000 0.0000 0.0000
# 2 37.6573 113.8504 49.0023 0.0000 0.0000 0.0000
# 3 44.8239 49.0023 119.3221 0.0000 0.0000 0.0000
# 4 0.0000 0.0000 0.0000 33.5425 0.0000 0.0000
# 5 0.0000 0.0000 0.0000 0.0000 23.8670 0.0000
# 6 0.0000 0.0000 0.0000 0.0000 0.0000 19.6249
#
#
#
# Elastic Compliance Matrix: (Units=1/GPa)
#
#
# Indices 1 2 3 4 5 6 
#
# 1 0.010944 -0.002248 -0.003188 0.000000 0.000000 0.000000
# 2 -0.002248 0.011131 -0.003727 0.000000 0.000000 0.000000
# 3 -0.003188 -0.003727 0.011109 0.000000 0.000000 0.000000
# 4 0.000000 0.000000 0.000000 0.029813 0.000000 0.000000
# 5 0.000000 0.000000 0.000000 0.000000 0.041899 0.000000
# 6 0.000000 0.000000 0.000000 0.000000 0.000000 0.050956
#
#
# Mechanical properties :
#
#
# Convention : Reuss Voigt Hill
#
# Bulk Modulus (GPa) = 67.30105 67.58933 67.44519
# Shear Modulus (GPa) = 27.91274 29.66378 28.78826
#
# Velocity S-wave (km/s) = 3.74689 3.86263 3.80520
# Velocity P-wave (km/s) = 7.25045 7.34087 7.29580
#
# Compressibility (1/GPa) = 0.01485861
#
# Stress axis : x y z
#
# Youngs Moduli (GPa) = 91.37270 89.83944 90.01840
#
# Poissons Ratio (x) = 0.20193 0.28699
# Poissons Ratio (y) = 0.20538 0.33548
# Poissons Ratio (z) = 0.29131 0.33482
#
# Static dielectric constant tensor:
#      x y z
#    x 3.478870 0.000000 0.000000 
#    y 0.000000 3.616600 0.000000 
#    z 0.000000 0.000000 3.542640 
# 
# 
# High freq. dielectric constant tensor:
#      x y z
#    x 1.769210 0.000000 0.000000 
#    y 0.000000 1.782860 0.000000 
#    z 0.000000 0.000000 1.783720 
# 
# From -- ./inp_files/11311.got.cif
#   From: 2010.03.12/outbox.cif.g09.slc.cpg/sg67_6_cif.got.tgz:11311.got - 2010.04.10 22:41:39.
