data_PCOD8281502
_publ_section_title
;
Structure prediction by ZEFSAII (Michael W. Deem and Ramdas Pophale) SiO2 
 PCOD8281502
Probable space group: C M M A
;
_chemical_formula_sum "Si O2"
_cell_formula_units_Z 56
_cell_length_a 34.273692
_cell_length_b 14.728492
_cell_length_c 4.960453
_cell_angle_alpha 90.000000
_cell_angle_beta 90.000000
_cell_angle_gamma 90.000000
_cell_volume 2504.035675
_symmetry_space_group_name_H-M "C M M A"
_symmetry_group_IT_number 67
_symmetry_cell_setting 'orthorhombic'
loop_
_space_group_symop_operation_xyz
x,y,z
-x,1/2-y,z
x,-y,-z
-x,1/2+y,-z
-x,-y,-z
x,1/2+y,-z
-x,y,z
x,1/2-y,z
1/2+x,1/2+y,z
1/2-x,-y,z
1/2+x,1/2-y,-z
1/2-x,y,-z
1/2-x,1/2-y,-z
1/2+x,y,-z
1/2-x,1/2+y,z
1/2+x,-y,z
loop_
_atom_site_type_symbol
_atom_site_label
_atom_site_fract_x
_atom_site_fract_y
_atom_site_fract_z
Si Si1 0.084087 0.912060 0.338919
Si Si2 0.777904 0.250000 0.751618
Si Si3 0.325599 0.936836 0.739317
Si Si4 0.456382 0.650141 0.176628
O O1 0.130419 0.906944 0.319760
O O2 0.066706 0.836424 0.539821
O O3 0.069216 0.000000 0.500000
O O4 0.066894 0.911465 0.038037
O O5 0.750000 0.250000 0.500000
O O6 0.803124 0.341930 0.762487
O O7 0.750000 0.250000 0.000000
O O8 0.308885 0.000000 0.500000
O O9 0.321845 0.000000 0.000000
O O10 0.500000 0.611036 0.223182
O O11 0.458692 0.750000 0.047226
#
# Coordination Sequence:
#
# PCOD8281502 Si02
#       4
#    16   8  16  16
#     4  11  23  42  64  93 127 174 227 271 334 397
#     4  12  28  46  74 112 135 180 231 262 346 424
#     4  11  25  47  71 103 143 180 225 284 336 399
#     4  11  24  39  60  93 131 174 222 278 337 388
#
# _framework density 22.363900999999998
#
# number of rings (size 3 to 8) (size 9 to 14) (size 15 to 20)
#    0.000    0.857    0.000    7.714    4.000    9.143 
#    0.000    0.000    0.000    0.000    0.000    0.000 
#    0.000    0.000    0.000    0.000    0.000    0.000 
#
# Total GULP energy -347044.201933 kJ/mol
# GULP energy per Si atom -12394.435783 kJ/mol
# Density = 2.231300 g / cm^3
# Si number density = 22.363901 Si / 1000 Ang^3
#
#
#
# Elastic Constant Matrix: (Units=GPa)
#
#
# Indices 1 2 3 4 5 6 
#
# 1 137.2675 81.9209 66.6538 0.0000 0.0000 0.0000
# 2 81.9209 140.5497 46.2138 0.0000 0.0000 0.0000
# 3 66.6538 46.2138 172.2612 0.0000 0.0000 0.0000
# 4 0.0000 0.0000 0.0000 38.2669 0.0000 0.0000
# 5 0.0000 0.0000 0.0000 0.0000 35.7102 0.0000
# 6 0.0000 0.0000 0.0000 0.0000 0.0000 24.9525
#
#
#
# Elastic Compliance Matrix: (Units=1/GPa)
#
#
# Indices 1 2 3 4 5 6 
#
# 1 0.012582 -0.006288 -0.003182 0.000000 0.000000 0.000000
# 2 -0.006288 0.010945 -0.000503 0.000000 0.000000 0.000000
# 3 -0.003182 -0.000503 0.007171 0.000000 0.000000 0.000000
# 4 0.000000 0.000000 0.000000 0.026132 0.000000 0.000000
# 5 0.000000 0.000000 0.000000 0.000000 0.028003 0.000000
# 6 0.000000 0.000000 0.000000 0.000000 0.000000 0.040076
#
#
# Mechanical properties :
#
#
# Convention : Reuss Voigt Hill
#
# Bulk Modulus (GPa) = 92.99421 93.29504 93.14463
# Shear Modulus (GPa) = 33.68342 36.80523 35.24433
#
# Velocity S-wave (km/s) = 3.88513 4.06118 3.97413
# Velocity P-wave (km/s) = 7.86118 7.98738 7.92453
#
# Compressibility (1/GPa) = 0.01075336
#
# Stress axis : x y z
#
# Youngs Moduli (GPa) = 79.47556 91.36349 139.44391
#
# Poissons Ratio (x) = 0.57446 0.44368
# Poissons Ratio (y) = 0.49971 0.07021
# Poissons Ratio (z) = 0.25287 0.04600
#
# Static dielectric constant tensor:
#      x y z
#    x 4.004650 0.000000 0.000000 
#    y 0.000000 4.321940 0.000000 
#    z 0.000000 0.000000 4.270610 
# 
# 
# High freq. dielectric constant tensor:
#      x y z
#    x 1.880390 0.000000 0.000000 
#    y 0.000000 1.899180 0.000000 
#    z 0.000000 0.000000 1.900090 
# 
# From -- ./inp_files/4448.got.cif
#   From: 2010.03.12/outbox.cif.g09.slc.cpg/sg67_3_cif.got.tgz:4448.got - 2010.04.10 22:41:39.
