data_PCOD8281570
_publ_section_title
;
Structure prediction by ZEFSAII (Michael W. Deem and Ramdas Pophale) SiO2 
 PCOD8281570
Probable space group: C M M A
;
_chemical_formula_sum "Si O2"
_cell_formula_units_Z 96
_cell_length_a 9.171591
_cell_length_b 19.819826
_cell_length_c 31.380275
_cell_angle_alpha 90.000000
_cell_angle_beta 90.000000
_cell_angle_gamma 90.000000
_cell_volume 5704.285608
_symmetry_space_group_name_H-M "C M M A"
_symmetry_group_IT_number 67
_symmetry_cell_setting 'orthorhombic'
loop_
_space_group_symop_operation_xyz
x,y,z
-x,1/2-y,z
x,-y,-z
-x,1/2+y,-z
-x,-y,-z
x,1/2+y,-z
-x,y,z
x,1/2-y,z
1/2+x,1/2+y,z
1/2-x,-y,z
1/2+x,1/2-y,-z
1/2-x,y,-z
1/2-x,1/2-y,-z
1/2+x,y,-z
1/2-x,1/2+y,z
1/2+x,-y,z
loop_
_atom_site_type_symbol
_atom_site_label
_atom_site_fract_x
_atom_site_fract_y
_atom_site_fract_z
Si Si1 0.169723 0.070571 0.632956
Si Si2 0.664701 0.330434 0.041214
Si Si3 0.837844 0.169769 0.796016
Si Si4 0.169947 0.071360 0.538789
Si Si5 0.326245 0.825102 0.702164
Si Si6 0.163828 0.669493 0.876540
O O1 0.191701 0.103501 0.585730
O O2 0.235370 0.123756 0.666704
O O3 0.000000 0.056744 0.641355
O O4 0.250000 0.000000 0.638669
O O5 0.500000 0.358257 0.040297
O O6 0.664626 0.250000 0.041048
O O7 0.743790 0.357974 0.083532
O O8 0.750000 0.358202 0.000000
O O9 0.845486 0.250000 0.798447
O O10 0.777437 0.149240 0.749201
O O11 0.732764 0.140920 0.832754
O O12 0.000000 0.140151 0.803440
O O13 0.250000 0.112797 0.500000
O O14 0.000000 0.063254 0.527838
O O15 0.250000 0.000000 0.540807
O O16 0.500000 0.822195 0.700599
O O17 0.263722 0.750000 0.693057
O O18 0.164700 0.750000 0.876335
O O19 0.000000 0.641669 0.880381
#
# Coordination Sequence:
#
# PCOD8281570 Si02
#       6
#    16  16  16  16  16  16
#     4   9  17  28  43  64  86 108 135 168 206 245
#     4   9  15  21  28  38  54  78 110 148 189 231
#     4   8  13  22  36  51  65  85 117 156 192 224
#     4   9  15  23  37  57  80 104 131 163 198 236
#     4   8  14  26  44  62  79 103 138 174 203 238
#     4   9  15  21  29  42  61  84 111 146 187 230
#
# _framework density 16.829452
#
# number of rings (size 3 to 8) (size 9 to 14) (size 15 to 20)
#    0.000    3.333    0.000    3.000    0.000    4.667 
#    0.000    0.833    0.000    2.000    0.000    0.000 
#    0.000    0.000    0.000    0.000    0.000    5.333 
#
# Total GULP energy -594706.506097 kJ/mol
# GULP energy per Si atom -12389.718877 kJ/mol
# Density = 1.679115 g / cm^3
# Si number density = 16.829452 Si / 1000 Ang^3
#
#
#
# Elastic Constant Matrix: (Units=GPa)
#
#
# Indices 1 2 3 4 5 6 
#
# 1 107.0476 17.5838 74.6044 0.0000 0.0000 0.0000
# 2 17.5838 26.9349 37.8980 0.0000 0.0000 0.0000
# 3 74.6044 37.8980 185.6555 0.0000 0.0000 0.0000
# 4 0.0000 0.0000 0.0000 4.3950 0.0000 0.0000
# 5 0.0000 0.0000 0.0000 0.0000 24.5398 0.0000
# 6 0.0000 0.0000 0.0000 0.0000 0.0000 6.6322
#
#
#
# Elastic Compliance Matrix: (Units=1/GPa)
#
#
# Indices 1 2 3 4 5 6 
#
# 1 0.013024 -0.001597 -0.004908 0.000000 0.000000 0.000000
# 2 -0.001597 0.052283 -0.010031 0.000000 0.000000 0.000000
# 3 -0.004908 -0.010031 0.009406 0.000000 0.000000 0.000000
# 4 0.000000 0.000000 0.000000 0.227531 0.000000 0.000000
# 5 0.000000 0.000000 0.000000 0.000000 0.040750 0.000000
# 6 0.000000 0.000000 0.000000 0.000000 0.000000 0.150780
#
#
# Mechanical properties :
#
#
# Convention : Reuss Voigt Hill
#
# Bulk Modulus (GPa) = 24.01446 64.42338 44.21892
# Shear Modulus (GPa) = 9.24684 19.75018 14.49851
#
# Velocity S-wave (km/s) = 2.34657 3.42943 2.93831
# Velocity P-wave (km/s) = 4.65211 7.35150 6.15169
#
# Compressibility (1/GPa) = 0.04164158
#
# Stress axis : x y z
#
# Youngs Moduli (GPa) = 76.77952 19.12680 106.31554
#
# Poissons Ratio (x) = 0.03055 0.52176
# Poissons Ratio (y) = 0.12265 1.06640
# Poissons Ratio (z) = 0.37681 0.19185
#
# Static dielectric constant tensor:
#      x y z
#    x 3.184990 0.000000 0.000000 
#    y 0.000000 2.486850 0.000000 
#    z 0.000000 0.000000 3.934910 
# 
# 
# High freq. dielectric constant tensor:
#      x y z
#    x 1.642870 0.000000 0.000000 
#    y 0.000000 1.554600 0.000000 
#    z 0.000000 0.000000 1.676240 
# 
# From -- ./inp_files/43661.got.cif
#   From: 2010.03.12/outbox.cif.g09.slc.cpg/sg67_22_cif.got.tgz:43661.got - 2010.04.10 22:41:39.
