data_PCOD8281357
_publ_section_title
;
Structure prediction by ZEFSAII (Michael W. Deem and Ramdas Pophale) SiO2 
 PCOD8281357
Probable space group: C M M A
;
_chemical_formula_sum "Si O2"
_cell_formula_units_Z 80
_cell_length_a 8.651305
_cell_length_b 18.397752
_cell_length_c 26.221142
_cell_angle_alpha 90.000000
_cell_angle_beta 90.000000
_cell_angle_gamma 90.000000
_cell_volume 4173.476631
_symmetry_space_group_name_H-M "C M M A"
_symmetry_group_IT_number 67
_symmetry_cell_setting 'orthorhombic'
loop_
_space_group_symop_operation_xyz
x,y,z
-x,1/2-y,z
x,-y,-z
-x,1/2+y,-z
-x,-y,-z
x,1/2+y,-z
-x,y,z
x,1/2-y,z
1/2+x,1/2+y,z
1/2-x,-y,z
1/2+x,1/2-y,-z
1/2-x,y,-z
1/2-x,1/2-y,-z
1/2+x,y,-z
1/2-x,1/2+y,z
1/2+x,-y,z
loop_
_atom_site_type_symbol
_atom_site_label
_atom_site_fract_x
_atom_site_fract_y
_atom_site_fract_z
Si Si1 0.322129 0.335552 0.644050
Si Si2 0.681602 0.420268 0.840329
Si Si3 0.817271 0.919178 0.261766
Si Si4 0.179976 0.079887 0.049409
Si Si5 0.317326 0.077211 0.445424
O O1 0.500000 0.359257 0.638954
O O2 0.303148 0.250000 0.648150
O O3 0.250046 0.369765 0.694204
O O4 0.229168 0.361703 0.594726
O O5 0.500000 0.424065 0.828689
O O6 0.750000 0.500000 0.844540
O O7 0.766330 0.382177 0.792340
O O8 0.713729 0.381303 0.895479
O O9 0.000000 0.922207 0.266334
O O10 0.750000 0.000000 0.266476
O O11 0.000000 0.072890 0.040724
O O12 0.250000 0.000000 0.050725
O O13 0.250000 0.122779 0.000000
O O14 0.500000 0.070812 0.449588
O O15 0.250000 0.100131 0.500000
O O16 0.250000 0.000000 0.427162
#
# Coordination Sequence:
#
# PCOD8281357 Si02
#       5
#    16  16  16  16  16
#     4  11  24  41  59  80 109 143 178 218 265 314
#     4   9  16  26  40  61  89 123 165 209 255 306
#     4  11  21  34  54  77 103 136 176 220 264 313
#     4   9  15  21  32  51  80 118 157 199 247 303
#     4  11  22  39  63  89 117 146 181 219 257 305
#
# _framework density 19.168672000000001
#
# number of rings (size 3 to 8) (size 9 to 14) (size 15 to 20)
#    0.000    1.800    0.000    8.400    0.000    4.400 
#    0.000    0.000    0.000    0.000    0.000    0.000 
#    0.000    0.800    0.000    2.600    0.000    9.800 
#
# Total GULP energy -495706.504457 kJ/mol
# GULP energy per Si atom -12392.662611 kJ/mol
# Density = 1.912504 g / cm^3
# Si number density = 19.168672 Si / 1000 Ang^3
#
#
#
# Elastic Constant Matrix: (Units=GPa)
#
#
# Indices 1 2 3 4 5 6 
#
# 1 146.3814 41.1651 69.7682 0.0000 0.0000 0.0000
# 2 41.1651 41.8630 49.3250 0.0000 0.0000 0.0000
# 3 69.7682 49.3250 180.3765 0.0000 0.0000 0.0000
# 4 0.0000 0.0000 0.0000 -1.6570 0.0000 0.0000
# 5 0.0000 0.0000 0.0000 0.0000 28.2850 0.0000
# 6 0.0000 0.0000 0.0000 0.0000 0.0000 17.9026
#
#
#
# Elastic Compliance Matrix: (Units=1/GPa)
#
#
# Indices 1 2 3 4 5 6 
#
# 1 0.009784 -0.007616 -0.001702 0.000000 0.000000 0.000000
# 2 -0.007616 0.041171 -0.008313 0.000000 0.000000 0.000000
# 3 -0.001702 -0.008313 0.008475 0.000000 0.000000 0.000000
# 4 0.000000 0.000000 0.000000 -0.603491 0.000000 0.000000
# 5 0.000000 0.000000 0.000000 0.000000 0.035354 0.000000
# 6 0.000000 0.000000 0.000000 0.000000 0.000000 0.055858
#
#
# Mechanical properties :
#
#
# Convention : Reuss Voigt Hill
#
# Bulk Modulus (GPa) = 41.37436 76.57080 58.97258
# Shear Modulus (GPa) = -12.20910 22.79697 5.29394
#
# Velocity S-wave (km/s) = -2.52648 3.45234 1.66366
# Velocity P-wave (km/s) = 3.62221 7.47824 5.87556
#
# Compressibility (1/GPa) = 0.02416956
#
# Stress axis : x y z
#
# Youngs Moduli (GPa) = 102.20378 24.28910 117.98934
#
# Poissons Ratio (x) = 0.18499 0.20080
# Poissons Ratio (y) = 0.77839 0.98079
# Poissons Ratio (z) = 0.17394 0.20190
#
# Static dielectric constant tensor:
#      x y z
#    x 3.764890 0.000000 0.000000 
#    y 0.000000 2.943130 0.000000 
#    z 0.000000 0.000000 4.727030 
# 
# 
# High freq. dielectric constant tensor:
#      x y z
#    x 1.768560 0.000000 0.000000 
#    y 0.000000 1.673590 0.000000 
#    z 0.000000 0.000000 1.783100 
# 
# From -- ./inp_files/43292.got.cif
#   From: 2010.03.12/outbox.cif.g09.slc.cpg/sg67_22_cif.got.tgz:43292.got - 2010.04.10 22:41:39.
