data_PCOD8281978
_publ_section_title
;
Structure prediction by ZEFSAII (Michael W. Deem and Ramdas Pophale) SiO2 
 PCOD8281978
Probable space group: C C C A
;
_chemical_formula_sum "Si O2"
_cell_formula_units_Z 88
_cell_length_a 12.240330
_cell_length_b 17.174069
_cell_length_c 22.295007
_cell_angle_alpha 90.000000
_cell_angle_beta 90.000000
_cell_angle_gamma 90.000000
_cell_volume 4686.773256
_symmetry_space_group_name_H-M "C C C A"
_symmetry_group_IT_number 68
_space_group.IT_coordinate_system_code '2'
_symmetry_cell_setting 'orthorhombic'
loop_
_space_group_symop_operation_xyz
x,y,z
-x,1/2-y,z
x,1/2-y,1/2-z
-x,y,1/2-z
-x,-y,-z
x,1/2+y,-z
-x,1/2+y,1/2+z
x,-y,1/2+z
1/2+x,1/2+y,z
1/2-x,-y,z
1/2+x,-y,1/2-z
1/2-x,1/2+y,1/2-z
1/2-x,1/2-y,-z
1/2+x,y,-z
1/2-x,y,1/2+z
1/2+x,1/2-y,1/2+z
loop_
_atom_site_type_symbol
_atom_site_label
_atom_site_fract_x
_atom_site_fract_y
_atom_site_fract_z
Si Si1 0.997955 0.065899 0.915122
Si Si2 0.289643 0.738567 0.186029
Si Si3 0.062123 0.176917 0.685878
Si Si4 0.235415 0.586633 0.121376
Si Si5 0.000000 0.250000 0.394460
Si Si6 0.444227 0.401654 0.546696
O O1 0.121846 0.095381 0.912958
O O2 0.940507 0.099353 0.855216
O O3 0.993206 0.972245 0.919462
O O4 0.940139 0.096203 0.974978
O O5 0.346888 0.750000 0.250000
O O6 0.189323 0.800019 0.189204
O O7 0.245324 0.650766 0.174013
O O8 0.386903 0.756777 0.141041
O O9 0.000000 0.250000 0.654633
O O10 0.000000 0.161473 0.750000
O O11 0.250000 0.500000 0.150150
O O12 0.320286 0.601322 0.068380
O O13 0.992270 0.175283 0.435950
#
# Coordination Sequence:
#
# PCOD8281978 Si02
#       6
#    16  16  16  16   8  16
#     4  10  19  36  58  82 112 143 182 238 281 323
#     4  11  20  37  57  79 111 146 183 230 276 328
#     4  11  20  35  59  89 110 137 183 240 282 324
#     4   9  18  34  55  78 107 146 185 225 276 333
#     4  10  23  38  54  78 113 152 188 218 270 350
#     4   9  21  36  54  81 113 147 188 224 274 338
#
# _framework density 18.776243999999998
#
# number of rings (size 3 to 8) (size 9 to 14) (size 15 to 20)
#    0.000    2.000    3.636    0.273    1.273    1.455 
#    0.000   13.636    0.000    0.000    0.000    0.000 
#    0.000    0.000    0.000    0.000    0.000    0.000 
#
# Total GULP energy -545141.070487 kJ/mol
# GULP energy per Si atom -12389.569784 kJ/mol
# Density = 1.873351 g / cm^3
# Si number density = 18.776244 Si / 1000 Ang^3
#
#
#
# Elastic Constant Matrix: (Units=GPa)
#
#
# Indices 1 2 3 4 5 6 
#
# 1 80.9662 41.2542 29.3712 0.0000 0.0000 0.0000
# 2 41.2542 125.8337 75.2854 0.0000 0.0000 0.0000
# 3 29.3712 75.2854 106.7048 0.0000 0.0000 0.0000
# 4 0.0000 0.0000 0.0000 27.7677 0.0000 0.0000
# 5 0.0000 0.0000 0.0000 0.0000 19.9365 0.0000
# 6 0.0000 0.0000 0.0000 0.0000 0.0000 22.7996
#
#
#
# Elastic Compliance Matrix: (Units=1/GPa)
#
#
# Indices 1 2 3 4 5 6 
#
# 1 0.014907 -0.004209 -0.001134 0.000000 0.000000 0.000000
# 2 -0.004209 0.014940 -0.009383 0.000000 0.000000 0.000000
# 3 -0.001134 -0.009383 0.016304 0.000000 0.000000 0.000000
# 4 0.000000 0.000000 0.000000 0.036013 0.000000 0.000000
# 5 0.000000 0.000000 0.000000 0.000000 0.050159 0.000000
# 6 0.000000 0.000000 0.000000 0.000000 0.000000 0.043860
#
#
# Mechanical properties :
#
#
# Convention : Reuss Voigt Hill
#
# Bulk Modulus (GPa) = 59.87893 67.25849 63.56871
# Shear Modulus (GPa) = 23.67420 25.27370 24.47395
#
# Velocity S-wave (km/s) = 3.55471 3.67283 3.61425
# Velocity P-wave (km/s) = 6.98627 7.34064 7.16565
#
# Compressibility (1/GPa) = 0.01670037
#
# Stress axis : x y z
#
# Youngs Moduli (GPa) = 67.08457 66.93239 61.33609
#
# Poissons Ratio (x) = 0.28171 0.06953
# Poissons Ratio (y) = 0.28235 0.57550
# Poissons Ratio (z) = 0.07605 0.62801
#
# Static dielectric constant tensor:
#      x y z
#    x 3.453810 0.000000 0.000000 
#    y 0.000000 3.699190 0.000000 
#    z 0.000000 0.000000 3.367470 
# 
# 
# High freq. dielectric constant tensor:
#      x y z
#    x 1.732680 0.000000 0.000000 
#    y 0.000000 1.730730 0.000000 
#    z 0.000000 0.000000 1.717460 
# 
# From -- ./inp_files/37433.got.cif
#   From: 2010.03.12/outbox.cif.g09.slc.cpg/sg68_19_cif.got.tgz:37433.got - 2010.04.10 23:14:56.
