data_PCOD8281046
_publ_section_title
;
Structure prediction by ZEFSAII (Michael W. Deem and Ramdas Pophale) SiO2 
 PCOD8281046
Probable space group: C M M A
;
_chemical_formula_sum "Si O2"
_cell_formula_units_Z 72
_cell_length_a 21.507537
_cell_length_b 8.815497
_cell_length_c 18.974683
_cell_angle_alpha 90.000000
_cell_angle_beta 90.000000
_cell_angle_gamma 90.000000
_cell_volume 3597.592836
_symmetry_space_group_name_H-M "C M M A"
_symmetry_group_IT_number 67
_symmetry_cell_setting 'orthorhombic'
loop_
_space_group_symop_operation_xyz
x,y,z
-x,1/2-y,z
x,-y,-z
-x,1/2+y,-z
-x,-y,-z
x,1/2+y,-z
-x,y,z
x,1/2-y,z
1/2+x,1/2+y,z
1/2-x,-y,z
1/2+x,1/2-y,-z
1/2-x,y,-z
1/2-x,1/2-y,-z
1/2+x,y,-z
1/2-x,1/2+y,z
1/2+x,-y,z
loop_
_atom_site_type_symbol
_atom_site_label
_atom_site_fract_x
_atom_site_fract_y
_atom_site_fract_z
Si Si1 0.183523 0.570329 0.931678
Si Si2 0.685893 0.930002 0.423513
Si Si3 0.000000 0.425858 0.925407
Si Si4 0.928954 0.426471 0.323946
Si Si5 0.892947 0.428151 0.821637
O O1 0.182030 0.750000 0.936742
O O2 0.250000 0.500000 0.941303
O O3 0.165732 0.517431 0.852365
O O4 0.145165 0.500000 0.000000
O O5 0.694058 0.750000 0.428383
O O6 0.623725 0.974516 0.380319
O O7 0.675726 0.000000 0.500000
O O8 0.750000 0.000000 0.390268
O O9 0.057847 0.478571 0.879780
O O10 0.000000 0.250000 0.938088
O O11 0.000000 0.500000 0.000000
O O12 0.922797 0.250000 0.306074
O O13 0.914961 0.520847 0.254572
O O14 0.000000 0.462832 0.350386
O O15 0.880233 0.250000 0.818751
#
# Coordination Sequence:
#
# PCOD8281046 Si02
#       5
#    16  16   8  16  16
#     4  11  22  38  58  82 111 149 193 246 303 360
#     4  10  21  39  64  93 124 159 201 247 300 362
#     4  10  22  36  54  80 109 146 193 240 291 344
#     4  10  22  40  61  87 122 163 205 251 305 363
#     4  11  22  38  57  83 115 152 196 243 296 357
#
# _framework density 20.013382
#
# number of rings (size 3 to 8) (size 9 to 14) (size 15 to 20)
#    0.000    1.556    1.111    5.333    0.000    6.667 
#    0.000    2.222    0.000    0.000    0.000    0.000 
#    0.000    0.000    0.000    0.000    0.000    0.000 
#
# Total GULP energy -446041.734977 kJ/mol
# GULP energy per Si atom -12390.048194 kJ/mol
# Density = 1.996783 g / cm^3
# Si number density = 20.013382 Si / 1000 Ang^3
#
#
#
# Elastic Constant Matrix: (Units=GPa)
#
#
# Indices 1 2 3 4 5 6 
#
# 1 130.5769 56.9154 72.7225 0.0000 0.0000 0.0000
# 2 56.9154 112.0857 56.8052 0.0000 0.0000 0.0000
# 3 72.7225 56.8052 114.1167 0.0000 0.0000 0.0000
# 4 0.0000 0.0000 0.0000 42.3520 0.0000 0.0000
# 5 0.0000 0.0000 0.0000 0.0000 142.4453 0.0000
# 6 0.0000 0.0000 0.0000 0.0000 0.0000 -833.0051
#
#
#
# Elastic Compliance Matrix: (Units=1/GPa)
#
#
# Indices 1 2 3 4 5 6 
#
# 1 0.012640 -0.003124 -0.006500 0.000000 0.000000 0.000000
# 2 -0.003124 0.012704 -0.004333 0.000000 0.000000 0.000000
# 3 -0.006500 -0.004333 0.015062 0.000000 0.000000 0.000000
# 4 0.000000 0.000000 0.000000 0.023612 0.000000 0.000000
# 5 0.000000 0.000000 0.000000 0.000000 0.007020 0.000000
# 6 0.000000 0.000000 0.000000 0.000000 0.000000 -0.001200
#
#
# Mechanical properties :
#
#
# Convention : Reuss Voigt Hill
#
# Bulk Modulus (GPa) = 80.05083 81.07392 80.56237
# Shear Modulus (GPa) = 49.06015 -118.28580 -34.61282
#
# Velocity S-wave (km/s) = 4.95650 -7.69621 -4.16322
# Velocity P-wave (km/s) = 8.53471 6.19498 4.15112
#
# Compressibility (1/GPa) = 0.01249206
#
# Stress axis : x y z
#
# Youngs Moduli (GPa) = 79.11315 78.71459 66.39259
#
# Poissons Ratio (x) = 0.24593 0.43154
# Poissons Ratio (y) = 0.24717 0.28767
# Poissons Ratio (z) = 0.51423 0.34106
#
# Static dielectric constant tensor:
#      x y z
#    x 5.855770 0.000000 0.000000 
#    y 0.000000 3.552270 0.000000 
#    z 0.000000 0.000000 3.655100 
# 
# 
# High freq. dielectric constant tensor:
#      x y z
#    x 1.792090 0.000000 0.000000 
#    y 0.000000 1.787280 0.000000 
#    z 0.000000 0.000000 1.778450 
# 
# From -- ./inp_files/35356.got.cif
#   From: 2010.03.12/outbox.cif.g09.slc.cpg/sg67_18_cif.got.tgz:35356.got - 2010.04.10 22:41:39.
