data_PCOD8281142
_publ_section_title
;
Structure prediction by ZEFSAII (Michael W. Deem and Ramdas Pophale) SiO2 
 PCOD8281142
Probable space group: C M M A
;
_chemical_formula_sum "Si O2"
_cell_formula_units_Z 96
_cell_length_a 20.369117
_cell_length_b 16.949866
_cell_length_c 14.096535
_cell_angle_alpha 90.000000
_cell_angle_beta 90.000000
_cell_angle_gamma 90.000000
_cell_volume 4866.882328
_symmetry_space_group_name_H-M "C M M A"
_symmetry_group_IT_number 67
_symmetry_cell_setting 'orthorhombic'
loop_
_space_group_symop_operation_xyz
x,y,z
-x,1/2-y,z
x,-y,-z
-x,1/2+y,-z
-x,-y,-z
x,1/2+y,-z
-x,y,z
x,1/2-y,z
1/2+x,1/2+y,z
1/2-x,-y,z
1/2+x,1/2-y,-z
1/2-x,y,-z
1/2-x,1/2-y,-z
1/2+x,y,-z
1/2-x,1/2+y,z
1/2+x,-y,z
loop_
_atom_site_type_symbol
_atom_site_label
_atom_site_fract_x
_atom_site_fract_y
_atom_site_fract_z
Si Si1 0.814733 0.413200 0.455972
Si Si2 0.427863 0.342758 0.431817
Si Si3 0.310577 0.840528 0.062804
Si Si4 0.923527 0.413893 0.956008
Si Si5 0.769162 0.087857 0.245347
Si Si6 0.371411 0.342975 0.231795
O O1 0.819089 0.500000 0.500000
O O2 0.750000 0.371153 0.500000
O O3 0.880273 0.367624 0.483343
O O4 0.809095 0.411490 0.343160
O O5 0.500000 0.378810 0.451304
O O6 0.431242 0.250000 0.430138
O O7 0.403227 0.372309 0.329793
O O8 0.295988 0.750000 0.082348
O O9 0.317627 0.884152 0.162994
O O10 0.250000 0.875564 0.000000
O O11 0.380156 0.850193 0.011561
O O12 0.902784 0.401832 0.846251
O O13 0.000000 0.393939 0.968708
O O14 0.907414 0.500000 0.000000
O O15 0.706306 0.145179 0.243285
O O16 0.750000 0.000000 0.220190
O O17 0.385205 0.250000 0.209438
#
# Coordination Sequence:
#
# PCOD8281142 Si02
#       6
#    16  16  16  16  16  16
#     4  11  21  40  61  90 123 160 201 251 305 361
#     4  10  22  38  59  91 126 160 202 250 304 364
#     4  11  24  40  60  91 126 161 204 252 306 366
#     4  11  24  41  62  90 123 162 206 250 305 367
#     4  12  22  37  63  91 123 159 205 256 304 362
#     4  11  21  37  63  91 120 157 203 258 307 354
#
# _framework density 19.725154
#
# number of rings (size 3 to 8) (size 9 to 14) (size 15 to 20)
#    0.000    1.000    5.000    2.500    0.000    4.000 
#    0.000    0.833    0.000    0.000    0.000    0.000 
#    0.000    0.000    0.000    0.000    0.000    0.000 
#
# Total GULP energy -595171.920699 kJ/mol
# GULP energy per Si atom -12399.415015 kJ/mol
# Density = 1.968026 g / cm^3
# Si number density = 19.725154 Si / 1000 Ang^3
#
#
#
# Elastic Constant Matrix: (Units=GPa)
#
#
# Indices 1 2 3 4 5 6 
#
# 1 123.5716 18.3888 54.4668 0.0000 0.0000 0.0000
# 2 18.3888 55.0777 42.9939 0.0000 0.0000 0.0000
# 3 54.4668 42.9939 148.6694 0.0000 0.0000 0.0000
# 4 0.0000 0.0000 0.0000 30.4811 0.0000 0.0000
# 5 0.0000 0.0000 0.0000 0.0000 26.4644 0.0000
# 6 0.0000 0.0000 0.0000 0.0000 0.0000 28.1494
#
#
#
# Elastic Compliance Matrix: (Units=1/GPa)
#
#
# Indices 1 2 3 4 5 6 
#
# 1 0.009666 -0.000598 -0.003368 0.000000 0.000000 0.000000
# 2 -0.000598 0.023487 -0.006573 0.000000 0.000000 0.000000
# 3 -0.003368 -0.006573 0.009861 0.000000 0.000000 0.000000
# 4 0.000000 0.000000 0.000000 0.032807 0.000000 0.000000
# 5 0.000000 0.000000 0.000000 0.000000 0.037787 0.000000
# 6 0.000000 0.000000 0.000000 0.000000 0.000000 0.035525
#
#
# Mechanical properties :
#
#
# Convention : Reuss Voigt Hill
#
# Bulk Modulus (GPa) = 45.58837 62.11308 53.85072
# Shear Modulus (GPa) = 28.16530 31.11693 29.64112
#
# Velocity S-wave (km/s) = 3.78284 3.97612 3.88068
# Velocity P-wave (km/s) = 6.49937 7.25513 6.88763
#
# Compressibility (1/GPa) = 0.02193542
#
# Stress axis : x y z
#
# Youngs Moduli (GPa) = 103.45386 42.57717 101.40665
#
# Poissons Ratio (x) = 0.02545 0.34158
# Poissons Ratio (y) = 0.06185 0.66656
# Poissons Ratio (z) = 0.34848 0.27987
#
# Static dielectric constant tensor:
#      x y z
#    x 3.865610 0.000000 0.000000 
#    y 0.000000 3.487340 0.000000 
#    z 0.000000 0.000000 3.743400 
# 
# 
# High freq. dielectric constant tensor:
#      x y z
#    x 1.767560 0.000000 0.000000 
#    y 0.000000 1.760470 0.000000 
#    z 0.000000 0.000000 1.778100 
# 
# From -- ./inp_files/27170.got.cif
#   From: 2010.03.12/outbox.cif.g09.slc.cpg/sg67_14_cif.got.tgz:27170.got - 2010.04.10 22:41:39.
