data_PCOD8281771
_publ_section_title
;
Structure prediction by ZEFSAII (Michael W. Deem and Ramdas Pophale) SiO2 
 PCOD8281771
Probable space group: C C C A
;
_chemical_formula_sum "Si O2"
_cell_formula_units_Z 128
_cell_length_a 17.807716
_cell_length_b 21.999349
_cell_length_c 16.976880
_cell_angle_alpha 90.000000
_cell_angle_beta 90.000000
_cell_angle_gamma 90.000000
_cell_volume 6650.831257
_symmetry_space_group_name_H-M "C C C A"
_symmetry_group_IT_number 68
_space_group.IT_coordinate_system_code '2'
_symmetry_cell_setting 'orthorhombic'
loop_
_space_group_symop_operation_xyz
x,y,z
-x,1/2-y,z
x,1/2-y,1/2-z
-x,y,1/2-z
-x,-y,-z
x,1/2+y,-z
-x,1/2+y,1/2+z
x,-y,1/2+z
1/2+x,1/2+y,z
1/2-x,-y,z
1/2+x,-y,1/2-z
1/2-x,1/2+y,1/2-z
1/2-x,1/2-y,-z
1/2+x,y,-z
1/2-x,y,1/2+z
1/2+x,1/2-y,1/2+z
loop_
_atom_site_type_symbol
_atom_site_label
_atom_site_fract_x
_atom_site_fract_y
_atom_site_fract_z
Si Si1 0.617028 0.851044 0.604630
Si Si2 0.323489 0.957867 0.321265
Si Si3 0.351233 0.445559 0.502572
Si Si4 0.338005 0.229551 0.167346
Si Si5 0.734556 0.624073 0.194326
Si Si6 0.313848 0.080299 0.536596
Si Si7 0.947881 0.870540 0.389672
Si Si8 0.880059 0.566826 0.243159
O O1 0.667167 0.790077 0.614404
O O2 0.638779 0.879657 0.522482
O O3 0.528206 0.839786 0.597799
O O4 0.633282 0.894675 0.677891
O O5 0.364790 0.945867 0.403482
O O6 0.304041 0.893940 0.278084
O O7 0.250000 0.000000 0.336381
O O8 0.380899 0.995752 0.265257
O O9 0.346460 0.512610 0.465913
O O10 0.272740 0.412207 0.487813
O O11 0.421693 0.410523 0.464438
O O12 0.375589 0.250000 0.250000
O O13 0.258511 0.195541 0.187536
O O14 0.391229 0.184424 0.121160
O O15 0.677243 0.606819 0.124559
O O16 0.809054 0.581845 0.185729
O O17 0.951389 0.913409 0.310411
#
# Coordination Sequence:
#
# PCOD8281771 Si02
#       8
#    16  16  16  16  16  16  16  16
#     4  12  23  37  58  85 122 153 195 240 298 356
#     4  10  18  32  59  84 113 153 200 243 294 346
#     4  11  20  37  58  86 118 152 196 238 302 353
#     4  11  22  38  57  84 117 156 196 236 290 353
#     4  10  20  35  57  84 112 152 199 242 289 343
#     4  11  21  37  58  86 117 152 190 250 297 348
#     4  11  23  37  59  84 118 161 195 236 292 359
#     4  10  18  35  53  86 110 155 192 229 291 353
#
# _framework density 19.245714
#
# number of rings (size 3 to 8) (size 9 to 14) (size 15 to 20)
#    0.000    1.250    7.500    2.250    3.500    1.500 
#    0.000    0.000    0.000    0.000    0.000    0.000 
#    0.000    2.000    0.000    0.000    0.000    0.000 
#
# Total GULP energy -793306.748143 kJ/mol
# GULP energy per Si atom -12395.417940 kJ/mol
# Density = 1.920191 g / cm^3
# Si number density = 19.245714 Si / 1000 Ang^3
#
#
#
# Elastic Constant Matrix: (Units=GPa)
#
#
# Indices 1 2 3 4 5 6 
#
# 1 30.9955 34.0002 28.3422 0.0000 0.0000 0.0000
# 2 34.0002 95.3621 35.8348 0.0000 0.0000 0.0000
# 3 28.3422 35.8348 116.6730 0.0000 0.0000 0.0000
# 4 0.0000 0.0000 0.0000 30.9422 0.0000 0.0000
# 5 0.0000 0.0000 0.0000 0.0000 21.5862 0.0000
# 6 0.0000 0.0000 0.0000 0.0000 0.0000 18.3762
#
#
#
# Elastic Compliance Matrix: (Units=1/GPa)
#
#
# Indices 1 2 3 4 5 6 
#
# 1 0.060513 -0.018146 -0.009127 0.000000 0.000000 0.000000
# 2 -0.018146 0.017296 -0.000904 0.000000 0.000000 0.000000
# 3 -0.009127 -0.000904 0.011066 0.000000 0.000000 0.000000
# 4 0.000000 0.000000 0.000000 0.032318 0.000000 0.000000
# 5 0.000000 0.000000 0.000000 0.000000 0.046326 0.000000
# 6 0.000000 0.000000 0.000000 0.000000 0.000000 0.054418
#
#
# Mechanical properties :
#
#
# Convention : Reuss Voigt Hill
#
# Bulk Modulus (GPa) = 30.74902 48.82056 39.78479
# Shear Modulus (GPa) = 17.29329 23.83782 20.56556
#
# Velocity S-wave (km/s) = 3.00084 3.52320 3.27246
# Velocity P-wave (km/s) = 5.29325 6.47863 5.91570
#
# Compressibility (1/GPa) = 0.03252136
#
# Stress axis : x y z
#
# Youngs Moduli (GPa) = 16.52550 57.81776 90.36922
#
# Poissons Ratio (x) = 1.04913 0.82476
# Poissons Ratio (y) = 0.29986 0.08172
# Poissons Ratio (z) = 0.15082 0.05228
#
# Static dielectric constant tensor:
#      x y z
#    x 3.275880 0.000000 0.000000 
#    y 0.000000 3.590280 0.000000 
#    z 0.000000 0.000000 3.630770 
# 
# 
# High freq. dielectric constant tensor:
#      x y z
#    x 1.704830 0.000000 0.000000 
#    y 0.000000 1.736470 0.000000 
#    z 0.000000 0.000000 1.757250 
# 
# From -- ./inp_files/32394.got.cif
#   From: 2010.03.12/outbox.cif.g09.slc.cpg/sg68_17_cif.got.tgz:32394.got - 2010.04.10 23:14:56.
