data_PCOD8281018
_publ_section_title
;
Structure prediction by ZEFSAII (Michael W. Deem and Ramdas Pophale) SiO2 
 PCOD8281018
Probable space group: C M M A
;
_chemical_formula_sum "Si O2"
_cell_formula_units_Z 72
_cell_length_a 15.886631
_cell_length_b 8.801650
_cell_length_c 24.357404
_cell_angle_alpha 90.000000
_cell_angle_beta 90.000000
_cell_angle_gamma 90.000000
_cell_volume 3405.860866
_symmetry_space_group_name_H-M "C M M A"
_symmetry_group_IT_number 67
_symmetry_cell_setting 'orthorhombic'
loop_
_space_group_symop_operation_xyz
x,y,z
-x,1/2-y,z
x,-y,-z
-x,1/2+y,-z
-x,-y,-z
x,1/2+y,-z
-x,y,z
x,1/2-y,z
1/2+x,1/2+y,z
1/2-x,-y,z
1/2+x,1/2-y,-z
1/2-x,y,-z
1/2-x,1/2-y,-z
1/2+x,y,-z
1/2-x,1/2+y,z
1/2+x,-y,z
loop_
_atom_site_type_symbol
_atom_site_label
_atom_site_fract_x
_atom_site_fract_y
_atom_site_fract_z
Si Si1 0.339465 0.427034 0.161866
Si Si2 0.594923 0.579807 0.265172
Si Si3 0.500000 0.931584 0.560091
Si Si4 0.161700 0.929061 0.618710
Si Si5 0.598808 0.917991 0.053357
O O1 0.329526 0.250000 0.154985
O O2 0.250000 0.500000 0.171561
O O3 0.394715 0.463455 0.215243
O O4 0.383221 0.487879 0.107550
O O5 0.500000 0.567570 0.287486
O O6 0.613640 0.750000 0.243180
O O7 0.655454 0.540937 0.315967
O O8 0.500000 0.750000 0.558598
O O9 0.500000 0.000000 0.500000
O O10 0.415553 0.988097 0.589579
O O11 0.158730 0.750000 0.605144
O O12 0.250000 0.000000 0.598024
O O13 0.500000 0.904033 0.045268
O O14 0.639075 0.750000 0.058460
O O15 0.638823 0.000000 0.000000
#
# Coordination Sequence:
#
# PCOD8281018 Si02
#       5
#    16  16   8  16  16
#     4  12  25  39  57  85 120 159 205 256 310 376
#     4  10  21  40  65  93 128 168 209 261 321 382
#     4  12  26  46  72 102 138 182 229 280 333 394
#     4  11  23  43  69 102 139 180 226 278 335 397
#     4  10  21  39  62  86 114 150 194 247 307 374
#
# _framework density 21.140028999999998
#
# number of rings (size 3 to 8) (size 9 to 14) (size 15 to 20)
#    0.000    1.111    1.111    5.667    0.000    8.889 
#    0.000    4.444    0.000    0.000    0.000    0.000 
#    0.000    0.000    0.000    0.000    0.000    0.000 
#
# Total GULP energy -446506.773146 kJ/mol
# GULP energy per Si atom -12402.965921 kJ/mol
# Density = 2.109191 g / cm^3
# Si number density = 21.140029 Si / 1000 Ang^3
#
#
#
# Elastic Constant Matrix: (Units=GPa)
#
#
# Indices 1 2 3 4 5 6 
#
# 1 104.0693 54.9369 38.5331 0.0000 0.0000 0.0000
# 2 54.9369 193.9644 72.0784 0.0000 0.0000 0.0000
# 3 38.5331 72.0784 116.2092 0.0000 0.0000 0.0000
# 4 0.0000 0.0000 0.0000 46.5119 0.0000 0.0000
# 5 0.0000 0.0000 0.0000 0.0000 13.4790 0.0000
# 6 0.0000 0.0000 0.0000 0.0000 0.0000 30.5332
#
#
#
# Elastic Compliance Matrix: (Units=1/GPa)
#
#
# Indices 1 2 3 4 5 6 
#
# 1 0.011787 -0.002451 -0.002388 0.000000 0.000000 0.000000
# 2 -0.002451 0.007209 -0.003659 0.000000 0.000000 0.000000
# 3 -0.002388 -0.003659 0.011666 0.000000 0.000000 0.000000
# 4 0.000000 0.000000 0.000000 0.021500 0.000000 0.000000
# 5 0.000000 0.000000 0.000000 0.000000 0.074190 0.000000
# 6 0.000000 0.000000 0.000000 0.000000 0.000000 0.032751
#
#
# Mechanical properties :
#
#
# Convention : Reuss Voigt Hill
#
# Bulk Modulus (GPa) = 73.16998 82.81554 77.99276
# Shear Modulus (GPa) = 27.67698 34.68446 31.18072
#
# Velocity S-wave (km/s) = 3.62224 4.05495 3.84469
# Velocity P-wave (km/s) = 7.22367 7.82198 7.52877
#
# Compressibility (1/GPa) = 0.01366681
#
# Stress axis : x y z
#
# Youngs Moduli (GPa) = 84.83853 138.70630 85.71553
#
# Poissons Ratio (x) = 0.33997 0.20470
# Poissons Ratio (y) = 0.20794 0.31363
# Poissons Ratio (z) = 0.20261 0.50752
#
# Static dielectric constant tensor:
#      x y z
#    x 3.824070 0.000000 0.000000 
#    y 0.000000 4.527860 0.000000 
#    z 0.000000 0.000000 4.059920 
# 
# 
# High freq. dielectric constant tensor:
#      x y z
#    x 1.831910 0.000000 0.000000 
#    y 0.000000 1.840410 0.000000 
#    z 0.000000 0.000000 1.833170 
# 
# From -- ./inp_files/44246.got.cif
#   From: 2010.03.12/outbox.cif.g09.slc.cpg/sg67_23_cif.got.tgz:44246.got - 2010.04.10 22:41:39.
