data_PCOD8281176
_publ_section_title
;
Structure prediction by ZEFSAII (Michael W. Deem and Ramdas Pophale) SiO2 
 PCOD8281176
Probable space group: C M M A
;
_chemical_formula_sum "Si O2"
_cell_formula_units_Z 112
_cell_length_a 24.209578
_cell_length_b 14.343805
_cell_length_c 14.554463
_cell_angle_alpha 90.000000
_cell_angle_beta 90.000000
_cell_angle_gamma 90.000000
_cell_volume 5054.145940
_symmetry_space_group_name_H-M "C M M A"
_symmetry_group_IT_number 67
_symmetry_cell_setting 'orthorhombic'
loop_
_space_group_symop_operation_xyz
x,y,z
-x,1/2-y,z
x,-y,-z
-x,1/2+y,-z
-x,-y,-z
x,1/2+y,-z
-x,y,z
x,1/2-y,z
1/2+x,1/2+y,z
1/2-x,-y,z
1/2+x,1/2-y,-z
1/2-x,y,-z
1/2-x,1/2-y,-z
1/2+x,y,-z
1/2-x,1/2+y,z
1/2+x,-y,z
loop_
_atom_site_type_symbol
_atom_site_label
_atom_site_fract_x
_atom_site_fract_y
_atom_site_fract_z
Si Si1 0.437719 0.037938 0.878575
Si Si2 0.769699 0.394539 0.906260
Si Si3 0.607209 0.360010 0.042682
Si Si4 0.259805 0.145843 0.706647
Si Si5 0.564165 0.494776 0.672339
Si Si6 0.650029 0.357125 0.378412
Si Si7 0.639979 0.356364 0.589709
O O1 0.500000 0.073218 0.897284
O O2 0.422699 0.047577 0.772315
O O3 0.435817 0.927730 0.905394
O O4 0.394901 0.103471 0.936370
O O5 0.750000 0.500000 0.909068
O O6 0.835346 0.381016 0.905476
O O7 0.740035 0.351363 0.817271
O O8 0.750000 0.343289 0.000000
O O9 0.592117 0.250000 0.049166
O O10 0.259207 0.250000 0.666434
O O11 0.203424 0.097010 0.672093
O O12 0.314262 0.100659 0.660549
O O13 0.500000 0.514589 0.657042
O O14 0.595347 0.591592 0.655823
O O15 0.584728 0.417284 0.600242
O O16 0.641707 0.250000 0.349411
O O17 0.661272 0.367888 0.486413
O O18 0.624967 0.250000 0.613059
#
# Coordination Sequence:
#
# PCOD8281176 Si02
#       7
#    16  16  16  16  16  16  16
#     4  10  23  42  63  91 127 168 217 274 327 380
#     4  11  24  38  57  89 130 169 203 251 311 379
#     4  11  23  40  65  92 124 168 218 268 318 377
#     4  10  22  39  63  94 127 164 212 265 321 387
#     4  11  25  42  63  93 129 170 217 267 325 391
#     4  10  22  42  66  95 128 163 212 271 331 392
#     4  10  23  41  65  93 126 170 214 268 329 388
#
# _framework density 22.160025000000001
#
# number of rings (size 3 to 8) (size 9 to 14) (size 15 to 20)
#    0.000    1.571    0.000    4.714    6.000    8.000 
#    0.000    5.714    0.000    0.000    0.000    0.000 
#    0.000    0.000    0.000    0.000    0.000    0.000 
#
# Total GULP energy -694163.817409 kJ/mol
# GULP energy per Si atom -12395.782454 kJ/mol
# Density = 2.210959 g / cm^3
# Si number density = 22.160025 Si / 1000 Ang^3
#
#
#
# Elastic Constant Matrix: (Units=GPa)
#
#
# Indices 1 2 3 4 5 6 
#
# 1 89.7531 9.5239 21.0715 0.0000 0.0000 0.0000
# 2 9.5239 85.5597 -13.4160 0.0000 0.0000 0.0000
# 3 21.0715 -13.4160 87.8920 0.0000 0.0000 0.0000
# 4 0.0000 0.0000 0.0000 24.1516 0.0000 0.0000
# 5 0.0000 0.0000 0.0000 0.0000 37.8830 0.0000
# 6 0.0000 0.0000 0.0000 0.0000 0.0000 24.7872
#
#
#
# Elastic Compliance Matrix: (Units=1/GPa)
#
#
# Indices 1 2 3 4 5 6 
#
# 1 0.012083 -0.001843 -0.003178 0.000000 0.000000 0.000000
# 2 -0.001843 0.012256 0.002313 0.000000 0.000000 0.000000
# 3 -0.003178 0.002313 0.012493 0.000000 0.000000 0.000000
# 4 0.000000 0.000000 0.000000 0.041405 0.000000 0.000000
# 5 0.000000 0.000000 0.000000 0.000000 0.026397 0.000000
# 6 0.000000 0.000000 0.000000 0.000000 0.000000 0.040343
#
#
# Mechanical properties :
#
#
# Convention : Reuss Voigt Hill
#
# Bulk Modulus (GPa) = 31.83346 33.06262 32.44804
# Shear Modulus (GPa) = 31.08168 33.76605 32.42387
#
# Velocity S-wave (km/s) = 3.74919 3.90774 3.82929
# Velocity P-wave (km/s) = 5.75660 5.94247 5.85027
#
# Compressibility (1/GPa) = 0.03141349
#
# Stress axis : x y z
#
# Youngs Moduli (GPa) = 82.75773 81.59560 80.04744
#
# Poissons Ratio (x) = 0.15041 0.25442
# Poissons Ratio (y) = 0.15256 -0.18512
# Poissons Ratio (z) = 0.26303 -0.18870
#
# Static dielectric constant tensor:
#      x y z
#    x 3.916300 0.000000 0.000000 
#    y 0.000000 3.892540 0.000000 
#    z 0.000000 0.000000 4.288850 
# 
# 
# High freq. dielectric constant tensor:
#      x y z
#    x 1.865550 0.000000 0.000000 
#    y 0.000000 1.865810 0.000000 
#    z 0.000000 0.000000 1.883670 
# 
# From -- ./inp_files/30131.got.cif
#   From: 2010.03.12/outbox.cif.g09.slc.cpg/sg67_16_cif.got.tgz:30131.got - 2010.04.10 22:41:39.
