data_PCOD8281009
_publ_section_title
;
Structure prediction by ZEFSAII (Michael W. Deem and Ramdas Pophale) SiO2 
 PCOD8281009
Probable space group: C M M A
;
_chemical_formula_sum "Si O2"
_cell_formula_units_Z 100
_cell_length_a 9.182483
_cell_length_b 24.954670
_cell_length_c 19.697359
_cell_angle_alpha 90.000000
_cell_angle_beta 90.000000
_cell_angle_gamma 90.000000
_cell_volume 4513.567737
_symmetry_space_group_name_H-M "C M M A"
_symmetry_group_IT_number 67
_symmetry_cell_setting 'orthorhombic'
loop_
_space_group_symop_operation_xyz
x,y,z
-x,1/2-y,z
x,-y,-z
-x,1/2+y,-z
-x,-y,-z
x,1/2+y,-z
-x,y,z
x,1/2-y,z
1/2+x,1/2+y,z
1/2-x,-y,z
1/2+x,1/2-y,-z
1/2-x,y,-z
1/2-x,1/2-y,-z
1/2+x,y,-z
1/2-x,1/2+y,z
1/2+x,-y,z
loop_
_atom_site_type_symbol
_atom_site_label
_atom_site_fract_x
_atom_site_fract_y
_atom_site_fract_z
Si Si1 0.668912 0.192100 0.430442
Si Si2 0.250000 0.000000 0.500000
Si Si3 0.675155 0.340934 0.066644
Si Si4 0.164430 0.083667 0.258858
Si Si5 0.829884 0.052304 0.107067
Si Si6 0.666677 0.691391 0.195832
Si Si7 0.662606 0.421566 0.384028
O O1 0.500000 0.181860 0.445755
O O2 0.690127 0.250000 0.390995
O O3 0.750000 0.198346 0.500000
O O4 0.730743 0.138123 0.395342
O O5 0.338245 0.039754 0.450175
O O6 0.500000 0.341176 0.061319
O O7 0.741000 0.400104 0.073090
O O8 0.726199 0.306945 0.131436
O O9 0.750000 0.314792 0.000000
O O10 0.187317 0.052968 0.188452
O O11 0.216208 0.145806 0.248865
O O12 0.251938 0.054579 0.319416
O O13 0.000000 0.081468 0.283630
O O14 0.000000 0.054141 0.085904
O O15 0.750000 0.000000 0.078740
O O16 0.500000 0.677833 0.172000
O O17 0.673950 0.750000 0.230721
O O18 0.500000 0.415509 0.358544
#
# Coordination Sequence:
#
# PCOD8281009 Si02
#       7
#    16   4  16  16  16  16  16
#     4   9  18  35  57  80 106 138 179 230 287 346
#     4  12  26  44  58  86 118 168 202 252 298 368
#     4  11  22  37  58  87 124 165 208 254 304 360
#     4   9  21  39  60  87 118 152 192 242 298 359
#     4  10  21  39  60  85 116 154 201 255 309 363
#     4   9  19  39  64  90 123 161 202 250 302 360
#     4  11  24  40  60  86 117 154 198 248 303 365
#
# _framework density 22.155422999999999
#
# number of rings (size 3 to 8) (size 9 to 14) (size 15 to 20)
#    0.000    2.080    0.800    3.120    1.120    6.720 
#    0.000    1.600    0.000    0.000    0.000    0.000 
#    0.000    0.000    0.000    0.000    0.000    0.000 
#
# Total GULP energy -619480.576127 kJ/mol
# GULP energy per Si atom -12389.611523 kJ/mol
# Density = 2.210500 g / cm^3
# Si number density = 22.155423 Si / 1000 Ang^3
#
#
#
# Elastic Constant Matrix: (Units=GPa)
#
#
# Indices 1 2 3 4 5 6 
#
# 1 107.7008 16.7392 36.0074 0.0000 0.0000 0.0000
# 2 16.7392 95.5846 -4.0836 0.0000 0.0000 0.0000
# 3 36.0074 -4.0836 85.6029 0.0000 0.0000 0.0000
# 4 0.0000 0.0000 0.0000 -2.0049 0.0000 0.0000
# 5 0.0000 0.0000 0.0000 0.0000 30.7310 0.0000
# 6 0.0000 0.0000 0.0000 0.0000 0.0000 21.2177
#
#
#
# Elastic Compliance Matrix: (Units=1/GPa)
#
#
# Indices 1 2 3 4 5 6 
#
# 1 0.011238 -0.002174 -0.004831 0.000000 0.000000 0.000000
# 2 -0.002174 0.010904 0.001435 0.000000 0.000000 0.000000
# 3 -0.004831 0.001435 0.013782 0.000000 0.000000 0.000000
# 4 0.000000 0.000000 0.000000 -0.498778 0.000000 0.000000
# 5 0.000000 0.000000 0.000000 0.000000 0.032540 0.000000
# 6 0.000000 0.000000 0.000000 0.000000 0.000000 0.047131
#
#
# Mechanical properties :
#
#
# Convention : Reuss Voigt Hill
#
# Bulk Modulus (GPa) = 40.34948 42.91268 41.63108
# Shear Modulus (GPa) = -13.74456 26.00377 6.12960
#
# Velocity S-wave (km/s) = -2.49343 3.42964 1.66513
# Velocity P-wave (km/s) = 3.15626 5.92404 4.74638
#
# Compressibility (1/GPa) = 0.02478347
#
# Stress axis : x y z
#
# Youngs Moduli (GPa) = 88.98366 91.70921 72.55687
#
# Poissons Ratio (x) = 0.19942 0.35051
# Poissons Ratio (y) = 0.19349 -0.10410
# Poissons Ratio (z) = 0.42986 -0.13158
#
# Static dielectric constant tensor:
#      x y z
#    x 4.023380 0.000000 0.000000 
#    y 0.000000 4.390700 0.000000 
#    z 0.000000 0.000000 3.749470 
# 
# 
# High freq. dielectric constant tensor:
#      x y z
#    x 1.862560 0.000000 0.000000 
#    y 0.000000 1.888680 0.000000 
#    z 0.000000 0.000000 1.853790 
# 
# From -- ./inp_files/37350.got.cif
#   From: 2010.03.12/outbox.cif.g09.slc.cpg/sg67_19_cif.got.tgz:37350.got - 2010.04.10 22:41:39.
