data_PCOD8281365
_publ_section_title
;
Structure prediction by ZEFSAII (Michael W. Deem and Ramdas Pophale) SiO2 
 PCOD8281365
Probable space group: C M M A
;
_chemical_formula_sum "Si O2"
_cell_formula_units_Z 96
_cell_length_a 21.610358
_cell_length_b 17.189248
_cell_length_c 12.211199
_cell_angle_alpha 90.000000
_cell_angle_beta 90.000000
_cell_angle_gamma 90.000000
_cell_volume 4536.042843
_symmetry_space_group_name_H-M "C M M A"
_symmetry_group_IT_number 67
_symmetry_cell_setting 'orthorhombic'
loop_
_space_group_symop_operation_xyz
x,y,z
-x,1/2-y,z
x,-y,-z
-x,1/2+y,-z
-x,-y,-z
x,1/2+y,-z
-x,y,z
x,1/2-y,z
1/2+x,1/2+y,z
1/2-x,-y,z
1/2+x,1/2-y,-z
1/2-x,y,-z
1/2-x,1/2-y,-z
1/2+x,y,-z
1/2-x,1/2+y,z
1/2+x,-y,z
loop_
_atom_site_type_symbol
_atom_site_label
_atom_site_fract_x
_atom_site_fract_y
_atom_site_fract_z
Si Si1 0.432802 0.659108 0.615450
Si Si2 0.653179 0.660609 0.229452
Si Si3 0.609149 0.661578 0.851828
Si Si4 0.680734 0.342096 0.524693
Si Si5 0.263535 0.585520 0.872727
Si Si6 0.930270 0.921008 0.945140
O O1 0.500000 0.625765 0.574168
O O2 0.431398 0.750000 0.588789
O O3 0.431773 0.644146 0.745481
O O4 0.371769 0.622331 0.557335
O O5 0.631576 0.750000 0.215966
O O6 0.655318 0.635213 0.355823
O O7 0.722383 0.651289 0.184870
O O8 0.608393 0.603496 0.161562
O O9 0.632688 0.750000 0.853600
O O10 0.666321 0.603815 0.847222
O O11 0.570479 0.645810 0.962284
O O12 0.685631 0.250000 0.510755
O O13 0.750000 0.376865 0.500000
O O14 0.250000 0.500000 0.824733
O O15 0.250000 0.589196 0.000000
O O16 0.000000 0.935477 0.904672
O O17 0.902737 0.000000 0.000000
#
# Coordination Sequence:
#
# PCOD8281365 Si02
#       6
#    16  16  16  16  16  16
#     4   9  18  33  55  85 119 156 197 245 304 360
#     4  11  22  36  60  91 117 148 197 248 295 349
#     4  11  21  35  60  88 115 148 197 253 293 344
#     4   9  18  34  56  85 121 156 194 249 314 369
#     4  11  22  36  56  82 117 156 190 227 290 362
#     4  11  24  40  56  79 119 164 197 235 297 364
#
# _framework density 21.163822
#
# number of rings (size 3 to 8) (size 9 to 14) (size 15 to 20)
#    0.000    1.667    1.667    3.500    0.000    6.000 
#    0.000    1.667    0.000    9.500    0.000    7.000 
#    0.000    0.000    0.000    0.000    0.000    0.000 
#
# Total GULP energy -595022.643558 kJ/mol
# GULP energy per Si atom -12396.305074 kJ/mol
# Density = 2.111565 g / cm^3
# Si number density = 21.163822 Si / 1000 Ang^3
#
#
#
# Elastic Constant Matrix: (Units=GPa)
#
#
# Indices 1 2 3 4 5 6 
#
# 1 149.3115 26.0198 50.7656 0.0000 0.0000 0.0000
# 2 26.0198 67.5720 28.9951 0.0000 0.0000 0.0000
# 3 50.7656 28.9951 121.4977 0.0000 0.0000 0.0000
# 4 0.0000 0.0000 0.0000 13.7556 0.0000 0.0000
# 5 0.0000 0.0000 0.0000 0.0000 21.2319 0.0000
# 6 0.0000 0.0000 0.0000 0.0000 0.0000 28.6151
#
#
#
# Elastic Compliance Matrix: (Units=1/GPa)
#
#
# Indices 1 2 3 4 5 6 
#
# 1 0.008006 -0.001835 -0.002907 0.000000 0.000000 0.000000
# 2 -0.001835 0.016908 -0.003268 0.000000 0.000000 0.000000
# 3 -0.002907 -0.003268 0.010225 0.000000 0.000000 0.000000
# 4 0.000000 0.000000 0.000000 0.072698 0.000000 0.000000
# 5 0.000000 0.000000 0.000000 0.000000 0.047099 0.000000
# 6 0.000000 0.000000 0.000000 0.000000 0.000000 0.034947
#
#
# Mechanical properties :
#
#
# Convention : Reuss Voigt Hill
#
# Bulk Modulus (GPa) = 52.30709 61.10469 56.70589
# Shear Modulus (GPa) = 23.55426 28.22724 25.89075
#
# Velocity S-wave (km/s) = 3.33971 3.65602 3.50144
# Velocity P-wave (km/s) = 6.29607 6.83790 6.57257
#
# Compressibility (1/GPa) = 0.01911787
#
# Stress axis : x y z
#
# Youngs Moduli (GPa) = 124.91237 59.14305 97.79759
#
# Poissons Ratio (x) = 0.10855 0.28430
# Poissons Ratio (y) = 0.22925 0.31963
# Poissons Ratio (z) = 0.36312 0.19329
#
# Static dielectric constant tensor:
#      x y z
#    x 3.990520 0.000000 0.000000 
#    y 0.000000 3.616040 0.000000 
#    z 0.000000 0.000000 3.862880 
# 
# 
# High freq. dielectric constant tensor:
#      x y z
#    x 1.841550 0.000000 0.000000 
#    y 0.000000 1.795580 0.000000 
#    z 0.000000 0.000000 1.825930 
# 
# From -- ./inp_files/21960.got.cif
#   From: 2010.03.12/outbox.cif.g09.slc.cpg/sg67_11_cif.got.tgz:21960.got - 2010.04.10 22:41:39.
