data_PCOD8281681
_publ_section_title
;
Structure prediction by ZEFSAII (Michael W. Deem and Ramdas Pophale) SiO2 
 PCOD8281681
Probable space group: C C C A
;
_chemical_formula_sum "Si O2"
_cell_formula_units_Z 80
_cell_length_a 18.033411
_cell_length_b 14.089409
_cell_length_c 17.390150
_cell_angle_alpha 90.000000
_cell_angle_beta 90.000000
_cell_angle_gamma 90.000000
_cell_volume 4418.491107
_symmetry_space_group_name_H-M "C C C A"
_symmetry_group_IT_number 68
_space_group.IT_coordinate_system_code '2'
_symmetry_cell_setting 'orthorhombic'
loop_
_space_group_symop_operation_xyz
x,y,z
-x,1/2-y,z
x,1/2-y,1/2-z
-x,y,1/2-z
-x,-y,-z
x,1/2+y,-z
-x,1/2+y,1/2+z
x,-y,1/2+z
1/2+x,1/2+y,z
1/2-x,-y,z
1/2+x,-y,1/2-z
1/2-x,1/2+y,1/2-z
1/2-x,1/2-y,-z
1/2+x,y,-z
1/2-x,y,1/2+z
1/2+x,1/2-y,1/2+z
loop_
_atom_site_type_symbol
_atom_site_label
_atom_site_fract_x
_atom_site_fract_y
_atom_site_fract_z
Si Si1 0.437470 0.650270 0.795514
Si Si2 0.725542 0.139329 0.265890
Si Si3 0.250000 0.500000 0.392015
Si Si4 0.750000 0.500000 0.862712
Si Si5 0.123027 0.497988 0.516442
Si Si6 0.992594 0.854534 0.469909
O O1 0.432513 0.750000 0.750000
O O2 0.500000 0.588518 0.750000
O O3 0.357773 0.604088 0.785100
O O4 0.462259 0.657865 0.883451
O O5 0.737266 0.250000 0.250000
O O6 0.766250 0.094607 0.340340
O O7 0.754556 0.093926 0.187977
O O8 0.175129 0.505232 0.441832
O O9 0.825198 0.499364 0.910033
O O10 0.073333 0.402982 0.522044
O O11 0.067782 0.587461 0.518698
O O12 0.000000 0.750000 0.506434
#
# Coordination Sequence:
#
# PCOD8281681 Si02
#       6
#    16  16   8   8  16  16
#     4  10  17  29  54  83 105 132 185 234 269 313
#     4  10  21  35  58  84 110 146 193 230 279 329
#     4  10  20  40  56  82 118 148 182 236 278 342
#     4  10  22  38  56  84 118 146 184 234 278 344
#     4  10  23  37  56  84 117 150 184 225 293 337
#     4  11  21  37  57  84 113 148 189 231 276 336
#
# _framework density 18.105730000000001
#
# number of rings (size 3 to 8) (size 9 to 14) (size 15 to 20)
#    0.000    1.800    4.000    1.200    2.800    1.600 
#    0.000    4.000    0.000    0.000    0.000    5.600 
#    0.000    0.000    0.000    0.000    0.000    0.000 
#
# Total GULP energy -495523.024437 kJ/mol
# GULP energy per Si atom -12388.075611 kJ/mol
# Density = 1.806452 g / cm^3
# Si number density = 18.105730 Si / 1000 Ang^3
#
#
#
# Elastic Constant Matrix: (Units=GPa)
#
#
# Indices 1 2 3 4 5 6 
#
# 1 109.6529 52.0960 35.4578 0.0000 0.0000 0.0000
# 2 52.0960 138.0588 48.3477 0.0000 0.0000 0.0000
# 3 35.4578 48.3477 92.2692 0.0000 0.0000 0.0000
# 4 0.0000 0.0000 0.0000 16.6505 0.0000 0.0000
# 5 0.0000 0.0000 0.0000 0.0000 5.4660 0.0000
# 6 0.0000 0.0000 0.0000 0.0000 0.0000 18.8191
#
#
#
# Elastic Compliance Matrix: (Units=1/GPa)
#
#
# Indices 1 2 3 4 5 6 
#
# 1 0.011620 -0.003455 -0.002655 0.000000 0.000000 0.000000
# 2 -0.003455 0.009898 -0.003859 0.000000 0.000000 0.000000
# 3 -0.002655 -0.003859 0.013880 0.000000 0.000000 0.000000
# 4 0.000000 0.000000 0.000000 0.060058 0.000000 0.000000
# 5 0.000000 0.000000 0.000000 0.000000 0.182951 0.000000
# 6 0.000000 0.000000 0.000000 0.000000 0.000000 0.053138
#
#
# Mechanical properties :
#
#
# Convention : Reuss Voigt Hill
#
# Bulk Modulus (GPa) = 64.68056 67.97597 66.32827
# Shear Modulus (GPa) = 14.01992 21.79241 17.90617
#
# Velocity S-wave (km/s) = 2.78571 3.47309 3.14821
# Velocity P-wave (km/s) = 6.79325 7.32861 7.06600
#
# Compressibility (1/GPa) = 0.01546060
#
# Stress axis : x y z
#
# Youngs Moduli (GPa) = 86.06149 101.02688 72.04538
#
# Poissons Ratio (x) = 0.34903 0.19128
# Poissons Ratio (y) = 0.29733 0.27802
# Poissons Ratio (z) = 0.22849 0.38986
#
# Static dielectric constant tensor:
#      x y z
#    x 4.433330 0.000000 0.000000 
#    y 0.000000 3.392480 0.000000 
#    z 0.000000 0.000000 3.360820 
# 
# 
# High freq. dielectric constant tensor:
#      x y z
#    x 1.716440 0.000000 0.000000 
#    y 0.000000 1.684800 0.000000 
#    z 0.000000 0.000000 1.704330 
# 
# From -- ./inp_files/31798.got.cif
#   From: 2010.03.12/outbox.cif.g09.slc.cpg/sg68_16_cif.got.tgz:31798.got - 2010.04.10 23:14:56.
