data_PCOD8281406
_publ_section_title
;
Structure prediction by ZEFSAII (Michael W. Deem and Ramdas Pophale) SiO2 
 PCOD8281406
Probable space group: C M M A
;
_chemical_formula_sum "Si O2"
_cell_formula_units_Z 80
_cell_length_a 20.026234
_cell_length_b 7.990477
_cell_length_c 29.003753
_cell_angle_alpha 90.000000
_cell_angle_beta 90.000000
_cell_angle_gamma 90.000000
_cell_volume 4641.156255
_symmetry_space_group_name_H-M "C M M A"
_symmetry_group_IT_number 67
_symmetry_cell_setting 'orthorhombic'
loop_
_space_group_symop_operation_xyz
x,y,z
-x,1/2-y,z
x,-y,-z
-x,1/2+y,-z
-x,-y,-z
x,1/2+y,-z
-x,y,z
x,1/2-y,z
1/2+x,1/2+y,z
1/2-x,-y,z
1/2+x,1/2-y,-z
1/2-x,y,-z
1/2-x,1/2-y,-z
1/2+x,y,-z
1/2-x,1/2+y,z
1/2+x,-y,z
loop_
_atom_site_type_symbol
_atom_site_label
_atom_site_fract_x
_atom_site_fract_y
_atom_site_fract_z
Si Si1 0.420570 0.060220 0.549843
Si Si2 0.074951 0.944900 0.876306
Si Si3 0.420295 0.750000 0.714625
Si Si4 0.420589 0.564078 0.227555
Si Si5 0.821989 0.938453 0.049565
Si Si6 0.079529 0.250000 0.610233
O O1 0.500000 0.063774 0.550452
O O2 0.394154 0.250000 0.560795
O O3 0.394749 0.000000 0.500000
O O4 0.393863 0.921340 0.586218
O O5 0.074991 0.750000 0.887361
O O6 0.101649 0.978245 0.824565
O O7 0.000000 0.017365 0.881928
O O8 0.122894 0.034799 0.911767
O O9 0.500000 0.750000 0.716511
O O10 0.392283 0.581617 0.739170
O O11 0.393874 0.750000 0.662419
O O12 0.500000 0.568393 0.229555
O O13 0.393896 0.750000 0.242222
O O14 0.809409 0.750000 0.040752
O O15 0.750000 0.000000 0.066423
O O16 0.847260 0.000000 0.000000
O O17 0.000000 0.250000 0.608126
#
# Coordination Sequence:
#
# PCOD8281406 Si02
#       6
#    16  16   8  16  16   8
#     4   9  14  20  29  38  53  79 115 159 205 253
#     4   9  18  33  52  73  95 120 155 194 231 278
#     4   9  16  24  36  52  76  99 129 171 214 273
#     4   8  15  27  42  59  81 107 134 174 222 265
#     4  11  22  36  53  71  97 128 155 187 232 283
#     4   9  16  22  28  44  62  86 119 159 211 258
#
# _framework density 17.237083999999999
#
# number of rings (size 3 to 8) (size 9 to 14) (size 15 to 20)
#    0.000    2.800    1.000    3.600    1.400    1.600 
#    0.000    4.000    0.000    0.000    0.000    0.000 
#    0.000    0.000    0.000    0.000    0.000    0.000 
#
# Total GULP energy -495612.722427 kJ/mol
# GULP energy per Si atom -12390.318061 kJ/mol
# Density = 1.719785 g / cm^3
# Si number density = 17.237084 Si / 1000 Ang^3
#
#
#
# Elastic Constant Matrix: (Units=GPa)
#
#
# Indices 1 2 3 4 5 6 
#
# 1 25.1120 19.5826 24.1455 0.0000 0.0000 0.0000
# 2 19.5826 158.6057 78.0455 0.0000 0.0000 0.0000
# 3 24.1455 78.0455 124.7957 0.0000 0.0000 0.0000
# 4 0.0000 0.0000 0.0000 31.7497 0.0000 0.0000
# 5 0.0000 0.0000 0.0000 0.0000 -2.1905 0.0000
# 6 0.0000 0.0000 0.0000 0.0000 0.0000 8.1932
#
#
#
# Elastic Compliance Matrix: (Units=1/GPa)
#
#
# Indices 1 2 3 4 5 6 
#
# 1 0.049365 -0.002015 -0.008291 0.000000 0.000000 0.000000
# 2 -0.002015 0.009190 -0.005357 0.000000 0.000000 0.000000
# 3 -0.008291 -0.005357 0.012968 0.000000 0.000000 0.000000
# 4 0.000000 0.000000 0.000000 0.031496 0.000000 0.000000
# 5 0.000000 0.000000 0.000000 0.000000 -0.456524 0.000000
# 6 0.000000 0.000000 0.000000 0.000000 0.000000 0.122053
#
#
# Mechanical properties :
#
#
# Convention : Reuss Voigt Hill
#
# Bulk Modulus (GPa) = 24.87835 61.34009 43.10922
# Shear Modulus (GPa) = -26.77698 19.99980 -3.38859
#
# Velocity S-wave (km/s) = -3.94566 3.40998 -1.40362
# Velocity P-wave (km/s) = 2.50864 7.15313 4.73677
#
# Compressibility (1/GPa) = 0.04019559
#
# Stress axis : x y z
#
# Youngs Moduli (GPa) = 20.25731 108.81416 77.11507
#
# Poissons Ratio (x) = 0.21929 0.63935
# Poissons Ratio (y) = 0.04082 0.41313
# Poissons Ratio (z) = 0.16795 0.58296
#
# Static dielectric constant tensor:
#      x y z
#    x 2.684890 0.000000 0.000000 
#    y 0.000000 3.643290 0.000000 
#    z 0.000000 0.000000 3.399610 
# 
# 
# High freq. dielectric constant tensor:
#      x y z
#    x 1.581900 0.000000 0.000000 
#    y 0.000000 1.688450 0.000000 
#    z 0.000000 0.000000 1.666730 
# 
# From -- ./inp_files/42312.got.cif
#   From: 2010.03.12/outbox.cif.g09.slc.cpg/sg67_22_cif.got.tgz:42312.got - 2010.04.10 22:41:39.
