data_PCOD8281326
_publ_section_title
;
Structure prediction by ZEFSAII (Michael W. Deem and Ramdas Pophale) SiO2 
 PCOD8281326
Probable space group: C M M A
;
_chemical_formula_sum "Si O2"
_cell_formula_units_Z 112
_cell_length_a 22.820339
_cell_length_b 22.298760
_cell_length_c 12.458656
_cell_angle_alpha 90.000000
_cell_angle_beta 90.000000
_cell_angle_gamma 90.000000
_cell_volume 6339.777256
_symmetry_space_group_name_H-M "C M M A"
_symmetry_group_IT_number 67
_symmetry_cell_setting 'orthorhombic'
loop_
_space_group_symop_operation_xyz
x,y,z
-x,1/2-y,z
x,-y,-z
-x,1/2+y,-z
-x,-y,-z
x,1/2+y,-z
-x,y,z
x,1/2-y,z
1/2+x,1/2+y,z
1/2-x,-y,z
1/2+x,1/2-y,-z
1/2-x,y,-z
1/2-x,1/2-y,-z
1/2+x,y,-z
1/2-x,1/2+y,z
1/2+x,-y,z
loop_
_atom_site_type_symbol
_atom_site_label
_atom_site_fract_x
_atom_site_fract_y
_atom_site_fract_z
Si Si1 0.750680 0.681546 0.879483
Si Si2 0.067202 0.819017 0.618757
Si Si3 0.867945 0.369551 0.189595
Si Si4 0.932435 0.319617 0.996239
Si Si5 0.318414 0.503314 0.126941
Si Si6 0.432074 0.681296 0.627934
Si Si7 0.639812 0.879124 0.806686
O O1 0.730564 0.750000 0.884822
O O2 0.814767 0.676250 0.829573
O O3 0.705731 0.646039 0.804511
O O4 0.750000 0.653283 0.000000
O O5 0.075737 0.750000 0.653486
O O6 0.108245 0.861555 0.690045
O O7 0.085572 0.827861 0.495483
O O8 0.000000 0.838043 0.635142
O O9 0.845986 0.436671 0.173987
O O10 0.920088 0.352796 0.108184
O O11 0.915361 0.250000 0.005859
O O12 0.894019 0.349634 0.905028
O O13 0.000000 0.327903 0.965825
O O14 0.250000 0.500000 0.158015
O O15 0.355951 0.450471 0.181334
O O16 0.326730 0.500000 0.000000
O O17 0.500000 0.665590 0.646711
O O18 0.420306 0.750000 0.663410
O O19 0.392441 0.636275 0.696171
#
# Coordination Sequence:
#
# PCOD8281326 Si02
#       7
#    16  16  16  16  16  16  16
#     4  11  20  31  52  84 115 143 184 238 293 349
#     4   9  19  38  63  88 116 151 189 235 292 346
#     4  12  21  36  57  83 114 151 196 233 283 341
#     4  11  22  34  53  84 118 146 178 235 302 351
#     4  11  22  40  57  78 113 163 200 232 277 336
#     4   9  19  38  63  88 116 151 189 235 292 346
#     4  12  21  36  57  83 114 151 196 233 283 341
#
# _framework density 17.666236999999999
#
# number of rings (size 3 to 8) (size 9 to 14) (size 15 to 20)
#    0.000    1.286    4.286    4.286    0.000    2.286 
#    0.000    5.000    0.000    5.143    0.000    0.000 
#    0.000    0.000    0.000    0.000    0.000    0.000 
#
# Total GULP energy -694631.502008 kJ/mol
# GULP energy per Si atom -12404.133964 kJ/mol
# Density = 1.762603 g / cm^3
# Si number density = 17.666237 Si / 1000 Ang^3
#
#
#
# Elastic Constant Matrix: (Units=GPa)
#
#
# Indices 1 2 3 4 5 6 
#
# 1 79.7709 41.4621 44.6774 0.0000 0.0000 0.0000
# 2 41.4621 111.1438 43.8888 0.0000 0.0000 0.0000
# 3 44.6774 43.8888 97.0607 0.0000 0.0000 0.0000
# 4 0.0000 0.0000 0.0000 26.1985 0.0000 0.0000
# 5 0.0000 0.0000 0.0000 0.0000 31.8485 0.0000
# 6 0.0000 0.0000 0.0000 0.0000 0.0000 22.1132
#
#
#
# Elastic Compliance Matrix: (Units=1/GPa)
#
#
# Indices 1 2 3 4 5 6 
#
# 1 0.018431 -0.004292 -0.006543 0.000000 0.000000 0.000000
# 2 -0.004292 0.011953 -0.003429 0.000000 0.000000 0.000000
# 3 -0.006543 -0.003429 0.014865 0.000000 0.000000 0.000000
# 4 0.000000 0.000000 0.000000 0.038170 0.000000 0.000000
# 5 0.000000 0.000000 0.000000 0.000000 0.031399 0.000000
# 6 0.000000 0.000000 0.000000 0.000000 0.000000 0.045222
#
#
# Mechanical properties :
#
#
# Convention : Reuss Voigt Hill
#
# Bulk Modulus (GPa) = 59.80667 60.89243 60.34955
# Shear Modulus (GPa) = 25.75429 26.56183 26.15806
#
# Velocity S-wave (km/s) = 3.82229 3.88175 3.85214
# Velocity P-wave (km/s) = 7.30801 7.39146 7.34986
#
# Compressibility (1/GPa) = 0.01672054
#
# Stress axis : x y z
#
# Youngs Moduli (GPa) = 54.25504 83.66409 67.27070
#
# Poissons Ratio (x) = 0.35909 0.44017
# Poissons Ratio (y) = 0.23286 0.23068
# Poissons Ratio (z) = 0.35501 0.28689
#
# Static dielectric constant tensor:
#      x y z
#    x 3.366400 0.000000 0.000000 
#    y 0.000000 3.244840 0.000000 
#    z 0.000000 0.000000 3.179320 
# 
# 
# High freq. dielectric constant tensor:
#      x y z
#    x 1.690270 0.000000 0.000000 
#    y 0.000000 1.676670 0.000000 
#    z 0.000000 0.000000 1.668740 
# 
# From -- ./inp_files/21066.got.cif
#   From: 2010.03.12/outbox.cif.g09.slc.cpg/sg67_11_cif.got.tgz:21066.got - 2010.04.10 22:41:39.
