data_PCOD8281803
_publ_section_title
;
Structure prediction by ZEFSAII (Michael W. Deem and Ramdas Pophale) SiO2 
 PCOD8281803
Probable space group: C C C A
;
_chemical_formula_sum "Si O2"
_cell_formula_units_Z 80
_cell_length_a 12.907570
_cell_length_b 22.760622
_cell_length_c 13.863469
_cell_angle_alpha 90.000000
_cell_angle_beta 90.000000
_cell_angle_gamma 90.000000
_cell_volume 4072.869837
_symmetry_space_group_name_H-M "C C C A"
_symmetry_group_IT_number 68
_space_group.IT_coordinate_system_code '2'
_symmetry_cell_setting 'orthorhombic'
loop_
_space_group_symop_operation_xyz
x,y,z
-x,1/2-y,z
x,1/2-y,1/2-z
-x,y,1/2-z
-x,-y,-z
x,1/2+y,-z
-x,1/2+y,1/2+z
x,-y,1/2+z
1/2+x,1/2+y,z
1/2-x,-y,z
1/2+x,-y,1/2-z
1/2-x,1/2+y,1/2-z
1/2-x,1/2-y,-z
1/2+x,y,-z
1/2-x,y,1/2+z
1/2+x,1/2-y,1/2+z
loop_
_atom_site_type_symbol
_atom_site_label
_atom_site_fract_x
_atom_site_fract_y
_atom_site_fract_z
Si Si1 0.949251 0.338500 0.149395
Si Si2 0.856251 0.672300 0.981563
Si Si3 0.032770 0.972586 0.646515
Si Si4 0.745327 0.261148 0.141350
Si Si5 0.845871 0.038325 0.002521
O O1 0.920150 0.407135 0.155117
O O2 0.845328 0.302732 0.132643
O O3 0.000000 0.317610 0.250000
O O4 0.027257 0.325529 0.060583
O O5 0.775135 0.698361 0.904180
O O6 0.848843 0.709583 0.081042
O O7 0.817873 0.606624 0.003600
O O8 0.000000 0.997584 0.750000
O O9 0.932499 0.972521 0.581044
O O10 0.118626 0.015924 0.602856
O O11 0.707633 0.250000 0.250000
O O12 0.750000 0.000000 0.038410
#
# Coordination Sequence:
#
# PCOD8281803 Si02
#       5
#    16  16  16  16  16
#     4  10  18  35  63  85 107 151 195 235 279 329
#     4  10  22  35  57  89 115 145 193 236 280 334
#     4   9  20  36  57  86 113 144 195 231 272 342
#     4  11  21  36  59  87 116 148 191 238 278 335
#     4  10  20  38  57  81 117 151 183 231 287 333
#
# _framework density 19.642168999999999
#
# number of rings (size 3 to 8) (size 9 to 14) (size 15 to 20)
#    0.000    2.000    2.000    1.800    0.000    0.800 
#    3.600    0.000    0.000    1.200    0.000    0.000 
#    0.000    0.000    0.000    0.000    0.000    0.000 
#
# Total GULP energy -496062.198781 kJ/mol
# GULP energy per Si atom -12401.554970 kJ/mol
# Density = 1.959746 g / cm^3
# Si number density = 19.642169 Si / 1000 Ang^3
#
#
#
# Elastic Constant Matrix: (Units=GPa)
#
#
# Indices 1 2 3 4 5 6 
#
# 1 43.7033 29.8543 22.3984 0.0000 0.0000 0.0000
# 2 29.8543 115.1101 46.4962 0.0000 0.0000 0.0000
# 3 22.3984 46.4962 137.3141 0.0000 0.0000 0.0000
# 4 0.0000 0.0000 0.0000 27.2341 0.0000 0.0000
# 5 0.0000 0.0000 0.0000 0.0000 18.9005 0.0000
# 6 0.0000 0.0000 0.0000 0.0000 0.0000 15.3467
#
#
#
# Elastic Compliance Matrix: (Units=1/GPa)
#
#
# Indices 1 2 3 4 5 6 
#
# 1 0.028524 -0.006393 -0.002488 0.000000 0.000000 0.000000
# 2 -0.006393 0.011497 -0.002850 0.000000 0.000000 0.000000
# 3 -0.002488 -0.002850 0.008653 0.000000 0.000000 0.000000
# 4 0.000000 0.000000 0.000000 0.036719 0.000000 0.000000
# 5 0.000000 0.000000 0.000000 0.000000 0.052909 0.000000
# 6 0.000000 0.000000 0.000000 0.000000 0.000000 0.065160
#
#
# Mechanical properties :
#
#
# Convention : Reuss Voigt Hill
#
# Bulk Modulus (GPa) = 39.66378 54.84726 47.25552
# Shear Modulus (GPa) = 21.24699 25.45482 23.35091
#
# Velocity S-wave (km/s) = 3.29249 3.60380 3.45166
# Velocity P-wave (km/s) = 5.88991 6.73056 6.32422
#
# Compressibility (1/GPa) = 0.02521192
#
# Stress axis : x y z
#
# Youngs Moduli (GPa) = 35.05858 86.98259 115.56019
#
# Poissons Ratio (x) = 0.55606 0.28752
# Poissons Ratio (y) = 0.22412 0.32936
# Poissons Ratio (z) = 0.08723 0.24791
#
# Static dielectric constant tensor:
#      x y z
#    x 3.358820 0.000000 0.000000 
#    y 0.000000 3.841680 0.000000 
#    z 0.000000 0.000000 3.784510 
# 
# 
# High freq. dielectric constant tensor:
#      x y z
#    x 1.742600 0.000000 0.000000 
#    y 0.000000 1.776050 0.000000 
#    z 0.000000 0.000000 1.768530 
# 
# From -- ./inp_files/13411.got.cif
#   From: 2010.03.12/outbox.cif.g09.slc.cpg/sg68_7_cif.got.tgz:13411.got - 2010.04.10 23:14:56.
