data_PCOD8281534
_publ_section_title
;
Structure prediction by ZEFSAII (Michael W. Deem and Ramdas Pophale) SiO2 
 PCOD8281534
Probable space group: C M M A
;
_chemical_formula_sum "Si O2"
_cell_formula_units_Z 92
_cell_length_a 13.652062
_cell_length_b 13.948791
_cell_length_c 23.685639
_cell_angle_alpha 90.000000
_cell_angle_beta 90.000000
_cell_angle_gamma 90.000000
_cell_volume 4510.450540
_symmetry_space_group_name_H-M "C M M A"
_symmetry_group_IT_number 67
_symmetry_cell_setting 'orthorhombic'
loop_
_space_group_symop_operation_xyz
x,y,z
-x,1/2-y,z
x,-y,-z
-x,1/2+y,-z
-x,-y,-z
x,1/2+y,-z
-x,y,z
x,1/2-y,z
1/2+x,1/2+y,z
1/2-x,-y,z
1/2+x,1/2-y,-z
1/2-x,y,-z
1/2-x,1/2-y,-z
1/2+x,y,-z
1/2-x,1/2+y,z
1/2+x,-y,z
loop_
_atom_site_type_symbol
_atom_site_label
_atom_site_fract_x
_atom_site_fract_y
_atom_site_fract_z
Si Si1 0.500000 0.934835 0.446173
Si Si2 0.892960 0.137332 0.023065
Si Si3 0.886519 0.641988 0.748416
Si Si4 0.789996 0.750000 0.437427
Si Si5 0.250000 0.000000 0.182674
Si Si6 0.500000 0.750000 0.517695
Si Si7 0.294742 0.362712 0.089822
Si Si8 0.816777 0.913293 0.629121
O O1 0.500000 0.830249 0.470665
O O2 0.596494 0.954510 0.409497
O O3 0.500000 0.000000 0.500000
O O4 0.894778 0.250000 0.013247
O O5 0.818471 0.115401 0.073577
O O6 0.000000 0.096659 0.039080
O O7 0.859677 0.095866 0.962069
O O8 0.863281 0.750000 0.770847
O O9 0.823399 0.562398 0.780086
O O10 0.863164 0.640970 0.682146
O O11 0.000000 0.617516 0.758334
O O12 0.750000 0.750000 0.500000
O O13 0.907847 0.750000 0.440096
O O14 0.753438 0.843804 0.405750
O O15 0.315028 0.074147 0.145243
O O16 0.313526 0.250000 0.101890
O O17 0.750000 0.000000 0.651029
#
# Coordination Sequence:
#
# PCOD8281534 Si02
#       8
#     8  16  16   8   8   4  16  16
#     4  12  24  38  64  96 136 164 200 253 312 396
#     4   8  15  31  56  88 121 163 207 249 316 385
#     4  11  25  46  70  91 118 168 228 277 322 379
#     4  12  24  40  64  96 134 168 204 251 320 386
#     4  12  24  41  60  94 125 164 222 280 326 376
#     4  12  24  40  60 104 136 168 204 244 308 402
#     4   9  19  35  57  85 127 165 201 260 323 385
#     4  12  24  41  66  94 125 168 211 263 321 377
#
# _framework density 20.397075000000001
#
# number of rings (size 3 to 8) (size 9 to 14) (size 15 to 20)
#    0.000    1.391    4.348    2.609    0.000    2.783 
#    0.000    2.609    0.000    1.565    0.000    0.000 
#    0.000    0.000    0.000    0.000    0.000    0.000 
#
# Total GULP energy -570331.475474 kJ/mol
# GULP energy per Si atom -12398.510336 kJ/mol
# Density = 2.035065 g / cm^3
# Si number density = 20.397075 Si / 1000 Ang^3
#
#
#
# Elastic Constant Matrix: (Units=GPa)
#
#
# Indices 1 2 3 4 5 6 
#
# 1 137.0587 34.0527 34.1889 0.0000 0.0000 0.0000
# 2 34.0527 94.7753 40.3915 0.0000 0.0000 0.0000
# 3 34.1889 40.3915 100.1356 0.0000 0.0000 0.0000
# 4 0.0000 0.0000 0.0000 41.1085 0.0000 0.0000
# 5 0.0000 0.0000 0.0000 0.0000 22.9730 0.0000
# 6 0.0000 0.0000 0.0000 0.0000 0.0000 28.4376
#
#
#
# Elastic Compliance Matrix: (Units=1/GPa)
#
#
# Indices 1 2 3 4 5 6 
#
# 1 0.008323 -0.002149 -0.001975 0.000000 0.000000 0.000000
# 2 -0.002149 0.013296 -0.004630 0.000000 0.000000 0.000000
# 3 -0.001975 -0.004630 0.012528 0.000000 0.000000 0.000000
# 4 0.000000 0.000000 0.000000 0.024326 0.000000 0.000000
# 5 0.000000 0.000000 0.000000 0.000000 0.043529 0.000000
# 6 0.000000 0.000000 0.000000 0.000000 0.000000 0.035165
#
#
# Mechanical properties :
#
#
# Convention : Reuss Voigt Hill
#
# Bulk Modulus (GPa) = 60.09355 61.02619 60.55987
# Shear Modulus (GPa) = 31.20699 33.39293 32.29996
#
# Velocity S-wave (km/s) = 3.91573 4.05055 3.98371
# Velocity P-wave (km/s) = 7.06893 7.20139 7.13547
#
# Compressibility (1/GPa) = 0.01664072
#
# Stress axis : x y z
#
# Youngs Moduli (GPa) = 120.15468 75.20840 79.81989
#
# Poissons Ratio (x) = 0.16160 0.15763
# Poissons Ratio (y) = 0.25817 0.36954
# Poissons Ratio (z) = 0.23729 0.34819
#
# Static dielectric constant tensor:
#      x y z
#    x 4.057640 0.000000 0.000000 
#    y 0.000000 3.705960 0.000000 
#    z 0.000000 0.000000 3.604040 
# 
# 
# High freq. dielectric constant tensor:
#      x y z
#    x 1.795720 0.000000 0.000000 
#    y 0.000000 1.810260 0.000000 
#    z 0.000000 0.000000 1.790550 
# 
# From -- ./inp_files/38578.got.cif
#   From: 2010.03.12/outbox.cif.g09.slc.cpg/sg67_20_cif.got.tgz:38578.got - 2010.04.10 22:41:39.
