data_PCOD8281477
_publ_section_title
;
Structure prediction by ZEFSAII (Michael W. Deem and Ramdas Pophale) SiO2 
 PCOD8281477
Probable space group: C M M A
;
_chemical_formula_sum "Si O2"
_cell_formula_units_Z 80
_cell_length_a 18.365833
_cell_length_b 9.265939
_cell_length_c 25.758985
_cell_angle_alpha 90.000000
_cell_angle_beta 90.000000
_cell_angle_gamma 90.000000
_cell_volume 4383.578760
_symmetry_space_group_name_H-M "C M M A"
_symmetry_group_IT_number 67
_symmetry_cell_setting 'orthorhombic'
loop_
_space_group_symop_operation_xyz
x,y,z
-x,1/2-y,z
x,-y,-z
-x,1/2+y,-z
-x,-y,-z
x,1/2+y,-z
-x,y,z
x,1/2-y,z
1/2+x,1/2+y,z
1/2-x,-y,z
1/2+x,1/2-y,-z
1/2-x,y,-z
1/2-x,1/2-y,-z
1/2+x,y,-z
1/2-x,1/2+y,z
1/2+x,-y,z
loop_
_atom_site_type_symbol
_atom_site_label
_atom_site_fract_x
_atom_site_fract_y
_atom_site_fract_z
Si Si1 0.084667 0.581031 0.337306
Si Si2 0.086764 0.586878 0.049348
Si Si3 0.583901 0.916479 0.149371
Si Si4 0.913730 0.408475 0.546915
Si Si5 0.825847 0.920303 0.748751
O O1 0.103116 0.750000 0.329299
O O2 0.104737 0.530571 0.395894
O O3 0.131822 0.480754 0.300563
O O4 0.000000 0.553286 0.325645
O O5 0.116646 0.750000 0.047618
O O6 0.114609 0.511284 0.101896
O O7 0.000000 0.584510 0.047851
O O8 0.118184 0.500000 0.000000
O O9 0.500000 0.953153 0.160983
O O10 0.593435 0.750000 0.133756
O O11 0.628435 0.957638 0.200206
O O12 0.878749 0.500000 0.500000
O O13 0.879835 0.250000 0.541572
O O14 0.000000 0.400787 0.540727
O O15 0.814072 0.750000 0.741765
O O16 0.750000 0.000000 0.754274
#
# Coordination Sequence:
#
# PCOD8281477 Si02
#       5
#    16  16  16  16  16
#     4   9  18  33  53  77 105 135 168 208 252 299
#     4   9  16  26  44  72 103 132 161 196 241 291
#     4   9  18  33  52  74 100 129 164 206 248 294
#     4   8  14  25  43  70 102 132 161 197 243 293
#     4  11  23  37  53  73 100 135 173 213 258 305
#
# _framework density 18.249928000000001
#
# number of rings (size 3 to 8) (size 9 to 14) (size 15 to 20)
#    0.000    2.800    0.000    3.000    0.000    6.000 
#    0.000    4.000    0.000    1.200    0.000    8.400 
#    0.000    0.000    0.000    0.000    0.000    0.000 
#
# Total GULP energy -495894.220266 kJ/mol
# GULP energy per Si atom -12397.355507 kJ/mol
# Density = 1.820839 g / cm^3
# Si number density = 18.249928 Si / 1000 Ang^3
#
#
#
# Elastic Constant Matrix: (Units=GPa)
#
#
# Indices 1 2 3 4 5 6 
#
# 1 56.5202 45.0432 54.8745 0.0000 0.0000 0.0000
# 2 45.0432 115.4648 94.5710 0.0000 0.0000 0.0000
# 3 54.8745 94.5710 175.7348 0.0000 0.0000 0.0000
# 4 0.0000 0.0000 0.0000 39.6495 0.0000 0.0000
# 5 0.0000 0.0000 0.0000 0.0000 -3.1285 0.0000
# 6 0.0000 0.0000 0.0000 0.0000 0.0000 16.0643
#
#
#
# Elastic Compliance Matrix: (Units=1/GPa)
#
#
# Indices 1 2 3 4 5 6 
#
# 1 0.028044 -0.006737 -0.005131 0.000000 0.000000 0.000000
# 2 -0.006737 0.017105 -0.007101 0.000000 0.000000 0.000000
# 3 -0.005131 -0.007101 0.011114 0.000000 0.000000 0.000000
# 4 0.000000 0.000000 0.000000 0.025221 0.000000 0.000000
# 5 0.000000 0.000000 0.000000 0.000000 -0.319640 0.000000
# 6 0.000000 0.000000 0.000000 0.000000 0.000000 0.062250
#
#
# Mechanical properties :
#
#
# Convention : Reuss Voigt Hill
#
# Bulk Modulus (GPa) = 54.57463 81.85525 68.21494
# Shear Modulus (GPa) = -37.91941 20.73245 -8.59348
#
# Velocity S-wave (km/s) = -4.56322 3.37416 -2.17233
# Velocity P-wave (km/s) = 1.48493 7.75433 5.58277
#
# Compressibility (1/GPa) = 0.01832353
#
# Stress axis : x y z
#
# Youngs Moduli (GPa) = 35.65852 58.46178 89.97469
#
# Poissons Ratio (x) = 0.39387 0.46168
# Poissons Ratio (y) = 0.24024 0.63894
# Poissons Ratio (z) = 0.18297 0.41516
#
# Static dielectric constant tensor:
#      x y z
#    x 2.937830 0.000000 0.000000 
#    y 0.000000 3.546800 0.000000 
#    z 0.000000 0.000000 3.573230 
# 
# 
# High freq. dielectric constant tensor:
#      x y z
#    x 1.656810 0.000000 0.000000 
#    y 0.000000 1.711580 0.000000 
#    z 0.000000 0.000000 1.724980 
# 
# From -- ./inp_files/43265.got.cif
#   From: 2010.03.12/outbox.cif.g09.slc.cpg/sg67_22_cif.got.tgz:43265.got - 2010.04.10 22:41:39.
