data_PCOD8281833
_publ_section_title
;
Structure prediction by ZEFSAII (Michael W. Deem and Ramdas Pophale) SiO2 
 PCOD8281833
Probable space group: C C C A
;
_chemical_formula_sum "Si O2"
_cell_formula_units_Z 80
_cell_length_a 14.318361
_cell_length_b 22.384946
_cell_length_c 11.281440
_cell_angle_alpha 90.000000
_cell_angle_beta 90.000000
_cell_angle_gamma 90.000000
_cell_volume 3615.879065
_symmetry_space_group_name_H-M "C C C A"
_symmetry_group_IT_number 68
_space_group.IT_coordinate_system_code '2'
_symmetry_cell_setting 'orthorhombic'
loop_
_space_group_symop_operation_xyz
x,y,z
-x,1/2-y,z
x,1/2-y,1/2-z
-x,y,1/2-z
-x,-y,-z
x,1/2+y,-z
-x,1/2+y,1/2+z
x,-y,1/2+z
1/2+x,1/2+y,z
1/2-x,-y,z
1/2+x,-y,1/2-z
1/2-x,1/2+y,1/2-z
1/2-x,1/2-y,-z
1/2+x,y,-z
1/2-x,y,1/2+z
1/2+x,1/2-y,1/2+z
loop_
_atom_site_type_symbol
_atom_site_label
_atom_site_fract_x
_atom_site_fract_y
_atom_site_fract_z
Si Si1 0.642330 0.005850 0.207249
Si Si2 0.602924 0.877312 0.259939
Si Si3 0.603331 0.109180 0.029591
Si Si4 0.790723 0.318677 0.778463
Si Si5 0.428448 0.392522 0.348746
O O1 0.629149 0.045566 0.089127
O O2 0.593157 0.037816 0.320219
O O3 0.750000 0.000000 0.238165
O O4 0.599684 0.940071 0.188759
O O5 0.500000 0.847468 0.250000
O O6 0.634589 0.889535 0.394821
O O7 0.680951 0.833649 0.205265
O O8 0.656659 0.162110 0.100636
O O9 0.488457 0.115877 0.030792
O O10 0.804727 0.250000 0.750000
O O11 0.833487 0.354297 0.664310
O O12 0.500000 0.367435 0.250000
#
# Coordination Sequence:
#
# PCOD8281833 Si02
#       5
#    16  16  16  16  16
#     4  10  18  39  62  94 123 159 209 252 308 381
#     4  12  25  40  62  95 133 165 204 258 320 380
#     4  10  23  41  64  95 125 166 208 259 322 366
#     4  10  22  44  66  88 121 165 219 263 303 373
#     4   8  17  36  61  90 118 150 208 253 300 373
#
# _framework density 22.124634
#
# number of rings (size 3 to 8) (size 9 to 14) (size 15 to 20)
#    0.000    2.400    4.000    1.800    0.000   10.400 
#    0.000    2.000    0.000    0.000    0.000    0.000 
#    0.000    0.000    0.000    0.000    0.000    0.000 
#
# Total GULP energy -495619.509579 kJ/mol
# GULP energy per Si atom -12390.487739 kJ/mol
# Density = 2.207428 g / cm^3
# Si number density = 22.124634 Si / 1000 Ang^3
#
#
#
# Elastic Constant Matrix: (Units=GPa)
#
#
# Indices 1 2 3 4 5 6 
#
# 1 139.0663 17.0083 5.2414 0.0000 0.0000 0.0000
# 2 17.0083 96.0110 16.3033 0.0000 0.0000 0.0000
# 3 5.2414 16.3033 60.7613 0.0000 0.0000 0.0000
# 4 0.0000 0.0000 0.0000 8.9426 0.0000 0.0000
# 5 0.0000 0.0000 0.0000 0.0000 18.6441 0.0000
# 6 0.0000 0.0000 0.0000 0.0000 0.0000 21.5619
#
#
#
# Elastic Compliance Matrix: (Units=1/GPa)
#
#
# Indices 1 2 3 4 5 6 
#
# 1 0.007355 -0.001252 -0.000298 0.000000 0.000000 0.000000
# 2 -0.001252 0.011126 -0.002877 0.000000 0.000000 0.000000
# 3 -0.000298 -0.002877 0.017256 0.000000 0.000000 0.000000
# 4 0.000000 0.000000 0.000000 0.111825 0.000000 0.000000
# 5 0.000000 0.000000 0.000000 0.000000 0.053636 0.000000
# 6 0.000000 0.000000 0.000000 0.000000 0.000000 0.046378
#
#
# Mechanical properties :
#
#
# Convention : Reuss Voigt Hill
#
# Bulk Modulus (GPa) = 37.20142 41.43832 39.31987
# Shear Modulus (GPa) = 18.84005 26.98208 22.91106
#
# Velocity S-wave (km/s) = 2.92128 3.49599 3.22148
# Velocity P-wave (km/s) = 5.31315 5.92166 5.62564
#
# Compressibility (1/GPa) = 0.02688069
#
# Stress axis : x y z
#
# Youngs Moduli (GPa) = 135.95782 89.88037 57.95221
#
# Poissons Ratio (x) = 0.11256 0.01730
# Poissons Ratio (y) = 0.17026 0.16674
# Poissons Ratio (z) = 0.04058 0.25861
#
# Static dielectric constant tensor:
#      x y z
#    x 4.567100 0.000000 0.000000 
#    y 0.000000 3.690270 0.000000 
#    z 0.000000 0.000000 3.651710 
# 
# 
# High freq. dielectric constant tensor:
#      x y z
#    x 1.898270 0.000000 0.000000 
#    y 0.000000 1.838900 0.000000 
#    z 0.000000 0.000000 1.834400 
# 
# From -- ./inp_files/13212.got.cif
#   From: 2010.03.12/outbox.cif.g09.slc.cpg/sg68_7_cif.got.tgz:13212.got - 2010.04.10 23:14:56.
