data_PCOD8281638
_publ_section_title
;
Structure prediction by ZEFSAII (Michael W. Deem and Ramdas Pophale) SiO2 
 PCOD8281638
Probable space group: C C C A
;
_chemical_formula_sum "Si O2"
_cell_formula_units_Z 112
_cell_length_a 33.602383
_cell_length_b 33.715624
_cell_length_c 5.200923
_cell_angle_alpha 90.000000
_cell_angle_beta 90.000000
_cell_angle_gamma 90.000000
_cell_volume 5892.257306
_symmetry_space_group_name_H-M "C C C A"
_symmetry_group_IT_number 68
_space_group.IT_coordinate_system_code '2'
_symmetry_cell_setting 'orthorhombic'
loop_
_space_group_symop_operation_xyz
x,y,z
-x,1/2-y,z
x,1/2-y,1/2-z
-x,y,1/2-z
-x,-y,-z
x,1/2+y,-z
-x,1/2+y,1/2+z
x,-y,1/2+z
1/2+x,1/2+y,z
1/2-x,-y,z
1/2+x,-y,1/2-z
1/2-x,1/2+y,1/2-z
1/2-x,1/2-y,-z
1/2+x,y,-z
1/2-x,y,1/2+z
1/2+x,1/2-y,1/2+z
loop_
_atom_site_type_symbol
_atom_site_label
_atom_site_fract_x
_atom_site_fract_y
_atom_site_fract_z
Si Si1 0.724454 0.607412 0.711585
Si Si2 0.294371 0.017393 0.208302
Si Si3 0.071802 0.111315 0.747989
Si Si4 0.350909 0.339602 0.259965
Si Si5 0.955610 0.654074 0.746583
Si Si6 0.378270 0.203203 0.737856
Si Si7 0.953767 0.024739 0.740657
O O1 0.741823 0.612244 0.426508
O O2 0.704477 0.564437 0.740738
O O3 0.692506 0.641646 0.754266
O O4 0.316748 0.996435 0.447818
O O5 0.250000 0.000000 0.172442
O O6 0.117398 0.125003 0.751566
O O7 0.049494 0.127851 0.499638
O O8 0.072592 0.064024 0.738339
O O9 0.049042 0.125768 0.001461
O O10 0.355089 0.314852 0.520834
O O11 0.356310 0.310355 0.020316
O O12 0.924400 0.690071 0.737831
O O13 0.000000 0.672401 0.750000
O O14 0.376948 0.250000 0.750000
O O15 0.000000 0.036849 0.750000
O O16 0.942588 0.003781 0.474861
#
# Coordination Sequence:
#
# PCOD8281638 Si02
#       7
#    16  16  16  16  16  16  16
#     4  12  21  35  60  83 113 143 185 236 269 322
#     4  10  16  30  49  77 111 140 171 217 266 329
#     4  10  20  36  52  74 117 146 184 228 274 327
#     4  10  23  39  58  86 108 146 185 216 279 346
#     4  10  19  32  57  87 110 141 182 225 274 324
#     4  10  21  40  62  82 114 149 176 219 273 338
#     4  10  19  30  48  71 100 144 193 231 264 302
#
# _framework density 19.007994
#
# number of rings (size 3 to 8) (size 9 to 14) (size 15 to 20)
#    0.000    1.714    2.857    3.429    0.000    1.429 
#    0.000    1.429    0.000   13.714    0.000    0.000 
#    0.000    0.000    0.000    0.000    0.000    0.000 
#
# Total GULP energy -694524.268069 kJ/mol
# GULP energy per Si atom -12402.219073 kJ/mol
# Density = 1.896473 g / cm^3
# Si number density = 19.007994 Si / 1000 Ang^3
#
#
#
# Elastic Constant Matrix: (Units=GPa)
#
#
# Indices 1 2 3 4 5 6 
#
# 1 57.1630 37.0816 17.9085 0.0000 0.0000 0.0000
# 2 37.0816 102.9765 4.5633 0.0000 0.0000 0.0000
# 3 17.9085 4.5633 115.4089 0.0000 0.0000 0.0000
# 4 0.0000 0.0000 0.0000 22.5017 0.0000 0.0000
# 5 0.0000 0.0000 0.0000 0.0000 11.8441 0.0000
# 6 0.0000 0.0000 0.0000 0.0000 0.0000 24.7173
#
#
#
# Elastic Compliance Matrix: (Units=1/GPa)
#
#
# Indices 1 2 3 4 5 6 
#
# 1 0.024088 -0.008523 -0.003401 0.000000 0.000000 0.000000
# 2 -0.008523 0.012744 0.000819 0.000000 0.000000 0.000000
# 3 -0.003401 0.000819 0.009160 0.000000 0.000000 0.000000
# 4 0.000000 0.000000 0.000000 0.044441 0.000000 0.000000
# 5 0.000000 0.000000 0.000000 0.000000 0.084430 0.000000
# 6 0.000000 0.000000 0.000000 0.000000 0.000000 0.040457
#
#
# Mechanical properties :
#
#
# Convention : Reuss Voigt Hill
#
# Bulk Modulus (GPa) = 42.04979 43.85057 42.95018
# Shear Modulus (GPa) = 20.36994 26.21230 23.29112
#
# Velocity S-wave (km/s) = 3.27716 3.71754 3.50427
# Velocity P-wave (km/s) = 6.04069 6.44565 6.24645
#
# Compressibility (1/GPa) = 0.02378133
#
# Stress axis : x y z
#
# Youngs Moduli (GPa) = 41.51364 78.46860 109.16796
#
# Poissons Ratio (x) = 0.66883 0.37127
# Poissons Ratio (y) = 0.35384 -0.08938
# Poissons Ratio (z) = 0.14118 -0.06424
#
# Static dielectric constant tensor:
#      x y z
#    x 3.224370 0.000000 0.000000 
#    y 0.000000 3.246680 0.000000 
#    z 0.000000 0.000000 4.185020 
# 
# 
# High freq. dielectric constant tensor:
#      x y z
#    x 1.709430 0.000000 0.000000 
#    y 0.000000 1.729750 0.000000 
#    z 0.000000 0.000000 1.770600 
# 
# From -- ./inp_files/2942.got.cif
#   From: 2010.03.12/outbox.cif.g09.slc.cpg/sg68_2_cif.got.tgz:2942.got - 2010.04.10 23:14:56.
