data_PCOD8281766
_publ_section_title
;
Structure prediction by ZEFSAII (Michael W. Deem and Ramdas Pophale) SiO2 
 PCOD8281766
Probable space group: C C C A
;
_chemical_formula_sum "Si O2"
_cell_formula_units_Z 88
_cell_length_a 22.751569
_cell_length_b 14.132277
_cell_length_c 16.126254
_cell_angle_alpha 90.000000
_cell_angle_beta 90.000000
_cell_angle_gamma 90.000000
_cell_volume 5185.098240
_symmetry_space_group_name_H-M "C C C A"
_symmetry_group_IT_number 68
_space_group.IT_coordinate_system_code '2'
_symmetry_cell_setting 'orthorhombic'
loop_
_space_group_symop_operation_xyz
x,y,z
-x,1/2-y,z
x,1/2-y,1/2-z
-x,y,1/2-z
-x,-y,-z
x,1/2+y,-z
-x,1/2+y,1/2+z
x,-y,1/2+z
1/2+x,1/2+y,z
1/2-x,-y,z
1/2+x,-y,1/2-z
1/2-x,1/2+y,1/2-z
1/2-x,1/2-y,-z
1/2+x,y,-z
1/2-x,y,1/2+z
1/2+x,1/2-y,1/2+z
loop_
_atom_site_type_symbol
_atom_site_label
_atom_site_fract_x
_atom_site_fract_y
_atom_site_fract_z
Si Si1 0.693414 0.950512 0.986860
Si Si2 0.750000 0.000000 0.144392
Si Si3 0.126390 0.186515 0.623458
Si Si4 0.354709 0.888127 0.800398
Si Si5 0.582105 0.481646 0.438669
Si Si6 0.020574 0.652402 0.494615
O O1 0.676101 0.855566 0.937980
O O2 0.750000 0.000000 0.941749
O O3 0.711871 0.930592 0.083169
O O4 0.636305 0.020181 0.994694
O O5 0.789401 0.932470 0.202056
O O6 0.123167 0.125751 0.707528
O O7 0.145257 0.292822 0.644663
O O8 0.062063 0.180221 0.583096
O O9 0.397653 0.962695 0.844854
O O10 0.536431 0.401761 0.463099
O O11 0.554235 0.586908 0.439381
O O12 0.000000 0.750000 0.538077
#
# Coordination Sequence:
#
# PCOD8281766 Si02
#       6
#    16   8  16  16  16  16
#     4   8  17  33  49  72  93 137 175 211 250 308
#     4   8  18  32  50  66 102 132 168 214 254 304
#     4  10  20  30  51  76 105 134 175 213 266 315
#     4  10  19  33  46  78 106 133 169 216 267 313
#     4   9  18  33  49  76 107 132 174 209 269 304
#     4  10  18  32  54  77 105 137 172 221 257 316
#
# _framework density 16.971713999999999
#
# number of rings (size 3 to 8) (size 9 to 14) (size 15 to 20)
#    0.545    2.182    1.818    0.000    1.273    1.455 
#    0.000    0.000    0.000    0.000    0.000   11.455 
#    0.000    0.000    0.000    0.000    0.000    0.000 
#
# Total GULP energy -545101.337422 kJ/mol
# GULP energy per Si atom -12388.666760 kJ/mol
# Density = 1.693309 g / cm^3
# Si number density = 16.971714 Si / 1000 Ang^3
#
#
#
# Elastic Constant Matrix: (Units=GPa)
#
#
# Indices 1 2 3 4 5 6 
#
# 1 110.4285 51.0089 16.9508 0.0000 0.0000 0.0000
# 2 51.0089 106.9605 36.1039 0.0000 0.0000 0.0000
# 3 16.9508 36.1039 54.7557 0.0000 0.0000 0.0000
# 4 0.0000 0.0000 0.0000 24.4255 0.0000 0.0000
# 5 0.0000 0.0000 0.0000 0.0000 15.9369 0.0000
# 6 0.0000 0.0000 0.0000 0.0000 0.0000 29.3738
#
#
#
# Elastic Compliance Matrix: (Units=1/GPa)
#
#
# Indices 1 2 3 4 5 6 
#
# 1 0.011614 -0.005563 0.000073 0.000000 0.000000 0.000000
# 2 -0.005563 0.014691 -0.007964 0.000000 0.000000 0.000000
# 3 0.000073 -0.007964 0.023492 0.000000 0.000000 0.000000
# 4 0.000000 0.000000 0.000000 0.040941 0.000000 0.000000
# 5 0.000000 0.000000 0.000000 0.000000 0.062747 0.000000
# 6 0.000000 0.000000 0.000000 0.000000 0.000000 0.034044
#
#
# Mechanical properties :
#
#
# Convention : Reuss Voigt Hill
#
# Bulk Modulus (GPa) = 43.69267 53.36355 48.52811
# Shear Modulus (GPa) = 22.51566 25.15262 23.83414
#
# Velocity S-wave (km/s) = 3.64628 3.85389 3.75152
# Velocity P-wave (km/s) = 6.59754 7.16339 6.88628
#
# Compressibility (1/GPa) = 0.02288713
#
# Stress axis : x y z
#
# Youngs Moduli (GPa) = 86.10092 68.07038 42.56816
#
# Poissons Ratio (x) = 0.37870 -0.00310
# Poissons Ratio (y) = 0.47901 0.33902
# Poissons Ratio (z) = -0.00627 0.54213
#
# Static dielectric constant tensor:
#      x y z
#    x 3.436950 0.000000 0.000000 
#    y 0.000000 3.174280 0.000000 
#    z 0.000000 0.000000 2.935240 
# 
# 
# High freq. dielectric constant tensor:
#      x y z
#    x 1.672430 0.000000 0.000000 
#    y 0.000000 1.644750 0.000000 
#    z 0.000000 0.000000 1.621830 
# 
# From -- ./inp_files/25366.got.cif
#   From: 2010.03.12/outbox.cif.g09.slc.cpg/sg68_13_cif.got.tgz:25366.got - 2010.04.10 23:14:56.
