data_PCOD8281193
_publ_section_title
;
Structure prediction by ZEFSAII (Michael W. Deem and Ramdas Pophale) SiO2 
 PCOD8281193
Probable space group: C M M A
;
_chemical_formula_sum "Si O2"
_cell_formula_units_Z 96
_cell_length_a 18.310343
_cell_length_b 9.000861
_cell_length_c 30.770757
_cell_angle_alpha 90.000000
_cell_angle_beta 90.000000
_cell_angle_gamma 90.000000
_cell_volume 5071.293143
_symmetry_space_group_name_H-M "C M M A"
_symmetry_group_IT_number 67
_symmetry_cell_setting 'orthorhombic'
loop_
_space_group_symop_operation_xyz
x,y,z
-x,1/2-y,z
x,-y,-z
-x,1/2+y,-z
-x,-y,-z
x,1/2+y,-z
-x,y,z
x,1/2-y,z
1/2+x,1/2+y,z
1/2-x,-y,z
1/2+x,1/2-y,-z
1/2-x,y,-z
1/2-x,1/2-y,-z
1/2+x,y,-z
1/2-x,1/2+y,z
1/2+x,-y,z
loop_
_atom_site_type_symbol
_atom_site_label
_atom_site_fract_x
_atom_site_fract_y
_atom_site_fract_z
Si Si1 0.673770 0.072548 0.954539
Si Si2 0.916292 0.425708 0.278097
Si Si3 0.826759 0.923937 0.203404
Si Si4 0.085239 0.419994 0.882519
Si Si5 0.912829 0.915696 0.457780
Si Si6 0.913391 0.414005 0.374823
O O1 0.681551 0.250000 0.959165
O O2 0.750000 0.000000 0.939324
O O3 0.613075 0.032331 0.919262
O O4 0.649397 0.000000 0.000000
O O5 0.906259 0.250000 0.272234
O O6 0.863129 0.512925 0.246546
O O7 0.893381 0.475007 0.326927
O O8 0.000000 0.471080 0.268511
O O9 0.814585 0.750000 0.209429
O O10 0.878144 0.961712 0.162909
O O11 0.750000 0.000000 0.194402
O O12 0.102987 0.250000 0.895891
O O13 0.000000 0.446227 0.876663
O O14 0.882918 0.750000 0.460717
O O15 0.000000 0.921043 0.457276
O O16 0.882253 0.000000 0.500000
O O17 0.881010 0.984209 0.413136
O O18 0.880171 0.250000 0.381146
O O19 0.000000 0.404987 0.378585
#
# Coordination Sequence:
#
# PCOD8281193 Si02
#       6
#    16  16  16  16  16  16
#     4  11  22  38  61  87 116 151 189 227 269 316
#     4   9  18  33  53  76 103 135 171 214 264 317
#     4  11  23  38  57  80 107 140 177 219 266 316
#     4  10  22  40  60  84 114 145 180 224 271 318
#     4   9  15  21  31  50  79 117 159 201 245 296
#     4   8  14  25  40  59  86 121 159 200 249 303
#
# _framework density 18.930081999999999
#
# number of rings (size 3 to 8) (size 9 to 14) (size 15 to 20)
#    0.000    2.333    0.000    5.000    0.000    7.000 
#    0.000    1.667    0.000    0.000    0.000    0.000 
#    0.000    0.667    0.000    7.000    0.000    9.667 
#
# Total GULP energy -595170.891577 kJ/mol
# GULP energy per Si atom -12399.393575 kJ/mol
# Density = 1.888700 g / cm^3
# Si number density = 18.930082 Si / 1000 Ang^3
#
#
#
# Elastic Constant Matrix: (Units=GPa)
#
#
# Indices 1 2 3 4 5 6 
#
# 1 72.4880 45.2298 57.8131 0.0000 0.0000 0.0000
# 2 45.2298 125.5948 76.7587 0.0000 0.0000 0.0000
# 3 57.8131 76.7587 148.2128 0.0000 0.0000 0.0000
# 4 0.0000 0.0000 0.0000 36.1149 0.0000 0.0000
# 5 0.0000 0.0000 0.0000 0.0000 -2.1438 0.0000
# 6 0.0000 0.0000 0.0000 0.0000 0.0000 22.7413
#
#
#
# Elastic Compliance Matrix: (Units=1/GPa)
#
#
# Indices 1 2 3 4 5 6 
#
# 1 0.021180 -0.003772 -0.006308 0.000000 0.000000 0.000000
# 2 -0.003772 0.012321 -0.004910 0.000000 0.000000 0.000000
# 3 -0.006308 -0.004910 0.011750 0.000000 0.000000 0.000000
# 4 0.000000 0.000000 0.000000 0.027689 0.000000 0.000000
# 5 0.000000 0.000000 0.000000 0.000000 -0.466458 0.000000
# 6 0.000000 0.000000 0.000000 0.000000 0.000000 0.043973
#
#
# Mechanical properties :
#
#
# Convention : Reuss Voigt Hill
#
# Bulk Modulus (GPa) = 65.48055 78.43322 71.95689
# Shear Modulus (GPa) = -15.89959 22.44207 3.27124
#
# Velocity S-wave (km/s) = -2.90127 3.44688 1.31599
# Velocity P-wave (km/s) = 4.84177 7.57393 6.35638
#
# Compressibility (1/GPa) = 0.01527171
#
# Stress axis : x y z
#
# Youngs Moduli (GPa) = 47.21399 81.16103 85.10405
#
# Poissons Ratio (x) = 0.30616 0.53684
# Poissons Ratio (y) = 0.17810 0.41783
# Poissons Ratio (z) = 0.29783 0.39847
#
# Static dielectric constant tensor:
#      x y z
#    x 3.076540 0.000000 0.000000 
#    y 0.000000 3.607630 0.000000 
#    z 0.000000 0.000000 3.689960 
# 
# 
# High freq. dielectric constant tensor:
#      x y z
#    x 1.693600 0.000000 0.000000 
#    y 0.000000 1.739340 0.000000 
#    z 0.000000 0.000000 1.753280 
# 
# From -- ./inp_files/44618.got.cif
#   From: 2010.03.12/outbox.cif.g09.slc.cpg/sg67_23_cif.got.tgz:44618.got - 2010.04.10 22:41:39.
