data_PCOD8281445
_publ_section_title
;
Structure prediction by ZEFSAII (Michael W. Deem and Ramdas Pophale) SiO2 
 PCOD8281445
Probable space group: C M M A
;
_chemical_formula_sum "Si O2"
_cell_formula_units_Z 84
_cell_length_a 10.624120
_cell_length_b 16.750463
_cell_length_c 24.621528
_cell_angle_alpha 90.000000
_cell_angle_beta 90.000000
_cell_angle_gamma 90.000000
_cell_volume 4381.620752
_symmetry_space_group_name_H-M "C M M A"
_symmetry_group_IT_number 67
_symmetry_cell_setting 'orthorhombic'
loop_
_space_group_symop_operation_xyz
x,y,z
-x,1/2-y,z
x,-y,-z
-x,1/2+y,-z
-x,-y,-z
x,1/2+y,-z
-x,y,z
x,1/2-y,z
1/2+x,1/2+y,z
1/2-x,-y,z
1/2+x,1/2-y,-z
1/2-x,y,-z
1/2-x,1/2-y,-z
1/2+x,y,-z
1/2-x,1/2+y,z
1/2+x,-y,z
loop_
_atom_site_type_symbol
_atom_site_label
_atom_site_fract_x
_atom_site_fract_y
_atom_site_fract_z
Si Si1 0.864957 0.921309 0.400594
Si Si2 0.748703 0.157349 0.115851
Si Si3 0.500000 0.085229 0.066343
Si Si4 0.862800 0.090091 0.342564
Si Si5 0.000000 0.397291 0.056749
Si Si6 0.250000 0.500000 0.500000
Si Si7 0.643511 0.341068 0.770736
O O1 0.748400 0.867573 0.378347
O O2 0.000000 0.876426 0.398100
O O3 0.870381 0.997935 0.360630
O O4 0.840259 0.945972 0.462749
O O5 0.718262 0.250000 0.109899
O O6 0.627007 0.109494 0.096934
O O7 0.873499 0.139072 0.081620
O O8 0.769702 0.133963 0.178807
O O9 0.500000 0.990918 0.064762
O O10 0.500000 0.124387 0.006890
O O11 0.828058 0.099518 0.279255
O O12 0.000000 0.130643 0.353445
O O13 0.500000 0.349554 0.790521
O O14 0.670776 0.250000 0.752271
#
# Coordination Sequence:
#
# PCOD8281445 Si02
#       7
#    16  16   8  16   8   4  16
#     4   9  16  27  43  70 101 127 162 208 249 309
#     4  11  22  39  61  86 109 141 190 232 274 336
#     4  11  25  41  57  85 117 141 173 233 294 337
#     4   8  15  28  43  64  93 127 162 199 241 293
#     4  11  23  43  61  79 113 149 181 219 284 351
#     4   8  14  24  44  66  96 136 164 198 248 294
#     4   9  17  33  54  73  99 134 176 218 257 314
#
# _framework density 19.170988000000001
#
# number of rings (size 3 to 8) (size 9 to 14) (size 15 to 20)
#    0.000    2.667    0.952    2.000    0.000    4.571 
#    8.571    0.000    0.000    0.000    0.000   10.667 
#    0.000   12.190    0.000    0.000    0.000    0.000 
#
# Total GULP energy -520347.060396 kJ/mol
# GULP energy per Si atom -12389.215724 kJ/mol
# Density = 1.912735 g / cm^3
# Si number density = 19.170988 Si / 1000 Ang^3
#
#
#
# Elastic Constant Matrix: (Units=GPa)
#
#
# Indices 1 2 3 4 5 6 
#
# 1 177.6292 5.5993 66.5328 0.0000 0.0000 0.0000
# 2 5.5993 29.4624 32.1170 0.0000 0.0000 0.0000
# 3 66.5328 32.1170 146.2799 0.0000 0.0000 0.0000
# 4 0.0000 0.0000 0.0000 10.7098 0.0000 0.0000
# 5 0.0000 0.0000 0.0000 0.0000 29.6922 0.0000
# 6 0.0000 0.0000 0.0000 0.0000 0.0000 45.9021
#
#
#
# Elastic Compliance Matrix: (Units=1/GPa)
#
#
# Indices 1 2 3 4 5 6 
#
# 1 0.006957 0.002796 -0.003778 0.000000 0.000000 0.000000
# 2 0.002796 0.045745 -0.011316 0.000000 0.000000 0.000000
# 3 -0.003778 -0.011316 0.011039 0.000000 0.000000 0.000000
# 4 0.000000 0.000000 0.000000 0.093373 0.000000 0.000000
# 5 0.000000 0.000000 0.000000 0.000000 0.033679 0.000000
# 6 0.000000 0.000000 0.000000 0.000000 0.000000 0.021785
#
#
# Mechanical properties :
#
#
# Convention : Reuss Voigt Hill
#
# Bulk Modulus (GPa) = 25.54516 62.42999 43.98758
# Shear Modulus (GPa) = 19.98227 33.86897 26.92562
#
# Velocity S-wave (km/s) = 3.23200 4.20775 3.75173
# Velocity P-wave (km/s) = 5.22318 7.49949 6.46235
#
# Compressibility (1/GPa) = 0.03914635
#
# Stress axis : x y z
#
# Youngs Moduli (GPa) = 143.74671 21.86013 90.58737
#
# Poissons Ratio (x) = -0.06113 0.34225
# Poissons Ratio (y) = -0.40197 1.02506
# Poissons Ratio (z) = 0.54309 0.24736
#
# Static dielectric constant tensor:
#      x y z
#    x 4.438500 0.000000 0.000000 
#    y 0.000000 3.096140 0.000000 
#    z 0.000000 0.000000 3.602880 
# 
# 
# High freq. dielectric constant tensor:
#      x y z
#    x 1.767090 0.000000 0.000000 
#    y 0.000000 1.694900 0.000000 
#    z 0.000000 0.000000 1.753920 
# 
# From -- ./inp_files/41461.got.cif
#   From: 2010.03.12/outbox.cif.g09.slc.cpg/sg67_21_cif.got.tgz:41461.got - 2010.04.10 22:41:39.
