data_PCOD8281493
_publ_section_title
;
Structure prediction by ZEFSAII (Michael W. Deem and Ramdas Pophale) SiO2 
 PCOD8281493
Probable space group: C M M A
;
_chemical_formula_sum "Si O2"
_cell_formula_units_Z 52
_cell_length_a 9.593611
_cell_length_b 14.902285
_cell_length_c 16.503742
_cell_angle_alpha 90.000000
_cell_angle_beta 90.000000
_cell_angle_gamma 90.000000
_cell_volume 2359.485949
_symmetry_space_group_name_H-M "C M M A"
_symmetry_group_IT_number 67
_symmetry_cell_setting 'orthorhombic'
loop_
_space_group_symop_operation_xyz
x,y,z
-x,1/2-y,z
x,-y,-z
-x,1/2+y,-z
-x,-y,-z
x,1/2+y,-z
-x,y,z
x,1/2-y,z
1/2+x,1/2+y,z
1/2-x,-y,z
1/2+x,1/2-y,-z
1/2-x,y,-z
1/2-x,1/2-y,-z
1/2+x,y,-z
1/2-x,1/2+y,z
1/2+x,-y,z
loop_
_atom_site_type_symbol
_atom_site_label
_atom_site_fract_x
_atom_site_fract_y
_atom_site_fract_z
Si Si1 0.750000 0.000000 0.500000
Si Si2 0.153170 0.848091 0.383886
Si Si3 0.166529 0.589222 0.752287
Si Si4 0.153634 0.855704 0.929986
O O1 0.840091 0.932235 0.445201
O O2 0.164185 0.750000 0.427998
O O3 0.275250 0.844546 0.316295
O O4 0.000000 0.856292 0.342623
O O5 0.250000 0.500000 0.732825
O O6 0.212009 0.622401 0.841161
O O7 0.000000 0.579405 0.744107
O O8 0.147066 0.750000 0.940944
O O9 0.000000 0.897557 0.940454
O O10 0.250000 0.898839 0.000000
#
# Coordination Sequence:
#
# PCOD8281493 Si02
#       4
#     4  16  16  16
#     4  12  24  44  72 100 136 172 208 268 322 394
#     4  11  25  44  68  99 134 173 217 265 323 389
#     4  11  23  40  63  91 128 169 215 269 323 383
#     4   9  19  36  58  86 120 162 211 262 317 377
#
# _framework density 22.038699000000001
#
# number of rings (size 3 to 8) (size 9 to 14) (size 15 to 20)
#    0.000    1.538    1.538    2.769    0.000    6.154 
#    0.000    6.154    0.000    0.000    0.000    0.000 
#    0.000    0.000    0.000    0.000    0.000    0.000 
#
# Total GULP energy -322143.348433 kJ/mol
# GULP energy per Si atom -12390.128786 kJ/mol
# Density = 2.198854 g / cm^3
# Si number density = 22.038699 Si / 1000 Ang^3
#
#
#
# Elastic Constant Matrix: (Units=GPa)
#
#
# Indices 1 2 3 4 5 6 
#
# 1 135.2115 41.8734 68.3542 0.0000 0.0000 0.0000
# 2 41.8734 113.7233 40.9178 0.0000 0.0000 0.0000
# 3 68.3542 40.9178 140.0052 0.0000 0.0000 0.0000
# 4 0.0000 0.0000 0.0000 30.8775 0.0000 0.0000
# 5 0.0000 0.0000 0.0000 0.0000 33.4574 0.0000
# 6 0.0000 0.0000 0.0000 0.0000 0.0000 20.9483
#
#
#
# Elastic Compliance Matrix: (Units=1/GPa)
#
#
# Indices 1 2 3 4 5 6 
#
# 1 0.010296 -0.002215 -0.004379 0.000000 0.000000 0.000000
# 2 -0.002215 0.010303 -0.001930 0.000000 0.000000 0.000000
# 3 -0.004379 -0.001930 0.009845 0.000000 0.000000 0.000000
# 4 0.000000 0.000000 0.000000 0.032386 0.000000 0.000000
# 5 0.000000 0.000000 0.000000 0.000000 0.029889 0.000000
# 6 0.000000 0.000000 0.000000 0.000000 0.000000 0.047737
#
#
# Mechanical properties :
#
#
# Convention : Reuss Voigt Hill
#
# Bulk Modulus (GPa) = 74.65325 76.80343 75.72834
# Shear Modulus (GPa) = 30.87023 32.90961 31.88992
#
# Velocity S-wave (km/s) = 3.74669 3.86847 3.80807
# Velocity P-wave (km/s) = 7.25701 7.40800 7.33289
#
# Compressibility (1/GPa) = 0.01339526
#
# Stress axis : x y z
#
# Youngs Moduli (GPa) = 97.12786 97.05684 101.57857
#
# Poissons Ratio (x) = 0.21501 0.44483
# Poissons Ratio (y) = 0.21517 0.19601
# Poissons Ratio (z) = 0.42534 0.18729
#
# Static dielectric constant tensor:
#      x y z
#    x 4.276340 0.000000 0.000000 
#    y 0.000000 4.010300 0.000000 
#    z 0.000000 0.000000 4.083920 
# 
# 
# High freq. dielectric constant tensor:
#      x y z
#    x 1.868880 0.000000 0.000000 
#    y 0.000000 1.873650 0.000000 
#    z 0.000000 0.000000 1.860870 
# 
# From -- ./inp_files/31555.got.cif
#   From: 2010.03.12/outbox.cif.g09.slc.cpg/sg67_16_cif.got.tgz:31555.got - 2010.04.10 22:41:39.
