data_PCOD8281806
_publ_section_title
;
Structure prediction by ZEFSAII (Michael W. Deem and Ramdas Pophale) SiO2 
 PCOD8281806
Probable space group: C C C A
;
_chemical_formula_sum "Si O2"
_cell_formula_units_Z 88
_cell_length_a 12.938329
_cell_length_b 29.198522
_cell_length_c 12.306569
_cell_angle_alpha 90.000000
_cell_angle_beta 90.000000
_cell_angle_gamma 90.000000
_cell_volume 4649.176670
_symmetry_space_group_name_H-M "C C C A"
_symmetry_group_IT_number 68
_space_group.IT_coordinate_system_code '2'
_symmetry_cell_setting 'orthorhombic'
loop_
_space_group_symop_operation_xyz
x,y,z
-x,1/2-y,z
x,1/2-y,1/2-z
-x,y,1/2-z
-x,-y,-z
x,1/2+y,-z
-x,1/2+y,1/2+z
x,-y,1/2+z
1/2+x,1/2+y,z
1/2-x,-y,z
1/2+x,-y,1/2-z
1/2-x,1/2+y,1/2-z
1/2-x,1/2-y,-z
1/2+x,y,-z
1/2-x,y,1/2+z
1/2+x,1/2-y,1/2+z
loop_
_atom_site_type_symbol
_atom_site_label
_atom_site_fract_x
_atom_site_fract_y
_atom_site_fract_z
Si Si1 0.541092 0.155346 0.364956
Si Si2 0.410189 0.715368 0.484723
Si Si3 0.571009 0.551668 0.588685
Si Si4 0.220613 0.276558 0.861083
Si Si5 0.250000 0.000000 0.709011
Si Si6 0.931093 0.469182 0.344547
O O1 0.500000 0.173239 0.250000
O O2 0.461517 0.170686 0.459933
O O3 0.552203 0.101105 0.362163
O O4 0.652771 0.177942 0.376007
O O5 0.500000 0.750000 0.451079
O O6 0.338572 0.705130 0.380041
O O7 0.325009 0.737789 0.561502
O O8 0.679986 0.531534 0.630741
O O9 0.572445 0.557991 0.457757
O O10 0.476933 0.519794 0.629286
O O11 0.216306 0.250000 0.750000
O O12 0.318074 0.029690 0.791987
O O13 0.000000 0.445009 0.250000
#
# Coordination Sequence:
#
# PCOD8281806 Si02
#       6
#    16  16  16  16   8  16
#     4  11  20  37  61  91 115 154 199 256 289 359
#     4   9  20  36  59  82 116 151 188 234 291 358
#     4  10  21  37  59  87 118 154 204 247 298 356
#     4  10  19  37  60  86 114 155 192 231 306 359
#     4  10  18  36  58  84 112 156 200 238 296 354
#     4   9  19  38  58  78 114 164 189 238 305 358
#
# _framework density 18.928080999999999
#
# number of rings (size 3 to 8) (size 9 to 14) (size 15 to 20)
#    0.000    2.182    1.818    2.182    0.000    0.364 
#   16.364    0.000    0.000    0.000    0.000    0.000 
#    0.000    0.000    0.000    0.000    0.000    0.000 
#
# Total GULP energy -545158.780271 kJ/mol
# GULP energy per Si atom -12389.972279 kJ/mol
# Density = 1.888500 g / cm^3
# Si number density = 18.928081 Si / 1000 Ang^3
#
#
#
# Elastic Constant Matrix: (Units=GPa)
#
#
# Indices 1 2 3 4 5 6 
#
# 1 120.4414 21.7645 28.5666 0.0000 0.0000 0.0000
# 2 21.7645 72.0201 -0.4638 0.0000 0.0000 0.0000
# 3 28.5666 -0.4638 73.8335 0.0000 0.0000 0.0000
# 4 0.0000 0.0000 0.0000 30.1418 0.0000 0.0000
# 5 0.0000 0.0000 0.0000 0.0000 36.7716 0.0000
# 6 0.0000 0.0000 0.0000 0.0000 0.0000 28.2352
#
#
#
# Elastic Compliance Matrix: (Units=1/GPa)
#
#
# Indices 1 2 3 4 5 6 
#
# 1 0.009737 -0.002967 -0.003786 0.000000 0.000000 0.000000
# 2 -0.002967 0.014790 0.001241 0.000000 0.000000 0.000000
# 3 -0.003786 0.001241 0.015017 0.000000 0.000000 0.000000
# 4 0.000000 0.000000 0.000000 0.033176 0.000000 0.000000
# 5 0.000000 0.000000 0.000000 0.000000 0.027195 0.000000
# 6 0.000000 0.000000 0.000000 0.000000 0.000000 0.035417
#
#
# Mechanical properties :
#
#
# Convention : Reuss Voigt Hill
#
# Bulk Modulus (GPa) = 35.06419 40.66995 37.86707
# Shear Modulus (GPa) = 32.07978 33.45825 32.76902
#
# Velocity S-wave (km/s) = 4.12129 4.20891 4.16533
# Velocity P-wave (km/s) = 6.41965 6.71960 6.57134
#
# Compressibility (1/GPa) = 0.02851912
#
# Stress axis : x y z
#
# Youngs Moduli (GPa) = 102.70244 67.61508 66.59313
#
# Poissons Ratio (x) = 0.20060 0.25211
# Poissons Ratio (y) = 0.30470 -0.08263
# Poissons Ratio (z) = 0.38882 -0.08390
#
# Static dielectric constant tensor:
#      x y z
#    x 3.721260 0.000000 0.000000 
#    y 0.000000 3.047290 0.000000 
#    z 0.000000 0.000000 3.650060 
# 
# 
# High freq. dielectric constant tensor:
#      x y z
#    x 1.748210 0.000000 0.000000 
#    y 0.000000 1.700060 0.000000 
#    z 0.000000 0.000000 1.746580 
# 
# From -- ./inp_files/12066.got.cif
#   From: 2010.03.12/outbox.cif.g09.slc.cpg/sg68_7_cif.got.tgz:12066.got - 2010.04.10 23:14:56.
