data_PCOD8281226
_publ_section_title
;
Structure prediction by ZEFSAII (Michael W. Deem and Ramdas Pophale) SiO2 
 PCOD8281226
Probable space group: C M M A
;
_chemical_formula_sum "Si O2"
_cell_formula_units_Z 56
_cell_length_a 9.984215
_cell_length_b 30.235374
_cell_length_c 9.676650
_cell_angle_alpha 90.000000
_cell_angle_beta 90.000000
_cell_angle_gamma 90.000000
_cell_volume 2921.152988
_symmetry_space_group_name_H-M "C M M A"
_symmetry_group_IT_number 67
_symmetry_cell_setting 'orthorhombic'
loop_
_space_group_symop_operation_xyz
x,y,z
-x,1/2-y,z
x,-y,-z
-x,1/2+y,-z
-x,-y,-z
x,1/2+y,-z
-x,y,z
x,1/2-y,z
1/2+x,1/2+y,z
1/2-x,-y,z
1/2+x,1/2-y,-z
1/2-x,y,-z
1/2-x,1/2-y,-z
1/2+x,y,-z
1/2-x,1/2+y,z
1/2+x,-y,z
loop_
_atom_site_type_symbol
_atom_site_label
_atom_site_fract_x
_atom_site_fract_y
_atom_site_fract_z
Si Si1 0.343372 0.750000 0.132945
Si Si2 0.500000 0.045361 0.420982
Si Si3 0.000000 0.957019 0.096878
Si Si4 0.250000 0.401175 0.000000
Si Si5 0.846993 0.656408 0.751731
Si Si6 0.750000 0.104100 0.500000
O O1 0.500000 0.750000 0.087035
O O2 0.308428 0.792501 0.225590
O O3 0.250000 0.750000 0.000000
O O4 0.500000 0.032373 0.259413
O O5 0.626364 0.072796 0.470730
O O6 0.500000 0.000000 0.500000
O O7 0.135743 0.930636 0.068999
O O8 0.000000 0.000000 0.000000
O O9 0.177745 0.370302 0.109325
O O10 0.759321 0.636343 0.630333
O O11 0.000000 0.651623 0.707631
#
# Coordination Sequence:
#
# PCOD8281226 Si02
#       6
#     8   8   8   8  16   8
#     4  10  22  41  66 102 136 168 212 273 324 380
#     4  12  28  44  66  95 130 172 219 276 337 387
#     4  12  28  42  64  97 126 166 219 272 329 383
#     4  12  23  41  68  92 130 168 212 265 323 392
#     4  11  23  42  69  98 132 171 216 266 325 389
#     4  12  25  45  68  92 134 176 220 263 329 400
#
# _framework density 19.170511999999999
#
# number of rings (size 3 to 8) (size 9 to 14) (size 15 to 20)
#    0.000    0.571    7.143    0.857    4.000    2.857 
#    2.571    0.000    0.000    0.000    0.000    0.000 
#    0.000    0.000    0.000    0.000    0.000    0.000 
#
# Total GULP energy -347273.312923 kJ/mol
# GULP energy per Si atom -12402.618319 kJ/mol
# Density = 1.912688 g / cm^3
# Si number density = 19.170512 Si / 1000 Ang^3
#
#
#
# Elastic Constant Matrix: (Units=GPa)
#
#
# Indices 1 2 3 4 5 6 
#
# 1 114.7838 64.7307 37.9555 0.0000 0.0000 0.0000
# 2 64.7307 168.9063 74.7482 0.0000 0.0000 0.0000
# 3 37.9555 74.7482 136.5070 0.0000 0.0000 0.0000
# 4 0.0000 0.0000 0.0000 46.2542 0.0000 0.0000
# 5 0.0000 0.0000 0.0000 0.0000 31.2588 0.0000
# 6 0.0000 0.0000 0.0000 0.0000 0.0000 21.5115
#
#
#
# Elastic Compliance Matrix: (Units=1/GPa)
#
#
# Indices 1 2 3 4 5 6 
#
# 1 0.011218 -0.003852 -0.001010 0.000000 0.000000 0.000000
# 2 -0.003852 0.009137 -0.003932 0.000000 0.000000 0.000000
# 3 -0.001010 -0.003932 0.009759 0.000000 0.000000 0.000000
# 4 0.000000 0.000000 0.000000 0.021620 0.000000 0.000000
# 5 0.000000 0.000000 0.000000 0.000000 0.031991 0.000000
# 6 0.000000 0.000000 0.000000 0.000000 0.000000 0.046487
#
#
# Mechanical properties :
#
#
# Convention : Reuss Voigt Hill
#
# Bulk Modulus (GPa) = 79.83119 86.11843 82.97481
# Shear Modulus (GPa) = 32.89992 35.98910 34.44451
#
# Velocity S-wave (km/s) = 4.14717 4.33750 4.24340
# Velocity P-wave (km/s) = 8.04146 8.37288 8.20884
#
# Compressibility (1/GPa) = 0.01252643
#
# Stress axis : x y z
#
# Youngs Moduli (GPa) = 89.13884 109.44620 102.46459
#
# Poissons Ratio (x) = 0.42163 0.10346
# Poissons Ratio (y) = 0.34340 0.40289
# Poissons Ratio (z) = 0.09001 0.43034
#
# Static dielectric constant tensor:
#      x y z
#    x 3.594900 0.000000 0.000000 
#    y 0.000000 3.377630 0.000000 
#    z 0.000000 0.000000 3.378610 
# 
# 
# High freq. dielectric constant tensor:
#      x y z
#    x 1.759770 0.000000 0.000000 
#    y 0.000000 1.763780 0.000000 
#    z 0.000000 0.000000 1.753550 
# 
# From -- ./inp_files/6686.got.cif
#   From: 2010.03.12/outbox.cif.g09.slc.cpg/sg67_4_cif.got.tgz:6686.got - 2010.04.10 22:41:39.
