data_PCOD8281920
_publ_section_title
;
Structure prediction by ZEFSAII (Michael W. Deem and Ramdas Pophale) SiO2 
 PCOD8281920
Probable space group: C C C A
;
_chemical_formula_sum "Si O2"
_cell_formula_units_Z 88
_cell_length_a 24.982873
_cell_length_b 13.337118
_cell_length_c 13.891327
_cell_angle_alpha 90.000000
_cell_angle_beta 90.000000
_cell_angle_gamma 90.000000
_cell_volume 4628.583561
_symmetry_space_group_name_H-M "C C C A"
_symmetry_group_IT_number 68
_space_group.IT_coordinate_system_code '2'
_symmetry_cell_setting 'orthorhombic'
loop_
_space_group_symop_operation_xyz
x,y,z
-x,1/2-y,z
x,1/2-y,1/2-z
-x,y,1/2-z
-x,-y,-z
x,1/2+y,-z
-x,1/2+y,1/2+z
x,-y,1/2+z
1/2+x,1/2+y,z
1/2-x,-y,z
1/2+x,-y,1/2-z
1/2-x,1/2+y,1/2-z
1/2-x,1/2-y,-z
1/2+x,y,-z
1/2-x,y,1/2+z
1/2+x,1/2-y,1/2+z
loop_
_atom_site_type_symbol
_atom_site_label
_atom_site_fract_x
_atom_site_fract_y
_atom_site_fract_z
Si Si1 0.239562 0.834580 0.424364
Si Si2 0.576520 0.001596 0.424439
Si Si3 0.333036 0.480909 0.562655
Si Si4 0.825796 0.750000 0.250000
Si Si5 0.097108 0.427623 0.721743
Si Si6 0.021718 0.860776 0.443762
O O1 0.250000 0.750000 0.500000
O O2 0.295858 0.889167 0.403318
O O3 0.214283 0.776818 0.335089
O O4 0.199357 0.918587 0.463842
O O5 0.564123 0.891475 0.471456
O O6 0.632576 0.043717 0.467214
O O7 0.576299 0.001931 0.308496
O O8 0.530368 0.073854 0.460323
O O9 0.371426 0.497880 0.652812
O O10 0.864544 0.655823 0.229856
O O11 0.048879 0.375678 0.661647
O O12 0.000000 0.750000 0.456138
#
# Coordination Sequence:
#
# PCOD8281920 Si02
#       6
#    16  16  16   8  16  16
#     4  10  20  36  55  78 109 144 182 227 277 330
#     4  10  20  35  57  81 110 147 183 227 284 337
#     4   9  21  36  52  79 112 142 181 229 275 333
#     4  10  20  32  55  84 106 142 193 230 274 338
#     4  10  19  34  55  80 110 144 184 231 279 333
#     4  10  21  36  57  84 111 142 188 235 279 335
#
# _framework density 19.012295000000002
#
# number of rings (size 3 to 8) (size 9 to 14) (size 15 to 20)
#    0.000    2.182    0.000    2.727    0.000    5.091 
#    0.000    3.636    0.000   22.909    0.000    0.000 
#    0.000    0.000    0.000    0.000    0.000    0.000 
#
# Total GULP energy -545321.154204 kJ/mol
# GULP energy per Si atom -12393.662596 kJ/mol
# Density = 1.896902 g / cm^3
# Si number density = 19.012295 Si / 1000 Ang^3
#
#
#
# Elastic Constant Matrix: (Units=GPa)
#
#
# Indices 1 2 3 4 5 6 
#
# 1 100.5339 46.8735 41.6277 0.0000 0.0000 0.0000
# 2 46.8735 96.7850 65.6307 0.0000 0.0000 0.0000
# 3 41.6277 65.6307 115.8121 0.0000 0.0000 0.0000
# 4 0.0000 0.0000 0.0000 24.4483 0.0000 0.0000
# 5 0.0000 0.0000 0.0000 0.0000 30.9422 0.0000
# 6 0.0000 0.0000 0.0000 0.0000 0.0000 30.2059
#
#
#
# Elastic Compliance Matrix: (Units=1/GPa)
#
#
# Indices 1 2 3 4 5 6 
#
# 1 0.013076 -0.005109 -0.001805 0.000000 0.000000 0.000000
# 2 -0.005109 0.018777 -0.008804 0.000000 0.000000 0.000000
# 3 -0.001805 -0.008804 0.014273 0.000000 0.000000 0.000000
# 4 0.000000 0.000000 0.000000 0.040903 0.000000 0.000000
# 5 0.000000 0.000000 0.000000 0.000000 0.032318 0.000000
# 6 0.000000 0.000000 0.000000 0.000000 0.000000 0.033106
#
#
# Mechanical properties :
#
#
# Convention : Reuss Voigt Hill
#
# Bulk Modulus (GPa) = 68.07647 69.04387 68.56017
# Shear Modulus (GPa) = 26.48498 27.71923 27.10210
#
# Velocity S-wave (km/s) = 3.73640 3.82247 3.77968
# Velocity P-wave (km/s) = 7.38231 7.47502 7.42881
#
# Compressibility (1/GPa) = 0.01468936
#
# Stress axis : x y z
#
# Youngs Moduli (GPa) = 76.47430 53.25701 70.06278
#
# Poissons Ratio (x) = 0.27209 0.12646
# Poissons Ratio (y) = 0.39071 0.61686
# Poissons Ratio (z) = 0.13803 0.46890
#
# Static dielectric constant tensor:
#      x y z
#    x 3.698830 0.000000 0.000000 
#    y 0.000000 3.658890 0.000000 
#    z 0.000000 0.000000 3.446420 
# 
# 
# High freq. dielectric constant tensor:
#      x y z
#    x 1.760210 0.000000 0.000000 
#    y 0.000000 1.727110 0.000000 
#    z 0.000000 0.000000 1.730810 
# 
# From -- ./inp_files/17093.got.cif
#   From: 2010.03.12/outbox.cif.g09.slc.cpg/sg68_9_cif.got.tgz:17093.got - 2010.04.10 23:14:56.
