data_PCOD8281149
_publ_section_title
;
Structure prediction by ZEFSAII (Michael W. Deem and Ramdas Pophale) SiO2 
 PCOD8281149
Probable space group: C M M A
;
_chemical_formula_sum "Si O2"
_cell_formula_units_Z 112
_cell_length_a 14.904293
_cell_length_b 26.685548
_cell_length_c 12.512487
_cell_angle_alpha 90.000000
_cell_angle_beta 90.000000
_cell_angle_gamma 90.000000
_cell_volume 4976.581773
_symmetry_space_group_name_H-M "C M M A"
_symmetry_group_IT_number 67
_symmetry_cell_setting 'orthorhombic'
loop_
_space_group_symop_operation_xyz
x,y,z
-x,1/2-y,z
x,-y,-z
-x,1/2+y,-z
-x,-y,-z
x,1/2+y,-z
-x,y,z
x,1/2-y,z
1/2+x,1/2+y,z
1/2-x,-y,z
1/2+x,1/2-y,-z
1/2-x,y,-z
1/2-x,1/2-y,-z
1/2+x,y,-z
1/2-x,1/2+y,z
1/2+x,-y,z
loop_
_atom_site_type_symbol
_atom_site_label
_atom_site_fract_x
_atom_site_fract_y
_atom_site_fract_z
Si Si1 0.901228 0.405263 0.611669
Si Si2 0.153012 0.628908 0.965911
Si Si3 0.898053 0.659818 0.194293
Si Si4 0.705472 0.693857 0.225467
Si Si5 0.651642 0.990629 0.331590
Si Si6 0.604602 0.121266 0.613761
Si Si7 0.101972 0.975219 0.894599
O O1 0.867804 0.385750 0.727001
O O2 0.903719 0.465621 0.610060
O O3 0.854443 0.380060 0.507445
O O4 0.000000 0.385089 0.595075
O O5 0.162984 0.676504 0.887313
O O6 0.104227 0.585098 0.900801
O O7 0.250000 0.608758 0.000000
O O8 0.096949 0.642700 0.071347
O O9 0.814693 0.697433 0.213777
O O10 0.000000 0.680355 0.220845
O O11 0.671587 0.750000 0.249888
O O12 0.670006 0.657425 0.319243
O O13 0.609828 0.936321 0.349216
O O14 0.655846 0.998113 0.204197
O O15 0.750000 0.000000 0.378802
O O16 0.500000 0.138354 0.624232
O O17 0.000000 0.993078 0.880070
O O18 0.144505 0.000000 0.000000
#
# Coordination Sequence:
#
# PCOD8281149 Si02
#       7
#    16  16  16  16  16  16  16
#     4  10  22  41  65  94 130 173 217 265 327 402
#     4  10  22  38  64  94 130 171 217 275 328 393
#     4  10  22  42  67  97 134 173 218 273 335 402
#     4  11  25  45  69  99 131 172 227 285 338 388
#     4  12  24  35  59  94 132 173 218 265 325 398
#     4  11  24  44  67  94 132 175 222 279 334 394
#     4  11  23  36  56  88 129 176 217 259 322 396
#
# _framework density 22.505406000000001
#
# number of rings (size 3 to 8) (size 9 to 14) (size 15 to 20)
#    0.000    1.286    1.429    3.857    4.000   10.000 
#    0.000    1.429    0.000    2.571    0.000    0.000 
#    0.000    0.000    0.000    0.000    0.000    0.000 
#
# Total GULP energy -693806.015899 kJ/mol
# GULP energy per Si atom -12389.393141 kJ/mol
# Density = 2.245418 g / cm^3
# Si number density = 22.505406 Si / 1000 Ang^3
#
#
#
# Elastic Constant Matrix: (Units=GPa)
#
#
# Indices 1 2 3 4 5 6 
#
# 1 87.3295 23.0417 32.6066 0.0000 0.0000 0.0000
# 2 23.0417 107.8049 50.3387 0.0000 0.0000 0.0000
# 3 32.6066 50.3387 155.7996 0.0000 0.0000 0.0000
# 4 0.0000 0.0000 0.0000 20.2864 0.0000 0.0000
# 5 0.0000 0.0000 0.0000 0.0000 0.4113 0.0000
# 6 0.0000 0.0000 0.0000 0.0000 0.0000 19.0142
#
#
#
# Elastic Compliance Matrix: (Units=1/GPa)
#
#
# Indices 1 2 3 4 5 6 
#
# 1 0.012691 -0.001734 -0.002096 0.000000 0.000000 0.000000
# 2 -0.001734 0.011161 -0.003243 0.000000 0.000000 0.000000
# 3 -0.002096 -0.003243 0.007905 0.000000 0.000000 0.000000
# 4 0.000000 0.000000 0.000000 0.049294 0.000000 0.000000
# 5 0.000000 0.000000 0.000000 0.000000 2.431024 0.000000
# 6 0.000000 0.000000 0.000000 0.000000 0.000000 0.052592
#
#
# Mechanical properties :
#
#
# Convention : Reuss Voigt Hill
#
# Bulk Modulus (GPa) = 56.78243 62.54533 59.66388
# Shear Modulus (GPa) = 1.93447 24.27218 13.10333
#
# Velocity S-wave (km/s) = 0.92813 3.28762 2.41556
# Velocity P-wave (km/s) = 5.14139 6.50099 5.86075
#
# Compressibility (1/GPa) = 0.01761108
#
# Stress axis : x y z
#
# Youngs Moduli (GPa) = 78.79680 89.59760 126.50200
#
# Poissons Ratio (x) = 0.15535 0.26512
# Poissons Ratio (y) = 0.13662 0.41028
# Poissons Ratio (z) = 0.16514 0.29059
#
# Static dielectric constant tensor:
#      x y z
#    x 3.993890 0.000000 0.000000 
#    y 0.000000 3.651890 0.000000 
#    z 0.000000 0.000000 4.453560 
# 
# 
# High freq. dielectric constant tensor:
#      x y z
#    x 1.889970 0.000000 0.000000 
#    y 0.000000 1.848080 0.000000 
#    z 0.000000 0.000000 1.905920 
# 
# From -- ./inp_files/18628.got.cif
#   From: 2010.03.12/outbox.cif.g09.slc.cpg/sg67_10_cif.got.tgz:18628.got - 2010.04.10 22:41:39.
