data_PCOD8281726
_publ_section_title
;
Structure prediction by ZEFSAII (Michael W. Deem and Ramdas Pophale) SiO2 
 PCOD8281726
Probable space group: C C C A
;
_chemical_formula_sum "Si O2"
_cell_formula_units_Z 128
_cell_length_a 12.215530
_cell_length_b 25.004574
_cell_length_c 23.961199
_cell_angle_alpha 90.000000
_cell_angle_beta 90.000000
_cell_angle_gamma 90.000000
_cell_volume 7318.807435
_symmetry_space_group_name_H-M "C C C A"
_symmetry_group_IT_number 68
_space_group.IT_coordinate_system_code '2'
_symmetry_cell_setting 'orthorhombic'
loop_
_space_group_symop_operation_xyz
x,y,z
-x,1/2-y,z
x,1/2-y,1/2-z
-x,y,1/2-z
-x,-y,-z
x,1/2+y,-z
-x,1/2+y,1/2+z
x,-y,1/2+z
1/2+x,1/2+y,z
1/2-x,-y,z
1/2+x,-y,1/2-z
1/2-x,1/2+y,1/2-z
1/2-x,1/2-y,-z
1/2+x,y,-z
1/2-x,y,1/2+z
1/2+x,1/2-y,1/2+z
loop_
_atom_site_type_symbol
_atom_site_label
_atom_site_fract_x
_atom_site_fract_y
_atom_site_fract_z
Si Si1 0.829084 0.544078 0.866454
Si Si2 0.973370 0.687843 0.465194
Si Si3 0.648471 0.889777 0.936476
Si Si4 0.188689 0.946747 0.635128
Si Si5 0.478693 0.004008 0.063723
Si Si6 0.504359 0.611545 0.188224
Si Si7 0.971610 0.310525 0.412371
Si Si8 0.756531 0.636172 0.944227
O O1 0.750000 0.500000 0.838062
O O2 0.757623 0.585710 0.902742
O O3 0.910428 0.510075 0.904856
O O4 0.895939 0.575499 0.819105
O O5 0.858364 0.667592 0.440791
O O6 0.000000 0.750000 0.459902
O O7 0.075332 0.663195 0.431033
O O8 0.969047 0.670783 0.530562
O O9 0.733215 0.898357 0.885635
O O10 0.559471 0.935895 0.927929
O O11 0.713293 0.887621 0.995122
O O12 0.112499 0.925431 0.684927
O O13 0.250000 0.000000 0.657300
O O14 0.115832 0.962787 0.581589
O O15 0.500000 0.000000 0.000000
O O16 0.500000 0.637526 0.250000
O O17 0.514030 0.655449 0.139881
O O18 0.842716 0.319293 0.422767
O O19 0.000000 0.250000 0.397633
#
# Coordination Sequence:
#
# PCOD8281726 Si02
#       8
#    16  16  16  16  16  16  16  16
#     4  10  20  31  49  75 102 133 166 201 244 293
#     4  10  21  33  48  73 104 139 167 192 244 306
#     4  10  19  29  48  70 103 139 164 197 237 294
#     4   9  20  32  47  74 102 133 168 198 241 296
#     4  10  18  28  46  74 105 134 165 193 237 293
#     4  10  21  37  53  71  96 127 170 219 254 286
#     4   9  20  35  51  73  98 126 167 211 251 298
#     4  10  19  30  48  72 104 136 166 196 235 298
#
# _framework density 17.489187999999999
#
# number of rings (size 3 to 8) (size 9 to 14) (size 15 to 20)
#    0.000    2.250    1.250    1.500    5.250    6.250 
#    0.000    0.000    0.000    0.000    0.000    0.000 
#    0.000    4.000    0.000    0.000    0.000    0.000 
#
# Total GULP energy -793062.627735 kJ/mol
# GULP energy per Si atom -12391.603558 kJ/mol
# Density = 1.744938 g / cm^3
# Si number density = 17.489188 Si / 1000 Ang^3
#
#
#
# Elastic Constant Matrix: (Units=GPa)
#
#
# Indices 1 2 3 4 5 6 
#
# 1 95.6725 52.3027 25.0122 0.0000 0.0000 0.0000
# 2 52.3027 97.6511 25.5468 0.0000 0.0000 0.0000
# 3 25.0122 25.5468 49.4217 0.0000 0.0000 0.0000
# 4 0.0000 0.0000 0.0000 14.8782 0.0000 0.0000
# 5 0.0000 0.0000 0.0000 0.0000 7.3816 0.0000
# 6 0.0000 0.0000 0.0000 0.0000 0.0000 34.7629
#
#
#
# Elastic Compliance Matrix: (Units=1/GPa)
#
#
# Indices 1 2 3 4 5 6 
#
# 1 0.015467 -0.007211 -0.004100 0.000000 0.000000 0.000000
# 2 -0.007211 0.015204 -0.004210 0.000000 0.000000 0.000000
# 3 -0.004100 -0.004210 0.024485 0.000000 0.000000 0.000000
# 4 0.000000 0.000000 0.000000 0.067212 0.000000 0.000000
# 5 0.000000 0.000000 0.000000 0.000000 0.135472 0.000000
# 6 0.000000 0.000000 0.000000 0.000000 0.000000 0.028766
#
#
# Mechanical properties :
#
#
# Convention : Reuss Voigt Hill
#
# Bulk Modulus (GPa) = 41.46979 49.82985 45.64982
# Shear Modulus (GPa) = 15.35218 20.73011 18.04114
#
# Velocity S-wave (km/s) = 2.96600 3.44657 3.21528
# Velocity P-wave (km/s) = 5.95757 6.66274 6.32000
#
# Compressibility (1/GPa) = 0.02411394
#
# Stress axis : x y z
#
# Youngs Moduli (GPa) = 64.65560 65.77066 40.84133
#
# Poissons Ratio (x) = 0.47430 0.16744
# Poissons Ratio (y) = 0.46626 0.17193
# Poissons Ratio (z) = 0.26508 0.27687
#
# Static dielectric constant tensor:
#      x y z
#    x 3.426990 0.000000 0.000000 
#    y 0.000000 3.275030 0.000000 
#    z 0.000000 0.000000 2.841510 
# 
# 
# High freq. dielectric constant tensor:
#      x y z
#    x 1.689120 0.000000 0.000000 
#    y 0.000000 1.677630 0.000000 
#    z 0.000000 0.000000 1.630420 
# 
# From -- ./inp_files/44740.got.cif
#   From: 2010.03.12/outbox.cif.g09.slc.cpg/sg68_23_cif.got.tgz:44740.got - 2010.04.10 23:14:56.
