data_PCOD8281616
_publ_section_title
;
Structure prediction by ZEFSAII (Michael W. Deem and Ramdas Pophale) SiO2 
 PCOD8281616
Probable space group: C C C A
;
_chemical_formula_sum "Si O2"
_cell_formula_units_Z 68
_cell_length_a 19.128349
_cell_length_b 33.588051
_cell_length_c 5.408603
_cell_angle_alpha 90.000000
_cell_angle_beta 90.000000
_cell_angle_gamma 90.000000
_cell_volume 3474.940683
_symmetry_space_group_name_H-M "C C C A"
_symmetry_group_IT_number 68
_space_group.IT_coordinate_system_code '2'
_symmetry_cell_setting 'orthorhombic'
loop_
_space_group_symop_operation_xyz
x,y,z
-x,1/2-y,z
x,1/2-y,1/2-z
-x,y,1/2-z
-x,-y,-z
x,1/2+y,-z
-x,1/2+y,1/2+z
x,-y,1/2+z
1/2+x,1/2+y,z
1/2-x,-y,z
1/2+x,-y,1/2-z
1/2-x,1/2+y,1/2-z
1/2-x,1/2-y,-z
1/2+x,y,-z
1/2-x,y,1/2+z
1/2+x,1/2-y,1/2+z
loop_
_atom_site_type_symbol
_atom_site_label
_atom_site_fract_x
_atom_site_fract_y
_atom_site_fract_z
Si Si1 0.456923 0.397423 0.497649
Si Si2 0.500000 0.250000 0.250000
Si Si3 0.420019 0.516057 0.003800
Si Si4 0.931105 0.687621 0.909263
Si Si5 0.282142 0.204120 0.746228
O O1 0.500000 0.395533 0.750000
O O2 0.408994 0.436364 0.517937
O O3 0.415583 0.355499 0.465678
O O4 0.500000 0.404115 0.250000
O O5 0.445316 0.277375 0.396964
O O6 0.382916 0.498802 0.251006
O O7 0.500000 0.500000 0.000000
O O8 0.865688 0.699100 0.738992
O O9 0.000000 0.683871 0.750000
O O10 0.259994 0.250000 0.750000
O O11 0.249843 0.184247 0.497274
#
# Coordination Sequence:
#
# PCOD8281616 Si02
#       5
#    16   4  16  16  16
#     4  11  19  31  46  75 107 145 172 220 273 333
#     4  12  22  36  56  78 116 148 188 228 294 332
#     4  10  15  25  45  66 101 141 170 207 264 332
#     4  11  25  37  56  83 117 148 190 234 292 344
#     4  10  23  40  61  80 105 145 197 241 279 333
#
# _framework density 19.568680000000001
#
# number of rings (size 3 to 8) (size 9 to 14) (size 15 to 20)
#    0.000    1.412    5.882    1.765    8.235    0.000 
#    0.000    0.000    0.000    0.000    0.000    0.000 
#    0.000    5.647    0.000    0.000    0.000    0.000 
#
# Total GULP energy -421233.251160 kJ/mol
# GULP energy per Si atom -12389.213269 kJ/mol
# Density = 1.952414 g / cm^3
# Si number density = 19.568680 Si / 1000 Ang^3
#
#
#
# Elastic Constant Matrix: (Units=GPa)
#
#
# Indices 1 2 3 4 5 6 
#
# 1 74.1846 5.1229 33.1794 0.0000 0.0000 0.0000
# 2 5.1229 152.7628 44.6296 0.0000 0.0000 0.0000
# 3 33.1794 44.6296 173.3328 0.0000 0.0000 0.0000
# 4 0.0000 0.0000 0.0000 33.0722 0.0000 0.0000
# 5 0.0000 0.0000 0.0000 0.0000 17.5748 0.0000
# 6 0.0000 0.0000 0.0000 0.0000 0.0000 -3.5033
#
#
#
# Elastic Compliance Matrix: (Units=1/GPa)
#
#
# Indices 1 2 3 4 5 6 
#
# 1 0.014760 0.000357 -0.002917 0.000000 0.000000 0.000000
# 2 0.000357 0.007087 -0.001893 0.000000 0.000000 0.000000
# 3 -0.002917 -0.001893 0.006815 0.000000 0.000000 0.000000
# 4 0.000000 0.000000 0.000000 0.030237 0.000000 0.000000
# 5 0.000000 0.000000 0.000000 0.000000 0.056900 0.000000
# 6 0.000000 0.000000 0.000000 0.000000 0.000000 -0.285444
#
#
# Mechanical properties :
#
#
# Convention : Reuss Voigt Hill
#
# Bulk Modulus (GPa) = 50.61783 62.90491 56.76137
# Shear Modulus (GPa) = -32.43524 30.58528 -0.92498
#
# Velocity S-wave (km/s) = -4.07567 3.95773 -0.68827
# Velocity P-wave (km/s) = 1.94289 7.28700 5.33269
#
# Compressibility (1/GPa) = 0.01975588
#
# Stress axis : x y z
#
# Youngs Moduli (GPa) = 67.75054 141.09913 146.73172
#
# Poissons Ratio (x) = -0.05042 0.42807
# Poissons Ratio (y) = -0.02421 0.27779
# Poissons Ratio (z) = 0.19765 0.26713
#
# Static dielectric constant tensor:
#      x y z
#    x 2.871560 0.000000 0.000000 
#    y 0.000000 4.307240 0.000000 
#    z 0.000000 0.000000 4.329850 
# 
# 
# High freq. dielectric constant tensor:
#      x y z
#    x 1.681460 0.000000 0.000000 
#    y 0.000000 1.766020 0.000000 
#    z 0.000000 0.000000 1.792310 
# 
# From -- ./inp_files/1642.got.cif
#   From: 2010.03.12/outbox.cif.g09.slc.cpg/sg68_1_cif.got.tgz:1642.got - 2010.04.10 23:14:56.
