data_PCOD8281926
_publ_section_title
;
Structure prediction by ZEFSAII (Michael W. Deem and Ramdas Pophale) SiO2 
 PCOD8281926
Probable space group: C C C A
;
_chemical_formula_sum "Si O2"
_cell_formula_units_Z 88
_cell_length_a 21.061594
_cell_length_b 22.057668
_cell_length_c 10.286197
_cell_angle_alpha 90.000000
_cell_angle_beta 90.000000
_cell_angle_gamma 90.000000
_cell_volume 4778.654920
_symmetry_space_group_name_H-M "C C C A"
_symmetry_group_IT_number 68
_space_group.IT_coordinate_system_code '2'
_symmetry_cell_setting 'orthorhombic'
loop_
_space_group_symop_operation_xyz
x,y,z
-x,1/2-y,z
x,1/2-y,1/2-z
-x,y,1/2-z
-x,-y,-z
x,1/2+y,-z
-x,1/2+y,1/2+z
x,-y,1/2+z
1/2+x,1/2+y,z
1/2-x,-y,z
1/2+x,-y,1/2-z
1/2-x,1/2+y,1/2-z
1/2-x,1/2-y,-z
1/2+x,y,-z
1/2-x,y,1/2+z
1/2+x,1/2-y,1/2+z
loop_
_atom_site_type_symbol
_atom_site_label
_atom_site_fract_x
_atom_site_fract_y
_atom_site_fract_z
Si Si1 0.324473 0.287911 0.868827
Si Si2 0.850456 0.589022 0.026298
Si Si3 0.674851 0.721472 0.619122
Si Si4 0.541887 0.506420 0.628004
Si Si5 0.642642 0.417625 0.725241
Si Si6 0.250000 0.500000 0.375624
O O1 0.354893 0.250000 0.750000
O O2 0.250151 0.275337 0.872311
O O3 0.340376 0.358397 0.857104
O O4 0.353201 0.262576 0.002907
O O5 0.843687 0.652130 0.099816
O O6 0.907094 0.557960 0.103055
O O7 0.786330 0.548889 0.034456
O O8 0.867422 0.598959 0.875671
O O9 0.644994 0.750000 0.750000
O O10 0.500000 0.527365 0.750000
O O11 0.500000 0.500000 0.500000
O O12 0.577746 0.443863 0.664283
O O13 0.699764 0.465758 0.715851
#
# Coordination Sequence:
#
# PCOD8281926 Si02
#       6
#    16  16  16  16  16   8
#     4  10  19  34  57  85 124 161 192 236 295 372
#     4  11  21  38  61  86 126 158 197 258 297 372
#     4  10  21  34  55  89 125 160 194 236 301 365
#     4  11  24  43  63  89 115 160 212 255 307 349
#     4  11  21  37  62  86 124 159 198 255 297 373
#     4  10  22  32  54  96 124 152 200 240 316 356
#
# _framework density 18.415223999999998
#
# number of rings (size 3 to 8) (size 9 to 14) (size 15 to 20)
#    0.000    1.455    5.455    0.545    0.000    1.455 
#    3.273    0.000    0.000    6.545    0.000    0.000 
#    0.000    0.000    0.000    0.000    0.000    0.000 
#
# Total GULP energy -545593.303405 kJ/mol
# GULP energy per Si atom -12399.847805 kJ/mol
# Density = 1.837331 g / cm^3
# Si number density = 18.415224 Si / 1000 Ang^3
#
#
#
# Elastic Constant Matrix: (Units=GPa)
#
#
# Indices 1 2 3 4 5 6 
#
# 1 63.0074 25.4918 41.4421 0.0000 0.0000 0.0000
# 2 25.4918 133.1687 67.7864 0.0000 0.0000 0.0000
# 3 41.4421 67.7864 162.9651 0.0000 0.0000 0.0000
# 4 0.0000 0.0000 0.0000 35.4372 0.0000 0.0000
# 5 0.0000 0.0000 0.0000 0.0000 19.3834 0.0000
# 6 0.0000 0.0000 0.0000 0.0000 0.0000 23.3154
#
#
#
# Elastic Compliance Matrix: (Units=1/GPa)
#
#
# Indices 1 2 3 4 5 6 
#
# 1 0.019298 -0.001517 -0.004276 0.000000 0.000000 0.000000
# 2 -0.001517 0.009646 -0.003626 0.000000 0.000000 0.000000
# 3 -0.004276 -0.003626 0.008732 0.000000 0.000000 0.000000
# 4 0.000000 0.000000 0.000000 0.028219 0.000000 0.000000
# 5 0.000000 0.000000 0.000000 0.000000 0.051590 0.000000
# 6 0.000000 0.000000 0.000000 0.000000 0.000000 0.042890
#
#
# Mechanical properties :
#
#
# Convention : Reuss Voigt Hill
#
# Bulk Modulus (GPa) = 53.09085 69.84243 61.46664
# Shear Modulus (GPa) = 26.95515 30.58860 28.77187
#
# Velocity S-wave (km/s) = 3.83004 4.08002 3.95700
# Velocity P-wave (km/s) = 6.96070 7.75914 7.37074
#
# Compressibility (1/GPa) = 0.01883564
#
# Stress axis : x y z
#
# Youngs Moduli (GPa) = 51.81971 103.67410 114.51966
#
# Poissons Ratio (x) = 0.15731 0.48972
# Poissons Ratio (y) = 0.07863 0.41528
# Poissons Ratio (z) = 0.22160 0.37595
#
# Static dielectric constant tensor:
#      x y z
#    x 3.178600 0.000000 0.000000 
#    y 0.000000 3.425220 0.000000 
#    z 0.000000 0.000000 3.608750 
# 
# 
# High freq. dielectric constant tensor:
#      x y z
#    x 1.684000 0.000000 0.000000 
#    y 0.000000 1.720750 0.000000 
#    z 0.000000 0.000000 1.728300 
# 
# From -- ./inp_files/7131.got.cif
#   From: 2010.03.12/outbox.cif.g09.slc.cpg/sg68_4_cif.got.tgz:7131.got - 2010.04.10 23:14:56.
