data_PCOD8281518
_publ_section_title
;
Structure prediction by ZEFSAII (Michael W. Deem and Ramdas Pophale) SiO2 
 PCOD8281518
Probable space group: C M M A
;
_chemical_formula_sum "Si O2"
_cell_formula_units_Z 112
_cell_length_a 13.997455
_cell_length_b 27.823264
_cell_length_c 14.939224
_cell_angle_alpha 90.000000
_cell_angle_beta 90.000000
_cell_angle_gamma 90.000000
_cell_volume 5818.153777
_symmetry_space_group_name_H-M "C M M A"
_symmetry_group_IT_number 67
_symmetry_cell_setting 'orthorhombic'
loop_
_space_group_symop_operation_xyz
x,y,z
-x,1/2-y,z
x,-y,-z
-x,1/2+y,-z
-x,-y,-z
x,1/2+y,-z
-x,y,z
x,1/2-y,z
1/2+x,1/2+y,z
1/2-x,-y,z
1/2+x,1/2-y,-z
1/2-x,y,-z
1/2-x,1/2-y,-z
1/2+x,y,-z
1/2-x,1/2+y,z
1/2+x,-y,z
loop_
_atom_site_type_symbol
_atom_site_label
_atom_site_fract_x
_atom_site_fract_y
_atom_site_fract_z
Si Si1 0.607390 0.194979 0.180571
Si Si2 0.110881 0.195715 0.174015
Si Si3 0.299889 0.450758 0.253159
Si Si4 0.763381 0.124961 0.900941
Si Si5 0.000000 0.968124 0.352733
Si Si6 0.743013 0.197267 0.666339
Si Si7 0.297485 0.601997 0.413157
Si Si8 0.500000 0.070004 0.548902
O O1 0.500000 0.179057 0.201465
O O2 0.614214 0.250000 0.150124
O O3 0.649945 0.163494 0.099720
O O4 0.667571 0.184994 0.269856
O O5 0.130202 0.250000 0.135391
O O6 0.166447 0.153699 0.122220
O O7 0.145566 0.195167 0.276675
O O8 0.000000 0.182684 0.170078
O O9 0.250000 0.500000 0.224484
O O10 0.294525 0.417298 0.165987
O O11 0.407490 0.458098 0.290464
O O12 0.233282 0.427778 0.327840
O O13 0.750000 0.103134 0.000000
O O14 0.000000 0.934866 0.440970
O O15 0.000000 0.021372 0.393416
O O16 0.756233 0.250000 0.622453
O O17 0.738749 0.157036 0.590422
O O18 0.250000 0.577296 0.500000
O O19 0.410522 0.601491 0.421975
#
# Coordination Sequence:
#
# PCOD8281518 Si02
#       8
#    16  16  16  16   8  16  16   8
#     4   9  18  35  62  92 122 160 206 255 310 366
#     4   9  18  35  60  88 119 155 200 252 305 356
#     4  12  25  44  66  90 123 163 202 255 319 370
#     4  11  24  40  61  89 122 161 206 253 299 369
#     4  11  24  42  66  94 125 157 201 264 324 370
#     4   9  19  36  58  88 125 165 203 243 294 365
#     4  12  23  39  63  94 125 162 203 251 310 371
#     4  11  24  38  65  99 124 152 207 268 314 374
#
# _framework density 19.250091999999999
#
# number of rings (size 3 to 8) (size 9 to 14) (size 15 to 20)
#    0.000    1.571    5.714    1.286    2.000    2.571 
#    2.571    1.429    0.000    0.857    0.000    0.000 
#    0.000    0.000    0.000    0.000    0.000    0.000 
#
# Total GULP energy -694137.962372 kJ/mol
# GULP energy per Si atom -12395.320757 kJ/mol
# Density = 1.920628 g / cm^3
# Si number density = 19.250092 Si / 1000 Ang^3
#
#
#
# Elastic Constant Matrix: (Units=GPa)
#
#
# Indices 1 2 3 4 5 6 
#
# 1 158.3186 45.1996 42.6601 0.0000 0.0000 0.0000
# 2 45.1996 90.7983 45.6668 0.0000 0.0000 0.0000
# 3 42.6601 45.6668 106.5207 0.0000 0.0000 0.0000
# 4 0.0000 0.0000 0.0000 10.6071 0.0000 0.0000
# 5 0.0000 0.0000 0.0000 0.0000 11.2772 0.0000
# 6 0.0000 0.0000 0.0000 0.0000 0.0000 24.0727
#
#
#
# Elastic Compliance Matrix: (Units=1/GPa)
#
#
# Indices 1 2 3 4 5 6 
#
# 1 0.007630 -0.002883 -0.001820 0.000000 0.000000 0.000000
# 2 -0.002883 0.015130 -0.005332 0.000000 0.000000 0.000000
# 3 -0.001820 -0.005332 0.012402 0.000000 0.000000 0.000000
# 4 0.000000 0.000000 0.000000 0.094276 0.000000 0.000000
# 5 0.000000 0.000000 0.000000 0.000000 0.088674 0.000000
# 6 0.000000 0.000000 0.000000 0.000000 0.000000 0.041541
#
#
# Mechanical properties :
#
#
# Convention : Reuss Voigt Hill
#
# Bulk Modulus (GPa) = 66.25420 69.18787 67.72104
# Shear Modulus (GPa) = 17.55900 23.99880 20.77890
#
# Velocity S-wave (km/s) = 3.02346 3.53467 3.28901
# Velocity P-wave (km/s) = 6.83233 7.25797 7.04837
#
# Compressibility (1/GPa) = 0.01509338
#
# Stress axis : x y z
#
# Youngs Moduli (GPa) = 131.06552 66.09275 80.62898
#
# Poissons Ratio (x) = 0.19054 0.14672
# Poissons Ratio (y) = 0.37785 0.42991
# Poissons Ratio (z) = 0.23850 0.35240
#
# Static dielectric constant tensor:
#      x y z
#    x 3.722820 0.000000 0.000000 
#    y 0.000000 3.644720 0.000000 
#    z 0.000000 0.000000 3.288790 
# 
# 
# High freq. dielectric constant tensor:
#      x y z
#    x 1.758940 0.000000 0.000000 
#    y 0.000000 1.749740 0.000000 
#    z 0.000000 0.000000 1.724240 
# 
# From -- ./inp_files/27774.got.cif
#   From: 2010.03.12/outbox.cif.g09.slc.cpg/sg67_14_cif.got.tgz:27774.got - 2010.04.10 22:41:39.
