data_PCOD8281395
_publ_section_title
;
Structure prediction by ZEFSAII (Michael W. Deem and Ramdas Pophale) SiO2 
 PCOD8281395
Probable space group: C M M A
;
_chemical_formula_sum "Si O2"
_cell_formula_units_Z 88
_cell_length_a 18.326004
_cell_length_b 9.601833
_cell_length_c 29.642035
_cell_angle_alpha 90.000000
_cell_angle_beta 90.000000
_cell_angle_gamma 90.000000
_cell_volume 5215.908221
_symmetry_space_group_name_H-M "C M M A"
_symmetry_group_IT_number 67
_symmetry_cell_setting 'orthorhombic'
loop_
_space_group_symop_operation_xyz
x,y,z
-x,1/2-y,z
x,-y,-z
-x,1/2+y,-z
-x,-y,-z
x,1/2+y,-z
-x,y,z
x,1/2-y,z
1/2+x,1/2+y,z
1/2-x,-y,z
1/2+x,1/2-y,-z
1/2-x,y,-z
1/2-x,1/2-y,-z
1/2+x,y,-z
1/2-x,1/2+y,z
1/2+x,-y,z
loop_
_atom_site_type_symbol
_atom_site_label
_atom_site_fract_x
_atom_site_fract_y
_atom_site_fract_z
Si Si1 0.086875 0.906446 0.960281
Si Si2 0.500000 0.593760 0.456571
Si Si3 0.419083 0.906985 0.370701
Si Si4 0.913255 0.093400 0.139020
Si Si5 0.083864 0.089912 0.779773
Si Si6 0.176558 0.914656 0.308441
O O1 0.114419 0.750000 0.968361
O O2 0.113073 0.958190 0.910622
O O3 0.000000 0.912160 0.962385
O O4 0.121554 0.000000 0.000000
O O5 0.500000 0.750000 0.474993
O O6 0.500000 0.500000 0.500000
O O7 0.571692 0.569062 0.424882
O O8 0.500000 0.921156 0.348294
O O9 0.388976 0.750000 0.361343
O O10 0.365184 0.024220 0.351842
O O11 0.885312 0.250000 0.147823
O O12 0.000000 0.088813 0.140179
O O13 0.881705 0.995514 0.178391
O O14 0.091252 0.250000 0.793205
O O15 0.128061 0.054123 0.735102
O O16 0.000000 0.048623 0.770793
O O17 0.190795 0.750000 0.315458
O O18 0.250000 0.000000 0.301804
#
# Coordination Sequence:
#
# PCOD8281395 Si02
#       6
#    16   8  16  16  16  16
#     4   8  13  20  30  47  73 104 138 174 215 267
#     4   8  16  30  52  82 110 134 164 202 239 280
#     4   8  17  33  52  76 104 132 164 201 238 283
#     4   8  14  24  37  55  79 109 145 183 225 274
#     4   9  18  31  46  65  89 117 154 197 237 282
#     4  11  22  34  49  70  98 131 166 204 246 291
#
# _framework density 16.871462999999999
#
# number of rings (size 3 to 8) (size 9 to 14) (size 15 to 20)
#    0.545    2.727    0.000    2.182    0.000    4.000 
#    0.000    5.455    0.000    0.545    0.000    3.818 
#    0.000    0.727    0.000    8.000    0.000   13.091 
#
# Total GULP energy -545123.210254 kJ/mol
# GULP energy per Si atom -12389.163869 kJ/mol
# Density = 1.683306 g / cm^3
# Si number density = 16.871463 Si / 1000 Ang^3
#
#
#
# Elastic Constant Matrix: (Units=GPa)
#
#
# Indices 1 2 3 4 5 6 
#
# 1 45.4125 40.0176 36.0360 0.0000 0.0000 0.0000
# 2 40.0176 112.1717 85.1615 0.0000 0.0000 0.0000
# 3 36.0360 85.1615 132.9363 0.0000 0.0000 0.0000
# 4 0.0000 0.0000 0.0000 39.1061 0.0000 0.0000
# 5 0.0000 0.0000 0.0000 0.0000 0.7651 0.0000
# 6 0.0000 0.0000 0.0000 0.0000 0.0000 19.4291
#
#
#
# Elastic Compliance Matrix: (Units=1/GPa)
#
#
# Indices 1 2 3 4 5 6 
#
# 1 0.032607 -0.009583 -0.002700 0.000000 0.000000 0.000000
# 2 -0.009583 0.020173 -0.010325 0.000000 0.000000 0.000000
# 3 -0.002700 -0.010325 0.014869 0.000000 0.000000 0.000000
# 4 0.000000 0.000000 0.000000 0.025571 0.000000 0.000000
# 5 0.000000 0.000000 0.000000 0.000000 1.306951 0.000000
# 6 0.000000 0.000000 0.000000 0.000000 0.000000 0.051469
#
#
# Mechanical properties :
#
#
# Convention : Reuss Voigt Hill
#
# Bulk Modulus (GPa) = 44.57835 68.10562 56.34199
# Shear Modulus (GPa) = 3.32373 20.48044 11.90208
#
# Velocity S-wave (km/s) = 1.40510 3.48790 2.65892
# Velocity P-wave (km/s) = 5.39556 7.52832 6.54934
#
# Compressibility (1/GPa) = 0.02243241
#
# Stress axis : x y z
#
# Youngs Moduli (GPa) = 30.66789 49.57216 67.25425
#
# Poissons Ratio (x) = 0.47504 0.18160
# Poissons Ratio (y) = 0.29388 0.69442
# Poissons Ratio (z) = 0.08281 0.51185
#
# Static dielectric constant tensor:
#      x y z
#    x 2.701960 0.000000 0.000000 
#    y 0.000000 3.242360 0.000000 
#    z 0.000000 0.000000 3.254900 
# 
# 
# High freq. dielectric constant tensor:
#      x y z
#    x 1.595070 0.000000 0.000000 
#    y 0.000000 1.655060 0.000000 
#    z 0.000000 0.000000 1.652370 
# 
# From -- ./inp_files/45846.got.cif
#   From: 2010.03.12/outbox.cif.g09.slc.cpg/sg67_23_cif.got.tgz:45846.got - 2010.04.10 22:41:39.
