data_PCOD8281717
_publ_section_title
;
Structure prediction by ZEFSAII (Michael W. Deem and Ramdas Pophale) SiO2 
 PCOD8281717
Probable space group: C C C A
;
_chemical_formula_sum "Si O2"
_cell_formula_units_Z 88
_cell_length_a 15.067605
_cell_length_b 14.291277
_cell_length_c 21.226219
_cell_angle_alpha 90.000000
_cell_angle_beta 90.000000
_cell_angle_gamma 90.000000
_cell_volume 4570.754592
_symmetry_space_group_name_H-M "C C C A"
_symmetry_group_IT_number 68
_space_group.IT_coordinate_system_code '2'
_symmetry_cell_setting 'orthorhombic'
loop_
_space_group_symop_operation_xyz
x,y,z
-x,1/2-y,z
x,1/2-y,1/2-z
-x,y,1/2-z
-x,-y,-z
x,1/2+y,-z
-x,1/2+y,1/2+z
x,-y,1/2+z
1/2+x,1/2+y,z
1/2-x,-y,z
1/2+x,-y,1/2-z
1/2-x,1/2+y,1/2-z
1/2-x,1/2-y,-z
1/2+x,y,-z
1/2-x,y,1/2+z
1/2+x,1/2-y,1/2+z
loop_
_atom_site_type_symbol
_atom_site_label
_atom_site_fract_x
_atom_site_fract_y
_atom_site_fract_z
Si Si1 0.190942 0.418356 0.881308
Si Si2 0.943848 0.532306 0.695356
Si Si3 0.792220 0.146304 0.267742
Si Si4 0.750000 0.000000 0.665618
Si Si5 0.428178 0.521987 0.086966
Si Si6 0.960107 0.855232 0.469111
O O1 0.250000 0.500000 0.916776
O O2 0.131352 0.462561 0.826798
O O3 0.257310 0.357457 0.839850
O O4 0.130070 0.356289 0.927300
O O5 0.896524 0.620774 0.728717
O O6 0.000000 0.480516 0.750000
O O7 0.004276 0.563949 0.637622
O O8 0.777247 0.250000 0.250000
O O9 0.742917 0.087633 0.212947
O O10 0.833743 0.996082 0.618821
O O11 0.464237 0.423205 0.059280
O O12 0.425845 0.603865 0.035211
O O13 0.000000 0.750000 0.474547
#
# Coordination Sequence:
#
# PCOD8281717 Si02
#       6
#    16  16  16   8  16  16
#     4   9  19  38  61  84 121 159 201 254 315 367
#     4  10  17  38  60  82 119 162 190 248 307 368
#     4  11  22  35  61  93 121 154 202 251 315 375
#     4  12  22  42  60  92 126 160 204 254 310 376
#     4  10  23  40  65  85 127 165 207 252 314 362
#     4  10  23  42  63  91 120 165 217 255 303 371
#
# _framework density 19.252839000000002
#
# number of rings (size 3 to 8) (size 9 to 14) (size 15 to 20)
#    0.000    1.818    4.545    0.000    3.818    1.818 
#    0.000    0.909    0.000    0.000    0.000    0.000 
#    0.000    0.000    0.000    0.000    0.000    0.000 
#
# Total GULP energy -545090.934208 kJ/mol
# GULP energy per Si atom -12388.430323 kJ/mol
# Density = 1.920902 g / cm^3
# Si number density = 19.252839 Si / 1000 Ang^3
#
#
#
# Elastic Constant Matrix: (Units=GPa)
#
#
# Indices 1 2 3 4 5 6 
#
# 1 102.4496 40.3859 43.4338 0.0000 0.0000 0.0000
# 2 40.3859 131.9855 49.6085 0.0000 0.0000 0.0000
# 3 43.4338 49.6085 111.4716 0.0000 0.0000 0.0000
# 4 0.0000 0.0000 0.0000 15.2063 0.0000 0.0000
# 5 0.0000 0.0000 0.0000 0.0000 40.8508 0.0000
# 6 0.0000 0.0000 0.0000 0.0000 0.0000 17.7241
#
#
#
# Elastic Compliance Matrix: (Units=1/GPa)
#
#
# Indices 1 2 3 4 5 6 
#
# 1 0.012271 -0.002351 -0.003735 0.000000 0.000000 0.000000
# 2 -0.002351 0.009549 -0.003334 0.000000 0.000000 0.000000
# 3 -0.003735 -0.003334 0.011910 0.000000 0.000000 0.000000
# 4 0.000000 0.000000 0.000000 0.065762 0.000000 0.000000
# 5 0.000000 0.000000 0.000000 0.000000 0.024479 0.000000
# 6 0.000000 0.000000 0.000000 0.000000 0.000000 0.056420
#
#
# Mechanical properties :
#
#
# Convention : Reuss Voigt Hill
#
# Bulk Modulus (GPa) = 67.15617 68.08482 67.62049
# Shear Modulus (GPa) = 24.48646 28.92146 26.70396
#
# Velocity S-wave (km/s) = 3.57015 3.88002 3.72830
# Velocity P-wave (km/s) = 7.20774 7.45070 7.33023
#
# Compressibility (1/GPa) = 0.01489067
#
# Stress axis : x y z
#
# Youngs Moduli (GPa) = 81.49196 104.72400 83.96462
#
# Poissons Ratio (x) = 0.24620 0.31362
# Poissons Ratio (y) = 0.19158 0.27990
# Poissons Ratio (z) = 0.30438 0.34910
#
# Static dielectric constant tensor:
#      x y z
#    x 4.192870 0.000000 0.000000 
#    y 0.000000 3.247980 0.000000 
#    z 0.000000 0.000000 3.733600 
# 
# 
# High freq. dielectric constant tensor:
#      x y z
#    x 1.765110 0.000000 0.000000 
#    y 0.000000 1.716840 0.000000 
#    z 0.000000 0.000000 1.762330 
# 
# From -- ./inp_files/38477.got.cif
#   From: 2010.03.12/outbox.cif.g09.slc.cpg/sg68_20_cif.got.tgz:38477.got - 2010.04.10 23:14:56.
