data_PCOD8281154
_publ_section_title
;
Structure prediction by ZEFSAII (Michael W. Deem and Ramdas Pophale) SiO2 
 PCOD8281154
Probable space group: C M M A
;
_chemical_formula_sum "Si O2"
_cell_formula_units_Z 88
_cell_length_a 24.113864
_cell_length_b 13.738207
_cell_length_c 14.148477
_cell_angle_alpha 90.000000
_cell_angle_beta 90.000000
_cell_angle_gamma 90.000000
_cell_volume 4687.125220
_symmetry_space_group_name_H-M "C M M A"
_symmetry_group_IT_number 67
_symmetry_cell_setting 'orthorhombic'
loop_
_space_group_symop_operation_xyz
x,y,z
-x,1/2-y,z
x,-y,-z
-x,1/2+y,-z
-x,-y,-z
x,1/2+y,-z
-x,y,z
x,1/2-y,z
1/2+x,1/2+y,z
1/2-x,-y,z
1/2+x,1/2-y,-z
1/2-x,y,-z
1/2-x,1/2-y,-z
1/2+x,y,-z
1/2-x,1/2+y,z
1/2+x,-y,z
loop_
_atom_site_type_symbol
_atom_site_label
_atom_site_fract_x
_atom_site_fract_y
_atom_site_fract_z
Si Si1 0.561913 0.860462 0.875303
Si Si2 0.435653 0.138500 0.341744
Si Si3 0.289207 0.641988 0.089851
Si Si4 0.867259 0.000000 0.000000
Si Si5 0.169954 0.974357 0.393698
Si Si6 0.267451 0.638861 0.301120
O O1 0.500000 0.900419 0.884024
O O2 0.566126 0.750000 0.909832
O O3 0.581127 0.868640 0.767508
O O4 0.598473 0.921937 0.944166
O O5 0.500000 0.107258 0.359116
O O6 0.427591 0.250000 0.376947
O O7 0.393490 0.064636 0.393480
O O8 0.316273 0.750000 0.089282
O O9 0.256809 0.626485 0.188535
O O10 0.250000 0.630280 0.000000
O O11 0.334037 0.557493 0.080594
O O12 0.211420 0.891591 0.354909
O O13 0.186395 0.000000 0.500000
O O14 0.179938 0.072466 0.332117
O O15 0.281545 0.750000 0.327293
#
# Coordination Sequence:
#
# PCOD8281154 Si02
#       6
#    16  16  16   8  16  16
#     4   9  19  34  52  78 109 143 186 228 269 325
#     4   9  19  37  60  84 110 144 187 235 285 334
#     4  10  23  36  50  79 110 144 184 223 266 324
#     4  12  20  30  54  78 110 148 182 228 278 316
#     4  11  23  36  58  87 109 143 190 233 286 337
#     4  10  22  39  56  79 117 151 186 228 279 337
#
# _framework density 18.774833999999998
#
# number of rings (size 3 to 8) (size 9 to 14) (size 15 to 20)
#    0.000    2.000    0.000    4.909    7.636    2.545 
#    0.000    0.000    0.000    0.545    0.000    5.091 
#    0.000    0.000    0.000    0.000    0.000    0.000 
#
# Total GULP energy -545413.061773 kJ/mol
# GULP energy per Si atom -12395.751404 kJ/mol
# Density = 1.873210 g / cm^3
# Si number density = 18.774834 Si / 1000 Ang^3
#
#
#
# Elastic Constant Matrix: (Units=GPa)
#
#
# Indices 1 2 3 4 5 6 
#
# 1 86.5466 43.9048 36.3835 0.0000 0.0000 0.0000
# 2 43.9048 101.8290 39.9130 0.0000 0.0000 0.0000
# 3 36.3835 39.9130 108.5908 0.0000 0.0000 0.0000
# 4 0.0000 0.0000 0.0000 25.4071 0.0000 0.0000
# 5 0.0000 0.0000 0.0000 0.0000 23.8343 0.0000
# 6 0.0000 0.0000 0.0000 0.0000 0.0000 40.1503
#
#
#
# Elastic Compliance Matrix: (Units=1/GPa)
#
#
# Indices 1 2 3 4 5 6 
#
# 1 0.015708 -0.005503 -0.003241 0.000000 0.000000 0.000000
# 2 -0.005503 0.013401 -0.003082 0.000000 0.000000 0.000000
# 3 -0.003241 -0.003082 0.011427 0.000000 0.000000 0.000000
# 4 0.000000 0.000000 0.000000 0.039359 0.000000 0.000000
# 5 0.000000 0.000000 0.000000 0.000000 0.041956 0.000000
# 6 0.000000 0.000000 0.000000 0.000000 0.000000 0.024906
#
#
# Mechanical properties :
#
#
# Convention : Reuss Voigt Hill
#
# Bulk Modulus (GPa) = 59.21931 59.70767 59.46349
# Shear Modulus (GPa) = 28.40307 29.66268 29.03288
#
# Velocity S-wave (km/s) = 3.89373 3.97913 3.93666
# Velocity P-wave (km/s) = 7.19897 7.27889 7.23904
#
# Compressibility (1/GPa) = 0.01688638
#
# Stress axis : x y z
#
# Youngs Moduli (GPa) = 63.66088 74.62183 87.50900
#
# Poissons Ratio (x) = 0.41062 0.28358
# Poissons Ratio (y) = 0.35030 0.26969
# Poissons Ratio (z) = 0.20630 0.22998
#
# Static dielectric constant tensor:
#      x y z
#    x 3.368220 0.000000 0.000000 
#    y 0.000000 3.469420 0.000000 
#    z 0.000000 0.000000 2.195680 
# 
# 
# High freq. dielectric constant tensor:
#      x y z
#    x 1.714430 0.000000 0.000000 
#    y 0.000000 1.740140 0.000000 
#    z 0.000000 0.000000 1.726970 
# 
# From -- ./inp_files/21750.got.cif
#   From: 2010.03.12/outbox.cif.g09.slc.cpg/sg67_11_cif.got.tgz:21750.got - 2010.04.10 22:41:39.
