data_PCOD8281889
_publ_section_title
;
Structure prediction by ZEFSAII (Michael W. Deem and Ramdas Pophale) SiO2 
 PCOD8281889
Probable space group: C C C A
;
_chemical_formula_sum "Si O2"
_cell_formula_units_Z 96
_cell_length_a 8.521135
_cell_length_b 25.547859
_cell_length_c 24.239053
_cell_angle_alpha 90.000000
_cell_angle_beta 90.000000
_cell_angle_gamma 90.000000
_cell_volume 5276.763194
_symmetry_space_group_name_H-M "C C C A"
_symmetry_group_IT_number 68
_space_group.IT_coordinate_system_code '2'
_symmetry_cell_setting 'orthorhombic'
loop_
_space_group_symop_operation_xyz
x,y,z
-x,1/2-y,z
x,1/2-y,1/2-z
-x,y,1/2-z
-x,-y,-z
x,1/2+y,-z
-x,1/2+y,1/2+z
x,-y,1/2+z
1/2+x,1/2+y,z
1/2-x,-y,z
1/2+x,-y,1/2-z
1/2-x,1/2+y,1/2-z
1/2-x,1/2-y,-z
1/2+x,y,-z
1/2-x,y,1/2+z
1/2+x,1/2-y,1/2+z
loop_
_atom_site_type_symbol
_atom_site_label
_atom_site_fract_x
_atom_site_fract_y
_atom_site_fract_z
Si Si1 0.390415 0.601537 0.463279
Si Si2 0.185584 0.342607 0.611345
Si Si3 0.700356 0.057518 0.565984
Si Si4 0.401422 0.200467 0.981376
Si Si5 0.313481 0.746087 0.688697
Si Si6 0.824996 0.325795 0.597242
O O1 0.511785 0.558145 0.440791
O O2 0.283201 0.574667 0.509180
O O3 0.488534 0.649664 0.488542
O O4 0.283469 0.623326 0.413150
O O5 0.250933 0.401803 0.614218
O O6 0.257339 0.312758 0.558555
O O7 0.239309 0.310377 0.665338
O O8 0.998782 0.345164 0.610118
O O9 0.750000 0.000000 0.584559
O O10 0.500000 0.250000 0.959642
O O11 0.173042 0.288915 0.957940
O O12 0.500000 0.750000 0.690355
O O13 0.240675 0.750000 0.750000
O O14 0.252972 0.792242 0.647951
#
# Coordination Sequence:
#
# PCOD8281889 Si02
#       6
#    16  16  16  16  16  16
#     4  11  20  32  47  73 105 133 169 201 257 310
#     4  10  19  33  49  73 106 133 171 207 253 307
#     4  11  21  34  49  71 102 137 172 209 253 301
#     4  11  19  28  47  76 104 135 161 202 260 323
#     4   9  19  32  51  78 104 134 170 208 250 302
#     4  11  18  30  51  74 104 135 164 207 257 314
#
# _framework density 18.192969999999999
#
# number of rings (size 3 to 8) (size 9 to 14) (size 15 to 20)
#    0.000    1.500    5.000    3.000    0.000    2.000 
#    0.000    0.000    0.000   12.500    0.000   10.500 
#    0.000    0.000    0.000    0.000    0.000    0.000 
#
# Total GULP energy -594998.606522 kJ/mol
# GULP energy per Si atom -12395.804303 kJ/mol
# Density = 1.815156 g / cm^3
# Si number density = 18.192970 Si / 1000 Ang^3
#
#
#
# Elastic Constant Matrix: (Units=GPa)
#
#
# Indices 1 2 3 4 5 6 
#
# 1 83.0642 31.2135 17.1809 0.0000 0.0000 0.0000
# 2 31.2135 105.6227 30.2786 0.0000 0.0000 0.0000
# 3 17.1809 30.2786 100.2423 0.0000 0.0000 0.0000
# 4 0.0000 0.0000 0.0000 13.1314 0.0000 0.0000
# 5 0.0000 0.0000 0.0000 0.0000 12.0996 0.0000
# 6 0.0000 0.0000 0.0000 0.0000 0.0000 23.9967
#
#
#
# Elastic Compliance Matrix: (Units=1/GPa)
#
#
# Indices 1 2 3 4 5 6 
#
# 1 0.013680 -0.003690 -0.001230 0.000000 0.000000 0.000000
# 2 -0.003690 0.011361 -0.002799 0.000000 0.000000 0.000000
# 3 -0.001230 -0.002799 0.011032 0.000000 0.000000 0.000000
# 4 0.000000 0.000000 0.000000 0.076154 0.000000 0.000000
# 5 0.000000 0.000000 0.000000 0.000000 0.082647 0.000000
# 6 0.000000 0.000000 0.000000 0.000000 0.000000 0.041672
#
#
# Mechanical properties :
#
#
# Convention : Reuss Voigt Hill
#
# Bulk Modulus (GPa) = 48.46308 49.58614 49.02461
# Shear Modulus (GPa) = 19.31529 23.86262 21.58895
#
# Velocity S-wave (km/s) = 3.26189 3.62559 3.44854
# Velocity P-wave (km/s) = 6.39396 6.69637 6.54691
#
# Compressibility (1/GPa) = 0.02063426
#
# Stress axis : x y z
#
# Youngs Moduli (GPa) = 73.09976 88.02397 90.64444
#
# Poissons Ratio (x) = 0.32481 0.11150
# Poissons Ratio (y) = 0.26974 0.25372
# Poissons Ratio (z) = 0.08992 0.24638
#
# Static dielectric constant tensor:
#      x y z
#    x 3.568240 0.000000 0.000000 
#    y 0.000000 3.411580 0.000000 
#    z 0.000000 0.000000 3.309400 
# 
# 
# High freq. dielectric constant tensor:
#      x y z
#    x 1.716510 0.000000 0.000000 
#    y 0.000000 1.690090 0.000000 
#    z 0.000000 0.000000 1.655290 
# 
# From -- ./inp_files/49529.got.cif
#   From: 2010.03.12/outbox.cif.g09.slc.cpg/sg68_25_cif.got.tgz:49529.got - 2010.04.10 23:14:56.
