data_PCOD8281308
_publ_section_title
;
Structure prediction by ZEFSAII (Michael W. Deem and Ramdas Pophale) SiO2 
 PCOD8281308
Probable space group: C M M A
;
_chemical_formula_sum "Si O2"
_cell_formula_units_Z 72
_cell_length_a 16.014698
_cell_length_b 8.840177
_cell_length_c 24.418993
_cell_angle_alpha 90.000000
_cell_angle_beta 90.000000
_cell_angle_gamma 90.000000
_cell_volume 3457.064356
_symmetry_space_group_name_H-M "C M M A"
_symmetry_group_IT_number 67
_symmetry_cell_setting 'orthorhombic'
loop_
_space_group_symop_operation_xyz
x,y,z
-x,1/2-y,z
x,-y,-z
-x,1/2+y,-z
-x,-y,-z
x,1/2+y,-z
-x,y,z
x,1/2-y,z
1/2+x,1/2+y,z
1/2-x,-y,z
1/2+x,1/2-y,-z
1/2-x,y,-z
1/2-x,1/2-y,-z
1/2+x,y,-z
1/2-x,1/2+y,z
1/2+x,-y,z
loop_
_atom_site_type_symbol
_atom_site_label
_atom_site_fract_x
_atom_site_fract_y
_atom_site_fract_z
Si Si1 0.000000 0.570991 0.059289
Si Si2 0.595391 0.927845 0.554550
Si Si3 0.664266 0.570627 0.874992
Si Si4 0.405542 0.422856 0.771316
Si Si5 0.337071 0.070137 0.330112
O O1 0.084200 0.515977 0.089932
O O2 0.000000 0.750000 0.054577
O O3 0.000000 0.500000 0.000000
O O4 0.500000 0.981568 0.559888
O O5 0.602601 0.750000 0.549125
O O6 0.642481 0.986474 0.608536
O O7 0.636350 0.000000 0.500000
O O8 0.672172 0.750000 0.874709
O O9 0.750000 0.500000 0.899593
O O10 0.653819 0.511198 0.813232
O O11 0.500000 0.430792 0.793088
O O12 0.374748 0.250000 0.766287
O O13 0.404037 0.504035 0.712291
O O14 0.337107 0.250000 0.326760
O O15 0.250000 0.000000 0.311724
#
# Coordination Sequence:
#
# PCOD8281308 Si02
#       5
#     8  16  16  16  16
#     4  10  24  44  68  96 132 174 217 262 313 368
#     4   9  19  36  57  79 104 141 188 238 296 358
#     4  11  23  42  66  96 131 171 215 261 316 373
#     4  11  23  39  62  91 121 158 203 253 309 368
#     4  11  23  38  56  81 116 154 195 244 300 363
#
# _framework density 20.826919
#
# number of rings (size 3 to 8) (size 9 to 14) (size 15 to 20)
#    0.000    1.556    1.111    3.333    0.000    6.667 
#    0.000    6.667    0.000    0.000    0.000    0.000 
#    0.000    0.000    0.000    0.000    0.000    0.000 
#
# Total GULP energy -446511.059556 kJ/mol
# GULP energy per Si atom -12403.084988 kJ/mol
# Density = 2.077952 g / cm^3
# Si number density = 20.826919 Si / 1000 Ang^3
#
#
#
# Elastic Constant Matrix: (Units=GPa)
#
#
# Indices 1 2 3 4 5 6 
#
# 1 118.3955 42.9415 50.1503 0.0000 0.0000 0.0000
# 2 42.9415 83.4646 47.3282 0.0000 0.0000 0.0000
# 3 50.1503 47.3282 134.9720 0.0000 0.0000 0.0000
# 4 0.0000 0.0000 0.0000 39.5753 0.0000 0.0000
# 5 0.0000 0.0000 0.0000 0.0000 32.8689 0.0000
# 6 0.0000 0.0000 0.0000 0.0000 0.0000 31.3020
#
#
#
# Elastic Compliance Matrix: (Units=1/GPa)
#
#
# Indices 1 2 3 4 5 6 
#
# 1 0.011093 -0.004206 -0.002647 0.000000 0.000000 0.000000
# 2 -0.004206 0.016550 -0.004240 0.000000 0.000000 0.000000
# 3 -0.002647 -0.004240 0.009879 0.000000 0.000000 0.000000
# 4 0.000000 0.000000 0.000000 0.025268 0.000000 0.000000
# 5 0.000000 0.000000 0.000000 0.000000 0.030424 0.000000
# 6 0.000000 0.000000 0.000000 0.000000 0.000000 0.031947
#
#
# Mechanical properties :
#
#
# Convention : Reuss Voigt Hill
#
# Bulk Modulus (GPa) = 65.20972 68.63025 66.91998
# Shear Modulus (GPa) = 32.79560 33.84337 33.31948
#
# Velocity S-wave (km/s) = 3.97252 4.03548 4.00412
# Velocity P-wave (km/s) = 7.24013 7.39849 7.31974
#
# Compressibility (1/GPa) = 0.01533514
#
# Stress axis : x y z
#
# Youngs Moduli (GPa) = 90.14671 60.42413 101.22250
#
# Poissons Ratio (x) = 0.25417 0.26791
# Poissons Ratio (y) = 0.37919 0.42921
# Poissons Ratio (z) = 0.23860 0.25621
#
# Static dielectric constant tensor:
#      x y z
#    x 3.808750 0.000000 0.000000 
#    y 0.000000 3.679390 0.000000 
#    z 0.000000 0.000000 3.823450 
# 
# 
# High freq. dielectric constant tensor:
#      x y z
#    x 1.819390 0.000000 0.000000 
#    y 0.000000 1.814680 0.000000 
#    z 0.000000 0.000000 1.817380 
# 
# From -- ./inp_files/40489.got.cif
#   From: 2010.03.12/outbox.cif.g09.slc.cpg/sg67_21_cif.got.tgz:40489.got - 2010.04.10 22:41:39.
