data_PCOD8281512
_publ_section_title
;
Structure prediction by ZEFSAII (Michael W. Deem and Ramdas Pophale) SiO2 
 PCOD8281512
Probable space group: C M M A
;
_chemical_formula_sum "Si O2"
_cell_formula_units_Z 72
_cell_length_a 24.713379
_cell_length_b 15.436979
_cell_length_c 8.842172
_cell_angle_alpha 90.000000
_cell_angle_beta 90.000000
_cell_angle_gamma 90.000000
_cell_volume 3373.287846
_symmetry_space_group_name_H-M "C M M A"
_symmetry_group_IT_number 67
_symmetry_cell_setting 'orthorhombic'
loop_
_space_group_symop_operation_xyz
x,y,z
-x,1/2-y,z
x,-y,-z
-x,1/2+y,-z
-x,-y,-z
x,1/2+y,-z
-x,y,z
x,1/2-y,z
1/2+x,1/2+y,z
1/2-x,-y,z
1/2+x,1/2-y,-z
1/2-x,y,-z
1/2-x,1/2-y,-z
1/2+x,y,-z
1/2-x,1/2+y,z
1/2+x,-y,z
loop_
_atom_site_type_symbol
_atom_site_label
_atom_site_fract_x
_atom_site_fract_y
_atom_site_fract_z
Si Si1 0.274529 0.086964 0.836981
Si Si2 0.100412 0.917106 0.900837
Si Si3 0.392949 0.750000 0.606271
Si Si4 0.562495 0.750000 0.928876
Si Si5 0.269022 0.250000 0.333075
Si Si6 0.938180 0.909177 0.568790
O O1 0.338375 0.076223 0.846509
O O2 0.257772 0.166453 0.737158
O O3 0.250000 0.000000 0.763139
O O4 0.250000 0.102725 0.000000
O O5 0.064359 0.911346 0.750395
O O6 0.092135 0.833549 0.004405
O O7 0.083083 0.000000 0.000000
O O8 0.433940 0.750000 0.747128
O O9 0.333570 0.750000 0.680047
O O10 0.401027 0.666033 0.501185
O O11 0.500000 0.750000 0.977009
O O12 0.250000 0.250000 0.500000
O O13 0.000000 0.891100 0.521265
O O14 0.917747 0.000000 0.500000
#
# Coordination Sequence:
#
# PCOD8281512 Si02
#       6
#    16  16   8   8   8  16
#     4  11  23  44  69 100 136 181 220 275 346 407
#     4  12  24  44  70 101 135 177 234 284 341 409
#     4  12  25  45  70  98 139 181 224 282 345 414
#     4  12  26  42  70 102 135 180 231 290 339 402
#     4  12  26  43  67 104 134 177 225 278 337 408
#     4  11  25  43  66  95 136 181 225 281 345 407
#
# _framework density 21.344161
#
# number of rings (size 3 to 8) (size 9 to 14) (size 15 to 20)
#    0.000    0.444    2.222    7.333    3.111    4.000 
#    0.000    0.000    0.000    0.000    0.000    0.000 
#    0.000    0.000    0.000    0.000    0.000    0.000 
#
# Total GULP energy -446643.866534 kJ/mol
# GULP energy per Si atom -12406.774070 kJ/mol
# Density = 2.129558 g / cm^3
# Si number density = 21.344161 Si / 1000 Ang^3
#
#
#
# Elastic Constant Matrix: (Units=GPa)
#
#
# Indices 1 2 3 4 5 6 
#
# 1 66.9325 8.6855 -4.1440 0.0000 0.0000 0.0000
# 2 8.6855 183.7871 70.5373 0.0000 0.0000 0.0000
# 3 -4.1440 70.5373 111.8486 0.0000 0.0000 0.0000
# 4 0.0000 0.0000 0.0000 69.4523 0.0000 0.0000
# 5 0.0000 0.0000 0.0000 0.0000 22.3700 0.0000
# 6 0.0000 0.0000 0.0000 0.0000 0.0000 24.5224
#
#
#
# Elastic Compliance Matrix: (Units=1/GPa)
#
#
# Indices 1 2 3 4 5 6 
#
# 1 0.015183 -0.001232 0.001339 0.000000 0.000000 0.000000
# 2 -0.001232 0.007278 -0.004636 0.000000 0.000000 0.000000
# 3 0.001339 -0.004636 0.011914 0.000000 0.000000 0.000000
# 4 0.000000 0.000000 0.000000 0.014398 0.000000 0.000000
# 5 0.000000 0.000000 0.000000 0.000000 0.044703 0.000000
# 6 0.000000 0.000000 0.000000 0.000000 0.000000 0.040779
#
#
# Mechanical properties :
#
#
# Convention : Reuss Voigt Hill
#
# Bulk Modulus (GPa) = 39.49569 56.96954 48.23262
# Shear Modulus (GPa) = 32.94860 42.43491 37.69176
#
# Velocity S-wave (km/s) = 3.93323 4.46368 4.20683
# Velocity P-wave (km/s) = 6.25871 7.30170 6.80023
#
# Compressibility (1/GPa) = 0.02531922
#
# Stress axis : x y z
#
# Youngs Moduli (GPa) = 65.86252 137.39095 83.93588
#
# Poissons Ratio (x) = 0.16920 -0.11241
# Poissons Ratio (y) = 0.08111 0.38911
# Poissons Ratio (z) = -0.08820 0.63692
#
# Static dielectric constant tensor:
#      x y z
#    x 2.469630 0.000000 0.000000 
#    y 0.000000 3.833830 0.000000 
#    z 0.000000 0.000000 3.247060 
# 
# 
# High freq. dielectric constant tensor:
#      x y z
#    x 1.847360 0.000000 0.000000 
#    y 0.000000 1.857450 0.000000 
#    z 0.000000 0.000000 1.847050 
# 
# From -- ./inp_files/13375.got.cif
#   From: 2010.03.12/outbox.cif.g09.slc.cpg/sg67_7_cif.got.tgz:13375.got - 2010.04.10 22:41:39.
