data_PCOD8281887
_publ_section_title
;
Structure prediction by ZEFSAII (Michael W. Deem and Ramdas Pophale) SiO2 
 PCOD8281887
Probable space group: C C C A
;
_chemical_formula_sum "Si O2"
_cell_formula_units_Z 120
_cell_length_a 19.721580
_cell_length_b 20.187650
_cell_length_c 15.019143
_cell_angle_alpha 90.000000
_cell_angle_beta 90.000000
_cell_angle_gamma 90.000000
_cell_volume 5979.606765
_symmetry_space_group_name_H-M "C C C A"
_symmetry_group_IT_number 68
_space_group.IT_coordinate_system_code '2'
_symmetry_cell_setting 'orthorhombic'
loop_
_space_group_symop_operation_xyz
x,y,z
-x,1/2-y,z
x,1/2-y,1/2-z
-x,y,1/2-z
-x,-y,-z
x,1/2+y,-z
-x,1/2+y,1/2+z
x,-y,1/2+z
1/2+x,1/2+y,z
1/2-x,-y,z
1/2+x,-y,1/2-z
1/2-x,1/2+y,1/2-z
1/2-x,1/2-y,-z
1/2+x,y,-z
1/2-x,y,1/2+z
1/2+x,1/2-y,1/2+z
loop_
_atom_site_type_symbol
_atom_site_label
_atom_site_fract_x
_atom_site_fract_y
_atom_site_fract_z
Si Si1 0.651905 0.750000 0.250000
Si Si2 0.517498 0.825763 0.991142
Si Si3 0.314813 0.590437 0.724273
Si Si4 0.168142 0.058264 0.235942
Si Si5 0.649973 0.685125 0.620331
Si Si6 0.624724 0.168639 0.077642
Si Si7 0.702270 0.841809 0.400102
Si Si8 0.558412 0.143670 0.680604
O O1 0.698104 0.794395 0.313674
O O2 0.606811 0.707389 0.317982
O O3 0.500000 0.750000 0.014849
O O4 0.585499 0.839040 0.935795
O O5 0.454353 0.850431 0.931860
O O6 0.526105 0.866228 0.083040
O O7 0.233735 0.588248 0.713594
O O8 0.337171 0.520664 0.766141
O O9 0.346627 0.648489 0.784843
O O10 0.342151 0.605067 0.625339
O O11 0.175900 0.085933 0.134150
O O12 0.100954 0.079994 0.288280
O O13 0.640925 0.764336 0.633046
O O14 0.719195 0.662915 0.568902
O O15 0.655161 0.180960 0.979962
O O16 0.500000 0.156915 0.750000
#
# Coordination Sequence:
#
# PCOD8281887 Si02
#       8
#     8  16  16  16  16  16  16  16
#     4  10  19  32  62  92 121 156 190 252 328 353
#     4  10  21  37  54  90 128 154 194 245 311 366
#     4  10  22  43  61  83 121 164 210 247 297 364
#     4   9  22  42  60  85 118 165 201 249 307 361
#     4  10  22  37  61  89 122 158 198 253 307 358
#     4  11  22  37  63  92 120 155 204 256 300 361
#     4  10  21  36  64  95 122 150 204 260 302 366
#     4  11  20  35  61  89 123 156 195 251 312 369
#
# _framework density 20.068210000000001
#
# number of rings (size 3 to 8) (size 9 to 14) (size 15 to 20)
#    0.000    1.867    0.000    5.000    7.467    0.533 
#    4.800    4.000    0.000    0.000    0.000    0.000 
#    0.000    0.000    0.000    0.000    0.000    0.000 
#
# Total GULP energy -743705.522182 kJ/mol
# GULP energy per Si atom -12395.092036 kJ/mol
# Density = 2.002253 g / cm^3
# Si number density = 20.068210 Si / 1000 Ang^3
#
#
#
# Elastic Constant Matrix: (Units=GPa)
#
#
# Indices 1 2 3 4 5 6 
#
# 1 120.8332 30.2553 41.5200 0.0000 0.0000 0.0000
# 2 30.2553 83.0006 38.4087 0.0000 0.0000 0.0000
# 3 41.5200 38.4087 83.4417 0.0000 0.0000 0.0000
# 4 0.0000 0.0000 0.0000 21.5712 0.0000 0.0000
# 5 0.0000 0.0000 0.0000 0.0000 34.5372 0.0000
# 6 0.0000 0.0000 0.0000 0.0000 0.0000 17.2585
#
#
#
# Elastic Compliance Matrix: (Units=1/GPa)
#
#
# Indices 1 2 3 4 5 6 
#
# 1 0.010176 -0.001736 -0.004264 0.000000 0.000000 0.000000
# 2 -0.001736 0.015605 -0.006319 0.000000 0.000000 0.000000
# 3 -0.004264 -0.006319 0.017015 0.000000 0.000000 0.000000
# 4 0.000000 0.000000 0.000000 0.046358 0.000000 0.000000
# 5 0.000000 0.000000 0.000000 0.000000 0.028954 0.000000
# 6 0.000000 0.000000 0.000000 0.000000 0.000000 0.057942
#
#
# Mechanical properties :
#
#
# Convention : Reuss Voigt Hill
#
# Bulk Modulus (GPa) = 55.07564 56.40486 55.74025
# Shear Modulus (GPa) = 24.18467 26.47949 25.33208
#
# Velocity S-wave (km/s) = 3.47525 3.63640 3.55674
# Velocity P-wave (km/s) = 6.60356 6.76748 6.68602
#
# Compressibility (1/GPa) = 0.01815685
#
# Stress axis : x y z
#
# Youngs Moduli (GPa) = 98.27212 64.08125 58.77103
#
# Poissons Ratio (x) = 0.11124 0.25062
# Poissons Ratio (y) = 0.17059 0.37140
# Poissons Ratio (z) = 0.41907 0.40495
#
# Static dielectric constant tensor:
#      x y z
#    x 3.975050 0.000000 0.000000 
#    y 0.000000 3.522740 0.000000 
#    z 0.000000 0.000000 3.581340 
# 
# 
# High freq. dielectric constant tensor:
#      x y z
#    x 1.799140 0.000000 0.000000 
#    y 0.000000 1.760920 0.000000 
#    z 0.000000 0.000000 1.771530 
# 
# From -- ./inp_files/24813.got.cif
#   From: 2010.03.12/outbox.cif.g09.slc.cpg/sg68_13_cif.got.tgz:24813.got - 2010.04.10 23:14:56.
