data_PCOD8281000
_publ_section_title
;
Structure prediction by ZEFSAII (Michael W. Deem and Ramdas Pophale) SiO2 
 PCOD8281000
Probable space group: C M M A
;
_chemical_formula_sum "Si O2"
_cell_formula_units_Z 96
_cell_length_a 23.069409
_cell_length_b 17.747023
_cell_length_c 12.041938
_cell_angle_alpha 90.000000
_cell_angle_beta 90.000000
_cell_angle_gamma 90.000000
_cell_volume 4930.129962
_symmetry_space_group_name_H-M "C M M A"
_symmetry_group_IT_number 67
_symmetry_cell_setting 'orthorhombic'
loop_
_space_group_symop_operation_xyz
x,y,z
-x,1/2-y,z
x,-y,-z
-x,1/2+y,-z
-x,-y,-z
x,1/2+y,-z
-x,y,z
x,1/2-y,z
1/2+x,1/2+y,z
1/2-x,-y,z
1/2+x,1/2-y,-z
1/2-x,y,-z
1/2-x,1/2-y,-z
1/2+x,y,-z
1/2-x,1/2+y,z
1/2+x,-y,z
loop_
_atom_site_type_symbol
_atom_site_label
_atom_site_fract_x
_atom_site_fract_y
_atom_site_fract_z
Si Si1 0.934249 0.663327 0.485808
Si Si2 0.871828 0.077432 0.695599
Si Si3 0.933657 0.164851 0.131012
Si Si4 0.638481 0.095279 0.682198
Si Si5 0.756641 0.661231 0.370757
Si Si6 0.433956 0.070754 0.075033
O O1 0.922484 0.750000 0.454737
O O2 0.923065 0.613160 0.377459
O O3 0.891477 0.641426 0.584075
O O4 0.000000 0.650419 0.525500
O O5 0.814301 0.125822 0.679606
O O6 0.890189 0.079433 0.823516
O O7 0.860902 0.992778 0.653935
O O8 0.912144 0.250000 0.149407
O O9 0.895304 0.108219 0.203297
O O10 0.000000 0.155357 0.169879
O O11 0.927860 0.144932 0.001167
O O12 0.703470 0.125331 0.696582
O O13 0.758579 0.750000 0.351364
O O14 0.750000 0.640539 0.500000
O O15 0.500000 0.060713 0.118415
O O16 0.415806 0.000000 0.000000
#
# Coordination Sequence:
#
# PCOD8281000 Si02
#       6
#    16  16  16  16  16  16
#     4  11  24  39  58  91 132 167 205 258 319 385
#     4  12  24  39  66  95 124 164 214 267 319 379
#     4  10  21  38  64  94 125 166 210 254 315 387
#     4  12  23  39  64  92 125 164 211 262 318 382
#     4  11  24  43  65  89 125 170 209 255 317 383
#     4  10  21  41  65  93 130 167 207 261 322 378
#
# _framework density 19.472102
#
# number of rings (size 3 to 8) (size 9 to 14) (size 15 to 20)
#    0.000    1.000    3.333    4.000    0.000    6.000 
#    0.000    2.500    0.000    2.000    0.000    0.000 
#    0.000    0.000    0.000    0.000    0.000    0.000 
#
# Total GULP energy -595495.498043 kJ/mol
# GULP energy per Si atom -12406.156209 kJ/mol
# Density = 1.942778 g / cm^3
# Si number density = 19.472102 Si / 1000 Ang^3
#
#
#
# Elastic Constant Matrix: (Units=GPa)
#
#
# Indices 1 2 3 4 5 6 
#
# 1 93.1226 43.4872 45.1013 0.0000 0.0000 0.0000
# 2 43.4872 119.6288 30.2062 0.0000 0.0000 0.0000
# 3 45.1013 30.2062 95.7565 0.0000 0.0000 0.0000
# 4 0.0000 0.0000 0.0000 28.4575 0.0000 0.0000
# 5 0.0000 0.0000 0.0000 0.0000 29.6980 0.0000
# 6 0.0000 0.0000 0.0000 0.0000 0.0000 32.3315
#
#
#
# Elastic Compliance Matrix: (Units=1/GPa)
#
#
# Indices 1 2 3 4 5 6 
#
# 1 0.015600 -0.004146 -0.006040 0.000000 0.000000 0.000000
# 2 -0.004146 0.010184 -0.001260 0.000000 0.000000 0.000000
# 3 -0.006040 -0.001260 0.013685 0.000000 0.000000 0.000000
# 4 0.000000 0.000000 0.000000 0.035140 0.000000 0.000000
# 5 0.000000 0.000000 0.000000 0.000000 0.033672 0.000000
# 6 0.000000 0.000000 0.000000 0.000000 0.000000 0.030930
#
#
# Mechanical properties :
#
#
# Convention : Reuss Voigt Hill
#
# Bulk Modulus (GPa) = 60.31896 60.67746 60.49821
# Shear Modulus (GPa) = 29.82788 30.74496 30.28642
#
# Velocity S-wave (km/s) = 3.91810 3.97788 3.94810
# Velocity P-wave (km/s) = 7.17726 7.23373 7.20555
#
# Compressibility (1/GPa) = 0.01657853
#
# Stress axis : x y z
#
# Youngs Moduli (GPa) = 64.10385 98.18950 73.07104
#
# Poissons Ratio (x) = 0.40707 0.44133
# Poissons Ratio (y) = 0.26576 0.09207
# Poissons Ratio (z) = 0.38717 0.12372
#
# Static dielectric constant tensor:
#      x y z
#    x 3.622890 0.000000 0.000000 
#    y 0.000000 3.734210 0.000000 
#    z 0.000000 0.000000 3.498180 
# 
# 
# High freq. dielectric constant tensor:
#      x y z
#    x 1.758220 0.000000 0.000000 
#    y 0.000000 1.776540 0.000000 
#    z 0.000000 0.000000 1.749570 
# 
# From -- ./inp_files/21949.got.cif
#   From: 2010.03.12/outbox.cif.g09.slc.cpg/sg67_11_cif.got.tgz:21949.got - 2010.04.10 22:41:39.
