data_PCOD8281082
_publ_section_title
;
Structure prediction by ZEFSAII (Michael W. Deem and Ramdas Pophale) SiO2 
 PCOD8281082
Probable space group: C M M A
;
_chemical_formula_sum "Si O2"
_cell_formula_units_Z 80
_cell_length_a 18.292657
_cell_length_b 29.597478
_cell_length_c 6.893997
_cell_angle_alpha 90.000000
_cell_angle_beta 90.000000
_cell_angle_gamma 90.000000
_cell_volume 3732.523817
_symmetry_space_group_name_H-M "C M M A"
_symmetry_group_IT_number 67
_symmetry_cell_setting 'orthorhombic'
loop_
_space_group_symop_operation_xyz
x,y,z
-x,1/2-y,z
x,-y,-z
-x,1/2+y,-z
-x,-y,-z
x,1/2+y,-z
-x,y,z
x,1/2-y,z
1/2+x,1/2+y,z
1/2-x,-y,z
1/2+x,1/2-y,-z
1/2-x,y,-z
1/2-x,1/2-y,-z
1/2+x,y,-z
1/2-x,1/2+y,z
1/2+x,-y,z
loop_
_atom_site_type_symbol
_atom_site_label
_atom_site_fract_x
_atom_site_fract_y
_atom_site_fract_z
Si Si1 0.082210 0.463784 0.268632
Si Si2 0.171925 0.801986 0.407652
Si Si3 0.083669 0.941200 0.183402
Si Si4 0.329873 0.361258 0.061729
Si Si5 0.086835 0.632872 0.672155
O O1 0.115474 0.514627 0.303556
O O2 0.114012 0.419190 0.380557
O O3 0.000000 0.469750 0.336333
O O4 0.086574 0.452630 0.042729
O O5 0.149743 0.750000 0.430337
O O6 0.250000 0.812745 0.500000
O O7 0.176104 0.814541 0.180708
O O8 0.110163 0.832048 0.509324
O O9 0.135443 0.897956 0.211427
O O10 0.000000 0.929689 0.245275
O O11 0.250000 0.378668 0.000000
O O12 0.379736 0.351493 0.876431
O O13 0.000000 0.633178 0.695683
#
# Coordination Sequence:
#
# PCOD8281082 Si02
#       5
#    16  16  16  16  16
#     4   7  12  27  53  83 118 159 196 230 286 358
#     4  11  25  44  64  85 117 161 206 257 319 376
#     4   8  14  28  53  86 120 156 198 238 285 353
#     4  11  21  37  63  92 122 161 208 250 304 372
#     4  10  21  40  65  93 125 160 203 256 306 364
#
# _framework density 21.433218
#
# number of rings (size 3 to 8) (size 9 to 14) (size 15 to 20)
#    0.000    2.600    2.000    3.000    0.000    3.200 
#    0.000    9.000    0.000    4.800    0.000    0.000 
#    0.000    0.000    0.000    0.000    0.000    0.000 
#
# Total GULP energy -495548.845322 kJ/mol
# GULP energy per Si atom -12388.721133 kJ/mol
# Density = 2.138444 g / cm^3
# Si number density = 21.433218 Si / 1000 Ang^3
#
#
#
# Elastic Constant Matrix: (Units=GPa)
#
#
# Indices 1 2 3 4 5 6 
#
# 1 96.0723 50.9547 27.5819 0.0000 0.0000 0.0000
# 2 50.9547 138.0227 43.7565 0.0000 0.0000 0.0000
# 3 27.5819 43.7565 35.8798 0.0000 0.0000 0.0000
# 4 0.0000 0.0000 0.0000 37.4409 0.0000 0.0000
# 5 0.0000 0.0000 0.0000 0.0000 17.0037 0.0000
# 6 0.0000 0.0000 0.0000 0.0000 0.0000 25.5220
#
#
#
# Elastic Compliance Matrix: (Units=1/GPa)
#
#
# Indices 1 2 3 4 5 6 
#
# 1 0.014020 -0.002868 -0.007280 0.000000 0.000000 0.000000
# 2 -0.002868 0.012399 -0.012916 0.000000 0.000000 0.000000
# 3 -0.007280 -0.012916 0.049218 0.000000 0.000000 0.000000
# 4 0.000000 0.000000 0.000000 0.026709 0.000000 0.000000
# 5 0.000000 0.000000 0.000000 0.000000 0.058811 0.000000
# 6 0.000000 0.000000 0.000000 0.000000 0.000000 0.039182
#
#
# Mechanical properties :
#
#
# Convention : Reuss Voigt Hill
#
# Bulk Modulus (GPa) = 33.88749 57.17343 45.53046
# Shear Modulus (GPa) = 19.50821 25.83877 22.67349
#
# Velocity S-wave (km/s) = 3.02020 3.47587 3.25601
# Velocity P-wave (km/s) = 5.29218 6.54537 5.95185
#
# Compressibility (1/GPa) = 0.02950942
#
# Stress axis : x y z
#
# Youngs Moduli (GPa) = 71.32679 80.65468 20.31758
#
# Poissons Ratio (x) = 0.23131 0.14792
# Poissons Ratio (y) = 0.20456 0.26242
# Poissons Ratio (z) = 0.51927 1.04172
#
# Static dielectric constant tensor:
#      x y z
#    x 3.648380 0.000000 0.000000 
#    y 0.000000 4.567190 0.000000 
#    z 0.000000 0.000000 3.902740 
# 
# 
# High freq. dielectric constant tensor:
#      x y z
#    x 1.801460 0.000000 0.000000 
#    y 0.000000 1.848570 0.000000 
#    z 0.000000 0.000000 1.850310 
# 
# From -- ./inp_files/10127.got.cif
#   From: 2010.03.12/outbox.cif.g09.slc.cpg/sg67_6_cif.got.tgz:10127.got - 2010.04.10 22:41:39.
