data_PCOD8281391
_publ_section_title
;
Structure prediction by ZEFSAII (Michael W. Deem and Ramdas Pophale) SiO2 
 PCOD8281391
Probable space group: C M M A
;
_chemical_formula_sum "Si O2"
_cell_formula_units_Z 72
_cell_length_a 16.947004
_cell_length_b 15.229743
_cell_length_c 13.810386
_cell_angle_alpha 90.000000
_cell_angle_beta 90.000000
_cell_angle_gamma 90.000000
_cell_volume 3564.440126
_symmetry_space_group_name_H-M "C M M A"
_symmetry_group_IT_number 67
_symmetry_cell_setting 'orthorhombic'
loop_
_space_group_symop_operation_xyz
x,y,z
-x,1/2-y,z
x,-y,-z
-x,1/2+y,-z
-x,-y,-z
x,1/2+y,-z
-x,y,z
x,1/2-y,z
1/2+x,1/2+y,z
1/2-x,-y,z
1/2+x,1/2-y,-z
1/2-x,y,-z
1/2-x,1/2-y,-z
1/2+x,y,-z
1/2-x,1/2+y,z
1/2+x,-y,z
loop_
_atom_site_type_symbol
_atom_site_label
_atom_site_fract_x
_atom_site_fract_y
_atom_site_fract_z
Si Si1 0.907387 0.925456 0.426068
Si Si2 0.160888 0.097371 0.969757
Si Si3 0.343120 0.250000 0.517117
Si Si4 0.196746 0.416320 0.757063
Si Si5 0.697502 0.250000 0.725792
Si Si6 0.089335 0.250000 0.086883
O O1 0.884249 0.832649 0.469272
O O2 0.865885 0.943173 0.323932
O O3 0.000000 0.930681 0.407762
O O4 0.878263 0.000000 0.500000
O O5 0.151030 0.110635 0.854706
O O6 0.102825 0.164018 0.022586
O O7 0.250000 0.119821 0.000000
O O8 0.135722 0.000000 0.000000
O O9 0.250000 0.250000 0.500000
O O10 0.359490 0.250000 0.632266
O O11 0.250000 0.500000 0.783135
O O12 0.248640 0.335939 0.719382
O O13 0.645872 0.250000 0.821340
O O14 0.000000 0.250000 0.124311
#
# Coordination Sequence:
#
# PCOD8281391 Si02
#       6
#    16  16   8  16   8   8
#     4  11  26  44  64  97 138 168 206 273 334 378
#     4  11  21  42  68  95 125 168 217 266 313 373
#     4  12  23  41  68  97 124 171 223 265 312 387
#     4  12  22  39  71  96 123 169 224 262 312 385
#     4  12  23  39  64  97 121 170 222 262 308 383
#     4  12  26  41  62  97 138 169 205 266 332 386
#
# _framework density 20.199527
#
# number of rings (size 3 to 8) (size 9 to 14) (size 15 to 20)
#    0.000    0.444    6.667    2.667    0.000    2.222 
#    0.000    5.556    0.000    0.000    0.000    0.000 
#    0.000    0.000    0.000    0.000    0.000    0.000 
#
# Total GULP energy -446669.319396 kJ/mol
# GULP energy per Si atom -12407.481094 kJ/mol
# Density = 2.015355 g / cm^3
# Si number density = 20.199527 Si / 1000 Ang^3
#
#
#
# Elastic Constant Matrix: (Units=GPa)
#
#
# Indices 1 2 3 4 5 6 
#
# 1 78.2137 22.3533 37.9121 0.0000 0.0000 0.0000
# 2 22.3533 100.2938 13.0031 0.0000 0.0000 0.0000
# 3 37.9121 13.0031 164.2643 0.0000 0.0000 0.0000
# 4 0.0000 0.0000 0.0000 34.1198 0.0000 0.0000
# 5 0.0000 0.0000 0.0000 0.0000 28.0953 0.0000
# 6 0.0000 0.0000 0.0000 0.0000 0.0000 20.8324
#
#
#
# Elastic Compliance Matrix: (Units=1/GPa)
#
#
# Indices 1 2 3 4 5 6 
#
# 1 0.015223 -0.002968 -0.003278 0.000000 0.000000 0.000000
# 2 -0.002968 0.010653 -0.000158 0.000000 0.000000 0.000000
# 3 -0.003278 -0.000158 0.006857 0.000000 0.000000 0.000000
# 4 0.000000 0.000000 0.000000 0.029309 0.000000 0.000000
# 5 0.000000 0.000000 0.000000 0.000000 0.035593 0.000000
# 6 0.000000 0.000000 0.000000 0.000000 0.000000 0.048002
#
#
# Mechanical properties :
#
#
# Convention : Reuss Voigt Hill
#
# Bulk Modulus (GPa) = 50.19242 54.36763 52.28003
# Shear Modulus (GPa) = 30.28717 34.57640 32.43179
#
# Velocity S-wave (km/s) = 3.87641 4.14181 4.01131
# Velocity P-wave (km/s) = 6.70356 7.06021 6.88419
#
# Compressibility (1/GPa) = 0.01992333
#
# Stress axis : x y z
#
# Youngs Moduli (GPa) = 65.69080 93.87310 145.83735
#
# Poissons Ratio (x) = 0.27859 0.47813
# Poissons Ratio (y) = 0.19496 0.02309
# Poissons Ratio (z) = 0.21537 0.01486
#
# Static dielectric constant tensor:
#      x y z
#    x 3.489700 0.000000 0.000000 
#    y 0.000000 3.825010 0.000000 
#    z 0.000000 0.000000 3.952970 
# 
# 
# High freq. dielectric constant tensor:
#      x y z
#    x 1.767640 0.000000 0.000000 
#    y 0.000000 1.808100 0.000000 
#    z 0.000000 0.000000 1.812030 
# 
# From -- ./inp_files/19194.got.cif
#   From: 2010.03.12/outbox.cif.g09.slc.cpg/sg67_10_cif.got.tgz:19194.got - 2010.04.10 22:41:39.
