data_PCOD8281721
_publ_section_title
;
Structure prediction by ZEFSAII (Michael W. Deem and Ramdas Pophale) SiO2 
 PCOD8281721
Probable space group: C C C A
;
_chemical_formula_sum "Si O2"
_cell_formula_units_Z 96
_cell_length_a 28.310249
_cell_length_b 10.049182
_cell_length_c 17.523465
_cell_angle_alpha 90.000000
_cell_angle_beta 90.000000
_cell_angle_gamma 90.000000
_cell_volume 4985.335453
_symmetry_space_group_name_H-M "C C C A"
_symmetry_group_IT_number 68
_space_group.IT_coordinate_system_code '2'
_symmetry_cell_setting 'orthorhombic'
loop_
_space_group_symop_operation_xyz
x,y,z
-x,1/2-y,z
x,1/2-y,1/2-z
-x,y,1/2-z
-x,-y,-z
x,1/2+y,-z
-x,1/2+y,1/2+z
x,-y,1/2+z
1/2+x,1/2+y,z
1/2-x,-y,z
1/2+x,-y,1/2-z
1/2-x,1/2+y,1/2-z
1/2-x,1/2-y,-z
1/2+x,y,-z
1/2-x,y,1/2+z
1/2+x,1/2-y,1/2+z
loop_
_atom_site_type_symbol
_atom_site_label
_atom_site_fract_x
_atom_site_fract_y
_atom_site_fract_z
Si Si1 0.585916 0.511499 0.581236
Si Si2 0.748668 0.656978 0.073733
Si Si3 0.851231 0.765042 0.907575
Si Si4 0.601765 0.499243 0.902086
Si Si5 0.505072 0.597611 0.839666
Si Si6 0.346959 0.239966 0.087277
O O1 0.612081 0.380864 0.611090
O O2 0.585778 0.513638 0.489757
O O3 0.533165 0.510317 0.614351
O O4 0.612697 0.639356 0.616216
O O5 0.750000 0.500000 0.051325
O O6 0.701204 0.692231 0.122126
O O7 0.796103 0.693890 0.121195
O O8 0.750000 0.750000 0.000000
O O9 0.873038 0.633028 0.869085
O O10 0.845673 0.733744 0.996314
O O11 0.555642 0.534422 0.855140
O O12 0.640937 0.611893 0.886774
O O13 0.500000 0.750000 0.868152
O O14 0.500000 0.587086 0.750000
#
# Coordination Sequence:
#
# PCOD8281721 Si02
#       6
#    16  16  16  16  16  16
#     4  10  18  35  54  78 108 143 179 220 267 320
#     4  10  18  27  44  76 115 148 175 215 270 322
#     4   9  19  29  49  77 109 141 177 217 270 313
#     4  10  20  35  53  80 109 143 181 225 266 322
#     4  11  23  38  57  80 105 141 186 228 275 329
#     4   9  17  29  50  74 111 145 175 216 260 321
#
# _framework density 19.256477
#
# number of rings (size 3 to 8) (size 9 to 14) (size 15 to 20)
#    0.000    2.167    3.333    0.500    7.000    0.667 
#    0.000    1.667    0.000    0.000    0.000    7.000 
#    0.000    0.000    0.000    0.000    0.000    0.000 
#
# Total GULP energy -594914.198992 kJ/mol
# GULP energy per Si atom -12394.045812 kJ/mol
# Density = 1.921265 g / cm^3
# Si number density = 19.256477 Si / 1000 Ang^3
#
#
#
# Elastic Constant Matrix: (Units=GPa)
#
#
# Indices 1 2 3 4 5 6 
#
# 1 154.8947 64.4890 26.8717 0.0000 0.0000 0.0000
# 2 64.4890 148.7990 24.8601 0.0000 0.0000 0.0000
# 3 26.8717 24.8601 22.1701 0.0000 0.0000 0.0000
# 4 0.0000 0.0000 0.0000 23.4326 0.0000 0.0000
# 5 0.0000 0.0000 0.0000 0.0000 3.3117 0.0000
# 6 0.0000 0.0000 0.0000 0.0000 0.0000 35.5988
#
#
#
# Elastic Compliance Matrix: (Units=1/GPa)
#
#
# Indices 1 2 3 4 5 6 
#
# 1 0.008884 -0.002524 -0.007938 0.000000 0.000000 0.000000
# 2 -0.002524 0.008987 -0.007018 0.000000 0.000000 0.000000
# 3 -0.007938 -0.007018 0.062596 0.000000 0.000000 0.000000
# 4 0.000000 0.000000 0.000000 0.042676 0.000000 0.000000
# 5 0.000000 0.000000 0.000000 0.000000 0.301964 0.000000
# 6 0.000000 0.000000 0.000000 0.000000 0.000000 0.028091
#
#
# Mechanical properties :
#
#
# Convention : Reuss Voigt Hill
#
# Bulk Modulus (GPa) = 21.97424 62.03393 42.00408
# Shear Modulus (GPa) = 9.93392 26.44482 18.18937
#
# Velocity S-wave (km/s) = 2.27375 3.70982 3.07674
# Velocity P-wave (km/s) = 4.28128 7.11582 5.87215
#
# Compressibility (1/GPa) = 0.04550783
#
# Stress axis : x y z
#
# Youngs Moduli (GPa) = 112.56267 111.27282 15.97540
#
# Poissons Ratio (x) = 0.28087 0.12681
# Poissons Ratio (y) = 0.28412 0.11211
# Poissons Ratio (z) = 0.89348 0.78090
#
# Static dielectric constant tensor:
#      x y z
#    x 4.098870 0.000000 0.000000 
#    y 0.000000 3.833770 0.000000 
#    z 0.000000 0.000000 2.792580 
# 
# 
# High freq. dielectric constant tensor:
#      x y z
#    x 1.773910 0.000000 0.000000 
#    y 0.000000 1.765670 0.000000 
#    z 0.000000 0.000000 1.670460 
# 
# From -- ./inp_files/41244.got.cif
#   From: 2010.03.12/outbox.cif.g09.slc.cpg/sg68_21_cif.got.tgz:41244.got - 2010.04.10 23:14:56.
