data_PCOD8281754
_publ_section_title
;
Structure prediction by ZEFSAII (Michael W. Deem and Ramdas Pophale) SiO2 
 PCOD8281754
Probable space group: C C C A
;
_chemical_formula_sum "Si O2"
_cell_formula_units_Z 72
_cell_length_a 17.470187
_cell_length_b 13.595178
_cell_length_c 15.292895
_cell_angle_alpha 90.000000
_cell_angle_beta 90.000000
_cell_angle_gamma 90.000000
_cell_volume 3632.220109
_symmetry_space_group_name_H-M "C C C A"
_symmetry_group_IT_number 68
_space_group.IT_coordinate_system_code '2'
_symmetry_cell_setting 'orthorhombic'
loop_
_space_group_symop_operation_xyz
x,y,z
-x,1/2-y,z
x,1/2-y,1/2-z
-x,y,1/2-z
-x,-y,-z
x,1/2+y,-z
-x,1/2+y,1/2+z
x,-y,1/2+z
1/2+x,1/2+y,z
1/2-x,-y,z
1/2+x,-y,1/2-z
1/2-x,1/2+y,1/2-z
1/2-x,1/2-y,-z
1/2+x,y,-z
1/2-x,y,1/2+z
1/2+x,1/2-y,1/2+z
loop_
_atom_site_type_symbol
_atom_site_label
_atom_site_fract_x
_atom_site_fract_y
_atom_site_fract_z
Si Si1 0.744811 0.273383 0.657127
Si Si2 0.636706 0.125218 0.100312
Si Si3 0.330291 0.946936 0.077942
Si Si4 0.000000 0.750000 0.365189
Si Si5 0.611498 0.404194 0.205896
O O1 0.704465 0.250000 0.750000
O O2 0.779800 0.178851 0.606434
O O3 0.681774 0.331022 0.599705
O O4 0.815894 0.341507 0.679985
O O5 0.568167 0.202237 0.077570
O O6 0.618312 0.068302 0.191123
O O7 0.638948 0.046497 0.021475
O O8 0.250000 0.000000 0.086616
O O9 0.390425 0.997711 0.145237
O O10 0.036997 0.663514 0.305951
#
# Coordination Sequence:
#
# PCOD8281754 Si02
#       5
#    16  16  16   8  16
#     4   8  16  31  50  71 100 133 161 194 246 303
#     4  10  18  31  53  72  95 132 164 201 247 294
#     4  10  20  31  47  77 105 124 160 206 249 297
#     4  10  19  36  54  68  91 128 175 208 242 298
#     4   9  18  32  50  73  97 128 167 207 242 287
#
# _framework density 19.822586000000001
#
# number of rings (size 3 to 8) (size 9 to 14) (size 15 to 20)
#    0.000    2.667    0.000    4.000    0.000    5.333 
#    0.000    0.000    0.000    0.000    0.000    1.556 
#    0.000    0.000    0.000    0.000    0.000    0.000 
#
# Total GULP energy -445992.946021 kJ/mol
# GULP energy per Si atom -12388.692945 kJ/mol
# Density = 1.977747 g / cm^3
# Si number density = 19.822586 Si / 1000 Ang^3
#
#
#
# Elastic Constant Matrix: (Units=GPa)
#
#
# Indices 1 2 3 4 5 6 
#
# 1 51.7647 25.4617 29.4343 0.0000 0.0000 0.0000
# 2 25.4617 71.9043 60.7807 0.0000 0.0000 0.0000
# 3 29.4343 60.7807 133.8431 0.0000 0.0000 0.0000
# 4 0.0000 0.0000 0.0000 34.7574 0.0000 0.0000
# 5 0.0000 0.0000 0.0000 0.0000 20.0163 0.0000
# 6 0.0000 0.0000 0.0000 0.0000 0.0000 11.0103
#
#
#
# Elastic Compliance Matrix: (Units=1/GPa)
#
#
# Indices 1 2 3 4 5 6 
#
# 1 0.023815 -0.006502 -0.002285 0.000000 0.000000 0.000000
# 2 -0.006502 0.024347 -0.009627 0.000000 0.000000 0.000000
# 3 -0.002285 -0.009627 0.012346 0.000000 0.000000 0.000000
# 4 0.000000 0.000000 0.000000 0.028771 0.000000 0.000000
# 5 0.000000 0.000000 0.000000 0.000000 0.049959 0.000000
# 6 0.000000 0.000000 0.000000 0.000000 0.000000 0.090824
#
#
# Mechanical properties :
#
#
# Convention : Reuss Voigt Hill
#
# Bulk Modulus (GPa) = 42.22696 54.31839 48.27267
# Shear Modulus (GPa) = 18.19619 22.61248 20.40434
#
# Velocity S-wave (km/s) = 3.03306 3.38115 3.21183
# Velocity P-wave (km/s) = 5.79781 6.53488 6.17735
#
# Compressibility (1/GPa) = 0.02368155
#
# Stress axis : x y z
#
# Youngs Moduli (GPa) = 41.98960 41.07275 81.00107
#
# Poissons Ratio (x) = 0.26705 0.18507
# Poissons Ratio (y) = 0.27301 0.77976
# Poissons Ratio (z) = 0.09594 0.39539
#
# Static dielectric constant tensor:
#      x y z
#    x 3.511380 0.000000 0.000000 
#    y 0.000000 4.020940 0.000000 
#    z 0.000000 0.000000 3.737480 
# 
# 
# High freq. dielectric constant tensor:
#      x y z
#    x 1.744360 0.000000 0.000000 
#    y 0.000000 1.741230 0.000000 
#    z 0.000000 0.000000 1.774500 
# 
# From -- ./inp_files/22039.got.cif
#   From: 2010.03.12/outbox.cif.g09.slc.cpg/sg68_12_cif.got.tgz:22039.got - 2010.04.10 23:14:56.
