data_PCOD8281642
_publ_section_title
;
Structure prediction by ZEFSAII (Michael W. Deem and Ramdas Pophale) SiO2 
 PCOD8281642
Probable space group: C C C A
;
_chemical_formula_sum "Si O2"
_cell_formula_units_Z 104
_cell_length_a 15.886531
_cell_length_b 16.899320
_cell_length_c 20.767952
_cell_angle_alpha 90.000000
_cell_angle_beta 90.000000
_cell_angle_gamma 90.000000
_cell_volume 5575.604701
_symmetry_space_group_name_H-M "C C C A"
_symmetry_group_IT_number 68
_space_group.IT_coordinate_system_code '2'
_symmetry_cell_setting 'orthorhombic'
loop_
_space_group_symop_operation_xyz
x,y,z
-x,1/2-y,z
x,1/2-y,1/2-z
-x,y,1/2-z
-x,-y,-z
x,1/2+y,-z
-x,1/2+y,1/2+z
x,-y,1/2+z
1/2+x,1/2+y,z
1/2-x,-y,z
1/2+x,-y,1/2-z
1/2-x,1/2+y,1/2-z
1/2-x,1/2-y,-z
1/2+x,y,-z
1/2-x,y,1/2+z
1/2+x,1/2-y,1/2+z
loop_
_atom_site_type_symbol
_atom_site_label
_atom_site_fract_x
_atom_site_fract_y
_atom_site_fract_z
Si Si1 0.196390 0.191517 0.540994
Si Si2 0.342659 0.173690 0.372924
Si Si3 0.615590 0.985057 0.802412
Si Si4 0.806250 0.576035 0.931727
Si Si5 0.718135 0.750000 0.750000
Si Si6 0.571437 0.480627 0.345175
Si Si7 0.761236 0.121247 0.337904
O O1 0.250000 0.250000 0.500000
O O2 0.133573 0.249739 0.581935
O O3 0.156750 0.123284 0.494549
O O4 0.261886 0.148215 0.588394
O O5 0.251695 0.136056 0.390802
O O6 0.341179 0.201958 0.299113
O O7 0.412723 0.105256 0.377477
O O8 0.611044 0.987288 0.725565
O O9 0.528063 0.990563 0.840036
O O10 0.665916 0.907018 0.822455
O O11 0.666997 0.058739 0.828049
O O12 0.750000 0.500000 0.952676
O O13 0.886197 0.548635 0.889119
O O14 0.780368 0.693807 0.709629
#
# Coordination Sequence:
#
# PCOD8281642 Si02
#       7
#    16  16  16  16   8  16  16
#     4   9  19  35  56  79 105 146 190 227 267 334
#     4   9  17  31  54  81 109 139 181 223 278 333
#     4  10  21  34  56  85 116 139 184 234 283 336
#     4   9  18  31  57  79 106 146 189 224 268 332
#     4  10  16  30  55  83 106 140 178 232 280 333
#     4  10  19  35  55  84 115 144 179 230 287 333
#     4  10  20  34  58  80 109 144 189 230 282 330
#
# _framework density 18.652685999999999
#
# number of rings (size 3 to 8) (size 9 to 14) (size 15 to 20)
#    0.000    2.462    1.538    0.923    6.462    0.000 
#    0.000    4.615    3.385   21.231    0.000    0.000 
#    0.000    0.000    0.000    0.000    0.000    0.000 
#
# Total GULP energy -644312.729377 kJ/mol
# GULP energy per Si atom -12390.629411 kJ/mol
# Density = 1.861023 g / cm^3
# Si number density = 18.652686 Si / 1000 Ang^3
#
#
#
# Elastic Constant Matrix: (Units=GPa)
#
#
# Indices 1 2 3 4 5 6 
#
# 1 88.8057 44.0104 44.7409 0.0000 0.0000 0.0000
# 2 44.0104 115.2154 63.9814 0.0000 0.0000 0.0000
# 3 44.7409 63.9814 123.4919 0.0000 0.0000 0.0000
# 4 0.0000 0.0000 0.0000 47.4709 0.0000 0.0000
# 5 0.0000 0.0000 0.0000 0.0000 19.7567 0.0000
# 6 0.0000 0.0000 0.0000 0.0000 0.0000 7.7140
#
#
#
# Elastic Compliance Matrix: (Units=1/GPa)
#
#
# Indices 1 2 3 4 5 6 
#
# 1 0.014857 -0.003771 -0.003429 0.000000 0.000000 0.000000
# 2 -0.003771 0.013142 -0.005443 0.000000 0.000000 0.000000
# 3 -0.003429 -0.005443 0.012160 0.000000 0.000000 0.000000
# 4 0.000000 0.000000 0.000000 0.021066 0.000000 0.000000
# 5 0.000000 0.000000 0.000000 0.000000 0.050616 0.000000
# 6 0.000000 0.000000 0.000000 0.000000 0.000000 0.129635
#
#
# Mechanical properties :
#
#
# Convention : Reuss Voigt Hill
#
# Bulk Modulus (GPa) = 67.23254 70.33093 68.78174
# Shear Modulus (GPa) = 18.40137 26.64034 22.52086
#
# Velocity S-wave (km/s) = 3.14431 3.78329 3.47851
# Velocity P-wave (km/s) = 7.02175 7.54134 7.28618
#
# Compressibility (1/GPa) = 0.01487375
#
# Stress axis : x y z
#
# Youngs Moduli (GPa) = 67.30916 76.08981 82.23730
#
# Poissons Ratio (x) = 0.28693 0.28198
# Poissons Ratio (y) = 0.25382 0.44761
# Poissons Ratio (z) = 0.23079 0.41415
#
# Static dielectric constant tensor:
#      x y z
#    x 2.916500 0.000000 0.000000 
#    y 0.000000 4.016530 0.000000 
#    z 0.000000 0.000000 3.816960 
# 
# 
# High freq. dielectric constant tensor:
#      x y z
#    x 1.669710 0.000000 0.000000 
#    y 0.000000 1.747840 0.000000 
#    z 0.000000 0.000000 1.737840 
# 
# From -- ./inp_files/38800.got.cif
#   From: 2010.03.12/outbox.cif.g09.slc.cpg/sg68_20_cif.got.tgz:38800.got - 2010.04.10 23:14:56.
