data_PCOD8281112
_publ_section_title
;
Structure prediction by ZEFSAII (Michael W. Deem and Ramdas Pophale) SiO2 
 PCOD8281112
Probable space group: C M M A
;
_chemical_formula_sum "Si O2"
_cell_formula_units_Z 64
_cell_length_a 9.098773
_cell_length_b 27.105289
_cell_length_c 12.819277
_cell_angle_alpha 90.000000
_cell_angle_beta 90.000000
_cell_angle_gamma 90.000000
_cell_volume 3161.552546
_symmetry_space_group_name_H-M "C M M A"
_symmetry_group_IT_number 67
_symmetry_cell_setting 'orthorhombic'
loop_
_space_group_symop_operation_xyz
x,y,z
-x,1/2-y,z
x,-y,-z
-x,1/2+y,-z
-x,-y,-z
x,1/2+y,-z
-x,y,z
x,1/2-y,z
1/2+x,1/2+y,z
1/2-x,-y,z
1/2+x,1/2-y,-z
1/2-x,y,-z
1/2-x,1/2-y,-z
1/2+x,y,-z
1/2-x,1/2+y,z
1/2+x,-y,z
loop_
_atom_site_type_symbol
_atom_site_label
_atom_site_fract_x
_atom_site_fract_y
_atom_site_fract_z
Si Si1 0.322580 0.750000 0.114129
Si Si2 0.750000 0.500000 0.269273
Si Si3 0.336334 0.432423 0.905497
Si Si4 0.337147 0.407957 0.394134
Si Si5 0.824477 0.345847 0.801267
O O1 0.500000 0.750000 0.105254
O O2 0.265231 0.796145 0.180341
O O3 0.250000 0.750000 0.000000
O O4 0.644084 0.531520 0.193785
O O5 0.661768 0.462220 0.342138
O O6 0.500000 0.416022 0.938905
O O7 0.233623 0.385266 0.884196
O O8 0.250000 0.459567 0.000000
O O9 0.500000 0.394924 0.427908
O O10 0.250000 0.406629 0.500000
O O11 0.281803 0.366209 0.313562
O O12 0.000000 0.338482 0.814399
#
# Coordination Sequence:
#
# PCOD8281112 Si02
#       5
#     8   8  16  16  16
#     4  12  24  40  65  94 121 152 189 230 282 340
#     4  10  22  36  56  82 114 154 198 242 286 340
#     4  11  22  36  55  81 116 156 197 240 289 345
#     4  10  22  39  60  85 114 150 192 240 290 339
#     4  10  22  41  61  85 118 153 192 237 286 341
#
# _framework density 20.243217999999999
#
# number of rings (size 3 to 8) (size 9 to 14) (size 15 to 20)
#    0.000    1.500    0.000    4.875    0.000   11.000 
#    0.000    0.625    0.000    0.000    0.000    0.000 
#    0.000    0.000    0.000    0.000    0.000    0.000 
#
# Total GULP energy -396617.294612 kJ/mol
# GULP energy per Si atom -12394.290457 kJ/mol
# Density = 2.019714 g / cm^3
# Si number density = 20.243218 Si / 1000 Ang^3
#
#
#
# Elastic Constant Matrix: (Units=GPa)
#
#
# Indices 1 2 3 4 5 6 
#
# 1 143.1340 52.1282 68.7280 0.0000 0.0000 0.0000
# 2 52.1282 136.4097 61.2092 0.0000 0.0000 0.0000
# 3 68.7280 61.2092 144.6781 0.0000 0.0000 0.0000
# 4 0.0000 0.0000 0.0000 16.5716 0.0000 0.0000
# 5 0.0000 0.0000 0.0000 0.0000 27.3280 0.0000
# 6 0.0000 0.0000 0.0000 0.0000 0.0000 14.6771
#
#
#
# Elastic Compliance Matrix: (Units=1/GPa)
#
#
# Indices 1 2 3 4 5 6 
#
# 1 0.009463 -0.001974 -0.003660 0.000000 0.000000 0.000000
# 2 -0.001974 0.009460 -0.003065 0.000000 0.000000 0.000000
# 3 -0.003660 -0.003065 0.009947 0.000000 0.000000 0.000000
# 4 0.000000 0.000000 0.000000 0.060344 0.000000 0.000000
# 5 0.000000 0.000000 0.000000 0.000000 0.036593 0.000000
# 6 0.000000 0.000000 0.000000 0.000000 0.000000 0.068133
#
#
# Mechanical properties :
#
#
# Convention : Reuss Voigt Hill
#
# Bulk Modulus (GPa) = 87.16166 87.59474 87.37820
# Shear Modulus (GPa) = 23.23831 27.85911 25.54871
#
# Velocity S-wave (km/s) = 3.39182 3.71377 3.55644
# Velocity P-wave (km/s) = 7.64787 7.85840 7.75385
#
# Compressibility (1/GPa) = 0.01147293
#
# Stress axis : x y z
#
# Youngs Moduli (GPa) = 105.67726 105.70450 100.53046
#
# Poissons Ratio (x) = 0.20864 0.36796
# Poissons Ratio (y) = 0.20858 0.30810
# Poissons Ratio (z) = 0.38679 0.32396
#
# Static dielectric constant tensor:
#      x y z
#    x 3.641460 0.000000 0.000000 
#    y 0.000000 3.698860 0.000000 
#    z 0.000000 0.000000 3.700370 
# 
# 
# High freq. dielectric constant tensor:
#      x y z
#    x 1.796460 0.000000 0.000000 
#    y 0.000000 1.785870 0.000000 
#    z 0.000000 0.000000 1.793710 
# 
# From -- ./inp_files/24864.got.cif
#   From: 2010.03.12/outbox.cif.g09.slc.cpg/sg67_13_cif.got.tgz:24864.got - 2010.04.10 22:41:39.
