data_PCOD8281062
_publ_section_title
;
Structure prediction by ZEFSAII (Michael W. Deem and Ramdas Pophale) SiO2 
 PCOD8281062
Probable space group: C M M A
;
_chemical_formula_sum "Si O2"
_cell_formula_units_Z 88
_cell_length_a 20.645576
_cell_length_b 9.573455
_cell_length_c 23.491810
_cell_angle_alpha 90.000000
_cell_angle_beta 90.000000
_cell_angle_gamma 90.000000
_cell_volume 4643.144331
_symmetry_space_group_name_H-M "C M M A"
_symmetry_group_IT_number 67
_symmetry_cell_setting 'orthorhombic'
loop_
_space_group_symop_operation_xyz
x,y,z
-x,1/2-y,z
x,-y,-z
-x,1/2+y,-z
-x,-y,-z
x,1/2+y,-z
-x,y,z
x,1/2-y,z
1/2+x,1/2+y,z
1/2-x,-y,z
1/2+x,1/2-y,-z
1/2-x,y,-z
1/2-x,1/2-y,-z
1/2+x,y,-z
1/2-x,1/2+y,z
1/2+x,-y,z
loop_
_atom_site_type_symbol
_atom_site_label
_atom_site_fract_x
_atom_site_fract_y
_atom_site_fract_z
Si Si1 0.340905 0.250000 0.453546
Si Si2 0.305664 0.750000 0.418657
Si Si3 0.882419 0.994420 0.616469
Si Si4 0.573217 0.913660 0.738987
Si Si5 0.000000 0.897803 0.551685
Si Si6 0.683509 0.086076 0.049072
Si Si7 0.183761 0.412623 0.823610
O O1 0.344740 0.250000 0.521649
O O2 0.269308 0.250000 0.429658
O O3 0.375987 0.385869 0.430474
O O4 0.320925 0.610087 0.382571
O O5 0.941204 0.903125 0.595177
O O6 0.895991 0.056653 0.677932
O O7 0.500000 0.978292 0.745762
O O8 0.566976 0.750000 0.747626
O O9 0.625188 0.972518 0.784662
O O10 0.000000 0.750000 0.520112
O O11 0.000000 0.000000 0.500000
O O12 0.691878 0.250000 0.032243
O O13 0.654592 0.073819 0.112410
O O14 0.750000 0.000000 0.051909
O O15 0.642516 0.000000 0.000000
O O16 0.199732 0.250000 0.810009
O O17 0.250000 0.500000 0.813793
#
# Coordination Sequence:
#
# PCOD8281062 Si02
#       7
#     8   8  16  16   8  16  16
#     4  11  24  41  61  85 113 148 180 217 288 349
#     4  11  24  41  59  85 117 144 176 229 282 349
#     4  12  23  40  61  83 111 144 186 229 279 341
#     4  10  21  40  60  80 110 150 196 236 279 338
#     4  12  26  40  62  88 112 140 181 234 285 340
#     4   9  15  25  46  77 113 147 181 226 275 326
#     4   9  19  35  56  84 114 148 192 235 280 329
#
# _framework density 18.952673000000001
#
# number of rings (size 3 to 8) (size 9 to 14) (size 15 to 20)
#    0.000    1.636    2.727    3.273    1.273    3.636 
#    1.636    0.000    0.000    0.545    0.000    0.000 
#    0.000    0.000    0.000    0.000    0.000    4.909 
#
# Total GULP energy -545131.563599 kJ/mol
# GULP energy per Si atom -12389.353718 kJ/mol
# Density = 1.890954 g / cm^3
# Si number density = 18.952673 Si / 1000 Ang^3
#
#
#
# Elastic Constant Matrix: (Units=GPa)
#
#
# Indices 1 2 3 4 5 6 
#
# 1 79.0257 23.4261 48.1454 0.0000 0.0000 0.0000
# 2 23.4261 89.4190 9.1703 0.0000 0.0000 0.0000
# 3 48.1454 9.1703 92.3647 0.0000 0.0000 0.0000
# 4 0.0000 0.0000 0.0000 23.2122 0.0000 0.0000
# 5 0.0000 0.0000 0.0000 0.0000 24.5082 0.0000
# 6 0.0000 0.0000 0.0000 0.0000 0.0000 37.5910
#
#
#
# Elastic Compliance Matrix: (Units=1/GPa)
#
#
# Indices 1 2 3 4 5 6 
#
# 1 0.019999 -0.004213 -0.010006 0.000000 0.000000 0.000000
# 2 -0.004213 0.012186 0.000986 0.000000 0.000000 0.000000
# 3 -0.010006 0.000986 0.015945 0.000000 0.000000 0.000000
# 4 0.000000 0.000000 0.000000 0.043081 0.000000 0.000000
# 5 0.000000 0.000000 0.000000 0.000000 0.040803 0.000000
# 6 0.000000 0.000000 0.000000 0.000000 0.000000 0.026602
#
#
# Mechanical properties :
#
#
# Convention : Reuss Voigt Hill
#
# Bulk Modulus (GPa) = 46.16130 46.92145 46.54138
# Shear Modulus (GPa) = 26.00058 29.06678 27.53368
#
# Velocity S-wave (km/s) = 3.70789 3.92043 3.81564
# Velocity P-wave (km/s) = 6.53760 6.73082 6.63492
#
# Compressibility (1/GPa) = 0.02166317
#
# Stress axis : x y z
#
# Youngs Moduli (GPa) = 50.00155 82.06170 62.71707
#
# Poissons Ratio (x) = 0.34575 0.62757
# Poissons Ratio (y) = 0.21067 -0.06186
# Poissons Ratio (z) = 0.50034 -0.08094
#
# Static dielectric constant tensor:
#      x y z
#    x 3.527220 0.000000 0.000000 
#    y 0.000000 3.550480 0.000000 
#    z 0.000000 0.000000 4.137080 
# 
# 
# High freq. dielectric constant tensor:
#      x y z
#    x 1.717160 0.000000 0.000000 
#    y 0.000000 1.740450 0.000000 
#    z 0.000000 0.000000 1.739410 
# 
# From -- ./inp_files/39617.got.cif
#   From: 2010.03.12/outbox.cif.g09.slc.cpg/sg67_20_cif.got.tgz:39617.got - 2010.04.10 22:41:39.
