data_PCOD8281044
_publ_section_title
;
Structure prediction by ZEFSAII (Michael W. Deem and Ramdas Pophale) SiO2 
 PCOD8281044
Probable space group: C M M A
;
_chemical_formula_sum "Si O2"
_cell_formula_units_Z 48
_cell_length_a 25.961365
_cell_length_b 16.813016
_cell_length_c 4.966131
_cell_angle_alpha 90.000000
_cell_angle_beta 90.000000
_cell_angle_gamma 90.000000
_cell_volume 2167.660785
_symmetry_space_group_name_H-M "C M M A"
_symmetry_group_IT_number 67
_symmetry_cell_setting 'orthorhombic'
loop_
_space_group_symop_operation_xyz
x,y,z
-x,1/2-y,z
x,-y,-z
-x,1/2+y,-z
-x,-y,-z
x,1/2+y,-z
-x,y,z
x,1/2-y,z
1/2+x,1/2+y,z
1/2-x,-y,z
1/2+x,1/2-y,-z
1/2-x,y,-z
1/2-x,1/2-y,-z
1/2+x,y,-z
1/2-x,1/2+y,z
1/2+x,-y,z
loop_
_atom_site_type_symbol
_atom_site_label
_atom_site_fract_x
_atom_site_fract_y
_atom_site_fract_z
Si Si1 0.109505 0.411257 0.895868
Si Si2 0.941564 0.159457 0.396702
Si Si3 0.215319 0.660484 0.259178
O O1 0.071286 0.397817 0.646177
O O2 0.166856 0.395996 0.788542
O O3 0.103273 0.500000 0.000000
O O4 0.095966 0.353524 0.143310
O O5 0.934527 0.250000 0.494705
O O6 0.000000 0.142191 0.304640
O O7 0.196331 0.750000 0.332402
O O8 0.250000 0.625038 0.500000
O O9 0.250000 0.661916 0.000000
#
# Coordination Sequence:
#
# PCOD8281044 Si02
#       3
#    16  16  16
#     4  12  25  41  64  97 134 168 210 270 334 387
#     4  11  24  43  67  93 126 173 223 267 317 386
#     4  10  21  39  64  90 119 161 209 255 307 374
#
# _framework density 22.143688000000001
#
# number of rings (size 3 to 8) (size 9 to 14) (size 15 to 20)
#    0.000    1.000    0.000    7.000    0.000   10.000 
#    0.000    1.667    0.000    0.000    0.000    0.000 
#    0.000    0.000    0.000    0.000    0.000    0.000 
#
# Total GULP energy -297755.495073 kJ/mol
# GULP energy per Si atom -12406.478961 kJ/mol
# Density = 2.209329 g / cm^3
# Si number density = 22.143688 Si / 1000 Ang^3
#
#
#
# Elastic Constant Matrix: (Units=GPa)
#
#
# Indices 1 2 3 4 5 6 
#
# 1 125.8031 60.5566 57.0980 0.0000 0.0000 0.0000
# 2 60.5566 83.1325 40.3028 0.0000 0.0000 0.0000
# 3 57.0980 40.3028 158.7032 0.0000 0.0000 0.0000
# 4 0.0000 0.0000 0.0000 37.8292 0.0000 0.0000
# 5 0.0000 0.0000 0.0000 0.0000 49.7008 0.0000
# 6 0.0000 0.0000 0.0000 0.0000 0.0000 19.9198
#
#
#
# Elastic Compliance Matrix: (Units=1/GPa)
#
#
# Indices 1 2 3 4 5 6 
#
# 1 0.013130 -0.008295 -0.002617 0.000000 0.000000 0.000000
# 2 -0.008295 0.018959 -0.001830 0.000000 0.000000 0.000000
# 3 -0.002617 -0.001830 0.007707 0.000000 0.000000 0.000000
# 4 0.000000 0.000000 0.000000 0.026435 0.000000 0.000000
# 5 0.000000 0.000000 0.000000 0.000000 0.020120 0.000000
# 6 0.000000 0.000000 0.000000 0.000000 0.000000 0.050201
#
#
# Mechanical properties :
#
#
# Convention : Reuss Voigt Hill
#
# Bulk Modulus (GPa) = 69.87771 75.95041 72.91406
# Shear Modulus (GPa) = 29.97451 35.46872 32.72162
#
# Velocity S-wave (km/s) = 3.68317 4.00653 3.84825
# Velocity P-wave (km/s) = 7.05072 7.46836 7.26254
#
# Compressibility (1/GPa) = 0.01431072
#
# Stress axis : x y z
#
# Youngs Moduli (GPa) = 76.16210 52.74567 129.74457
#
# Poissons Ratio (x) = 0.43755 0.33957
# Poissons Ratio (y) = 0.63180 0.23745
# Poissons Ratio (z) = 0.19933 0.09653
#
# Static dielectric constant tensor:
#      x y z
#    x 3.956160 0.000000 0.000000 
#    y 0.000000 3.882270 0.000000 
#    z 0.000000 0.000000 4.170160 
# 
# 
# High freq. dielectric constant tensor:
#      x y z
#    x 1.880050 0.000000 0.000000 
#    y 0.000000 1.859800 0.000000 
#    z 0.000000 0.000000 1.889470 
# 
# From -- ./inp_files/1151.got.cif
#   From: 2010.03.12/outbox.cif.g09.slc.cpg/sg67_1_cif.got.tgz:1151.got - 2010.04.10 22:41:39.
