data_PCOD8281358
_publ_section_title
;
Structure prediction by ZEFSAII (Michael W. Deem and Ramdas Pophale) SiO2 
 PCOD8281358
Probable space group: C M M A
;
_chemical_formula_sum "Si O2"
_cell_formula_units_Z 96
_cell_length_a 22.820292
_cell_length_b 22.559960
_cell_length_c 10.229541
_cell_angle_alpha 90.000000
_cell_angle_beta 90.000000
_cell_angle_gamma 90.000000
_cell_volume 5266.422164
_symmetry_space_group_name_H-M "C M M A"
_symmetry_group_IT_number 67
_symmetry_cell_setting 'orthorhombic'
loop_
_space_group_symop_operation_xyz
x,y,z
-x,1/2-y,z
x,-y,-z
-x,1/2+y,-z
-x,-y,-z
x,1/2+y,-z
-x,y,z
x,1/2-y,z
1/2+x,1/2+y,z
1/2-x,-y,z
1/2+x,1/2-y,-z
1/2-x,y,-z
1/2-x,1/2-y,-z
1/2+x,y,-z
1/2-x,1/2+y,z
1/2+x,-y,z
loop_
_atom_site_type_symbol
_atom_site_label
_atom_site_fract_x
_atom_site_fract_y
_atom_site_fract_z
Si Si1 0.181048 0.495689 0.853704
Si Si2 0.500000 0.179337 0.109643
Si Si3 0.500000 0.319686 0.400568
Si Si4 0.622221 0.681544 0.000108
Si Si5 0.125493 0.179724 0.504570
Si Si6 0.313015 0.367987 0.238988
Si Si7 0.325145 0.380542 0.750962
O O1 0.250000 0.500000 0.870892
O O2 0.162664 0.434498 0.784185
O O3 0.160738 0.549389 0.760169
O O4 0.153105 0.500000 0.000000
O O5 0.500000 0.250000 0.117316
O O6 0.500000 0.151866 0.255780
O O7 0.442105 0.156448 0.035947
O O8 0.500000 0.250000 0.381240
O O9 0.557742 0.339006 0.479133
O O10 0.618505 0.750000 0.035522
O O11 0.666836 0.672983 0.880497
O O12 0.644295 0.648415 0.126121
O O13 0.133200 0.250000 0.484788
O O14 0.162180 0.159186 0.628920
O O15 0.148478 0.144713 0.380710
O O16 0.243344 0.366666 0.245416
#
# Coordination Sequence:
#
# PCOD8281358 Si02
#       7
#    16   8   8  16  16  16  16
#     4   9  18  36  58  80 110 152 198 231 267 333
#     4   9  18  35  57  80 106 148 204 233 259 337
#     4   9  18  37  59  76 105 155 198 223 268 342
#     4  11  21  34  57  85 112 147 189 235 284 334
#     4  11  23  38  58  85 118 153 187 230 284 343
#     4  11  21  36  60  83 113 155 188 227 282 342
#     4  11  23  36  55  87 120 147 182 236 292 332
#
# _framework density 18.228694999999998
#
# number of rings (size 3 to 8) (size 9 to 14) (size 15 to 20)
#    0.000    1.667    3.333    2.000    0.000    5.333 
#    0.000    5.000    0.000    6.000    0.000    0.000 
#    0.000    0.000    0.000    0.000    0.000    0.000 
#
# Total GULP energy -595181.188545 kJ/mol
# GULP energy per Si atom -12399.608095 kJ/mol
# Density = 1.818721 g / cm^3
# Si number density = 18.228695 Si / 1000 Ang^3
#
#
#
# Elastic Constant Matrix: (Units=GPa)
#
#
# Indices 1 2 3 4 5 6 
#
# 1 125.0799 36.4790 61.4379 0.0000 0.0000 0.0000
# 2 36.4790 88.3872 44.1768 0.0000 0.0000 0.0000
# 3 61.4379 44.1768 149.3169 0.0000 0.0000 0.0000
# 4 0.0000 0.0000 0.0000 25.1817 0.0000 0.0000
# 5 0.0000 0.0000 0.0000 0.0000 32.4548 0.0000
# 6 0.0000 0.0000 0.0000 0.0000 0.0000 3.0042
#
#
#
# Elastic Compliance Matrix: (Units=1/GPa)
#
#
# Indices 1 2 3 4 5 6 
#
# 1 0.010487 -0.002548 -0.003561 0.000000 0.000000 0.000000
# 2 -0.002548 0.013896 -0.003063 0.000000 0.000000 0.000000
# 3 -0.003561 -0.003063 0.009069 0.000000 0.000000 0.000000
# 4 0.000000 0.000000 0.000000 0.039711 0.000000 0.000000
# 5 0.000000 0.000000 0.000000 0.000000 0.030812 0.000000
# 6 0.000000 0.000000 0.000000 0.000000 0.000000 0.332872
#
#
# Mechanical properties :
#
#
# Convention : Reuss Voigt Hill
#
# Bulk Modulus (GPa) = 66.19177 71.88571 69.03874
# Shear Modulus (GPa) = 10.86416 26.84081 18.85249
#
# Velocity S-wave (km/s) = 2.44394 3.84141 3.21942
# Velocity P-wave (km/s) = 6.65992 7.69392 7.19551
#
# Compressibility (1/GPa) = 0.01510762
#
# Stress axis : x y z
#
# Youngs Moduli (GPa) = 95.35326 71.96069 110.27057
#
# Poissons Ratio (x) = 0.18339 0.39269
# Poissons Ratio (y) = 0.24300 0.33774
# Poissons Ratio (z) = 0.33957 0.22040
#
# Static dielectric constant tensor:
#      x y z
#    x 3.503230 0.000000 0.000000 
#    y 0.000000 3.492040 0.000000 
#    z 0.000000 0.000000 3.295840 
# 
# 
# High freq. dielectric constant tensor:
#      x y z
#    x 1.701430 0.000000 0.000000 
#    y 0.000000 1.699040 0.000000 
#    z 0.000000 0.000000 1.713150 
# 
# From -- ./inp_files/12697.got.cif
#   From: 2010.03.12/outbox.cif.g09.slc.cpg/sg67_7_cif.got.tgz:12697.got - 2010.04.10 22:41:39.
