data_PCOD8281300
_publ_section_title
;
Structure prediction by ZEFSAII (Michael W. Deem and Ramdas Pophale) SiO2 
 PCOD8281300
Probable space group: C M M A
;
_chemical_formula_sum "Si O2"
_cell_formula_units_Z 96
_cell_length_a 22.134649
_cell_length_b 22.957185
_cell_length_c 9.600651
_cell_angle_alpha 90.000000
_cell_angle_beta 90.000000
_cell_angle_gamma 90.000000
_cell_volume 4878.563432
_symmetry_space_group_name_H-M "C M M A"
_symmetry_group_IT_number 67
_symmetry_cell_setting 'orthorhombic'
loop_
_space_group_symop_operation_xyz
x,y,z
-x,1/2-y,z
x,-y,-z
-x,1/2+y,-z
-x,-y,-z
x,1/2+y,-z
-x,y,z
x,1/2-y,z
1/2+x,1/2+y,z
1/2-x,-y,z
1/2+x,1/2-y,-z
1/2-x,y,-z
1/2-x,1/2-y,-z
1/2+x,y,-z
1/2-x,1/2+y,z
1/2+x,-y,z
loop_
_atom_site_type_symbol
_atom_site_label
_atom_site_fract_x
_atom_site_fract_y
_atom_site_fract_z
Si Si1 0.218708 0.750000 0.774658
Si Si2 0.214716 0.561096 0.195035
Si Si3 0.000000 0.558300 0.087261
Si Si4 0.620349 0.124632 0.016065
Si Si5 0.826021 0.368332 0.271149
Si Si6 0.628570 0.934366 0.539307
Si Si7 0.000000 0.555419 0.402068
Si Si8 0.836974 0.250000 0.921526
O O1 0.190263 0.802750 0.687725
O O2 0.291736 0.750000 0.787859
O O3 0.197387 0.750000 0.933332
O O4 0.250000 0.500000 0.175001
O O5 0.172318 0.578946 0.065591
O O6 0.264979 0.609639 0.201881
O O7 0.174651 0.564663 0.333589
O O8 0.943166 0.598684 0.058188
O O9 0.000000 0.534382 0.243451
O O10 0.000000 0.500000 0.000000
O O11 0.624995 0.189426 0.084718
O O12 0.622368 0.127778 0.847470
O O13 0.843096 0.401330 0.410080
O O14 0.562036 0.907166 0.573864
O O15 0.615928 0.000000 0.500000
O O16 0.000000 0.500000 0.500000
#
# Coordination Sequence:
#
# PCOD8281300 Si02
#       8
#     8  16   8  16  16  16   8   8
#     4   9  18  38  62  94 130 157 210 262 314 382
#     4  12  23  38  59  94 135 161 201 258 325 386
#     4  12  28  43  63  97 131 157 222 274 313 385
#     4  11  25  42  66  94 126 168 215 271 316 382
#     4  11  23  38  65  96 123 165 206 262 323 376
#     4  11  23  41  60  86 126 171 210 247 314 389
#     4  10  24  44  63  79 125 182 205 244 316 390
#     4   9  18  41  65  89 125 173 210 252 331 380
#
# _framework density 19.677923
#
# number of rings (size 3 to 8) (size 9 to 14) (size 15 to 20)
#    0.000    1.167    5.000    1.000    7.000    1.000 
#    0.000    2.500    0.000    1.500    0.000    0.000 
#    0.000    0.000    0.000    0.000    0.000    0.000 
#
# Total GULP energy -594847.019246 kJ/mol
# GULP energy per Si atom -12392.646234 kJ/mol
# Density = 1.963314 g / cm^3
# Si number density = 19.677923 Si / 1000 Ang^3
#
#
#
# Elastic Constant Matrix: (Units=GPa)
#
#
# Indices 1 2 3 4 5 6 
#
# 1 115.1348 53.8753 14.1310 0.0000 0.0000 0.0000
# 2 53.8753 136.9106 32.6087 0.0000 0.0000 0.0000
# 3 14.1310 32.6087 53.8151 0.0000 0.0000 0.0000
# 4 0.0000 0.0000 0.0000 4.3360 0.0000 0.0000
# 5 0.0000 0.0000 0.0000 0.0000 28.7874 0.0000
# 6 0.0000 0.0000 0.0000 0.0000 0.0000 19.3601
#
#
#
# Elastic Compliance Matrix: (Units=1/GPa)
#
#
# Indices 1 2 3 4 5 6 
#
# 1 0.010650 -0.004119 -0.000300 0.000000 0.000000 0.000000
# 2 -0.004119 0.010129 -0.005056 0.000000 0.000000 0.000000
# 3 -0.000300 -0.005056 0.021725 0.000000 0.000000 0.000000
# 4 0.000000 0.000000 0.000000 0.230625 0.000000 0.000000
# 5 0.000000 0.000000 0.000000 0.000000 0.034737 0.000000
# 6 0.000000 0.000000 0.000000 0.000000 0.000000 0.051653
#
#
# Mechanical properties :
#
#
# Convention : Reuss Voigt Hill
#
# Bulk Modulus (GPa) = 42.45876 56.34339 49.40107
# Shear Modulus (GPa) = 12.94258 24.17973 18.56116
#
# Velocity S-wave (km/s) = 2.56739 3.50919 3.07457
# Velocity P-wave (km/s) = 5.51474 6.71671 6.14518
#
# Compressibility (1/GPa) = 0.02355227
#
# Stress axis : x y z
#
# Youngs Moduli (GPa) = 93.89780 98.72439 46.03053
#
# Poissons Ratio (x) = 0.40667 0.01383
# Poissons Ratio (y) = 0.38679 0.23273
# Poissons Ratio (z) = 0.02821 0.49916
#
# Static dielectric constant tensor:
#      x y z
#    x 3.952270 0.000000 0.000000 
#    y 0.000000 3.956450 0.000000 
#    z 0.000000 0.000000 3.513240 
# 
# 
# High freq. dielectric constant tensor:
#      x y z
#    x 1.772070 0.000000 0.000000 
#    y 0.000000 1.761280 0.000000 
#    z 0.000000 0.000000 1.766470 
# 
# From -- ./inp_files/12715.got.cif
#   From: 2010.03.12/outbox.cif.g09.slc.cpg/sg67_7_cif.got.tgz:12715.got - 2010.04.10 22:41:39.
