data_PCOD8281476
_publ_section_title
;
Structure prediction by ZEFSAII (Michael W. Deem and Ramdas Pophale) SiO2 
 PCOD8281476
Probable space group: C M M A
;
_chemical_formula_sum "Si O2"
_cell_formula_units_Z 80
_cell_length_a 21.902161
_cell_length_b 16.134532
_cell_length_c 11.150093
_cell_angle_alpha 90.000000
_cell_angle_beta 90.000000
_cell_angle_gamma 90.000000
_cell_volume 3940.232325
_symmetry_space_group_name_H-M "C M M A"
_symmetry_group_IT_number 67
_symmetry_cell_setting 'orthorhombic'
loop_
_space_group_symop_operation_xyz
x,y,z
-x,1/2-y,z
x,-y,-z
-x,1/2+y,-z
-x,-y,-z
x,1/2+y,-z
-x,y,z
x,1/2-y,z
1/2+x,1/2+y,z
1/2-x,-y,z
1/2+x,1/2-y,-z
1/2-x,y,-z
1/2-x,1/2-y,-z
1/2+x,y,-z
1/2-x,1/2+y,z
1/2+x,-y,z
loop_
_atom_site_type_symbol
_atom_site_label
_atom_site_fract_x
_atom_site_fract_y
_atom_site_fract_z
Si Si1 0.067070 0.652578 0.455363
Si Si2 0.309709 0.909653 0.440845
Si Si3 0.669102 0.907668 0.962330
Si Si4 0.778658 0.845152 0.809153
Si Si5 0.929987 0.843138 0.189185
O O1 0.061212 0.750000 0.444422
O O2 0.124108 0.631183 0.539110
O O3 0.079651 0.617955 0.321665
O O4 0.000000 0.619032 0.501752
O O5 0.250000 0.863835 0.500000
O O6 0.299526 0.906260 0.298074
O O7 0.312318 0.000000 0.500000
O O8 0.713461 0.875422 0.857367
O O9 0.601758 0.902169 0.908204
O O10 0.673535 0.851084 0.081123
O O11 0.686773 0.000000 0.000000
O O12 0.775645 0.750000 0.763800
O O13 0.902583 0.750000 0.182292
O O14 0.000000 0.841754 0.153496
#
# Coordination Sequence:
#
# PCOD8281476 Si02
#       5
#    16  16  16  16  16
#     4   9  19  38  63  89 120 162 209 253 304 372
#     4  11  25  37  61  88 127 159 205 258 314 366
#     4  11  23  36  63  86 121 159 200 255 316 361
#     4  11  23  40  60  87 118 159 202 248 308 374
#     4   9  18  35  60  87 117 155 201 250 298 363
#
# _framework density 20.303370999999999
#
# number of rings (size 3 to 8) (size 9 to 14) (size 15 to 20)
#    0.000    1.800    0.000    6.600    8.400    4.000 
#    0.000    1.000    0.000    3.600    0.000    0.000 
#    0.000    0.000    0.000    0.000    0.000    0.000 
#
# Total GULP energy -495708.149714 kJ/mol
# GULP energy per Si atom -12392.703743 kJ/mol
# Density = 2.025716 g / cm^3
# Si number density = 20.303371 Si / 1000 Ang^3
#
#
#
# Elastic Constant Matrix: (Units=GPa)
#
#
# Indices 1 2 3 4 5 6 
#
# 1 128.8549 16.0603 71.8976 0.0000 0.0000 0.0000
# 2 16.0603 75.5524 30.9478 0.0000 0.0000 0.0000
# 3 71.8976 30.9478 131.0326 0.0000 0.0000 0.0000
# 4 0.0000 0.0000 0.0000 27.0443 0.0000 0.0000
# 5 0.0000 0.0000 0.0000 0.0000 3.7280 0.0000
# 6 0.0000 0.0000 0.0000 0.0000 0.0000 19.9142
#
#
#
# Elastic Compliance Matrix: (Units=1/GPa)
#
#
# Indices 1 2 3 4 5 6 
#
# 1 0.011187 0.000151 -0.006174 0.000000 0.000000 0.000000
# 2 0.000151 0.014656 -0.003544 0.000000 0.000000 0.000000
# 3 -0.006174 -0.003544 0.011856 0.000000 0.000000 0.000000
# 4 0.000000 0.000000 0.000000 0.036976 0.000000 0.000000
# 5 0.000000 0.000000 0.000000 0.000000 0.268242 0.000000
# 6 0.000000 0.000000 0.000000 0.000000 0.000000 0.050215
#
#
# Mechanical properties :
#
#
# Convention : Reuss Voigt Hill
#
# Bulk Modulus (GPa) = 53.86653 63.69461 58.78057
# Shear Modulus (GPa) = 11.94873 24.57290 18.26082
#
# Velocity S-wave (km/s) = 2.42855 3.48269 3.00225
# Velocity P-wave (km/s) = 5.86960 6.90013 6.40562
#
# Compressibility (1/GPa) = 0.01856440
#
# Stress axis : x y z
#
# Youngs Moduli (GPa) = 89.39222 68.23357 84.34314
#
# Poissons Ratio (x) = -0.01030 0.52072
# Poissons Ratio (y) = -0.01349 0.29893
# Poissons Ratio (z) = 0.55189 0.24184
#
# Static dielectric constant tensor:
#      x y z
#    x 4.215210 0.000000 0.000000 
#    y 0.000000 3.563670 0.000000 
#    z 0.000000 0.000000 3.679300 
# 
# 
# High freq. dielectric constant tensor:
#      x y z
#    x 1.799650 0.000000 0.000000 
#    y 0.000000 1.775520 0.000000 
#    z 0.000000 0.000000 1.788120 
# 
# From -- ./inp_files/17908.got.cif
#   From: 2010.03.12/outbox.cif.g09.slc.cpg/sg67_9_cif.got.tgz:17908.got - 2010.04.10 22:41:39.
