data_PCOD8281162
_publ_section_title
;
Structure prediction by ZEFSAII (Michael W. Deem and Ramdas Pophale) SiO2 
 PCOD8281162
Probable space group: C M M A
;
_chemical_formula_sum "Si O2"
_cell_formula_units_Z 96
_cell_length_a 18.689174
_cell_length_b 19.455092
_cell_length_c 14.675790
_cell_angle_alpha 90.000000
_cell_angle_beta 90.000000
_cell_angle_gamma 90.000000
_cell_volume 5336.111367
_symmetry_space_group_name_H-M "C M M A"
_symmetry_group_IT_number 67
_symmetry_cell_setting 'orthorhombic'
loop_
_space_group_symop_operation_xyz
x,y,z
-x,1/2-y,z
x,-y,-z
-x,1/2+y,-z
-x,-y,-z
x,1/2+y,-z
-x,y,z
x,1/2-y,z
1/2+x,1/2+y,z
1/2-x,-y,z
1/2+x,1/2-y,-z
1/2-x,y,-z
1/2-x,1/2-y,-z
1/2+x,y,-z
1/2-x,1/2+y,z
1/2+x,-y,z
loop_
_atom_site_type_symbol
_atom_site_label
_atom_site_fract_x
_atom_site_fract_y
_atom_site_fract_z
Si Si1 0.328682 0.926120 0.965596
Si Si2 0.666619 0.830833 0.267970
Si Si3 0.080260 0.902440 0.579902
Si Si4 0.582579 0.669811 0.088071
Si Si5 0.581019 0.061305 0.378616
Si Si6 0.706034 0.570204 0.759043
O O1 0.329529 0.929216 0.857516
O O2 0.250000 0.907465 0.000000
O O3 0.382531 0.869008 0.002860
O O4 0.354608 0.000000 0.000000
O O5 0.678077 0.750000 0.270590
O O6 0.633318 0.854311 0.363732
O O7 0.616216 0.853669 0.184132
O O8 0.742906 0.865106 0.253247
O O9 0.100193 0.900630 0.473214
O O10 0.000000 0.874545 0.594611
O O11 0.086285 0.979867 0.613587
O O12 0.500000 0.649957 0.092445
O O13 0.594925 0.750000 0.071061
O O14 0.500000 0.081441 0.348445
O O15 0.639886 0.084178 0.307041
O O16 0.750000 0.500000 0.739689
#
# Coordination Sequence:
#
# PCOD8281162 Si02
#       6
#    16  16  16  16  16  16
#     4  11  21  37  56  83 117 152 191 237 287 335
#     4  11  22  36  58  89 119 151 188 240 298 344
#     4   9  18  36  58  83 114 149 189 234 284 343
#     4  10  22  39  59  85 115 152 197 237 284 350
#     4   9  20  37  59  84 111 149 194 233 280 341
#     4  12  21  37  60  84 118 156 194 239 289 345
#
# _framework density 17.990628999999998
#
# number of rings (size 3 to 8) (size 9 to 14) (size 15 to 20)
#    0.000    1.667    5.000    1.500    0.000    3.667 
#    0.000    1.667    0.000    1.500    0.000    0.000 
#    0.000    0.000    0.000    0.000    0.000    0.000 
#
# Total GULP energy -595260.677414 kJ/mol
# GULP energy per Si atom -12401.264113 kJ/mol
# Density = 1.794968 g / cm^3
# Si number density = 17.990629 Si / 1000 Ang^3
#
#
#
# Elastic Constant Matrix: (Units=GPa)
#
#
# Indices 1 2 3 4 5 6 
#
# 1 116.3130 51.0555 65.3920 0.0000 0.0000 0.0000
# 2 51.0555 69.0766 42.1578 0.0000 0.0000 0.0000
# 3 65.3920 42.1578 113.7483 0.0000 0.0000 0.0000
# 4 0.0000 0.0000 0.0000 29.2018 0.0000 0.0000
# 5 0.0000 0.0000 0.0000 0.0000 28.8568 0.0000
# 6 0.0000 0.0000 0.0000 0.0000 0.0000 32.1451
#
#
#
# Elastic Compliance Matrix: (Units=1/GPa)
#
#
# Indices 1 2 3 4 5 6 
#
# 1 0.015323 -0.007688 -0.005959 0.000000 0.000000 0.000000
# 2 -0.007688 0.022566 -0.003944 0.000000 0.000000 0.000000
# 3 -0.005959 -0.003944 0.013679 0.000000 0.000000 0.000000
# 4 0.000000 0.000000 0.000000 0.034244 0.000000 0.000000
# 5 0.000000 0.000000 0.000000 0.000000 0.034654 0.000000
# 6 0.000000 0.000000 0.000000 0.000000 0.000000 0.031109
#
#
# Mechanical properties :
#
#
# Convention : Reuss Voigt Hill
#
# Bulk Modulus (GPa) = 61.03090 68.48318 64.75704
# Shear Modulus (GPa) = 26.01205 27.40957 26.71081
#
# Velocity S-wave (km/s) = 3.80658 3.90750 3.85737
# Velocity P-wave (km/s) = 7.30188 7.64897 7.47744
#
# Compressibility (1/GPa) = 0.01638514
#
# Stress axis : x y z
#
# Youngs Moduli (GPa) = 65.26337 44.31451 73.10557
#
# Poissons Ratio (x) = 0.34070 0.43565
# Poissons Ratio (y) = 0.50175 0.28831
# Poissons Ratio (z) = 0.38892 0.17476
#
# Static dielectric constant tensor:
#      x y z
#    x 3.799790 0.000000 0.000000 
#    y 0.000000 3.181910 0.000000 
#    z 0.000000 0.000000 3.524770 
# 
# 
# High freq. dielectric constant tensor:
#      x y z
#    x 1.699420 0.000000 0.000000 
#    y 0.000000 1.681980 0.000000 
#    z 0.000000 0.000000 1.703480 
# 
# From -- ./inp_files/20859.got.cif
#   From: 2010.03.12/outbox.cif.g09.slc.cpg/sg67_11_cif.got.tgz:20859.got - 2010.04.10 22:41:39.
