data_PCOD8281318
_publ_section_title
;
Structure prediction by ZEFSAII (Michael W. Deem and Ramdas Pophale) SiO2 
 PCOD8281318
Probable space group: C M M A
;
_chemical_formula_sum "Si O2"
_cell_formula_units_Z 60
_cell_length_a 14.166273
_cell_length_b 15.420358
_cell_length_c 12.452015
_cell_angle_alpha 90.000000
_cell_angle_beta 90.000000
_cell_angle_gamma 90.000000
_cell_volume 2720.130239
_symmetry_space_group_name_H-M "C M M A"
_symmetry_group_IT_number 67
_symmetry_cell_setting 'orthorhombic'
loop_
_space_group_symop_operation_xyz
x,y,z
-x,1/2-y,z
x,-y,-z
-x,1/2+y,-z
-x,-y,-z
x,1/2+y,-z
-x,y,z
x,1/2-y,z
1/2+x,1/2+y,z
1/2-x,-y,z
1/2+x,1/2-y,-z
1/2-x,y,-z
1/2-x,1/2-y,-z
1/2+x,y,-z
1/2-x,1/2+y,z
1/2+x,-y,z
loop_
_atom_site_type_symbol
_atom_site_label
_atom_site_fract_x
_atom_site_fract_y
_atom_site_fract_z
Si Si1 0.693004 0.750000 0.769389
Si Si2 0.149390 0.580777 0.555035
Si Si3 0.400182 0.250000 0.449078
Si Si4 0.000000 0.848118 0.901153
Si Si5 0.500000 0.250000 0.105909
Si Si6 0.812600 0.418616 0.198981
O O1 0.684012 0.750000 0.638717
O O2 0.590762 0.750000 0.820038
O O3 0.748363 0.666212 0.808542
O O4 0.094313 0.500000 0.500000
O O5 0.250000 0.587201 0.500000
O O6 0.097715 0.669702 0.530279
O O7 0.154337 0.562224 0.680714
O O8 0.500000 0.250000 0.385923
O O9 0.093114 0.903001 0.870447
O O10 0.000000 0.750000 0.848052
O O11 0.000000 0.836015 0.030436
O O12 0.750000 0.500000 0.156150
#
# Coordination Sequence:
#
# PCOD8281318 Si02
#       6
#     8  16   8   8   4  16
#     4  12  22  44  71  95 143 183 232 297 358 409
#     4  11  21  40  60  94 143 181 221 269 327 407
#     4  12  24  34  60 100 134 188 233 270 334 416
#     4  10  26  49  72  99 136 184 235 292 359 416
#     4  10  26  50  74 100 134 178 232 308 366 402
#     4  12  24  43  73 105 140 190 231 281 348 422
#
# _framework density 22.057767999999999
#
# number of rings (size 3 to 8) (size 9 to 14) (size 15 to 20)
#    0.400    0.267    7.333    1.200    1.867    3.733 
#    4.800    4.000    0.000    0.000    0.000    0.000 
#    0.000    0.000    0.000    0.000    0.000    0.000 
#
# Total GULP energy -371864.810010 kJ/mol
# GULP energy per Si atom -12395.493667 kJ/mol
# Density = 2.200756 g / cm^3
# Si number density = 22.057768 Si / 1000 Ang^3
#
#
#
# Elastic Constant Matrix: (Units=GPa)
#
#
# Indices 1 2 3 4 5 6 
#
# 1 123.3113 54.3142 16.4375 0.0000 0.0000 0.0000
# 2 54.3142 186.8986 16.6947 0.0000 0.0000 0.0000
# 3 16.4375 16.6947 67.8257 0.0000 0.0000 0.0000
# 4 0.0000 0.0000 0.0000 29.6406 0.0000 0.0000
# 5 0.0000 0.0000 0.0000 0.0000 20.4284 0.0000
# 6 0.0000 0.0000 0.0000 0.0000 0.0000 59.7907
#
#
#
# Elastic Compliance Matrix: (Units=1/GPa)
#
#
# Indices 1 2 3 4 5 6 
#
# 1 0.009478 -0.002607 -0.001655 0.000000 0.000000 0.000000
# 2 -0.002607 0.006188 -0.000891 0.000000 0.000000 0.000000
# 3 -0.001655 -0.000891 0.015364 0.000000 0.000000 0.000000
# 4 0.000000 0.000000 0.000000 0.033737 0.000000 0.000000
# 5 0.000000 0.000000 0.000000 0.000000 0.048952 0.000000
# 6 0.000000 0.000000 0.000000 0.000000 0.000000 0.016725
#
#
# Mechanical properties :
#
#
# Convention : Reuss Voigt Hill
#
# Bulk Modulus (GPa) = 48.25457 61.43648 54.84552
# Shear Modulus (GPa) = 33.86185 41.34456 37.60320
#
# Velocity S-wave (km/s) = 3.92234 4.33410 4.13335
# Velocity P-wave (km/s) = 6.51437 7.27729 6.90637
#
# Compressibility (1/GPa) = 0.02072343
#
# Stress axis : x y z
#
# Youngs Moduli (GPa) = 105.50362 161.61329 65.08613
#
# Poissons Ratio (x) = 0.42126 0.10775
# Poissons Ratio (y) = 0.27501 0.05801
# Poissons Ratio (z) = 0.17466 0.14405
#
# Static dielectric constant tensor:
#      x y z
#    x 3.917150 0.000000 0.000000 
#    y 0.000000 4.961620 0.000000 
#    z 0.000000 0.000000 3.861790 
# 
# 
# High freq. dielectric constant tensor:
#      x y z
#    x 1.874990 0.000000 0.000000 
#    y 0.000000 1.878730 0.000000 
#    z 0.000000 0.000000 1.849640 
# 
# From -- ./inp_files/26747.got.cif
#   From: 2010.03.12/outbox.cif.g09.slc.cpg/sg67_14_cif.got.tgz:26747.got - 2010.04.10 22:41:39.
