data_PCOD8281696
_publ_section_title
;
Structure prediction by ZEFSAII (Michael W. Deem and Ramdas Pophale) SiO2 
 PCOD8281696
Probable space group: C C C A
;
_chemical_formula_sum "Si O2"
_cell_formula_units_Z 120
_cell_length_a 18.757758
_cell_length_b 19.681020
_cell_length_c 17.394019
_cell_angle_alpha 90.000000
_cell_angle_beta 90.000000
_cell_angle_gamma 90.000000
_cell_volume 6421.381484
_symmetry_space_group_name_H-M "C C C A"
_symmetry_group_IT_number 68
_space_group.IT_coordinate_system_code '2'
_symmetry_cell_setting 'orthorhombic'
loop_
_space_group_symop_operation_xyz
x,y,z
-x,1/2-y,z
x,1/2-y,1/2-z
-x,y,1/2-z
-x,-y,-z
x,1/2+y,-z
-x,1/2+y,1/2+z
x,-y,1/2+z
1/2+x,1/2+y,z
1/2-x,-y,z
1/2+x,-y,1/2-z
1/2-x,1/2+y,1/2-z
1/2-x,1/2-y,-z
1/2+x,y,-z
1/2-x,y,1/2+z
1/2+x,1/2-y,1/2+z
loop_
_atom_site_type_symbol
_atom_site_label
_atom_site_fract_x
_atom_site_fract_y
_atom_site_fract_z
Si Si1 0.900474 0.311209 0.993263
Si Si2 0.553062 0.667639 0.469143
Si Si3 0.779327 0.856969 0.106157
Si Si4 0.273524 0.292672 0.895626
Si Si5 0.250000 0.000000 0.134981
Si Si6 0.813437 0.600607 0.021780
Si Si7 0.710947 0.381037 0.742518
Si Si8 0.430340 0.678240 0.209554
O O1 0.923454 0.233190 0.981145
O O2 0.846334 0.318260 0.064748
O O3 0.972263 0.354668 0.009563
O O4 0.861353 0.341431 0.916892
O O5 0.605630 0.605460 0.490567
O O6 0.555858 0.689601 0.380270
O O7 0.732458 0.788094 0.098655
O O8 0.773133 0.886062 0.192653
O O9 0.742197 0.910860 0.048502
O O10 0.206747 0.328057 0.937329
O O11 0.274077 0.313668 0.806840
O O12 0.192336 0.961741 0.081347
O O13 0.291081 0.946789 0.188390
O O14 0.634115 0.374798 0.782323
O O15 0.412456 0.750000 0.250000
O O16 0.500000 0.646113 0.250000
#
# Coordination Sequence:
#
# PCOD8281696 Si02
#       8
#    16  16  16  16   8  16  16  16
#     4  10  18  28  52  87 124 138 175 218 287 354
#     4  11  18  31  52  85 119 156 171 221 290 355
#     4  11  18  32  56  88 108 140 185 242 286 336
#     4  10  17  32  53  86 115 140 173 229 292 344
#     4  10  26  40  56  74 102 164 202 244 266 324
#     4  10  19  36  55  77 111 147 191 228 275 335
#     4  11  21  35  57  79 114 145 192 232 284 331
#     4  11  20  32  56  93 125 143 169 233 305 356
#
# _framework density 18.687567000000001
#
# number of rings (size 3 to 8) (size 9 to 14) (size 15 to 20)
#    0.000    1.467    4.000    5.200    0.000    0.533 
#    0.000    0.000    2.933   10.400    0.000    0.000 
#    0.000    0.000    0.000    0.000    0.000    0.000 
#
# Total GULP energy -743842.922363 kJ/mol
# GULP energy per Si atom -12397.382039 kJ/mol
# Density = 1.864503 g / cm^3
# Si number density = 18.687567 Si / 1000 Ang^3
#
#
#
# Elastic Constant Matrix: (Units=GPa)
#
#
# Indices 1 2 3 4 5 6 
#
# 1 135.5445 28.6480 54.7328 0.0000 0.0000 0.0000
# 2 28.6480 58.4065 35.7505 0.0000 0.0000 0.0000
# 3 54.7328 35.7505 116.4680 0.0000 0.0000 0.0000
# 4 0.0000 0.0000 0.0000 22.5304 0.0000 0.0000
# 5 0.0000 0.0000 0.0000 0.0000 27.9250 0.0000
# 6 0.0000 0.0000 0.0000 0.0000 0.0000 12.0381
#
#
#
# Elastic Compliance Matrix: (Units=1/GPa)
#
#
# Indices 1 2 3 4 5 6 
#
# 1 0.009358 -0.002337 -0.003680 0.000000 0.000000 0.000000
# 2 -0.002337 0.021666 -0.005552 0.000000 0.000000 0.000000
# 3 -0.003680 -0.005552 0.012020 0.000000 0.000000 0.000000
# 4 0.000000 0.000000 0.000000 0.044385 0.000000 0.000000
# 5 0.000000 0.000000 0.000000 0.000000 0.035810 0.000000
# 6 0.000000 0.000000 0.000000 0.000000 0.000000 0.083070
#
#
# Mechanical properties :
#
#
# Convention : Reuss Voigt Hill
#
# Bulk Modulus (GPa) = 50.23977 60.96461 55.60219
# Shear Modulus (GPa) = 21.17907 25.25120 23.21514
#
# Velocity S-wave (km/s) = 3.37014 3.67990 3.52842
# Velocity P-wave (km/s) = 6.48739 7.12386 6.81306
#
# Compressibility (1/GPa) = 0.01990455
#
# Stress axis : x y z
#
# Youngs Moduli (GPa) = 106.86424 46.15458 83.19650
#
# Poissons Ratio (x) = 0.10788 0.30617
# Poissons Ratio (y) = 0.24977 0.46192
# Poissons Ratio (z) = 0.39327 0.25626
#
# Static dielectric constant tensor:
#      x y z
#    x 3.594500 0.000000 0.000000 
#    y 0.000000 3.067380 0.000000 
#    z 0.000000 0.000000 3.631850 
# 
# 
# High freq. dielectric constant tensor:
#      x y z
#    x 1.718750 0.000000 0.000000 
#    y 0.000000 1.683620 0.000000 
#    z 0.000000 0.000000 1.730480 
# 
# From -- ./inp_files/32317.got.cif
#   From: 2010.03.12/outbox.cif.g09.slc.cpg/sg68_17_cif.got.tgz:32317.got - 2010.04.10 23:14:56.
