data_PCOD8281446
_publ_section_title
;
Structure prediction by ZEFSAII (Michael W. Deem and Ramdas Pophale) SiO2 
 PCOD8281446
Probable space group: C M M A
;
_chemical_formula_sum "Si O2"
_cell_formula_units_Z 72
_cell_length_a 8.515834
_cell_length_b 16.363444
_cell_length_c 24.723806
_cell_angle_alpha 90.000000
_cell_angle_beta 90.000000
_cell_angle_gamma 90.000000
_cell_volume 3445.222135
_symmetry_space_group_name_H-M "C M M A"
_symmetry_group_IT_number 67
_symmetry_cell_setting 'orthorhombic'
loop_
_space_group_symop_operation_xyz
x,y,z
-x,1/2-y,z
x,-y,-z
-x,1/2+y,-z
-x,-y,-z
x,1/2+y,-z
-x,y,z
x,1/2-y,z
1/2+x,1/2+y,z
1/2-x,-y,z
1/2+x,1/2-y,-z
1/2-x,y,-z
1/2-x,1/2-y,-z
1/2+x,y,-z
1/2-x,1/2+y,z
1/2+x,-y,z
loop_
_atom_site_type_symbol
_atom_site_label
_atom_site_fract_x
_atom_site_fract_y
_atom_site_fract_z
Si Si1 0.815732 0.085585 0.762647
Si Si2 0.314607 0.590496 0.120801
Si Si3 0.170649 0.342910 0.338717
Si Si4 0.686396 0.750000 0.939949
Si Si5 0.815966 0.589986 0.445559
O O1 0.726464 0.110453 0.817250
O O2 0.776688 0.147084 0.714619
O O3 0.000000 0.082615 0.775149
O O4 0.750000 0.000000 0.741326
O O5 0.500000 0.588813 0.112338
O O6 0.250000 0.500000 0.103856
O O7 0.244550 0.665567 0.086903
O O8 0.129939 0.250000 0.343861
O O9 0.267629 0.365492 0.391305
O O10 0.000000 0.389323 0.335143
O O11 0.500000 0.750000 0.938621
O O12 0.750000 0.750000 0.000000
O O13 0.750000 0.500000 0.442492
O O14 0.750000 0.633887 0.500000
O O15 0.000000 0.588304 0.450026
#
# Coordination Sequence:
#
# PCOD8281446 Si02
#       5
#    16  16  16   8  16
#     4  11  22  39  63  91 124 162 207 257 311 373
#     4  11  23  43  69 100 136 178 225 276 333 393
#     4  11  24  40  58  84 119 157 199 248 306 368
#     4  12  26  46  70 102 138 180 227 276 331 390
#     4  11  22  39  62  85 112 148 195 245 300 363
#
# _framework density 20.898508
#
# number of rings (size 3 to 8) (size 9 to 14) (size 15 to 20)
#    0.000    0.889    0.000   10.333    1.556    2.667 
#    0.000    2.222    0.000    0.000    0.000    0.000 
#    0.000    0.000    0.000    0.000    0.000    0.000 
#
# Total GULP energy -446268.979074 kJ/mol
# GULP energy per Si atom -12396.360530 kJ/mol
# Density = 2.085094 g / cm^3
# Si number density = 20.898508 Si / 1000 Ang^3
#
#
#
# Elastic Constant Matrix: (Units=GPa)
#
#
# Indices 1 2 3 4 5 6 
#
# 1 201.0036 58.9258 58.7900 0.0000 0.0000 0.0000
# 2 58.9258 112.1207 76.0808 0.0000 0.0000 0.0000
# 3 58.7900 76.0808 146.5893 0.0000 0.0000 0.0000
# 4 0.0000 0.0000 0.0000 29.7672 0.0000 0.0000
# 5 0.0000 0.0000 0.0000 0.0000 40.2022 0.0000
# 6 0.0000 0.0000 0.0000 0.0000 0.0000 27.3034
#
#
#
# Elastic Compliance Matrix: (Units=1/GPa)
#
#
# Indices 1 2 3 4 5 6 
#
# 1 0.006013 -0.002352 -0.001191 0.000000 0.000000 0.000000
# 2 -0.002352 0.014688 -0.006680 0.000000 0.000000 0.000000
# 3 -0.001191 -0.006680 0.010766 0.000000 0.000000 0.000000
# 4 0.000000 0.000000 0.000000 0.033594 0.000000 0.000000
# 5 0.000000 0.000000 0.000000 0.000000 0.024874 0.000000
# 6 0.000000 0.000000 0.000000 0.000000 0.000000 0.036625
#
#
# Mechanical properties :
#
#
# Convention : Reuss Voigt Hill
#
# Bulk Modulus (GPa) = 90.73060 94.14519 92.43789
# Shear Modulus (GPa) = 33.18306 37.18236 35.18271
#
# Velocity S-wave (km/s) = 3.98907 4.22262 4.10750
# Velocity P-wave (km/s) = 8.04525 8.30184 8.17455
#
# Compressibility (1/GPa) = 0.01102164
#
# Stress axis : x y z
#
# Youngs Moduli (GPa) = 166.31080 68.08405 92.88398
#
# Poissons Ratio (x) = 0.16014 0.11060
# Poissons Ratio (y) = 0.39119 0.62044
# Poissons Ratio (z) = 0.19802 0.45478
#
# Static dielectric constant tensor:
#      x y z
#    x 4.050760 0.000000 0.000000 
#    y 0.000000 3.790210 0.000000 
#    z 0.000000 0.000000 4.489630 
# 
# 
# High freq. dielectric constant tensor:
#      x y z
#    x 1.846090 0.000000 0.000000 
#    y 0.000000 1.812510 0.000000 
#    z 0.000000 0.000000 1.828520 
# 
# From -- ./inp_files/43113.got.cif
#   From: 2010.03.12/outbox.cif.g09.slc.cpg/sg67_22_cif.got.tgz:43113.got - 2010.04.10 22:41:39.
