data_PCOD8281348
_publ_section_title
;
Structure prediction by ZEFSAII (Michael W. Deem and Ramdas Pophale) SiO2 
 PCOD8281348
Probable space group: C M M A
;
_chemical_formula_sum "Si O2"
_cell_formula_units_Z 80
_cell_length_a 8.905357
_cell_length_b 30.418052
_cell_length_c 15.766784
_cell_angle_alpha 90.000000
_cell_angle_beta 90.000000
_cell_angle_gamma 90.000000
_cell_volume 4270.963404
_symmetry_space_group_name_H-M "C M M A"
_symmetry_group_IT_number 67
_symmetry_cell_setting 'orthorhombic'
loop_
_space_group_symop_operation_xyz
x,y,z
-x,1/2-y,z
x,-y,-z
-x,1/2+y,-z
-x,-y,-z
x,1/2+y,-z
-x,y,z
x,1/2-y,z
1/2+x,1/2+y,z
1/2-x,-y,z
1/2+x,1/2-y,-z
1/2-x,y,-z
1/2-x,1/2-y,-z
1/2+x,y,-z
1/2-x,1/2+y,z
1/2+x,-y,z
loop_
_atom_site_type_symbol
_atom_site_label
_atom_site_fract_x
_atom_site_fract_y
_atom_site_fract_z
Si Si1 0.323428 0.700133 0.913783
Si Si2 0.177933 0.956148 0.753679
Si Si3 0.334584 0.449196 0.420989
Si Si4 0.837539 0.152439 0.580061
Si Si5 0.679433 0.864257 0.765101
O O1 0.500000 0.697280 0.925149
O O2 0.270651 0.750000 0.895531
O O3 0.269651 0.670278 0.835936
O O4 0.250000 0.682146 0.000000
O O5 0.221102 0.958255 0.655340
O O6 0.247712 0.911000 0.790692
O O7 0.000000 0.955994 0.767490
O O8 0.250000 0.000000 0.797990
O O9 0.500000 0.470344 0.404181
O O10 0.250000 0.471372 0.500000
O O11 0.359635 0.398381 0.439809
O O12 0.750000 0.174314 0.500000
O O13 0.761189 0.155137 0.674153
O O14 0.000000 0.176099 0.583025
O O15 0.500000 0.871052 0.759048
#
# Coordination Sequence:
#
# PCOD8281348 Si02
#       5
#    16  16  16  16  16
#     4   9  18  34  58  86 112 135 161 200 254 313
#     4  11  21  32  46  66  94 131 174 216 258 302
#     4   9  16  27  41  60  88 124 168 217 265 307
#     4   8  14  24  40  62  91 128 168 208 246 287
#     4   9  18  33  51  73 103 138 173 210 256 308
#
# _framework density 18.731135999999999
#
# number of rings (size 3 to 8) (size 9 to 14) (size 15 to 20)
#    0.000    2.800    0.000    3.600    0.000    6.000 
#    0.000    2.000    0.000    1.200    0.000    4.200 
#    0.000    0.000    0.000    0.000    0.000    2.200 
#
# Total GULP energy -495523.449042 kJ/mol
# GULP energy per Si atom -12388.086226 kJ/mol
# Density = 1.868850 g / cm^3
# Si number density = 18.731136 Si / 1000 Ang^3
#
#
#
# Elastic Constant Matrix: (Units=GPa)
#
#
# Indices 1 2 3 4 5 6 
#
# 1 80.8345 31.1214 38.1703 0.0000 0.0000 0.0000
# 2 31.1214 79.3190 63.9060 0.0000 0.0000 0.0000
# 3 38.1703 63.9060 122.4842 0.0000 0.0000 0.0000
# 4 0.0000 0.0000 0.0000 101.1556 0.0000 0.0000
# 5 0.0000 0.0000 0.0000 0.0000 24.6111 0.0000
# 6 0.0000 0.0000 0.0000 0.0000 0.0000 18.6274
#
#
#
# Elastic Compliance Matrix: (Units=1/GPa)
#
#
# Indices 1 2 3 4 5 6 
#
# 1 0.015104 -0.003681 -0.002786 0.000000 0.000000 0.000000
# 2 -0.003681 0.022648 -0.010669 0.000000 0.000000 0.000000
# 3 -0.002786 -0.010669 0.014599 0.000000 0.000000 0.000000
# 4 0.000000 0.000000 0.000000 0.009886 0.000000 0.000000
# 5 0.000000 0.000000 0.000000 0.000000 0.040632 0.000000
# 6 0.000000 0.000000 0.000000 0.000000 0.000000 0.053684
#
#
# Mechanical properties :
#
#
# Convention : Reuss Voigt Hill
#
# Bulk Modulus (GPa) = 55.31757 61.00367 58.16062
# Shear Modulus (GPa) = 25.39976 38.84148 32.12062
#
# Velocity S-wave (km/s) = 3.68641 4.55865 4.14554
# Velocity P-wave (km/s) = 6.90768 7.76835 7.35062
#
# Compressibility (1/GPa) = 0.01807744
#
# Stress axis : x y z
#
# Youngs Moduli (GPa) = 66.20796 44.15458 68.49691
#
# Poissons Ratio (x) = 0.16255 0.19084
# Poissons Ratio (y) = 0.24374 0.73080
# Poissons Ratio (z) = 0.18447 0.47109
#
# Static dielectric constant tensor:
#      x y z
#    x 3.638090 0.000000 0.000000 
#    y 0.000000 3.489880 0.000000 
#    z 0.000000 0.000000 3.335990 
# 
# 
# High freq. dielectric constant tensor:
#      x y z
#    x 1.724980 0.000000 0.000000 
#    y 0.000000 1.710140 0.000000 
#    z 0.000000 0.000000 1.698290 
# 
# From -- ./inp_files/32282.got.cif
#   From: 2010.03.12/outbox.cif.g09.slc.cpg/sg67_17_cif.got.tgz:32282.got - 2010.04.10 22:41:39.
