data_PCOD8281457
_publ_section_title
;
Structure prediction by ZEFSAII (Michael W. Deem and Ramdas Pophale) SiO2 
 PCOD8281457
Probable space group: C M M A
;
_chemical_formula_sum "Si O2"
_cell_formula_units_Z 96
_cell_length_a 17.641409
_cell_length_b 11.357287
_cell_length_c 24.945437
_cell_angle_alpha 90.000000
_cell_angle_beta 90.000000
_cell_angle_gamma 90.000000
_cell_volume 4998.031464
_symmetry_space_group_name_H-M "C M M A"
_symmetry_group_IT_number 67
_symmetry_cell_setting 'orthorhombic'
loop_
_space_group_symop_operation_xyz
x,y,z
-x,1/2-y,z
x,-y,-z
-x,1/2+y,-z
-x,-y,-z
x,1/2+y,-z
-x,y,z
x,1/2-y,z
1/2+x,1/2+y,z
1/2-x,-y,z
1/2+x,1/2-y,-z
1/2-x,y,-z
1/2-x,1/2-y,-z
1/2+x,y,-z
1/2-x,1/2+y,z
1/2+x,-y,z
loop_
_atom_site_type_symbol
_atom_site_label
_atom_site_fract_x
_atom_site_fract_y
_atom_site_fract_z
Si Si1 0.916085 0.750000 0.212266
Si Si2 0.087941 0.615578 0.347855
Si Si3 0.090168 0.382645 0.530732
Si Si4 0.083159 0.750000 0.089396
Si Si5 0.660699 0.485197 0.060312
Si Si6 0.838973 0.982261 0.249542
Si Si7 0.083690 0.112489 0.156799
O O1 0.935755 0.750000 0.150943
O O2 0.863852 0.860486 0.224021
O O3 0.000000 0.750000 0.241905
O O4 0.102167 0.750000 0.326533
O O5 0.118781 0.604239 0.408264
O O6 0.130314 0.519339 0.310800
O O7 0.000000 0.583996 0.346748
O O8 0.122412 0.500000 0.500000
O O9 0.116468 0.250000 0.509601
O O10 0.000000 0.384408 0.528048
O O11 0.136856 0.856385 0.075671
O O12 0.000000 0.750000 0.059927
O O13 0.750000 0.500000 0.063173
O O14 0.625410 0.575724 0.102461
O O15 0.629983 0.500000 0.000000
O O16 0.750000 0.000000 0.250894
O O17 0.873447 0.083429 0.212139
O O18 0.075472 0.250000 0.154451
O O19 0.000000 0.052872 0.158124
#
# Coordination Sequence:
#
# PCOD8281457 Si02
#       7
#     8  16  16   8  16  16  16
#     4  11  22  40  65  89 113 150 203 252 290 345
#     4   9  17  32  57  85 113 151 202 254 293 340
#     4   8  14  26  48  80 115 150 196 253 305 349
#     4  11  24  41  67  95 115 150 205 246 280 350
#     4  11  26  42  64  90 122 153 192 242 297 352
#     4  12  24  36  61  88 118 152 195 248 298 353
#     4  11  25  42  60  85 121 157 188 235 303 366
#
# _framework density 19.207561999999999
#
# number of rings (size 3 to 8) (size 9 to 14) (size 15 to 20)
#    0.000    1.667    2.500    3.500    3.500    2.000 
#    0.000    0.833    0.000    3.500    0.000    2.333 
#    0.000    0.000    0.000    0.000    0.000    0.000 
#
# Total GULP energy -594741.484839 kJ/mol
# GULP energy per Si atom -12390.447601 kJ/mol
# Density = 1.916384 g / cm^3
# Si number density = 19.207562 Si / 1000 Ang^3
#
#
#
# Elastic Constant Matrix: (Units=GPa)
#
#
# Indices 1 2 3 4 5 6 
#
# 1 108.2433 40.0747 41.3797 0.0000 0.0000 0.0000
# 2 40.0747 108.7752 47.9986 0.0000 0.0000 0.0000
# 3 41.3797 47.9986 120.2300 0.0000 0.0000 0.0000
# 4 0.0000 0.0000 0.0000 139.8070 0.0000 0.0000
# 5 0.0000 0.0000 0.0000 0.0000 15.2498 0.0000
# 6 0.0000 0.0000 0.0000 0.0000 0.0000 30.8485
#
#
#
# Elastic Compliance Matrix: (Units=1/GPa)
#
#
# Indices 1 2 3 4 5 6 
#
# 1 0.011388 -0.002993 -0.002724 0.000000 0.000000 0.000000
# 2 -0.002993 0.011946 -0.003739 0.000000 0.000000 0.000000
# 3 -0.002724 -0.003739 0.010748 0.000000 0.000000 0.000000
# 4 0.000000 0.000000 0.000000 0.007153 0.000000 0.000000
# 5 0.000000 0.000000 0.000000 0.000000 0.065574 0.000000
# 6 0.000000 0.000000 0.000000 0.000000 0.000000 0.032417
#
#
# Mechanical properties :
#
#
# Convention : Reuss Voigt Hill
#
# Bulk Modulus (GPa) = 65.92647 66.23939 66.08293
# Shear Modulus (GPa) = 30.63819 51.03410 40.83614
#
# Velocity S-wave (km/s) = 3.99822 5.16018 4.61591
# Velocity P-wave (km/s) = 7.46405 8.37044 7.93020
#
# Compressibility (1/GPa) = 0.01516841
#
# Stress axis : x y z
#
# Youngs Moduli (GPa) = 87.81010 83.71061 93.04317
#
# Poissons Ratio (x) = 0.25058 0.25349
# Poissons Ratio (y) = 0.26285 0.34787
# Poissons Ratio (z) = 0.23923 0.31298
#
# Static dielectric constant tensor:
#      x y z
#    x 3.391760 0.000000 0.000000 
#    y 0.000000 3.526960 0.000000 
#    z 0.000000 0.000000 4.078180 
# 
# 
# High freq. dielectric constant tensor:
#      x y z
#    x 1.732350 0.000000 0.000000 
#    y 0.000000 1.746000 0.000000 
#    z 0.000000 0.000000 1.755700 
# 
# From -- ./inp_files/42182.got.cif
#   From: 2010.03.12/outbox.cif.g09.slc.cpg/sg67_22_cif.got.tgz:42182.got - 2010.04.10 22:41:39.
