data_PCOD8281022
_publ_section_title
;
Structure prediction by ZEFSAII (Michael W. Deem and Ramdas Pophale) SiO2 
 PCOD8281022
Probable space group: C M M A
;
_chemical_formula_sum "Si O2"
_cell_formula_units_Z 112
_cell_length_a 27.475527
_cell_length_b 13.592162
_cell_length_c 15.110015
_cell_angle_alpha 90.000000
_cell_angle_beta 90.000000
_cell_angle_gamma 90.000000
_cell_volume 5642.862512
_symmetry_space_group_name_H-M "C M M A"
_symmetry_group_IT_number 67
_symmetry_cell_setting 'orthorhombic'
loop_
_space_group_symop_operation_xyz
x,y,z
-x,1/2-y,z
x,-y,-z
-x,1/2+y,-z
-x,-y,-z
x,1/2+y,-z
-x,y,z
x,1/2-y,z
1/2+x,1/2+y,z
1/2-x,-y,z
1/2+x,1/2-y,-z
1/2-x,y,-z
1/2-x,1/2-y,-z
1/2+x,y,-z
1/2-x,1/2+y,z
1/2+x,-y,z
loop_
_atom_site_type_symbol
_atom_site_label
_atom_site_fract_x
_atom_site_fract_y
_atom_site_fract_z
Si Si1 0.201556 0.638892 0.045426
Si Si2 0.709155 0.133598 0.380562
Si Si3 0.305504 0.481129 0.214060
Si Si4 0.376412 0.865938 0.264575
Si Si5 0.815620 0.135450 0.429024
Si Si6 0.095631 0.361219 0.976464
Si Si7 0.443896 0.530869 0.137521
O O1 0.215612 0.750000 0.070432
O O2 0.181425 0.585903 0.131751
O O3 0.151952 0.631297 0.987443
O O4 0.250000 0.590782 0.000000
O O5 0.704599 0.250000 0.365707
O O6 0.680511 0.077431 0.303451
O O7 0.766091 0.098250 0.380651
O O8 0.682147 0.094692 0.470264
O O9 0.250000 0.500000 0.205420
O O10 0.332449 0.586305 0.208389
O O11 0.380375 0.750000 0.244266
O O12 0.363683 0.884999 0.369131
O O13 0.424281 0.924272 0.231118
O O14 0.807142 0.250000 0.441864
O O15 0.084047 0.250000 0.946380
O O16 0.084062 0.431642 0.892438
O O17 0.062047 0.388775 0.059833
O O18 0.500000 0.506118 0.152562
#
# Coordination Sequence:
#
# PCOD8281022 Si02
#       7
#    16  16  16  16  16  16  16
#     4  10  23  39  57  84 122 165 199 231 278 347
#     4   9  17  32  54  81 115 150 191 233 274 338
#     4  12  23  33  54  82 113 160 203 236 278 342
#     4  11  23  39  55  80 119 153 192 242 296 351
#     4   8  16  32  53  80 115 153 186 229 287 340
#     4  10  21  39  62  88 119 151 194 248 298 345
#     4  11  24  41  63  87 110 145 198 252 307 360
#
# _framework density 19.848082000000002
#
# number of rings (size 3 to 8) (size 9 to 14) (size 15 to 20)
#    0.000    1.857    2.857    2.571    2.000    3.429 
#    0.000    0.000    0.000    0.429    0.000    2.000 
#    0.000    1.143    0.000    0.000    0.000    0.000 
#
# Total GULP energy -693797.857682 kJ/mol
# GULP energy per Si atom -12389.247459 kJ/mol
# Density = 1.980291 g / cm^3
# Si number density = 19.848082 Si / 1000 Ang^3
#
#
#
# Elastic Constant Matrix: (Units=GPa)
#
#
# Indices 1 2 3 4 5 6 
#
# 1 110.8076 29.9618 26.3811 0.0000 0.0000 0.0000
# 2 29.9618 91.0822 28.3396 0.0000 0.0000 0.0000
# 3 26.3811 28.3396 93.7279 0.0000 0.0000 0.0000
# 4 0.0000 0.0000 0.0000 13.6286 0.0000 0.0000
# 5 0.0000 0.0000 0.0000 0.0000 29.1009 0.0000
# 6 0.0000 0.0000 0.0000 0.0000 0.0000 18.9127
#
#
#
# Elastic Compliance Matrix: (Units=1/GPa)
#
#
# Indices 1 2 3 4 5 6 
#
# 1 0.010254 -0.002732 -0.002060 0.000000 0.000000 0.000000
# 2 -0.002732 0.012847 -0.003115 0.000000 0.000000 0.000000
# 3 -0.002060 -0.003115 0.012191 0.000000 0.000000 0.000000
# 4 0.000000 0.000000 0.000000 0.073375 0.000000 0.000000
# 5 0.000000 0.000000 0.000000 0.000000 0.034363 0.000000
# 6 0.000000 0.000000 0.000000 0.000000 0.000000 0.052875
#
#
# Mechanical properties :
#
#
# Convention : Reuss Voigt Hill
#
# Bulk Modulus (GPa) = 51.34299 51.66472 51.50386
# Shear Modulus (GPa) = 22.91347 26.39079 24.65213
#
# Velocity S-wave (km/s) = 3.40139 3.65038 3.52808
# Velocity P-wave (km/s) = 6.43041 6.62220 6.52701
#
# Compressibility (1/GPa) = 0.01947686
#
# Stress axis : x y z
#
# Youngs Moduli (GPa) = 97.52445 77.83805 82.02767
#
# Poissons Ratio (x) = 0.21266 0.16898
# Poissons Ratio (y) = 0.26644 0.25556
# Poissons Ratio (z) = 0.20090 0.24250
#
# Static dielectric constant tensor:
#      x y z
#    x 3.384300 0.000000 0.000000 
#    y 0.000000 3.432570 0.000000 
#    z 0.000000 0.000000 4.027500 
# 
# 
# High freq. dielectric constant tensor:
#      x y z
#    x 1.728920 0.000000 0.000000 
#    y 0.000000 1.796500 0.000000 
#    z 0.000000 0.000000 1.763360 
# 
# From -- ./inp_files/30809.got.cif
#   From: 2010.03.12/outbox.cif.g09.slc.cpg/sg67_16_cif.got.tgz:30809.got - 2010.04.10 22:41:39.
