data_PCOD8281371
_publ_section_title
;
Structure prediction by ZEFSAII (Michael W. Deem and Ramdas Pophale) SiO2 
 PCOD8281371
Probable space group: C M M A
;
_chemical_formula_sum "Si O2"
_cell_formula_units_Z 96
_cell_length_a 23.468992
_cell_length_b 8.746190
_cell_length_c 25.689423
_cell_angle_alpha 90.000000
_cell_angle_beta 90.000000
_cell_angle_gamma 90.000000
_cell_volume 5273.120483
_symmetry_space_group_name_H-M "C M M A"
_symmetry_group_IT_number 67
_symmetry_cell_setting 'orthorhombic'
loop_
_space_group_symop_operation_xyz
x,y,z
-x,1/2-y,z
x,-y,-z
-x,1/2+y,-z
-x,-y,-z
x,1/2+y,-z
-x,y,z
x,1/2-y,z
1/2+x,1/2+y,z
1/2-x,-y,z
1/2+x,1/2-y,-z
1/2-x,y,-z
1/2-x,1/2-y,-z
1/2+x,y,-z
1/2-x,1/2+y,z
1/2+x,-y,z
loop_
_atom_site_type_symbol
_atom_site_label
_atom_site_fract_x
_atom_site_fract_y
_atom_site_fract_z
Si Si1 0.500000 0.571093 0.311439
Si Si2 0.611985 0.570248 0.735049
Si Si3 0.500000 0.069598 0.420229
Si Si4 0.884673 0.068216 0.449062
Si Si5 0.432207 0.421915 0.948296
Si Si6 0.564513 0.429402 0.156925
Si Si7 0.310953 0.929545 0.348281
O O1 0.500000 0.750000 0.297644
O O2 0.554653 0.488327 0.289901
O O3 0.500000 0.547473 0.372448
O O4 0.617251 0.750000 0.726661
O O5 0.607774 0.527301 0.796306
O O6 0.665250 0.491229 0.706801
O O7 0.500000 0.250000 0.405713
O O8 0.556330 0.025674 0.451752
O O9 0.893420 0.250000 0.452962
O O10 0.851578 0.024378 0.396229
O O11 0.851389 0.000000 0.500000
O O12 0.500000 0.433930 0.949343
O O13 0.410182 0.250000 0.948013
O O14 0.409422 0.500941 0.895823
O O15 0.406532 0.500000 0.000000
O O16 0.500000 0.491640 0.168364
O O17 0.561047 0.250000 0.149335
O O18 0.304865 0.750000 0.343250
O O19 0.250000 0.000000 0.359824
#
# Coordination Sequence:
#
# PCOD8281371 Si02
#       7
#     8  16   8  16  16  16  16
#     4  12  22  33  53  82 113 143 177 217 266 325
#     4  11  21  36  57  81 109 142 180 222 273 324
#     4  12  23  37  60  86 115 147 177 215 264 317
#     4  11  24  41  61  86 114 143 177 219 266 318
#     4   9  16  25  38  59  91 136 181 220 260 305
#     4   9  17  29  45  70 102 137 177 218 261 315
#     4  11  25  43  62  82 107 140 180 225 271 322
#
# _framework density 18.205539000000002
#
# number of rings (size 3 to 8) (size 9 to 14) (size 15 to 20)
#    0.000    1.500    2.500    3.750    0.000    5.667 
#    0.000    1.667    0.000    0.000    0.000    0.000 
#    0.000    0.667    0.000    7.000    0.000    3.333 
#
# Total GULP energy -595083.483091 kJ/mol
# GULP energy per Si atom -12397.572564 kJ/mol
# Density = 1.816410 g / cm^3
# Si number density = 18.205539 Si / 1000 Ang^3
#
#
#
# Elastic Constant Matrix: (Units=GPa)
#
#
# Indices 1 2 3 4 5 6 
#
# 1 72.1530 37.1725 37.1598 0.0000 0.0000 0.0000
# 2 37.1725 70.7696 62.5587 0.0000 0.0000 0.0000
# 3 37.1598 62.5587 153.9087 0.0000 0.0000 0.0000
# 4 0.0000 0.0000 0.0000 35.0991 0.0000 0.0000
# 5 0.0000 0.0000 0.0000 0.0000 7.4953 0.0000
# 6 0.0000 0.0000 0.0000 0.0000 0.0000 22.4221
#
#
#
# Elastic Compliance Matrix: (Units=1/GPa)
#
#
# Indices 1 2 3 4 5 6 
#
# 1 0.019069 -0.009281 -0.000832 0.000000 0.000000 0.000000
# 2 -0.009281 0.026572 -0.008560 0.000000 0.000000 0.000000
# 3 -0.000832 -0.008560 0.010177 0.000000 0.000000 0.000000
# 4 0.000000 0.000000 0.000000 0.028491 0.000000 0.000000
# 5 0.000000 0.000000 0.000000 0.000000 0.133417 0.000000
# 6 0.000000 0.000000 0.000000 0.000000 0.000000 0.044599
#
#
# Mechanical properties :
#
#
# Convention : Reuss Voigt Hill
#
# Bulk Modulus (GPa) = 54.13144 63.40146 58.76645
# Shear Modulus (GPa) = 16.34904 23.66601 20.00752
#
# Velocity S-wave (km/s) = 2.99996 3.60937 3.31868
# Velocity P-wave (km/s) = 6.46512 7.22987 6.85816
#
# Compressibility (1/GPa) = 0.01847355
#
# Stress axis : x y z
#
# Youngs Moduli (GPa) = 52.44024 37.63344 98.25686
#
# Poissons Ratio (x) = 0.34929 0.08171
# Poissons Ratio (y) = 0.48671 0.84106
# Poissons Ratio (z) = 0.04361 0.32213
#
# Static dielectric constant tensor:
#      x y z
#    x 3.003290 0.000000 0.000000 
#    y 0.000000 3.408450 0.000000 
#    z 0.000000 0.000000 3.727270 
# 
# 
# High freq. dielectric constant tensor:
#      x y z
#    x 1.650200 0.000000 0.000000 
#    y 0.000000 1.718930 0.000000 
#    z 0.000000 0.000000 1.722940 
# 
# From -- ./inp_files/42590.got.cif
#   From: 2010.03.12/outbox.cif.g09.slc.cpg/sg67_22_cif.got.tgz:42590.got - 2010.04.10 22:41:39.
