data_PCOD8281885
_publ_section_title
;
Structure prediction by ZEFSAII (Michael W. Deem and Ramdas Pophale) SiO2 
 PCOD8281885
Probable space group: C C C A
;
_chemical_formula_sum "Si O2"
_cell_formula_units_Z 112
_cell_length_a 15.002685
_cell_length_b 24.865010
_cell_length_c 14.049959
_cell_angle_alpha 90.000000
_cell_angle_beta 90.000000
_cell_angle_gamma 90.000000
_cell_volume 5241.223577
_symmetry_space_group_name_H-M "C C C A"
_symmetry_group_IT_number 68
_space_group.IT_coordinate_system_code '2'
_symmetry_cell_setting 'orthorhombic'
loop_
_space_group_symop_operation_xyz
x,y,z
-x,1/2-y,z
x,1/2-y,1/2-z
-x,y,1/2-z
-x,-y,-z
x,1/2+y,-z
-x,1/2+y,1/2+z
x,-y,1/2+z
1/2+x,1/2+y,z
1/2-x,-y,z
1/2+x,-y,1/2-z
1/2-x,1/2+y,1/2-z
1/2-x,1/2-y,-z
1/2+x,y,-z
1/2-x,y,1/2+z
1/2+x,1/2-y,1/2+z
loop_
_atom_site_type_symbol
_atom_site_label
_atom_site_fract_x
_atom_site_fract_y
_atom_site_fract_z
Si Si1 0.753013 0.890245 0.092864
Si Si2 0.660908 0.795849 0.183053
Si Si3 0.874267 0.373300 0.579559
Si Si4 0.934605 0.355503 0.976993
Si Si5 0.645525 0.258254 0.013950
Si Si6 0.926305 0.379399 0.187705
Si Si7 0.749470 0.438587 0.212126
O O1 0.742184 0.833581 0.148269
O O2 0.848957 0.892438 0.043086
O O3 0.749215 0.936659 0.172748
O O4 0.674253 0.897074 0.015148
O O5 0.704012 0.750000 0.250000
O O6 0.590893 0.827799 0.246463
O O7 0.608184 0.773107 0.090974
O O8 0.861939 0.308533 0.586346
O O9 0.834428 0.404717 0.670449
O O10 0.981434 0.380447 0.579750
O O11 0.910341 0.293464 0.949944
O O12 0.962604 0.359767 0.086858
O O13 0.750000 0.250000 0.000000
O O14 0.838901 0.414023 0.168812
O O15 0.000000 0.412627 0.250000
O O16 0.750000 0.500000 0.178247
#
# Coordination Sequence:
#
# PCOD8281885 Si02
#       7
#    16  16  16  16  16  16  16
#     4  10  23  41  63  93 129 172 216 277 329 403
#     4  10  19  32  59  95 134 176 219 261 318 385
#     4  11  24  42  65  99 132 174 219 277 343 406
#     4  12  21  39  65  97 143 171 212 274 340 411
#     4  11  19  36  59  96 140 184 219 266 330 410
#     4  11  22  40  65  98 129 167 225 280 321 394
#     4  11  25  48  70  88 127 175 224 290 350 401
#
# _framework density 21.369056
#
# number of rings (size 3 to 8) (size 9 to 14) (size 15 to 20)
#    0.000    1.143    5.714    3.000    2.000    1.429 
#    2.571    0.714    0.000    1.714    0.000    0.000 
#    0.000    0.000    0.000    0.000    0.000    0.000 
#
# Total GULP energy -694018.476830 kJ/mol
# GULP energy per Si atom -12393.187086 kJ/mol
# Density = 2.132042 g / cm^3
# Si number density = 21.369056 Si / 1000 Ang^3
#
#
#
# Elastic Constant Matrix: (Units=GPa)
#
#
# Indices 1 2 3 4 5 6 
#
# 1 131.0348 19.0005 13.6415 0.0000 0.0000 0.0000
# 2 19.0005 77.3217 17.4119 0.0000 0.0000 0.0000
# 3 13.6415 17.4119 60.0313 0.0000 0.0000 0.0000
# 4 0.0000 0.0000 0.0000 21.6333 0.0000 0.0000
# 5 0.0000 0.0000 0.0000 0.0000 35.8044 0.0000
# 6 0.0000 0.0000 0.0000 0.0000 0.0000 11.0147
#
#
#
# Elastic Compliance Matrix: (Units=1/GPa)
#
#
# Indices 1 2 3 4 5 6 
#
# 1 0.008013 -0.001668 -0.001337 0.000000 0.000000 0.000000
# 2 -0.001668 0.014184 -0.003735 0.000000 0.000000 0.000000
# 3 -0.001337 -0.003735 0.018045 0.000000 0.000000 0.000000
# 4 0.000000 0.000000 0.000000 0.046225 0.000000 0.000000
# 5 0.000000 0.000000 0.000000 0.000000 0.027929 0.000000
# 6 0.000000 0.000000 0.000000 0.000000 0.000000 0.090788
#
#
# Mechanical properties :
#
#
# Convention : Reuss Voigt Hill
#
# Bulk Modulus (GPa) = 37.36660 40.94394 39.15527
# Shear Modulus (GPa) = 21.96990 28.24609 25.10799
#
# Velocity S-wave (km/s) = 3.20991 3.63963 3.43150
# Velocity P-wave (km/s) = 5.59127 6.07162 5.83639
#
# Compressibility (1/GPa) = 0.02676186
#
# Stress axis : x y z
#
# Youngs Moduli (GPa) = 124.80342 70.50242 55.41666
#
# Poissons Ratio (x) = 0.11759 0.07409
# Poissons Ratio (y) = 0.20816 0.20698
# Poissons Ratio (z) = 0.16686 0.26333
#
# Static dielectric constant tensor:
#      x y z
#    x 3.861770 0.000000 0.000000 
#    y 0.000000 3.653460 0.000000 
#    z 0.000000 0.000000 4.155480 
# 
# 
# High freq. dielectric constant tensor:
#      x y z
#    x 1.840970 0.000000 0.000000 
#    y 0.000000 1.801690 0.000000 
#    z 0.000000 0.000000 1.834760 
# 
# From -- ./inp_files/22593.got.cif
#   From: 2010.03.12/outbox.cif.g09.slc.cpg/sg68_12_cif.got.tgz:22593.got - 2010.04.10 23:14:56.
