data_PCOD8281578
_publ_section_title
;
Structure prediction by ZEFSAII (Michael W. Deem and Ramdas Pophale) SiO2 
 PCOD8281578
Probable space group: C M M A
;
_chemical_formula_sum "Si O2"
_cell_formula_units_Z 96
_cell_length_a 19.840332
_cell_length_b 19.877555
_cell_length_c 15.185078
_cell_angle_alpha 90.000000
_cell_angle_beta 90.000000
_cell_angle_gamma 90.000000
_cell_volume 5988.649918
_symmetry_space_group_name_H-M "C M M A"
_symmetry_group_IT_number 67
_symmetry_cell_setting 'orthorhombic'
loop_
_space_group_symop_operation_xyz
x,y,z
-x,1/2-y,z
x,-y,-z
-x,1/2+y,-z
-x,-y,-z
x,1/2+y,-z
-x,y,z
x,1/2-y,z
1/2+x,1/2+y,z
1/2-x,-y,z
1/2+x,1/2-y,-z
1/2-x,y,-z
1/2-x,1/2-y,-z
1/2+x,y,-z
1/2-x,1/2+y,z
1/2+x,-y,z
loop_
_atom_site_type_symbol
_atom_site_label
_atom_site_fract_x
_atom_site_fract_y
_atom_site_fract_z
Si Si1 0.419812 0.325320 0.409591
Si Si2 0.576174 0.399855 0.236132
Si Si3 0.923165 0.559127 0.743981
Si Si4 0.080254 0.932737 0.546855
Si Si5 0.674313 0.575757 0.104394
Si Si6 0.825022 0.416280 0.908757
O O1 0.500000 0.324182 0.409913
O O2 0.390067 0.250000 0.415365
O O3 0.394668 0.361430 0.320907
O O4 0.393740 0.368001 0.492929
O O5 0.500000 0.377059 0.215668
O O6 0.579935 0.479060 0.250950
O O7 0.622170 0.378660 0.153877
O O8 0.894540 0.577114 0.647091
O O9 0.877183 0.596841 0.817565
O O10 0.000000 0.584180 0.757733
O O11 0.000000 0.938431 0.547827
O O12 0.109492 0.000000 0.500000
O O13 0.749566 0.603743 0.122096
O O14 0.671192 0.495982 0.099022
O O15 0.654951 0.605409 0.008272
#
# Coordination Sequence:
#
# PCOD8281578 Si02
#       6
#    16  16  16  16  16  16
#     4   9  16  25  38  59  85 110 139 171 202 246
#     4   9  15  23  37  59  81 105 135 169 209 243
#     4   9  15  22  37  60  83 106 135 171 208 243
#     4   9  14  23  38  57  82 110 136 165 206 248
#     4   8  14  24  36  55  80 108 138 162 201 252
#     4   8  14  24  37  53  80 111 133 163 205 250
#
# _framework density 16.030324
#
# number of rings (size 3 to 8) (size 9 to 14) (size 15 to 20)
#    0.000    3.333    1.667    1.000    0.000    0.667 
#    0.000    3.333    0.000    1.000    0.000    5.833 
#    0.000    5.333    0.000    0.000    0.000    0.000 
#
# Total GULP energy -594730.097510 kJ/mol
# GULP energy per Si atom -12390.210365 kJ/mol
# Density = 1.599384 g / cm^3
# Si number density = 16.030324 Si / 1000 Ang^3
#
#
#
# Elastic Constant Matrix: (Units=GPa)
#
#
# Indices 1 2 3 4 5 6 
#
# 1 60.9294 15.3223 71.4389 0.0000 0.0000 0.0000
# 2 15.3223 34.6590 31.3613 0.0000 0.0000 0.0000
# 3 71.4389 31.3613 168.2711 0.0000 0.0000 0.0000
# 4 0.0000 0.0000 0.0000 10.1299 0.0000 0.0000
# 5 0.0000 0.0000 0.0000 0.0000 10.5037 0.0000
# 6 0.0000 0.0000 0.0000 0.0000 0.0000 4.5068
#
#
#
# Elastic Compliance Matrix: (Units=1/GPa)
#
#
# Indices 1 2 3 4 5 6 
#
# 1 0.032830 -0.002288 -0.013511 0.000000 0.000000 0.000000
# 2 -0.002288 0.034865 -0.005527 0.000000 0.000000 0.000000
# 3 -0.013511 -0.005527 0.012709 0.000000 0.000000 0.000000
# 4 0.000000 0.000000 0.000000 0.098718 0.000000 0.000000
# 5 0.000000 0.000000 0.000000 0.000000 0.095205 0.000000
# 6 0.000000 0.000000 0.000000 0.000000 0.000000 0.221887
#
#
# Mechanical properties :
#
#
# Convention : Reuss Voigt Hill
#
# Bulk Modulus (GPa) = 26.48872 55.56717 41.02794
# Shear Modulus (GPa) = 9.06704 14.74387 11.90546
#
# Velocity S-wave (km/s) = 2.38085 3.03603 2.72818
# Velocity P-wave (km/s) = 4.91100 6.85777 5.96435
#
# Compressibility (1/GPa) = 0.03775191
#
# Stress axis : x y z
#
# Youngs Moduli (GPa) = 30.46031 28.68232 78.68450
#
# Poissons Ratio (x) = 0.06562 1.06313
# Poissons Ratio (y) = 0.06969 0.43486
# Poissons Ratio (z) = 0.41156 0.15852
#
# Static dielectric constant tensor:
#      x y z
#    x 2.918570 0.000000 0.000000 
#    y 0.000000 2.682510 0.000000 
#    z 0.000000 0.000000 3.434450 
# 
# 
# High freq. dielectric constant tensor:
#      x y z
#    x 1.579220 0.000000 0.000000 
#    y 0.000000 1.561160 0.000000 
#    z 0.000000 0.000000 1.632240 
# 
# From -- ./inp_files/22083.got.cif
#   From: 2010.03.12/outbox.cif.g09.slc.cpg/sg67_12_cif.got.tgz:22083.got - 2010.04.10 22:41:39.
