data_PCOD8281070
_publ_section_title
;
Structure prediction by ZEFSAII (Michael W. Deem and Ramdas Pophale) SiO2 
 PCOD8281070
Probable space group: C M M A
;
_chemical_formula_sum "Si O2"
_cell_formula_units_Z 80
_cell_length_a 17.435651
_cell_length_b 27.000521
_cell_length_c 7.715735
_cell_angle_alpha 90.000000
_cell_angle_beta 90.000000
_cell_angle_gamma 90.000000
_cell_volume 3632.349382
_symmetry_space_group_name_H-M "C M M A"
_symmetry_group_IT_number 67
_symmetry_cell_setting 'orthorhombic'
loop_
_space_group_symop_operation_xyz
x,y,z
-x,1/2-y,z
x,-y,-z
-x,1/2+y,-z
-x,-y,-z
x,1/2+y,-z
-x,y,z
x,1/2-y,z
1/2+x,1/2+y,z
1/2-x,-y,z
1/2+x,1/2-y,-z
1/2-x,y,-z
1/2-x,1/2-y,-z
1/2+x,y,-z
1/2-x,1/2+y,z
1/2+x,-y,z
loop_
_atom_site_type_symbol
_atom_site_label
_atom_site_fract_x
_atom_site_fract_y
_atom_site_fract_z
Si Si1 0.150551 0.846711 0.873754
Si Si2 0.585240 0.155424 0.519695
Si Si3 0.810444 0.306309 0.782905
Si Si4 0.660882 0.447028 0.040399
Si Si5 0.912150 0.548873 0.399880
O O1 0.098527 0.826727 0.716966
O O2 0.239019 0.843535 0.808267
O O3 0.136720 0.813338 0.045546
O O4 0.127055 0.903104 0.921982
O O5 0.500000 0.171158 0.461156
O O6 0.644504 0.181585 0.391691
O O7 0.594530 0.096052 0.525353
O O8 0.780909 0.250000 0.772735
O O9 0.643279 0.436968 0.241334
O O10 0.621103 0.500000 0.000000
O O11 0.750000 0.450329 0.000000
O O12 0.882227 0.500000 0.500000
O O13 0.000000 0.540918 0.337059
#
# Coordination Sequence:
#
# PCOD8281070 Si02
#       5
#    16  16  16  16  16
#     4  11  21  41  66  93 125 164 216 262 314 387
#     4  11  24  40  63  95 129 164 208 264 321 378
#     4  11  24  44  67  90 123 168 217 267 319 380
#     4  11  21  36  61  95 130 163 207 261 319 369
#     4  10  21  40  62  89 128 171 210 250 309 386
#
# _framework density 22.024311999999998
#
# number of rings (size 3 to 8) (size 9 to 14) (size 15 to 20)
#    0.000    1.200    4.000    3.000    0.000    4.800 
#    0.000    6.000    0.000    0.000    0.000    0.000 
#    0.000    0.000    0.000    0.000    0.000    0.000 
#
# Total GULP energy -495913.555885 kJ/mol
# GULP energy per Si atom -12397.838897 kJ/mol
# Density = 2.197418 g / cm^3
# Si number density = 22.024312 Si / 1000 Ang^3
#
#
#
# Elastic Constant Matrix: (Units=GPa)
#
#
# Indices 1 2 3 4 5 6 
#
# 1 50.9466 18.4343 33.4889 0.0000 0.0000 0.0000
# 2 18.4343 111.8342 27.9832 0.0000 0.0000 0.0000
# 3 33.4889 27.9832 140.3361 0.0000 0.0000 0.0000
# 4 0.0000 0.0000 0.0000 29.3182 0.0000 0.0000
# 5 0.0000 0.0000 0.0000 0.0000 33.6208 0.0000
# 6 0.0000 0.0000 0.0000 0.0000 0.0000 16.0369
#
#
#
# Elastic Compliance Matrix: (Units=1/GPa)
#
#
# Indices 1 2 3 4 5 6 
#
# 1 0.024007 -0.002656 -0.005199 0.000000 0.000000 0.000000
# 2 -0.002656 0.009705 -0.001301 0.000000 0.000000 0.000000
# 3 -0.005199 -0.001301 0.008626 0.000000 0.000000 0.000000
# 4 0.000000 0.000000 0.000000 0.034108 0.000000 0.000000
# 5 0.000000 0.000000 0.000000 0.000000 0.029743 0.000000
# 6 0.000000 0.000000 0.000000 0.000000 0.000000 0.062356
#
#
# Mechanical properties :
#
#
# Convention : Reuss Voigt Hill
#
# Bulk Modulus (GPa) = 41.62397 51.43663 46.53030
# Shear Modulus (GPa) = 25.65831 30.67589 28.16710
#
# Velocity S-wave (km/s) = 3.41691 3.73610 3.58006
# Velocity P-wave (km/s) = 5.87428 6.48201 6.18561
#
# Compressibility (1/GPa) = 0.02402462
#
# Stress axis : x y z
#
# Youngs Moduli (GPa) = 41.65418 103.03657 115.92918
#
# Poissons Ratio (x) = 0.27370 0.60274
# Poissons Ratio (y) = 0.11065 0.15087
# Poissons Ratio (z) = 0.21657 0.13409
#
# Static dielectric constant tensor:
#      x y z
#    x 3.642310 0.000000 0.000000 
#    y 0.000000 4.279640 0.000000 
#    z 0.000000 0.000000 4.011570 
# 
# 
# High freq. dielectric constant tensor:
#      x y z
#    x 1.833610 0.000000 0.000000 
#    y 0.000000 1.873350 0.000000 
#    z 0.000000 0.000000 1.874610 
# 
# From -- ./inp_files/9953.got.cif
#   From: 2010.03.12/outbox.cif.g09.slc.cpg/sg67_5_cif.got.tgz:9953.got - 2010.04.10 22:41:39.
