data_PCOD8281158
_publ_section_title
;
Structure prediction by ZEFSAII (Michael W. Deem and Ramdas Pophale) SiO2 
 PCOD8281158
Probable space group: C M M A
;
_chemical_formula_sum "Si O2"
_cell_formula_units_Z 80
_cell_length_a 17.268464
_cell_length_b 23.717709
_cell_length_c 9.667555
_cell_angle_alpha 90.000000
_cell_angle_beta 90.000000
_cell_angle_gamma 90.000000
_cell_volume 3959.525072
_symmetry_space_group_name_H-M "C M M A"
_symmetry_group_IT_number 67
_symmetry_cell_setting 'orthorhombic'
loop_
_space_group_symop_operation_xyz
x,y,z
-x,1/2-y,z
x,-y,-z
-x,1/2+y,-z
-x,-y,-z
x,1/2+y,-z
-x,y,z
x,1/2-y,z
1/2+x,1/2+y,z
1/2-x,-y,z
1/2+x,1/2-y,-z
1/2-x,y,-z
1/2-x,1/2-y,-z
1/2+x,y,-z
1/2-x,1/2+y,z
1/2+x,-y,z
loop_
_atom_site_type_symbol
_atom_site_label
_atom_site_fract_x
_atom_site_fract_y
_atom_site_fract_z
Si Si1 0.162313 0.378034 0.943702
Si Si2 0.589387 0.603709 0.229686
Si Si3 0.664917 0.992013 0.835678
Si Si4 0.837522 0.815632 0.548570
Si Si5 0.915402 0.184599 0.725127
O O1 0.141091 0.426403 0.827789
O O2 0.145419 0.323338 0.851495
O O3 0.250000 0.382024 0.000000
O O4 0.103856 0.378761 0.071588
O O5 0.500000 0.613057 0.268789
O O6 0.609502 0.536650 0.242790
O O7 0.643585 0.643719 0.322452
O O8 0.750000 0.000000 0.771352
O O9 0.666628 0.000000 0.000000
O O10 0.854508 0.750000 0.588612
O O11 0.750000 0.822457 0.500000
O O12 0.888238 0.839667 0.422119
O O13 0.920824 0.250000 0.700727
O O14 0.000000 0.159145 0.762242
#
# Coordination Sequence:
#
# PCOD8281158 Si02
#       5
#    16  16  16  16  16
#     4  11  20  36  62  88 119 157 202 244 293 355
#     4  11  22  35  60  94 120 151 201 254 300 349
#     4   9  17  35  57  82 117 157 192 235 295 355
#     4  10  22  41  63  86 116 160 205 243 296 364
#     4  10  22  39  58  83 120 161 195 239 303 359
#
# _framework density 20.204442
#
# number of rings (size 3 to 8) (size 9 to 14) (size 15 to 20)
#    0.000    1.800    4.000    2.400    0.000    6.800 
#    0.000    1.000    0.000    2.400    0.000    0.000 
#    0.000    0.000    0.000    0.000    0.000    0.000 
#
# Total GULP energy -495539.141732 kJ/mol
# GULP energy per Si atom -12388.478543 kJ/mol
# Density = 2.015846 g / cm^3
# Si number density = 20.204442 Si / 1000 Ang^3
#
#
#
# Elastic Constant Matrix: (Units=GPa)
#
#
# Indices 1 2 3 4 5 6 
#
# 1 92.6954 47.5443 35.1304 0.0000 0.0000 0.0000
# 2 47.5443 62.3643 52.6157 0.0000 0.0000 0.0000
# 3 35.1304 52.6157 87.3391 0.0000 0.0000 0.0000
# 4 0.0000 0.0000 0.0000 35.1957 0.0000 0.0000
# 5 0.0000 0.0000 0.0000 0.0000 29.4718 0.0000
# 6 0.0000 0.0000 0.0000 0.0000 0.0000 21.3397
#
#
#
# Elastic Compliance Matrix: (Units=1/GPa)
#
#
# Indices 1 2 3 4 5 6 
#
# 1 0.017898 -0.015397 0.002076 0.000000 0.000000 0.000000
# 2 -0.015397 0.045853 -0.021430 0.000000 0.000000 0.000000
# 3 0.002076 -0.021430 0.023525 0.000000 0.000000 0.000000
# 4 0.000000 0.000000 0.000000 0.028413 0.000000 0.000000
# 5 0.000000 0.000000 0.000000 0.000000 0.033931 0.000000
# 6 0.000000 0.000000 0.000000 0.000000 0.000000 0.046861
#
#
# Mechanical properties :
#
#
# Convention : Reuss Voigt Hill
#
# Bulk Modulus (GPa) = 56.25999 56.99772 56.62885
# Shear Modulus (GPa) = 18.38867 24.34201 21.36534
#
# Velocity S-wave (km/s) = 3.02011 3.47477 3.25538
# Velocity P-wave (km/s) = 6.32987 6.66111 6.49760
#
# Compressibility (1/GPa) = 0.01777462
#
# Stress axis : x y z
#
# Youngs Moduli (GPa) = 55.87138 21.80882 42.50841
#
# Poissons Ratio (x) = 0.33578 -0.08826
# Poissons Ratio (y) = 0.86023 0.91097
# Poissons Ratio (z) = -0.11600 0.46737
#
# Static dielectric constant tensor:
#      x y z
#    x 3.867210 0.000000 0.000000 
#    y 0.000000 4.415890 0.000000 
#    z 0.000000 0.000000 3.391510 
# 
# 
# High freq. dielectric constant tensor:
#      x y z
#    x 1.792500 0.000000 0.000000 
#    y 0.000000 1.787360 0.000000 
#    z 0.000000 0.000000 1.768490 
# 
# From -- ./inp_files/9920.got.cif
#   From: 2010.03.12/outbox.cif.g09.slc.cpg/sg67_5_cif.got.tgz:9920.got - 2010.04.10 22:41:39.
