data_PCOD8281702
_publ_section_title
;
Structure prediction by ZEFSAII (Michael W. Deem and Ramdas Pophale) SiO2 
 PCOD8281702
Probable space group: C C C A
;
_chemical_formula_sum "Si O2"
_cell_formula_units_Z 108
_cell_length_a 18.351374
_cell_length_b 16.530944
_cell_length_c 18.943860
_cell_angle_alpha 90.000000
_cell_angle_beta 90.000000
_cell_angle_gamma 90.000000
_cell_volume 5746.914241
_symmetry_space_group_name_H-M "C C C A"
_symmetry_group_IT_number 68
_space_group.IT_coordinate_system_code '2'
_symmetry_cell_setting 'orthorhombic'
loop_
_space_group_symop_operation_xyz
x,y,z
-x,1/2-y,z
x,1/2-y,1/2-z
-x,y,1/2-z
-x,-y,-z
x,1/2+y,-z
-x,1/2+y,1/2+z
x,-y,1/2+z
1/2+x,1/2+y,z
1/2-x,-y,z
1/2+x,-y,1/2-z
1/2-x,1/2+y,1/2-z
1/2-x,1/2-y,-z
1/2+x,y,-z
1/2-x,y,1/2+z
1/2+x,1/2-y,1/2+z
loop_
_atom_site_type_symbol
_atom_site_label
_atom_site_fract_x
_atom_site_fract_y
_atom_site_fract_z
Si Si1 0.500000 0.750000 0.997185
Si Si2 0.945925 0.091553 0.439724
Si Si3 0.224902 0.739876 0.612294
Si Si4 0.500000 0.750000 0.250000
Si Si5 0.647384 0.810200 0.972872
Si Si6 0.894994 0.530249 0.956505
Si Si7 0.302511 0.570287 0.174703
Si Si8 0.623267 0.644175 0.192260
O O1 0.565563 0.784613 0.949512
O O2 0.463123 0.815311 0.047747
O O3 0.895844 0.081333 0.370125
O O4 0.022708 0.046919 0.431723
O O5 0.896941 0.055602 0.503587
O O6 0.299652 0.785359 0.590914
O O7 0.172110 0.735233 0.544536
O O8 0.238801 0.650021 0.644118
O O9 0.188430 0.795026 0.672090
O O10 0.549879 0.694873 0.201092
O O11 0.641465 0.905630 0.989063
O O12 0.847193 0.525500 0.886644
O O13 0.250000 0.500000 0.204175
O O14 0.356294 0.595730 0.237434
#
# Coordination Sequence:
#
# PCOD8281702 Si02
#       8
#     8  16  16   4  16  16  16  16
#     4  10  17  32  58  91 111 158 195 254 309 352
#     4  10  20  34  60  87 121 148 196 257 300 365
#     4  10  20  37  55  85 117 157 201 247 304 362
#     4  12  22  36  64  92 124 146 208 270 302 368
#     4   9  19  33  57  83 117 154 202 245 300 368
#     4   9  21  38  53  88 122 153 195 250 309 352
#     4  11  24  38  54  82 124 161 201 239 309 368
#     4  12  22  37  62  90 116 164 204 254 310 364
#
# _framework density 18.792694000000001
#
# number of rings (size 3 to 8) (size 9 to 14) (size 15 to 20)
#    0.000    1.778    2.963    1.333    4.148    2.370 
#    0.000    0.000    0.000    0.000    0.000    1.037 
#    0.000    0.000    0.000    0.000    0.000    0.000 
#
# Total GULP energy -669353.881483 kJ/mol
# GULP energy per Si atom -12395.442250 kJ/mol
# Density = 1.874992 g / cm^3
# Si number density = 18.792694 Si / 1000 Ang^3
#
#
#
# Elastic Constant Matrix: (Units=GPa)
#
#
# Indices 1 2 3 4 5 6 
#
# 1 97.7491 43.6603 44.4529 0.0000 0.0000 0.0000
# 2 43.6603 91.3960 54.4514 0.0000 0.0000 0.0000
# 3 44.4529 54.4514 96.9973 0.0000 0.0000 0.0000
# 4 0.0000 0.0000 0.0000 22.4124 0.0000 0.0000
# 5 0.0000 0.0000 0.0000 0.0000 31.4933 0.0000
# 6 0.0000 0.0000 0.0000 0.0000 0.0000 24.6602
#
#
#
# Elastic Compliance Matrix: (Units=1/GPa)
#
#
# Indices 1 2 3 4 5 6 
#
# 1 0.013962 -0.004293 -0.003988 0.000000 0.000000 0.000000
# 2 -0.004293 0.017760 -0.008002 0.000000 0.000000 0.000000
# 3 -0.003988 -0.008002 0.016630 0.000000 0.000000 0.000000
# 4 0.000000 0.000000 0.000000 0.044618 0.000000 0.000000
# 5 0.000000 0.000000 0.000000 0.000000 0.031753 0.000000
# 6 0.000000 0.000000 0.000000 0.000000 0.000000 0.040551
#
#
# Mechanical properties :
#
#
# Convention : Reuss Voigt Hill
#
# Bulk Modulus (GPa) = 63.35837 63.47462 63.41649
# Shear Modulus (GPa) = 24.61812 25.28503 24.95157
#
# Velocity S-wave (km/s) = 3.62330 3.67205 3.64775
# Velocity P-wave (km/s) = 7.16184 7.19917 7.18053
#
# Compressibility (1/GPa) = 0.01578323
#
# Stress axis : x y z
#
# Youngs Moduli (GPa) = 71.62440 56.30651 60.13375
#
# Poissons Ratio (x) = 0.24175 0.23983
# Poissons Ratio (y) = 0.30752 0.48121
# Poissons Ratio (z) = 0.28566 0.45058
#
# Static dielectric constant tensor:
#      x y z
#    x 3.602450 0.000000 0.000000 
#    y 0.000000 3.487920 0.000000 
#    z 0.000000 0.000000 3.264850 
# 
# 
# High freq. dielectric constant tensor:
#      x y z
#    x 1.731700 0.000000 0.000000 
#    y 0.000000 1.726050 0.000000 
#    z 0.000000 0.000000 1.708700 
# 
# From -- ./inp_files/33166.got.cif
#   From: 2010.03.12/outbox.cif.g09.slc.cpg/sg68_17_cif.got.tgz:33166.got - 2010.04.10 23:14:56.
