data_PCOD8281871
_publ_section_title
;
Structure prediction by ZEFSAII (Michael W. Deem and Ramdas Pophale) SiO2 
 PCOD8281871
Probable space group: C C C A
;
_chemical_formula_sum "Si O2"
_cell_formula_units_Z 80
_cell_length_a 23.462932
_cell_length_b 10.533593
_cell_length_c 17.380738
_cell_angle_alpha 90.000000
_cell_angle_beta 90.000000
_cell_angle_gamma 90.000000
_cell_volume 4295.631604
_symmetry_space_group_name_H-M "C C C A"
_symmetry_group_IT_number 68
_space_group.IT_coordinate_system_code '2'
_symmetry_cell_setting 'orthorhombic'
loop_
_space_group_symop_operation_xyz
x,y,z
-x,1/2-y,z
x,1/2-y,1/2-z
-x,y,1/2-z
-x,-y,-z
x,1/2+y,-z
-x,1/2+y,1/2+z
x,-y,1/2+z
1/2+x,1/2+y,z
1/2-x,-y,z
1/2+x,-y,1/2-z
1/2-x,1/2+y,1/2-z
1/2-x,1/2-y,-z
1/2+x,y,-z
1/2-x,y,1/2+z
1/2+x,1/2-y,1/2+z
loop_
_atom_site_type_symbol
_atom_site_label
_atom_site_fract_x
_atom_site_fract_y
_atom_site_fract_z
Si Si1 0.976630 0.129573 0.922149
Si Si2 0.165777 0.846294 0.560864
Si Si3 0.463775 0.139753 0.585312
Si Si4 0.239815 0.858662 0.186788
Si Si5 0.655271 0.869431 0.945368
O O1 0.912049 0.151549 0.948171
O O2 0.000000 0.250000 0.871799
O O3 0.979646 0.996544 0.875912
O O4 0.019018 0.127893 0.995700
O O5 0.102382 0.828096 0.594471
O O6 0.208573 0.826332 0.630466
O O7 0.182360 0.739096 0.498915
O O8 0.171333 0.988419 0.524453
O O9 0.500000 0.250000 0.627215
O O10 0.236901 0.750000 0.250000
O O11 0.180084 0.855452 0.140559
O O12 0.250000 0.000000 0.222614
#
# Coordination Sequence:
#
# PCOD8281871 Si02
#       5
#    16  16  16  16  16
#     4   9  15  25  44  73 106 132 157 197 254 306
#     4  10  19  32  53  81 107 133 170 217 261 307
#     4   9  15  25  44  73 106 132 157 197 254 306
#     4  10  23  40  54  72 104 142 179 218 258 304
#     4  10  19  32  53  81 107 133 170 217 261 307
#
# _framework density 18.623570000000001
#
# number of rings (size 3 to 8) (size 9 to 14) (size 15 to 20)
#    0.000    2.400    4.000    0.600    0.000    1.600 
#    0.000    0.000    0.000    1.200    0.000    8.400 
#    0.000    0.000    0.000    0.000    0.000    0.000 
#
# Total GULP energy -495528.058412 kJ/mol
# GULP energy per Si atom -12388.201460 kJ/mol
# Density = 1.858118 g / cm^3
# Si number density = 18.623570 Si / 1000 Ang^3
#
#
#
# Elastic Constant Matrix: (Units=GPa)
#
#
# Indices 1 2 3 4 5 6 
#
# 1 68.2090 18.8984 9.8675 0.0000 0.0000 0.0000
# 2 18.8984 190.1517 47.5290 0.0000 0.0000 0.0000
# 3 9.8675 47.5290 39.5122 0.0000 0.0000 0.0000
# 4 0.0000 0.0000 0.0000 23.5288 0.0000 0.0000
# 5 0.0000 0.0000 0.0000 0.0000 3.7310 0.0000
# 6 0.0000 0.0000 0.0000 0.0000 0.0000 27.2778
#
#
#
# Elastic Compliance Matrix: (Units=1/GPa)
#
#
# Indices 1 2 3 4 5 6 
#
# 1 0.015297 -0.000809 -0.002847 0.000000 0.000000 0.000000
# 2 -0.000809 0.007563 -0.008895 0.000000 0.000000 0.000000
# 3 -0.002847 -0.008895 0.036720 0.000000 0.000000 0.000000
# 4 0.000000 0.000000 0.000000 0.042501 0.000000 0.000000
# 5 0.000000 0.000000 0.000000 0.000000 0.268025 0.000000
# 6 0.000000 0.000000 0.000000 0.000000 0.000000 0.036660
#
#
# Mechanical properties :
#
#
# Convention : Reuss Voigt Hill
#
# Bulk Modulus (GPa) = 29.00510 50.05142 39.52826
# Shear Modulus (GPa) = 11.27751 25.67940 18.47846
#
# Velocity S-wave (km/s) = 2.46346 3.71734 3.15335
# Velocity P-wave (km/s) = 4.86824 6.73487 5.87615
#
# Compressibility (1/GPa) = 0.03447669
#
# Stress axis : x y z
#
# Youngs Moduli (GPa) = 65.37328 132.22787 27.23333
#
# Poissons Ratio (x) = 0.10691 0.07755
# Poissons Ratio (y) = 0.05286 0.24225
# Poissons Ratio (z) = 0.18615 1.17619
#
# Static dielectric constant tensor:
#      x y z
#    x 3.548800 0.000000 0.000000 
#    y 0.000000 4.554630 0.000000 
#    z 0.000000 0.000000 2.697980 
# 
# 
# High freq. dielectric constant tensor:
#      x y z
#    x 1.741600 0.000000 0.000000 
#    y 0.000000 1.760920 0.000000 
#    z 0.000000 0.000000 1.633340 
# 
# From -- ./inp_files/25158.got.cif
#   From: 2010.03.12/outbox.cif.g09.slc.cpg/sg68_13_cif.got.tgz:25158.got - 2010.04.10 23:14:56.
