data_PCOD8281316
_publ_section_title
;
Structure prediction by ZEFSAII (Michael W. Deem and Ramdas Pophale) SiO2 
 PCOD8281316
Probable space group: C M M A
;
_chemical_formula_sum "Si O2"
_cell_formula_units_Z 52
_cell_length_a 28.278189
_cell_length_b 15.318598
_cell_length_c 5.205554
_cell_angle_alpha 90.000000
_cell_angle_beta 90.000000
_cell_angle_gamma 90.000000
_cell_volume 2254.953383
_symmetry_space_group_name_H-M "C M M A"
_symmetry_group_IT_number 67
_symmetry_cell_setting 'orthorhombic'
loop_
_space_group_symop_operation_xyz
x,y,z
-x,1/2-y,z
x,-y,-z
-x,1/2+y,-z
-x,-y,-z
x,1/2+y,-z
-x,y,z
x,1/2-y,z
1/2+x,1/2+y,z
1/2-x,-y,z
1/2+x,1/2-y,-z
1/2-x,y,-z
1/2-x,1/2-y,-z
1/2+x,y,-z
1/2-x,1/2+y,z
1/2+x,-y,z
loop_
_atom_site_type_symbol
_atom_site_label
_atom_site_fract_x
_atom_site_fract_y
_atom_site_fract_z
Si Si1 0.397915 0.347241 0.561911
Si Si2 0.448095 0.098229 0.070107
Si Si3 0.293223 0.347240 0.691049
Si Si4 0.750000 0.500000 0.000000
O O1 0.409180 0.250000 0.471075
O O2 0.415486 0.357609 0.854398
O O3 0.341983 0.365342 0.543921
O O4 0.423891 0.405620 0.350415
O O5 0.500000 0.144206 0.082900
O O6 0.456425 0.000000 0.000000
O O7 0.296137 0.250000 0.830473
O O8 0.250000 0.343189 0.500000
O O9 0.285587 0.433379 0.860345
#
# Coordination Sequence:
#
# PCOD8281316 Si02
#       4
#    16  16  16   4
#     4  11  25  44  70 100 135 182 228 281 346 410
#     4  11  25  44  68 100 138 177 228 288 343 407
#     4  10  25  45  66 100 142 179 230 291 344 415
#     4  12  24  40  72 100 130 188 232 276 354 418
#
# _framework density 23.060345000000002
#
# number of rings (size 3 to 8) (size 9 to 14) (size 15 to 20)
#    0.000    1.231    0.000    3.692    6.462    8.615 
#    0.000    0.000    0.000    0.000    0.000    0.000 
#    0.000    0.000    0.000    0.000    0.000    0.000 
#
# Total GULP energy -322137.359778 kJ/mol
# GULP energy per Si atom -12389.898453 kJ/mol
# Density = 2.300786 g / cm^3
# Si number density = 23.060345 Si / 1000 Ang^3
#
#
#
# Elastic Constant Matrix: (Units=GPa)
#
#
# Indices 1 2 3 4 5 6 
#
# 1 192.8254 36.6947 60.8814 0.0000 0.0000 0.0000
# 2 36.6947 143.5425 35.3040 0.0000 0.0000 0.0000
# 3 60.8814 35.3040 120.0519 0.0000 0.0000 0.0000
# 4 0.0000 0.0000 0.0000 571.8940 0.0000 0.0000
# 5 0.0000 0.0000 0.0000 0.0000 35.1128 0.0000
# 6 0.0000 0.0000 0.0000 0.0000 0.0000 23.4552
#
#
#
# Elastic Compliance Matrix: (Units=1/GPa)
#
#
# Indices 1 2 3 4 5 6 
#
# 1 0.006277 -0.000886 -0.002923 0.000000 0.000000 0.000000
# 2 -0.000886 0.007635 -0.001796 0.000000 0.000000 0.000000
# 3 -0.002923 -0.001796 0.010340 0.000000 0.000000 0.000000
# 4 0.000000 0.000000 0.000000 0.001749 0.000000 0.000000
# 5 0.000000 0.000000 0.000000 0.000000 0.028480 0.000000
# 6 0.000000 0.000000 0.000000 0.000000 0.000000 0.042634
#
#
# Mechanical properties :
#
#
# Convention : Reuss Voigt Hill
#
# Bulk Modulus (GPa) = 76.67008 80.24223 78.45616
# Shear Modulus (GPa) = 44.37653 147.66173 96.01913
#
# Velocity S-wave (km/s) = 4.39152 8.01073 6.45977
# Velocity P-wave (km/s) = 7.68334 10.97427 9.47281
#
# Compressibility (1/GPa) = 0.01304290
#
# Stress axis : x y z
#
# Youngs Moduli (GPa) = 159.29918 130.98024 96.71010
#
# Poissons Ratio (x) = 0.11603 0.28268
# Poissons Ratio (y) = 0.14112 0.17368
# Poissons Ratio (z) = 0.46563 0.23523
#
# Static dielectric constant tensor:
#      x y z
#    x 4.464570 0.000000 0.000000 
#    y 0.000000 4.729340 0.000000 
#    z 0.000000 0.000000 4.069840 
# 
# 
# High freq. dielectric constant tensor:
#      x y z
#    x 1.932240 0.000000 0.000000 
#    y 0.000000 1.929790 0.000000 
#    z 0.000000 0.000000 1.892720 
# 
# From -- ./inp_files/1357.got.cif
#   From: 2010.03.12/outbox.cif.g09.slc.cpg/sg67_1_cif.got.tgz:1357.got - 2010.04.10 22:41:39.
