data_PCOD8281660
_publ_section_title
;
Structure prediction by ZEFSAII (Michael W. Deem and Ramdas Pophale) SiO2 
 PCOD8281660
Probable space group: C C C A
;
_chemical_formula_sum "Si O2"
_cell_formula_units_Z 88
_cell_length_a 17.981402
_cell_length_b 19.856074
_cell_length_c 11.588423
_cell_angle_alpha 90.000000
_cell_angle_beta 90.000000
_cell_angle_gamma 90.000000
_cell_volume 4137.531113
_symmetry_space_group_name_H-M "C C C A"
_symmetry_group_IT_number 68
_space_group.IT_coordinate_system_code '2'
_symmetry_cell_setting 'orthorhombic'
loop_
_space_group_symop_operation_xyz
x,y,z
-x,1/2-y,z
x,1/2-y,1/2-z
-x,y,1/2-z
-x,-y,-z
x,1/2+y,-z
-x,1/2+y,1/2+z
x,-y,1/2+z
1/2+x,1/2+y,z
1/2-x,-y,z
1/2+x,-y,1/2-z
1/2-x,1/2+y,1/2-z
1/2-x,1/2-y,-z
1/2+x,y,-z
1/2-x,y,1/2+z
1/2+x,1/2-y,1/2+z
loop_
_atom_site_type_symbol
_atom_site_label
_atom_site_fract_x
_atom_site_fract_y
_atom_site_fract_z
Si Si1 0.722990 0.425218 0.322576
Si Si2 0.346418 0.672412 0.248779
Si Si3 0.450642 0.397872 0.592328
Si Si4 0.000000 0.985450 0.250000
Si Si5 0.382773 0.098229 0.531031
Si Si6 0.628772 0.052107 0.386916
O O1 0.750000 0.500000 0.362291
O O2 0.788740 0.371153 0.327157
O O3 0.656333 0.399512 0.405932
O O4 0.699393 0.425622 0.187658
O O5 0.324403 0.750000 0.250000
O O6 0.426967 0.658913 0.186394
O O7 0.346915 0.652263 0.382827
O O8 0.455426 0.469223 0.657696
O O9 0.528700 0.384567 0.526290
O O10 0.382257 0.403870 0.501709
O O11 0.056424 0.935035 0.190283
O O12 0.367123 0.026886 0.589012
#
# Coordination Sequence:
#
# PCOD8281660 Si02
#       6
#    16  16  16   8  16  16
#     4  12  25  42  66 101 137 180 223 279 347 407
#     4  12  27  45  67  94 138 183 227 274 336 418
#     4  11  21  40  66  98 131 171 225 282 335 392
#     4  10  16  36  59 104 133 158 218 278 342 382
#     4  11  23  41  67  97 131 172 225 281 335 394
#     4  11  20  35  65 100 132 166 214 285 338 392
#
# _framework density 21.268720999999999
#
# number of rings (size 3 to 8) (size 9 to 14) (size 15 to 20)
#    0.000    0.727    5.455    5.455    5.091    2.182 
#    0.000    0.000    0.000    0.000    0.000    0.000 
#    0.000    0.000    0.000    0.000    0.000    0.000 
#
# Total GULP energy -545384.197228 kJ/mol
# GULP energy per Si atom -12395.095392 kJ/mol
# Density = 2.122031 g / cm^3
# Si number density = 21.268721 Si / 1000 Ang^3
#
#
#
# Elastic Constant Matrix: (Units=GPa)
#
#
# Indices 1 2 3 4 5 6 
#
# 1 88.4230 42.1887 48.8202 0.0000 0.0000 0.0000
# 2 42.1887 97.7106 22.7572 0.0000 0.0000 0.0000
# 3 48.8202 22.7572 107.6309 0.0000 0.0000 0.0000
# 4 0.0000 0.0000 0.0000 16.1046 0.0000 0.0000
# 5 0.0000 0.0000 0.0000 0.0000 50.6586 0.0000
# 6 0.0000 0.0000 0.0000 0.0000 0.0000 15.9984
#
#
#
# Elastic Compliance Matrix: (Units=1/GPa)
#
#
# Indices 1 2 3 4 5 6 
#
# 1 0.018068 -0.006198 -0.006885 0.000000 0.000000 0.000000
# 2 -0.006198 0.012890 0.000086 0.000000 0.000000 0.000000
# 3 -0.006885 0.000086 0.012396 0.000000 0.000000 0.000000
# 4 0.000000 0.000000 0.000000 0.062094 0.000000 0.000000
# 5 0.000000 0.000000 0.000000 0.000000 0.019740 0.000000
# 6 0.000000 0.000000 0.000000 0.000000 0.000000 0.062506
#
#
# Mechanical properties :
#
#
# Convention : Reuss Voigt Hill
#
# Bulk Modulus (GPa) = 57.60325 57.92186 57.76256
# Shear Modulus (GPa) = 22.78172 28.55221 25.66697
#
# Velocity S-wave (km/s) = 3.27637 3.66792 3.47766
# Velocity P-wave (km/s) = 6.43857 6.72538 6.58353
#
# Compressibility (1/GPa) = 0.01736013
#
# Stress axis : x y z
#
# Youngs Moduli (GPa) = 55.34786 77.57777 80.67251
#
# Poissons Ratio (x) = 0.48079 0.55542
# Poissons Ratio (y) = 0.34302 -0.00691
# Poissons Ratio (z) = 0.38106 -0.00665
#
# Static dielectric constant tensor:
#      x y z
#    x 4.184410 0.000000 0.000000 
#    y 0.000000 3.266060 0.000000 
#    z 0.000000 0.000000 4.113880 
# 
# 
# High freq. dielectric constant tensor:
#      x y z
#    x 1.849260 0.000000 0.000000 
#    y 0.000000 1.763770 0.000000 
#    z 0.000000 0.000000 1.851640 
# 
# From -- ./inp_files/14456.got.cif
#   From: 2010.03.12/outbox.cif.g09.slc.cpg/sg68_8_cif.got.tgz:14456.got - 2010.04.10 23:14:56.
