data_PCOD8281306
_publ_section_title
;
Structure prediction by ZEFSAII (Michael W. Deem and Ramdas Pophale) SiO2 
 PCOD8281306
Probable space group: C M M A
;
_chemical_formula_sum "Si O2"
_cell_formula_units_Z 72
_cell_length_a 15.950300
_cell_length_b 8.875713
_cell_length_c 24.666286
_cell_angle_alpha 90.000000
_cell_angle_beta 90.000000
_cell_angle_gamma 90.000000
_cell_volume 3492.013140
_symmetry_space_group_name_H-M "C M M A"
_symmetry_group_IT_number 67
_symmetry_cell_setting 'orthorhombic'
loop_
_space_group_symop_operation_xyz
x,y,z
-x,1/2-y,z
x,-y,-z
-x,1/2+y,-z
-x,-y,-z
x,1/2+y,-z
-x,y,z
x,1/2-y,z
1/2+x,1/2+y,z
1/2-x,-y,z
1/2+x,1/2-y,-z
1/2-x,y,-z
1/2-x,1/2-y,-z
1/2+x,y,-z
1/2-x,1/2+y,z
1/2+x,-y,z
loop_
_atom_site_type_symbol
_atom_site_label
_atom_site_fract_x
_atom_site_fract_y
_atom_site_fract_z
Si Si1 0.335718 0.427891 0.876364
Si Si2 0.000000 0.428451 0.058570
Si Si3 0.840203 0.573293 0.552939
Si Si4 0.597257 0.586004 0.654023
Si Si5 0.096276 0.427000 0.773154
O O1 0.326685 0.250000 0.878960
O O2 0.250000 0.500000 0.900141
O O3 0.416303 0.484452 0.910477
O O4 0.346831 0.479697 0.814414
O O5 0.000000 0.250000 0.053589
O O6 0.000000 0.500000 0.000000
O O7 0.885501 0.500000 0.500000
O O8 0.834373 0.750000 0.543996
O O9 0.750000 0.500000 0.558853
O O10 0.888987 0.538662 0.608104
O O11 0.500000 0.609181 0.663392
O O12 0.635892 0.750000 0.636962
O O13 0.632209 0.535003 0.712744
O O14 0.104818 0.250000 0.785104
O O15 0.000000 0.479858 0.779585
#
# Coordination Sequence:
#
# PCOD8281306 Si02
#       5
#    16   8  16  16  16
#     4  11  23  40  62  93 127 163 208 255 303 361
#     4  10  24  44  66  92 126 166 207 254 307 356
#     4  11  22  37  56  76 103 142 187 236 292 351
#     4   9  19  36  57  83 114 146 186 235 286 345
#     4   9  18  35  60  87 117 156 196 240 299 357
#
# _framework density 20.618479000000001
#
# number of rings (size 3 to 8) (size 9 to 14) (size 15 to 20)
#    0.000    2.000    1.111    4.667    0.000    4.889 
#    0.000    4.444    0.000    0.000    0.000    0.000 
#    0.000    0.000    0.000    0.000    0.000    0.000 
#
# Total GULP energy -446307.700588 kJ/mol
# GULP energy per Si atom -12397.436127 kJ/mol
# Density = 2.057155 g / cm^3
# Si number density = 20.618479 Si / 1000 Ang^3
#
#
#
# Elastic Constant Matrix: (Units=GPa)
#
#
# Indices 1 2 3 4 5 6 
#
# 1 99.7784 37.0172 52.1295 0.0000 0.0000 0.0000
# 2 37.0172 103.2419 53.2355 0.0000 0.0000 0.0000
# 3 52.1295 53.2355 147.8853 0.0000 0.0000 0.0000
# 4 0.0000 0.0000 0.0000 80.1666 0.0000 0.0000
# 5 0.0000 0.0000 0.0000 0.0000 18.6547 0.0000
# 6 0.0000 0.0000 0.0000 0.0000 0.0000 27.6221
#
#
#
# Elastic Compliance Matrix: (Units=1/GPa)
#
#
# Indices 1 2 3 4 5 6 
#
# 1 0.012913 -0.002803 -0.003543 0.000000 0.000000 0.000000
# 2 -0.002803 0.012502 -0.003512 0.000000 0.000000 0.000000
# 3 -0.003543 -0.003512 0.009275 0.000000 0.000000 0.000000
# 4 0.000000 0.000000 0.000000 0.012474 0.000000 0.000000
# 5 0.000000 0.000000 0.000000 0.000000 0.053606 0.000000
# 6 0.000000 0.000000 0.000000 0.000000 0.000000 0.036203
#
#
# Mechanical properties :
#
#
# Convention : Reuss Voigt Hill
#
# Bulk Modulus (GPa) = 66.78333 70.63000 68.70666
# Shear Modulus (GPa) = 30.92504 39.19024 35.05764
#
# Velocity S-wave (km/s) = 3.87702 4.36447 4.12795
# Velocity P-wave (km/s) = 7.24583 7.72840 7.49100
#
# Compressibility (1/GPa) = 0.01497380
#
# Stress axis : x y z
#
# Youngs Moduli (GPa) = 77.44074 79.98601 107.81429
#
# Poissons Ratio (x) = 0.22421 0.38196
# Poissons Ratio (y) = 0.21708 0.37869
# Poissons Ratio (z) = 0.27436 0.28094
#
# Static dielectric constant tensor:
#      x y z
#    x 3.678590 0.000000 0.000000 
#    y 0.000000 3.711300 0.000000 
#    z 0.000000 0.000000 4.023920 
# 
# 
# High freq. dielectric constant tensor:
#      x y z
#    x 1.793420 0.000000 0.000000 
#    y 0.000000 1.800850 0.000000 
#    z 0.000000 0.000000 1.813690 
# 
# From -- ./inp_files/40486.got.cif
#   From: 2010.03.12/outbox.cif.g09.slc.cpg/sg67_21_cif.got.tgz:40486.got - 2010.04.10 22:41:39.
