data_PCOD8281572
_publ_section_title
;
Structure prediction by ZEFSAII (Michael W. Deem and Ramdas Pophale) SiO2 
 PCOD8281572
Probable space group: C M M A
;
_chemical_formula_sum "Si O2"
_cell_formula_units_Z 80
_cell_length_a 19.982648
_cell_length_b 9.694801
_cell_length_c 25.114768
_cell_angle_alpha 90.000000
_cell_angle_beta 90.000000
_cell_angle_gamma 90.000000
_cell_volume 4865.428647
_symmetry_space_group_name_H-M "C M M A"
_symmetry_group_IT_number 67
_symmetry_cell_setting 'orthorhombic'
loop_
_space_group_symop_operation_xyz
x,y,z
-x,1/2-y,z
x,-y,-z
-x,1/2+y,-z
-x,-y,-z
x,1/2+y,-z
-x,y,z
x,1/2-y,z
1/2+x,1/2+y,z
1/2-x,-y,z
1/2+x,1/2-y,-z
1/2-x,y,-z
1/2-x,1/2-y,-z
1/2+x,y,-z
1/2-x,1/2+y,z
1/2+x,-y,z
loop_
_atom_site_type_symbol
_atom_site_label
_atom_site_fract_x
_atom_site_fract_y
_atom_site_fract_z
Si Si1 0.187314 0.408785 0.865713
Si Si2 0.574001 0.413984 0.336848
Si Si3 0.313481 0.410903 0.256672
Si Si4 0.923563 0.409400 0.949960
Si Si5 0.079617 0.096828 0.545959
O O1 0.207611 0.250000 0.874128
O O2 0.250000 0.500000 0.884386
O O3 0.168144 0.438670 0.804681
O O4 0.122640 0.449267 0.900116
O O5 0.500000 0.474518 0.324308
O O6 0.569781 0.250000 0.337138
O O7 0.624688 0.465969 0.291706
O O8 0.598912 0.462145 0.395511
O O9 0.298243 0.250000 0.267117
O O10 0.250000 0.500000 0.274188
O O11 0.915002 0.250000 0.965892
O O12 0.000000 0.442529 0.933729
O O13 0.900675 0.500000 0.000000
O O14 0.109401 0.250000 0.537688
O O15 0.000000 0.102527 0.541692
O O16 0.110520 0.000000 0.500000
#
# Coordination Sequence:
#
# PCOD8281572 Si02
#       5
#    16  16  16  16  16
#     4   9  18  31  47  67  89 114 145 180 215 253
#     4   8  14  25  43  66  87 109 142 180 214 252
#     4   9  17  30  47  65  87 115 144 176 216 258
#     4   9  18  32  48  67  91 117 145 177 214 255
#     4   8  13  22  37  58  83 108 135 170 211 252
#
# _framework density 16.442539
#
# number of rings (size 3 to 8) (size 9 to 14) (size 15 to 20)
#    0.000    3.400    0.000    1.200    0.000    2.000 
#    0.000    7.000    0.000    2.400    0.000    9.800 
#    0.000    0.000    0.000    0.000    0.000    0.000 
#
# Total GULP energy -495843.395119 kJ/mol
# GULP energy per Si atom -12396.084878 kJ/mol
# Density = 1.640511 g / cm^3
# Si number density = 16.442539 Si / 1000 Ang^3
#
#
#
# Elastic Constant Matrix: (Units=GPa)
#
#
# Indices 1 2 3 4 5 6 
#
# 1 97.9917 43.0231 79.9770 0.0000 0.0000 0.0000
# 2 43.0231 50.2299 48.5019 0.0000 0.0000 0.0000
# 3 79.9770 48.5019 119.1700 0.0000 0.0000 0.0000
# 4 0.0000 0.0000 0.0000 24.5911 0.0000 0.0000
# 5 0.0000 0.0000 0.0000 0.0000 13.4170 0.0000
# 6 0.0000 0.0000 0.0000 0.0000 0.0000 21.8482
#
#
#
# Elastic Compliance Matrix: (Units=1/GPa)
#
#
# Indices 1 2 3 4 5 6 
#
# 1 0.024558 -0.008435 -0.013048 0.000000 0.000000 0.000000
# 2 -0.008435 0.035695 -0.008867 0.000000 0.000000 0.000000
# 3 -0.013048 -0.008867 0.020757 0.000000 0.000000 0.000000
# 4 0.000000 0.000000 0.000000 0.040665 0.000000 0.000000
# 5 0.000000 0.000000 0.000000 0.000000 0.074533 0.000000
# 6 0.000000 0.000000 0.000000 0.000000 0.000000 0.045770
#
#
# Mechanical properties :
#
#
# Convention : Reuss Voigt Hill
#
# Bulk Modulus (GPa) = 49.23747 67.82175 58.52961
# Shear Modulus (GPa) = 16.15782 18.36388 17.26085
#
# Velocity S-wave (km/s) = 3.13818 3.34556 3.24353
# Velocity P-wave (km/s) = 6.56819 7.50073 7.04990
#
# Compressibility (1/GPa) = 0.02030974
#
# Stress axis : x y z
#
# Youngs Moduli (GPa) = 40.72053 28.01499 48.17668
#
# Poissons Ratio (x) = 0.23631 0.62861
# Poissons Ratio (y) = 0.34348 0.42718
# Poissons Ratio (z) = 0.53132 0.24841
#
# Static dielectric constant tensor:
#      x y z
#    x 3.053760 0.000000 0.000000 
#    y 0.000000 3.036480 0.000000 
#    z 0.000000 0.000000 3.285860 
# 
# 
# High freq. dielectric constant tensor:
#      x y z
#    x 1.609950 0.000000 0.000000 
#    y 0.000000 1.612430 0.000000 
#    z 0.000000 0.000000 1.639040 
# 
# From -- ./inp_files/41766.got.cif
#   From: 2010.03.12/outbox.cif.g09.slc.cpg/sg67_21_cif.got.tgz:41766.got - 2010.04.10 22:41:39.
