data_PCOD8281097
_publ_section_title
;
Structure prediction by ZEFSAII (Michael W. Deem and Ramdas Pophale) SiO2 
 PCOD8281097
Probable space group: C M M A
;
_chemical_formula_sum "Si O2"
_cell_formula_units_Z 96
_cell_length_a 18.045535
_cell_length_b 26.003661
_cell_length_c 10.018692
_cell_angle_alpha 90.000000
_cell_angle_beta 90.000000
_cell_angle_gamma 90.000000
_cell_volume 4701.270968
_symmetry_space_group_name_H-M "C M M A"
_symmetry_group_IT_number 67
_symmetry_cell_setting 'orthorhombic'
loop_
_space_group_symop_operation_xyz
x,y,z
-x,1/2-y,z
x,-y,-z
-x,1/2+y,-z
-x,-y,-z
x,1/2+y,-z
-x,y,z
x,1/2-y,z
1/2+x,1/2+y,z
1/2-x,-y,z
1/2+x,1/2-y,-z
1/2-x,y,-z
1/2-x,1/2-y,-z
1/2+x,y,-z
1/2-x,1/2+y,z
1/2+x,-y,z
loop_
_atom_site_type_symbol
_atom_site_label
_atom_site_fract_x
_atom_site_fract_y
_atom_site_fract_z
Si Si1 0.305133 0.190526 0.291704
Si Si2 0.584313 0.534770 0.617305
Si Si3 0.661681 0.806285 0.991645
Si Si4 0.656976 0.129312 0.762337
Si Si5 0.583447 0.852264 0.509107
Si Si6 0.335006 0.487760 0.853901
O O1 0.276523 0.250000 0.285479
O O2 0.235796 0.151290 0.290215
O O3 0.355576 0.184829 0.423539
O O4 0.356847 0.178430 0.161719
O O5 0.620161 0.500000 0.500000
O O6 0.500000 0.517066 0.638792
O O7 0.591965 0.593731 0.581344
O O8 0.627195 0.527387 0.754179
O O9 0.629834 0.750000 0.024570
O O10 0.628199 0.844362 0.101218
O O11 0.750000 0.807251 0.000000
O O12 0.597610 0.141039 0.647936
O O13 0.656538 0.069533 0.797636
O O14 0.500000 0.830349 0.526959
O O15 0.250000 0.500000 0.861336
O O16 0.369983 0.500000 0.000000
#
# Coordination Sequence:
#
# PCOD8281097 Si02
#       6
#    16  16  16  16  16  16
#     4  10  22  40  65  91 118 157 201 244 300 367
#     4  10  21  42  62  80 117 164 206 241 291 359
#     4   8  17  34  59  85 111 147 190 238 291 349
#     4  11  21  37  61  88 121 154 199 244 298 364
#     4  11  24  40  60  87 119 159 202 250 296 349
#     4  11  25  36  56  93 124 153 193 254 305 348
#
# _framework density 20.420010999999999
#
# number of rings (size 3 to 8) (size 9 to 14) (size 15 to 20)
#    0.000    1.833    1.667    3.000    9.333    3.000 
#    0.000    0.833    0.000    1.000    0.000    0.000 
#    0.000    0.000    0.000    0.000    0.000    0.000 
#
# Total GULP energy -595016.315511 kJ/mol
# GULP energy per Si atom -12396.173240 kJ/mol
# Density = 2.037353 g / cm^3
# Si number density = 20.420011 Si / 1000 Ang^3
#
#
#
# Elastic Constant Matrix: (Units=GPa)
#
#
# Indices 1 2 3 4 5 6 
#
# 1 44.4348 10.1227 23.0627 0.0000 0.0000 0.0000
# 2 10.1227 61.7881 20.1692 0.0000 0.0000 0.0000
# 3 23.0627 20.1692 134.2327 0.0000 0.0000 0.0000
# 4 0.0000 0.0000 0.0000 42.7280 0.0000 0.0000
# 5 0.0000 0.0000 0.0000 0.0000 23.1992 0.0000
# 6 0.0000 0.0000 0.0000 0.0000 0.0000 14.0410
#
#
#
# Elastic Compliance Matrix: (Units=1/GPa)
#
#
# Indices 1 2 3 4 5 6 
#
# 1 0.025177 -0.002853 -0.003897 0.000000 0.000000 0.000000
# 2 -0.002853 0.017342 -0.002116 0.000000 0.000000 0.000000
# 3 -0.003897 -0.002116 0.008437 0.000000 0.000000 0.000000
# 4 0.000000 0.000000 0.000000 0.023404 0.000000 0.000000
# 5 0.000000 0.000000 0.000000 0.000000 0.043105 0.000000
# 6 0.000000 0.000000 0.000000 0.000000 0.000000 0.071220
#
#
# Mechanical properties :
#
#
# Convention : Reuss Voigt Hill
#
# Bulk Modulus (GPa) = 30.09689 38.57387 34.33538
# Shear Modulus (GPa) = 22.98934 28.46704 25.72819
#
# Velocity S-wave (km/s) = 3.35897 3.73778 3.55343
# Velocity P-wave (km/s) = 5.46026 6.12856 5.80404
#
# Compressibility (1/GPa) = 0.03322603
#
# Stress axis : x y z
#
# Youngs Moduli (GPa) = 39.71806 57.66252 118.52263
#
# Poissons Ratio (x) = 0.16449 0.46190
# Poissons Ratio (y) = 0.11330 0.25075
# Poissons Ratio (z) = 0.15479 0.12199
#
# Static dielectric constant tensor:
#      x y z
#    x 3.363190 0.000000 0.000000 
#    y 0.000000 3.565130 0.000000 
#    z 0.000000 0.000000 4.307060 
# 
# 
# High freq. dielectric constant tensor:
#      x y z
#    x 1.756820 0.000000 0.000000 
#    y 0.000000 1.802500 0.000000 
#    z 0.000000 0.000000 1.821420 
# 
# From -- ./inp_files/11458.got.cif
#   From: 2010.03.12/outbox.cif.g09.slc.cpg/sg67_6_cif.got.tgz:11458.got - 2010.04.10 22:41:39.
