data_PCOD8281180
_publ_section_title
;
Structure prediction by ZEFSAII (Michael W. Deem and Ramdas Pophale) SiO2 
 PCOD8281180
Probable space group: C M M A
;
_chemical_formula_sum "Si O2"
_cell_formula_units_Z 108
_cell_length_a 26.754178
_cell_length_b 28.445140
_cell_length_c 6.977019
_cell_angle_alpha 90.000000
_cell_angle_beta 90.000000
_cell_angle_gamma 90.000000
_cell_volume 5309.695225
_symmetry_space_group_name_H-M "C M M A"
_symmetry_group_IT_number 67
_symmetry_cell_setting 'orthorhombic'
loop_
_space_group_symop_operation_xyz
x,y,z
-x,1/2-y,z
x,-y,-z
-x,1/2+y,-z
-x,-y,-z
x,1/2+y,-z
-x,y,z
x,1/2-y,z
1/2+x,1/2+y,z
1/2-x,-y,z
1/2+x,1/2-y,-z
1/2-x,y,-z
1/2-x,1/2-y,-z
1/2+x,y,-z
1/2-x,1/2+y,z
1/2+x,-y,z
loop_
_atom_site_type_symbol
_atom_site_label
_atom_site_fract_x
_atom_site_fract_y
_atom_site_fract_z
Si Si1 0.151224 0.196143 0.853732
Si Si2 0.250000 0.647862 0.000000
Si Si3 0.795495 0.582450 0.709699
Si Si4 0.944780 0.301783 0.115242
Si Si5 0.750000 0.000000 0.500000
Si Si6 0.136537 0.609566 0.386584
Si Si7 0.444287 0.396741 0.697094
Si Si8 0.880401 0.943955 0.995338
O O1 0.159697 0.250000 0.789574
O O2 0.139351 0.164287 0.669354
O O3 0.200112 0.179418 0.973530
O O4 0.100757 0.190124 0.973045
O O5 0.246472 0.615545 0.808184
O O6 0.779684 0.530303 0.654652
O O7 0.812558 0.603637 0.506406
O O8 0.837951 0.578499 0.866055
O O9 0.940025 0.250000 0.209479
O O10 0.940940 0.340563 0.279378
O O11 0.000000 0.306572 0.013861
O O12 0.090851 0.592235 0.518294
O O13 0.131103 0.575402 0.205543
O O14 0.500000 0.412872 0.642478
O O15 0.430709 0.424003 0.895789
O O16 0.881413 0.000000 0.000000
#
# Coordination Sequence:
#
# PCOD8281180 Si02
#       8
#    16   8  16  16   4  16  16  16
#     4  11  22  39  65  96 128 171 219 265 326 397
#     4  12  23  43  62  90 136 178 209 274 333 394
#     4  11  25  40  62  90 129 164 218 269 327 382
#     4   9  18  37  65  95 127 165 213 269 327 386
#     4  12  24  38  64 100 114 156 224 282 312 380
#     4  11  22  44  61  92 127 172 211 270 317 389
#     4  10  22  39  64  97 129 166 213 269 331 390
#     4  11  23  42  65  87 127 171 214 265 329 390
#
# _framework density 20.340150999999999
#
# number of rings (size 3 to 8) (size 9 to 14) (size 15 to 20)
#    0.000    1.333    2.963    2.889    2.074    3.852 
#    0.000    2.963    0.000    0.000    0.000    0.000 
#    0.000    0.000    0.000    0.000    0.000    0.000 
#
# Total GULP energy -669160.796982 kJ/mol
# GULP energy per Si atom -12391.866611 kJ/mol
# Density = 2.029386 g / cm^3
# Si number density = 20.340151 Si / 1000 Ang^3
#
#
#
# Elastic Constant Matrix: (Units=GPa)
#
#
# Indices 1 2 3 4 5 6 
#
# 1 88.0789 30.6347 37.4414 0.0000 0.0000 0.0000
# 2 30.6347 128.8131 52.1722 0.0000 0.0000 0.0000
# 3 37.4414 52.1722 129.4138 0.0000 0.0000 0.0000
# 4 0.0000 0.0000 0.0000 27.1542 0.0000 0.0000
# 5 0.0000 0.0000 0.0000 0.0000 10.6981 0.0000
# 6 0.0000 0.0000 0.0000 0.0000 0.0000 25.5613
#
#
#
# Elastic Compliance Matrix: (Units=1/GPa)
#
#
# Indices 1 2 3 4 5 6 
#
# 1 0.013332 -0.001922 -0.003082 0.000000 0.000000 0.000000
# 2 -0.001922 0.009555 -0.003296 0.000000 0.000000 0.000000
# 3 -0.003082 -0.003296 0.009948 0.000000 0.000000 0.000000
# 4 0.000000 0.000000 0.000000 0.036827 0.000000 0.000000
# 5 0.000000 0.000000 0.000000 0.000000 0.093474 0.000000
# 6 0.000000 0.000000 0.000000 0.000000 0.000000 0.039122
#
#
# Mechanical properties :
#
#
# Convention : Reuss Voigt Hill
#
# Bulk Modulus (GPa) = 61.59880 65.20026 63.39953
# Shear Modulus (GPa) = 22.29451 27.75323 25.02387
#
# Velocity S-wave (km/s) = 3.31431 3.69786 3.51133
# Velocity P-wave (km/s) = 6.70793 7.09625 6.90482
#
# Compressibility (1/GPa) = 0.01623408
#
# Stress axis : x y z
#
# Youngs Moduli (GPa) = 75.00577 104.65385 100.52629
#
# Poissons Ratio (x) = 0.20118 0.30985
# Poissons Ratio (y) = 0.14419 0.33133
# Poissons Ratio (z) = 0.23119 0.34494
#
# Static dielectric constant tensor:
#      x y z
#    x 4.005200 0.000000 0.000000 
#    y 0.000000 3.866100 0.000000 
#    z 0.000000 0.000000 3.613320 
# 
# 
# High freq. dielectric constant tensor:
#      x y z
#    x 1.810400 0.000000 0.000000 
#    y 0.000000 1.803890 0.000000 
#    z 0.000000 0.000000 1.783310 
# 
# From -- ./inp_files/4970.got.cif
#   From: 2010.03.12/outbox.cif.g09.slc.cpg/sg67_3_cif.got.tgz:4970.got - 2010.04.10 22:41:39.
