data_PCOD8281483
_publ_section_title
;
Structure prediction by ZEFSAII (Michael W. Deem and Ramdas Pophale) SiO2 
 PCOD8281483
Probable space group: C M M A
;
_chemical_formula_sum "Si O2"
_cell_formula_units_Z 104
_cell_length_a 20.297371
_cell_length_b 28.375731
_cell_length_c 8.968104
_cell_angle_alpha 90.000000
_cell_angle_beta 90.000000
_cell_angle_gamma 90.000000
_cell_volume 5165.204067
_symmetry_space_group_name_H-M "C M M A"
_symmetry_group_IT_number 67
_symmetry_cell_setting 'orthorhombic'
loop_
_space_group_symop_operation_xyz
x,y,z
-x,1/2-y,z
x,-y,-z
-x,1/2+y,-z
-x,-y,-z
x,1/2+y,-z
-x,y,z
x,1/2-y,z
1/2+x,1/2+y,z
1/2-x,-y,z
1/2+x,1/2-y,-z
1/2-x,y,-z
1/2-x,1/2-y,-z
1/2+x,y,-z
1/2-x,1/2+y,z
1/2+x,-y,z
loop_
_atom_site_type_symbol
_atom_site_label
_atom_site_fract_x
_atom_site_fract_y
_atom_site_fract_z
Si Si1 0.361181 0.384435 0.805840
Si Si2 0.250000 0.577035 0.000000
Si Si3 0.190914 0.466946 0.723519
Si Si4 0.924317 0.694388 0.311242
Si Si5 0.423749 0.802303 0.028662
Si Si6 0.927071 0.979154 0.837049
Si Si7 0.676959 0.126260 0.474051
O O1 0.387003 0.333454 0.850249
O O2 0.413090 0.423776 0.855140
O O3 0.352818 0.389130 0.630354
O O4 0.291782 0.390749 0.888684
O O5 0.295973 0.544597 0.897084
O O6 0.250000 0.500000 0.660108
O O7 0.123677 0.496917 0.721275
O O8 0.182479 0.420058 0.627558
O O9 0.911934 0.750000 0.333773
O O10 0.871523 0.665238 0.405627
O O11 0.000000 0.682207 0.357685
O O12 0.913012 0.679462 0.139703
O O13 0.500000 0.802150 0.068900
O O14 0.394353 0.750000 0.044477
O O15 0.000000 0.986678 0.770485
O O16 0.921905 0.000000 0.000000
O O17 0.750000 0.148084 0.500000
#
# Coordination Sequence:
#
# PCOD8281483 Si02
#       7
#    16   8  16  16  16  16  16
#     4  12  24  40  62  94 130 165 212 266 320 384
#     4  12  21  40  65  86 118 166 217 258 309 378
#     4  12  22  43  64  89 123 174 218 259 318 383
#     4   9  21  44  71  96 128 172 216 263 326 394
#     4   9  20  42  71  98 125 165 216 268 320 379
#     4  11  23  38  61  93 123 159 215 274 317 364
#     4  12  26  41  62  97 135 171 215 264 325 387
#
# _framework density 20.134733000000001
#
# number of rings (size 3 to 8) (size 9 to 14) (size 15 to 20)
#    0.000    1.077    4.615    2.538    0.000    4.923 
#    0.000    2.692    0.000    0.000    0.000    0.000 
#    0.000    0.000    0.000    0.000    0.000    0.000 
#
# Total GULP energy -644823.329396 kJ/mol
# GULP energy per Si atom -12400.448642 kJ/mol
# Density = 2.008891 g / cm^3
# Si number density = 20.134733 Si / 1000 Ang^3
#
#
#
# Elastic Constant Matrix: (Units=GPa)
#
#
# Indices 1 2 3 4 5 6 
#
# 1 147.1433 65.4134 45.5577 0.0000 0.0000 0.0000
# 2 65.4134 111.5524 52.0537 0.0000 0.0000 0.0000
# 3 45.5577 52.0537 99.5581 0.0000 0.0000 0.0000
# 4 0.0000 0.0000 0.0000 23.1908 0.0000 0.0000
# 5 0.0000 0.0000 0.0000 0.0000 17.1301 0.0000
# 6 0.0000 0.0000 0.0000 0.0000 0.0000 21.9801
#
#
#
# Elastic Compliance Matrix: (Units=1/GPa)
#
#
# Indices 1 2 3 4 5 6 
#
# 1 0.009453 -0.004662 -0.001888 0.000000 0.000000 0.000000
# 2 -0.004662 0.014157 -0.005268 0.000000 0.000000 0.000000
# 3 -0.001888 -0.005268 0.013663 0.000000 0.000000 0.000000
# 4 0.000000 0.000000 0.000000 0.043121 0.000000 0.000000
# 5 0.000000 0.000000 0.000000 0.000000 0.058377 0.000000
# 6 0.000000 0.000000 0.000000 0.000000 0.000000 0.045496
#
#
# Mechanical properties :
#
#
# Convention : Reuss Voigt Hill
#
# Bulk Modulus (GPa) = 73.33856 76.03372 74.68614
# Shear Modulus (GPa) = 23.53508 25.47546 24.50527
#
# Velocity S-wave (km/s) = 3.42260 3.56089 3.49243
# Velocity P-wave (km/s) = 7.21955 7.39940 7.31003
#
# Compressibility (1/GPa) = 0.01363539
#
# Stress axis : x y z
#
# Youngs Moduli (GPa) = 105.78257 70.63804 73.19062
#
# Poissons Ratio (x) = 0.32933 0.13820
# Poissons Ratio (y) = 0.49319 0.38559
# Poissons Ratio (z) = 0.19974 0.37214
#
# Static dielectric constant tensor:
#      x y z
#    x 3.877310 0.000000 0.000000 
#    y 0.000000 3.635750 0.000000 
#    z 0.000000 0.000000 3.605520 
# 
# 
# High freq. dielectric constant tensor:
#      x y z
#    x 1.791530 0.000000 0.000000 
#    y 0.000000 1.785270 0.000000 
#    z 0.000000 0.000000 1.784430 
# 
# From -- ./inp_files/11590.got.cif
#   From: 2010.03.12/outbox.cif.g09.slc.cpg/sg67_6_cif.got.tgz:11590.got - 2010.04.10 22:41:39.
