data_PCOD8281732
_publ_section_title
;
Structure prediction by ZEFSAII (Michael W. Deem and Ramdas Pophale) SiO2 
 PCOD8281732
Probable space group: C C C A
;
_chemical_formula_sum "Si O2"
_cell_formula_units_Z 104
_cell_length_a 23.204396
_cell_length_b 13.155981
_cell_length_c 20.007458
_cell_angle_alpha 90.000000
_cell_angle_beta 90.000000
_cell_angle_gamma 90.000000
_cell_volume 6107.808611
_symmetry_space_group_name_H-M "C C C A"
_symmetry_group_IT_number 68
_space_group.IT_coordinate_system_code '2'
_symmetry_cell_setting 'orthorhombic'
loop_
_space_group_symop_operation_xyz
x,y,z
-x,1/2-y,z
x,1/2-y,1/2-z
-x,y,1/2-z
-x,-y,-z
x,1/2+y,-z
-x,1/2+y,1/2+z
x,-y,1/2+z
1/2+x,1/2+y,z
1/2-x,-y,z
1/2+x,-y,1/2-z
1/2-x,1/2+y,1/2-z
1/2-x,1/2-y,-z
1/2+x,y,-z
1/2-x,y,1/2+z
1/2+x,1/2-y,1/2+z
loop_
_atom_site_type_symbol
_atom_site_label
_atom_site_fract_x
_atom_site_fract_y
_atom_site_fract_z
Si Si1 0.816624 0.530869 0.720522
Si Si2 0.843364 0.613545 0.106670
Si Si3 0.800407 0.250000 0.250000
Si Si4 0.066850 0.263545 0.671737
Si Si5 0.858956 0.440147 0.856275
Si Si6 0.192853 0.069473 0.463958
Si Si7 0.260338 0.213255 0.380840
O O1 0.750000 0.500000 0.724764
O O2 0.843368 0.485672 0.652878
O O3 0.832837 0.652103 0.718214
O O4 0.847993 0.481731 0.782998
O O5 0.897157 0.683373 0.127556
O O6 0.781392 0.670928 0.111911
O O7 0.846027 0.578829 0.029929
O O8 0.763450 0.304110 0.306881
O O9 0.082928 0.250000 0.750000
O O10 0.080884 0.378864 0.647930
O O11 0.000000 0.250000 0.657722
O O12 0.854186 0.530640 0.909743
O O13 0.813912 0.360190 0.884715
O O14 0.214147 0.180618 0.437613
O O15 0.250000 0.000000 0.473389
#
# Coordination Sequence:
#
# PCOD8281732 Si02
#       7
#    16  16   8  16  16  16  16
#     4  12  19  30  48  76 109 143 178 206 251 318
#     4  11  21  33  52  77 110 145 180 216 261 316
#     4  12  20  28  48  76 106 148 178 216 238 304
#     4  10  21  38  61  83  97 123 182 243 277 299
#     4  10  18  34  52  74 107 142 172 216 270 310
#     4  10  20  33  46  78 118 154 171 199 260 334
#     4  10  18  29  49  75 113 146 180 205 252 312
#
# _framework density 17.027383
#
# number of rings (size 3 to 8) (size 9 to 14) (size 15 to 20)
#    0.000    1.385    6.154    1.385    2.154    0.000 
#    0.000    0.769    0.000    0.000    0.000    2.154 
#    0.000    0.000    0.000    0.000    0.000    0.000 
#
# Total GULP energy -644310.753995 kJ/mol
# GULP energy per Si atom -12390.591423 kJ/mol
# Density = 1.698863 g / cm^3
# Si number density = 17.027383 Si / 1000 Ang^3
#
#
#
# Elastic Constant Matrix: (Units=GPa)
#
#
# Indices 1 2 3 4 5 6 
#
# 1 75.0251 36.3250 41.7447 0.0000 0.0000 0.0000
# 2 36.3250 101.0027 32.8695 0.0000 0.0000 0.0000
# 3 41.7447 32.8695 125.8017 0.0000 0.0000 0.0000
# 4 0.0000 0.0000 0.0000 28.1917 0.0000 0.0000
# 5 0.0000 0.0000 0.0000 0.0000 14.1653 0.0000
# 6 0.0000 0.0000 0.0000 0.0000 0.0000 5.1222
#
#
#
# Elastic Compliance Matrix: (Units=1/GPa)
#
#
# Indices 1 2 3 4 5 6 
#
# 1 0.018456 -0.005076 -0.004798 0.000000 0.000000 0.000000
# 2 -0.005076 0.012217 -0.001508 0.000000 0.000000 0.000000
# 3 -0.004798 -0.001508 0.009935 0.000000 0.000000 0.000000
# 4 0.000000 0.000000 0.000000 0.035471 0.000000 0.000000
# 5 0.000000 0.000000 0.000000 0.000000 0.070595 0.000000
# 6 0.000000 0.000000 0.000000 0.000000 0.000000 0.195229
#
#
# Mechanical properties :
#
#
# Convention : Reuss Voigt Hill
#
# Bulk Modulus (GPa) = 56.03946 58.18979 57.11463
# Shear Modulus (GPa) = 13.49105 22.22185 17.85645
#
# Velocity S-wave (km/s) = 2.81786 3.61649 3.24186
# Velocity P-wave (km/s) = 6.60075 7.18937 6.90134
#
# Compressibility (1/GPa) = 0.01784457
#
# Stress axis : x y z
#
# Youngs Moduli (GPa) = 54.18194 81.85310 100.65376
#
# Poissons Ratio (x) = 0.41551 0.48294
# Poissons Ratio (y) = 0.27504 0.15175
# Poissons Ratio (z) = 0.25997 0.12340
#
# Static dielectric constant tensor:
#      x y z
#    x 2.805080 0.000000 0.000000 
#    y 0.000000 3.517280 0.000000 
#    z 0.000000 0.000000 3.319260 
# 
# 
# High freq. dielectric constant tensor:
#      x y z
#    x 1.593880 0.000000 0.000000 
#    y 0.000000 1.666990 0.000000 
#    z 0.000000 0.000000 1.667830 
# 
# From -- ./inp_files/40882.got.cif
#   From: 2010.03.12/outbox.cif.g09.slc.cpg/sg68_21_cif.got.tgz:40882.got - 2010.04.10 23:14:56.
