data_PCOD8281472
_publ_section_title
;
Structure prediction by ZEFSAII (Michael W. Deem and Ramdas Pophale) SiO2 
 PCOD8281472
Probable space group: C M M A
;
_chemical_formula_sum "Si O2"
_cell_formula_units_Z 72
_cell_length_a 22.275921
_cell_length_b 10.023833
_cell_length_c 18.808507
_cell_angle_alpha 90.000000
_cell_angle_beta 90.000000
_cell_angle_gamma 90.000000
_cell_volume 4199.753635
_symmetry_space_group_name_H-M "C M M A"
_symmetry_group_IT_number 67
_symmetry_cell_setting 'orthorhombic'
loop_
_space_group_symop_operation_xyz
x,y,z
-x,1/2-y,z
x,-y,-z
-x,1/2+y,-z
-x,-y,-z
x,1/2+y,-z
-x,y,z
x,1/2-y,z
1/2+x,1/2+y,z
1/2-x,-y,z
1/2+x,1/2-y,-z
1/2-x,y,-z
1/2-x,1/2-y,-z
1/2+x,y,-z
1/2-x,1/2+y,z
1/2+x,-y,z
loop_
_atom_site_type_symbol
_atom_site_label
_atom_site_fract_x
_atom_site_fract_y
_atom_site_fract_z
Si Si1 0.000000 0.599231 0.564936
Si Si2 0.430939 0.406882 0.783452
Si Si3 0.881227 0.983447 0.643329
Si Si4 0.308439 0.250000 0.587451
Si Si5 0.071572 0.398312 0.057951
Si Si6 0.667018 0.250000 0.425431
O O1 0.000000 0.500000 0.500000
O O2 0.942048 0.576912 0.612598
O O3 0.000000 0.750000 0.535470
O O4 0.500000 0.450687 0.775968
O O5 0.424112 0.250000 0.766928
O O6 0.390675 0.492862 0.728505
O O7 0.407263 0.439638 0.862886
O O8 0.826852 0.883457 0.628073
O O9 0.865974 0.124224 0.608678
O O10 0.340629 0.250000 0.510339
O O11 0.237217 0.250000 0.588606
O O12 0.095026 0.250000 0.039407
O O13 0.000000 0.399148 0.056238
O O14 0.098775 0.500000 0.000000
#
# Coordination Sequence:
#
# PCOD8281472 Si02
#       6
#     8  16  16   8  16   8
#     4  12  24  36  56  78 105 142 176 215 266 327
#     4   9  16  31  50  72 103 143 176 203 251 318
#     4  12  22  37  57  78 107 137 178 219 266 328
#     4  11  22  43  61  71  98 142 182 228 271 324
#     4   8  14  25  44  67  97 135 173 203 238 299
#     4  11  26  39  55  81 102 132 182 236 281 298
#
# _framework density 17.143863
#
# number of rings (size 3 to 8) (size 9 to 14) (size 15 to 20)
#    0.000    1.778    3.333    4.000    1.556    1.778 
#    2.000    0.000    0.000    0.000    0.000    0.000 
#    0.000    5.333    0.000    0.000    0.000    0.000 
#
# Total GULP energy -446354.491683 kJ/mol
# GULP energy per Si atom -12398.735880 kJ/mol
# Density = 1.710484 g / cm^3
# Si number density = 17.143863 Si / 1000 Ang^3
#
#
#
# Elastic Constant Matrix: (Units=GPa)
#
#
# Indices 1 2 3 4 5 6 
#
# 1 44.1152 26.5531 27.9631 0.0000 0.0000 0.0000
# 2 26.5531 112.4253 58.9964 0.0000 0.0000 0.0000
# 3 27.9631 58.9964 142.5364 0.0000 0.0000 0.0000
# 4 0.0000 0.0000 0.0000 25.3815 0.0000 0.0000
# 5 0.0000 0.0000 0.0000 0.0000 12.2908 0.0000
# 6 0.0000 0.0000 0.0000 0.0000 0.0000 25.3391
#
#
#
# Elastic Compliance Matrix: (Units=1/GPa)
#
#
# Indices 1 2 3 4 5 6 
#
# 1 0.027716 -0.004717 -0.003485 0.000000 0.000000 0.000000
# 2 -0.004717 0.012166 -0.004110 0.000000 0.000000 0.000000
# 3 -0.003485 -0.004110 0.009401 0.000000 0.000000 0.000000
# 4 0.000000 0.000000 0.000000 0.039399 0.000000 0.000000
# 5 0.000000 0.000000 0.000000 0.000000 0.081362 0.000000
# 6 0.000000 0.000000 0.000000 0.000000 0.000000 0.039465
#
#
# Mechanical properties :
#
#
# Convention : Reuss Voigt Hill
#
# Bulk Modulus (GPa) = 40.55474 58.45579 49.50526
# Shear Modulus (GPa) = 20.63116 24.97323 22.80219
#
# Velocity S-wave (km/s) = 3.47279 3.82080 3.65094
# Velocity P-wave (km/s) = 6.30771 7.32365 6.83459
#
# Compressibility (1/GPa) = 0.02465803
#
# Stress axis : x y z
#
# Youngs Moduli (GPa) = 36.07982 82.19809 106.37669
#
# Poissons Ratio (x) = 0.38776 0.37071
# Poissons Ratio (y) = 0.17020 0.43720
# Poissons Ratio (z) = 0.12573 0.33783
#
# Static dielectric constant tensor:
#      x y z
#    x 2.930480 0.000000 0.000000 
#    y 0.000000 3.628420 0.000000 
#    z 0.000000 0.000000 3.473300 
# 
# 
# High freq. dielectric constant tensor:
#      x y z
#    x 1.625000 0.000000 0.000000 
#    y 0.000000 1.657970 0.000000 
#    z 0.000000 0.000000 1.667280 
# 
# From -- ./inp_files/36854.got.cif
#   From: 2010.03.12/outbox.cif.g09.slc.cpg/sg67_19_cif.got.tgz:36854.got - 2010.04.10 22:41:39.
