data_PCOD8281108
_publ_section_title
;
Structure prediction by ZEFSAII (Michael W. Deem and Ramdas Pophale) SiO2 
 PCOD8281108
Probable space group: C M M A
;
_chemical_formula_sum "Si O2"
_cell_formula_units_Z 88
_cell_length_a 21.692698
_cell_length_b 8.807845
_cell_length_c 23.995985
_cell_angle_alpha 90.000000
_cell_angle_beta 90.000000
_cell_angle_gamma 90.000000
_cell_volume 4584.814989
_symmetry_space_group_name_H-M "C M M A"
_symmetry_group_IT_number 67
_symmetry_cell_setting 'orthorhombic'
loop_
_space_group_symop_operation_xyz
x,y,z
-x,1/2-y,z
x,-y,-z
-x,1/2+y,-z
-x,-y,-z
x,1/2+y,-z
-x,y,z
x,1/2-y,z
1/2+x,1/2+y,z
1/2-x,-y,z
1/2+x,1/2-y,-z
1/2-x,y,-z
1/2-x,1/2-y,-z
1/2+x,y,-z
1/2-x,1/2+y,z
1/2+x,-y,z
loop_
_atom_site_type_symbol
_atom_site_label
_atom_site_fract_x
_atom_site_fract_y
_atom_site_fract_z
Si Si1 0.000000 0.072690 0.560600
Si Si2 0.570989 0.929467 0.126165
Si Si3 0.184640 0.072076 0.447476
Si Si4 0.889045 0.073246 0.639389
Si Si5 0.071541 0.081294 0.253257
Si Si6 0.814066 0.067979 0.938817
O O1 0.943702 0.020079 0.598967
O O2 0.000000 0.250000 0.550891
O O3 0.000000 0.000000 0.500000
O O4 0.500000 0.974362 0.108904
O O5 0.579592 0.750000 0.116940
O O6 0.582241 0.974614 0.190346
O O7 0.623326 0.020101 0.092791
O O8 0.184125 0.250000 0.453825
O O9 0.144887 0.000000 0.500000
O O10 0.250000 0.000000 0.455424
O O11 0.166462 0.023463 0.385272
O O12 0.875536 0.250000 0.634928
O O13 0.896884 0.034382 0.704263
O O14 0.099269 0.250000 0.261180
O O15 0.000000 0.084321 0.267161
O O16 0.809501 0.250000 0.940129
O O17 0.750000 0.000000 0.912223
O O18 0.820547 0.000000 0.000000
#
# Coordination Sequence:
#
# PCOD8281108 Si02
#       6
#     8  16  16  16  16  16
#     4  10  22  34  48  74 106 138 171 214 267 320
#     4   9  19  37  60  87 120 156 198 245 291 345
#     4  11  22  38  57  77 100 133 173 220 273 332
#     4  11  21  35  53  78 108 141 178 221 270 326
#     4   9  18  34  56  81 110 148 188 228 278 331
#     4  11  22  38  61  88 121 160 200 243 295 351
#
# _framework density 19.193795000000001
#
# number of rings (size 3 to 8) (size 9 to 14) (size 15 to 20)
#    0.000    1.818    0.909    6.545    0.000    4.364 
#    0.000    2.727    0.000    4.364    0.000    0.000 
#    0.000    0.000    0.000    0.000    0.000    0.000 
#
# Total GULP energy -545140.296323 kJ/mol
# GULP energy per Si atom -12389.552189 kJ/mol
# Density = 1.915011 g / cm^3
# Si number density = 19.193795 Si / 1000 Ang^3
#
#
#
# Elastic Constant Matrix: (Units=GPa)
#
#
# Indices 1 2 3 4 5 6 
#
# 1 98.4890 56.4421 56.6781 0.0000 0.0000 0.0000
# 2 56.4421 135.2649 55.3631 0.0000 0.0000 0.0000
# 3 56.6781 55.3631 102.1467 0.0000 0.0000 0.0000
# 4 0.0000 0.0000 0.0000 35.6522 0.0000 0.0000
# 5 0.0000 0.0000 0.0000 0.0000 37.9090 0.0000
# 6 0.0000 0.0000 0.0000 0.0000 0.0000 35.5359
#
#
#
# Elastic Compliance Matrix: (Units=1/GPa)
#
#
# Indices 1 2 3 4 5 6 
#
# 1 0.016460 -0.004022 -0.006953 0.000000 0.000000 0.000000
# 2 -0.004022 0.010483 -0.003450 0.000000 0.000000 0.000000
# 3 -0.006953 -0.003450 0.015518 0.000000 0.000000 0.000000
# 4 0.000000 0.000000 0.000000 0.028049 0.000000 0.000000
# 5 0.000000 0.000000 0.000000 0.000000 0.026379 0.000000
# 6 0.000000 0.000000 0.000000 0.000000 0.000000 0.028141
#
#
# Mechanical properties :
#
#
# Convention : Reuss Voigt Hill
#
# Bulk Modulus (GPa) = 73.47440 74.76303 74.11872
# Shear Modulus (GPa) = 31.56233 32.98059 32.27146
#
# Velocity S-wave (km/s) = 4.05952 4.14973 4.10487
# Velocity P-wave (km/s) = 7.76765 7.87379 7.82090
#
# Compressibility (1/GPa) = 0.01361018
#
# Stress axis : x y z
#
# Youngs Moduli (GPa) = 60.75398 95.38862 64.44247
#
# Poissons Ratio (x) = 0.38369 0.44806
# Poissons Ratio (y) = 0.24438 0.22233
# Poissons Ratio (z) = 0.42242 0.32910
#
# Static dielectric constant tensor:
#      x y z
#    x 3.667860 0.000000 0.000000 
#    y 0.000000 3.469980 0.000000 
#    z 0.000000 0.000000 3.533460 
# 
# 
# High freq. dielectric constant tensor:
#      x y z
#    x 1.738780 0.000000 0.000000 
#    y 0.000000 1.749300 0.000000 
#    z 0.000000 0.000000 1.747740 
# 
# From -- ./inp_files/36937.got.cif
#   From: 2010.03.12/outbox.cif.g09.slc.cpg/sg67_19_cif.got.tgz:36937.got - 2010.04.10 22:41:39.
