data_PCOD8281510
_publ_section_title
;
Structure prediction by ZEFSAII (Michael W. Deem and Ramdas Pophale) SiO2 
 PCOD8281510
Probable space group: C M M A
;
_chemical_formula_sum "Si O2"
_cell_formula_units_Z 64
_cell_length_a 9.855769
_cell_length_b 17.006853
_cell_length_c 18.714997
_cell_angle_alpha 90.000000
_cell_angle_beta 90.000000
_cell_angle_gamma 90.000000
_cell_volume 3136.925724
_symmetry_space_group_name_H-M "C M M A"
_symmetry_group_IT_number 67
_symmetry_cell_setting 'orthorhombic'
loop_
_space_group_symop_operation_xyz
x,y,z
-x,1/2-y,z
x,-y,-z
-x,1/2+y,-z
-x,-y,-z
x,1/2+y,-z
-x,y,z
x,1/2-y,z
1/2+x,1/2+y,z
1/2-x,-y,z
1/2+x,1/2-y,-z
1/2-x,y,-z
1/2-x,1/2-y,-z
1/2+x,y,-z
1/2-x,1/2+y,z
1/2+x,-y,z
loop_
_atom_site_type_symbol
_atom_site_label
_atom_site_fract_x
_atom_site_fract_y
_atom_site_fract_z
Si Si1 0.500000 0.925383 0.401835
Si Si2 0.000000 0.106249 0.566716
Si Si3 0.756445 0.660485 0.345524
Si Si4 0.655912 0.073542 0.209674
Si Si5 0.343709 0.158889 0.064354
O O1 0.500000 0.892599 0.481670
O O2 0.368543 0.896771 0.359989
O O3 0.500000 0.019259 0.400161
O O4 0.866381 0.151543 0.591819
O O5 0.705100 0.750000 0.343546
O O6 0.823839 0.639394 0.269996
O O7 0.500000 0.045897 0.209444
O O8 0.697631 0.110493 0.134113
O O9 0.750000 0.000000 0.226611
O O10 0.500000 0.145073 0.043084
O O11 0.314802 0.250000 0.080365
O O12 0.250000 0.127967 0.000000
#
# Coordination Sequence:
#
# PCOD8281510 Si02
#       5
#     8   8  16  16  16
#     4  11  25  43  63  95 126 163 204 263 315 375
#     4  11  23  43  69  89 124 167 210 249 317 383
#     4  12  25  41  64  93 126 164 210 262 314 372
#     4  11  24  41  64  90 124 167 211 259 313 375
#     4   9  19  38  63  91 124 162 206 255 309 370
#
# _framework density 20.402141
#
# number of rings (size 3 to 8) (size 9 to 14) (size 15 to 20)
#    0.000    1.250    1.250    4.500    1.750    7.500 
#    0.000    2.500    0.000    0.000    0.000    0.000 
#    0.000    0.000    0.000    0.000    0.000    0.000 
#
# Total GULP energy -397051.791983 kJ/mol
# GULP energy per Si atom -12407.868499 kJ/mol
# Density = 2.035570 g / cm^3
# Si number density = 20.402141 Si / 1000 Ang^3
#
#
#
# Elastic Constant Matrix: (Units=GPa)
#
#
# Indices 1 2 3 4 5 6 
#
# 1 97.4899 19.1692 32.5449 0.0000 0.0000 0.0000
# 2 19.1692 82.0186 31.6895 0.0000 0.0000 0.0000
# 3 32.5449 31.6895 101.8999 0.0000 0.0000 0.0000
# 4 0.0000 0.0000 0.0000 32.1835 0.0000 0.0000
# 5 0.0000 0.0000 0.0000 0.0000 39.0459 0.0000
# 6 0.0000 0.0000 0.0000 0.0000 0.0000 29.5483
#
#
#
# Elastic Compliance Matrix: (Units=1/GPa)
#
#
# Indices 1 2 3 4 5 6 
#
# 1 0.011633 -0.001459 -0.003262 0.000000 0.000000 0.000000
# 2 -0.001459 0.014040 -0.003900 0.000000 0.000000 0.000000
# 3 -0.003262 -0.003900 0.012068 0.000000 0.000000 0.000000
# 4 0.000000 0.000000 0.000000 0.031072 0.000000 0.000000
# 5 0.000000 0.000000 0.000000 0.000000 0.025611 0.000000
# 6 0.000000 0.000000 0.000000 0.000000 0.000000 0.033843
#
#
# Mechanical properties :
#
#
# Convention : Reuss Voigt Hill
#
# Bulk Modulus (GPa) = 48.78063 49.80175 49.29119
# Shear Modulus (GPa) = 32.82078 33.35586 33.08832
#
# Velocity S-wave (km/s) = 4.01520 4.04780 4.03153
# Velocity P-wave (km/s) = 6.74220 6.80509 6.77372
#
# Compressibility (1/GPa) = 0.02049994
#
# Stress axis : x y z
#
# Youngs Moduli (GPa) = 85.96112 71.22362 82.86158
#
# Poissons Ratio (x) = 0.10389 0.27028
# Poissons Ratio (y) = 0.12538 0.32320
# Poissons Ratio (z) = 0.28039 0.27781
#
# Static dielectric constant tensor:
#      x y z
#    x 3.495820 0.000000 0.000000 
#    y 0.000000 3.587440 0.000000 
#    z 0.000000 0.000000 3.761350 
# 
# 
# High freq. dielectric constant tensor:
#      x y z
#    x 1.804430 0.000000 0.000000 
#    y 0.000000 1.797190 0.000000 
#    z 0.000000 0.000000 1.808320 
# 
# From -- ./inp_files/36600.got.cif
#   From: 2010.03.12/outbox.cif.g09.slc.cpg/sg67_19_cif.got.tgz:36600.got - 2010.04.10 22:41:39.
