data_PCOD8281443
_publ_section_title
;
Structure prediction by ZEFSAII (Michael W. Deem and Ramdas Pophale) SiO2 
 PCOD8281443
Probable space group: C M M A
;
_chemical_formula_sum "Si O2"
_cell_formula_units_Z 72
_cell_length_a 8.640474
_cell_length_b 25.374782
_cell_length_c 19.765760
_cell_angle_alpha 90.000000
_cell_angle_beta 90.000000
_cell_angle_gamma 90.000000
_cell_volume 4333.645729
_symmetry_space_group_name_H-M "C M M A"
_symmetry_group_IT_number 67
_symmetry_cell_setting 'orthorhombic'
loop_
_space_group_symop_operation_xyz
x,y,z
-x,1/2-y,z
x,-y,-z
-x,1/2+y,-z
-x,-y,-z
x,1/2+y,-z
-x,y,z
x,1/2-y,z
1/2+x,1/2+y,z
1/2-x,-y,z
1/2+x,1/2-y,-z
1/2-x,y,-z
1/2-x,1/2-y,-z
1/2+x,y,-z
1/2-x,1/2+y,z
1/2+x,-y,z
loop_
_atom_site_type_symbol
_atom_site_label
_atom_site_fract_x
_atom_site_fract_y
_atom_site_fract_z
Si Si1 0.315638 0.942901 0.428028
Si Si2 0.317851 0.811324 0.214212
Si Si3 0.170276 0.812567 0.933994
Si Si4 0.317707 0.150821 0.346918
Si Si5 0.816121 0.250000 0.425239
O O1 0.500000 0.944615 0.431160
O O2 0.250000 0.923455 0.500000
O O3 0.257439 0.903445 0.370875
O O4 0.250000 0.000000 0.409469
O O5 0.500000 0.823762 0.220743
O O6 0.288166 0.750000 0.228729
O O7 0.254406 0.826673 0.138950
O O8 0.219385 0.844832 0.267404
O O9 0.165247 0.750000 0.941207
O O10 0.000000 0.836495 0.933985
O O11 0.250000 0.838017 0.000000
O O12 0.500000 0.150870 0.359785
O O13 0.240566 0.198495 0.386871
O O14 0.750000 0.250000 0.500000
O O15 0.000000 0.250000 0.427498
#
# Coordination Sequence:
#
# PCOD8281443 Si02
#       5
#    16  16  16  16   8
#     4  11  22  39  59  78  99 126 161 206 253 298
#     4   9  17  30  46  65  95 133 168 202 246 292
#     4   8  14  24  39  60  87 123 163 201 238 282
#     4  12  23  35  51  75 101 130 167 205 247 298
#     4  12  24  38  52  70  97 130 165 204 246 294
#
# _framework density 16.614186
#
# number of rings (size 3 to 8) (size 9 to 14) (size 15 to 20)
#    0.000    1.778    1.111    7.667    0.000    0.889 
#    0.000    2.222    0.000    0.000    0.000    0.000 
#    0.000    0.889    0.000    9.333    0.000    5.556 
#
# Total GULP energy -446278.356315 kJ/mol
# GULP energy per Si atom -12396.621009 kJ/mol
# Density = 1.657637 g / cm^3
# Si number density = 16.614186 Si / 1000 Ang^3
#
#
#
# Elastic Constant Matrix: (Units=GPa)
#
#
# Indices 1 2 3 4 5 6 
#
# 1 129.6237 37.5484 55.8295 0.0000 0.0000 0.0000
# 2 37.5484 61.8076 49.7366 0.0000 0.0000 0.0000
# 3 55.8295 49.7366 146.8024 0.0000 0.0000 0.0000
# 4 0.0000 0.0000 0.0000 15.1676 0.0000 0.0000
# 5 0.0000 0.0000 0.0000 0.0000 32.3228 0.0000
# 6 0.0000 0.0000 0.0000 0.0000 0.0000 21.8008
#
#
#
# Elastic Compliance Matrix: (Units=1/GPa)
#
#
# Indices 1 2 3 4 5 6 
#
# 1 0.009934 -0.004117 -0.002383 0.000000 0.000000 0.000000
# 2 -0.004117 0.023950 -0.006548 0.000000 0.000000 0.000000
# 3 -0.002383 -0.006548 0.009937 0.000000 0.000000 0.000000
# 4 0.000000 0.000000 0.000000 0.065930 0.000000 0.000000
# 5 0.000000 0.000000 0.000000 0.000000 0.030938 0.000000
# 6 0.000000 0.000000 0.000000 0.000000 0.000000 0.045870
#
#
# Mechanical properties :
#
#
# Convention : Reuss Voigt Hill
#
# Bulk Modulus (GPa) = 56.42313 69.38475 62.90394
# Shear Modulus (GPa) = 22.87670 26.86619 24.87145
#
# Velocity S-wave (km/s) = 3.71474 4.02564 3.87331
# Velocity P-wave (km/s) = 7.24110 7.96622 7.61230
#
# Compressibility (1/GPa) = 0.01772323
#
# Stress axis : x y z
#
# Youngs Moduli (GPa) = 100.66849 41.75365 100.63694
#
# Poissons Ratio (x) = 0.17191 0.23981
# Poissons Ratio (y) = 0.41447 0.65902
# Poissons Ratio (z) = 0.23988 0.27342
#
# Static dielectric constant tensor:
#      x y z
#    x 3.294280 0.000000 0.000000 
#    y 0.000000 2.886520 0.000000 
#    z 0.000000 0.000000 3.449540 
# 
# 
# High freq. dielectric constant tensor:
#      x y z
#    x 1.649760 0.000000 0.000000 
#    y 0.000000 1.590760 0.000000 
#    z 0.000000 0.000000 1.653870 
# 
# From -- ./inp_files/32062.got.cif
#   From: 2010.03.12/outbox.cif.g09.slc.cpg/sg67_17_cif.got.tgz:32062.got - 2010.04.10 22:41:39.
