data_PCOD8281551
_publ_section_title
;
Structure prediction by ZEFSAII (Michael W. Deem and Ramdas Pophale) SiO2 
 PCOD8281551
Probable space group: C M M A
;
_chemical_formula_sum "Si O2"
_cell_formula_units_Z 64
_cell_length_a 14.984738
_cell_length_b 26.792883
_cell_length_c 6.807276
_cell_angle_alpha 90.000000
_cell_angle_beta 90.000000
_cell_angle_gamma 90.000000
_cell_volume 2733.014658
_symmetry_space_group_name_H-M "C M M A"
_symmetry_group_IT_number 67
_symmetry_cell_setting 'orthorhombic'
loop_
_space_group_symop_operation_xyz
x,y,z
-x,1/2-y,z
x,-y,-z
-x,1/2+y,-z
-x,-y,-z
x,1/2+y,-z
-x,y,z
x,1/2-y,z
1/2+x,1/2+y,z
1/2-x,-y,z
1/2+x,1/2-y,-z
1/2-x,y,-z
1/2-x,1/2-y,-z
1/2+x,y,-z
1/2-x,1/2+y,z
1/2+x,-y,z
loop_
_atom_site_type_symbol
_atom_site_label
_atom_site_fract_x
_atom_site_fract_y
_atom_site_fract_z
Si Si1 0.500000 0.250000 0.297694
Si Si2 0.314132 0.567203 0.327951
Si Si3 0.000000 0.060726 0.517568
Si Si4 0.000000 0.139473 0.880326
Si Si5 0.750000 0.000000 0.000000
Si Si6 0.346194 0.250000 0.597435
Si Si7 0.330148 0.161829 0.874662
O O1 0.500000 0.302301 0.182728
O O2 0.410363 0.250000 0.416335
O O3 0.250000 0.546480 0.500000
O O4 0.412874 0.577719 0.404033
O O5 0.315909 0.530454 0.141750
O O6 0.277933 0.620138 0.252765
O O7 0.000000 0.092936 0.723056
O O8 0.000000 0.000000 0.500000
O O9 0.090645 0.134293 0.006172
O O10 0.250000 0.250000 0.500000
O O11 0.369752 0.202808 0.730708
O O12 0.250000 0.186758 0.000000
#
# Coordination Sequence:
#
# PCOD8281551 Si02
#       7
#     4  16   8   8   4   8  16
#     4  12  24  46  68  96 148 184 236 300 352 436
#     4  12  26  48  71 106 143 189 241 299 370 431
#     4  12  27  44  73 103 146 185 244 311 356 446
#     4  12  26  45  70 108 138 200 243 296 377 433
#     4  12  26  46  76 100 140 198 234 298 376 436
#     4  12  24  42  70 104 140 192 240 297 371 426
#     4  12  24  44  70 102 142 184 242 297 355 442
#
# _framework density 23.417366000000001
#
# number of rings (size 3 to 8) (size 9 to 14) (size 15 to 20)
#    0.000    0.000    1.250    9.750    3.500    0.500 
#    0.000    0.000    0.000    0.000    0.000    0.000 
#    0.000    0.000    0.000    0.000    0.000    0.000 
#
# Total GULP energy -396565.300724 kJ/mol
# GULP energy per Si atom -12392.665648 kJ/mol
# Density = 2.336407 g / cm^3
# Si number density = 23.417366 Si / 1000 Ang^3
#
#
#
# Elastic Constant Matrix: (Units=GPa)
#
#
# Indices 1 2 3 4 5 6 
#
# 1 141.7068 -6.6599 49.0384 0.0000 0.0000 0.0000
# 2 -6.6599 146.9571 54.1320 0.0000 0.0000 0.0000
# 3 49.0384 54.1320 134.7924 0.0000 0.0000 0.0000
# 4 0.0000 0.0000 0.0000 104.3714 0.0000 0.0000
# 5 0.0000 0.0000 0.0000 0.0000 34.8679 0.0000
# 6 0.0000 0.0000 0.0000 0.0000 0.0000 27.7655
#
#
#
# Elastic Compliance Matrix: (Units=1/GPa)
#
#
# Indices 1 2 3 4 5 6 
#
# 1 0.008452 0.001779 -0.003789 0.000000 0.000000 0.000000
# 2 0.001779 0.008360 -0.004005 0.000000 0.000000 0.000000
# 3 -0.003789 -0.004005 0.010406 0.000000 0.000000 0.000000
# 4 0.000000 0.000000 0.000000 0.009581 0.000000 0.000000
# 5 0.000000 0.000000 0.000000 0.000000 0.028680 0.000000
# 6 0.000000 0.000000 0.000000 0.000000 0.000000 0.036016
#
#
# Mechanical properties :
#
#
# Convention : Reuss Voigt Hill
#
# Bulk Modulus (GPa) = 65.84289 68.49748 67.17019
# Shear Modulus (GPa) = 42.16314 55.19734 48.68024
#
# Velocity S-wave (km/s) = 4.24784 4.86028 4.56434
# Velocity P-wave (km/s) = 7.22752 7.79812 7.51823
#
# Compressibility (1/GPa) = 0.01518767
#
# Stress axis : x y z
#
# Youngs Moduli (GPa) = 118.31992 119.61098 96.10246
#
# Poissons Ratio (x) = -0.21276 0.36414
# Poissons Ratio (y) = -0.21046 0.38486
# Poissons Ratio (z) = 0.44833 0.47900
#
# Static dielectric constant tensor:
#      x y z
#    x 4.115070 0.000000 0.000000 
#    y 0.000000 4.563280 0.000000 
#    z 0.000000 0.000000 4.538400 
# 
# 
# High freq. dielectric constant tensor:
#      x y z
#    x 1.932420 0.000000 0.000000 
#    y 0.000000 1.945720 0.000000 
#    z 0.000000 0.000000 1.940480 
# 
# From -- ./inp_files/2276.got.cif
#   From: 2010.03.12/outbox.cif.g09.slc.cpg/sg67_2_cif.got.tgz:2276.got - 2010.04.10 22:41:39.
