data_PCOD8281002
_publ_section_title
;
Structure prediction by ZEFSAII (Michael W. Deem and Ramdas Pophale) SiO2 
 PCOD8281002
Probable space group: C M M A
;
_chemical_formula_sum "Si O2"
_cell_formula_units_Z 88
_cell_length_a 27.942246
_cell_length_b 9.975495
_cell_length_c 16.002261
_cell_angle_alpha 90.000000
_cell_angle_beta 90.000000
_cell_angle_gamma 90.000000
_cell_volume 4460.433990
_symmetry_space_group_name_H-M "C M M A"
_symmetry_group_IT_number 67
_symmetry_cell_setting 'orthorhombic'
loop_
_space_group_symop_operation_xyz
x,y,z
-x,1/2-y,z
x,-y,-z
-x,1/2+y,-z
-x,-y,-z
x,1/2+y,-z
-x,y,z
x,1/2-y,z
1/2+x,1/2+y,z
1/2-x,-y,z
1/2+x,1/2-y,-z
1/2-x,y,-z
1/2-x,1/2-y,-z
1/2+x,y,-z
1/2-x,1/2+y,z
1/2+x,-y,z
loop_
_atom_site_type_symbol
_atom_site_label
_atom_site_fract_x
_atom_site_fract_y
_atom_site_fract_z
Si Si1 0.395412 0.595788 0.579981
Si Si2 0.500000 0.101836 0.426241
Si Si3 0.196699 0.250000 0.196663
Si Si4 0.156533 0.250000 0.018356
Si Si5 0.910037 0.500000 0.000000
Si Si6 0.305682 0.250000 0.164291
Si Si7 0.553898 0.593985 0.829918
Si Si8 0.644066 0.490208 0.253786
O O1 0.389988 0.500000 0.500000
O O2 0.385605 0.750000 0.553384
O O3 0.449220 0.583326 0.622150
O O4 0.356612 0.551552 0.648803
O O5 0.500000 0.250000 0.466151
O O6 0.500000 0.000000 0.500000
O O7 0.253546 0.250000 0.205798
O O8 0.173299 0.125511 0.244081
O O9 0.190758 0.250000 0.097696
O O10 0.123860 0.379611 0.027512
O O11 0.190379 0.250000 0.936429
O O12 0.944350 0.548556 0.074038
O O13 0.331645 0.381701 0.195320
O O14 0.500000 0.575115 0.796085
O O15 0.569761 0.750000 0.821906
O O16 0.589186 0.498558 0.777253
#
# Coordination Sequence:
#
# PCOD8281002 Si02
#       8
#    16   8   8   8   8   8  16  16
#     4  10  21  38  65  93 127 167 206 255 313 373
#     4   8  16  32  56  92 124 159 203 244 296 365
#     4  12  27  40  67  94 126 164 207 273 333 362
#     4  12  21  40  65  88 126 162 209 262 321 370
#     4  12  19  38  57  86 130 164 207 262 305 368
#     4  12  23  46  67  90 122 168 211 267 321 382
#     4  11  22  37  61  88 124 177 216 250 306 378
#     4  12  23  43  63  96 128 161 216 265 312 382
#
# _framework density 19.729019999999998
#
# number of rings (size 3 to 8) (size 9 to 14) (size 15 to 20)
#    0.000    0.909    6.364    1.091    2.545    0.000 
#    0.000    4.091    0.000    3.273    0.000    0.000 
#    0.000    0.000    0.000    0.000    0.000    0.000 
#
# Total GULP energy -545420.673894 kJ/mol
# GULP energy per Si atom -12395.924407 kJ/mol
# Density = 1.968412 g / cm^3
# Si number density = 19.729020 Si / 1000 Ang^3
#
#
#
# Elastic Constant Matrix: (Units=GPa)
#
#
# Indices 1 2 3 4 5 6 
#
# 1 94.4349 37.2444 25.8914 0.0000 0.0000 0.0000
# 2 37.2444 107.7760 23.3492 0.0000 0.0000 0.0000
# 3 25.8914 23.3492 82.7881 0.0000 0.0000 0.0000
# 4 0.0000 0.0000 0.0000 130.6985 0.0000 0.0000
# 5 0.0000 0.0000 0.0000 0.0000 20.6795 0.0000
# 6 0.0000 0.0000 0.0000 0.0000 0.0000 7.0263
#
#
#
# Elastic Compliance Matrix: (Units=1/GPa)
#
#
# Indices 1 2 3 4 5 6 
#
# 1 0.012907 -0.003819 -0.002959 0.000000 0.000000 0.000000
# 2 -0.003819 0.011012 -0.001911 0.000000 0.000000 0.000000
# 3 -0.002959 -0.001911 0.013544 0.000000 0.000000 0.000000
# 4 0.000000 0.000000 0.000000 0.007651 0.000000 0.000000
# 5 0.000000 0.000000 0.000000 0.000000 0.048357 0.000000
# 6 0.000000 0.000000 0.000000 0.000000 0.000000 0.142322
#
#
# Mechanical properties :
#
#
# Convention : Reuss Voigt Hill
#
# Bulk Modulus (GPa) = 49.79352 50.88545 50.33949
# Shear Modulus (GPa) = 19.24053 44.91514 32.07783
#
# Velocity S-wave (km/s) = 3.12627 4.77655 4.03665
# Velocity P-wave (km/s) = 6.19071 7.50125 6.87727
#
# Compressibility (1/GPa) = 0.02008293
#
# Stress axis : x y z
#
# Youngs Moduli (GPa) = 77.47773 90.80672 73.83517
#
# Poissons Ratio (x) = 0.34680 0.21851
# Poissons Ratio (y) = 0.29590 0.14113
# Poissons Ratio (z) = 0.22929 0.17358
#
# Static dielectric constant tensor:
#      x y z
#    x 3.717750 0.000000 0.000000 
#    y 0.000000 3.456540 0.000000 
#    z 0.000000 0.000000 3.470000 
# 
# 
# High freq. dielectric constant tensor:
#      x y z
#    x 1.764800 0.000000 0.000000 
#    y 0.000000 1.774590 0.000000 
#    z 0.000000 0.000000 1.759940 
# 
# From -- ./inp_files/36235.got.cif
#   From: 2010.03.12/outbox.cif.g09.slc.cpg/sg67_19_cif.got.tgz:36235.got - 2010.04.10 22:41:39.
