data_PCOD8281722
_publ_section_title
;
Structure prediction by ZEFSAII (Michael W. Deem and Ramdas Pophale) SiO2 
 PCOD8281722
Probable space group: C C C A
;
_chemical_formula_sum "Si O2"
_cell_formula_units_Z 96
_cell_length_a 28.102947
_cell_length_b 9.937076
_cell_length_c 17.361225
_cell_angle_alpha 90.000000
_cell_angle_beta 90.000000
_cell_angle_gamma 90.000000
_cell_volume 4848.315141
_symmetry_space_group_name_H-M "C C C A"
_symmetry_group_IT_number 68
_space_group.IT_coordinate_system_code '2'
_symmetry_cell_setting 'orthorhombic'
loop_
_space_group_symop_operation_xyz
x,y,z
-x,1/2-y,z
x,1/2-y,1/2-z
-x,y,1/2-z
-x,-y,-z
x,1/2+y,-z
-x,1/2+y,1/2+z
x,-y,1/2+z
1/2+x,1/2+y,z
1/2-x,-y,z
1/2+x,-y,1/2-z
1/2-x,1/2+y,1/2-z
1/2-x,1/2-y,-z
1/2+x,y,-z
1/2-x,y,1/2+z
1/2+x,1/2-y,1/2+z
loop_
_atom_site_type_symbol
_atom_site_label
_atom_site_fract_x
_atom_site_fract_y
_atom_site_fract_z
Si Si1 0.005275 0.094182 0.427093
Si Si2 0.601714 0.486442 0.849977
Si Si3 0.741422 0.156676 0.324433
Si Si4 0.139341 0.230367 0.659071
Si Si5 0.161147 0.756331 0.658786
Si Si6 0.914944 0.026305 0.331336
O O1 0.967832 0.057509 0.360056
O O2 0.000000 0.250000 0.450732
O O3 0.000000 0.000000 0.500000
O O4 0.057412 0.064443 0.397314
O O5 0.619985 0.632087 0.878088
O O6 0.645929 0.389983 0.870767
O O7 0.586716 0.477081 0.760884
O O8 0.738456 0.250000 0.250000
O O9 0.691791 0.182055 0.370272
O O10 0.787097 0.202787 0.375682
O O11 0.750000 0.000000 0.301505
O O12 0.141655 0.250000 0.750000
O O13 0.101161 0.117660 0.635507
O O14 0.166604 0.750000 0.750000
O O15 0.120911 0.862845 0.634755
#
# Coordination Sequence:
#
# PCOD8281722 Si02
#       6
#    16  16  16  16  16  16
#     4  12  27  42  59  83 112 147 190 237 293 348
#     4  10  21  37  59  86 112 150 193 237 277 335
#     4  10  18  27  45  79 122 155 183 226 281 335
#     4   9  19  31  51  84 121 149 184 229 284 330
#     4   9  17  29  52  80 114 147 187 227 276 329
#     4  10  19  37  60  84 112 151 191 232 279 332
#
# _framework density 19.800692000000002
#
# number of rings (size 3 to 8) (size 9 to 14) (size 15 to 20)
#    0.000    2.000    3.333    0.500    9.333    0.667 
#    0.000    2.500    0.000    0.000    0.000    7.000 
#    0.000    0.000    0.000    0.000    0.000    0.000 
#
# Total GULP energy -594867.710904 kJ/mol
# GULP energy per Si atom -12393.077311 kJ/mol
# Density = 1.975562 g / cm^3
# Si number density = 19.800692 Si / 1000 Ang^3
#
#
#
# Elastic Constant Matrix: (Units=GPa)
#
#
# Indices 1 2 3 4 5 6 
#
# 1 124.1782 60.2261 17.6365 0.0000 0.0000 0.0000
# 2 60.2261 190.2322 25.1679 0.0000 0.0000 0.0000
# 3 17.6365 25.1679 28.3035 0.0000 0.0000 0.0000
# 4 0.0000 0.0000 0.0000 17.8868 0.0000 0.0000
# 5 0.0000 0.0000 0.0000 0.0000 1.3906 0.0000
# 6 0.0000 0.0000 0.0000 0.0000 0.0000 39.3655
#
#
#
# Elastic Compliance Matrix: (Units=1/GPa)
#
#
# Indices 1 2 3 4 5 6 
#
# 1 0.009865 -0.002618 -0.003819 0.000000 0.000000 0.000000
# 2 -0.002618 0.006652 -0.004284 0.000000 0.000000 0.000000
# 3 -0.003819 -0.004284 0.041521 0.000000 0.000000 0.000000
# 4 0.000000 0.000000 0.000000 0.055907 0.000000 0.000000
# 5 0.000000 0.000000 0.000000 0.000000 0.719104 0.000000
# 6 0.000000 0.000000 0.000000 0.000000 0.000000 0.025403
#
#
# Mechanical properties :
#
#
# Convention : Reuss Voigt Hill
#
# Bulk Modulus (GPa) = 27.32567 60.97497 44.15032
# Shear Modulus (GPa) = 5.60480 27.70748 16.65614
#
# Velocity S-wave (km/s) = 1.68427 3.74481 2.90347
# Velocity P-wave (km/s) = 4.19674 7.03984 5.79534
#
# Compressibility (1/GPa) = 0.03659563
#
# Stress axis : x y z
#
# Youngs Moduli (GPa) = 101.36790 150.32310 24.08437
#
# Poissons Ratio (x) = 0.39353 0.09198
# Poissons Ratio (y) = 0.26537 0.10318
# Poissons Ratio (z) = 0.38715 0.64400
#
# Static dielectric constant tensor:
#      x y z
#    x 4.199960 0.000000 0.000000 
#    y 0.000000 4.024030 0.000000 
#    z 0.000000 0.000000 3.088690 
# 
# 
# High freq. dielectric constant tensor:
#      x y z
#    x 1.795260 0.000000 0.000000 
#    y 0.000000 1.796770 0.000000 
#    z 0.000000 0.000000 1.694940 
# 
# From -- ./inp_files/47192.got.cif
#   From: 2010.03.12/outbox.cif.g09.slc.cpg/sg68_24_cif.got.tgz:47192.got - 2010.04.10 23:14:56.
