data_PCOD8281549
_publ_section_title
;
Structure prediction by ZEFSAII (Michael W. Deem and Ramdas Pophale) SiO2 
 PCOD8281549
Probable space group: C M M A
;
_chemical_formula_sum "Si O2"
_cell_formula_units_Z 72
_cell_length_a 31.473672
_cell_length_b 9.236350
_cell_length_c 13.393689
_cell_angle_alpha 90.000000
_cell_angle_beta 90.000000
_cell_angle_gamma 90.000000
_cell_volume 3893.570176
_symmetry_space_group_name_H-M "C M M A"
_symmetry_group_IT_number 67
_symmetry_cell_setting 'orthorhombic'
loop_
_space_group_symop_operation_xyz
x,y,z
-x,1/2-y,z
x,-y,-z
-x,1/2+y,-z
-x,-y,-z
x,1/2+y,-z
-x,y,z
x,1/2-y,z
1/2+x,1/2+y,z
1/2-x,-y,z
1/2+x,1/2-y,-z
1/2-x,y,-z
1/2-x,1/2-y,-z
1/2+x,y,-z
1/2-x,1/2+y,z
1/2+x,-y,z
loop_
_atom_site_type_symbol
_atom_site_label
_atom_site_fract_x
_atom_site_fract_y
_atom_site_fract_z
Si Si1 0.000000 0.577150 0.893714
Si Si2 0.422367 0.082856 0.197352
Si Si3 0.707689 0.079149 0.302376
Si Si4 0.833557 0.417506 0.900970
Si Si5 0.878370 0.417888 0.597642
O O1 0.958921 0.528021 0.832348
O O2 0.000000 0.750000 0.907085
O O3 0.000000 0.500000 0.000000
O O4 0.437031 0.250000 0.184860
O O5 0.382358 0.050868 0.126525
O O6 0.410507 0.050545 0.311912
O O7 0.714335 0.250000 0.308547
O O8 0.696675 0.031603 0.189326
O O9 0.669037 0.030010 0.373391
O O10 0.750000 0.000000 0.339536
O O11 0.826858 0.250000 0.922026
O O12 0.819725 0.500000 0.000000
O O13 0.894824 0.500000 0.500000
O O14 0.877705 0.250000 0.572412
#
# Coordination Sequence:
#
# PCOD8281549 Si02
#       5
#     8  16  16  16  16
#     4  12  24  36  55  84 113 140 171 208 250 302
#     4   9  19  37  56  76 105 138 172 214 258 302
#     4   9  19  34  49  71 102 134 169 212 258 305
#     4   9  18  32  50  71  98 133 172 210 253 304
#     4   9  19  36  57  78 103 135 172 215 262 308
#
# _framework density 18.492027
#
# number of rings (size 3 to 8) (size 9 to 14) (size 15 to 20)
#    0.000    2.667    0.000    4.333    0.000    6.222 
#    0.000    9.444    0.000    0.000    0.000    0.000 
#    0.000    0.000    0.000    0.000    0.000    0.000 
#
# Total GULP energy -446399.097035 kJ/mol
# GULP energy per Si atom -12399.974918 kJ/mol
# Density = 1.844994 g / cm^3
# Si number density = 18.492027 Si / 1000 Ang^3
#
#
#
# Elastic Constant Matrix: (Units=GPa)
#
#
# Indices 1 2 3 4 5 6 
#
# 1 81.0505 41.2910 20.3640 0.0000 0.0000 0.0000
# 2 41.2910 73.9221 43.7633 0.0000 0.0000 0.0000
# 3 20.3640 43.7633 104.4525 0.0000 0.0000 0.0000
# 4 0.0000 0.0000 0.0000 34.6194 0.0000 0.0000
# 5 0.0000 0.0000 0.0000 0.0000 14.5551 0.0000
# 6 0.0000 0.0000 0.0000 0.0000 0.0000 30.2362
#
#
#
# Elastic Compliance Matrix: (Units=1/GPa)
#
#
# Indices 1 2 3 4 5 6 
#
# 1 0.017309 -0.010201 0.000899 0.000000 0.000000 0.000000
# 2 -0.010201 0.024002 -0.008067 0.000000 0.000000 0.000000
# 3 0.000899 -0.008067 0.012778 0.000000 0.000000 0.000000
# 4 0.000000 0.000000 0.000000 0.028886 0.000000 0.000000
# 5 0.000000 0.000000 0.000000 0.000000 0.068704 0.000000
# 6 0.000000 0.000000 0.000000 0.000000 0.000000 0.033073
#
#
# Mechanical properties :
#
#
# Convention : Reuss Voigt Hill
#
# Bulk Modulus (GPa) = 51.67593 52.25128 51.96360
# Shear Modulus (GPa) = 22.12981 26.14928 24.13954
#
# Velocity S-wave (km/s) = 3.46312 3.76451 3.61696
# Velocity P-wave (km/s) = 6.63299 6.87116 6.75313
#
# Compressibility (1/GPa) = 0.01935137
#
# Stress axis : x y z
#
# Youngs Moduli (GPa) = 57.77437 41.66384 78.25659
#
# Poissons Ratio (x) = 0.42500 -0.07038
# Poissons Ratio (y) = 0.58933 0.63133
# Poissons Ratio (z) = -0.05196 0.33612
#
# Static dielectric constant tensor:
#      x y z
#    x 3.316540 0.000000 0.000000 
#    y 0.000000 3.209100 0.000000 
#    z 0.000000 0.000000 3.389260 
# 
# 
# High freq. dielectric constant tensor:
#      x y z
#    x 1.710110 0.000000 0.000000 
#    y 0.000000 1.707920 0.000000 
#    z 0.000000 0.000000 1.720840 
# 
# From -- ./inp_files/25265.got.cif
#   From: 2010.03.12/outbox.cif.g09.slc.cpg/sg67_13_cif.got.tgz:25265.got - 2010.04.10 22:41:39.
