data_PCOD8281568
_publ_section_title
;
Structure prediction by ZEFSAII (Michael W. Deem and Ramdas Pophale) SiO2 
 PCOD8281568
Probable space group: C M M A
;
_chemical_formula_sum "Si O2"
_cell_formula_units_Z 96
_cell_length_a 30.976028
_cell_length_b 9.166287
_cell_length_c 25.833151
_cell_angle_alpha 90.000000
_cell_angle_beta 90.000000
_cell_angle_gamma 90.000000
_cell_volume 7334.939934
_symmetry_space_group_name_H-M "C M M A"
_symmetry_group_IT_number 67
_symmetry_cell_setting 'orthorhombic'
loop_
_space_group_symop_operation_xyz
x,y,z
-x,1/2-y,z
x,-y,-z
-x,1/2+y,-z
-x,-y,-z
x,1/2+y,-z
-x,y,z
x,1/2-y,z
1/2+x,1/2+y,z
1/2-x,-y,z
1/2+x,1/2-y,-z
1/2-x,y,-z
1/2-x,1/2-y,-z
1/2+x,y,-z
1/2-x,1/2+y,z
1/2+x,-y,z
loop_
_atom_site_type_symbol
_atom_site_label
_atom_site_fract_x
_atom_site_fract_y
_atom_site_fract_z
Si Si1 0.451794 0.923988 0.361884
Si Si2 0.115198 0.419840 0.445831
Si Si3 0.551456 0.585207 0.050095
Si Si4 0.551243 0.912213 0.247989
Si Si5 0.551507 0.913929 0.849885
Si Si6 0.289304 0.920009 0.445254
O O1 0.500000 0.982305 0.374672
O O2 0.451960 0.750000 0.361474
O O3 0.418857 0.985284 0.404777
O O4 0.436644 0.976582 0.304691
O O5 0.108840 0.500000 0.500000
O O6 0.106631 0.250000 0.456364
O O7 0.163078 0.442135 0.420860
O O8 0.500000 0.585413 0.049852
O O9 0.569284 0.750000 0.049055
O O10 0.569040 0.505891 0.101469
O O11 0.569230 0.500000 0.000000
O O12 0.500000 0.902418 0.243828
O O13 0.570755 0.750000 0.240257
O O14 0.569872 0.016224 0.203117
O O15 0.500000 0.914277 0.849618
O O16 0.569383 0.750000 0.854334
O O17 0.278264 0.750000 0.451475
O O18 0.291303 0.000000 0.500000
O O19 0.250000 0.000000 0.413460
#
# Coordination Sequence:
#
# PCOD8281568 Si02
#       6
#    16  16  16  16  16  16
#     4   8  14  25  39  51  64  84 109 135 163 196
#     4   9  17  27  38  53  70  87 107 131 160 196
#     4   9  15  21  28  38  53  72  93 117 148 188
#     4   8  13  22  35  46  54  70  98 127 153 183
#     4   9  15  21  29  41  56  72  91 119 154 188
#     4   9  15  23  36  52  69  86 104 126 153 187
#
# _framework density 13.088041
#
# number of rings (size 3 to 8) (size 9 to 14) (size 15 to 20)
#    0.000    3.333    0.000    3.000    0.000    5.000 
#    0.000    0.833    0.000    1.000    0.000    0.000 
#    0.000    0.000    0.000    0.000    0.000    0.000 
#
# Total GULP energy -594686.915150 kJ/mol
# GULP energy per Si atom -12389.310732 kJ/mol
# Density = 1.305825 g / cm^3
# Si number density = 13.088041 Si / 1000 Ang^3
#
#
#
# Elastic Constant Matrix: (Units=GPa)
#
#
# Indices 1 2 3 4 5 6 
#
# 1 48.4222 24.5107 38.1787 0.0000 0.0000 0.0000
# 2 24.5107 82.3099 46.6012 0.0000 0.0000 0.0000
# 3 38.1787 46.6012 104.6106 0.0000 0.0000 0.0000
# 4 0.0000 0.0000 0.0000 17.8882 0.0000 0.0000
# 5 0.0000 0.0000 0.0000 0.0000 0.5977 0.0000
# 6 0.0000 0.0000 0.0000 0.0000 0.0000 6.9980
#
#
#
# Elastic Compliance Matrix: (Units=1/GPa)
#
#
# Indices 1 2 3 4 5 6 
#
# 1 0.029785 -0.003631 -0.009253 0.000000 0.000000 0.000000
# 2 -0.003631 0.016689 -0.006110 0.000000 0.000000 0.000000
# 3 -0.009253 -0.006110 0.015658 0.000000 0.000000 0.000000
# 4 0.000000 0.000000 0.000000 0.055903 0.000000 0.000000
# 5 0.000000 0.000000 0.000000 0.000000 1.673188 0.000000
# 6 0.000000 0.000000 0.000000 0.000000 0.000000 0.142899
#
#
# Mechanical properties :
#
#
# Convention : Reuss Voigt Hill
#
# Bulk Modulus (GPa) = 41.41527 50.43599 45.92563
# Shear Modulus (GPa) = 2.52505 13.50024 8.01265
#
# Velocity S-wave (km/s) = 1.39049 3.21517 2.47697
# Velocity P-wave (km/s) = 5.85579 7.23897 6.58380
#
# Compressibility (1/GPa) = 0.02414568
#
# Stress axis : x y z
#
# Youngs Moduli (GPa) = 33.57389 59.91806 63.86570
#
# Poissons Ratio (x) = 0.21755 0.59094
# Poissons Ratio (y) = 0.12190 0.39019
# Poissons Ratio (z) = 0.31066 0.36607
#
# Static dielectric constant tensor:
#      x y z
#    x 2.684540 0.000000 0.000000 
#    y 0.000000 2.723680 0.000000 
#    z 0.000000 0.000000 2.727010 
# 
# 
# High freq. dielectric constant tensor:
#      x y z
#    x 1.434800 0.000000 0.000000 
#    y 0.000000 1.499900 0.000000 
#    z 0.000000 0.000000 1.488000 
# 
# From -- ./inp_files/44918.got.cif
#   From: 2010.03.12/outbox.cif.g09.slc.cpg/sg67_23_cif.got.tgz:44918.got - 2010.04.10 22:41:39.
