data_PCOD8281953
_publ_section_title
;
Structure prediction by ZEFSAII (Michael W. Deem and Ramdas Pophale) SiO2 
 PCOD8281953
Probable space group: C C C A
;
_chemical_formula_sum "Si O2"
_cell_formula_units_Z 120
_cell_length_a 22.000330
_cell_length_b 19.077691
_cell_length_c 14.948139
_cell_angle_alpha 90.000000
_cell_angle_beta 90.000000
_cell_angle_gamma 90.000000
_cell_volume 6273.965599
_symmetry_space_group_name_H-M "C C C A"
_symmetry_group_IT_number 68
_space_group.IT_coordinate_system_code '2'
_symmetry_cell_setting 'orthorhombic'
loop_
_space_group_symop_operation_xyz
x,y,z
-x,1/2-y,z
x,1/2-y,1/2-z
-x,y,1/2-z
-x,-y,-z
x,1/2+y,-z
-x,1/2+y,1/2+z
x,-y,1/2+z
1/2+x,1/2+y,z
1/2-x,-y,z
1/2+x,-y,1/2-z
1/2-x,1/2+y,1/2-z
1/2-x,1/2-y,-z
1/2+x,y,-z
1/2-x,y,1/2+z
1/2+x,1/2-y,1/2+z
loop_
_atom_site_type_symbol
_atom_site_label
_atom_site_fract_x
_atom_site_fract_y
_atom_site_fract_z
Si Si1 0.023277 0.825465 0.021318
Si Si2 0.029921 0.938441 0.342994
Si Si3 0.654273 0.604600 0.770807
Si Si4 0.346348 0.339091 0.419710
Si Si5 0.750000 0.000000 0.694651
Si Si6 0.329596 0.388564 0.600434
Si Si7 0.032966 0.900221 0.844263
Si Si8 0.735070 0.221244 0.154781
O O1 0.094193 0.808577 0.032803
O O2 0.000000 0.750000 0.047445
O O3 0.996964 0.886642 0.083559
O O4 0.005967 0.849093 0.920417
O O5 0.102084 0.929639 0.330789
O O6 0.000000 0.917626 0.250000
O O7 0.016895 0.019164 0.369015
O O8 0.631290 0.630654 0.674938
O O9 0.706908 0.548736 0.745258
O O10 0.680219 0.666723 0.831632
O O11 0.329473 0.398919 0.492390
O O12 0.291556 0.283154 0.407943
O O13 0.791525 0.953612 0.632150
O O14 0.393923 0.389087 0.653763
O O15 0.295328 0.314171 0.614883
O O16 0.000000 0.880691 0.750000
O O17 0.756276 0.250000 0.250000
#
# Coordination Sequence:
#
# PCOD8281953 Si02
#       8
#    16  16  16  16   8  16  16  16
#     4  11  23  38  59  91 120 157 196 248 303 366
#     4  11  20  37  63  89 120 156 194 248 306 362
#     4  10  19  35  58  83 116 150 187 239 293 352
#     4  10  20  36  56  87 116 147 194 239 295 355
#     4  10  20  36  56  82 110 150 192 234 288 342
#     4  10  20  37  60  81 116 153 193 242 288 347
#     4  10  23  42  61  85 118 163 206 247 295 355
#     4   9  19  35  57  83 117 155 191 238 295 355
#
# _framework density 19.126659
#
# number of rings (size 3 to 8) (size 9 to 14) (size 15 to 20)
#    0.000    1.867    2.667    1.600    0.000    1.067 
#    4.800    0.000   11.733    0.000    0.000    0.000 
#    0.000    0.000    0.000    0.000    0.000    0.000 
#
# Total GULP energy -743425.236956 kJ/mol
# GULP energy per Si atom -12390.420616 kJ/mol
# Density = 1.908313 g / cm^3
# Si number density = 19.126659 Si / 1000 Ang^3
#
#
#
# Elastic Constant Matrix: (Units=GPa)
#
#
# Indices 1 2 3 4 5 6 
#
# 1 78.6539 19.8687 35.5909 0.0000 0.0000 0.0000
# 2 19.8687 69.4275 28.9680 0.0000 0.0000 0.0000
# 3 35.5909 28.9680 89.9334 0.0000 0.0000 0.0000
# 4 0.0000 0.0000 0.0000 13.7151 0.0000 0.0000
# 5 0.0000 0.0000 0.0000 0.0000 23.1525 0.0000
# 6 0.0000 0.0000 0.0000 0.0000 0.0000 24.6625
#
#
#
# Elastic Compliance Matrix: (Units=1/GPa)
#
#
# Indices 1 2 3 4 5 6 
#
# 1 0.015775 -0.002206 -0.005532 0.000000 0.000000 0.000000
# 2 -0.002206 0.016948 -0.004586 0.000000 0.000000 0.000000
# 3 -0.005532 -0.004586 0.014786 0.000000 0.000000 0.000000
# 4 0.000000 0.000000 0.000000 0.072912 0.000000 0.000000
# 5 0.000000 0.000000 0.000000 0.000000 0.043192 0.000000
# 6 0.000000 0.000000 0.000000 0.000000 0.000000 0.040547
#
#
# Mechanical properties :
#
#
# Convention : Reuss Voigt Hill
#
# Bulk Modulus (GPa) = 43.74436 45.20778 44.47607
# Shear Modulus (GPa) = 21.14800 22.54516 21.84658
#
# Velocity S-wave (km/s) = 3.32879 3.43699 3.38332
# Velocity P-wave (km/s) = 6.13962 6.27995 6.21018
#
# Compressibility (1/GPa) = 0.02286009
#
# Stress axis : x y z
#
# Youngs Moduli (GPa) = 63.39342 59.00274 67.63216
#
# Poissons Ratio (x) = 0.13017 0.37415
# Poissons Ratio (y) = 0.13985 0.31017
# Poissons Ratio (z) = 0.35070 0.27059
#
# Static dielectric constant tensor:
#      x y z
#    x 3.664550 0.000000 0.000000 
#    y 0.000000 3.534250 0.000000 
#    z 0.000000 0.000000 3.496060 
# 
# 
# High freq. dielectric constant tensor:
#      x y z
#    x 1.750470 0.000000 0.000000 
#    y 0.000000 1.743570 0.000000 
#    z 0.000000 0.000000 1.739740 
# 
# From -- ./inp_files/24816.got.cif
#   From: 2010.03.12/outbox.cif.g09.slc.cpg/sg68_13_cif.got.tgz:24816.got - 2010.04.10 23:14:56.
