data_PCOD8281825
_publ_section_title
;
Structure prediction by ZEFSAII (Michael W. Deem and Ramdas Pophale) SiO2 
 PCOD8281825
Probable space group: C C C A
;
_chemical_formula_sum "Si O2"
_cell_formula_units_Z 112
_cell_length_a 11.925799
_cell_length_b 33.525398
_cell_length_c 14.099983
_cell_angle_alpha 90.000000
_cell_angle_beta 90.000000
_cell_angle_gamma 90.000000
_cell_volume 5637.415130
_symmetry_space_group_name_H-M "C C C A"
_symmetry_group_IT_number 68
_space_group.IT_coordinate_system_code '2'
_symmetry_cell_setting 'orthorhombic'
loop_
_space_group_symop_operation_xyz
x,y,z
-x,1/2-y,z
x,1/2-y,1/2-z
-x,y,1/2-z
-x,-y,-z
x,1/2+y,-z
-x,1/2+y,1/2+z
x,-y,1/2+z
1/2+x,1/2+y,z
1/2-x,-y,z
1/2+x,-y,1/2-z
1/2-x,1/2+y,1/2-z
1/2-x,1/2-y,-z
1/2+x,y,-z
1/2-x,y,1/2+z
1/2+x,1/2-y,1/2+z
loop_
_atom_site_type_symbol
_atom_site_label
_atom_site_fract_x
_atom_site_fract_y
_atom_site_fract_z
Si Si1 0.245634 0.353963 0.136494
Si Si2 0.419126 0.037973 0.995650
Si Si3 0.249732 0.078343 0.615160
Si Si4 0.880149 0.425236 0.295804
Si Si5 0.571795 0.607853 0.972696
Si Si6 0.126285 0.203886 0.729845
Si Si7 0.367385 0.155708 0.053511
O O1 0.140300 0.379032 0.175785
O O2 0.345088 0.385747 0.116028
O O3 0.283436 0.319621 0.207318
O O4 0.212832 0.335070 0.035265
O O5 0.378355 0.046685 0.888521
O O6 0.304209 0.040098 0.058826
O O7 0.489574 0.071732 0.048336
O O8 0.500000 0.000000 0.000000
O O9 0.282753 0.062916 0.720324
O O10 0.363775 0.095127 0.567981
O O11 0.168939 0.117046 0.616069
O O12 0.000000 0.429871 0.250000
O O13 0.494790 0.647826 0.983753
O O14 0.145150 0.250000 0.750000
O O15 0.144363 0.194718 0.618954
O O16 0.000000 0.189773 0.750000
#
# Coordination Sequence:
#
# PCOD8281825 Si02
#       7
#    16  16  16  16  16  16  16
#     4  11  21  37  64  91 117 168 209 257 314 379
#     4  11  24  41  60  90 131 160 202 269 320 370
#     4  10  20  37  64  90 116 164 213 251 315 373
#     4  12  21  39  67  94 118 161 218 257 312 386
#     4  10  18  38  60  88 120 158 207 254 307 372
#     4  11  23  37  59  92 129 165 209 267 314 365
#     4  10  19  35  62  90 120 156 210 256 305 376
#
# _framework density 19.867260999999999
#
# number of rings (size 3 to 8) (size 9 to 14) (size 15 to 20)
#    0.000    1.286    8.571    0.000    0.000    1.143 
#    0.000    2.857    0.000    0.429    0.000    0.000 
#    0.000    0.000    0.000    0.000    0.000    0.000 
#
# Total GULP energy -693821.434307 kJ/mol
# GULP energy per Si atom -12389.668470 kJ/mol
# Density = 1.982204 g / cm^3
# Si number density = 19.867261 Si / 1000 Ang^3
#
#
#
# Elastic Constant Matrix: (Units=GPa)
#
#
# Indices 1 2 3 4 5 6 
#
# 1 77.8430 29.2085 56.5196 0.0000 0.0000 0.0000
# 2 29.2085 86.0431 58.4305 0.0000 0.0000 0.0000
# 3 56.5196 58.4305 143.7147 0.0000 0.0000 0.0000
# 4 0.0000 0.0000 0.0000 25.7042 0.0000 0.0000
# 5 0.0000 0.0000 0.0000 0.0000 34.8990 0.0000
# 6 0.0000 0.0000 0.0000 0.0000 0.0000 27.4867
#
#
#
# Elastic Compliance Matrix: (Units=1/GPa)
#
#
# Indices 1 2 3 4 5 6 
#
# 1 0.018184 -0.001819 -0.006412 0.000000 0.000000 0.000000
# 2 -0.001819 0.016237 -0.005886 0.000000 0.000000 0.000000
# 3 -0.006412 -0.005886 0.011873 0.000000 0.000000 0.000000
# 4 0.000000 0.000000 0.000000 0.038904 0.000000 0.000000
# 5 0.000000 0.000000 0.000000 0.000000 0.028654 0.000000
# 6 0.000000 0.000000 0.000000 0.000000 0.000000 0.036381
#
#
# Mechanical properties :
#
#
# Convention : Reuss Voigt Hill
#
# Bulk Modulus (GPa) = 55.36968 66.21313 60.79140
# Shear Modulus (GPa) = 27.10212 28.51414 27.80813
#
# Velocity S-wave (km/s) = 3.69746 3.79256 3.74531
# Velocity P-wave (km/s) = 6.79401 7.25108 7.02626
#
# Compressibility (1/GPa) = 0.01806043
#
# Stress axis : x y z
#
# Youngs Moduli (GPa) = 54.99221 61.58911 84.22386
#
# Poissons Ratio (x) = 0.11200 0.54005
# Poissons Ratio (y) = 0.10001 0.49576
# Poissons Ratio (z) = 0.35262 0.36252
#
# Static dielectric constant tensor:
#      x y z
#    x 4.120100 0.000000 0.000000 
#    y 0.000000 3.306020 0.000000 
#    z 0.000000 0.000000 3.731780 
# 
# 
# High freq. dielectric constant tensor:
#      x y z
#    x 1.791850 0.000000 0.000000 
#    y 0.000000 1.732830 0.000000 
#    z 0.000000 0.000000 1.778060 
# 
# From -- ./inp_files/21283.got.cif
#   From: 2010.03.12/outbox.cif.g09.slc.cpg/sg68_11_cif.got.tgz:21283.got - 2010.04.10 23:14:56.
