data_PCOD8281533
_publ_section_title
;
Structure prediction by ZEFSAII (Michael W. Deem and Ramdas Pophale) SiO2 
 PCOD8281533
Probable space group: C M M A
;
_chemical_formula_sum "Si O2"
_cell_formula_units_Z 48
_cell_length_a 13.629397
_cell_length_b 14.328383
_cell_length_c 10.700098
_cell_angle_alpha 90.000000
_cell_angle_beta 90.000000
_cell_angle_gamma 90.000000
_cell_volume 2089.592395
_symmetry_space_group_name_H-M "C M M A"
_symmetry_group_IT_number 67
_symmetry_cell_setting 'orthorhombic'
loop_
_space_group_symop_operation_xyz
x,y,z
-x,1/2-y,z
x,-y,-z
-x,1/2+y,-z
-x,-y,-z
x,1/2+y,-z
-x,y,z
x,1/2-y,z
1/2+x,1/2+y,z
1/2-x,-y,z
1/2+x,1/2-y,-z
1/2-x,y,-z
1/2-x,1/2-y,-z
1/2+x,y,-z
1/2-x,1/2+y,z
1/2+x,-y,z
loop_
_atom_site_type_symbol
_atom_site_label
_atom_site_fract_x
_atom_site_fract_y
_atom_site_fract_z
Si Si1 0.500000 0.528296 0.638313
Si Si2 0.807727 0.854123 0.377162
Si Si3 0.290116 0.104261 0.874596
Si Si4 0.500000 0.641073 0.184961
O O1 0.500000 0.500000 0.500000
O O2 0.400967 0.585486 0.667200
O O3 0.500000 0.426585 0.697339
O O4 0.843702 0.750000 0.411642
O O5 0.750000 0.895076 0.500000
O O6 0.736388 0.847312 0.257071
O O7 0.406014 0.113436 0.896587
O O8 0.250000 0.000000 0.869189
O O9 0.250000 0.154595 0.000000
O O10 0.500000 0.750000 0.225506
#
# Coordination Sequence:
#
# PCOD8281533 Si02
#       4
#     8  16  16   8
#     4  12  25  42  71  99 143 189 238 293 359 411
#     4  11  25  45  71 105 142 185 238 292 354 428
#     4  11  25  46  75 103 143 187 238 289 358 424
#     4  12  26  45  72 106 141 188 241 291 357 426
#
# _framework density 22.970987000000001
#
# number of rings (size 3 to 8) (size 9 to 14) (size 15 to 20)
#    0.000    0.667    3.333    3.500    0.000   10.667 
#    0.000    0.000    0.000    1.000    0.000    0.000 
#    0.000    0.000    0.000    0.000    0.000    0.000 
#
# Total GULP energy -297420.492725 kJ/mol
# GULP energy per Si atom -12392.520530 kJ/mol
# Density = 2.291870 g / cm^3
# Si number density = 22.970987 Si / 1000 Ang^3
#
#
#
# Elastic Constant Matrix: (Units=GPa)
#
#
# Indices 1 2 3 4 5 6 
#
# 1 196.5431 55.4423 63.8676 0.0000 0.0000 0.0000
# 2 55.4423 147.3945 11.9993 0.0000 0.0000 0.0000
# 3 63.8676 11.9993 178.5247 0.0000 0.0000 0.0000
# 4 0.0000 0.0000 0.0000 -51.3873 0.0000 0.0000
# 5 0.0000 0.0000 0.0000 0.0000 32.3042 0.0000
# 6 0.0000 0.0000 0.0000 0.0000 0.0000 15.8307
#
#
#
# Elastic Compliance Matrix: (Units=1/GPa)
#
#
# Indices 1 2 3 4 5 6 
#
# 1 0.006417 -0.002239 -0.002145 0.000000 0.000000 0.000000
# 2 -0.002239 0.007603 0.000290 0.000000 0.000000 0.000000
# 3 -0.002145 0.000290 0.006349 0.000000 0.000000 0.000000
# 4 0.000000 0.000000 0.000000 -0.019460 0.000000 0.000000
# 5 0.000000 0.000000 0.000000 0.000000 0.030956 0.000000
# 6 0.000000 0.000000 0.000000 0.000000 0.000000 0.063169
#
#
# Mechanical properties :
#
#
# Convention : Reuss Voigt Hill
#
# Bulk Modulus (GPa) = 82.09553 87.23119 84.66336
# Shear Modulus (GPa) = 46.60632 25.42640 36.01636
#
# Velocity S-wave (km/s) = 4.50924 3.33061 3.96398
# Velocity P-wave (km/s) = 7.93268 7.26963 7.60838
#
# Compressibility (1/GPa) = 0.01218093
#
# Stress axis : x y z
#
# Youngs Moduli (GPa) = 155.84646 131.52544 157.49583
#
# Poissons Ratio (x) = 0.29448 0.33784
# Poissons Ratio (y) = 0.34893 -0.04567
# Poissons Ratio (z) = 0.33430 -0.03814
#
# Static dielectric constant tensor:
#      x y z
#    x 4.552080 0.000000 0.000000 
#    y 0.000000 3.713480 0.000000 
#    z 0.000000 0.000000 4.505700 
# 
# 
# High freq. dielectric constant tensor:
#      x y z
#    x 1.917390 0.000000 0.000000 
#    y 0.000000 1.914960 0.000000 
#    z 0.000000 0.000000 1.910390 
# 
# From -- ./inp_files/17149.got.cif
#   From: 2010.03.12/outbox.cif.g09.slc.cpg/sg67_9_cif.got.tgz:17149.got - 2010.04.10 22:41:39.
