data_PCOD8281372
_publ_section_title
;
Structure prediction by ZEFSAII (Michael W. Deem and Ramdas Pophale) SiO2 
 PCOD8281372
Probable space group: C M M A
;
_chemical_formula_sum "Si O2"
_cell_formula_units_Z 112
_cell_length_a 14.682541
_cell_length_b 22.553155
_cell_length_c 16.604222
_cell_angle_alpha 90.000000
_cell_angle_beta 90.000000
_cell_angle_gamma 90.000000
_cell_volume 5498.282604
_symmetry_space_group_name_H-M "C M M A"
_symmetry_group_IT_number 67
_symmetry_cell_setting 'orthorhombic'
loop_
_space_group_symop_operation_xyz
x,y,z
-x,1/2-y,z
x,-y,-z
-x,1/2+y,-z
-x,-y,-z
x,1/2+y,-z
-x,y,z
x,1/2-y,z
1/2+x,1/2+y,z
1/2-x,-y,z
1/2+x,1/2-y,-z
1/2-x,y,-z
1/2-x,1/2-y,-z
1/2+x,y,-z
1/2-x,1/2+y,z
1/2+x,-y,z
loop_
_atom_site_type_symbol
_atom_site_label
_atom_site_fract_x
_atom_site_fract_y
_atom_site_fract_z
Si Si1 0.145558 0.682521 0.992455
Si Si2 0.750457 0.594339 0.594866
Si Si3 0.601610 0.132493 0.156004
Si Si4 0.746029 0.319845 0.733115
Si Si5 0.898447 0.387361 0.160386
Si Si6 0.102367 0.000318 0.595132
Si Si7 0.108095 0.508692 0.090031
O O1 0.136724 0.750000 0.963382
O O2 0.096130 0.641904 0.927529
O O3 0.250000 0.663211 0.000000
O O4 0.097335 0.674427 0.078008
O O5 0.750000 0.607507 0.500000
O O6 0.751483 0.656348 0.641777
O O7 0.840840 0.557798 0.621236
O O8 0.659612 0.558289 0.621236
O O9 0.500000 0.124556 0.190703
O O10 0.659592 0.164448 0.224383
O O11 0.645539 0.069115 0.130427
O O12 0.729856 0.250000 0.731051
O O13 0.664543 0.350440 0.780730
O O14 0.862084 0.454562 0.148068
O O15 0.000000 0.387994 0.197167
O O16 0.000000 0.000548 0.633605
O O17 0.094121 0.000000 0.500000
O O18 0.000000 0.512668 0.083220
O O19 0.149037 0.500000 0.000000
#
# Coordination Sequence:
#
# PCOD8281372 Si02
#       7
#    16  16  16  16  16  16  16
#     4  11  21  36  57  83 116 156 203 242 280 350
#     4   9  20  39  64  93 123 161 203 242 303 371
#     4  11  23  40  61  85 117 157 197 246 308 361
#     4  12  27  43  57  83 122 158 207 263 297 348
#     4  11  23  40  61  85 117 157 197 246 308 361
#     4   8  15  33  65 100 127 147 179 237 299 362
#     4   9  18  35  58  86 116 147 190 241 293 355
#
# _framework density 20.369997999999999
#
# number of rings (size 3 to 8) (size 9 to 14) (size 15 to 20)
#    0.000    1.857    2.857    2.143    0.000    7.143 
#    0.000    2.857    0.000    0.000    0.000    6.000 
#    0.000    0.000    0.000    0.000    0.000    0.000 
#
# Total GULP energy -694376.915127 kJ/mol
# GULP energy per Si atom -12399.587770 kJ/mol
# Density = 2.032363 g / cm^3
# Si number density = 20.369998 Si / 1000 Ang^3
#
#
#
# Elastic Constant Matrix: (Units=GPa)
#
#
# Indices 1 2 3 4 5 6 
#
# 1 114.8657 34.1889 24.0315 0.0000 0.0000 0.0000
# 2 34.1889 120.1484 39.8496 0.0000 0.0000 0.0000
# 3 24.0315 39.8496 78.7551 0.0000 0.0000 0.0000
# 4 0.0000 0.0000 0.0000 35.0799 0.0000 0.0000
# 5 0.0000 0.0000 0.0000 0.0000 -54.8248 0.0000
# 6 0.0000 0.0000 0.0000 0.0000 0.0000 20.2138
#
#
#
# Elastic Compliance Matrix: (Units=1/GPa)
#
#
# Indices 1 2 3 4 5 6 
#
# 1 0.009739 -0.002146 -0.001886 0.000000 0.000000 0.000000
# 2 -0.002146 0.010474 -0.004645 0.000000 0.000000 0.000000
# 3 -0.001886 -0.004645 0.015624 0.000000 0.000000 0.000000
# 4 0.000000 0.000000 0.000000 0.028506 0.000000 0.000000
# 5 0.000000 0.000000 0.000000 0.000000 -0.018240 0.000000
# 6 0.000000 0.000000 0.000000 0.000000 0.000000 0.049471
#
#
# Mechanical properties :
#
#
# Convention : Reuss Voigt Hill
#
# Bulk Modulus (GPa) = 54.10399 56.65659 55.38029
# Shear Modulus (GPa) = 41.98527 14.47374 28.22951
#
# Velocity S-wave (km/s) = 4.54490 2.66849 3.72672
# Velocity P-wave (km/s) = 7.35933 6.11298 6.76492
#
# Compressibility (1/GPa) = 0.01848293
#
# Stress axis : x y z
#
# Youngs Moduli (GPa) = 102.67911 95.47190 64.00597
#
# Poissons Ratio (x) = 0.20486 0.12072
# Poissons Ratio (y) = 0.22032 0.29732
# Poissons Ratio (z) = 0.19366 0.44348
#
# Static dielectric constant tensor:
#      x y z
#    x 3.957680 0.000000 0.000000 
#    y 0.000000 3.739210 0.000000 
#    z 0.000000 0.000000 3.393200 
# 
# 
# High freq. dielectric constant tensor:
#      x y z
#    x 1.802080 0.000000 0.000000 
#    y 0.000000 1.793330 0.000000 
#    z 0.000000 0.000000 1.770380 
# 
# From -- ./inp_files/27571.got.cif
#   From: 2010.03.12/outbox.cif.g09.slc.cpg/sg67_14_cif.got.tgz:27571.got - 2010.04.10 22:41:39.
