data_PCOD8281436
_publ_section_title
;
Structure prediction by ZEFSAII (Michael W. Deem and Ramdas Pophale) SiO2 
 PCOD8281436
Probable space group: C M M A
;
_chemical_formula_sum "Si O2"
_cell_formula_units_Z 88
_cell_length_a 21.796423
_cell_length_b 8.607314
_cell_length_c 24.087757
_cell_angle_alpha 90.000000
_cell_angle_beta 90.000000
_cell_angle_gamma 90.000000
_cell_volume 4519.071737
_symmetry_space_group_name_H-M "C M M A"
_symmetry_group_IT_number 67
_symmetry_cell_setting 'orthorhombic'
loop_
_space_group_symop_operation_xyz
x,y,z
-x,1/2-y,z
x,-y,-z
-x,1/2+y,-z
-x,-y,-z
x,1/2+y,-z
-x,y,z
x,1/2-y,z
1/2+x,1/2+y,z
1/2-x,-y,z
1/2+x,1/2-y,-z
1/2-x,y,-z
1/2-x,1/2-y,-z
1/2+x,y,-z
1/2-x,1/2+y,z
1/2+x,-y,z
loop_
_atom_site_type_symbol
_atom_site_label
_atom_site_fract_x
_atom_site_fract_y
_atom_site_fract_z
Si Si1 0.500000 0.929508 0.560791
Si Si2 0.071224 0.922768 0.253490
Si Si3 0.929830 0.565554 0.127961
Si Si4 0.316116 0.564839 0.554476
Si Si5 0.685571 0.065480 0.938597
Si Si6 0.602167 0.571262 0.363523
O O1 0.500000 0.750000 0.549703
O O2 0.500000 0.000000 0.500000
O O3 0.442239 0.970698 0.598276
O O4 0.099252 0.750000 0.258568
O O5 0.081354 0.987113 0.191447
O O6 0.000000 0.917389 0.267912
O O7 0.102805 0.034030 0.298112
O O8 0.923591 0.750000 0.121888
O O9 0.876391 0.483478 0.093204
O O10 0.000000 0.516973 0.109855
O O11 0.354319 0.500000 0.500000
O O12 0.321007 0.750000 0.559051
O O13 0.250000 0.500000 0.543555
O O14 0.332875 0.478672 0.611948
O O15 0.689861 0.250000 0.939513
O O16 0.750000 0.000000 0.912447
O O17 0.678665 0.000000 0.000000
O O18 0.585890 0.750000 0.371207
#
# Coordination Sequence:
#
# PCOD8281436 Si02
#       6
#     8  16  16  16  16  16
#     4  12  24  38  54  78 110 142 179 226 281 336
#     4   9  18  35  58  82 112 151 190 231 283 338
#     4   9  19  37  61  89 121 158 200 246 295 352
#     4  11  22  39  59  79 104 137 177 225 277 338
#     4  11  22  38  61  88 122 162 203 249 300 358
#     4  12  23  36  55  82 111 143 181 226 277 336
#
# _framework density 19.473026000000001
#
# number of rings (size 3 to 8) (size 9 to 14) (size 15 to 20)
#    0.000    1.455    0.909    8.455    0.000    1.455 
#    0.000    2.727    0.000    4.364    0.000    0.000 
#    0.000    0.000    0.000    0.000    0.000    0.000 
#
# Total GULP energy -545179.634545 kJ/mol
# GULP energy per Si atom -12390.446240 kJ/mol
# Density = 1.942870 g / cm^3
# Si number density = 19.473026 Si / 1000 Ang^3
#
#
#
# Elastic Constant Matrix: (Units=GPa)
#
#
# Indices 1 2 3 4 5 6 
#
# 1 104.8387 44.1967 62.2008 0.0000 0.0000 0.0000
# 2 44.1967 135.7019 51.8957 0.0000 0.0000 0.0000
# 3 62.2008 51.8957 112.0071 0.0000 0.0000 0.0000
# 4 0.0000 0.0000 0.0000 34.1196 0.0000 0.0000
# 5 0.0000 0.0000 0.0000 0.0000 4.3760 0.0000
# 6 0.0000 0.0000 0.0000 0.0000 0.0000 29.1023
#
#
#
# Elastic Compliance Matrix: (Units=1/GPa)
#
#
# Indices 1 2 3 4 5 6 
#
# 1 0.014667 -0.002020 -0.007209 0.000000 0.000000 0.000000
# 2 -0.002020 0.009234 -0.003157 0.000000 0.000000 0.000000
# 3 -0.007209 -0.003157 0.014394 0.000000 0.000000 0.000000
# 4 0.000000 0.000000 0.000000 0.029309 0.000000 0.000000
# 5 0.000000 0.000000 0.000000 0.000000 0.228522 0.000000
# 6 0.000000 0.000000 0.000000 0.000000 0.000000 0.034362
#
#
# Mechanical properties :
#
#
# Convention : Reuss Voigt Hill
#
# Bulk Modulus (GPa) = 73.94420 74.34823 74.14621
# Shear Modulus (GPa) = 13.89788 26.46986 20.18387
#
# Velocity S-wave (km/s) = 2.67441 3.69088 3.22297
# Velocity P-wave (km/s) = 6.89867 7.51175 7.21173
#
# Compressibility (1/GPa) = 0.01352371
#
# Stress axis : x y z
#
# Youngs Moduli (GPa) = 68.17898 108.29349 69.47304
#
# Poissons Ratio (x) = 0.21875 0.50085
# Poissons Ratio (y) = 0.13772 0.21930
# Poissons Ratio (z) = 0.49152 0.34185
#
# Static dielectric constant tensor:
#      x y z
#    x 4.050070 0.000000 0.000000 
#    y 0.000000 3.559160 0.000000 
#    z 0.000000 0.000000 3.720880 
# 
# 
# High freq. dielectric constant tensor:
#      x y z
#    x 1.751300 0.000000 0.000000 
#    y 0.000000 1.763640 0.000000 
#    z 0.000000 0.000000 1.760130 
# 
# From -- ./inp_files/39584.got.cif
#   From: 2010.03.12/outbox.cif.g09.slc.cpg/sg67_20_cif.got.tgz:39584.got - 2010.04.10 22:41:39.
