data_PCOD8281221
_publ_section_title
;
Structure prediction by ZEFSAII (Michael W. Deem and Ramdas Pophale) SiO2 
 PCOD8281221
Probable space group: C M M A
;
_chemical_formula_sum "Si O2"
_cell_formula_units_Z 112
_cell_length_a 14.554553
_cell_length_b 23.430196
_cell_length_c 15.733684
_cell_angle_alpha 90.000000
_cell_angle_beta 90.000000
_cell_angle_gamma 90.000000
_cell_volume 5365.438447
_symmetry_space_group_name_H-M "C M M A"
_symmetry_group_IT_number 67
_symmetry_cell_setting 'orthorhombic'
loop_
_space_group_symop_operation_xyz
x,y,z
-x,1/2-y,z
x,-y,-z
-x,1/2+y,-z
-x,-y,-z
x,1/2+y,-z
-x,y,z
x,1/2-y,z
1/2+x,1/2+y,z
1/2-x,-y,z
1/2+x,1/2-y,-z
1/2-x,y,-z
1/2-x,1/2-y,-z
1/2+x,y,-z
1/2-x,1/2+y,z
1/2+x,-y,z
loop_
_atom_site_type_symbol
_atom_site_label
_atom_site_fract_x
_atom_site_fract_y
_atom_site_fract_z
Si Si1 0.104087 0.514983 0.155523
Si Si2 0.598968 0.871797 0.364026
Si Si3 0.142134 0.501554 0.345210
Si Si4 0.847791 0.395968 0.538616
Si Si5 0.103272 0.814032 0.318346
Si Si6 0.734025 0.587356 0.098306
Si Si7 0.721922 0.314755 0.776696
O O1 0.094020 0.516486 0.256743
O O2 0.165966 0.569416 0.132568
O O3 0.155249 0.459403 0.116911
O O4 0.000000 0.518488 0.117697
O O5 0.500000 0.854684 0.325632
O O6 0.598205 0.860489 0.465664
O O7 0.674128 0.838843 0.308990
O O8 0.610314 0.939372 0.369248
O O9 0.250000 0.500000 0.328612
O O10 0.111525 0.545428 0.420259
O O11 0.750000 0.413071 0.500000
O O12 0.841654 0.351847 0.614904
O O13 0.097441 0.750000 0.354091
O O14 0.167565 0.815514 0.234936
O O15 0.000000 0.836983 0.298231
O O16 0.698881 0.645353 0.143212
O O17 0.750000 0.599209 0.000000
O O18 0.687386 0.250000 0.793651
#
# Coordination Sequence:
#
# PCOD8281221 Si02
#       7
#    16  16  16  16  16  16  16
#     4  11  22  40  68  97 132 172 207 254 322 391
#     4  12  25  40  59  89 128 173 220 263 307 375
#     4  12  21  37  60  89 130 167 208 259 312 372
#     4  12  23  36  60  91 127 170 214 264 319 370
#     4  10  22  41  64  89 119 161 217 270 315 371
#     4  11  24  42  65  99 133 161 209 267 321 401
#     4  11  24  45  69  92 125 171 216 270 332 383
#
# _framework density 20.874341999999999
#
# number of rings (size 3 to 8) (size 9 to 14) (size 15 to 20)
#    0.000    0.714    5.714    3.000    0.000    7.143 
#    0.000    0.000    0.000    0.000    0.000    4.000 
#    0.000    0.000    0.000    0.000    0.000    0.000 
#
# Total GULP energy -693871.982374 kJ/mol
# GULP energy per Si atom -12390.571114 kJ/mol
# Density = 2.082683 g / cm^3
# Si number density = 20.874342 Si / 1000 Ang^3
#
#
#
# Elastic Constant Matrix: (Units=GPa)
#
#
# Indices 1 2 3 4 5 6 
#
# 1 117.7954 17.2949 10.6355 0.0000 0.0000 0.0000
# 2 17.2949 112.7093 34.7768 0.0000 0.0000 0.0000
# 3 10.6355 34.7768 78.2123 0.0000 0.0000 0.0000
# 4 0.0000 0.0000 0.0000 11.3997 0.0000 0.0000
# 5 0.0000 0.0000 0.0000 0.0000 12.6699 0.0000
# 6 0.0000 0.0000 0.0000 0.0000 0.0000 23.0278
#
#
#
# Elastic Compliance Matrix: (Units=1/GPa)
#
#
# Indices 1 2 3 4 5 6 
#
# 1 0.008716 -0.001126 -0.000684 0.000000 0.000000 0.000000
# 2 -0.001126 0.010429 -0.004484 0.000000 0.000000 0.000000
# 3 -0.000684 -0.004484 0.014873 0.000000 0.000000 0.000000
# 4 0.000000 0.000000 0.000000 0.087722 0.000000 0.000000
# 5 0.000000 0.000000 0.000000 0.000000 0.078927 0.000000
# 6 0.000000 0.000000 0.000000 0.000000 0.000000 0.043426
#
#
# Mechanical properties :
#
#
# Convention : Reuss Voigt Hill
#
# Bulk Modulus (GPa) = 46.66727 48.23683 47.45205
# Shear Modulus (GPa) = 18.95196 25.82012 22.38604
#
# Velocity S-wave (km/s) = 3.01642 3.52082 3.27833
# Velocity P-wave (km/s) = 5.87678 6.29973 6.09192
#
# Compressibility (1/GPa) = 0.02142829
#
# Stress axis : x y z
#
# Youngs Moduli (GPa) = 114.72538 95.88886 67.23800
#
# Poissons Ratio (x) = 0.10800 0.04602
# Poissons Ratio (y) = 0.12922 0.30149
# Poissons Ratio (z) = 0.07853 0.42996
#
# Static dielectric constant tensor:
#      x y z
#    x 3.923050 0.000000 0.000000 
#    y 0.000000 3.760780 0.000000 
#    z 0.000000 0.000000 1.693330 
# 
# 
# High freq. dielectric constant tensor:
#      x y z
#    x 1.822990 0.000000 0.000000 
#    y 0.000000 1.809160 0.000000 
#    z 0.000000 0.000000 1.801620 
# 
# From -- ./inp_files/27474.got.cif
#   From: 2010.03.12/outbox.cif.g09.slc.cpg/sg67_14_cif.got.tgz:27474.got - 2010.04.10 22:41:39.
