data_PCOD8281222
_publ_section_title
;
Structure prediction by ZEFSAII (Michael W. Deem and Ramdas Pophale) SiO2 
 PCOD8281222
Probable space group: C M M A
;
_chemical_formula_sum "Si O2"
_cell_formula_units_Z 116
_cell_length_a 16.968604
_cell_length_b 26.651795
_cell_length_c 11.988365
_cell_angle_alpha 90.000000
_cell_angle_beta 90.000000
_cell_angle_gamma 90.000000
_cell_volume 5421.663207
_symmetry_space_group_name_H-M "C M M A"
_symmetry_group_IT_number 67
_symmetry_cell_setting 'orthorhombic'
loop_
_space_group_symop_operation_xyz
x,y,z
-x,1/2-y,z
x,-y,-z
-x,1/2+y,-z
-x,-y,-z
x,1/2+y,-z
-x,y,z
x,1/2-y,z
1/2+x,1/2+y,z
1/2-x,-y,z
1/2+x,1/2-y,-z
1/2-x,y,-z
1/2-x,1/2-y,-z
1/2+x,y,-z
1/2-x,1/2+y,z
1/2+x,-y,z
loop_
_atom_site_type_symbol
_atom_site_label
_atom_site_fract_x
_atom_site_fract_y
_atom_site_fract_z
Si Si1 0.091843 0.957163 0.922483
Si Si2 0.500000 0.250000 0.287420
Si Si3 0.333746 0.485490 0.698690
Si Si4 0.410053 0.586025 0.642412
Si Si5 0.592886 0.345826 0.957071
Si Si6 0.369969 0.173843 0.207696
Si Si7 0.171467 0.115125 0.434921
Si Si8 0.687752 0.694196 0.246966
O O1 0.105823 0.969493 0.793859
O O2 0.126299 0.902706 0.952846
O O3 0.000000 0.955683 0.946990
O O4 0.131531 0.000000 0.000000
O O5 0.432708 0.207687 0.271344
O O6 0.250000 0.500000 0.753116
O O7 0.366303 0.533028 0.631400
O O8 0.320799 0.440213 0.613976
O O9 0.500000 0.574690 0.664553
O O10 0.376071 0.616900 0.747060
O O11 0.398728 0.616336 0.526070
O O12 0.500000 0.342805 0.929281
O O13 0.641024 0.313968 0.867450
O O14 0.610321 0.322867 0.077301
O O15 0.280751 0.190773 0.227605
O O16 0.250000 0.130629 0.500000
O O17 0.154673 0.155643 0.339152
O O18 0.668089 0.750000 0.290636
#
# Coordination Sequence:
#
# PCOD8281222 Si02
#       8
#    16   4  16  16  16  16  16  16
#     4  10  22  41  64  97 141 187 226 276 341 418
#     4  12  24  44  78 102 136 188 242 294 356 400
#     4  12  23  41  70  99 135 182 228 280 350 413
#     4  12  26  44  72 104 139 181 235 293 349 422
#     4  11  24  43  70 100 146 183 228 291 351 425
#     4  12  24  46  71 104 139 183 236 293 350 418
#     4  12  25  47  68  98 139 182 231 291 351 415
#     4  12  27  46  73 103 136 188 237 292 360 425
#
# _framework density 21.39565
#
# number of rings (size 3 to 8) (size 9 to 14) (size 15 to 20)
#    0.000    0.414    6.207    2.069    0.966    4.690 
#    3.724    0.000    0.000    0.000    0.000    0.000 
#    0.000    0.000    0.000    0.000    0.000    0.000 
#
# Total GULP energy -718547.652258 kJ/mol
# GULP energy per Si atom -12388.752625 kJ/mol
# Density = 2.134695 g / cm^3
# Si number density = 21.395650 Si / 1000 Ang^3
#
#
#
# Elastic Constant Matrix: (Units=GPa)
#
#
# Indices 1 2 3 4 5 6 
#
# 1 62.9935 33.0367 16.1882 0.0000 0.0000 0.0000
# 2 33.0367 131.6157 23.5352 0.0000 0.0000 0.0000
# 3 16.1882 23.5352 80.9980 0.0000 0.0000 0.0000
# 4 0.0000 0.0000 0.0000 24.1722 0.0000 0.0000
# 5 0.0000 0.0000 0.0000 0.0000 32.3245 0.0000
# 6 0.0000 0.0000 0.0000 0.0000 0.0000 28.7269
#
#
#
# Elastic Compliance Matrix: (Units=1/GPa)
#
#
# Indices 1 2 3 4 5 6 
#
# 1 0.018753 -0.004258 -0.002511 0.000000 0.000000 0.000000
# 2 -0.004258 0.008981 -0.001759 0.000000 0.000000 0.000000
# 3 -0.002511 -0.001759 0.013359 0.000000 0.000000 0.000000
# 4 0.000000 0.000000 0.000000 0.041370 0.000000 0.000000
# 5 0.000000 0.000000 0.000000 0.000000 0.030936 0.000000
# 6 0.000000 0.000000 0.000000 0.000000 0.000000 0.034811
#
#
# Mechanical properties :
#
#
# Convention : Reuss Voigt Hill
#
# Bulk Modulus (GPa) = 41.60073 46.79194 44.19633
# Shear Modulus (GPa) = 28.85545 30.56785 29.71165
#
# Velocity S-wave (km/s) = 3.67639 3.78391 3.73054
# Velocity P-wave (km/s) = 6.12429 6.40374 6.26557
#
# Compressibility (1/GPa) = 0.02403804
#
# Stress axis : x y z
#
# Youngs Moduli (GPa) = 53.32458 111.34374 74.85731
#
# Poissons Ratio (x) = 0.47413 0.18794
# Poissons Ratio (y) = 0.22707 0.13164
# Poissons Ratio (z) = 0.13388 0.19581
#
# Static dielectric constant tensor:
#      x y z
#    x 4.292890 0.000000 0.000000 
#    y 0.000000 4.708050 0.000000 
#    z 0.000000 0.000000 3.811870 
# 
# 
# High freq. dielectric constant tensor:
#      x y z
#    x 1.845710 0.000000 0.000000 
#    y 0.000000 1.859560 0.000000 
#    z 0.000000 0.000000 1.827240 
# 
# From -- ./inp_files/19977.got.cif
#   From: 2010.03.12/outbox.cif.g09.slc.cpg/sg67_10_cif.got.tgz:19977.got - 2010.04.10 22:41:39.
