data_PCOD8281486
_publ_section_title
;
Structure prediction by ZEFSAII (Michael W. Deem and Ramdas Pophale) SiO2 
 PCOD8281486
Probable space group: C M M A
;
_chemical_formula_sum "Si O2"
_cell_formula_units_Z 80
_cell_length_a 9.868462
_cell_length_b 17.118080
_cell_length_c 24.050950
_cell_angle_alpha 90.000000
_cell_angle_beta 90.000000
_cell_angle_gamma 90.000000
_cell_volume 4062.905867
_symmetry_space_group_name_H-M "C M M A"
_symmetry_group_IT_number 67
_symmetry_cell_setting 'orthorhombic'
loop_
_space_group_symop_operation_xyz
x,y,z
-x,1/2-y,z
x,-y,-z
-x,1/2+y,-z
-x,-y,-z
x,1/2+y,-z
-x,y,z
x,1/2-y,z
1/2+x,1/2+y,z
1/2-x,-y,z
1/2+x,1/2-y,-z
1/2-x,y,-z
1/2-x,1/2-y,-z
1/2+x,y,-z
1/2-x,1/2+y,z
1/2+x,-y,z
loop_
_atom_site_type_symbol
_atom_site_label
_atom_site_fract_x
_atom_site_fract_y
_atom_site_fract_z
Si Si1 0.242386 0.339307 0.619408
Si Si2 0.348828 0.156755 0.046990
Si Si3 0.000000 0.574140 0.576972
Si Si4 0.000000 0.604405 0.447789
Si Si5 0.342942 0.072390 0.275891
Si Si6 0.839183 0.663503 0.169171
O O1 0.291468 0.250000 0.620999
O O2 0.368931 0.395148 0.608625
O O3 0.133660 0.349485 0.570327
O O4 0.172913 0.360743 0.677807
O O5 0.500000 0.124510 0.035600
O O6 0.350476 0.250000 0.044962
O O7 0.296367 0.130800 0.108286
O O8 0.250000 0.121462 0.000000
O O9 0.000000 0.601971 0.513815
O O10 0.000000 0.480666 0.580778
O O11 0.500000 0.046733 0.272243
O O12 0.287750 0.105658 0.217167
O O13 0.250000 0.000000 0.292674
O O14 0.776576 0.750000 0.178784
O O15 0.000000 0.670390 0.171620
#
# Coordination Sequence:
#
# PCOD8281486 Si02
#       6
#    16  16   8   8  16  16
#     4  12  25  40  63  91 119 153 195 243 290 339
#     4   8  13  23  43  72 105 139 176 222 277 333
#     4  11  25  43  63  91 123 159 186 239 288 343
#     4  11  23  43  67  89 121 157 200 225 282 353
#     4  11  23  39  61  83 111 149 194 240 289 352
#     4   8  15  30  53  79 107 142 187 234 278 335
#
# _framework density 19.690341
#
# number of rings (size 3 to 8) (size 9 to 14) (size 15 to 20)
#    0.000    2.000    1.000    4.800    1.400    4.800 
#    0.000    1.000    0.000    1.800    0.000    4.200 
#    0.000    0.000    0.000    0.000    0.000    0.000 
#
# Total GULP energy -496037.358801 kJ/mol
# GULP energy per Si atom -12400.933970 kJ/mol
# Density = 1.964552 g / cm^3
# Si number density = 19.690341 Si / 1000 Ang^3
#
#
#
# Elastic Constant Matrix: (Units=GPa)
#
#
# Indices 1 2 3 4 5 6 
#
# 1 86.2461 16.1677 30.4419 0.0000 0.0000 0.0000
# 2 16.1677 69.1301 27.3063 0.0000 0.0000 0.0000
# 3 30.4419 27.3063 108.4835 0.0000 0.0000 0.0000
# 4 0.0000 0.0000 0.0000 25.3529 0.0000 0.0000
# 5 0.0000 0.0000 0.0000 0.0000 32.6176 0.0000
# 6 0.0000 0.0000 0.0000 0.0000 0.0000 21.9585
#
#
#
# Elastic Compliance Matrix: (Units=1/GPa)
#
#
# Indices 1 2 3 4 5 6 
#
# 1 0.013065 -0.001785 -0.003217 0.000000 0.000000 0.000000
# 2 -0.001785 0.016306 -0.003604 0.000000 0.000000 0.000000
# 3 -0.003217 -0.003604 0.011028 0.000000 0.000000 0.000000
# 4 0.000000 0.000000 0.000000 0.039443 0.000000 0.000000
# 5 0.000000 0.000000 0.000000 0.000000 0.030658 0.000000
# 6 0.000000 0.000000 0.000000 0.000000 0.000000 0.045540
#
#
# Mechanical properties :
#
#
# Convention : Reuss Voigt Hill
#
# Bulk Modulus (GPa) = 43.12541 45.74351 44.43446
# Shear Modulus (GPa) = 27.62724 28.64873 28.13799
#
# Velocity S-wave (km/s) = 3.74984 3.81854 3.78435
# Velocity P-wave (km/s) = 6.37948 6.53632 6.45838
#
# Compressibility (1/GPa) = 0.02318819
#
# Stress axis : x y z
#
# Youngs Moduli (GPa) = 76.54181 61.32590 90.68033
#
# Poissons Ratio (x) = 0.10946 0.29171
# Poissons Ratio (y) = 0.13661 0.32678
# Poissons Ratio (z) = 0.24623 0.22099
#
# Static dielectric constant tensor:
#      x y z
#    x 2.947880 0.000000 0.000000 
#    y 0.000000 3.364310 0.000000 
#    z 0.000000 0.000000 3.930030 
# 
# 
# High freq. dielectric constant tensor:
#      x y z
#    x 1.749100 0.000000 0.000000 
#    y 0.000000 1.743620 0.000000 
#    z 0.000000 0.000000 1.783810 
# 
# From -- ./inp_files/43346.got.cif
#   From: 2010.03.12/outbox.cif.g09.slc.cpg/sg67_22_cif.got.tgz:43346.got - 2010.04.10 22:41:39.
