data_PCOD8281841
_publ_section_title
;
Structure prediction by ZEFSAII (Michael W. Deem and Ramdas Pophale) SiO2 
 PCOD8281841
Probable space group: C C C A
;
_chemical_formula_sum "Si O2"
_cell_formula_units_Z 128
_cell_length_a 11.762958
_cell_length_b 24.147866
_cell_length_c 25.037922
_cell_angle_alpha 90.000000
_cell_angle_beta 90.000000
_cell_angle_gamma 90.000000
_cell_volume 7112.030095
_symmetry_space_group_name_H-M "C C C A"
_symmetry_group_IT_number 68
_space_group.IT_coordinate_system_code '2'
_symmetry_cell_setting 'orthorhombic'
loop_
_space_group_symop_operation_xyz
x,y,z
-x,1/2-y,z
x,1/2-y,1/2-z
-x,y,1/2-z
-x,-y,-z
x,1/2+y,-z
-x,1/2+y,1/2+z
x,-y,1/2+z
1/2+x,1/2+y,z
1/2-x,-y,z
1/2+x,-y,1/2-z
1/2-x,1/2+y,1/2-z
1/2-x,1/2-y,-z
1/2+x,y,-z
1/2-x,y,1/2+z
1/2+x,1/2-y,1/2+z
loop_
_atom_site_type_symbol
_atom_site_label
_atom_site_fract_x
_atom_site_fract_y
_atom_site_fract_z
Si Si1 0.776625 0.437168 0.357022
Si Si2 0.956720 0.910533 0.190612
Si Si3 0.022662 0.563387 0.994101
Si Si4 0.336730 0.864132 0.543118
Si Si5 0.696485 0.865604 0.553431
Si Si6 0.009894 0.032447 0.186850
Si Si7 0.316573 0.443275 0.897261
Si Si8 0.488647 0.811088 0.886425
O O1 0.750000 0.500000 0.374614
O O2 0.680640 0.415582 0.314686
O O3 0.784611 0.396359 0.407603
O O4 0.901174 0.433106 0.332122
O O5 0.004664 0.859004 0.157133
O O6 0.000000 0.899753 0.250000
O O7 0.008924 0.968019 0.168229
O O8 0.107175 0.585766 0.039543
O O9 0.904179 0.594387 0.003718
O O10 0.076595 0.569692 0.935592
O O11 0.000000 0.500000 0.000000
O O12 0.247953 0.838536 0.500408
O O13 0.274531 0.894628 0.592805
O O14 0.414558 0.816607 0.568087
O O15 0.633660 0.816339 0.585095
O O16 0.128005 0.057053 0.162497
O O17 0.000000 0.035803 0.250000
O O18 0.250000 0.500000 0.909969
O O19 0.500000 0.750000 0.860544
#
# Coordination Sequence:
#
# PCOD8281841 Si02
#       8
#    16  16  16  16  16  16  16  16
#     4   9  18  30  49  72 104 139 165 196 241 303
#     4   9  19  35  53  74  99 126 169 214 253 300
#     4  10  19  28  46  74 106 134 165 197 243 297
#     4  10  20  33  48  75 105 132 169 206 245 302
#     4   9  20  31  48  74  99 135 166 196 245 297
#     4  10  21  33  48  73 106 142 168 195 248 310
#     4  11  20  29  48  72 104 141 170 204 244 303
#     4  10  21  37  53  71  96 127 170 220 258 290
#
# _framework density 17.997674
#
# number of rings (size 3 to 8) (size 9 to 14) (size 15 to 20)
#    0.000    2.250    1.250    1.500    7.000    4.250 
#    0.000    0.000    0.000    0.000    0.000    0.000 
#    0.000    4.000    0.000    0.000    0.000    0.000 
#
# Total GULP energy -793034.480469 kJ/mol
# GULP energy per Si atom -12391.163757 kJ/mol
# Density = 1.795671 g / cm^3
# Si number density = 17.997674 Si / 1000 Ang^3
#
#
#
# Elastic Constant Matrix: (Units=GPa)
#
#
# Indices 1 2 3 4 5 6 
#
# 1 75.1609 24.7428 36.6610 0.0000 0.0000 0.0000
# 2 24.7428 66.5499 33.7206 0.0000 0.0000 0.0000
# 3 36.6610 33.7206 87.2586 0.0000 0.0000 0.0000
# 4 0.0000 0.0000 0.0000 15.8593 0.0000 0.0000
# 5 0.0000 0.0000 0.0000 0.0000 32.7296 0.0000
# 6 0.0000 0.0000 0.0000 0.0000 0.0000 12.1933
#
#
#
# Elastic Compliance Matrix: (Units=1/GPa)
#
#
# Indices 1 2 3 4 5 6 
#
# 1 0.017341 -0.003427 -0.005961 0.000000 0.000000 0.000000
# 2 -0.003427 0.019362 -0.006043 0.000000 0.000000 0.000000
# 3 -0.005961 -0.006043 0.016300 0.000000 0.000000 0.000000
# 4 0.000000 0.000000 0.000000 0.063055 0.000000 0.000000
# 5 0.000000 0.000000 0.000000 0.000000 0.030553 0.000000
# 6 0.000000 0.000000 0.000000 0.000000 0.000000 0.082012
#
#
# Mechanical properties :
#
#
# Convention : Reuss Voigt Hill
#
# Bulk Modulus (GPa) = 45.16417 46.57978 45.87197
# Shear Modulus (GPa) = 18.73608 21.07943 19.90776
#
# Velocity S-wave (km/s) = 3.23000 3.42604 3.32946
# Velocity P-wave (km/s) = 6.24975 6.44884 6.35008
#
# Compressibility (1/GPa) = 0.02214145
#
# Stress axis : x y z
#
# Youngs Moduli (GPa) = 57.66839 51.64724 61.34978
#
# Poissons Ratio (x) = 0.17697 0.36573
# Poissons Ratio (y) = 0.19760 0.37072
# Poissons Ratio (z) = 0.34378 0.31209
#
# Static dielectric constant tensor:
#      x y z
#    x 3.354710 0.000000 0.000000 
#    y 0.000000 2.931320 0.000000 
#    z 0.000000 0.000000 3.572150 
# 
# 
# High freq. dielectric constant tensor:
#      x y z
#    x 1.708100 0.000000 0.000000 
#    y 0.000000 1.650550 0.000000 
#    z 0.000000 0.000000 1.693170 
# 
# From -- ./inp_files/47368.got.cif
#   From: 2010.03.12/outbox.cif.g09.slc.cpg/sg68_24_cif.got.tgz:47368.got - 2010.04.10 23:14:56.
