data_PCOD8281490
_publ_section_title
;
Structure prediction by ZEFSAII (Michael W. Deem and Ramdas Pophale) SiO2 
 PCOD8281490
Probable space group: C M M A
;
_chemical_formula_sum "Si O2"
_cell_formula_units_Z 80
_cell_length_a 9.648651
_cell_length_b 27.595494
_cell_length_c 15.760275
_cell_angle_alpha 90.000000
_cell_angle_beta 90.000000
_cell_angle_gamma 90.000000
_cell_volume 4196.319644
_symmetry_space_group_name_H-M "C M M A"
_symmetry_group_IT_number 67
_symmetry_cell_setting 'orthorhombic'
loop_
_space_group_symop_operation_xyz
x,y,z
-x,1/2-y,z
x,-y,-z
-x,1/2+y,-z
-x,-y,-z
x,1/2+y,-z
-x,y,z
x,1/2-y,z
1/2+x,1/2+y,z
1/2-x,-y,z
1/2+x,1/2-y,-z
1/2-x,y,-z
1/2-x,1/2-y,-z
1/2+x,y,-z
1/2-x,1/2+y,z
1/2+x,-y,z
loop_
_atom_site_type_symbol
_atom_site_label
_atom_site_fract_x
_atom_site_fract_y
_atom_site_fract_z
Si Si1 0.838650 0.195479 0.671754
Si Si2 0.500000 0.453577 0.297974
Si Si3 0.000000 0.586394 0.483381
Si Si4 0.740903 0.103282 0.757819
Si Si5 0.834378 0.047956 0.083057
Si Si6 0.250000 0.342442 0.500000
Si Si7 0.000000 0.939817 0.661871
O O1 0.819673 0.250000 0.706302
O O2 0.785051 0.159312 0.745645
O O3 0.750372 0.190658 0.584679
O O4 0.000000 0.183821 0.652634
O O5 0.500000 0.443668 0.397661
O O6 0.368760 0.432357 0.251580
O O7 0.500000 0.511221 0.282904
O O8 0.125322 0.621858 0.490936
O O9 0.000000 0.548467 0.561673
O O10 0.674636 0.091971 0.849393
O O11 0.634045 0.091853 0.683004
O O12 0.000000 0.037619 0.065984
O O13 0.750000 0.000000 0.114669
O O14 0.750000 0.065766 0.000000
#
# Coordination Sequence:
#
# PCOD8281490 Si02
#       7
#    16   8   8  16  16   8   8
#     4  11  23  40  62  85 114 158 209 261 318 368
#     4  12  23  38  55  84 119 179 205 248 294 364
#     4  12  21  36  57  78 124 164 207 252 299 358
#     4  12  23  40  60  88 123 157 211 254 301 360
#     4  11  24  40  65  98 131 165 201 243 300 367
#     4  12  19  38  55  82 114 156 201 266 315 352
#     4  12  23  36  57  84 125 163 209 252 302 354
#
# _framework density 19.064325
#
# number of rings (size 3 to 8) (size 9 to 14) (size 15 to 20)
#    0.000    0.400    7.000    3.600    2.800    0.000 
#    0.000    4.500    0.000    0.600    0.000    0.000 
#    0.000    0.000    0.000    0.000    0.000    0.000 
#
# Total GULP energy -495795.363319 kJ/mol
# GULP energy per Si atom -12394.884083 kJ/mol
# Density = 1.902093 g / cm^3
# Si number density = 19.064325 Si / 1000 Ang^3
#
#
#
# Elastic Constant Matrix: (Units=GPa)
#
#
# Indices 1 2 3 4 5 6 
#
# 1 98.4116 24.9767 0.8826 0.0000 0.0000 0.0000
# 2 24.9767 114.5593 24.9470 0.0000 0.0000 0.0000
# 3 0.8826 24.9470 85.2007 0.0000 0.0000 0.0000
# 4 0.0000 0.0000 0.0000 24.4141 0.0000 0.0000
# 5 0.0000 0.0000 0.0000 0.0000 29.7152 0.0000
# 6 0.0000 0.0000 0.0000 0.0000 0.0000 28.1276
#
#
#
# Elastic Compliance Matrix: (Units=1/GPa)
#
#
# Indices 1 2 3 4 5 6 
#
# 1 0.010787 -0.002486 0.000616 0.000000 0.000000 0.000000
# 2 -0.002486 0.009897 -0.002872 0.000000 0.000000 0.000000
# 3 0.000616 -0.002872 0.012572 0.000000 0.000000 0.000000
# 4 0.000000 0.000000 0.000000 0.040960 0.000000 0.000000
# 5 0.000000 0.000000 0.000000 0.000000 0.033653 0.000000
# 6 0.000000 0.000000 0.000000 0.000000 0.000000 0.035552
#
#
# Mechanical properties :
#
#
# Convention : Reuss Voigt Hill
#
# Bulk Modulus (GPa) = 42.06754 44.42045 43.24399
# Shear Modulus (GPa) = 31.08925 32.94239 32.01582
#
# Velocity S-wave (km/s) = 4.04264 4.16138 4.10244
# Velocity P-wave (km/s) = 6.62606 6.81472 6.72105
#
# Compressibility (1/GPa) = 0.02377130
#
# Stress axis : x y z
#
# Youngs Moduli (GPa) = 92.70579 101.04561 79.54482
#
# Poissons Ratio (x) = 0.25120 -0.04901
# Poissons Ratio (y) = 0.23046 0.22845
# Poissons Ratio (z) = -0.05712 0.29020
#
# Static dielectric constant tensor:
#      x y z
#    x 3.449080 0.000000 0.000000 
#    y 0.000000 3.362660 0.000000 
#    z 0.000000 0.000000 3.508000 
# 
# 
# High freq. dielectric constant tensor:
#      x y z
#    x 1.761470 0.000000 0.000000 
#    y 0.000000 1.723440 0.000000 
#    z 0.000000 0.000000 1.727050 
# 
# From -- ./inp_files/32354.got.cif
#   From: 2010.03.12/outbox.cif.g09.slc.cpg/sg67_17_cif.got.tgz:32354.got - 2010.04.10 22:41:39.
