data_PCOD8281021
_publ_section_title
;
Structure prediction by ZEFSAII (Michael W. Deem and Ramdas Pophale) SiO2 
 PCOD8281021
Probable space group: C M M A
;
_chemical_formula_sum "Si O2"
_cell_formula_units_Z 52
_cell_length_a 13.241067
_cell_length_b 14.936473
_cell_length_c 12.006909
_cell_angle_alpha 90.000000
_cell_angle_beta 90.000000
_cell_angle_gamma 90.000000
_cell_volume 2374.664503
_symmetry_space_group_name_H-M "C M M A"
_symmetry_group_IT_number 67
_symmetry_cell_setting 'orthorhombic'
loop_
_space_group_symop_operation_xyz
x,y,z
-x,1/2-y,z
x,-y,-z
-x,1/2+y,-z
-x,-y,-z
x,1/2+y,-z
-x,y,z
x,1/2-y,z
1/2+x,1/2+y,z
1/2-x,-y,z
1/2+x,1/2-y,-z
1/2-x,y,-z
1/2-x,1/2-y,-z
1/2+x,y,-z
1/2-x,1/2+y,z
1/2+x,-y,z
loop_
_atom_site_type_symbol
_atom_site_label
_atom_site_fract_x
_atom_site_fract_y
_atom_site_fract_z
Si Si1 0.620579 0.250000 0.948081
Si Si2 0.119329 0.431348 0.691518
Si Si3 0.750000 0.000000 0.500000
Si Si4 0.619201 0.250000 0.194982
Si Si5 0.119308 0.555063 0.893118
O O1 0.500000 0.250000 0.955234
O O2 0.657338 0.158392 0.888179
O O3 0.668832 0.250000 0.072178
O O4 0.177337 0.439650 0.575468
O O5 0.154662 0.336913 0.739640
O O6 0.153894 0.508040 0.778737
O O7 0.000000 0.435343 0.668826
O O8 0.500000 0.250000 0.178873
O O9 0.000000 0.552397 0.902762
O O10 0.162805 0.500000 0.000000
#
# Coordination Sequence:
#
# PCOD8281021 Si02
#       5
#     8  16   4   8  16
#     4   9  14  24  51  92 124 150 182 227 297 369
#     4  10  21  39  62  88 118 156 199 246 295 347
#     4  12  26  42  58  78 116 166 210 252 284 338
#     4   9  16  31  61  93 117 149 193 237 297 364
#     4   9  15  27  53  87 119 148 185 234 292 355
#
# _framework density 21.897829999999999
#
# number of rings (size 3 to 8) (size 9 to 14) (size 15 to 20)
#    0.000    2.462    3.077    0.462    0.000    0.615 
#    0.000    3.846    0.000    7.385    0.000    0.000 
#    0.000    0.000    0.000    0.000    0.000    0.000 
#
# Total GULP energy -322344.982717 kJ/mol
# GULP energy per Si atom -12397.883951 kJ/mol
# Density = 2.184799 g / cm^3
# Si number density = 21.897830 Si / 1000 Ang^3
#
#
#
# Elastic Constant Matrix: (Units=GPa)
#
#
# Indices 1 2 3 4 5 6 
#
# 1 63.2263 35.1733 42.1055 0.0000 0.0000 0.0000
# 2 35.1733 233.2414 93.8655 0.0000 0.0000 0.0000
# 3 42.1055 93.8655 169.3326 0.0000 0.0000 0.0000
# 4 0.0000 0.0000 0.0000 20.8647 0.0000 0.0000
# 5 0.0000 0.0000 0.0000 0.0000 -3.0713 0.0000
# 6 0.0000 0.0000 0.0000 0.0000 0.0000 0.3667
#
#
#
# Elastic Compliance Matrix: (Units=1/GPa)
#
#
# Indices 1 2 3 4 5 6 
#
# 1 0.019237 -0.001256 -0.004087 0.000000 0.000000 0.000000
# 2 -0.001256 0.005601 -0.002792 0.000000 0.000000 0.000000
# 3 -0.004087 -0.002792 0.008470 0.000000 0.000000 0.000000
# 4 0.000000 0.000000 0.000000 0.047928 0.000000 0.000000
# 5 0.000000 0.000000 0.000000 0.000000 -0.325598 0.000000
# 6 0.000000 0.000000 0.000000 0.000000 0.000000 2.726883
#
#
# Mechanical properties :
#
#
# Convention : Reuss Voigt Hill
#
# Bulk Modulus (GPa) = 58.69863 89.78767 74.24315
# Shear Modulus (GPa) = 1.99643 23.27577 12.63610
#
# Velocity S-wave (km/s) = 0.95587 3.26379 2.40479
# Velocity P-wave (km/s) = 5.29926 7.43607 6.45667
#
# Compressibility (1/GPa) = 0.01703617
#
# Stress axis : x y z
#
# Youngs Moduli (GPa) = 51.98380 178.55523 118.07001
#
# Poissons Ratio (x) = 0.22430 0.48255
# Poissons Ratio (y) = 0.06530 0.32967
# Poissons Ratio (z) = 0.21246 0.49855
#
# Static dielectric constant tensor:
#      x y z
#    x 3.842890 0.000000 0.000000 
#    y 0.000000 13.759520 0.000000 
#    z 0.000000 0.000000 3.773180 
# 
# 
# High freq. dielectric constant tensor:
#      x y z
#    x 1.883950 0.000000 0.000000 
#    y 0.000000 1.866650 0.000000 
#    z 0.000000 0.000000 1.832380 
# 
# From -- ./inp_files/17243.got.cif
#   From: 2010.03.12/outbox.cif.g09.slc.cpg/sg67_9_cif.got.tgz:17243.got - 2010.04.10 22:41:39.
