data_PCOD8281793
_publ_section_title
;
Structure prediction by ZEFSAII (Michael W. Deem and Ramdas Pophale) SiO2 
 PCOD8281793
Probable space group: C C C A
;
_chemical_formula_sum "Si O2"
_cell_formula_units_Z 80
_cell_length_a 11.669433
_cell_length_b 18.211937
_cell_length_c 19.001619
_cell_angle_alpha 90.000000
_cell_angle_beta 90.000000
_cell_angle_gamma 90.000000
_cell_volume 4038.280669
_symmetry_space_group_name_H-M "C C C A"
_symmetry_group_IT_number 68
_space_group.IT_coordinate_system_code '2'
_symmetry_cell_setting 'orthorhombic'
loop_
_space_group_symop_operation_xyz
x,y,z
-x,1/2-y,z
x,1/2-y,1/2-z
-x,y,1/2-z
-x,-y,-z
x,1/2+y,-z
-x,1/2+y,1/2+z
x,-y,1/2+z
1/2+x,1/2+y,z
1/2-x,-y,z
1/2+x,-y,1/2-z
1/2-x,1/2+y,1/2-z
1/2-x,1/2-y,-z
1/2+x,y,-z
1/2-x,y,1/2+z
1/2+x,1/2-y,1/2+z
loop_
_atom_site_type_symbol
_atom_site_label
_atom_site_fract_x
_atom_site_fract_y
_atom_site_fract_z
Si Si1 0.000000 0.750000 0.370437
Si Si2 0.132170 0.833950 0.860478
Si Si3 0.628749 0.659797 0.118212
Si Si4 0.500000 0.143893 0.250000
Si Si5 0.691565 0.180490 0.031996
Si Si6 0.741570 0.413869 0.239302
O O1 0.048520 0.689000 0.317135
O O2 0.092166 0.790325 0.417830
O O3 0.145598 0.745605 0.862747
O O4 0.214138 0.865561 0.923199
O O5 0.173823 0.866210 0.787164
O O6 0.002610 0.861649 0.867199
O O7 0.721037 0.611132 0.160903
O O8 0.644961 0.637101 0.035946
O O9 0.387992 0.097214 0.266688
O O10 0.750000 0.250000 0.000000
O O11 0.750000 0.500000 0.247348
#
# Coordination Sequence:
#
# PCOD8281793 Si02
#       6
#     8  16  16   8  16  16
#     4  11  20  36  64  96 125 146 206 262 315 374
#     4  10  20  40  64  93 120 158 207 259 308 364
#     4  10  22  38  67  94 122 160 206 260 310 367
#     4  11  24  38  62  92 121 164 204 262 313 362
#     4  10  18  34  61  97 125 152 192 257 321 367
#     4  12  26  41  60  86 128 170 211 254 307 369
#
# _framework density 19.810410999999998
#
# number of rings (size 3 to 8) (size 9 to 14) (size 15 to 20)
#    0.000    1.400    2.000    6.000    5.600    1.600 
#    0.000    1.000    0.000    3.600    0.000    0.000 
#    0.000    0.000    0.000    0.000    0.000    0.000 
#
# Total GULP energy -495538.305087 kJ/mol
# GULP energy per Si atom -12388.457627 kJ/mol
# Density = 1.976532 g / cm^3
# Si number density = 19.810411 Si / 1000 Ang^3
#
#
#
# Elastic Constant Matrix: (Units=GPa)
#
#
# Indices 1 2 3 4 5 6 
#
# 1 136.5876 25.6306 51.0995 0.0000 0.0000 0.0000
# 2 25.6306 61.7030 28.9000 0.0000 0.0000 0.0000
# 3 51.0995 28.9000 141.0568 0.0000 0.0000 0.0000
# 4 0.0000 0.0000 0.0000 -27.8827 0.0000 0.0000
# 5 0.0000 0.0000 0.0000 0.0000 8.1955 0.0000
# 6 0.0000 0.0000 0.0000 0.0000 0.0000 9.7031
#
#
#
# Elastic Compliance Matrix: (Units=1/GPa)
#
#
# Indices 1 2 3 4 5 6 
#
# 1 0.008775 -0.002385 -0.002690 0.000000 0.000000 0.000000
# 2 -0.002385 0.018575 -0.002942 0.000000 0.000000 0.000000
# 3 -0.002690 -0.002942 0.008667 0.000000 0.000000 0.000000
# 4 0.000000 0.000000 0.000000 -0.035864 0.000000 0.000000
# 5 0.000000 0.000000 0.000000 0.000000 0.122019 0.000000
# 6 0.000000 0.000000 0.000000 0.000000 0.000000 0.103060
#
#
# Mechanical properties :
#
#
# Convention : Reuss Voigt Hill
#
# Bulk Modulus (GPa) = 50.04257 61.17865 55.61061
# Shear Modulus (GPa) = 20.16730 13.58433 16.87581
#
# Velocity S-wave (km/s) = 3.19410 2.62146 2.92184
# Velocity P-wave (km/s) = 6.23848 6.33339 6.28611
#
# Compressibility (1/GPa) = 0.01998299
#
# Stress axis : x y z
#
# Youngs Moduli (GPa) = 113.95544 53.83521 115.38499
#
# Poissons Ratio (x) = 0.12840 0.31042
# Poissons Ratio (y) = 0.27180 0.33943
# Poissons Ratio (z) = 0.30658 0.15837
#
# Static dielectric constant tensor:
#      x y z
#    x 3.367490 0.000000 0.000000 
#    y 0.000000 3.131660 0.000000 
#    z 0.000000 0.000000 4.762310 
# 
# 
# High freq. dielectric constant tensor:
#      x y z
#    x 1.794000 0.000000 0.000000 
#    y 0.000000 1.715980 0.000000 
#    z 0.000000 0.000000 1.792740 
# 
# From -- ./inp_files/29575.got.cif
#   From: 2010.03.12/outbox.cif.g09.slc.cpg/sg68_15_cif.got.tgz:29575.got - 2010.04.10 23:14:56.
