data_PCOD8281260
_publ_section_title
;
Structure prediction by ZEFSAII (Michael W. Deem and Ramdas Pophale) SiO2 
 PCOD8281260
Probable space group: C M M A
;
_chemical_formula_sum "Si O2"
_cell_formula_units_Z 96
_cell_length_a 19.406380
_cell_length_b 28.160187
_cell_length_c 9.403359
_cell_angle_alpha 90.000000
_cell_angle_beta 90.000000
_cell_angle_gamma 90.000000
_cell_volume 5138.816175
_symmetry_space_group_name_H-M "C M M A"
_symmetry_group_IT_number 67
_symmetry_cell_setting 'orthorhombic'
loop_
_space_group_symop_operation_xyz
x,y,z
-x,1/2-y,z
x,-y,-z
-x,1/2+y,-z
-x,-y,-z
x,1/2+y,-z
-x,y,z
x,1/2-y,z
1/2+x,1/2+y,z
1/2-x,-y,z
1/2+x,1/2-y,-z
1/2-x,y,-z
1/2-x,1/2-y,-z
1/2+x,y,-z
1/2-x,1/2+y,z
1/2+x,-y,z
loop_
_atom_site_type_symbol
_atom_site_label
_atom_site_fract_x
_atom_site_fract_y
_atom_site_fract_z
Si Si1 0.683979 0.474946 0.648354
Si Si2 0.821128 0.871012 0.557257
Si Si3 0.919217 0.117317 0.710983
Si Si4 0.189390 0.804593 0.802732
Si Si5 0.419660 0.517011 0.845036
Si Si6 0.655418 0.304812 0.120478
O O1 0.669266 0.500000 0.500000
O O2 0.750000 0.500000 0.722922
O O3 0.700600 0.420049 0.630204
O O4 0.616003 0.479857 0.740977
O O5 0.750000 0.848115 0.500000
O O6 0.878882 0.879700 0.438159
O O7 0.847905 0.835586 0.680533
O O8 0.897754 0.070758 0.802795
O O9 0.902143 0.163205 0.805000
O O10 0.000000 0.116582 0.675323
O O11 0.182060 0.750000 0.758550
O O12 0.269648 0.818531 0.818806
O O13 0.151485 0.814113 0.951905
O O14 0.500000 0.509847 0.825760
O O15 0.395409 0.500000 0.000000
O O16 0.639008 0.250000 0.154189
#
# Coordination Sequence:
#
# PCOD8281260 Si02
#       6
#    16  16  16  16  16  16
#     4  11  21  37  55  84 119 149 184 235 286 334
#     4  12  21  36  59  87 118 153 192 236 287 343
#     4  11  23  38  57  86 120 155 195 239 292 346
#     4   9  20  37  61  88 112 147 195 240 288 349
#     4  10  23  41  58  80 113 153 195 233 278 346
#     4   9  19  38  60  85 115 148 192 241 291 347
#
# _framework density 18.681345
#
# number of rings (size 3 to 8) (size 9 to 14) (size 15 to 20)
#    0.000    1.667    5.000    1.000    2.333    2.667 
#    0.000    0.833    0.000    1.000    0.000    0.000 
#    0.000    0.000    0.000    0.000    0.000    0.000 
#
# Total GULP energy -595170.081676 kJ/mol
# GULP energy per Si atom -12399.376702 kJ/mol
# Density = 1.863883 g / cm^3
# Si number density = 18.681345 Si / 1000 Ang^3
#
#
#
# Elastic Constant Matrix: (Units=GPa)
#
#
# Indices 1 2 3 4 5 6 
#
# 1 58.6947 31.6096 42.6049 0.0000 0.0000 0.0000
# 2 31.6096 98.9505 67.4310 0.0000 0.0000 0.0000
# 3 42.6049 67.4310 107.0428 0.0000 0.0000 0.0000
# 4 0.0000 0.0000 0.0000 38.3812 0.0000 0.0000
# 5 0.0000 0.0000 0.0000 0.0000 34.7142 0.0000
# 6 0.0000 0.0000 0.0000 0.0000 0.0000 16.2905
#
#
#
# Elastic Compliance Matrix: (Units=1/GPa)
#
#
# Indices 1 2 3 4 5 6 
#
# 1 0.024193 -0.002044 -0.008342 0.000000 0.000000 0.000000
# 2 -0.002044 0.017880 -0.010450 0.000000 0.000000 0.000000
# 3 -0.008342 -0.010450 0.019245 0.000000 0.000000 0.000000
# 4 0.000000 0.000000 0.000000 0.026054 0.000000 0.000000
# 5 0.000000 0.000000 0.000000 0.000000 0.028807 0.000000
# 6 0.000000 0.000000 0.000000 0.000000 0.000000 0.061385
#
#
# Mechanical properties :
#
#
# Convention : Reuss Voigt Hill
#
# Bulk Modulus (GPa) = 50.89797 60.88657 55.89227
# Shear Modulus (GPa) = 22.14492 26.08002 24.11247
#
# Velocity S-wave (km/s) = 3.44670 3.74042 3.59656
# Velocity P-wave (km/s) = 6.56842 7.16361 6.87246
#
# Compressibility (1/GPa) = 0.01964715
#
# Stress axis : x y z
#
# Youngs Moduli (GPa) = 41.33419 55.92743 51.96105
#
# Poissons Ratio (x) = 0.11431 0.43345
# Poissons Ratio (y) = 0.08448 0.54300
# Poissons Ratio (z) = 0.34480 0.58445
#
# Static dielectric constant tensor:
#      x y z
#    x 3.233260 0.000000 0.000000 
#    y 0.000000 3.487450 0.000000 
#    z 0.000000 0.000000 3.477630 
# 
# 
# High freq. dielectric constant tensor:
#      x y z
#    x 1.705450 0.000000 0.000000 
#    y 0.000000 1.731640 0.000000 
#    z 0.000000 0.000000 1.727950 
# 
# From -- ./inp_files/11431.got.cif
#   From: 2010.03.12/outbox.cif.g09.slc.cpg/sg67_6_cif.got.tgz:11431.got - 2010.04.10 22:41:39.
