data_PCOD8281313
_publ_section_title
;
Structure prediction by ZEFSAII (Michael W. Deem and Ramdas Pophale) SiO2 
 PCOD8281313
Probable space group: C M M A
;
_chemical_formula_sum "Si O2"
_cell_formula_units_Z 88
_cell_length_a 23.058860
_cell_length_b 14.529862
_cell_length_c 11.706487
_cell_angle_alpha 90.000000
_cell_angle_beta 90.000000
_cell_angle_gamma 90.000000
_cell_volume 3922.165446
_symmetry_space_group_name_H-M "C M M A"
_symmetry_group_IT_number 67
_symmetry_cell_setting 'orthorhombic'
loop_
_space_group_symop_operation_xyz
x,y,z
-x,1/2-y,z
x,-y,-z
-x,1/2+y,-z
-x,-y,-z
x,1/2+y,-z
-x,y,z
x,1/2-y,z
1/2+x,1/2+y,z
1/2-x,-y,z
1/2+x,1/2-y,-z
1/2-x,y,-z
1/2-x,1/2-y,-z
1/2+x,y,-z
1/2-x,1/2+y,z
1/2+x,-y,z
loop_
_atom_site_type_symbol
_atom_site_label
_atom_site_fract_x
_atom_site_fract_y
_atom_site_fract_z
Si Si1 0.253457 0.750000 0.640589
Si Si2 0.500000 0.482529 0.869096
Si Si3 0.128141 0.948558 0.878475
Si Si4 0.931668 0.750000 0.625484
Si Si5 0.649679 0.750000 0.188681
Si Si6 0.000000 0.651145 0.285003
Si Si7 0.694152 0.057852 0.318097
Si Si8 0.911229 0.091929 0.536703
O O1 0.250000 0.750000 0.500000
O O2 0.190220 0.750000 0.698666
O O3 0.287839 0.664114 0.694579
O O4 0.561013 0.433994 0.834460
O O5 0.500000 0.582898 0.817767
O O6 0.500000 0.500000 0.000000
O O7 0.156481 0.845060 0.884703
O O8 0.164444 0.014589 0.794790
O O9 0.130199 0.000000 0.000000
O O10 0.915186 0.750000 0.758421
O O11 0.903673 0.840657 0.569687
O O12 0.000000 0.750000 0.606263
O O13 0.942996 0.644036 0.361742
O O14 0.000000 0.750000 0.225494
O O15 0.650514 0.053771 0.423226
O O16 0.750000 0.000000 0.353261
O O17 0.946834 0.000000 0.500000
#
# Coordination Sequence:
#
# PCOD8281313 Si02
#       8
#     8   8  16   8   8   8  16  16
#     4  12  28  47  73 103 146 196 247 284 351 426
#     4  10  24  48  72 103 138 183 232 297 377 423
#     4  11  26  50  76 107 142 182 243 303 366 428
#     4  12  26  42  68 109 146 184 240 282 360 442
#     4  12  26  49  71 109 143 194 235 297 354 427
#     4  12  23  43  69 100 144 178 235 305 357 434
#     4  12  26  45  69 103 142 192 241 293 353 418
#     4  12  24  40  66 101 144 188 230 284 357 420
#
# _framework density 22.436585999999998
#
# number of rings (size 3 to 8) (size 9 to 14) (size 15 to 20)
#    0.000    0.364    5.455    3.000    3.818    1.091 
#    6.545    0.909    0.000    0.000    0.000    0.000 
#    0.000    0.000    0.000    0.000    0.000    0.000 
#
# Total GULP energy -545269.039271 kJ/mol
# GULP energy per Si atom -12392.478165 kJ/mol
# Density = 2.238552 g / cm^3
# Si number density = 22.436586 Si / 1000 Ang^3
#
#
#
# Elastic Constant Matrix: (Units=GPa)
#
#
# Indices 1 2 3 4 5 6 
#
# 1 123.8372 33.3631 36.0232 0.0000 0.0000 0.0000
# 2 33.3631 194.9387 52.8225 0.0000 0.0000 0.0000
# 3 36.0232 52.8225 79.0040 0.0000 0.0000 0.0000
# 4 0.0000 0.0000 0.0000 37.4709 0.0000 0.0000
# 5 0.0000 0.0000 0.0000 0.0000 68.8111 0.0000
# 6 0.0000 0.0000 0.0000 0.0000 0.0000 28.2321
#
#
#
# Elastic Compliance Matrix: (Units=1/GPa)
#
#
# Indices 1 2 3 4 5 6 
#
# 1 0.009357 -0.000544 -0.003903 0.000000 0.000000 0.000000
# 2 -0.000544 0.006296 -0.003962 0.000000 0.000000 0.000000
# 3 -0.003903 -0.003962 0.017086 0.000000 0.000000 0.000000
# 4 0.000000 0.000000 0.000000 0.026687 0.000000 0.000000
# 5 0.000000 0.000000 0.000000 0.000000 0.014533 0.000000
# 6 0.000000 0.000000 0.000000 0.000000 0.000000 0.035421
#
#
# Mechanical properties :
#
#
# Convention : Reuss Voigt Hill
#
# Bulk Modulus (GPa) = 62.80476 71.35530 67.08003
# Shear Modulus (GPa) = 38.02149 45.27423 41.64786
#
# Velocity S-wave (km/s) = 4.12104 4.49695 4.31309
# Velocity P-wave (km/s) = 7.12017 7.67043 7.40042
#
# Compressibility (1/GPa) = 0.01592236
#
# Stress axis : x y z
#
# Youngs Moduli (GPa) = 106.87257 158.81990 58.52718
#
# Poissons Ratio (x) = 0.08638 0.22842
# Poissons Ratio (y) = 0.05812 0.23188
# Poissons Ratio (z) = 0.41711 0.62922
#
# Static dielectric constant tensor:
#      x y z
#    x 4.429490 0.000000 0.000000 
#    y 0.000000 4.198950 0.000000 
#    z 0.000000 0.000000 3.751580 
# 
# 
# High freq. dielectric constant tensor:
#      x y z
#    x 1.895650 0.000000 0.000000 
#    y 0.000000 1.905800 0.000000 
#    z 0.000000 0.000000 1.865320 
# 
# From -- ./inp_files/21838.got.cif
#   From: 2010.03.12/outbox.cif.g09.slc.cpg/sg67_11_cif.got.tgz:21838.got - 2010.04.10 22:41:39.
