data_PCOD8281157
_publ_section_title
;
Structure prediction by ZEFSAII (Michael W. Deem and Ramdas Pophale) SiO2 
 PCOD8281157
Probable space group: C M M A
;
_chemical_formula_sum "Si O2"
_cell_formula_units_Z 96
_cell_length_a 8.633276
_cell_length_b 28.553759
_cell_length_c 20.698181
_cell_angle_alpha 90.000000
_cell_angle_beta 90.000000
_cell_angle_gamma 90.000000
_cell_volume 5102.359977
_symmetry_space_group_name_H-M "C M M A"
_symmetry_group_IT_number 67
_symmetry_cell_setting 'orthorhombic'
loop_
_space_group_symop_operation_xyz
x,y,z
-x,1/2-y,z
x,-y,-z
-x,1/2+y,-z
-x,-y,-z
x,1/2+y,-z
-x,y,z
x,1/2-y,z
1/2+x,1/2+y,z
1/2-x,-y,z
1/2+x,1/2-y,-z
1/2-x,y,-z
1/2-x,1/2-y,-z
1/2+x,y,-z
1/2-x,1/2+y,z
1/2+x,-y,z
loop_
_atom_site_type_symbol
_atom_site_label
_atom_site_fract_x
_atom_site_fract_y
_atom_site_fract_z
Si Si1 0.817385 0.048694 0.262252
Si Si2 0.820142 0.695406 0.806595
Si Si3 0.182010 0.860130 0.310205
Si Si4 0.316830 0.302930 0.433450
Si Si5 0.817690 0.640084 0.934137
Si Si6 0.683390 0.950858 0.878299
O O1 0.770252 0.090372 0.310045
O O2 0.748322 0.060651 0.192459
O O3 0.000000 0.044516 0.256058
O O4 0.750000 0.000000 0.289514
O O5 0.780750 0.750000 0.807020
O O6 0.718040 0.670787 0.752370
O O7 0.773298 0.674780 0.876056
O O8 0.000000 0.685665 0.791606
O O9 0.243645 0.833477 0.373609
O O10 0.000000 0.869462 0.313083
O O11 0.500000 0.303813 0.436714
O O12 0.255075 0.250000 0.423607
O O13 0.250000 0.324079 0.500000
O O14 0.737086 0.589775 0.925978
O O15 0.000000 0.633006 0.939419
O O16 0.750000 0.662386 0.000000
O O17 0.500000 0.953858 0.874944
O O18 0.750000 0.000000 0.904164
#
# Coordination Sequence:
#
# PCOD8281157 Si02
#       6
#    16  16  16  16  16  16
#     4  11  21  35  56  84 115 148 185 229 279 334
#     4  10  22  39  58  81 110 145 188 236 283 334
#     4  11  21  35  58  87 117 150 189 233 280 331
#     4   9  19  35  55  83 119 156 193 232 275 328
#     4  11  23  39  57  79 110 146 188 234 284 341
#     4  11  21  36  58  83 111 143 181 227 282 339
#
# _framework density 18.814823000000001
#
# number of rings (size 3 to 8) (size 9 to 14) (size 15 to 20)
#    0.000    1.500    1.667    5.500    0.000    3.667 
#    0.000    3.333    0.000    0.500    0.000    3.500 
#    0.000    0.000    0.000    0.000    0.000    0.000 
#
# Total GULP energy -595422.455814 kJ/mol
# GULP energy per Si atom -12404.634496 kJ/mol
# Density = 1.877200 g / cm^3
# Si number density = 18.814823 Si / 1000 Ang^3
#
#
#
# Elastic Constant Matrix: (Units=GPa)
#
#
# Indices 1 2 3 4 5 6 
#
# 1 105.1099 35.7185 40.9280 0.0000 0.0000 0.0000
# 2 35.7185 110.0415 58.2045 0.0000 0.0000 0.0000
# 3 40.9280 58.2045 123.4965 0.0000 0.0000 0.0000
# 4 0.0000 0.0000 0.0000 35.6321 0.0000 0.0000
# 5 0.0000 0.0000 0.0000 0.0000 30.1846 0.0000
# 6 0.0000 0.0000 0.0000 0.0000 0.0000 27.6990
#
#
#
# Elastic Compliance Matrix: (Units=1/GPa)
#
#
# Indices 1 2 3 4 5 6 
#
# 1 0.011328 -0.002253 -0.002692 0.000000 0.000000 0.000000
# 2 -0.002253 0.012553 -0.005170 0.000000 0.000000 0.000000
# 3 -0.002692 -0.005170 0.011426 0.000000 0.000000 0.000000
# 4 0.000000 0.000000 0.000000 0.028065 0.000000 0.000000
# 5 0.000000 0.000000 0.000000 0.000000 0.033129 0.000000
# 6 0.000000 0.000000 0.000000 0.000000 0.000000 0.036102
#
#
# Mechanical properties :
#
#
# Convention : Reuss Voigt Hill
#
# Bulk Modulus (GPa) = 66.32509 67.59443 66.95976
# Shear Modulus (GPa) = 31.67378 32.28960 31.98169
#
# Velocity S-wave (km/s) = 4.10744 4.14717 4.12735
# Velocity P-wave (km/s) = 7.60413 7.67699 7.64065
#
# Compressibility (1/GPa) = 0.01507725
#
# Stress axis : x y z
#
# Youngs Moduli (GPa) = 88.27873 79.66107 87.51801
#
# Poissons Ratio (x) = 0.17946 0.23563
# Poissons Ratio (y) = 0.19887 0.45245
# Poissons Ratio (z) = 0.23768 0.41183
#
# Static dielectric constant tensor:
#      x y z
#    x 3.443200 0.000000 0.000000 
#    y 0.000000 3.631060 0.000000 
#    z 0.000000 0.000000 3.498830 
# 
# 
# High freq. dielectric constant tensor:
#      x y z
#    x 1.739780 0.000000 0.000000 
#    y 0.000000 1.734880 0.000000 
#    z 0.000000 0.000000 1.716960 
# 
# From -- ./inp_files/37176.got.cif
#   From: 2010.03.12/outbox.cif.g09.slc.cpg/sg67_19_cif.got.tgz:37176.got - 2010.04.10 22:41:39.
