data_PCOD8281207
_publ_section_title
;
Structure prediction by ZEFSAII (Michael W. Deem and Ramdas Pophale) SiO2 
 PCOD8281207
Probable space group: C M M A
;
_chemical_formula_sum "Si O2"
_cell_formula_units_Z 68
_cell_length_a 15.404890
_cell_length_b 10.037873
_cell_length_c 20.439974
_cell_angle_alpha 90.000000
_cell_angle_beta 90.000000
_cell_angle_gamma 90.000000
_cell_volume 3160.680792
_symmetry_space_group_name_H-M "C M M A"
_symmetry_group_IT_number 67
_symmetry_cell_setting 'orthorhombic'
loop_
_space_group_symop_operation_xyz
x,y,z
-x,1/2-y,z
x,-y,-z
-x,1/2+y,-z
-x,-y,-z
x,1/2+y,-z
-x,y,z
x,1/2-y,z
1/2+x,1/2+y,z
1/2-x,-y,z
1/2+x,1/2-y,-z
1/2-x,y,-z
1/2-x,1/2-y,-z
1/2+x,y,-z
1/2-x,1/2+y,z
1/2+x,-y,z
loop_
_atom_site_type_symbol
_atom_site_label
_atom_site_fract_x
_atom_site_fract_y
_atom_site_fract_z
Si Si1 0.329940 0.096494 0.275038
Si Si2 0.404937 0.403524 0.410367
Si Si3 0.368146 0.750000 0.945515
Si Si4 0.830233 0.750000 0.912109
Si Si5 0.405156 0.008142 0.142792
Si Si6 0.750000 0.500000 0.500000
O O1 0.300091 0.250000 0.284686
O O2 0.384518 0.044491 0.337474
O O3 0.385803 0.085490 0.209647
O O4 0.250000 0.000000 0.266979
O O5 0.500000 0.468112 0.432427
O O6 0.423081 0.250000 0.407770
O O7 0.319036 0.420776 0.455342
O O8 0.266995 0.750000 0.934700
O O9 0.406534 0.884492 0.915381
O O10 0.390686 0.750000 0.023091
O O11 0.841588 0.616364 0.869386
O O12 0.500000 0.943988 0.147797
#
# Coordination Sequence:
#
# PCOD8281207 Si02
#       6
#    16  16   8   8  16   4
#     4  11  23  42  68  95 127 171 222 270 323 385
#     4  10  22  40  65  96 133 176 223 269 319 386
#     4  11  23  43  67  89 123 167 220 257 320 397
#     4  11  25  43  63  93 127 167 208 269 324 387
#     4  12  25  40  63  94 126 166 212 267 327 383
#     4  12  20  40  64 100 136 176 214 268 326 378
#
# _framework density 21.514353
#
# number of rings (size 3 to 8) (size 9 to 14) (size 15 to 20)
#    0.000    0.941    2.353    4.941    1.647    5.647 
#    0.000    0.000    0.000    1.412    0.000    0.000 
#    0.000    0.000    0.000    0.000    0.000    0.000 
#
# Total GULP energy -421268.736697 kJ/mol
# GULP energy per Si atom -12390.256962 kJ/mol
# Density = 2.146539 g / cm^3
# Si number density = 21.514353 Si / 1000 Ang^3
#
#
#
# Elastic Constant Matrix: (Units=GPa)
#
#
# Indices 1 2 3 4 5 6 
#
# 1 126.8902 5.4493 33.6280 0.0000 0.0000 0.0000
# 2 5.4493 79.6379 17.9072 0.0000 0.0000 0.0000
# 3 33.6280 17.9072 126.7012 0.0000 0.0000 0.0000
# 4 0.0000 0.0000 0.0000 32.5290 0.0000 0.0000
# 5 0.0000 0.0000 0.0000 0.0000 15.2064 0.0000
# 6 0.0000 0.0000 0.0000 0.0000 0.0000 157.2280
#
#
#
# Elastic Compliance Matrix: (Units=1/GPa)
#
#
# Indices 1 2 3 4 5 6 
#
# 1 0.008478 -0.000077 -0.002239 0.000000 0.000000 0.000000
# 2 -0.000077 0.012970 -0.001813 0.000000 0.000000 0.000000
# 3 -0.002239 -0.001813 0.008743 0.000000 0.000000 0.000000
# 4 0.000000 0.000000 0.000000 0.030742 0.000000 0.000000
# 5 0.000000 0.000000 0.000000 0.000000 0.065762 0.000000
# 6 0.000000 0.000000 0.000000 0.000000 0.000000 0.006360
#
#
# Mechanical properties :
#
#
# Convention : Reuss Voigt Hill
#
# Bulk Modulus (GPa) = 45.59286 49.68872 47.64079
# Shear Modulus (GPa) = 33.64231 59.40899 46.52565
#
# Velocity S-wave (km/s) = 3.95867 5.26057 4.65536
# Velocity P-wave (km/s) = 6.49097 7.74880 7.14761
#
# Compressibility (1/GPa) = 0.02193326
#
# Stress axis : x y z
#
# Youngs Moduli (GPa) = 117.95863 77.10291 114.37589
#
# Poissons Ratio (x) = 0.00590 0.25611
# Poissons Ratio (y) = 0.00903 0.20733
# Poissons Ratio (z) = 0.26414 0.13977
#
# Static dielectric constant tensor:
#      x y z
#    x 4.215960 0.000000 0.000000 
#    y 0.000000 3.619170 0.000000 
#    z 0.000000 0.000000 4.360820 
# 
# 
# High freq. dielectric constant tensor:
#      x y z
#    x 1.861110 0.000000 0.000000 
#    y 0.000000 1.826950 0.000000 
#    z 0.000000 0.000000 1.855470 
# 
# From -- ./inp_files/38820.got.cif
#   From: 2010.03.12/outbox.cif.g09.slc.cpg/sg67_20_cif.got.tgz:38820.got - 2010.04.10 22:41:39.
