data_PCOD8281081
_publ_section_title
;
Structure prediction by ZEFSAII (Michael W. Deem and Ramdas Pophale) SiO2 
 PCOD8281081
Probable space group: C M M A
;
_chemical_formula_sum "Si O2"
_cell_formula_units_Z 120
_cell_length_a 20.954439
_cell_length_b 23.172320
_cell_length_c 12.218484
_cell_angle_alpha 90.000000
_cell_angle_beta 90.000000
_cell_angle_gamma 90.000000
_cell_volume 5932.843330
_symmetry_space_group_name_H-M "C M M A"
_symmetry_group_IT_number 67
_symmetry_cell_setting 'orthorhombic'
loop_
_space_group_symop_operation_xyz
x,y,z
-x,1/2-y,z
x,-y,-z
-x,1/2+y,-z
-x,-y,-z
x,1/2+y,-z
-x,y,z
x,1/2-y,z
1/2+x,1/2+y,z
1/2-x,-y,z
1/2+x,1/2-y,-z
1/2-x,y,-z
1/2-x,1/2-y,-z
1/2+x,y,-z
1/2-x,1/2+y,z
1/2+x,-y,z
loop_
_atom_site_type_symbol
_atom_site_label
_atom_site_fract_x
_atom_site_fract_y
_atom_site_fract_z
Si Si1 0.878337 0.116719 0.762061
Si Si2 0.070398 0.431858 0.978402
Si Si3 0.682099 0.999414 0.297924
Si Si4 0.930854 0.625812 0.468010
Si Si5 0.691228 0.683283 0.428705
Si Si6 0.257002 0.815636 0.801635
Si Si7 0.301055 0.919231 0.086098
Si Si8 0.098205 0.500000 0.500000
O O1 0.917673 0.140195 0.658621
O O2 0.832228 0.169945 0.791845
O O3 0.830850 0.064733 0.735442
O O4 0.926283 0.091169 0.853621
O O5 0.129778 0.402907 0.038084
O O6 0.000000 0.413731 0.023287
O O7 0.078892 0.500000 0.000000
O O8 0.686017 0.959711 0.190146
O O9 0.635368 0.977877 0.392006
O O10 0.750000 0.000000 0.356738
O O11 0.874147 0.648721 0.545861
O O12 0.941377 0.556641 0.471695
O O13 0.000000 0.652970 0.501482
O O14 0.678211 0.750000 0.458007
O O15 0.750000 0.658831 0.500000
O O16 0.713532 0.674397 0.305441
O O17 0.251739 0.750000 0.840850
O O18 0.227373 0.856834 0.891245
O O19 0.250000 0.948210 0.000000
#
# Coordination Sequence:
#
# PCOD8281081 Si02
#       8
#    16  16  16  16  16  16  16   8
#     4  11  21  37  60  89 123 155 199 255 306 364
#     4  11  23  40  61  90 124 162 198 242 304 370
#     4  11  20  34  58  90 122 159 202 257 304 358
#     4  11  23  38  59  88 125 162 199 247 305 368
#     4  10  21  40  65  88 116 155 205 255 302 359
#     4  11  23  39  62  92 121 155 203 257 311 361
#     4  12  23  38  63  92 124 157 206 260 305 367
#     4  10  24  36  54  84 131 172 199 232 305 382
#
# _framework density 20.226389999999999
#
# number of rings (size 3 to 8) (size 9 to 14) (size 15 to 20)
#    0.000    1.067    5.333    1.600    0.000    0.533 
#    0.000    2.667    0.000    3.200    0.000    0.000 
#    0.000    0.000    0.000    0.000    0.000    0.000 
#
# Total GULP energy -743330.103917 kJ/mol
# GULP energy per Si atom -12388.835065 kJ/mol
# Density = 2.018035 g / cm^3
# Si number density = 20.226390 Si / 1000 Ang^3
#
#
#
# Elastic Constant Matrix: (Units=GPa)
#
#
# Indices 1 2 3 4 5 6 
#
# 1 155.8646 26.4260 29.6456 0.0000 0.0000 0.0000
# 2 26.4260 70.7330 18.3435 0.0000 0.0000 0.0000
# 3 29.6456 18.3435 84.1654 0.0000 0.0000 0.0000
# 4 0.0000 0.0000 0.0000 22.9871 0.0000 0.0000
# 5 0.0000 0.0000 0.0000 0.0000 21.0325 0.0000
# 6 0.0000 0.0000 0.0000 0.0000 0.0000 3.2279
#
#
#
# Elastic Compliance Matrix: (Units=1/GPa)
#
#
# Indices 1 2 3 4 5 6 
#
# 1 0.007171 -0.002145 -0.002058 0.000000 0.000000 0.000000
# 2 -0.002145 0.015626 -0.002650 0.000000 0.000000 0.000000
# 3 -0.002058 -0.002650 0.013184 0.000000 0.000000 0.000000
# 4 0.000000 0.000000 0.000000 0.043503 0.000000 0.000000
# 5 0.000000 0.000000 0.000000 0.000000 0.047546 0.000000
# 6 0.000000 0.000000 0.000000 0.000000 0.000000 0.309795
#
#
# Mechanical properties :
#
#
# Convention : Reuss Voigt Hill
#
# Bulk Modulus (GPa) = 44.89534 51.06591 47.98063
# Shear Modulus (GPa) = 10.91807 25.20604 18.06205
#
# Velocity S-wave (km/s) = 2.32587 3.53398 2.99154
# Velocity P-wave (km/s) = 5.42747 6.47719 5.97543
#
# Compressibility (1/GPa) = 0.02227403
#
# Stress axis : x y z
#
# Youngs Moduli (GPa) = 139.44975 63.99421 75.84991
#
# Poissons Ratio (x) = 0.13729 0.15612
# Poissons Ratio (y) = 0.29917 0.20101
# Poissons Ratio (z) = 0.28703 0.16959
#
# Static dielectric constant tensor:
#      x y z
#    x 3.825670 0.000000 0.000000 
#    y 0.000000 3.588680 0.000000 
#    z 0.000000 0.000000 3.813310 
# 
# 
# High freq. dielectric constant tensor:
#      x y z
#    x 1.793240 0.000000 0.000000 
#    y 0.000000 1.774300 0.000000 
#    z 0.000000 0.000000 1.790030 
# 
# From -- ./inp_files/21158.got.cif
#   From: 2010.03.12/outbox.cif.g09.slc.cpg/sg67_11_cif.got.tgz:21158.got - 2010.04.10 22:41:39.
