data_PCOD8281485
_publ_section_title
;
Structure prediction by ZEFSAII (Michael W. Deem and Ramdas Pophale) SiO2 
 PCOD8281485
Probable space group: C M M A
;
_chemical_formula_sum "Si O2"
_cell_formula_units_Z 88
_cell_length_a 8.839362
_cell_length_b 25.065050
_cell_length_c 21.989068
_cell_angle_alpha 90.000000
_cell_angle_beta 90.000000
_cell_angle_gamma 90.000000
_cell_volume 4871.877027
_symmetry_space_group_name_H-M "C M M A"
_symmetry_group_IT_number 67
_symmetry_cell_setting 'orthorhombic'
loop_
_space_group_symop_operation_xyz
x,y,z
-x,1/2-y,z
x,-y,-z
-x,1/2+y,-z
-x,-y,-z
x,1/2+y,-z
-x,y,z
x,1/2-y,z
1/2+x,1/2+y,z
1/2-x,-y,z
1/2+x,1/2-y,-z
1/2-x,y,-z
1/2-x,1/2-y,-z
1/2+x,y,-z
1/2-x,1/2+y,z
1/2+x,-y,z
loop_
_atom_site_type_symbol
_atom_site_label
_atom_site_fract_x
_atom_site_fract_y
_atom_site_fract_z
Si Si1 0.179052 0.445613 0.795685
Si Si2 0.179946 0.642577 0.437670
Si Si3 0.819825 0.250000 0.934050
Si Si4 0.677570 0.053837 0.342967
Si Si5 0.321306 0.333866 0.161838
Si Si6 0.822226 0.750000 0.261501
Si Si7 0.320839 0.250000 0.608521
O O1 0.250000 0.500000 0.822583
O O2 0.232020 0.436669 0.726232
O O3 0.240286 0.394643 0.834316
O O4 0.000000 0.450239 0.800424
O O5 0.250000 0.619781 0.500000
O O6 0.230729 0.603411 0.383457
O O7 0.251154 0.699610 0.425039
O O8 0.000000 0.647088 0.442556
O O9 0.760744 0.197368 0.897778
O O10 0.000000 0.250000 0.938571
O O11 0.750000 0.250000 0.000000
O O12 0.500000 0.046728 0.345921
O O13 0.750000 0.000000 0.369539
O O14 0.500000 0.334851 0.157821
O O15 0.277375 0.302305 0.223038
O O16 0.721836 0.750000 0.321027
O O17 0.000000 0.750000 0.278896
O O18 0.500000 0.250000 0.600805
#
# Coordination Sequence:
#
# PCOD8281485 Si02
#       7
#    16  16   8  16  16   8   8
#     4   9  16  29  48  72  98 126 158 194 236 288
#     4  11  23  39  55  71  93 127 167 206 248 301
#     4   9  17  31  51  75 100 133 169 206 244 281
#     4   9  19  34  54  76  99 126 158 198 247 297
#     4   8  15  29  51  74  99 131 167 198 237 291
#     4   9  16  31  54  75  94 123 160 200 243 297
#     4  12  24  36  51  74 101 128 158 202 256 306
#
# _framework density 18.062853
#
# number of rings (size 3 to 8) (size 9 to 14) (size 15 to 20)
#    0.000    2.545    0.000    3.818    0.000    4.727 
#    0.000    9.091    0.000    0.545    0.000    3.818 
#    0.000    0.000    0.000    0.000    0.000    0.000 
#
# Total GULP energy -545480.742311 kJ/mol
# GULP energy per Si atom -12397.289598 kJ/mol
# Density = 1.802174 g / cm^3
# Si number density = 18.062853 Si / 1000 Ang^3
#
#
#
# Elastic Constant Matrix: (Units=GPa)
#
#
# Indices 1 2 3 4 5 6 
#
# 1 42.8824 34.8189 25.1538 0.0000 0.0000 0.0000
# 2 34.8189 163.6024 56.6648 0.0000 0.0000 0.0000
# 3 25.1538 56.6648 93.5260 0.0000 0.0000 0.0000
# 4 0.0000 0.0000 0.0000 -2.8511 0.0000 0.0000
# 5 0.0000 0.0000 0.0000 0.0000 26.7348 0.0000
# 6 0.0000 0.0000 0.0000 0.0000 0.0000 28.0870
#
#
#
# Elastic Compliance Matrix: (Units=1/GPa)
#
#
# Indices 1 2 3 4 5 6 
#
# 1 0.030164 -0.004569 -0.005345 0.000000 0.000000 0.000000
# 2 -0.004569 0.008428 -0.003877 0.000000 0.000000 0.000000
# 3 -0.005345 -0.003877 0.014479 0.000000 0.000000 0.000000
# 4 0.000000 0.000000 0.000000 -0.350742 0.000000 0.000000
# 5 0.000000 0.000000 0.000000 0.000000 0.037404 0.000000
# 6 0.000000 0.000000 0.000000 0.000000 0.000000 0.035604
#
#
# Mechanical properties :
#
#
# Convention : Reuss Voigt Hill
#
# Bulk Modulus (GPa) = 39.23193 59.25399 49.24296
# Shear Modulus (GPa) = -26.51317 22.61902 -1.94707
#
# Velocity S-wave (km/s) = -3.83538 3.54254 -1.03937
# Velocity P-wave (km/s) = 1.46741 7.04332 5.08732
#
# Compressibility (1/GPa) = 0.02548944
#
# Stress axis : x y z
#
# Youngs Moduli (GPa) = 33.15193 118.65709 69.06627
#
# Poissons Ratio (x) = 0.54209 0.36914
# Poissons Ratio (y) = 0.15146 0.26779
# Poissons Ratio (z) = 0.17719 0.46008
#
# Static dielectric constant tensor:
#      x y z
#    x 3.104290 0.000000 0.000000 
#    y 0.000000 4.076790 0.000000 
#    z 0.000000 0.000000 3.365220 
# 
# 
# High freq. dielectric constant tensor:
#      x y z
#    x 1.677330 0.000000 0.000000 
#    y 0.000000 1.712020 0.000000 
#    z 0.000000 0.000000 1.680770 
# 
# From -- ./inp_files/37003.got.cif
#   From: 2010.03.12/outbox.cif.g09.slc.cpg/sg67_19_cif.got.tgz:37003.got - 2010.04.10 22:41:39.
