data_PCOD8281691
_publ_section_title
;
Structure prediction by ZEFSAII (Michael W. Deem and Ramdas Pophale) SiO2 
 PCOD8281691
Probable space group: C C C A
;
_chemical_formula_sum "Si O2"
_cell_formula_units_Z 72
_cell_length_a 10.670976
_cell_length_b 15.745721
_cell_length_c 22.019365
_cell_angle_alpha 90.000000
_cell_angle_beta 90.000000
_cell_angle_gamma 90.000000
_cell_volume 3699.742390
_symmetry_space_group_name_H-M "C C C A"
_symmetry_group_IT_number 68
_space_group.IT_coordinate_system_code '2'
_symmetry_cell_setting 'orthorhombic'
loop_
_space_group_symop_operation_xyz
x,y,z
-x,1/2-y,z
x,1/2-y,1/2-z
-x,y,1/2-z
-x,-y,-z
x,1/2+y,-z
-x,1/2+y,1/2+z
x,-y,1/2+z
1/2+x,1/2+y,z
1/2-x,-y,z
1/2+x,-y,1/2-z
1/2-x,1/2+y,1/2-z
1/2-x,1/2-y,-z
1/2+x,y,-z
1/2-x,y,1/2+z
1/2+x,1/2-y,1/2+z
loop_
_atom_site_type_symbol
_atom_site_label
_atom_site_fract_x
_atom_site_fract_y
_atom_site_fract_z
Si Si1 0.807526 0.412217 0.119166
Si Si2 0.500000 0.750000 0.599241
Si Si3 0.275700 0.758159 0.820558
Si Si4 0.179261 0.162888 0.512974
Si Si5 0.936614 0.839090 0.609498
O O1 0.750000 0.500000 0.143933
O O2 0.746895 0.337015 0.157211
O O3 0.958418 0.408091 0.128434
O O4 0.773557 0.401007 0.047625
O O5 0.395534 0.706188 0.642676
O O6 0.559135 0.677439 0.556447
O O7 0.303400 0.750000 0.750000
O O8 0.157640 0.820236 0.834379
O O9 0.250000 0.250000 0.500000
O O10 0.137106 0.123598 0.448705
O O11 0.000000 0.750000 0.589350
#
# Coordination Sequence:
#
# PCOD8281691 Si02
#       5
#    16   8  16  16  16
#     4  10  22  35  55  85 118 146 186 254 310 336
#     4  10  17  30  58  88 107 140 200 248 282 336
#     4  10  21  36  61  82 109 159 210 236 282 368
#     4  11  16  32  58  85 111 151 192 236 290 367
#     4  10  18  32  56  85 107 149 201 233 288 361
#
# _framework density 19.460813999999999
#
# number of rings (size 3 to 8) (size 9 to 14) (size 15 to 20)
#    0.000    1.778    7.778    0.333    0.000    4.889 
#    0.000    0.000   19.556    0.000    0.000    0.000 
#    0.000    0.000    0.000    0.000    0.000    0.000 
#
# Total GULP energy -446232.566870 kJ/mol
# GULP energy per Si atom -12395.349080 kJ/mol
# Density = 1.941652 g / cm^3
# Si number density = 19.460814 Si / 1000 Ang^3
#
#
#
# Elastic Constant Matrix: (Units=GPa)
#
#
# Indices 1 2 3 4 5 6 
#
# 1 119.3160 37.8333 27.9967 0.0000 0.0000 0.0000
# 2 37.8333 64.4721 10.3615 0.0000 0.0000 0.0000
# 3 27.9967 10.3615 98.0060 0.0000 0.0000 0.0000
# 4 0.0000 0.0000 0.0000 13.4565 0.0000 0.0000
# 5 0.0000 0.0000 0.0000 0.0000 28.3215 0.0000
# 6 0.0000 0.0000 0.0000 0.0000 0.0000 29.3708
#
#
#
# Elastic Compliance Matrix: (Units=1/GPa)
#
#
# Indices 1 2 3 4 5 6 
#
# 1 0.010854 -0.005973 -0.002469 0.000000 0.000000 0.000000
# 2 -0.005973 0.019065 -0.000309 0.000000 0.000000 0.000000
# 3 -0.002469 -0.000309 0.010942 0.000000 0.000000 0.000000
# 4 0.000000 0.000000 0.000000 0.074314 0.000000 0.000000
# 5 0.000000 0.000000 0.000000 0.000000 0.035309 0.000000
# 6 0.000000 0.000000 0.000000 0.000000 0.000000 0.034047
#
#
# Mechanical properties :
#
#
# Convention : Reuss Voigt Hill
#
# Bulk Modulus (GPa) = 42.81129 48.24191 45.52660
# Shear Modulus (GPa) = 23.82998 27.93661 25.88330
#
# Velocity S-wave (km/s) = 3.50310 3.79295 3.65090
# Velocity P-wave (km/s) = 6.19748 6.63514 6.42004
#
# Compressibility (1/GPa) = 0.02335832
#
# Stress axis : x y z
#
# Youngs Moduli (GPa) = 92.12918 52.45171 91.39483
#
# Poissons Ratio (x) = 0.31328 0.22567
# Poissons Ratio (y) = 0.55026 0.02828
# Poissons Ratio (z) = 0.22749 0.01623
#
# Static dielectric constant tensor:
#      x y z
#    x 4.047510 0.000000 0.000000 
#    y 0.000000 2.997250 0.000000 
#    z 0.000000 0.000000 3.620520 
# 
# 
# High freq. dielectric constant tensor:
#      x y z
#    x 1.777590 0.000000 0.000000 
#    y 0.000000 1.692300 0.000000 
#    z 0.000000 0.000000 1.750830 
# 
# From -- ./inp_files/44022.got.cif
#   From: 2010.03.12/outbox.cif.g09.slc.cpg/sg68_23_cif.got.tgz:44022.got - 2010.04.10 23:14:56.
