data_PCOD8281508
_publ_section_title
;
Structure prediction by ZEFSAII (Michael W. Deem and Ramdas Pophale) SiO2 
 PCOD8281508
Probable space group: C M M A
;
_chemical_formula_sum "Si O2"
_cell_formula_units_Z 64
_cell_length_a 17.557792
_cell_length_b 10.321380
_cell_length_c 18.943601
_cell_angle_alpha 90.000000
_cell_angle_beta 90.000000
_cell_angle_gamma 90.000000
_cell_volume 3432.971558
_symmetry_space_group_name_H-M "C M M A"
_symmetry_group_IT_number 67
_symmetry_cell_setting 'orthorhombic'
loop_
_space_group_symop_operation_xyz
x,y,z
-x,1/2-y,z
x,-y,-z
-x,1/2+y,-z
-x,-y,-z
x,1/2+y,-z
-x,y,z
x,1/2-y,z
1/2+x,1/2+y,z
1/2-x,-y,z
1/2+x,1/2-y,-z
1/2-x,y,-z
1/2-x,1/2-y,-z
1/2+x,y,-z
1/2-x,1/2+y,z
1/2+x,-y,z
loop_
_atom_site_type_symbol
_atom_site_label
_atom_site_fract_x
_atom_site_fract_y
_atom_site_fract_z
Si Si1 0.588296 0.750000 0.088940
Si Si2 0.339572 0.495142 0.152035
Si Si3 0.909265 0.105948 0.553935
Si Si4 0.087256 0.598673 0.287442
Si Si5 0.088691 0.250000 0.922946
O O1 0.500000 0.750000 0.107891
O O2 0.626050 0.625485 0.122383
O O3 0.602166 0.750000 0.005891
O O4 0.250000 0.500000 0.142769
O O5 0.360440 0.482785 0.234528
O O6 0.373122 0.376824 0.108279
O O7 0.879496 0.250000 0.533468
O O8 0.883537 0.070008 0.633238
O O9 0.000000 0.106170 0.550927
O O10 0.874723 0.000000 0.500000
O O11 0.094867 0.750000 0.269596
O O12 0.000000 0.554010 0.278457
O O13 0.000000 0.250000 0.902594
#
# Coordination Sequence:
#
# PCOD8281508 Si02
#       5
#     8  16  16  16   8
#     4  11  25  41  59  89 118 141 186 249 293 328
#     4  12  24  38  59  87 118 152 189 237 287 337
#     4   8  14  26  47  77 108 138 181 233 276 319
#     4   9  17  33  58  80 106 153 199 226 266 343
#     4  11  23  43  67  81 106 157 198 225 281 362
#
# _framework density 18.642741999999998
#
# number of rings (size 3 to 8) (size 9 to 14) (size 15 to 20)
#    0.000    2.000    1.250    5.250    0.000    5.000 
#    2.250    0.000    0.000    0.750    0.000    3.500 
#    0.000    0.000    0.000    0.000    0.000    0.000 
#
# Total GULP energy -396819.173337 kJ/mol
# GULP energy per Si atom -12400.599167 kJ/mol
# Density = 1.860031 g / cm^3
# Si number density = 18.642742 Si / 1000 Ang^3
#
#
#
# Elastic Constant Matrix: (Units=GPa)
#
#
# Indices 1 2 3 4 5 6 
#
# 1 94.6151 71.3938 79.2383 0.0000 0.0000 0.0000
# 2 71.3938 162.5395 91.8914 0.0000 0.0000 0.0000
# 3 79.2383 91.8914 130.9499 0.0000 0.0000 0.0000
# 4 0.0000 0.0000 0.0000 28.7857 0.0000 0.0000
# 5 0.0000 0.0000 0.0000 0.0000 -0.5654 0.0000
# 6 0.0000 0.0000 0.0000 0.0000 0.0000 22.6430
#
#
#
# Elastic Compliance Matrix: (Units=1/GPa)
#
#
# Indices 1 2 3 4 5 6 
#
# 1 0.022663 -0.003649 -0.011153 0.000000 0.000000 0.000000
# 2 -0.003649 0.010786 -0.005360 0.000000 0.000000 0.000000
# 3 -0.011153 -0.005360 0.018147 0.000000 0.000000 0.000000
# 4 0.000000 0.000000 0.000000 0.034739 0.000000 0.000000
# 5 0.000000 0.000000 0.000000 0.000000 -1.768814 0.000000
# 6 0.000000 0.000000 0.000000 0.000000 0.000000 0.044164
#
#
# Mechanical properties :
#
#
# Convention : Reuss Voigt Hill
#
# Bulk Modulus (GPa) = 88.72720 97.01682 92.87201
# Shear Modulus (GPa) = -3.13630 19.87807 8.37088
#
# Velocity S-wave (km/s) = -1.29845 3.26891 2.12130
# Velocity P-wave (km/s) = 6.74157 8.14866 7.47828
#
# Compressibility (1/GPa) = 0.01127050
#
# Stress axis : x y z
#
# Youngs Moduli (GPa) = 44.12505 92.71411 55.10688
#
# Poissons Ratio (x) = 0.33835 0.61458
# Poissons Ratio (y) = 0.16103 0.29540
# Poissons Ratio (z) = 0.49211 0.49699
#
# Static dielectric constant tensor:
#      x y z
#    x 3.205280 0.000000 0.000000 
#    y 0.000000 3.608020 0.000000 
#    z 0.000000 0.000000 3.711670 
# 
# 
# High freq. dielectric constant tensor:
#      x y z
#    x 1.696820 0.000000 0.000000 
#    y 0.000000 1.726180 0.000000 
#    z 0.000000 0.000000 1.739380 
# 
# From -- ./inp_files/32677.got.cif
#   From: 2010.03.12/outbox.cif.g09.slc.cpg/sg67_17_cif.got.tgz:32677.got - 2010.04.10 22:41:39.
