data_PCOD8281689
_publ_section_title
;
Structure prediction by ZEFSAII (Michael W. Deem and Ramdas Pophale) SiO2 
 PCOD8281689
Probable space group: C C C A
;
_chemical_formula_sum "Si O2"
_cell_formula_units_Z 96
_cell_length_a 22.619927
_cell_length_b 12.816200
_cell_length_c 18.078999
_cell_angle_alpha 90.000000
_cell_angle_beta 90.000000
_cell_angle_gamma 90.000000
_cell_volume 5241.129081
_symmetry_space_group_name_H-M "C C C A"
_symmetry_group_IT_number 68
_space_group.IT_coordinate_system_code '2'
_symmetry_cell_setting 'orthorhombic'
loop_
_space_group_symop_operation_xyz
x,y,z
-x,1/2-y,z
x,1/2-y,1/2-z
-x,y,1/2-z
-x,-y,-z
x,1/2+y,-z
-x,1/2+y,1/2+z
x,-y,1/2+z
1/2+x,1/2+y,z
1/2-x,-y,z
1/2+x,-y,1/2-z
1/2-x,1/2+y,1/2-z
1/2-x,1/2-y,-z
1/2+x,y,-z
1/2-x,y,1/2+z
1/2+x,1/2-y,1/2+z
loop_
_atom_site_type_symbol
_atom_site_label
_atom_site_fract_x
_atom_site_fract_y
_atom_site_fract_z
Si Si1 0.083277 0.002181 0.128670
Si Si2 0.615152 0.663944 0.308493
Si Si3 0.933428 0.279184 0.601738
Si Si4 0.000000 0.932242 0.750000
Si Si5 0.681776 0.520681 0.741777
Si Si6 0.931289 0.219922 0.443402
Si Si7 0.360679 0.750000 0.750000
O O1 0.147893 0.005387 0.165870
O O2 0.074808 0.100639 0.077938
O O3 0.033119 0.993839 0.192035
O O4 0.073788 0.900387 0.079466
O O5 0.640096 0.750000 0.250000
O O6 0.547384 0.642276 0.288322
O O7 0.654867 0.557950 0.304885
O O8 0.611959 0.710006 0.391676
O O9 0.908987 0.222703 0.528197
O O10 0.898299 0.253747 0.675588
O O11 0.000000 0.250000 0.618600
O O12 0.750000 0.500000 0.729704
O O13 0.676684 0.643825 0.760529
O O14 0.000000 0.250000 0.437479
#
# Coordination Sequence:
#
# PCOD8281689 Si02
#       7
#    16  16  16   8  16  16   8
#     4  10  21  35  55  83 118 153 185 244 288 343
#     4  11  18  32  59  89 112 145 185 242 284 338
#     4  10  24  35  54  84 121 159 183 228 292 369
#     4  10  17  30  57  82 118 141 186 228 293 348
#     4  10  23  37  62  85 109 156 200 244 277 337
#     4  11  20  34  56  89 122 144 191 240 292 351
#     4  10  23  42  56  80 116 155 200 234 286 360
#
# _framework density 18.316662999999998
#
# number of rings (size 3 to 8) (size 9 to 14) (size 15 to 20)
#    0.000    1.667    5.000    0.500    8.167    4.000 
#    0.000    0.000    0.000   14.000    0.000    0.000 
#    0.000    0.000    0.000    0.000    0.000    0.000 
#
# Total GULP energy -594882.413698 kJ/mol
# GULP energy per Si atom -12393.383619 kJ/mol
# Density = 1.827497 g / cm^3
# Si number density = 18.316663 Si / 1000 Ang^3
#
#
#
# Elastic Constant Matrix: (Units=GPa)
#
#
# Indices 1 2 3 4 5 6 
#
# 1 98.6905 62.0946 36.3407 0.0000 0.0000 0.0000
# 2 62.0946 146.9523 59.3059 0.0000 0.0000 0.0000
# 3 36.3407 59.3059 122.7902 0.0000 0.0000 0.0000
# 4 0.0000 0.0000 0.0000 9.1498 0.0000 0.0000
# 5 0.0000 0.0000 0.0000 0.0000 38.3107 0.0000
# 6 0.0000 0.0000 0.0000 0.0000 0.0000 19.4271
#
#
#
# Elastic Compliance Matrix: (Units=1/GPa)
#
#
# Indices 1 2 3 4 5 6 
#
# 1 0.014052 -0.005290 -0.001604 0.000000 0.000000 0.000000
# 2 -0.005290 0.010444 -0.003479 0.000000 0.000000 0.000000
# 3 -0.001604 -0.003479 0.010299 0.000000 0.000000 0.000000
# 4 0.000000 0.000000 0.000000 0.109292 0.000000 0.000000
# 5 0.000000 0.000000 0.000000 0.000000 0.026102 0.000000
# 6 0.000000 0.000000 0.000000 0.000000 0.000000 0.051475
#
#
# Mechanical properties :
#
#
# Convention : Reuss Voigt Hill
#
# Bulk Modulus (GPa) = 71.17703 75.99061 73.58382
# Shear Modulus (GPa) = 20.23537 27.42364 23.82951
#
# Velocity S-wave (km/s) = 3.32739 3.87356 3.61082
# Velocity P-wave (km/s) = 7.32841 7.84749 7.59239
#
# Compressibility (1/GPa) = 0.01404948
#
# Stress axis : x y z
#
# Youngs Moduli (GPa) = 71.16516 95.74597 97.09951
#
# Poissons Ratio (x) = 0.50654 0.15570
# Poissons Ratio (y) = 0.37649 0.33778
# Poissons Ratio (z) = 0.11412 0.33307
#
# Static dielectric constant tensor:
#      x y z
#    x 3.095100 0.000000 0.000000 
#    y 0.000000 4.018270 0.000000 
#    z 0.000000 0.000000 3.397970 
# 
# 
# High freq. dielectric constant tensor:
#      x y z
#    x 1.677780 0.000000 0.000000 
#    y 0.000000 1.732140 0.000000 
#    z 0.000000 0.000000 1.699300 
# 
# From -- ./inp_files/33581.got.cif
#   From: 2010.03.12/outbox.cif.g09.slc.cpg/sg68_17_cif.got.tgz:33581.got - 2010.04.10 23:14:56.
