data_PCOD8281229
_publ_section_title
;
Structure prediction by ZEFSAII (Michael W. Deem and Ramdas Pophale) SiO2 
 PCOD8281229
Probable space group: C M M A
;
_chemical_formula_sum "Si O2"
_cell_formula_units_Z 104
_cell_length_a 9.526401
_cell_length_b 20.316230
_cell_length_c 27.134402
_cell_angle_alpha 90.000000
_cell_angle_beta 90.000000
_cell_angle_gamma 90.000000
_cell_volume 5251.607190
_symmetry_space_group_name_H-M "C M M A"
_symmetry_group_IT_number 67
_symmetry_cell_setting 'orthorhombic'
loop_
_space_group_symop_operation_xyz
x,y,z
-x,1/2-y,z
x,-y,-z
-x,1/2+y,-z
-x,-y,-z
x,1/2+y,-z
-x,y,z
x,1/2-y,z
1/2+x,1/2+y,z
1/2-x,-y,z
1/2+x,1/2-y,-z
1/2-x,y,-z
1/2-x,1/2-y,-z
1/2+x,y,-z
1/2-x,1/2+y,z
1/2+x,-y,z
loop_
_atom_site_type_symbol
_atom_site_label
_atom_site_fract_x
_atom_site_fract_y
_atom_site_fract_z
Si Si1 0.160889 0.438108 0.378616
Si Si2 0.663180 0.324797 0.547788
Si Si3 0.500000 0.055721 0.927571
Si Si4 0.250230 0.131479 0.899469
Si Si5 0.838902 0.672663 0.206508
Si Si6 0.851100 0.250000 0.045384
Si Si7 0.165725 0.065378 0.263571
Si Si8 0.500000 0.908453 0.962574
O O1 0.250000 0.500000 0.397812
O O2 0.207017 0.372444 0.407531
O O3 0.187897 0.424651 0.321436
O O4 0.000000 0.455695 0.389050
O O5 0.500000 0.331890 0.534628
O O6 0.699595 0.250000 0.563712
O O7 0.750000 0.346086 0.500000
O O8 0.358490 0.069885 0.896056
O O9 0.500000 0.980550 0.940569
O O10 0.500000 0.096947 0.978568
O O11 0.172014 0.144769 0.848567
O O12 0.345248 0.191095 0.916025
O O13 0.138844 0.125881 0.943260
O O14 0.797934 0.750000 0.209149
O O15 0.731804 0.630767 0.239638
O O16 0.000000 0.662683 0.224065
O O17 0.000000 0.250000 0.018358
O O18 0.750000 0.250000 0.000000
O O19 0.000000 0.058957 0.249913
O O20 0.250000 0.000000 0.245710
#
# Coordination Sequence:
#
# PCOD8281229 Si02
#       8
#    16  16   8  16  16   8  16   8
#     4   9  19  36  58  86 119 156 199 251 305 360
#     4   9  18  33  53  80 119 163 208 255 301 352
#     4  11  24  41  63  93 119 152 195 235 276 343
#     4  12  24  42  63  87 120 154 190 236 287 345
#     4  11  25  45  63  87 125 162 198 247 306 361
#     4  12  26  40  64  92 118 154 196 234 283 346
#     4  10  22  41  67  94 121 157 203 254 310 370
#     4  11  24  43  63  87 123 156 189 231 288 341
#
# _framework density 19.803460999999999
#
# number of rings (size 3 to 8) (size 9 to 14) (size 15 to 20)
#    0.000    1.538    2.308    2.308    2.154    4.923 
#    0.000    3.077    0.000    1.846    0.000    0.000 
#    0.000    0.000    0.000    0.000    0.000    0.000 
#
# Total GULP energy -644746.470559 kJ/mol
# GULP energy per Si atom -12398.970588 kJ/mol
# Density = 1.975839 g / cm^3
# Si number density = 19.803461 Si / 1000 Ang^3
#
#
#
# Elastic Constant Matrix: (Units=GPa)
#
#
# Indices 1 2 3 4 5 6 
#
# 1 119.1165 54.7693 35.5678 0.0000 0.0000 0.0000
# 2 54.7693 109.6135 54.2157 0.0000 0.0000 0.0000
# 3 35.5678 54.2157 68.4409 0.0000 0.0000 0.0000
# 4 0.0000 0.0000 0.0000 7.3921 0.0000 0.0000
# 5 0.0000 0.0000 0.0000 0.0000 37.3789 0.0000
# 6 0.0000 0.0000 0.0000 0.0000 0.0000 40.9602
#
#
#
# Elastic Compliance Matrix: (Units=1/GPa)
#
#
# Indices 1 2 3 4 5 6 
#
# 1 0.011108 -0.004431 -0.002263 0.000000 0.000000 0.000000
# 2 -0.004431 0.016768 -0.010980 0.000000 0.000000 0.000000
# 3 -0.002263 -0.010980 0.024485 0.000000 0.000000 0.000000
# 4 0.000000 0.000000 0.000000 0.135279 0.000000 0.000000
# 5 0.000000 0.000000 0.000000 0.000000 0.026753 0.000000
# 6 0.000000 0.000000 0.000000 0.000000 0.000000 0.024414
#
#
# Mechanical properties :
#
#
# Convention : Reuss Voigt Hill
#
# Bulk Modulus (GPa) = 58.77708 65.14183 61.95946
# Shear Modulus (GPa) = 17.86829 27.32078 22.59454
#
# Velocity S-wave (km/s) = 3.00706 3.71832 3.38144
# Velocity P-wave (km/s) = 6.46538 7.16939 6.82647
#
# Compressibility (1/GPa) = 0.01701343
#
# Stress axis : x y z
#
# Youngs Moduli (GPa) = 90.02368 59.63834 40.84194
#
# Poissons Ratio (x) = 0.26427 0.09241
# Poissons Ratio (y) = 0.39891 0.44844
# Poissons Ratio (z) = 0.20369 0.65482
#
# Static dielectric constant tensor:
#      x y z
#    x 3.622800 0.000000 0.000000 
#    y 0.000000 3.340870 0.000000 
#    z 0.000000 0.000000 3.475880 
# 
# 
# High freq. dielectric constant tensor:
#      x y z
#    x 1.785230 0.000000 0.000000 
#    y 0.000000 1.784530 0.000000 
#    z 0.000000 0.000000 1.754430 
# 
# From -- ./inp_files/43635.got.cif
#   From: 2010.03.12/outbox.cif.g09.slc.cpg/sg67_22_cif.got.tgz:43635.got - 2010.04.10 22:41:39.
