data_PCOD8281626
_publ_section_title
;
Structure prediction by ZEFSAII (Michael W. Deem and Ramdas Pophale) SiO2 
 PCOD8281626
Probable space group: C C C A
;
_chemical_formula_sum "Si O2"
_cell_formula_units_Z 80
_cell_length_a 33.403912
_cell_length_b 27.259320
_cell_length_c 5.288115
_cell_angle_alpha 90.000000
_cell_angle_beta 90.000000
_cell_angle_gamma 90.000000
_cell_volume 4815.187910
_symmetry_space_group_name_H-M "C C C A"
_symmetry_group_IT_number 68
_space_group.IT_coordinate_system_code '2'
_symmetry_cell_setting 'orthorhombic'
loop_
_space_group_symop_operation_xyz
x,y,z
-x,1/2-y,z
x,1/2-y,1/2-z
-x,y,1/2-z
-x,-y,-z
x,1/2+y,-z
-x,1/2+y,1/2+z
x,-y,1/2+z
1/2+x,1/2+y,z
1/2-x,-y,z
1/2+x,-y,1/2-z
1/2-x,1/2+y,1/2-z
1/2-x,1/2-y,-z
1/2+x,y,-z
1/2-x,y,1/2+z
1/2+x,1/2-y,1/2+z
loop_
_atom_site_type_symbol
_atom_site_label
_atom_site_fract_x
_atom_site_fract_y
_atom_site_fract_z
Si Si1 0.224623 0.882505 0.035120
Si Si2 0.454008 0.942417 0.228245
Si Si3 0.079287 0.950982 0.223165
Si Si4 0.705236 0.729036 0.502631
Si Si5 0.671886 0.027793 0.329753
O O1 0.257075 0.890443 0.256695
O O2 0.204972 0.829154 0.029230
O O3 0.188929 0.919456 0.097288
O O4 0.500000 0.927036 0.250000
O O5 0.432048 0.919438 0.475048
O O6 0.449091 0.001179 0.230221
O O7 0.431596 0.920689 0.978065
O O8 0.124492 0.968609 0.196926
O O9 0.682507 0.750000 0.750000
O O10 0.750000 0.750000 0.500000
O O11 0.683437 0.750000 0.250000
O O12 0.686673 0.991381 0.555255
#
# Coordination Sequence:
#
# PCOD8281626 Si02
#       5
#    16  16  16  16  16
#     4  12  23  35  52  73  84 116 169 200 233 287
#     4  10  16  25  46  65  78 104 160 202 217 252
#     4  10  16  29  41  58  86 116 149 185 232 262
#     4  10  16  32  56  71  90 102 128 203 267 283
#     4  12  23  37  47  59  95 138 158 192 229 267
#
# _framework density 16.614096
#
# number of rings (size 3 to 8) (size 9 to 14) (size 15 to 20)
#    0.000    1.200    8.000    4.200    0.000    2.400 
#    0.000    0.000    0.000    0.000    0.000    0.000 
#    0.000    0.000    0.000    0.000    0.000   24.000 
#
# Total GULP energy -495529.870661 kJ/mol
# GULP energy per Si atom -12388.246767 kJ/mol
# Density = 1.657628 g / cm^3
# Si number density = 16.614096 Si / 1000 Ang^3
#
#
#
# Elastic Constant Matrix: (Units=GPa)
#
#
# Indices 1 2 3 4 5 6 
#
# 1 26.0267 23.8952 20.7114 0.0000 0.0000 0.0000
# 2 23.8952 72.2613 26.7081 0.0000 0.0000 0.0000
# 3 20.7114 26.7081 180.5883 0.0000 0.0000 0.0000
# 4 0.0000 0.0000 0.0000 18.6637 0.0000 0.0000
# 5 0.0000 0.0000 0.0000 0.0000 19.8311 0.0000
# 6 0.0000 0.0000 0.0000 0.0000 0.0000 0.2842
#
#
#
# Elastic Compliance Matrix: (Units=1/GPa)
#
#
# Indices 1 2 3 4 5 6 
#
# 1 0.057809 -0.017629 -0.004023 0.000000 0.000000 0.000000
# 2 -0.017629 0.020015 -0.000938 0.000000 0.000000 0.000000
# 3 -0.004023 -0.000938 0.006138 0.000000 0.000000 0.000000
# 4 0.000000 0.000000 0.000000 0.053580 0.000000 0.000000
# 5 0.000000 0.000000 0.000000 0.000000 0.050426 0.000000
# 6 0.000000 0.000000 0.000000 0.000000 0.000000 3.518315
#
#
# Mechanical properties :
#
#
# Convention : Reuss Voigt Hill
#
# Bulk Modulus (GPa) = 25.78586 46.83396 36.30991
# Shear Modulus (GPa) = 1.32824 21.59325 11.46074
#
# Velocity S-wave (km/s) = 0.89510 3.60904 2.62929
# Velocity P-wave (km/s) = 4.07706 6.75406 5.57852
#
# Compressibility (1/GPa) = 0.03878095
#
# Stress axis : x y z
#
# Youngs Moduli (GPa) = 17.29841 49.96243 162.93062
#
# Poissons Ratio (x) = 0.88080 0.65543
# Poissons Ratio (y) = 0.30496 0.15287
# Poissons Ratio (z) = 0.06959 0.04688
#
# Static dielectric constant tensor:
#      x y z
#    x 2.886500 0.000000 0.000000 
#    y 0.000000 2.603970 0.000000 
#    z 0.000000 0.000000 -1.408450 
# 
# 
# High freq. dielectric constant tensor:
#      x y z
#    x 1.603070 0.000000 0.000000 
#    y 0.000000 1.572510 0.000000 
#    z 0.000000 0.000000 1.690440 
# 
# From -- ./inp_files/2732.got.cif
#   From: 2010.03.12/outbox.cif.g09.slc.cpg/sg68_2_cif.got.tgz:2732.got - 2010.04.10 23:14:56.
