data_PCOD8281804
_publ_section_title
;
Structure prediction by ZEFSAII (Michael W. Deem and Ramdas Pophale) SiO2 
 PCOD8281804
Probable space group: C C C A
;
_chemical_formula_sum "Si O2"
_cell_formula_units_Z 104
_cell_length_a 17.952631
_cell_length_b 28.455295
_cell_length_c 8.676183
_cell_angle_alpha 90.000000
_cell_angle_beta 90.000000
_cell_angle_gamma 90.000000
_cell_volume 4432.205624
_symmetry_space_group_name_H-M "C C C A"
_symmetry_group_IT_number 68
_space_group.IT_coordinate_system_code '2'
_symmetry_cell_setting 'orthorhombic'
loop_
_space_group_symop_operation_xyz
x,y,z
-x,1/2-y,z
x,1/2-y,1/2-z
-x,y,1/2-z
-x,-y,-z
x,1/2+y,-z
-x,1/2+y,1/2+z
x,-y,1/2+z
1/2+x,1/2+y,z
1/2-x,-y,z
1/2+x,-y,1/2-z
1/2-x,1/2+y,1/2-z
1/2-x,1/2-y,-z
1/2+x,y,-z
1/2-x,y,1/2+z
1/2+x,1/2-y,1/2+z
loop_
_atom_site_type_symbol
_atom_site_label
_atom_site_fract_x
_atom_site_fract_y
_atom_site_fract_z
Si Si1 0.858909 0.937910 0.762625
Si Si2 0.728562 0.375619 0.319585
Si Si3 0.580067 0.020013 0.450765
Si Si4 0.202784 0.312354 0.944622
Si Si5 0.410727 0.131158 0.512528
Si Si6 0.362657 0.229730 0.590689
Si Si7 0.500000 0.412290 0.250000
O O1 0.773086 0.920361 0.747878
O O2 0.884244 0.953590 0.594286
O O3 0.864672 0.979870 0.887424
O O4 0.914201 0.896017 0.823189
O O5 0.788370 0.339236 0.392427
O O6 0.680109 0.349875 0.186028
O O7 0.668835 0.388521 0.449868
O O8 0.568929 0.055769 0.307721
O O9 0.500000 0.000000 0.500000
O O10 0.279216 0.288985 0.886756
O O11 0.139773 0.272151 0.964885
O O12 0.414679 0.187365 0.532534
O O13 0.476691 0.118635 0.396588
O O14 0.394765 0.250000 0.750000
#
# Coordination Sequence:
#
# PCOD8281804 Si02
#       7
#    16  16  16  16  16  16   8
#     4  12  23  45  70 104 137 177 235 296 355 422
#     4  11  22  41  65 107 144 176 225 294 367 419
#     4  12  24  45  76  95 131 186 247 293 345 429
#     4  10  19  34  62  97 141 176 219 272 351 435
#     4  11  25  41  69 104 145 182 242 292 355 431
#     4  10  18  35  64 103 132 183 228 277 343 422
#     4  12  26  48  68 105 132 192 251 294 356 424
#
# _framework density 23.464613
#
# number of rings (size 3 to 8) (size 9 to 14) (size 15 to 20)
#    0.000    0.923    7.692    0.000    2.154    0.000 
#    0.000    6.154    0.000    1.846    0.000    0.000 
#    0.000    0.000    0.000    0.000    0.000    0.000 
#
# Total GULP energy -644700.290629 kJ/mol
# GULP energy per Si atom -12398.082512 kJ/mol
# Density = 2.341121 g / cm^3
# Si number density = 23.464613 Si / 1000 Ang^3
#
#
#
# Elastic Constant Matrix: (Units=GPa)
#
#
# Indices 1 2 3 4 5 6 
#
# 1 38.2879 39.1064 16.8175 0.0000 0.0000 0.0000
# 2 39.1064 149.8126 69.4737 0.0000 0.0000 0.0000
# 3 16.8175 69.4737 130.9136 0.0000 0.0000 0.0000
# 4 0.0000 0.0000 0.0000 51.6843 0.0000 0.0000
# 5 0.0000 0.0000 0.0000 0.0000 29.9803 0.0000
# 6 0.0000 0.0000 0.0000 0.0000 0.0000 27.4105
#
#
#
# Elastic Compliance Matrix: (Units=1/GPa)
#
#
# Indices 1 2 3 4 5 6 
#
# 1 0.035635 -0.009523 0.000476 0.000000 0.000000 0.000000
# 2 -0.009523 0.011399 -0.004826 0.000000 0.000000 0.000000
# 3 0.000476 -0.004826 0.010138 0.000000 0.000000 0.000000
# 4 0.000000 0.000000 0.000000 0.019348 0.000000 0.000000
# 5 0.000000 0.000000 0.000000 0.000000 0.033355 0.000000
# 6 0.000000 0.000000 0.000000 0.000000 0.000000 0.036482
#
#
# Mechanical properties :
#
#
# Convention : Reuss Voigt Hill
#
# Bulk Modulus (GPa) = 33.98251 63.31214 48.64732
# Shear Modulus (GPa) = 27.18684 34.72280 30.95482
#
# Velocity S-wave (km/s) = 3.40756 3.85098 3.63604
# Velocity P-wave (km/s) = 5.47685 6.84207 6.19717
#
# Compressibility (1/GPa) = 0.02942691
#
# Stress axis : x y z
#
# Youngs Moduli (GPa) = 28.06212 87.72968 98.63425
#
# Poissons Ratio (x) = 0.83542 -0.04692
# Poissons Ratio (y) = 0.26723 0.47599
# Poissons Ratio (z) = -0.01335 0.42336
#
# Static dielectric constant tensor:
#      x y z
#    x 3.628960 0.000000 0.000000 
#    y 0.000000 4.596800 0.000000 
#    z 0.000000 0.000000 4.388930 
# 
# 
# High freq. dielectric constant tensor:
#      x y z
#    x 1.866700 0.000000 0.000000 
#    y 0.000000 1.939800 0.000000 
#    z 0.000000 0.000000 1.948030 
# 
# From -- ./inp_files/7370.got.cif
#   From: 2010.03.12/outbox.cif.g09.slc.cpg/sg68_4_cif.got.tgz:7370.got - 2010.04.10 23:14:56.
