data_PCOD8281507
_publ_section_title
;
Structure prediction by ZEFSAII (Michael W. Deem and Ramdas Pophale) SiO2 
 PCOD8281507
Probable space group: C M M A
;
_chemical_formula_sum "Si O2"
_cell_formula_units_Z 64
_cell_length_a 17.450295
_cell_length_b 9.326081
_cell_length_c 18.326370
_cell_angle_alpha 90.000000
_cell_angle_beta 90.000000
_cell_angle_gamma 90.000000
_cell_volume 2982.485952
_symmetry_space_group_name_H-M "C M M A"
_symmetry_group_IT_number 67
_symmetry_cell_setting 'orthorhombic'
loop_
_space_group_symop_operation_xyz
x,y,z
-x,1/2-y,z
x,-y,-z
-x,1/2+y,-z
-x,-y,-z
x,1/2+y,-z
-x,y,z
x,1/2-y,z
1/2+x,1/2+y,z
1/2-x,-y,z
1/2+x,1/2-y,-z
1/2-x,y,-z
1/2-x,1/2-y,-z
1/2+x,y,-z
1/2-x,1/2+y,z
1/2+x,-y,z
loop_
_atom_site_type_symbol
_atom_site_label
_atom_site_fract_x
_atom_site_fract_y
_atom_site_fract_z
Si Si1 0.839432 0.474007 0.339723
Si Si2 0.587325 0.908115 0.192469
Si Si3 0.410851 0.250000 0.389142
Si Si4 0.592079 0.750000 0.445879
Si Si5 0.330357 0.075920 0.073468
O O1 0.750000 0.500000 0.349198
O O2 0.857937 0.400329 0.262909
O O3 0.883527 0.621475 0.339627
O O4 0.872184 0.387927 0.408072
O O5 0.500000 0.937706 0.216866
O O6 0.594162 0.750000 0.155212
O O7 0.611491 0.035066 0.137778
O O8 0.500000 0.250000 0.397859
O O9 0.377407 0.250000 0.471156
O O10 0.500000 0.750000 0.439019
O O11 0.323122 0.250000 0.065998
O O12 0.250000 0.000000 0.092612
O O13 0.361707 0.000000 0.000000
#
# Coordination Sequence:
#
# PCOD8281507 Si02
#       5
#    16  16   8   8  16
#     4  12  25  41  66  96 131 172 222 281 336 398
#     4  11  24  43  67  93 131 179 225 275 337 407
#     4  11  25  41  65  97 130 169 220 279 337 407
#     4  11  23  45  67  89 128 179 222 267 341 411
#     4  11  23  42  70 101 138 177 221 274 332 397
#
# _framework density 21.458608999999999
#
# number of rings (size 3 to 8) (size 9 to 14) (size 15 to 20)
#    0.000    0.750    1.250    7.500    1.750    6.000 
#    0.000    0.000    0.000    0.000    0.000    0.000 
#    0.000    0.000    0.000    0.000    0.000    0.000 
#
# Total GULP energy -396763.251683 kJ/mol
# GULP energy per Si atom -12398.851615 kJ/mol
# Density = 2.140977 g / cm^3
# Si number density = 21.458609 Si / 1000 Ang^3
#
#
#
# Elastic Constant Matrix: (Units=GPa)
#
#
# Indices 1 2 3 4 5 6 
#
# 1 104.0032 30.9187 34.6933 0.0000 0.0000 0.0000
# 2 30.9187 164.3854 27.3582 0.0000 0.0000 0.0000
# 3 34.6933 27.3582 82.0931 0.0000 0.0000 0.0000
# 4 0.0000 0.0000 0.0000 39.6864 0.0000 0.0000
# 5 0.0000 0.0000 0.0000 0.0000 45.2008 0.0000
# 6 0.0000 0.0000 0.0000 0.0000 0.0000 38.5699
#
#
#
# Elastic Compliance Matrix: (Units=1/GPa)
#
#
# Indices 1 2 3 4 5 6 
#
# 1 0.011504 -0.001434 -0.004384 0.000000 0.000000 0.000000
# 2 -0.001434 0.006619 -0.001600 0.000000 0.000000 0.000000
# 3 -0.004384 -0.001600 0.014567 0.000000 0.000000 0.000000
# 4 0.000000 0.000000 0.000000 0.025198 0.000000 0.000000
# 5 0.000000 0.000000 0.000000 0.000000 0.022124 0.000000
# 6 0.000000 0.000000 0.000000 0.000000 0.000000 0.025927
#
#
# Mechanical properties :
#
#
# Convention : Reuss Voigt Hill
#
# Bulk Modulus (GPa) = 56.00748 59.60247 57.80498
# Shear Modulus (GPa) = 39.45555 41.85884 40.65720
#
# Velocity S-wave (km/s) = 4.29264 4.42144 4.35751
# Velocity P-wave (km/s) = 7.12221 7.34175 7.23282
#
# Compressibility (1/GPa) = 0.01785476
#
# Stress axis : x y z
#
# Youngs Moduli (GPa) = 86.92825 151.07412 68.64820
#
# Poissons Ratio (x) = 0.21666 0.30093
# Poissons Ratio (y) = 0.12467 0.10983
# Poissons Ratio (z) = 0.38106 0.24170
#
# Static dielectric constant tensor:
#      x y z
#    x 3.784130 0.000000 0.000000 
#    y 0.000000 3.490130 0.000000 
#    z 0.000000 0.000000 3.857120 
# 
# 
# High freq. dielectric constant tensor:
#      x y z
#    x 1.842970 0.000000 0.000000 
#    y 0.000000 1.859910 0.000000 
#    z 0.000000 0.000000 1.844640 
# 
# From -- ./inp_files/34642.got.cif
#   From: 2010.03.12/outbox.cif.g09.slc.cpg/sg67_18_cif.got.tgz:34642.got - 2010.04.10 22:41:39.
