data_PCOD8281144
_publ_section_title
;
Structure prediction by ZEFSAII (Michael W. Deem and Ramdas Pophale) SiO2 
 PCOD8281144
Probable space group: C M M A
;
_chemical_formula_sum "Si O2"
_cell_formula_units_Z 80
_cell_length_a 18.371719
_cell_length_b 9.606333
_cell_length_c 23.908770
_cell_angle_alpha 90.000000
_cell_angle_beta 90.000000
_cell_angle_gamma 90.000000
_cell_volume 4219.535699
_symmetry_space_group_name_H-M "C M M A"
_symmetry_group_IT_number 67
_symmetry_cell_setting 'orthorhombic'
loop_
_space_group_symop_operation_xyz
x,y,z
-x,1/2-y,z
x,-y,-z
-x,1/2+y,-z
-x,-y,-z
x,1/2+y,-z
-x,y,z
x,1/2-y,z
1/2+x,1/2+y,z
1/2-x,-y,z
1/2+x,1/2-y,-z
1/2-x,y,-z
1/2-x,1/2-y,-z
1/2+x,y,-z
1/2-x,1/2+y,z
1/2+x,-y,z
loop_
_atom_site_type_symbol
_atom_site_label
_atom_site_fract_x
_atom_site_fract_y
_atom_site_fract_z
Si Si1 0.915082 0.409985 0.344300
Si Si2 0.664916 0.522344 0.119890
Si Si3 0.086695 0.909077 0.448180
Si Si4 0.820229 0.594112 0.760127
Si Si5 0.413757 0.250000 0.083208
Si Si6 0.669259 0.750000 0.028064
O O1 0.898293 0.250000 0.361404
O O2 0.885652 0.513392 0.392286
O O3 0.877530 0.453751 0.286464
O O4 0.000000 0.431946 0.334915
O O5 0.750000 0.500000 0.124403
O O6 0.640516 0.588282 0.178985
O O7 0.619856 0.382317 0.113729
O O8 0.652945 0.616384 0.065637
O O9 0.116685 0.750000 0.450308
O O10 0.000000 0.906621 0.450076
O O11 0.116928 0.000000 0.500000
O O12 0.793844 0.750000 0.748570
O O13 0.750000 0.500000 0.756239
O O14 0.500000 0.250000 0.089312
O O15 0.392238 0.250000 0.018572
O O16 0.750000 0.750000 0.000000
#
# Coordination Sequence:
#
# PCOD8281144 Si02
#       6
#    16  16  16  16   8   8
#     4   9  18  34  54  78 111 152 192 235 292 349
#     4  11  22  41  65  89 117 159 206 244 298 370
#     4   9  16  27  47  78 112 148 192 239 288 346
#     4  10  22  38  60  87 114 151 201 246 287 349
#     4  12  28  42  60  98 130 150 191 259 319 355
#     4  12  22  40  68  94 116 160 207 249 298 377
#
# _framework density 18.959430999999999
#
# number of rings (size 3 to 8) (size 9 to 14) (size 15 to 20)
#    0.000    1.800    3.000    1.200    4.200    5.600 
#    0.000    0.000    0.000    0.600    0.000    4.200 
#    0.000    0.000    0.000    0.000    0.000    0.000 
#
# Total GULP energy -495896.228960 kJ/mol
# GULP energy per Si atom -12397.405724 kJ/mol
# Density = 1.891628 g / cm^3
# Si number density = 18.959431 Si / 1000 Ang^3
#
#
#
# Elastic Constant Matrix: (Units=GPa)
#
#
# Indices 1 2 3 4 5 6 
#
# 1 75.7613 45.7666 42.9307 0.0000 0.0000 0.0000
# 2 45.7666 131.4282 68.0264 0.0000 0.0000 0.0000
# 3 42.9307 68.0264 156.4716 0.0000 0.0000 0.0000
# 4 0.0000 0.0000 0.0000 38.2139 0.0000 0.0000
# 5 0.0000 0.0000 0.0000 0.0000 28.2846 0.0000
# 6 0.0000 0.0000 0.0000 0.0000 0.0000 21.2230
#
#
#
# Elastic Compliance Matrix: (Units=1/GPa)
#
#
# Indices 1 2 3 4 5 6 
#
# 1 0.017615 -0.004687 -0.002795 0.000000 0.000000 0.000000
# 2 -0.004687 0.011065 -0.003525 0.000000 0.000000 0.000000
# 3 -0.002795 -0.003525 0.008690 0.000000 0.000000 0.000000
# 4 0.000000 0.000000 0.000000 0.026169 0.000000 0.000000
# 5 0.000000 0.000000 0.000000 0.000000 0.035355 0.000000
# 6 0.000000 0.000000 0.000000 0.000000 0.000000 0.047119
#
#
# Mechanical properties :
#
#
# Convention : Reuss Voigt Hill
#
# Bulk Modulus (GPa) = 65.12004 75.23427 70.17716
# Shear Modulus (GPa) = 28.87757 31.34013 30.10885
#
# Velocity S-wave (km/s) = 3.90696 4.07013 3.98938
# Velocity P-wave (km/s) = 7.40095 7.86485 7.63642
#
# Compressibility (1/GPa) = 0.01535626
#
# Stress axis : x y z
#
# Youngs Moduli (GPa) = 56.77080 90.37327 115.07247
#
# Poissons Ratio (x) = 0.42359 0.32165
# Poissons Ratio (y) = 0.26609 0.40559
# Poissons Ratio (z) = 0.15868 0.31853
#
# Static dielectric constant tensor:
#      x y z
#    x 3.069310 0.000000 0.000000 
#    y 0.000000 3.021360 0.000000 
#    z 0.000000 0.000000 3.998570 
# 
# 
# High freq. dielectric constant tensor:
#      x y z
#    x 1.693950 0.000000 0.000000 
#    y 0.000000 1.750900 0.000000 
#    z 0.000000 0.000000 1.755350 
# 
# From -- ./inp_files/40586.got.cif
#   From: 2010.03.12/outbox.cif.g09.slc.cpg/sg67_21_cif.got.tgz:40586.got - 2010.04.10 22:41:39.
