data_PCOD8281694
_publ_section_title
;
Structure prediction by ZEFSAII (Michael W. Deem and Ramdas Pophale) SiO2 
 PCOD8281694
Probable space group: C C C A
;
_chemical_formula_sum "Si O2"
_cell_formula_units_Z 96
_cell_length_a 29.903144
_cell_length_b 34.399951
_cell_length_c 5.183718
_cell_angle_alpha 90.000000
_cell_angle_beta 90.000000
_cell_angle_gamma 90.000000
_cell_volume 5332.318028
_symmetry_space_group_name_H-M "C C C A"
_symmetry_group_IT_number 68
_space_group.IT_coordinate_system_code '2'
_symmetry_cell_setting 'orthorhombic'
loop_
_space_group_symop_operation_xyz
x,y,z
-x,1/2-y,z
x,1/2-y,1/2-z
-x,y,1/2-z
-x,-y,-z
x,1/2+y,-z
-x,1/2+y,1/2+z
x,-y,1/2+z
1/2+x,1/2+y,z
1/2-x,-y,z
1/2+x,-y,1/2-z
1/2-x,1/2+y,1/2-z
1/2-x,1/2-y,-z
1/2+x,y,-z
1/2-x,y,1/2+z
1/2+x,1/2-y,1/2+z
loop_
_atom_site_type_symbol
_atom_site_label
_atom_site_fract_x
_atom_site_fract_y
_atom_site_fract_z
Si Si1 0.598480 0.973706 0.749999
Si Si2 0.219802 0.250000 0.750000
Si Si3 0.857093 0.190260 0.750000
Si Si4 0.913443 0.707820 0.750000
Si Si5 0.449511 0.872245 0.250000
Si Si6 0.500000 0.474637 0.250000
Si Si7 0.893756 0.390810 0.750000
O O1 0.628701 0.934304 0.750000
O O2 0.607840 1.000000 0.499998
O O3 0.548326 0.953577 0.750000
O O4 0.250000 0.250000 0.500000
O O5 0.191387 0.289992 0.750000
O O6 0.882507 0.204696 0.498904
O O7 0.855386 0.142713 0.750000
O O8 0.882507 0.204696 0.001097
O O9 0.937187 0.750000 0.750000
O O10 0.951269 0.674766 0.750000
O O11 0.500000 0.888612 0.250000
O O12 0.424346 0.887378 0.499238
O O13 0.424346 0.887378 0.000764
O O14 0.500000 0.500000 0.500000
#
# Coordination Sequence:
#
# PCOD8281694 Si02
#       7
#    16   8  16  16  16   8  16
#     4  10  19  32  47  68  92 125 173 217 259 304
#     4  12  22  34  58  88 109 130 157 194 236 304
#     4  10  20  35  52  75 104 133 166 190 246 310
#     4  10  17  32  52  66  94 138 168 206 250 286
#     4  10  21  31  45  69  93 128 180 223 253 289
#     4   8  16  26  38  60  86 115 148 205 262 280
#     4  10  21  35  51  67  97 140 165 214 264 297
#
# _framework density 18.003428
#
# number of rings (size 3 to 8) (size 9 to 14) (size 15 to 20)
#    0.000    2.000    1.667    2.500    2.333    0.333 
#    3.000    0.000    0.000    6.000    0.000    0.000 
#    0.000    4.000    0.000    0.000    0.000    0.000 
#
# Total GULP energy -594642.871601 kJ/mol
# GULP energy per Si atom -12388.393158 kJ/mol
# Density = 1.796245 g / cm^3
# Si number density = 18.003428 Si / 1000 Ang^3
#
#
#
# Elastic Constant Matrix: (Units=GPa)
#
#
# Indices 1 2 3 4 5 6 
#
# 1 55.4777 25.5711 26.1008 0.0000 0.0000 0.0000
# 2 25.5711 174.7645 40.5435 0.0000 0.0000 0.0000
# 3 26.1008 40.5435 157.1228 0.0000 0.0000 0.0000
# 4 0.0000 0.0000 0.0000 17.8942 0.0000 0.0000
# 5 0.0000 0.0000 0.0000 0.0000 18.7896 0.0000
# 6 0.0000 0.0000 0.0000 0.0000 0.0000 18.7848
#
#
#
# Elastic Compliance Matrix: (Units=1/GPa)
#
#
# Indices 1 2 3 4 5 6 
#
# 1 0.020415 -0.002340 -0.002787 0.000000 0.000000 0.000000
# 2 -0.002340 0.006355 -0.001251 0.000000 0.000000 0.000000
# 3 -0.002787 -0.001251 0.007150 0.000000 0.000000 0.000000
# 4 0.000000 0.000000 0.000000 0.055884 0.000000 0.000000
# 5 0.000000 0.000000 0.000000 0.000000 0.053221 0.000000
# 6 0.000000 0.000000 0.000000 0.000000 0.000000 0.053235
#
#
# Mechanical properties :
#
#
# Convention : Reuss Voigt Hill
#
# Bulk Modulus (GPa) = 47.25299 63.53287 55.39293
# Shear Modulus (GPa) = 23.14044 30.77034 26.95539
#
# Velocity S-wave (km/s) = 3.58905 4.13866 3.87361
# Velocity P-wave (km/s) = 6.59383 7.62915 7.13031
#
# Compressibility (1/GPa) = 0.02116268
#
# Stress axis : x y z
#
# Youngs Moduli (GPa) = 48.98245 157.36517 139.85467
#
# Poissons Ratio (x) = 0.36831 0.38984
# Poissons Ratio (y) = 0.11464 0.17495
# Poissons Ratio (z) = 0.13654 0.19685
#
# Static dielectric constant tensor:
#      x y z
#    x 2.919790 0.000000 0.000000 
#    y 0.000000 3.691700 0.000000 
#    z 0.000000 0.000000 3.625540 
# 
# 
# High freq. dielectric constant tensor:
#      x y z
#    x 1.619820 0.000000 0.000000 
#    y 0.000000 1.715530 0.000000 
#    z 0.000000 0.000000 1.732520 
# 
# From -- ./inp_files/2916.got.cif
#   From: 2010.03.12/outbox.cif.g09.slc.cpg/sg68_2_cif.got.tgz:2916.got - 2010.04.10 23:14:56.
