data_PCOD8281323
_publ_section_title
;
Structure prediction by ZEFSAII (Michael W. Deem and Ramdas Pophale) SiO2 
 PCOD8281323
Probable space group: C M M A
;
_chemical_formula_sum "Si O2"
_cell_formula_units_Z 96
_cell_length_a 14.209997
_cell_length_b 27.001755
_cell_length_c 15.424541
_cell_angle_alpha 90.000000
_cell_angle_beta 90.000000
_cell_angle_gamma 90.000000
_cell_volume 5918.317062
_symmetry_space_group_name_H-M "C M M A"
_symmetry_group_IT_number 67
_symmetry_cell_setting 'orthorhombic'
loop_
_space_group_symop_operation_xyz
x,y,z
-x,1/2-y,z
x,-y,-z
-x,1/2+y,-z
-x,-y,-z
x,1/2+y,-z
-x,y,z
x,1/2-y,z
1/2+x,1/2+y,z
1/2-x,-y,z
1/2+x,1/2-y,-z
1/2-x,y,-z
1/2-x,1/2-y,-z
1/2+x,y,-z
1/2-x,1/2+y,z
1/2+x,-y,z
loop_
_atom_site_type_symbol
_atom_site_label
_atom_site_fract_x
_atom_site_fract_y
_atom_site_fract_z
Si Si1 0.611122 0.305519 0.601807
Si Si2 0.395423 0.453289 0.553278
Si Si3 0.603232 0.360292 0.433829
Si Si4 0.752181 0.441441 0.142186
Si Si5 0.275616 0.390069 0.677016
Si Si6 0.103680 0.558451 0.002364
O O1 0.500000 0.310289 0.610564
O O2 0.646329 0.250000 0.621921
O O3 0.640538 0.319467 0.502927
O O4 0.653597 0.343545 0.672099
O O5 0.355896 0.500000 0.500000
O O6 0.500000 0.464584 0.594079
O O7 0.407712 0.410735 0.484489
O O8 0.319241 0.437066 0.625363
O O9 0.500000 0.345289 0.395806
O O10 0.677050 0.368937 0.357884
O O11 0.750000 0.500000 0.164605
O O12 0.757197 0.407804 0.226482
O O13 0.658663 0.425999 0.089411
O O14 0.841599 0.425760 0.084305
O O15 0.000000 0.583030 0.003189
O O16 0.096010 0.500000 0.000000
#
# Coordination Sequence:
#
# PCOD8281323 Si02
#       6
#    16  16  16  16  16  16
#     4   9  18  34  52  68  91 124 166 212 248 278
#     4   9  18  30  41  57  88 127 162 190 225 278
#     4   9  19  31  41  61  89 123 164 197 229 274
#     4   9  19  30  43  72  98 119 158 195 231 288
#     4  11  20  28  47  71  94 124 157 204 239 288
#     4   8  15  32  51  63  88 126 158 193 236 281
#
# _framework density 16.220828000000001
#
# number of rings (size 3 to 8) (size 9 to 14) (size 15 to 20)
#    0.000    2.833    0.000    4.500    2.333    4.000 
#    0.000    0.000    0.000    0.000    0.000    2.333 
#    0.000    1.333    0.000    0.000    0.000    0.000 
#
# Total GULP energy -594792.375894 kJ/mol
# GULP energy per Si atom -12391.507831 kJ/mol
# Density = 1.618391 g / cm^3
# Si number density = 16.220828 Si / 1000 Ang^3
#
#
#
# Elastic Constant Matrix: (Units=GPa)
#
#
# Indices 1 2 3 4 5 6 
#
# 1 106.1842 33.6604 52.4654 0.0000 0.0000 0.0000
# 2 33.6604 72.8160 55.4547 0.0000 0.0000 0.0000
# 3 52.4654 55.4547 106.2907 0.0000 0.0000 0.0000
# 4 0.0000 0.0000 0.0000 18.3728 0.0000 0.0000
# 5 0.0000 0.0000 0.0000 0.0000 12.6683 0.0000
# 6 0.0000 0.0000 0.0000 0.0000 0.0000 16.0701
#
#
#
# Elastic Compliance Matrix: (Units=1/GPa)
#
#
# Indices 1 2 3 4 5 6 
#
# 1 0.012597 -0.001805 -0.005276 0.000000 0.000000 0.000000
# 2 -0.001805 0.023046 -0.011133 0.000000 0.000000 0.000000
# 3 -0.005276 -0.011133 0.017821 0.000000 0.000000 0.000000
# 4 0.000000 0.000000 0.000000 0.054428 0.000000 0.000000
# 5 0.000000 0.000000 0.000000 0.000000 0.078937 0.000000
# 6 0.000000 0.000000 0.000000 0.000000 0.000000 0.062228
#
#
# Mechanical properties :
#
#
# Convention : Reuss Voigt Hill
#
# Bulk Modulus (GPa) = 58.69983 63.16133 60.93058
# Shear Modulus (GPa) = 17.17251 19.00291 18.08771
#
# Velocity S-wave (km/s) = 3.25725 3.42645 3.34292
# Velocity P-wave (km/s) = 7.10019 7.39439 7.24879
#
# Compressibility (1/GPa) = 0.01703583
#
# Stress axis : x y z
#
# Youngs Moduli (GPa) = 79.38619 43.39137 56.11438
#
# Poissons Ratio (x) = 0.07832 0.29606
# Poissons Ratio (y) = 0.14328 0.62471
# Poissons Ratio (z) = 0.41885 0.48307
#
# Static dielectric constant tensor:
#      x y z
#    x 3.789540 0.000000 0.000000 
#    y 0.000000 1.742310 0.000000 
#    z 0.000000 0.000000 2.800330 
# 
# 
# High freq. dielectric constant tensor:
#      x y z
#    x 1.644040 0.000000 0.000000 
#    y 0.000000 1.594290 0.000000 
#    z 0.000000 0.000000 1.588290 
# 
# From -- ./inp_files/27793.got.cif
#   From: 2010.03.12/outbox.cif.g09.slc.cpg/sg67_14_cif.got.tgz:27793.got - 2010.04.10 22:41:39.
