data_PCOD8281202
_publ_section_title
;
Structure prediction by ZEFSAII (Michael W. Deem and Ramdas Pophale) SiO2 
 PCOD8281202
Probable space group: C M M A
;
_chemical_formula_sum "Si O2"
_cell_formula_units_Z 80
_cell_length_a 18.727842
_cell_length_b 22.003862
_cell_length_c 9.736628
_cell_angle_alpha 90.000000
_cell_angle_beta 90.000000
_cell_angle_gamma 90.000000
_cell_volume 4012.316898
_symmetry_space_group_name_H-M "C M M A"
_symmetry_group_IT_number 67
_symmetry_cell_setting 'orthorhombic'
loop_
_space_group_symop_operation_xyz
x,y,z
-x,1/2-y,z
x,-y,-z
-x,1/2+y,-z
-x,-y,-z
x,1/2+y,-z
-x,y,z
x,1/2-y,z
1/2+x,1/2+y,z
1/2-x,-y,z
1/2+x,1/2-y,-z
1/2-x,y,-z
1/2-x,1/2-y,-z
1/2+x,y,-z
1/2-x,1/2+y,z
1/2+x,-y,z
loop_
_atom_site_type_symbol
_atom_site_label
_atom_site_fract_x
_atom_site_fract_y
_atom_site_fract_z
Si Si1 0.705965 0.861448 0.865823
Si Si2 0.718345 0.067156 0.636565
Si Si3 0.308459 0.250000 0.311883
Si Si4 0.079184 0.428866 0.993505
Si Si5 0.080470 0.878576 0.703060
Si Si6 0.143229 0.750000 0.613618
O O1 0.762295 0.897355 0.773416
O O2 0.671697 0.806761 0.782123
O O3 0.750000 0.840166 0.000000
O O4 0.638927 0.903990 0.893035
O O5 0.750000 0.099670 0.500000
O O6 0.632204 0.072762 0.625510
O O7 0.750000 0.000000 0.643899
O O8 0.224574 0.250000 0.339981
O O9 0.357737 0.250000 0.447587
O O10 0.084103 0.393221 0.136332
O O11 0.000000 0.418830 0.930868
O O12 0.095438 0.500000 0.000000
O O13 0.104536 0.809354 0.674362
O O14 0.000000 0.887820 0.647486
#
# Coordination Sequence:
#
# PCOD8281202 Si02
#       6
#    16  16   8  16  16   8
#     4  12  22  37  64  94 123 165 219 267 322 384
#     4  11  23  40  62  94 128 170 219 269 321 385
#     4  11  23  38  63  90 132 160 216 272 320 369
#     4  10  22  40  62  93 131 168 210 267 329 384
#     4  11  22  40  65  94 127 171 220 263 320 390
#     4  11  21  42  63  92 124 181 213 259 317 391
#
# _framework density 19.938604000000002
#
# number of rings (size 3 to 8) (size 9 to 14) (size 15 to 20)
#    0.000    1.000    4.000    3.000    0.000    0.800 
#    0.000    8.500    0.000    0.000    0.000    0.000 
#    0.000    0.000    0.000    0.000    0.000    0.000 
#
# Total GULP energy -495876.091729 kJ/mol
# GULP energy per Si atom -12396.902293 kJ/mol
# Density = 1.989322 g / cm^3
# Si number density = 19.938604 Si / 1000 Ang^3
#
#
#
# Elastic Constant Matrix: (Units=GPa)
#
#
# Indices 1 2 3 4 5 6 
#
# 1 145.2367 62.8941 37.3319 0.0000 0.0000 0.0000
# 2 62.8941 131.0371 47.6451 0.0000 0.0000 0.0000
# 3 37.3319 47.6451 111.8938 0.0000 0.0000 0.0000
# 4 0.0000 0.0000 0.0000 30.7869 0.0000 0.0000
# 5 0.0000 0.0000 0.0000 0.0000 20.7607 0.0000
# 6 0.0000 0.0000 0.0000 0.0000 0.0000 -243.6322
#
#
#
# Elastic Compliance Matrix: (Units=1/GPa)
#
#
# Indices 1 2 3 4 5 6 
#
# 1 0.008862 -0.003761 -0.001355 0.000000 0.000000 0.000000
# 2 -0.003761 0.010625 -0.003270 0.000000 0.000000 0.000000
# 3 -0.001355 -0.003270 0.010781 0.000000 0.000000 0.000000
# 4 0.000000 0.000000 0.000000 0.032481 0.000000 0.000000
# 5 0.000000 0.000000 0.000000 0.000000 0.048168 0.000000
# 6 0.000000 0.000000 0.000000 0.000000 0.000000 -0.004105
#
#
# Mechanical properties :
#
#
# Convention : Reuss Voigt Hill
#
# Bulk Modulus (GPa) = 74.08796 75.99000 75.03898
# Shear Modulus (GPa) = 39.03665 -22.39717 8.31974
#
# Velocity S-wave (km/s) = 4.42955 -3.35521 2.04493
# Velocity P-wave (km/s) = 7.96241 4.81506 6.57969
#
# Compressibility (1/GPa) = 0.01349747
#
# Stress axis : x y z
#
# Youngs Moduli (GPa) = 112.83725 94.11463 92.75172
#
# Poissons Ratio (x) = 0.35395 0.12572
# Poissons Ratio (y) = 0.42436 0.30326
# Poissons Ratio (z) = 0.15294 0.30772
#
# Static dielectric constant tensor:
#      x y z
#    x 3.907950 0.000000 0.000000 
#    y 0.000000 3.765410 0.000000 
#    z 0.000000 0.000000 3.860560 
# 
# 
# High freq. dielectric constant tensor:
#      x y z
#    x 1.784540 0.000000 0.000000 
#    y 0.000000 1.783030 0.000000 
#    z 0.000000 0.000000 1.776510 
# 
# From -- ./inp_files/11137.got.cif
#   From: 2010.03.12/outbox.cif.g09.slc.cpg/sg67_6_cif.got.tgz:11137.got - 2010.04.10 22:41:39.
