data_PCOD8281999
_publ_section_title
;
Structure prediction by ZEFSAII (Michael W. Deem and Ramdas Pophale) SiO2 
 PCOD8281999
Probable space group: C C C A
;
_chemical_formula_sum "Si O2"
_cell_formula_units_Z 116
_cell_length_a 13.958734
_cell_length_b 18.272674
_cell_length_c 23.539865
_cell_angle_alpha 90.000000
_cell_angle_beta 90.000000
_cell_angle_gamma 90.000000
_cell_volume 6004.157904
_symmetry_space_group_name_H-M "C C C A"
_symmetry_group_IT_number 68
_space_group.IT_coordinate_system_code '2'
_symmetry_cell_setting 'orthorhombic'
loop_
_space_group_symop_operation_xyz
x,y,z
-x,1/2-y,z
x,1/2-y,1/2-z
-x,y,1/2-z
-x,-y,-z
x,1/2+y,-z
-x,1/2+y,1/2+z
x,-y,1/2+z
1/2+x,1/2+y,z
1/2-x,-y,z
1/2+x,-y,1/2-z
1/2-x,1/2+y,1/2-z
1/2-x,1/2-y,-z
1/2+x,y,-z
1/2-x,y,1/2+z
1/2+x,1/2-y,1/2+z
loop_
_atom_site_type_symbol
_atom_site_label
_atom_site_fract_x
_atom_site_fract_y
_atom_site_fract_z
Si Si1 0.837158 0.555792 0.594791
Si Si2 0.841025 0.302420 0.169427
Si Si3 0.745060 0.881799 0.742166
Si Si4 0.894881 0.498036 0.768577
Si Si5 0.500000 0.250000 0.750000
Si Si6 0.554519 0.022861 0.607140
Si Si7 0.819085 0.932553 0.035446
Si Si8 0.693737 0.151425 0.616289
O O1 0.750000 0.500000 0.607657
O O2 0.829151 0.625710 0.633248
O O3 0.831701 0.584851 0.530419
O O4 0.939671 0.519815 0.608683
O O5 0.756972 0.310050 0.217693
O O6 0.937555 0.300187 0.207641
O O7 0.834459 0.236394 0.124297
O O8 0.641493 0.918519 0.752769
O O9 0.758802 0.866871 0.676167
O O10 0.827827 0.940118 0.758803
O O11 0.892817 0.495592 0.836391
O O12 0.000000 0.516460 0.750000
O O13 0.598158 0.105260 0.598486
O O14 0.579877 0.961860 0.559652
O O15 0.775030 0.861463 0.067825
O O16 0.750000 0.000000 0.048038
#
# Coordination Sequence:
#
# PCOD8281999 Si02
#       8
#    16  16  16  16   4  16  16  16
#     4  11  25  38  55  89 121 153 191 242 298 344
#     4  12  24  36  57  87 127 149 187 241 301 353
#     4  10  20  35  54  87 117 150 195 237 294 357
#     4  10  20  31  56  87 115 152 192 241 295 350
#     4  12  24  40  60  92 118 156 192 250 302 348
#     4  10  19  36  63  85 112 148 197 243 286 343
#     4   9  19  39  64  85 112 150 199 244 287 349
#     4  10  19  39  62  87 112 151 196 240 295 352
#
# _framework density 19.319945000000001
#
# number of rings (size 3 to 8) (size 9 to 14) (size 15 to 20)
#    0.000    1.655    2.759    2.069    6.759    0.552 
#    0.000    0.000    0.000    5.793    0.000    0.000 
#    0.000    0.000    0.000    0.000    0.000    0.000 
#
# Total GULP energy -718527.474597 kJ/mol
# GULP energy per Si atom -12388.404734 kJ/mol
# Density = 1.927597 g / cm^3
# Si number density = 19.319945 Si / 1000 Ang^3
#
#
#
# Elastic Constant Matrix: (Units=GPa)
#
#
# Indices 1 2 3 4 5 6 
#
# 1 84.4705 48.1467 19.8041 0.0000 0.0000 0.0000
# 2 48.1467 92.6847 56.9766 0.0000 0.0000 0.0000
# 3 19.8041 56.9766 92.9823 0.0000 0.0000 0.0000
# 4 0.0000 0.0000 0.0000 24.4925 0.0000 0.0000
# 5 0.0000 0.0000 0.0000 0.0000 26.9286 0.0000
# 6 0.0000 0.0000 0.0000 0.0000 0.0000 23.8603
#
#
#
# Elastic Compliance Matrix: (Units=1/GPa)
#
#
# Indices 1 2 3 4 5 6 
#
# 1 0.017300 -0.010784 0.002923 0.000000 0.000000 0.000000
# 2 -0.010784 0.024032 -0.012429 0.000000 0.000000 0.000000
# 3 0.002923 -0.012429 0.017748 0.000000 0.000000 0.000000
# 4 0.000000 0.000000 0.000000 0.040829 0.000000 0.000000
# 5 0.000000 0.000000 0.000000 0.000000 0.037135 0.000000
# 6 0.000000 0.000000 0.000000 0.000000 0.000000 0.041911
#
#
# Mechanical properties :
#
#
# Convention : Reuss Voigt Hill
#
# Bulk Modulus (GPa) = 54.05220 57.77693 55.91456
# Shear Modulus (GPa) = 22.15335 24.73694 23.44515
#
# Velocity S-wave (km/s) = 3.38991 3.58213 3.48734
# Velocity P-wave (km/s) = 6.58484 6.86142 6.72455
#
# Compressibility (1/GPa) = 0.01850064
#
# Stress axis : x y z
#
# Youngs Moduli (GPa) = 57.80504 41.61202 56.34368
#
# Poissons Ratio (x) = 0.44873 -0.16471
# Poissons Ratio (y) = 0.62334 0.70030
# Poissons Ratio (z) = -0.16898 0.51720
#
# Static dielectric constant tensor:
#      x y z
#    x 3.511560 0.000000 0.000000 
#    y 0.000000 3.611920 0.000000 
#    z 0.000000 0.000000 3.877900 
# 
# 
# High freq. dielectric constant tensor:
#      x y z
#    x 1.739850 0.000000 0.000000 
#    y 0.000000 1.731120 0.000000 
#    z 0.000000 0.000000 1.761910 
# 
# From -- ./inp_files/45672.got.cif
#   From: 2010.03.12/outbox.cif.g09.slc.cpg/sg68_23_cif.got.tgz:45672.got - 2010.04.10 23:14:56.
