data_PCOD8281665
_publ_section_title
;
Structure prediction by ZEFSAII (Michael W. Deem and Ramdas Pophale) SiO2 
 PCOD8281665
Probable space group: C C C A
;
_chemical_formula_sum "Si O2"
_cell_formula_units_Z 56
_cell_length_a 5.250777
_cell_length_b 14.597566
_cell_length_c 30.815256
_cell_angle_alpha 90.000000
_cell_angle_beta 90.000000
_cell_angle_gamma 90.000000
_cell_volume 2361.945116
_symmetry_space_group_name_H-M "C C C A"
_symmetry_group_IT_number 68
_space_group.IT_coordinate_system_code '2'
_symmetry_cell_setting 'orthorhombic'
loop_
_space_group_symop_operation_xyz
x,y,z
-x,1/2-y,z
x,1/2-y,1/2-z
-x,y,1/2-z
-x,-y,-z
x,1/2+y,-z
-x,1/2+y,1/2+z
x,-y,1/2+z
1/2+x,1/2+y,z
1/2-x,-y,z
1/2+x,-y,1/2-z
1/2-x,1/2+y,1/2-z
1/2-x,1/2-y,-z
1/2+x,y,-z
1/2-x,y,1/2+z
1/2+x,1/2-y,1/2+z
loop_
_atom_site_type_symbol
_atom_site_label
_atom_site_fract_x
_atom_site_fract_y
_atom_site_fract_z
Si Si1 0.975249 0.642471 0.158624
Si Si2 0.472644 0.353829 0.616122
Si Si3 0.500000 0.558666 0.750000
Si Si4 0.816370 0.647574 0.982990
O O1 0.737968 0.599244 0.131294
O O2 0.000000 0.750000 0.149977
O O3 0.235885 0.597185 0.140381
O O4 0.937427 0.622701 0.209201
O O5 0.500000 0.250000 0.632447
O O6 0.425144 0.356476 0.565063
O O7 0.750000 0.500000 0.760487
O O8 0.750000 0.750000 0.000000
O O9 0.539045 0.598957 0.987550
#
# Coordination Sequence:
#
# PCOD8281665 Si02
#       4
#    16  16   8  16
#     4  10  22  37  59  85 118 152 189 236 305 344
#     4  10  18  30  49  80 118 160 180 231 280 355
#     4  12  25  44  65  84 112 150 204 246 289 356
#     4  10  17  24  42  71 118 162 185 213 281 339
#
# _framework density 23.709271000000001
#
# number of rings (size 3 to 8) (size 9 to 14) (size 15 to 20)
#    0.000    1.714    2.857    3.857    8.000    0.000 
#    0.000    5.714    0.000    0.000    0.000    0.000 
#    0.000   80.000    0.000    0.000    0.000    0.000 
#
# Total GULP energy -346898.137779 kJ/mol
# GULP energy per Si atom -12389.219206 kJ/mol
# Density = 2.365531 g / cm^3
# Si number density = 23.709271 Si / 1000 Ang^3
#
#
#
# Elastic Constant Matrix: (Units=GPa)
#
#
# Indices 1 2 3 4 5 6 
#
# 1 286.4981 12.9519 94.5152 0.0000 0.0000 0.0000
# 2 12.9519 14.4442 7.2606 0.0000 0.0000 0.0000
# 3 94.5152 7.2606 187.5472 0.0000 0.0000 0.0000
# 4 0.0000 0.0000 0.0000 7.1073 0.0000 0.0000
# 5 0.0000 0.0000 0.0000 0.0000 51.0879 0.0000
# 6 0.0000 0.0000 0.0000 0.0000 0.0000 4.9233
#
#
#
# Elastic Compliance Matrix: (Units=1/GPa)
#
#
# Indices 1 2 3 4 5 6 
#
# 1 0.004296 -0.002819 -0.002056 0.000000 0.000000 0.000000
# 2 -0.002819 0.072456 -0.001384 0.000000 0.000000 0.000000
# 3 -0.002056 -0.001384 0.006422 0.000000 0.000000 0.000000
# 4 0.000000 0.000000 0.000000 0.140701 0.000000 0.000000
# 5 0.000000 0.000000 0.000000 0.000000 0.019574 0.000000
# 6 0.000000 0.000000 0.000000 0.000000 0.000000 0.203118
#
#
# Mechanical properties :
#
#
# Convention : Reuss Voigt Hill
#
# Bulk Modulus (GPa) = 14.15327 79.77165 46.96246
# Shear Modulus (GPa) = 10.35976 37.54114 23.95045
#
# Velocity S-wave (km/s) = 2.09260 3.98351 3.18177
# Velocity P-wave (km/s) = 3.43818 7.40787 5.77485
#
# Compressibility (1/GPa) = 0.07065506
#
# Stress axis : x y z
#
# Youngs Moduli (GPa) = 232.76927 13.80154 155.72262
#
# Poissons Ratio (x) = 0.03890 0.32015
# Poissons Ratio (y) = 0.65614 0.21559
# Poissons Ratio (z) = 0.47855 0.01911
#
# Static dielectric constant tensor:
#      x y z
#    x 11.612650 0.000000 0.000000 
#    y 0.000000 3.686290 0.000000 
#    z 0.000000 0.000000 4.061030 
# 
# 
# High freq. dielectric constant tensor:
#      x y z
#    x 1.984670 0.000000 0.000000 
#    y 0.000000 1.884960 0.000000 
#    z 0.000000 0.000000 1.936500 
# 
# From -- ./inp_files/48008.got.cif
#   From: 2010.03.12/outbox.cif.g09.slc.cpg/sg68_25_cif.got.tgz:48008.got - 2010.04.10 23:14:56.
