data_PCOD8281970
_publ_section_title
;
Structure prediction by ZEFSAII (Michael W. Deem and Ramdas Pophale) SiO2 
 PCOD8281970
Probable space group: C C C A
;
_chemical_formula_sum "Si O2"
_cell_formula_units_Z 56
_cell_length_a 9.538798
_cell_length_b 15.626488
_cell_length_c 17.686102
_cell_angle_alpha 90.000000
_cell_angle_beta 90.000000
_cell_angle_gamma 90.000000
_cell_volume 2636.253444
_symmetry_space_group_name_H-M "C C C A"
_symmetry_group_IT_number 68
_space_group.IT_coordinate_system_code '2'
_symmetry_cell_setting 'orthorhombic'
loop_
_space_group_symop_operation_xyz
x,y,z
-x,1/2-y,z
x,1/2-y,1/2-z
-x,y,1/2-z
-x,-y,-z
x,1/2+y,-z
-x,1/2+y,1/2+z
x,-y,1/2+z
1/2+x,1/2+y,z
1/2-x,-y,z
1/2+x,-y,1/2-z
1/2-x,1/2+y,1/2-z
1/2-x,1/2-y,-z
1/2+x,y,-z
1/2-x,y,1/2+z
1/2+x,1/2-y,1/2+z
loop_
_atom_site_type_symbol
_atom_site_label
_atom_site_fract_x
_atom_site_fract_y
_atom_site_fract_z
Si Si1 0.750000 0.500000 0.321379
Si Si2 0.256890 0.399289 0.928441
Si Si3 0.442483 0.571835 0.054401
Si Si4 0.159661 0.840687 0.226526
O O1 0.615167 0.522835 0.372042
O O2 0.765859 0.582079 0.268898
O O3 0.250000 0.500000 0.910939
O O4 0.421268 0.369179 0.927392
O O5 0.174611 0.348823 0.863601
O O6 0.182026 0.377930 0.009539
O O7 0.500000 0.500000 0.000000
O O8 0.229020 0.750000 0.250000
O O9 0.000000 0.841111 0.250000
#
# Coordination Sequence:
#
# PCOD8281970 Si02
#       4
#     8  16  16  16
#     4  12  22  38  70  94 128 176 218 276 328 382
#     4  10  19  38  64  94 125 169 215 267 323 387
#     4  10  19  35  65  95 125 168 220 262 327 388
#     4  11  25  42  66  97 135 174 220 265 329 394
#
# _framework density 21.242267999999999
#
# number of rings (size 3 to 8) (size 9 to 14) (size 15 to 20)
#    0.000    1.429    5.714    3.429    0.000    0.000 
#    0.000    4.286    6.286    0.000    0.000    0.000 
#    0.000    0.000    0.000    0.000    0.000    0.000 
#
# Total GULP energy -347033.340939 kJ/mol
# GULP energy per Si atom -12394.047891 kJ/mol
# Density = 2.119392 g / cm^3
# Si number density = 21.242268 Si / 1000 Ang^3
#
#
#
# Elastic Constant Matrix: (Units=GPa)
#
#
# Indices 1 2 3 4 5 6 
#
# 1 134.2339 21.0504 30.8979 0.0000 0.0000 0.0000
# 2 21.0504 102.6861 39.2463 0.0000 0.0000 0.0000
# 3 30.8979 39.2463 99.5870 0.0000 0.0000 0.0000
# 4 0.0000 0.0000 0.0000 12.3260 0.0000 0.0000
# 5 0.0000 0.0000 0.0000 0.0000 40.8033 0.0000
# 6 0.0000 0.0000 0.0000 0.0000 0.0000 14.4724
#
#
#
# Elastic Compliance Matrix: (Units=1/GPa)
#
#
# Indices 1 2 3 4 5 6 
#
# 1 0.008081 -0.000822 -0.002183 0.000000 0.000000 0.000000
# 2 -0.000822 0.011549 -0.004296 0.000000 0.000000 0.000000
# 3 -0.002183 -0.004296 0.012412 0.000000 0.000000 0.000000
# 4 0.000000 0.000000 0.000000 0.081129 0.000000 0.000000
# 5 0.000000 0.000000 0.000000 0.000000 0.024508 0.000000
# 6 0.000000 0.000000 0.000000 0.000000 0.000000 0.069097
#
#
# Mechanical properties :
#
#
# Convention : Reuss Voigt Hill
#
# Bulk Modulus (GPa) = 57.34365 57.65513 57.49939
# Shear Modulus (GPa) = 22.00777 29.87450 25.94114
#
# Velocity S-wave (km/s) = 3.22224 3.75423 3.49836
# Velocity P-wave (km/s) = 6.39511 6.78181 6.59130
#
# Compressibility (1/GPa) = 0.01743872
#
# Stress axis : x y z
#
# Youngs Moduli (GPa) = 123.74470 86.58782 80.56746
#
# Poissons Ratio (x) = 0.07119 0.17590
# Poissons Ratio (y) = 0.10174 0.34614
# Poissons Ratio (z) = 0.27017 0.37200
#
# Static dielectric constant tensor:
#      x y z
#    x 5.127540 0.000000 0.000000 
#    y 0.000000 2.049900 0.000000 
#    z 0.000000 0.000000 4.156310 
# 
# 
# High freq. dielectric constant tensor:
#      x y z
#    x 1.845860 0.000000 0.000000 
#    y 0.000000 1.787610 0.000000 
#    z 0.000000 0.000000 1.843090 
# 
# From -- ./inp_files/27683.got.cif
#   From: 2010.03.12/outbox.cif.g09.slc.cpg/sg68_14_cif.got.tgz:27683.got - 2010.04.10 23:14:56.
