data_PCOD8281324
_publ_section_title
;
Structure prediction by ZEFSAII (Michael W. Deem and Ramdas Pophale) SiO2 
 PCOD8281324
Probable space group: C M M A
;
_chemical_formula_sum "Si O2"
_cell_formula_units_Z 80
_cell_length_a 8.794521
_cell_length_b 31.071916
_cell_length_c 19.051622
_cell_angle_alpha 90.000000
_cell_angle_beta 90.000000
_cell_angle_gamma 90.000000
_cell_volume 5206.096101
_symmetry_space_group_name_H-M "C M M A"
_symmetry_group_IT_number 67
_symmetry_cell_setting 'orthorhombic'
loop_
_space_group_symop_operation_xyz
x,y,z
-x,1/2-y,z
x,-y,-z
-x,1/2+y,-z
-x,-y,-z
x,1/2+y,-z
-x,y,z
x,1/2-y,z
1/2+x,1/2+y,z
1/2-x,-y,z
1/2+x,1/2-y,-z
1/2-x,y,-z
1/2-x,1/2-y,-z
1/2+x,y,-z
1/2-x,1/2+y,z
1/2+x,-y,z
loop_
_atom_site_type_symbol
_atom_site_label
_atom_site_fract_x
_atom_site_fract_y
_atom_site_fract_z
Si Si1 0.179227 0.298510 0.072927
Si Si2 0.828896 0.410863 0.700071
Si Si3 0.319573 0.453894 0.573271
Si Si4 0.829060 0.543768 0.163336
Si Si5 0.820339 0.628149 0.823306
O O1 0.232895 0.250000 0.091013
O O2 0.235368 0.329667 0.135144
O O3 0.000000 0.301161 0.064635
O O4 0.250000 0.314332 0.000000
O O5 0.725576 0.419586 0.632478
O O6 0.831177 0.452841 0.751272
O O7 0.755950 0.371462 0.745435
O O8 0.000000 0.398806 0.676457
O O9 0.500000 0.457819 0.567140
O O10 0.250000 0.500000 0.593161
O O11 0.250000 0.437490 0.500000
O O12 0.750000 0.500000 0.138679
O O13 0.736315 0.585371 0.134366
O O14 0.000000 0.544604 0.133109
O O15 0.000000 0.626536 0.814933
#
# Coordination Sequence:
#
# PCOD8281324 Si02
#       5
#    16  16  16  16  16
#     4   9  18  32  51  74  98 123 149 180 224 279
#     4   9  18  29  42  60  84 115 153 191 226 267
#     4  11  20  29  41  58  85 119 156 195 234 272
#     4   9  17  26  41  61  84 113 148 185 221 260
#     4   9  17  29  45  66  91 119 152 188 226 268
#
# _framework density 15.366600999999999
#
# number of rings (size 3 to 8) (size 9 to 14) (size 15 to 20)
#    1.200    1.400    0.000    4.200    0.000    3.200 
#    0.000    0.000    0.000    0.600    0.000    4.200 
#    0.000    0.800    0.000    2.200    0.000    3.200 
#
# Total GULP energy -495624.592878 kJ/mol
# GULP energy per Si atom -12390.614822 kJ/mol
# Density = 1.533163 g / cm^3
# Si number density = 15.366601 Si / 1000 Ang^3
#
#
#
# Elastic Constant Matrix: (Units=GPa)
#
#
# Indices 1 2 3 4 5 6 
#
# 1 103.9118 34.4140 38.9783 0.0000 0.0000 0.0000
# 2 34.4140 77.3877 52.6277 0.0000 0.0000 0.0000
# 3 38.9783 52.6277 86.8362 0.0000 0.0000 0.0000
# 4 0.0000 0.0000 0.0000 20.7639 0.0000 0.0000
# 5 0.0000 0.0000 0.0000 0.0000 23.2307 0.0000
# 6 0.0000 0.0000 0.0000 0.0000 0.0000 18.3842
#
#
#
# Elastic Compliance Matrix: (Units=1/GPa)
#
#
# Indices 1 2 3 4 5 6 
#
# 1 0.011925 -0.002829 -0.003639 0.000000 0.000000 0.000000
# 2 -0.002829 0.022653 -0.012459 0.000000 0.000000 0.000000
# 3 -0.003639 -0.012459 0.020700 0.000000 0.000000 0.000000
# 4 0.000000 0.000000 0.000000 0.048160 0.000000 0.000000
# 5 0.000000 0.000000 0.000000 0.000000 0.043047 0.000000
# 6 0.000000 0.000000 0.000000 0.000000 0.000000 0.054394
#
#
# Mechanical properties :
#
#
# Convention : Reuss Voigt Hill
#
# Bulk Modulus (GPa) = 57.38771 57.79729 57.59250
# Shear Modulus (GPa) = 20.44651 21.95015 21.19833
#
# Velocity S-wave (km/s) = 3.65167 3.78356 3.71820
# Velocity P-wave (km/s) = 7.43010 7.53532 7.48290
#
# Compressibility (1/GPa) = 0.01742533
#
# Stress axis : x y z
#
# Youngs Moduli (GPa) = 83.85588 44.14489 48.30892
#
# Poissons Ratio (x) = 0.12487 0.17577
# Poissons Ratio (y) = 0.23720 0.60189
# Poissons Ratio (z) = 0.30511 0.55001
#
# Static dielectric constant tensor:
#      x y z
#    x 2.988680 0.000000 0.000000 
#    y 0.000000 2.766570 0.000000 
#    z 0.000000 0.000000 2.773130 
# 
# 
# High freq. dielectric constant tensor:
#      x y z
#    x 1.607230 0.000000 0.000000 
#    y 0.000000 1.552500 0.000000 
#    z 0.000000 0.000000 1.564810 
# 
# From -- ./inp_files/37372.got.cif
#   From: 2010.03.12/outbox.cif.g09.slc.cpg/sg67_19_cif.got.tgz:37372.got - 2010.04.10 22:41:39.
