data_PCOD8281875
_publ_section_title
;
Structure prediction by ZEFSAII (Michael W. Deem and Ramdas Pophale) SiO2 
 PCOD8281875
Probable space group: C C C A
;
_chemical_formula_sum "Si O2"
_cell_formula_units_Z 104
_cell_length_a 27.919585
_cell_length_b 19.399856
_cell_length_c 9.009119
_cell_angle_alpha 90.000000
_cell_angle_beta 90.000000
_cell_angle_gamma 90.000000
_cell_volume 4879.662535
_symmetry_space_group_name_H-M "C C C A"
_symmetry_group_IT_number 68
_space_group.IT_coordinate_system_code '2'
_symmetry_cell_setting 'orthorhombic'
loop_
_space_group_symop_operation_xyz
x,y,z
-x,1/2-y,z
x,1/2-y,1/2-z
-x,y,1/2-z
-x,-y,-z
x,1/2+y,-z
-x,1/2+y,1/2+z
x,-y,1/2+z
1/2+x,1/2+y,z
1/2-x,-y,z
1/2+x,-y,1/2-z
1/2-x,1/2+y,1/2-z
1/2-x,1/2-y,-z
1/2+x,y,-z
1/2-x,y,1/2+z
1/2+x,1/2-y,1/2+z
loop_
_atom_site_type_symbol
_atom_site_label
_atom_site_fract_x
_atom_site_fract_y
_atom_site_fract_z
Si Si1 0.956922 0.954608 0.651531
Si Si2 0.956808 0.406631 0.677039
Si Si3 0.352582 0.542771 0.240180
Si Si4 0.822986 0.137957 0.472511
Si Si5 0.216124 0.631946 0.545237
Si Si6 0.695937 0.250000 0.750000
Si Si7 0.353832 0.380177 0.284436
O O1 0.969771 0.942514 0.479412
O O2 0.902752 0.926910 0.676783
O O3 0.000000 0.919562 0.750000
O O4 0.952515 0.034356 0.696709
O O5 0.908107 0.363332 0.665402
O O6 0.000000 0.360478 0.750000
O O7 0.349863 0.570817 0.408678
O O8 0.308137 0.571510 0.142545
O O9 0.347078 0.461255 0.254003
O O10 0.767641 0.113291 0.480096
O O11 0.834555 0.200970 0.359623
O O12 0.843364 0.159609 0.631830
O O13 0.226711 0.700038 0.644155
O O14 0.181625 0.649213 0.407784
#
# Coordination Sequence:
#
# PCOD8281875 Si02
#       7
#    16  16  16  16  16   8  16
#     4  10  19  32  54  80 120 165 196 232 277 336
#     4  10  20  32  53  85 119 159 199 233 279 343
#     4  10  22  36  54  90 131 155 191 228 290 368
#     4  11  24  37  62  83 117 157 195 247 290 345
#     4  11  22  41  58  87 115 155 200 243 295 340
#     4  10  24  44  60  80 111 146 215 260 290 328
#     4  11  22  35  59  90 124 157 191 237 290 359
#
# _framework density 21.312949
#
# number of rings (size 3 to 8) (size 9 to 14) (size 15 to 20)
#    0.000    1.538    1.538    5.077    8.615    4.308 
#    0.000    0.000    0.000    0.000    0.000   20.462 
#    0.000    0.000    0.000    0.000    0.000    0.000 
#
# Total GULP energy -644244.002649 kJ/mol
# GULP energy per Si atom -12389.307743 kJ/mol
# Density = 2.126444 g / cm^3
# Si number density = 21.312949 Si / 1000 Ang^3
#
#
#
# Elastic Constant Matrix: (Units=GPa)
#
#
# Indices 1 2 3 4 5 6 
#
# 1 124.0856 14.2922 41.6091 0.0000 0.0000 0.0000
# 2 14.2922 47.3190 13.2175 0.0000 0.0000 0.0000
# 3 41.6091 13.2175 132.5718 0.0000 0.0000 0.0000
# 4 0.0000 0.0000 0.0000 30.3069 0.0000 0.0000
# 5 0.0000 0.0000 0.0000 0.0000 41.0032 0.0000
# 6 0.0000 0.0000 0.0000 0.0000 0.0000 3.3759
#
#
#
# Elastic Compliance Matrix: (Units=1/GPa)
#
#
# Indices 1 2 3 4 5 6 
#
# 1 0.009192 -0.002027 -0.002683 0.000000 0.000000 0.000000
# 2 -0.002027 0.022186 -0.001576 0.000000 0.000000 0.000000
# 3 -0.002683 -0.001576 0.008542 0.000000 0.000000 0.000000
# 4 0.000000 0.000000 0.000000 0.032996 0.000000 0.000000
# 5 0.000000 0.000000 0.000000 0.000000 0.024388 0.000000
# 6 0.000000 0.000000 0.000000 0.000000 0.000000 0.296220
#
#
# Mechanical properties :
#
#
# Convention : Reuss Voigt Hill
#
# Bulk Modulus (GPa) = 36.56495 49.13489 42.84992
# Shear Modulus (GPa) = 12.04205 30.59435 21.31820
#
# Velocity S-wave (km/s) = 2.37957 3.79289 3.16610
# Velocity P-wave (km/s) = 4.97426 6.50272 5.78916
#
# Compressibility (1/GPa) = 0.02734859
#
# Stress axis : x y z
#
# Youngs Moduli (GPa) = 108.78937 45.07445 117.06510
#
# Poissons Ratio (x) = 0.09136 0.31408
# Poissons Ratio (y) = 0.22051 0.18446
# Poissons Ratio (z) = 0.29188 0.07103
#
# Static dielectric constant tensor:
#      x y z
#    x 4.492900 0.000000 0.000000 
#    y 0.000000 3.391830 0.000000 
#    z 0.000000 0.000000 4.217850 
# 
# 
# High freq. dielectric constant tensor:
#      x y z
#    x 1.842600 0.000000 0.000000 
#    y 0.000000 1.774900 0.000000 
#    z 0.000000 0.000000 1.866150 
# 
# From -- ./inp_files/9611.got.cif
#   From: 2010.03.12/outbox.cif.g09.slc.cpg/sg68_5_cif.got.tgz:9611.got - 2010.04.10 23:14:56.
