data_PCOD8281673
_publ_section_title
;
Structure prediction by ZEFSAII (Michael W. Deem and Ramdas Pophale) SiO2 
 PCOD8281673
Probable space group: C C C A
;
_chemical_formula_sum "Si O2"
_cell_formula_units_Z 88
_cell_length_a 22.831175
_cell_length_b 9.334148
_cell_length_c 23.167952
_cell_angle_alpha 90.000000
_cell_angle_beta 90.000000
_cell_angle_gamma 90.000000
_cell_volume 4937.312207
_symmetry_space_group_name_H-M "C C C A"
_symmetry_group_IT_number 68
_space_group.IT_coordinate_system_code '2'
_symmetry_cell_setting 'orthorhombic'
loop_
_space_group_symop_operation_xyz
x,y,z
-x,1/2-y,z
x,1/2-y,1/2-z
-x,y,1/2-z
-x,-y,-z
x,1/2+y,-z
-x,1/2+y,1/2+z
x,-y,1/2+z
1/2+x,1/2+y,z
1/2-x,-y,z
1/2+x,-y,1/2-z
1/2-x,1/2+y,1/2-z
1/2-x,1/2-y,-z
1/2+x,y,-z
1/2-x,y,1/2+z
1/2+x,1/2-y,1/2+z
loop_
_atom_site_type_symbol
_atom_site_label
_atom_site_fract_x
_atom_site_fract_y
_atom_site_fract_z
Si Si1 0.426448 0.380014 0.053335
Si Si2 0.936389 0.556960 0.053732
Si Si3 0.807700 0.087908 0.259714
Si Si4 0.098807 0.967785 0.833165
Si Si5 0.090660 0.355929 0.340169
Si Si6 0.000000 0.434858 0.250000
O O1 0.407500 0.213930 0.051215
O O2 0.494988 0.413260 0.050588
O O3 0.395627 0.431035 0.111858
O O4 0.404678 0.465349 0.996718
O O5 0.928296 0.467722 0.111854
O O6 0.788156 0.250000 0.250000
O O7 0.842181 0.022789 0.204682
O O8 0.848418 0.083365 0.316100
O O9 0.750000 0.000000 0.272945
O O10 0.093075 0.808302 0.860742
O O11 0.042720 0.021627 0.794336
O O12 0.043856 0.340724 0.288484
#
# Coordination Sequence:
#
# PCOD8281673 Si02
#       6
#    16  16  16  16  16   8
#     4  10  20  32  47  72 104 138 170 203 247 299
#     4  10  20  32  47  72 104 138 170 203 247 299
#     4   9  20  35  53  76 101 134 173 207 251 300
#     4  10  18  31  52  75 100 134 169 205 248 301
#     4  10  18  31  52  75 100 134 169 205 248 301
#     4  10  17  28  49  74 101 130 163 200 247 298
#
# _framework density 17.823464000000001
#
# number of rings (size 3 to 8) (size 9 to 14) (size 15 to 20)
#    0.000    2.182    1.818    3.818    0.000    2.909 
#    0.000    3.636    0.000    1.091    0.000    7.636 
#    0.000    0.000    0.000    0.000    0.000    0.000 
#
# Total GULP energy -545127.173276 kJ/mol
# GULP energy per Si atom -12389.253938 kJ/mol
# Density = 1.778290 g / cm^3
# Si number density = 17.823464 Si / 1000 Ang^3
#
#
#
# Elastic Constant Matrix: (Units=GPa)
#
#
# Indices 1 2 3 4 5 6 
#
# 1 69.4642 25.6935 15.9578 0.0000 0.0000 0.0000
# 2 25.6935 115.9322 63.5906 0.0000 0.0000 0.0000
# 3 15.9578 63.5906 103.8619 0.0000 0.0000 0.0000
# 4 0.0000 0.0000 0.0000 25.3298 0.0000 0.0000
# 5 0.0000 0.0000 0.0000 0.0000 12.1743 0.0000
# 6 0.0000 0.0000 0.0000 0.0000 0.0000 24.8077
#
#
#
# Elastic Compliance Matrix: (Units=1/GPa)
#
#
# Indices 1 2 3 4 5 6 
#
# 1 0.015694 -0.003245 -0.000424 0.000000 0.000000 0.000000
# 2 -0.003245 0.013658 -0.007864 0.000000 0.000000 0.000000
# 3 -0.000424 -0.007864 0.014508 0.000000 0.000000 0.000000
# 4 0.000000 0.000000 0.000000 0.039479 0.000000 0.000000
# 5 0.000000 0.000000 0.000000 0.000000 0.082141 0.000000
# 6 0.000000 0.000000 0.000000 0.000000 0.000000 0.040310
#
#
# Mechanical properties :
#
#
# Convention : Reuss Voigt Hill
#
# Bulk Modulus (GPa) = 48.09254 55.52692 51.80973
# Shear Modulus (GPa) = 21.20545 24.73011 22.96778
#
# Velocity S-wave (km/s) = 3.45302 3.72896 3.59364
# Velocity P-wave (km/s) = 6.55279 7.05419 6.80811
#
# Compressibility (1/GPa) = 0.02079324
#
# Stress axis : x y z
#
# Youngs Moduli (GPa) = 63.71947 73.21459 68.92699
#
# Poissons Ratio (x) = 0.23762 0.02924
# Poissons Ratio (y) = 0.20680 0.54204
# Poissons Ratio (z) = 0.02703 0.57575
#
# Static dielectric constant tensor:
#      x y z
#    x 2.974380 0.000000 0.000000 
#    y 0.000000 3.264260 0.000000 
#    z 0.000000 0.000000 3.360230 
# 
# 
# High freq. dielectric constant tensor:
#      x y z
#    x 1.648490 0.000000 0.000000 
#    y 0.000000 1.687400 0.000000 
#    z 0.000000 0.000000 1.695570 
# 
# From -- ./inp_files/7147.got.cif
#   From: 2010.03.12/outbox.cif.g09.slc.cpg/sg68_4_cif.got.tgz:7147.got - 2010.04.10 23:14:56.
