data_PCOD8281080
_publ_section_title
;
Structure prediction by ZEFSAII (Michael W. Deem and Ramdas Pophale) SiO2 
 PCOD8281080
Probable space group: C M M A
;
_chemical_formula_sum "Si O2"
_cell_formula_units_Z 112
_cell_length_a 15.327782
_cell_length_b 15.501717
_cell_length_c 23.297087
_cell_angle_alpha 90.000000
_cell_angle_beta 90.000000
_cell_angle_gamma 90.000000
_cell_volume 5535.549525
_symmetry_space_group_name_H-M "C M M A"
_symmetry_group_IT_number 67
_symmetry_cell_setting 'orthorhombic'
loop_
_space_group_symop_operation_xyz
x,y,z
-x,1/2-y,z
x,-y,-z
-x,1/2+y,-z
-x,-y,-z
x,1/2+y,-z
-x,y,z
x,1/2-y,z
1/2+x,1/2+y,z
1/2-x,-y,z
1/2+x,1/2-y,-z
1/2-x,y,-z
1/2-x,1/2-y,-z
1/2+x,y,-z
1/2-x,1/2+y,z
1/2+x,-y,z
loop_
_atom_site_type_symbol
_atom_site_label
_atom_site_fract_x
_atom_site_fract_y
_atom_site_fract_z
Si Si1 0.901296 0.849039 0.148404
Si Si2 0.598310 0.151064 0.855160
Si Si3 0.647279 0.999742 0.933951
Si Si4 0.254376 0.851478 0.229937
Si Si5 0.250790 0.847839 0.643532
Si Si6 0.403488 0.889195 0.439963
Si Si7 0.096481 0.092177 0.566039
O O1 0.880855 0.750000 0.129010
O O2 0.890763 0.913074 0.094739
O O3 0.836201 0.878109 0.199353
O O4 0.000000 0.855951 0.172055
O O5 0.500000 0.146984 0.830856
O O6 0.621778 0.250000 0.873281
O O7 0.663293 0.114448 0.806492
O O8 0.606836 0.087852 0.909167
O O9 0.750000 0.000000 0.925098
O O10 0.619798 0.000000 0.000000
O O11 0.263198 0.750000 0.234763
O O12 0.260530 0.892208 0.293843
O O13 0.277334 0.750000 0.652794
O O14 0.163477 0.852608 0.606102
O O15 0.332233 0.891460 0.613684
O O16 0.500000 0.852855 0.424905
O O17 0.377643 0.862347 0.505361
O O18 0.405707 0.990883 0.440483
O O19 0.000000 0.125055 0.584956
#
# Coordination Sequence:
#
# PCOD8281080 Si02
#       7
#    16  16  16  16  16  16  16
#     4  10  21  40  64  85 115 160 199 238 292 345
#     4  10  21  40  64  85 115 160 199 238 292 345
#     4  11  23  39  63  94 125 155 192 241 290 344
#     4   9  20  39  57  79 114 152 191 233 280 342
#     4  11  22  34  55  84 113 144 182 236 292 338
#     4   9  19  37  57  77 108 149 189 230 280 341
#     4   9  19  37  57  77 108 149 189 230 280 341
#
# _framework density 20.232861
#
# number of rings (size 3 to 8) (size 9 to 14) (size 15 to 20)
#    0.000    2.143    1.429    2.143    0.000    5.714 
#    5.143    7.143    0.000    0.000    0.000    0.000 
#    0.000    0.000    0.000    0.000    0.000    0.000 
#
# Total GULP energy -694155.091903 kJ/mol
# GULP energy per Si atom -12395.626641 kJ/mol
# Density = 2.018681 g / cm^3
# Si number density = 20.232861 Si / 1000 Ang^3
#
#
#
# Elastic Constant Matrix: (Units=GPa)
#
#
# Indices 1 2 3 4 5 6 
#
# 1 141.9864 22.8588 73.3428 0.0000 0.0000 0.0000
# 2 22.8588 67.7733 36.3649 0.0000 0.0000 0.0000
# 3 73.3428 36.3649 149.1123 0.0000 0.0000 0.0000
# 4 0.0000 0.0000 0.0000 28.3373 0.0000 0.0000
# 5 0.0000 0.0000 0.0000 0.0000 12.6320 0.0000
# 6 0.0000 0.0000 0.0000 0.0000 0.0000 70.1624
#
#
#
# Elastic Compliance Matrix: (Units=1/GPa)
#
#
# Indices 1 2 3 4 5 6 
#
# 1 0.009479 -0.000800 -0.004467 0.000000 0.000000 0.000000
# 2 -0.000800 0.017044 -0.003763 0.000000 0.000000 0.000000
# 3 -0.004467 -0.003763 0.009821 0.000000 0.000000 0.000000
# 4 0.000000 0.000000 0.000000 0.035289 0.000000 0.000000
# 5 0.000000 0.000000 0.000000 0.000000 0.079164 0.000000
# 6 0.000000 0.000000 0.000000 0.000000 0.000000 0.014253
#
#
# Mechanical properties :
#
#
# Convention : Reuss Voigt Hill
#
# Bulk Modulus (GPa) = 54.69383 69.33389 62.01386
# Shear Modulus (GPa) = 26.42617 37.31338 31.86978
#
# Velocity S-wave (km/s) = 3.61792 4.29907 3.97312
# Velocity P-wave (km/s) = 6.67408 7.68017 7.19473
#
# Compressibility (1/GPa) = 0.01828360
#
# Stress axis : x y z
#
# Youngs Moduli (GPa) = 105.49214 58.67136 101.81821
#
# Poissons Ratio (x) = 0.04695 0.45486
# Poissons Ratio (y) = 0.08441 0.38315
# Poissons Ratio (z) = 0.47128 0.22078
#
# Static dielectric constant tensor:
#      x y z
#    x 4.079930 0.000000 0.000000 
#    y 0.000000 3.587610 0.000000 
#    z 0.000000 0.000000 4.060210 
# 
# 
# High freq. dielectric constant tensor:
#      x y z
#    x 1.804350 0.000000 0.000000 
#    y 0.000000 1.784620 0.000000 
#    z 0.000000 0.000000 1.777370 
# 
# From -- ./inp_files/41990.got.cif
#   From: 2010.03.12/outbox.cif.g09.slc.cpg/sg67_21_cif.got.tgz:41990.got - 2010.04.10 22:41:39.
