data_PCOD8281882
_publ_section_title
;
Structure prediction by ZEFSAII (Michael W. Deem and Ramdas Pophale) SiO2 
 PCOD8281882
Probable space group: C C C A
;
_chemical_formula_sum "Si O2"
_cell_formula_units_Z 104
_cell_length_a 24.707729
_cell_length_b 24.537841
_cell_length_c 8.925195
_cell_angle_alpha 90.000000
_cell_angle_beta 90.000000
_cell_angle_gamma 90.000000
_cell_volume 5411.116580
_symmetry_space_group_name_H-M "C C C A"
_symmetry_group_IT_number 68
_space_group.IT_coordinate_system_code '2'
_symmetry_cell_setting 'orthorhombic'
loop_
_space_group_symop_operation_xyz
x,y,z
-x,1/2-y,z
x,1/2-y,1/2-z
-x,y,1/2-z
-x,-y,-z
x,1/2+y,-z
-x,1/2+y,1/2+z
x,-y,1/2+z
1/2+x,1/2+y,z
1/2-x,-y,z
1/2+x,-y,1/2-z
1/2-x,1/2+y,1/2-z
1/2-x,1/2-y,-z
1/2+x,y,-z
1/2-x,y,1/2+z
1/2+x,1/2-y,1/2+z
loop_
_atom_site_type_symbol
_atom_site_label
_atom_site_fract_x
_atom_site_fract_y
_atom_site_fract_z
Si Si1 0.896914 0.860392 0.420142
Si Si2 0.876142 0.661678 0.422600
Si Si3 0.677183 0.725170 0.499618
Si Si4 0.700668 0.937114 0.559235
Si Si5 0.006082 0.188625 0.926341
Si Si6 0.746743 0.750000 0.750000
Si Si7 0.310764 0.051052 0.088754
O O1 0.884327 0.837666 0.255118
O O2 0.871085 0.815909 0.530881
O O3 0.868092 0.918618 0.443584
O O4 0.959958 0.856773 0.467676
O O5 0.842731 0.713025 0.482633
O O6 0.843391 0.609069 0.478431
O O7 0.937471 0.663591 0.486805
O O8 0.709792 0.708958 0.651673
O O9 0.716697 0.714856 0.360792
O O10 0.703240 0.949387 0.735684
O O11 0.760831 0.920683 0.501000
O O12 0.680897 0.989997 0.468883
O O13 0.000000 0.250000 0.995644
O O14 0.000000 0.195515 0.750000
#
# Coordination Sequence:
#
# PCOD8281882 Si02
#       7
#    16  16  16  16  16   8  16
#     4  10  19  32  56  80 108 140 179 224 266 318
#     4  10  19  32  56  80 108 140 179 224 266 318
#     4  11  20  35  47  82 109 144 171 213 275 322
#     4  10  21  36  54  80 107 141 179 220 268 323
#     4   9  16  30  53  82 108 138 180 223 264 309
#     4  10  24  30  48  74 122 138 174 210 266 338
#     4  10  21  36  54  80 107 141 179 220 268 323
#
# _framework density 19.219694
#
# number of rings (size 3 to 8) (size 9 to 14) (size 15 to 20)
#    0.000    2.000    3.077    1.846    4.308    0.000 
#    2.769    0.769    0.000    1.846    0.000    0.000 
#    0.000    0.000    0.000    0.000    0.000    0.000 
#
# Total GULP energy -644182.965625 kJ/mol
# GULP energy per Si atom -12388.133954 kJ/mol
# Density = 1.917595 g / cm^3
# Si number density = 19.219694 Si / 1000 Ang^3
#
#
#
# Elastic Constant Matrix: (Units=GPa)
#
#
# Indices 1 2 3 4 5 6 
#
# 1 161.4798 65.1429 29.6113 0.0000 0.0000 0.0000
# 2 65.1429 93.4135 22.4234 0.0000 0.0000 0.0000
# 3 29.6113 22.4234 68.5785 0.0000 0.0000 0.0000
# 4 0.0000 0.0000 0.0000 13.2021 0.0000 0.0000
# 5 0.0000 0.0000 0.0000 0.0000 106.4345 0.0000
# 6 0.0000 0.0000 0.0000 0.0000 0.0000 36.0165
#
#
#
# Elastic Compliance Matrix: (Units=1/GPa)
#
#
# Indices 1 2 3 4 5 6 
#
# 1 0.008853 -0.005704 -0.001958 0.000000 0.000000 0.000000
# 2 -0.005704 0.015292 -0.002537 0.000000 0.000000 0.000000
# 3 -0.001958 -0.002537 0.016257 0.000000 0.000000 0.000000
# 4 0.000000 0.000000 0.000000 0.075745 0.000000 0.000000
# 5 0.000000 0.000000 0.000000 0.000000 0.009395 0.000000
# 6 0.000000 0.000000 0.000000 0.000000 0.000000 0.027765
#
#
# Mechanical properties :
#
#
# Convention : Reuss Voigt Hill
#
# Bulk Modulus (GPa) = 49.98945 61.98078 55.98512
# Shear Modulus (GPa) = 27.72061 44.88356 36.30209
#
# Velocity S-wave (km/s) = 3.80189 4.83773 4.35074
# Velocity P-wave (km/s) = 6.73338 7.97016 7.37773
#
# Compressibility (1/GPa) = 0.02000422
#
# Stress axis : x y z
#
# Youngs Moduli (GPa) = 112.96164 65.39556 61.51328
#
# Poissons Ratio (x) = 0.37299 0.12041
# Poissons Ratio (y) = 0.64428 0.15607
# Poissons Ratio (z) = 0.22112 0.16592
#
# Static dielectric constant tensor:
#      x y z
#    x 3.949740 0.000000 0.000000 
#    y 0.000000 3.325970 0.000000 
#    z 0.000000 0.000000 3.331840 
# 
# 
# High freq. dielectric constant tensor:
#      x y z
#    x 1.759110 0.000000 0.000000 
#    y 0.000000 1.727800 0.000000 
#    z 0.000000 0.000000 1.720570 
# 
# From -- ./inp_files/8298.got.cif
#   From: 2010.03.12/outbox.cif.g09.slc.cpg/sg68_5_cif.got.tgz:8298.got - 2010.04.10 23:14:56.
