data_PCOD8281704
_publ_section_title
;
Structure prediction by ZEFSAII (Michael W. Deem and Ramdas Pophale) SiO2 
 PCOD8281704
Probable space group: C C C A
;
_chemical_formula_sum "Si O2"
_cell_formula_units_Z 120
_cell_length_a 18.811613
_cell_length_b 16.368746
_cell_length_c 19.263730
_cell_angle_alpha 90.000000
_cell_angle_beta 90.000000
_cell_angle_gamma 90.000000
_cell_volume 5931.736191
_symmetry_space_group_name_H-M "C C C A"
_symmetry_group_IT_number 68
_space_group.IT_coordinate_system_code '2'
_symmetry_cell_setting 'orthorhombic'
loop_
_space_group_symop_operation_xyz
x,y,z
-x,1/2-y,z
x,1/2-y,1/2-z
-x,y,1/2-z
-x,-y,-z
x,1/2+y,-z
-x,1/2+y,1/2+z
x,-y,1/2+z
1/2+x,1/2+y,z
1/2-x,-y,z
1/2+x,-y,1/2-z
1/2-x,1/2+y,1/2-z
1/2-x,1/2-y,-z
1/2+x,y,-z
1/2-x,y,1/2+z
1/2+x,1/2-y,1/2+z
loop_
_atom_site_type_symbol
_atom_site_label
_atom_site_fract_x
_atom_site_fract_y
_atom_site_fract_z
Si Si1 0.419843 0.776047 0.827443
Si Si2 0.942277 0.868672 0.690531
Si Si3 0.670372 0.250000 0.750000
Si Si4 0.812486 0.170409 0.387640
Si Si5 0.928630 0.215317 0.049542
Si Si6 0.333421 0.998139 0.660736
Si Si7 0.156687 0.844630 0.073098
Si Si8 0.427637 0.451973 0.212567
O O1 0.500000 0.750000 0.844365
O O2 0.397647 0.750000 0.750000
O O3 0.368399 0.732743 0.881958
O O4 0.407287 0.874278 0.835185
O O5 0.872066 0.828638 0.722136
O O6 0.960988 0.827020 0.617923
O O7 0.000000 0.852904 0.750000
O O8 0.937725 0.964420 0.669860
O O9 0.713916 0.283525 0.683455
O O10 0.871483 0.216427 0.431329
O O11 0.853900 0.086878 0.368207
O O12 0.742489 0.159597 0.435339
O O13 0.000000 0.250000 0.011634
O O14 0.885352 0.154053 0.999688
O O15 0.250000 0.000000 0.671837
O O16 0.362126 0.930781 0.607408
O O17 0.366701 0.975350 0.733738
O O18 0.500000 0.424528 0.250000
#
# Coordination Sequence:
#
# PCOD8281704 Si02
#       8
#    16  16   8  16  16  16  16  16
#     4  11  20  37  59  89 121 164 209 257 303 362
#     4  10  20  35  61  91 124 152 194 259 315 365
#     4  10  17  32  60  90 119 148 208 246 312 356
#     4  10  22  39  64  91 123 164 209 260 312 374
#     4  11  24  42  62  91 124 165 204 255 313 381
#     4  10  21  38  61  88 122 164 207 256 311 376
#     4  11  23  40  63  84 129 167 211 247 310 384
#     4  11  20  34  61  92 125 152 203 267 315 356
#
# _framework density 20.230165
#
# number of rings (size 3 to 8) (size 9 to 14) (size 15 to 20)
#    0.000    1.467    4.000    2.600    2.800    0.000 
#    2.400    0.667    0.000    0.000    0.000    0.000 
#    0.000    0.000    0.000    0.000    0.000    0.000 
#
# Total GULP energy -743662.337701 kJ/mol
# GULP energy per Si atom -12394.372295 kJ/mol
# Density = 2.018412 g / cm^3
# Si number density = 20.230165 Si / 1000 Ang^3
#
#
#
# Elastic Constant Matrix: (Units=GPa)
#
#
# Indices 1 2 3 4 5 6 
#
# 1 57.4964 24.7417 33.2399 0.0000 0.0000 0.0000
# 2 24.7417 133.1596 27.5109 0.0000 0.0000 0.0000
# 3 33.2399 27.5109 73.6607 0.0000 0.0000 0.0000
# 4 0.0000 0.0000 0.0000 -30.1643 0.0000 0.0000
# 5 0.0000 0.0000 0.0000 0.0000 29.2363 0.0000
# 6 0.0000 0.0000 0.0000 0.0000 0.0000 17.8443
#
#
#
# Elastic Compliance Matrix: (Units=1/GPa)
#
#
# Indices 1 2 3 4 5 6 
#
# 1 0.024237 -0.002431 -0.010029 0.000000 0.000000 0.000000
# 2 -0.002431 0.008382 -0.002033 0.000000 0.000000 0.000000
# 3 -0.010029 -0.002033 0.018861 0.000000 0.000000 0.000000
# 4 0.000000 0.000000 0.000000 -0.033152 0.000000 0.000000
# 5 0.000000 0.000000 0.000000 0.000000 0.034204 0.000000
# 6 0.000000 0.000000 0.000000 0.000000 0.000000 0.056040
#
#
# Mechanical properties :
#
#
# Convention : Reuss Voigt Hill
#
# Bulk Modulus (GPa) = 44.46010 48.36687 46.41349
# Shear Modulus (GPa) = 34.46955 15.30488 24.88721
#
# Velocity S-wave (km/s) = 4.13227 2.75351 3.51123
# Velocity P-wave (km/s) = 6.69271 5.83689 6.27940
#
# Compressibility (1/GPa) = 0.02249208
#
# Stress axis : x y z
#
# Youngs Moduli (GPa) = 41.25999 119.30901 53.02021
#
# Poissons Ratio (x) = 0.29008 0.53173
# Poissons Ratio (y) = 0.10032 0.10780
# Poissons Ratio (z) = 0.41379 0.24258
#
# Static dielectric constant tensor:
#      x y z
#    x 3.613800 0.000000 0.000000 
#    y 0.000000 4.277510 0.000000 
#    z 0.000000 0.000000 3.540470 
# 
# 
# High freq. dielectric constant tensor:
#      x y z
#    x 1.788350 0.000000 0.000000 
#    y 0.000000 1.805070 0.000000 
#    z 0.000000 0.000000 1.764250 
# 
# From -- ./inp_files/39770.got.cif
#   From: 2010.03.12/outbox.cif.g09.slc.cpg/sg68_20_cif.got.tgz:39770.got - 2010.04.10 23:14:56.
