data_PCOD8281315
_publ_section_title
;
Structure prediction by ZEFSAII (Michael W. Deem and Ramdas Pophale) SiO2 
 PCOD8281315
Probable space group: C M M A
;
_chemical_formula_sum "Si O2"
_cell_formula_units_Z 80
_cell_length_a 14.557225
_cell_length_b 24.297958
_cell_length_c 11.438985
_cell_angle_alpha 90.000000
_cell_angle_beta 90.000000
_cell_angle_gamma 90.000000
_cell_volume 4046.093012
_symmetry_space_group_name_H-M "C M M A"
_symmetry_group_IT_number 67
_symmetry_cell_setting 'orthorhombic'
loop_
_space_group_symop_operation_xyz
x,y,z
-x,1/2-y,z
x,-y,-z
-x,1/2+y,-z
-x,-y,-z
x,1/2+y,-z
-x,y,z
x,1/2-y,z
1/2+x,1/2+y,z
1/2-x,-y,z
1/2+x,1/2-y,-z
1/2-x,y,-z
1/2-x,1/2-y,-z
1/2+x,y,-z
1/2-x,1/2+y,z
1/2+x,-y,z
loop_
_atom_site_type_symbol
_atom_site_label
_atom_site_fract_x
_atom_site_fract_y
_atom_site_fract_z
Si Si1 0.000000 0.815752 0.759009
Si Si2 0.862221 0.890237 0.874812
Si Si3 0.000000 0.590940 0.285062
Si Si4 0.850749 0.750000 0.441559
Si Si5 0.389057 0.250000 0.178530
Si Si6 0.500000 0.838347 0.499247
Si Si7 0.342056 0.133588 0.133289
Si Si8 0.500000 0.482164 0.862792
O O1 0.088930 0.834459 0.831550
O O2 0.000000 0.850442 0.638451
O O3 0.000000 0.750000 0.738498
O O4 0.758591 0.886708 0.829331
O O5 0.910462 0.945915 0.830855
O O6 0.870467 0.896230 0.014526
O O7 0.090695 0.620394 0.238601
O O8 0.000000 0.529053 0.236805
O O9 0.000000 0.604227 0.424906
O O10 0.750000 0.750000 0.500000
O O11 0.838993 0.750000 0.303104
O O12 0.907355 0.695728 0.476058
O O13 0.500000 0.250000 0.190788
O O14 0.350231 0.198331 0.106969
O O15 0.500000 0.500000 0.000000
#
# Coordination Sequence:
#
# PCOD8281315 Si02
#       8
#     8  16   8   8   8   8  16   8
#     4  11  24  39  60  85 136 172 206 253 322 387
#     4  10  25  40  55  96 127 159 216 258 319 395
#     4  12  21  41  66  88 119 164 214 273 318 363
#     4  11  21  36  60  86 127 163 212 259 301 373
#     4  12  22  36  60  93 135 167 209 253 326 394
#     4  11  23  40  56  98 117 164 217 255 310 378
#     4  11  22  37  62  92 130 162 204 261 322 390
#     4  11  21  43  69  88 120 164 214 269 331 364
#
# _framework density 19.77216
#
# number of rings (size 3 to 8) (size 9 to 14) (size 15 to 20)
#    0.000    1.000    7.000    0.600    5.600    1.600 
#    0.000    2.000    0.000    0.000    0.000    5.600 
#    0.000    0.000    0.000    0.000    0.000    0.000 
#
# Total GULP energy -495777.755690 kJ/mol
# GULP energy per Si atom -12394.443892 kJ/mol
# Density = 1.972716 g / cm^3
# Si number density = 19.772160 Si / 1000 Ang^3
#
#
#
# Elastic Constant Matrix: (Units=GPa)
#
#
# Indices 1 2 3 4 5 6 
#
# 1 148.6677 52.4402 46.2942 0.0000 0.0000 0.0000
# 2 52.4402 122.9447 16.7644 0.0000 0.0000 0.0000
# 3 46.2942 16.7644 63.5148 0.0000 0.0000 0.0000
# 4 0.0000 0.0000 0.0000 33.0566 0.0000 0.0000
# 5 0.0000 0.0000 0.0000 0.0000 143.9559 0.0000
# 6 0.0000 0.0000 0.0000 0.0000 0.0000 30.9571
#
#
#
# Elastic Compliance Matrix: (Units=1/GPa)
#
#
# Indices 1 2 3 4 5 6 
#
# 1 0.009874 -0.003351 -0.006312 0.000000 0.000000 0.000000
# 2 -0.003351 0.009575 -0.000085 0.000000 0.000000 0.000000
# 3 -0.006312 -0.000085 0.020368 0.000000 0.000000 0.000000
# 4 0.000000 0.000000 0.000000 0.030251 0.000000 0.000000
# 5 0.000000 0.000000 0.000000 0.000000 0.006947 0.000000
# 6 0.000000 0.000000 0.000000 0.000000 0.000000 0.032303
#
#
# Mechanical properties :
#
#
# Convention : Reuss Voigt Hill
#
# Bulk Modulus (GPa) = 49.21246 62.90276 56.05761
# Shear Modulus (GPa) = 36.87684 56.23581 46.55633
#
# Velocity S-wave (km/s) = 4.32335 5.33888 4.85773
# Velocity P-wave (km/s) = 7.06156 8.35989 7.73800
#
# Compressibility (1/GPa) = 0.02032006
#
# Stress axis : x y z
#
# Youngs Moduli (GPa) = 101.27556 104.44341 49.09725
#
# Poissons Ratio (x) = 0.34998 0.30993
# Poissons Ratio (y) = 0.33936 0.00416
# Poissons Ratio (z) = 0.63930 0.00886
#
# Static dielectric constant tensor:
#      x y z
#    x 3.627170 0.000000 0.000000 
#    y 0.000000 3.581200 0.000000 
#    z 0.000000 0.000000 3.526410 
# 
# 
# High freq. dielectric constant tensor:
#      x y z
#    x 1.779470 0.000000 0.000000 
#    y 0.000000 1.760400 0.000000 
#    z 0.000000 0.000000 1.757760 
# 
# From -- ./inp_files/18075.got.cif
#   From: 2010.03.12/outbox.cif.g09.slc.cpg/sg67_10_cif.got.tgz:18075.got - 2010.04.10 22:41:39.
