data_PCOD8281515
_publ_section_title
;
Structure prediction by ZEFSAII (Michael W. Deem and Ramdas Pophale) SiO2 
 PCOD8281515
Probable space group: C M M A
;
_chemical_formula_sum "Si O2"
_cell_formula_units_Z 88
_cell_length_a 14.725793
_cell_length_b 23.915569
_cell_length_c 11.801429
_cell_angle_alpha 90.000000
_cell_angle_beta 90.000000
_cell_angle_gamma 90.000000
_cell_volume 4156.176738
_symmetry_space_group_name_H-M "C M M A"
_symmetry_group_IT_number 67
_symmetry_cell_setting 'orthorhombic'
loop_
_space_group_symop_operation_xyz
x,y,z
-x,1/2-y,z
x,-y,-z
-x,1/2+y,-z
-x,-y,-z
x,1/2+y,-z
-x,y,z
x,1/2-y,z
1/2+x,1/2+y,z
1/2-x,-y,z
1/2+x,1/2-y,-z
1/2-x,y,-z
1/2-x,1/2-y,-z
1/2+x,y,-z
1/2-x,1/2+y,z
1/2+x,-y,z
loop_
_atom_site_type_symbol
_atom_site_label
_atom_site_fract_x
_atom_site_fract_y
_atom_site_fract_z
Si Si1 0.603974 0.643603 0.468497
Si Si2 0.000000 0.005162 0.208333
Si Si3 0.346520 0.685166 0.710729
Si Si4 0.151943 0.973599 0.612466
Si Si5 0.500000 0.379849 0.896133
Si Si6 0.000000 0.122723 0.845218
Si Si7 0.641422 0.311510 0.759665
O O1 0.500000 0.627245 0.498334
O O2 0.653904 0.665536 0.580264
O O3 0.658915 0.592251 0.412014
O O4 0.606452 0.690051 0.370349
O O5 0.910041 0.012867 0.281616
O O6 0.000000 0.052684 0.111196
O O7 0.000000 0.944194 0.154730
O O8 0.377039 0.750000 0.715981
O O9 0.412043 0.646755 0.784030
O O10 0.248201 0.675805 0.764280
O O11 0.107706 0.000000 0.500000
O O12 0.250000 0.000000 0.637064
O O13 0.589872 0.357199 0.834309
O O14 0.500000 0.358569 0.024486
O O15 0.621492 0.250000 0.810075
#
# Coordination Sequence:
#
# PCOD8281515 Si02
#       7
#    16   8  16  16   8   8  16
#     4  12  22  40  67 103 142 175 222 270 336 410
#     4  12  24  46  65  96 131 176 231 277 338 406
#     4  11  26  45  68 102 140 180 225 273 336 409
#     4  11  24  36  62  99 139 181 217 264 330 403
#     4  12  26  48  70  97 131 175 233 295 338 394
#     4  12  28  44  71  95 132 182 231 288 344 387
#     4  11  24  43  70 100 135 179 223 275 338 404
#
# _framework density 21.173304999999999
#
# number of rings (size 3 to 8) (size 9 to 14) (size 15 to 20)
#    0.000    0.545    4.545    3.273    7.636    4.364 
#    0.000    1.818    0.000    3.273    0.000    0.000 
#    0.000    0.000    0.000    0.000    0.000    0.000 
#
# Total GULP energy -545714.453264 kJ/mol
# GULP energy per Si atom -12402.601211 kJ/mol
# Density = 2.112511 g / cm^3
# Si number density = 21.173305 Si / 1000 Ang^3
#
#
#
# Elastic Constant Matrix: (Units=GPa)
#
#
# Indices 1 2 3 4 5 6 
#
# 1 111.4330 58.9030 29.0036 0.0000 0.0000 0.0000
# 2 58.9030 138.1353 32.6068 0.0000 0.0000 0.0000
# 3 29.0036 32.6068 120.3757 0.0000 0.0000 0.0000
# 4 0.0000 0.0000 0.0000 20.4964 0.0000 0.0000
# 5 0.0000 0.0000 0.0000 0.0000 -7.6733 0.0000
# 6 0.0000 0.0000 0.0000 0.0000 0.0000 18.4157
#
#
#
# Elastic Compliance Matrix: (Units=1/GPa)
#
#
# Indices 1 2 3 4 5 6 
#
# 1 0.011863 -0.004683 -0.001590 0.000000 0.000000 0.000000
# 2 -0.004683 0.009583 -0.001467 0.000000 0.000000 0.000000
# 3 -0.001590 -0.001467 0.009088 0.000000 0.000000 0.000000
# 4 0.000000 0.000000 0.000000 0.048789 0.000000 0.000000
# 5 0.000000 0.000000 0.000000 0.000000 -0.130323 0.000000
# 6 0.000000 0.000000 0.000000 0.000000 0.000000 0.054302
#
#
# Mechanical properties :
#
#
# Convention : Reuss Voigt Hill
#
# Bulk Modulus (GPa) = 66.43221 67.88566 67.15893
# Shear Modulus (GPa) = 210.07725 22.87647 116.47686
#
# Velocity S-wave (km/s) = 9.97163 3.29057 7.42500
# Velocity P-wave (km/s) = 12.80708 6.82412 10.26134
#
# Compressibility (1/GPa) = 0.01505294
#
# Stress axis : x y z
#
# Youngs Moduli (GPa) = 84.29242 104.35424 110.03745
#
# Poissons Ratio (x) = 0.48874 0.17493
# Poissons Ratio (y) = 0.39478 0.16145
# Poissons Ratio (z) = 0.13401 0.15312
#
# Static dielectric constant tensor:
#      x y z
#    x 3.834220 0.000000 0.000000 
#    y 0.000000 4.044960 0.000000 
#    z 0.000000 0.000000 3.623550 
# 
# 
# High freq. dielectric constant tensor:
#      x y z
#    x 1.841800 0.000000 0.000000 
#    y 0.000000 1.846670 0.000000 
#    z 0.000000 0.000000 1.809230 
# 
# From -- ./inp_files/18169.got.cif
#   From: 2010.03.12/outbox.cif.g09.slc.cpg/sg67_10_cif.got.tgz:18169.got - 2010.04.10 22:41:39.
