data_PCOD8281952
_publ_section_title
;
Structure prediction by ZEFSAII (Michael W. Deem and Ramdas Pophale) SiO2 
 PCOD8281952
Probable space group: C C C A
;
_chemical_formula_sum "Si O2"
_cell_formula_units_Z 104
_cell_length_a 19.323840
_cell_length_b 14.916452
_cell_length_c 18.251065
_cell_angle_alpha 90.000000
_cell_angle_beta 90.000000
_cell_angle_gamma 90.000000
_cell_volume 5260.744135
_symmetry_space_group_name_H-M "C C C A"
_symmetry_group_IT_number 68
_space_group.IT_coordinate_system_code '2'
_symmetry_cell_setting 'orthorhombic'
loop_
_space_group_symop_operation_xyz
x,y,z
-x,1/2-y,z
x,1/2-y,1/2-z
-x,y,1/2-z
-x,-y,-z
x,1/2+y,-z
-x,1/2+y,1/2+z
x,-y,1/2+z
1/2+x,1/2+y,z
1/2-x,-y,z
1/2+x,-y,1/2-z
1/2-x,1/2+y,1/2-z
1/2-x,1/2-y,-z
1/2+x,y,-z
1/2-x,y,1/2+z
1/2+x,1/2-y,1/2+z
loop_
_atom_site_type_symbol
_atom_site_label
_atom_site_fract_x
_atom_site_fract_y
_atom_site_fract_z
Si Si1 0.831093 0.250000 0.663251
Si Si2 0.422397 0.895212 0.913801
Si Si3 0.373439 0.411994 0.927288
Si Si4 0.626562 0.588006 0.427289
Si Si5 0.922397 0.895212 0.413801
Si Si6 0.750000 0.000000 1.000000
Si Si7 0.170548 0.750000 0.836161
O O1 0.838681 0.250000 0.750000
O O2 0.867334 0.161469 0.631955
O O3 0.867334 0.338532 0.631955
O O4 0.750758 0.250000 0.639332
O O5 0.500000 0.866810 0.891355
O O6 0.411677 0.000224 0.895536
O O7 0.412681 0.876735 0.000321
O O8 0.411677 0.499776 0.895536
O O9 0.370342 0.336235 0.865985
O O10 0.295339 0.436899 0.948437
O O11 0.587319 0.623265 0.499679
O O12 0.704661 0.563101 0.448437
O O13 0.629659 0.663765 0.365985
O O14 0.163349 0.750000 0.750000
#
# Coordination Sequence:
#
# PCOD8281952 Si02
#       7
#    16  16  16  16  16   8  16
#     4  11  24  38  56  84 115 147 183 228 280 329
#     4  10  21  38  61  85 110 144 185 231 277 324
#     4  10  19  35  58  83 111 143 186 231 275 326
#     4  10  19  35  58  83 111 143 186 231 275 326
#     4  10  21  38  61  85 110 144 185 231 277 324
#     4   8  16  30  56  84 104 138 184 238 284 316
#     4  11  23  37  54  82 118 151 183 223 276 332
#
# _framework density 19.769065000000001
#
# number of rings (size 3 to 8) (size 9 to 14) (size 15 to 20)
#    0.000    2.154    0.000    6.923    0.000    4.308 
#    0.000    6.154    0.000    6.462    0.000    0.000 
#    0.000    0.000    0.000    0.000    0.000    0.000 
#
# Total GULP energy -644786.548128 kJ/mol
# GULP energy per Si atom -12399.741310 kJ/mol
# Density = 1.972407 g / cm^3
# Si number density = 19.769065 Si / 1000 Ang^3
#
#
#
# Elastic Constant Matrix: (Units=GPa)
#
#
# Indices 1 2 3 4 5 6 
#
# 1 86.6389 32.4024 27.4062 0.0000 0.0000 0.0000
# 2 32.4024 116.6219 64.6512 0.0000 0.0000 0.0000
# 3 27.4062 64.6512 81.0868 0.0000 0.0000 0.0000
# 4 0.0000 0.0000 0.0000 8.4463 0.0000 0.0000
# 5 0.0000 0.0000 0.0000 0.0000 1.8843 0.0000
# 6 0.0000 0.0000 0.0000 0.0000 0.0000 6.8314
#
#
#
# Elastic Compliance Matrix: (Units=1/GPa)
#
#
# Indices 1 2 3 4 5 6 
#
# 1 0.013216 -0.002143 -0.002758 0.000000 0.000000 0.000000
# 2 -0.002143 0.015714 -0.011805 0.000000 0.000000 0.000000
# 3 -0.002758 -0.011805 0.022677 0.000000 0.000000 0.000000
# 4 0.000000 0.000000 0.000000 0.118395 0.000000 0.000000
# 5 0.000000 0.000000 0.000000 0.000000 0.530704 0.000000
# 6 0.000000 0.000000 0.000000 0.000000 0.000000 0.146384
#
#
# Mechanical properties :
#
#
# Convention : Reuss Voigt Hill
#
# Bulk Modulus (GPa) = 54.95980 59.25193 57.10587
# Shear Modulus (GPa) = 5.63973 14.09158 9.86565
#
# Velocity S-wave (km/s) = 1.69086 2.67275 2.23635
# Velocity P-wave (km/s) = 5.62790 6.28982 5.96805
#
# Compressibility (1/GPa) = 0.01819512
#
# Stress axis : x y z
#
# Youngs Moduli (GPa) = 75.66522 63.63613 44.09771
#
# Poissons Ratio (x) = 0.13636 0.12164
# Poissons Ratio (y) = 0.16214 0.52057
# Poissons Ratio (z) = 0.20871 0.75122
#
# Static dielectric constant tensor:
#      x y z
#    x 3.642490 0.000000 0.000000 
#    y 0.000000 17.660170 0.000000 
#    z 0.000000 0.000000 3.327650 
# 
# 
# High freq. dielectric constant tensor:
#      x y z
#    x 1.778410 0.000000 0.000000 
#    y 0.000000 1.778750 0.000000 
#    z 0.000000 0.000000 1.745150 
# 
# From -- ./inp_files/33005.got.cif
#   From: 2010.03.12/outbox.cif.g09.slc.cpg/sg68_17_cif.got.tgz:33005.got - 2010.04.10 23:14:56.
