data_PCOD8281384
_publ_section_title
;
Structure prediction by ZEFSAII (Michael W. Deem and Ramdas Pophale) SiO2 
 PCOD8281384
Probable space group: C M M A
;
_chemical_formula_sum "Si O2"
_cell_formula_units_Z 48
_cell_length_a 17.909398
_cell_length_b 13.716583
_cell_length_c 10.181369
_cell_angle_alpha 90.000000
_cell_angle_beta 90.000000
_cell_angle_gamma 90.000000
_cell_volume 2501.111778
_symmetry_space_group_name_H-M "C M M A"
_symmetry_group_IT_number 67
_symmetry_cell_setting 'orthorhombic'
loop_
_space_group_symop_operation_xyz
x,y,z
-x,1/2-y,z
x,-y,-z
-x,1/2+y,-z
-x,-y,-z
x,1/2+y,-z
-x,y,z
x,1/2-y,z
1/2+x,1/2+y,z
1/2-x,-y,z
1/2+x,1/2-y,-z
1/2-x,y,-z
1/2-x,1/2-y,-z
1/2+x,y,-z
1/2-x,1/2+y,z
1/2+x,-y,z
loop_
_atom_site_type_symbol
_atom_site_label
_atom_site_fract_x
_atom_site_fract_y
_atom_site_fract_z
Si Si1 0.811927 0.750000 0.888181
Si Si2 0.789092 0.250000 0.639354
Si Si3 0.666860 0.464101 0.355689
Si Si4 0.084224 0.567112 0.874211
O O1 0.776155 0.750000 0.745421
O O2 0.862667 0.843597 0.904569
O O3 0.750000 0.750000 0.000000
O O4 0.750000 0.250000 0.500000
O O5 0.839343 0.346696 0.653195
O O6 0.644023 0.500000 0.500000
O O7 0.750000 0.500000 0.319819
O O8 0.608701 0.507822 0.253932
O O9 0.000000 0.604094 0.850570
O O10 0.089351 0.500000 0.000000
#
# Coordination Sequence:
#
# PCOD8281384 Si02
#       4
#     8   8  16  16
#     4  12  23  37  66  91 116 163 209 251 302 366
#     4  12  20  35  61  95 121 150 206 257 298 357
#     4  11  21  38  63  92 122 159 205 256 309 366
#     4  11  25  42  59  88 127 163 202 255 314 372
#
# _framework density 19.191465000000001
#
# number of rings (size 3 to 8) (size 9 to 14) (size 15 to 20)
#    0.000    0.667    6.667    2.500    0.000    0.667 
#    0.000    2.500    0.000    0.000    0.000    0.000 
#    0.000    0.000    0.000    0.000    0.000    0.000 
#
# Total GULP energy -297709.892201 kJ/mol
# GULP energy per Si atom -12404.578842 kJ/mol
# Density = 1.914778 g / cm^3
# Si number density = 19.191465 Si / 1000 Ang^3
#
#
#
# Elastic Constant Matrix: (Units=GPa)
#
#
# Indices 1 2 3 4 5 6 
#
# 1 125.3259 71.4013 85.1309 0.0000 0.0000 0.0000
# 2 71.4013 165.0522 37.7129 0.0000 0.0000 0.0000
# 3 85.1309 37.7129 128.3672 0.0000 0.0000 0.0000
# 4 0.0000 0.0000 0.0000 29.4898 0.0000 0.0000
# 5 0.0000 0.0000 0.0000 0.0000 24.7560 0.0000
# 6 0.0000 0.0000 0.0000 0.0000 0.0000 338.5585
#
#
#
# Elastic Compliance Matrix: (Units=1/GPa)
#
#
# Indices 1 2 3 4 5 6 
#
# 1 0.018218 -0.005489 -0.010469 0.000000 0.000000 0.000000
# 2 -0.005489 0.008148 0.001246 0.000000 0.000000 0.000000
# 3 -0.010469 0.001246 0.014367 0.000000 0.000000 0.000000
# 4 0.000000 0.000000 0.000000 0.033910 0.000000 0.000000
# 5 0.000000 0.000000 0.000000 0.000000 0.040394 0.000000
# 6 0.000000 0.000000 0.000000 0.000000 0.000000 0.002954
#
#
# Mechanical properties :
#
#
# Convention : Reuss Voigt Hill
#
# Bulk Modulus (GPa) = 88.42074 89.69283 89.05679
# Shear Modulus (GPa) = 33.07213 93.52755 63.29984
#
# Velocity S-wave (km/s) = 4.15574 6.98854 5.74934
# Velocity P-wave (km/s) = 8.31864 10.58097 9.51727
#
# Compressibility (1/GPa) = 0.01130956
#
# Stress axis : x y z
#
# Youngs Moduli (GPa) = 54.89138 122.72314 69.60399
#
# Poissons Ratio (x) = 0.67361 0.72870
# Poissons Ratio (y) = 0.30129 -0.08674
# Poissons Ratio (z) = 0.57467 -0.15294
#
# Static dielectric constant tensor:
#      x y z
#    x 3.442420 0.000000 0.000000 
#    y 0.000000 3.959480 0.000000 
#    z 0.000000 0.000000 3.602100 
# 
# 
# High freq. dielectric constant tensor:
#      x y z
#    x 1.727380 0.000000 0.000000 
#    y 0.000000 1.767380 0.000000 
#    z 0.000000 0.000000 1.767090 
# 
# From -- ./inp_files/7358.got.cif
#   From: 2010.03.12/outbox.cif.g09.slc.cpg/sg67_4_cif.got.tgz:7358.got - 2010.04.10 22:41:39.
