data_PCOD8281276
_publ_section_title
;
Structure prediction by ZEFSAII (Michael W. Deem and Ramdas Pophale) SiO2 
 PCOD8281276
Probable space group: C M M A
;
_chemical_formula_sum "Si O2"
_cell_formula_units_Z 60
_cell_length_a 11.954629
_cell_length_b 19.469872
_cell_length_c 13.396273
_cell_angle_alpha 90.000000
_cell_angle_beta 90.000000
_cell_angle_gamma 90.000000
_cell_volume 3118.050814
_symmetry_space_group_name_H-M "C M M A"
_symmetry_group_IT_number 67
_symmetry_cell_setting 'orthorhombic'
loop_
_space_group_symop_operation_xyz
x,y,z
-x,1/2-y,z
x,-y,-z
-x,1/2+y,-z
-x,-y,-z
x,1/2+y,-z
-x,y,z
x,1/2-y,z
1/2+x,1/2+y,z
1/2-x,-y,z
1/2+x,1/2-y,-z
1/2-x,y,-z
1/2-x,1/2-y,-z
1/2+x,y,-z
1/2-x,1/2+y,z
1/2+x,-y,z
loop_
_atom_site_type_symbol
_atom_site_label
_atom_site_fract_x
_atom_site_fract_y
_atom_site_fract_z
Si Si1 0.000000 0.397008 0.715253
Si Si2 0.376308 0.629072 0.213245
Si Si3 0.500000 0.250000 0.198559
Si Si4 0.000000 0.487390 0.118825
Si Si5 0.231326 0.079713 0.609779
Si Si6 0.259138 0.250000 0.115368
O O1 0.000000 0.316665 0.733894
O O2 0.893517 0.411479 0.648137
O O3 0.000000 0.441317 0.818640
O O4 0.500000 0.661508 0.230187
O O5 0.390047 0.557803 0.149632
O O6 0.322043 0.615101 0.319708
O O7 0.296978 0.681377 0.156340
O O8 0.390651 0.250000 0.131588
O O9 0.000000 0.500000 0.000000
O O10 0.250000 0.112467 0.500000
O O11 0.250000 0.000000 0.604716
O O12 0.250000 0.250000 0.000000
#
# Coordination Sequence:
#
# PCOD8281276 Si02
#       6
#     8  16   4   8  16   8
#     4  12  24  46  63 101 140 169 228 281 335 402
#     4  10  23  44  65  99 135 172 226 273 327 398
#     4  12  28  42  68  92 142 174 216 282 338 394
#     4  10  24  40  72  96 137 176 225 279 334 392
#     4  11  23  41  71 101 132 178 221 282 344 396
#     4  12  27  44  69  96 139 186 227 269 341 405
#
# _framework density 19.242789999999999
#
# number of rings (size 3 to 8) (size 9 to 14) (size 15 to 20)
#    0.800    0.267    5.333    0.400    7.467    1.067 
#    0.000    4.000    0.000    0.000    0.000    0.000 
#    0.000    0.000    0.000    0.000    0.000    0.000 
#
# Total GULP energy -371855.344758 kJ/mol
# GULP energy per Si atom -12395.178159 kJ/mol
# Density = 1.919899 g / cm^3
# Si number density = 19.242790 Si / 1000 Ang^3
#
#
#
# Elastic Constant Matrix: (Units=GPa)
#
#
# Indices 1 2 3 4 5 6 
#
# 1 167.7678 40.5228 80.4752 0.0000 0.0000 0.0000
# 2 40.5228 121.7424 65.9203 0.0000 0.0000 0.0000
# 3 80.4752 65.9203 199.4600 0.0000 0.0000 0.0000
# 4 0.0000 0.0000 0.0000 28.5689 0.0000 0.0000
# 5 0.0000 0.0000 0.0000 0.0000 -83.3875 0.0000
# 6 0.0000 0.0000 0.0000 0.0000 0.0000 35.6833
#
#
#
# Elastic Compliance Matrix: (Units=1/GPa)
#
#
# Indices 1 2 3 4 5 6 
#
# 1 0.007499 -0.001045 -0.002680 0.000000 0.000000 0.000000
# 2 -0.001045 0.010150 -0.002933 0.000000 0.000000 0.000000
# 3 -0.002680 -0.002933 0.007064 0.000000 0.000000 0.000000
# 4 0.000000 0.000000 0.000000 0.035003 0.000000 0.000000
# 5 0.000000 0.000000 0.000000 0.000000 -0.011992 0.000000
# 6 0.000000 0.000000 0.000000 0.000000 0.000000 0.028024
#
#
# Mechanical properties :
#
#
# Convention : Reuss Voigt Hill
#
# Bulk Modulus (GPa) = 87.74214 95.86744 91.80479
# Shear Modulus (GPa) = 53.84294 16.30972 35.07633
#
# Velocity S-wave (km/s) = 5.29543 2.91447 4.27409
# Velocity P-wave (km/s) = 9.11511 7.82647 8.49526
#
# Compressibility (1/GPa) = 0.01139703
#
# Stress axis : x y z
#
# Youngs Moduli (GPa) = 133.35850 98.52267 141.55857
#
# Poissons Ratio (x) = 0.10293 0.37940
# Poissons Ratio (y) = 0.13932 0.41519
# Poissons Ratio (z) = 0.35742 0.28897
#
# Static dielectric constant tensor:
#      x y z
#    x 3.581450 0.000000 0.000000 
#    y 0.000000 3.583130 0.000000 
#    z 0.000000 0.000000 3.768650 
# 
# 
# High freq. dielectric constant tensor:
#      x y z
#    x 1.764070 0.000000 0.000000 
#    y 0.000000 1.749080 0.000000 
#    z 0.000000 0.000000 1.751690 
# 
# From -- ./inp_files/16392.got.cif
#   From: 2010.03.12/outbox.cif.g09.slc.cpg/sg67_9_cif.got.tgz:16392.got - 2010.04.10 22:41:39.
