data_PCOD8281611
_publ_section_title
;
Structure prediction by ZEFSAII (Michael W. Deem and Ramdas Pophale) SiO2 
 PCOD8281611
Probable space group: C C C A
;
_chemical_formula_sum "Si O2"
_cell_formula_units_Z 120
_cell_length_a 13.930933
_cell_length_b 27.862054
_cell_length_c 14.675715
_cell_angle_alpha 90.000000
_cell_angle_beta 90.000000
_cell_angle_gamma 90.000000
_cell_volume 5696.296704
_symmetry_space_group_name_H-M "C C C A"
_symmetry_group_IT_number 68
_space_group.IT_coordinate_system_code '2'
_symmetry_cell_setting 'orthorhombic'
loop_
_space_group_symop_operation_xyz
x,y,z
-x,1/2-y,z
x,1/2-y,1/2-z
-x,y,1/2-z
-x,-y,-z
x,1/2+y,-z
-x,1/2+y,1/2+z
x,-y,1/2+z
1/2+x,1/2+y,z
1/2-x,-y,z
1/2+x,-y,1/2-z
1/2-x,1/2+y,1/2-z
1/2-x,1/2-y,-z
1/2+x,y,-z
1/2-x,y,1/2+z
1/2+x,1/2-y,1/2+z
loop_
_atom_site_type_symbol
_atom_site_label
_atom_site_fract_x
_atom_site_fract_y
_atom_site_fract_z
Si Si1 0.561400 0.957475 0.961080
Si Si2 0.740822 0.322595 0.086932
Si Si3 0.621674 0.579501 0.900954
Si Si4 0.429442 0.326499 0.000110
Si Si5 0.750000 0.500000 0.501270
Si Si6 0.742861 0.356306 0.284035
Si Si7 0.628663 0.233105 0.155889
Si Si8 0.885902 0.633149 0.934767
O O1 0.574271 0.919300 0.042258
O O2 0.668931 0.975278 0.933162
O O3 0.490013 0.937210 0.881492
O O4 0.500000 0.000000 0.000000
O O5 0.752046 0.356554 0.175408
O O6 0.672743 0.277709 0.102986
O O7 0.845591 0.302127 0.059763
O O8 0.698169 0.354708 0.006001
O O9 0.611477 0.620770 0.977087
O O10 0.694291 0.538293 0.936989
O O11 0.664993 0.602604 0.809225
O O12 0.448485 0.294258 0.091357
O O13 0.527787 0.328402 0.943428
O O14 0.713538 0.303790 0.319738
O O15 0.844740 0.367568 0.332318
O O16 0.578234 0.250000 0.250000
#
# Coordination Sequence:
#
# PCOD8281611 Si02
#       8
#    16  16  16  16   8  16  16  16
#     4   9  18  30  56  90 111 154 203 247 313 381
#     4  11  21  37  61  83 119 164 198 252 307 365
#     4   9  17  32  52  82 118 149 199 248 301 363
#     4  10  20  35  57  85 120 154 202 250 299 372
#     4  10  14  28  56  84 112 156 202 244 308 372
#     4  10  20  37  58  84 120 162 204 250 309 366
#     4   9  19  37  58  83 122 159 196 248 300 357
#     4  11  21  37  59  88 115 159 204 252 313 366
#
# _framework density 21.066319
#
# number of rings (size 3 to 8) (size 9 to 14) (size 15 to 20)
#    0.000    2.133    4.000    0.400    0.000    1.067 
#    0.000   12.667    0.000    8.800   13.867    0.000 
#    0.000    0.000    0.000    0.000    0.000    0.000 
#
# Total GULP energy -743352.016351 kJ/mol
# GULP energy per Si atom -12389.200273 kJ/mol
# Density = 2.101837 g / cm^3
# Si number density = 21.066319 Si / 1000 Ang^3
#
#
#
# Elastic Constant Matrix: (Units=GPa)
#
#
# Indices 1 2 3 4 5 6 
#
# 1 153.7059 32.0138 36.4076 0.0000 0.0000 0.0000
# 2 32.0138 81.9061 19.6488 0.0000 0.0000 0.0000
# 3 36.4076 19.6488 67.3314 0.0000 0.0000 0.0000
# 4 0.0000 0.0000 0.0000 19.4470 0.0000 0.0000
# 5 0.0000 0.0000 0.0000 0.0000 3.7818 0.0000
# 6 0.0000 0.0000 0.0000 0.0000 0.0000 19.1644
#
#
#
# Elastic Compliance Matrix: (Units=1/GPa)
#
#
# Indices 1 2 3 4 5 6 
#
# 1 0.007812 -0.002194 -0.003584 0.000000 0.000000 0.000000
# 2 -0.002194 0.013744 -0.002825 0.000000 0.000000 0.000000
# 3 -0.003584 -0.002825 0.017614 0.000000 0.000000 0.000000
# 4 0.000000 0.000000 0.000000 0.051422 0.000000 0.000000
# 5 0.000000 0.000000 0.000000 0.000000 0.264424 0.000000
# 6 0.000000 0.000000 0.000000 0.000000 0.000000 0.052180
#
#
# Mechanical properties :
#
#
# Convention : Reuss Voigt Hill
#
# Bulk Modulus (GPa) = 45.52561 53.23155 49.37858
# Shear Modulus (GPa) = 11.58153 22.80351 17.19252
#
# Velocity S-wave (km/s) = 2.34725 3.29365 2.85987
# Velocity P-wave (km/s) = 5.38550 6.30774 5.86478
#
# Compressibility (1/GPa) = 0.02196566
#
# Stress axis : x y z
#
# Youngs Moduli (GPa) = 128.01335 72.75845 56.77272
#
# Poissons Ratio (x) = 0.15960 0.20346
# Poissons Ratio (y) = 0.28080 0.16037
# Poissons Ratio (z) = 0.45878 0.20552
#
# Static dielectric constant tensor:
#      x y z
#    x 4.375360 0.000000 0.000000 
#    y 0.000000 4.057220 0.000000 
#    z 0.000000 0.000000 3.598250 
# 
# 
# High freq. dielectric constant tensor:
#      x y z
#    x 1.842270 0.000000 0.000000 
#    y 0.000000 1.836510 0.000000 
#    z 0.000000 0.000000 1.775770 
# 
# From -- ./inp_files/22832.got.cif
#   From: 2010.03.12/outbox.cif.g09.slc.cpg/sg68_12_cif.got.tgz:22832.got - 2010.04.10 23:14:56.
