data_PCOD8281479
_publ_section_title
;
Structure prediction by ZEFSAII (Michael W. Deem and Ramdas Pophale) SiO2 
 PCOD8281479
Probable space group: C M M A
;
_chemical_formula_sum "Si O2"
_cell_formula_units_Z 104
_cell_length_a 9.253112
_cell_length_b 26.209572
_cell_length_c 22.614068
_cell_angle_alpha 90.000000
_cell_angle_beta 90.000000
_cell_angle_gamma 90.000000
_cell_volume 5484.366150
_symmetry_space_group_name_H-M "C M M A"
_symmetry_group_IT_number 67
_symmetry_cell_setting 'orthorhombic'
loop_
_space_group_symop_operation_xyz
x,y,z
-x,1/2-y,z
x,-y,-z
-x,1/2+y,-z
-x,-y,-z
x,1/2+y,-z
-x,y,z
x,1/2-y,z
1/2+x,1/2+y,z
1/2-x,-y,z
1/2+x,1/2-y,-z
1/2-x,y,-z
1/2-x,1/2-y,-z
1/2+x,y,-z
1/2-x,1/2+y,z
1/2+x,-y,z
loop_
_atom_site_type_symbol
_atom_site_label
_atom_site_fract_x
_atom_site_fract_y
_atom_site_fract_z
Si Si1 0.671201 0.694152 0.817847
Si Si2 0.164688 0.549085 0.107271
Si Si3 0.827695 0.948568 0.651383
Si Si4 0.668770 0.139300 0.561753
Si Si5 0.830289 0.343683 0.942166
Si Si6 0.331550 0.408760 0.236147
Si Si7 0.665764 0.250000 0.559758
O O1 0.500000 0.688925 0.821924
O O2 0.720278 0.750000 0.794360
O O3 0.728948 0.686537 0.884676
O O4 0.723187 0.649892 0.773100
O O5 0.250000 0.500000 0.085379
O O6 0.208823 0.596980 0.067067
O O7 0.194419 0.561072 0.175791
O O8 0.000000 0.535380 0.097525
O O9 0.779248 0.903487 0.607431
O O10 0.770325 0.934938 0.716080
O O11 0.000000 0.956223 0.653490
O O12 0.750000 0.000000 0.628887
O O13 0.500000 0.133045 0.548416
O O14 0.750000 0.131839 0.500000
O O15 0.702040 0.195651 0.591594
O O16 0.000000 0.335089 0.950647
O O17 0.750000 0.322539 0.000000
O O18 0.500000 0.411075 0.255586
O O19 0.500000 0.250000 0.541911
O O20 0.750000 0.250000 0.500000
#
# Coordination Sequence:
#
# PCOD8281479 Si02
#       7
#    16  16  16  16  16  16   8
#     4   8  15  31  54  75  99 132 168 207 253 305
#     4   9  18  31  47  67  91 123 162 204 251 298
#     4  11  23  37  53  78 109 142 176 215 263 312
#     4   9  19  35  56  80 107 140 177 214 259 308
#     4   9  18  31  46  68  97 127 161 202 248 299
#     4   9  18  34  54  75  99 130 170 213 255 305
#     4   8  14  30  54  76 100 132 168 208 249 296
#
# _framework density 18.962993999999998
#
# number of rings (size 3 to 8) (size 9 to 14) (size 15 to 20)
#    0.000    2.923    0.000    2.769    0.000    4.615 
#    1.385    5.385    0.000    0.923    0.000    0.000 
#    0.000    0.000    0.000    0.000    0.000    0.000 
#
# Total GULP energy -644378.952446 kJ/mol
# GULP energy per Si atom -12391.902932 kJ/mol
# Density = 1.891983 g / cm^3
# Si number density = 18.962994 Si / 1000 Ang^3
#
#
#
# Elastic Constant Matrix: (Units=GPa)
#
#
# Indices 1 2 3 4 5 6 
#
# 1 40.3644 30.0486 17.6020 0.0000 0.0000 0.0000
# 2 30.0486 123.6324 19.9421 0.0000 0.0000 0.0000
# 3 17.6020 19.9421 51.8899 0.0000 0.0000 0.0000
# 4 0.0000 0.0000 0.0000 19.9479 0.0000 0.0000
# 5 0.0000 0.0000 0.0000 0.0000 25.8793 0.0000
# 6 0.0000 0.0000 0.0000 0.0000 0.0000 20.2479
#
#
#
# Elastic Compliance Matrix: (Units=1/GPa)
#
#
# Indices 1 2 3 4 5 6 
#
# 1 0.033649 -0.006756 -0.008818 0.000000 0.000000 0.000000
# 2 -0.006756 0.009979 -0.001544 0.000000 0.000000 0.000000
# 3 -0.008818 -0.001544 0.022856 0.000000 0.000000 0.000000
# 4 0.000000 0.000000 0.000000 0.050131 0.000000 0.000000
# 5 0.000000 0.000000 0.000000 0.000000 0.038641 0.000000
# 6 0.000000 0.000000 0.000000 0.000000 0.000000 0.049388
#
#
# Mechanical properties :
#
#
# Convention : Reuss Voigt Hill
#
# Bulk Modulus (GPa) = 31.00814 39.00800 35.00807
# Shear Modulus (GPa) = 20.02975 23.10128 21.56551
#
# Velocity S-wave (km/s) = 3.25353 3.49410 3.37596
# Velocity P-wave (km/s) = 5.52281 6.07401 5.80495
#
# Compressibility (1/GPa) = 0.03224960
#
# Stress axis : x y z
#
# Youngs Moduli (GPa) = 29.71855 100.20551 43.75223
#
# Poissons Ratio (x) = 0.67699 0.38581
# Poissons Ratio (y) = 0.20078 0.06753
# Poissons Ratio (z) = 0.26206 0.15467
#
# Static dielectric constant tensor:
#      x y z
#    x 3.136830 0.000000 0.000000 
#    y 0.000000 3.980400 0.000000 
#    z 0.000000 0.000000 3.180880 
# 
# 
# High freq. dielectric constant tensor:
#      x y z
#    x 1.714300 0.000000 0.000000 
#    y 0.000000 1.756390 0.000000 
#    z 0.000000 0.000000 1.713710 
# 
# From -- ./inp_files/37298.got.cif
#   From: 2010.03.12/outbox.cif.g09.slc.cpg/sg67_19_cif.got.tgz:37298.got - 2010.04.10 22:41:39.
