data_PCOD8281403
_publ_section_title
;
Structure prediction by ZEFSAII (Michael W. Deem and Ramdas Pophale) SiO2 
 PCOD8281403
Probable space group: C M M A
;
_chemical_formula_sum "Si O2"
_cell_formula_units_Z 96
_cell_length_a 26.432645
_cell_length_b 17.287101
_cell_length_c 11.623359
_cell_angle_alpha 90.000000
_cell_angle_beta 90.000000
_cell_angle_gamma 90.000000
_cell_volume 5311.221875
_symmetry_space_group_name_H-M "C M M A"
_symmetry_group_IT_number 67
_symmetry_cell_setting 'orthorhombic'
loop_
_space_group_symop_operation_xyz
x,y,z
-x,1/2-y,z
x,-y,-z
-x,1/2+y,-z
-x,-y,-z
x,1/2+y,-z
-x,y,z
x,1/2-y,z
1/2+x,1/2+y,z
1/2-x,-y,z
1/2+x,1/2-y,-z
1/2-x,y,-z
1/2-x,1/2-y,-z
1/2+x,y,-z
1/2-x,1/2+y,z
1/2+x,-y,z
loop_
_atom_site_type_symbol
_atom_site_label
_atom_site_fract_x
_atom_site_fract_y
_atom_site_fract_z
Si Si1 0.179865 0.158947 0.280382
Si Si2 0.130359 0.410268 0.490254
Si Si3 0.695608 0.088958 0.966253
Si Si4 0.056702 0.158146 0.665248
Si Si5 0.363741 0.837416 0.844640
Si Si6 0.209327 0.163721 0.642755
O O1 0.169879 0.250000 0.252611
O O2 0.135865 0.121615 0.359634
O O3 0.183439 0.107002 0.166182
O O4 0.231208 0.148692 0.353134
O O5 0.117651 0.500000 0.500000
O O6 0.083192 0.365691 0.546474
O O7 0.182657 0.396337 0.558250
O O8 0.750000 0.127482 0.000000
O O9 0.647456 0.121209 0.035688
O O10 0.698865 0.000000 0.000000
O O11 0.056369 0.250000 0.669877
O O12 0.089185 0.125464 0.773719
O O13 0.000000 0.124140 0.671330
O O14 0.377549 0.750000 0.874404
O O15 0.312517 0.844632 0.770792
O O16 0.197513 0.250000 0.595400
#
# Coordination Sequence:
#
# PCOD8281403 Si02
#       6
#    16  16  16  16  16  16
#     4  11  22  35  53  78 113 156 192 223 271 329
#     4  11  23  33  53  81 115 144 176 228 283 336
#     4  11  23  33  51  78 118 153 185 222 267 323
#     4   9  19  38  63  83 101 134 183 235 280 330
#     4   9  17  33  55  77 102 139 185 226 262 311
#     4   9  18  33  52  73 106 147 188 221 256 318
#
# _framework density 18.074936000000001
#
# number of rings (size 3 to 8) (size 9 to 14) (size 15 to 20)
#    0.000    2.000    1.667    3.500    4.667    3.667 
#    0.000    0.000    0.000    1.500    0.000    2.333 
#    0.000    0.000    0.000    0.000    0.000    0.000 
#
# Total GULP energy -595008.102585 kJ/mol
# GULP energy per Si atom -12396.002137 kJ/mol
# Density = 1.803380 g / cm^3
# Si number density = 18.074936 Si / 1000 Ang^3
#
#
#
# Elastic Constant Matrix: (Units=GPa)
#
#
# Indices 1 2 3 4 5 6 
#
# 1 102.2042 18.0529 45.2352 0.0000 0.0000 0.0000
# 2 18.0529 54.1024 28.9521 0.0000 0.0000 0.0000
# 3 45.2352 28.9521 96.5429 0.0000 0.0000 0.0000
# 4 0.0000 0.0000 0.0000 30.9015 0.0000 0.0000
# 5 0.0000 0.0000 0.0000 0.0000 14.8587 0.0000
# 6 0.0000 0.0000 0.0000 0.0000 0.0000 11.9132
#
#
#
# Elastic Compliance Matrix: (Units=1/GPa)
#
#
# Indices 1 2 3 4 5 6 
#
# 1 0.012412 -0.001226 -0.005448 0.000000 0.000000 0.000000
# 2 -0.001226 0.022138 -0.006064 0.000000 0.000000 0.000000
# 3 -0.005448 -0.006064 0.014729 0.000000 0.000000 0.000000
# 4 0.000000 0.000000 0.000000 0.032361 0.000000 0.000000
# 5 0.000000 0.000000 0.000000 0.000000 0.067301 0.000000
# 6 0.000000 0.000000 0.000000 0.000000 0.000000 0.083941
#
#
# Mechanical properties :
#
#
# Convention : Reuss Voigt Hill
#
# Bulk Modulus (GPa) = 42.01281 48.59222 45.30251
# Shear Modulus (GPa) = 18.77629 22.24195 20.50912
#
# Velocity S-wave (km/s) = 3.22654 3.51171 3.37214
# Velocity P-wave (km/s) = 6.09712 6.58673 6.34665
#
# Compressibility (1/GPa) = 0.02380226
#
# Stress axis : x y z
#
# Youngs Moduli (GPa) = 80.56584 45.17137 67.89158
#
# Poissons Ratio (x) = 0.05539 0.36987
# Poissons Ratio (y) = 0.09880 0.41172
# Poissons Ratio (z) = 0.43892 0.27393
#
# Static dielectric constant tensor:
#      x y z
#    x 3.370500 0.000000 0.000000 
#    y 0.000000 3.219890 0.000000 
#    z 0.000000 0.000000 3.304900 
# 
# 
# High freq. dielectric constant tensor:
#      x y z
#    x 1.670680 0.000000 0.000000 
#    y 0.000000 1.689590 0.000000 
#    z 0.000000 0.000000 1.701200 
# 
# From -- ./inp_files/22943.got.cif
#   From: 2010.03.12/outbox.cif.g09.slc.cpg/sg67_12_cif.got.tgz:22943.got - 2010.04.10 22:41:39.
