data_PCOD8281465
_publ_section_title
;
Structure prediction by ZEFSAII (Michael W. Deem and Ramdas Pophale) SiO2 
 PCOD8281465
Probable space group: C M M A
;
_chemical_formula_sum "Si O2"
_cell_formula_units_Z 88
_cell_length_a 22.663215
_cell_length_b 23.629472
_cell_length_c 7.470383
_cell_angle_alpha 90.000000
_cell_angle_beta 90.000000
_cell_angle_gamma 90.000000
_cell_volume 4000.538042
_symmetry_space_group_name_H-M "C M M A"
_symmetry_group_IT_number 67
_symmetry_cell_setting 'orthorhombic'
loop_
_space_group_symop_operation_xyz
x,y,z
-x,1/2-y,z
x,-y,-z
-x,1/2+y,-z
-x,-y,-z
x,1/2+y,-z
-x,y,z
x,1/2-y,z
1/2+x,1/2+y,z
1/2-x,-y,z
1/2+x,1/2-y,-z
1/2-x,y,-z
1/2-x,1/2-y,-z
1/2+x,y,-z
1/2-x,1/2+y,z
1/2+x,-y,z
loop_
_atom_site_type_symbol
_atom_site_label
_atom_site_fract_x
_atom_site_fract_y
_atom_site_fract_z
Si Si1 0.652324 0.653250 0.322137
Si Si2 0.881817 0.366910 0.697481
Si Si3 0.739987 0.250000 0.710843
Si Si4 0.130844 0.250000 0.849070
Si Si5 0.000000 0.042859 0.205348
Si Si6 0.070753 0.250000 0.230161
Si Si7 0.375096 0.562020 0.037022
Si Si8 0.000000 0.923974 0.411185
O O1 0.662753 0.632584 0.527397
O O2 0.704440 0.692569 0.245204
O O3 0.591997 0.691607 0.325324
O O4 0.650317 0.595663 0.207262
O O5 0.895728 0.303232 0.749583
O O6 0.942900 0.393596 0.652715
O O7 0.856309 0.401248 0.865375
O O8 0.750000 0.250000 0.500000
O O9 0.797759 0.250000 0.835048
O O10 0.107249 0.250000 0.047537
O O11 0.055106 0.052781 0.073214
O O12 0.000000 0.084535 0.373602
O O13 0.000000 0.984617 0.316317
O O14 0.000000 0.250000 0.207309
O O15 0.346610 0.500000 0.000000
#
# Coordination Sequence:
#
# PCOD8281465 Si02
#       8
#    16  16   8   8   8   8  16   8
#     4  11  25  44  69 103 137 186 226 296 350 415
#     4  12  24  41  65 101 136 183 233 284 360 420
#     4  11  23  50  78 103 138 179 246 299 355 421
#     4  12  25  45  75 105 126 189 232 280 371 420
#     4  11  22  41  61  95 138 200 242 279 344 423
#     4  11  26  44  63 104 152 178 217 289 362 431
#     4  12  24  41  65  98 139 183 240 289 347 417
#     4  11  23  37  66  95 143 196 233 283 355 435
#
# _framework density 21.997043000000001
#
# number of rings (size 3 to 8) (size 9 to 14) (size 15 to 20)
#    0.000    0.545    7.273    1.364    3.818    2.182 
#    0.000    0.000    0.000    2.182    0.000    0.000 
#    0.000    0.000    0.000    0.000    0.000    0.000 
#
# Total GULP energy -545238.080481 kJ/mol
# GULP energy per Si atom -12391.774556 kJ/mol
# Density = 2.194698 g / cm^3
# Si number density = 21.997043 Si / 1000 Ang^3
#
#
#
# Elastic Constant Matrix: (Units=GPa)
#
#
# Indices 1 2 3 4 5 6 
#
# 1 43.3596 -26.4581 -8.5663 0.0000 0.0000 0.0000
# 2 -26.4581 111.2450 36.8225 0.0000 0.0000 0.0000
# 3 -8.5663 36.8225 136.4636 0.0000 0.0000 0.0000
# 4 0.0000 0.0000 0.0000 151.8486 0.0000 0.0000
# 5 0.0000 0.0000 0.0000 0.0000 32.8916 0.0000
# 6 0.0000 0.0000 0.0000 0.0000 0.0000 19.5206
#
#
#
# Elastic Compliance Matrix: (Units=1/GPa)
#
#
# Indices 1 2 3 4 5 6 
#
# 1 0.026978 0.006430 -0.000042 0.000000 0.000000 0.000000
# 2 0.006430 0.011403 -0.002673 0.000000 0.000000 0.000000
# 3 -0.000042 -0.002673 0.008047 0.000000 0.000000 0.000000
# 4 0.000000 0.000000 0.000000 0.006586 0.000000 0.000000
# 5 0.000000 0.000000 0.000000 0.000000 0.030403 0.000000
# 6 0.000000 0.000000 0.000000 0.000000 0.000000 0.051228
#
#
# Mechanical properties :
#
#
# Convention : Reuss Voigt Hill
#
# Bulk Modulus (GPa) = 18.56694 32.74049 25.65372
# Shear Modulus (GPa) = 34.44298 60.13682 47.28990
#
# Velocity S-wave (km/s) = 3.96131 5.23430 4.64166
# Velocity P-wave (km/s) = 5.42048 7.17265 6.35722
#
# Compressibility (1/GPa) = 0.05385917
#
# Stress axis : x y z
#
# Youngs Moduli (GPa) = 37.06658 87.69308 124.27423
#
# Poissons Ratio (x) = -0.56389 0.00516
# Poissons Ratio (y) = -0.23835 0.33223
# Poissons Ratio (z) = 0.00154 0.23444
#
# Static dielectric constant tensor:
#      x y z
#    x 3.759580 0.000000 0.000000 
#    y 0.000000 4.311230 0.000000 
#    z 0.000000 0.000000 4.511880 
# 
# 
# High freq. dielectric constant tensor:
#      x y z
#    x 1.827730 0.000000 0.000000 
#    y 0.000000 1.879610 0.000000 
#    z 0.000000 0.000000 1.891020 
# 
# From -- ./inp_files/12517.got.cif
#   From: 2010.03.12/outbox.cif.g09.slc.cpg/sg67_7_cif.got.tgz:12517.got - 2010.04.10 22:41:39.
