data_PCOD8281877
_publ_section_title
;
Structure prediction by ZEFSAII (Michael W. Deem and Ramdas Pophale) SiO2 
 PCOD8281877
Probable space group: C C C A
;
_chemical_formula_sum "Si O2"
_cell_formula_units_Z 96
_cell_length_a 16.780479
_cell_length_b 12.400731
_cell_length_c 22.670687
_cell_angle_alpha 90.000000
_cell_angle_beta 90.000000
_cell_angle_gamma 90.000000
_cell_volume 4717.547931
_symmetry_space_group_name_H-M "C C C A"
_symmetry_group_IT_number 68
_space_group.IT_coordinate_system_code '2'
_symmetry_cell_setting 'orthorhombic'
loop_
_space_group_symop_operation_xyz
x,y,z
-x,1/2-y,z
x,1/2-y,1/2-z
-x,y,1/2-z
-x,-y,-z
x,1/2+y,-z
-x,1/2+y,1/2+z
x,-y,1/2+z
1/2+x,1/2+y,z
1/2-x,-y,z
1/2+x,-y,1/2-z
1/2-x,1/2+y,1/2-z
1/2-x,1/2-y,-z
1/2+x,y,-z
1/2-x,y,1/2+z
1/2+x,1/2-y,1/2+z
loop_
_atom_site_type_symbol
_atom_site_label
_atom_site_fract_x
_atom_site_fract_y
_atom_site_fract_z
Si Si1 0.431248 0.430843 0.920938
Si Si2 0.875160 0.250000 0.250000
Si Si3 0.500000 0.750000 0.156416
Si Si4 0.572131 0.070137 0.056521
Si Si5 0.214277 0.607573 0.837165
Si Si6 0.306995 0.096427 0.977528
Si Si7 0.314468 0.751760 0.582260
O O1 0.482981 0.348826 0.884798
O O2 0.481765 0.544804 0.921224
O O3 0.344719 0.431226 0.890220
O O4 0.423018 0.391511 0.988277
O O5 0.824514 0.345170 0.221648
O O6 0.928683 0.204589 0.196752
O O7 0.611967 0.168410 0.093868
O O8 0.621493 0.957117 0.060268
O O9 0.250000 0.500000 0.810809
O O10 0.283721 0.689011 0.859033
O O11 0.262116 0.183674 0.938304
O O12 0.250000 0.000000 0.999373
O O13 0.341037 0.156430 0.035473
#
# Coordination Sequence:
#
# PCOD8281877 Si02
#       7
#    16   8   8  16  16  16  16
#     4  10  21  35  57  86 125 157 195 233 296 348
#     4   9  22  42  64  88 101 146 214 252 305 326
#     4   9  20  40  64  84 112 150 196 259 286 346
#     4  10  21  33  49  94 123 163 192 227 279 376
#     4  11  22  42  62  86 112 156 198 261 301 356
#     4   9  17  30  49  78 121 163 197 229 272 363
#     4  10  19  32  54  81 120 159 195 232 298 343
#
# _framework density 20.349554999999999
#
# number of rings (size 3 to 8) (size 9 to 14) (size 15 to 20)
#    0.000    2.167    0.000    4.500    7.000    0.000 
#    3.000    0.000    0.000    0.000    0.000    0.000 
#    0.000    0.000    0.000    0.000    0.000    0.000 
#
# Total GULP energy -594715.812968 kJ/mol
# GULP energy per Si atom -12389.912770 kJ/mol
# Density = 2.030324 g / cm^3
# Si number density = 20.349555 Si / 1000 Ang^3
#
#
#
# Elastic Constant Matrix: (Units=GPa)
#
#
# Indices 1 2 3 4 5 6 
#
# 1 81.9824 44.4608 31.3692 0.0000 0.0000 0.0000
# 2 44.4608 106.2292 38.0836 0.0000 0.0000 0.0000
# 3 31.3692 38.0836 73.6757 0.0000 0.0000 0.0000
# 4 0.0000 0.0000 0.0000 22.7739 0.0000 0.0000
# 5 0.0000 0.0000 0.0000 0.0000 7.7993 0.0000
# 6 0.0000 0.0000 0.0000 0.0000 0.0000 31.9038
#
#
#
# Elastic Compliance Matrix: (Units=1/GPa)
#
#
# Indices 1 2 3 4 5 6 
#
# 1 0.016833 -0.005494 -0.004327 0.000000 0.000000 0.000000
# 2 -0.005494 0.013348 -0.004561 0.000000 0.000000 0.000000
# 3 -0.004327 -0.004561 0.017773 0.000000 0.000000 0.000000
# 4 0.000000 0.000000 0.000000 0.043910 0.000000 0.000000
# 5 0.000000 0.000000 0.000000 0.000000 0.128216 0.000000
# 6 0.000000 0.000000 0.000000 0.000000 0.000000 0.031344
#
#
# Mechanical properties :
#
#
# Convention : Reuss Voigt Hill
#
# Bulk Modulus (GPa) = 52.10918 54.41272 53.26095
# Shear Modulus (GPa) = 17.44691 22.36033 19.90362
#
# Velocity S-wave (km/s) = 2.93125 3.31843 3.13083
# Velocity P-wave (km/s) = 6.09253 6.44047 6.26892
#
# Compressibility (1/GPa) = 0.01919048
#
# Stress axis : x y z
#
# Youngs Moduli (GPa) = 59.40742 74.91773 56.26587
#
# Poissons Ratio (x) = 0.41159 0.24347
# Poissons Ratio (y) = 0.32638 0.25660
# Poissons Ratio (z) = 0.25707 0.34167
#
# Static dielectric constant tensor:
#      x y z
#    x 3.974030 0.000000 0.000000 
#    y 0.000000 3.817440 0.000000 
#    z 0.000000 0.000000 3.354990 
# 
# 
# High freq. dielectric constant tensor:
#      x y z
#    x 1.804710 0.000000 0.000000 
#    y 0.000000 1.800230 0.000000 
#    z 0.000000 0.000000 1.749560 
# 
# From -- ./inp_files/46044.got.cif
#   From: 2010.03.12/outbox.cif.g09.slc.cpg/sg68_24_cif.got.tgz:46044.got - 2010.04.10 23:14:56.
