data_PCOD8281198
_publ_section_title
;
Structure prediction by ZEFSAII (Michael W. Deem and Ramdas Pophale) SiO2 
 PCOD8281198
Probable space group: C M M A
;
_chemical_formula_sum "Si O2"
_cell_formula_units_Z 48
_cell_length_a 14.094985
_cell_length_b 13.897796
_cell_length_c 10.698121
_cell_angle_alpha 90.000000
_cell_angle_beta 90.000000
_cell_angle_gamma 90.000000
_cell_volume 2095.646644
_symmetry_space_group_name_H-M "C M M A"
_symmetry_group_IT_number 67
_symmetry_cell_setting 'orthorhombic'
loop_
_space_group_symop_operation_xyz
x,y,z
-x,1/2-y,z
x,-y,-z
-x,1/2+y,-z
-x,-y,-z
x,1/2+y,-z
-x,y,z
x,1/2-y,z
1/2+x,1/2+y,z
1/2-x,-y,z
1/2+x,1/2-y,-z
1/2-x,y,-z
1/2-x,1/2-y,-z
1/2+x,y,-z
1/2-x,1/2+y,z
1/2+x,-y,z
loop_
_atom_site_type_symbol
_atom_site_label
_atom_site_fract_x
_atom_site_fract_y
_atom_site_fract_z
Si Si1 0.000000 0.357578 0.309998
Si Si2 0.299076 0.364110 0.127894
Si Si3 0.204441 0.359526 0.378477
Si Si4 0.500000 0.039657 0.134707
O O1 0.091759 0.367369 0.397220
O O2 0.000000 0.250000 0.244848
O O3 0.000000 0.442871 0.213419
O O4 0.298376 0.250000 0.119911
O O5 0.236738 0.404108 0.245076
O O6 0.406341 0.396865 0.153943
O O7 0.250000 0.405005 0.000000
O O8 0.240474 0.250000 0.376523
O O9 0.250000 0.411927 0.500000
O O10 0.500000 0.000000 0.000000
#
# Coordination Sequence:
#
# PCOD8281198 Si02
#       4
#     8  16  16   8
#     4  10  22  40  61  88 123 162 204 252 310 366
#     4  10  22  41  64  91 124 160 200 249 305 365
#     4   9  19  38  64  90 120 160 201 247 304 365
#     4  12  25  38  61  92 122 160 206 254 304 362
#
# _framework density 22.904624999999999
#
# number of rings (size 3 to 8) (size 9 to 14) (size 15 to 20)
#    0.000    2.000    0.000    2.500    0.000   10.000 
#    0.000   10.000    0.000    1.000    0.000    0.000 
#    0.000    0.000    0.000    0.000    0.000    0.000 
#
# Total GULP energy -297414.434240 kJ/mol
# GULP energy per Si atom -12392.268093 kJ/mol
# Density = 2.285249 g / cm^3
# Si number density = 22.904625 Si / 1000 Ang^3
#
#
#
# Elastic Constant Matrix: (Units=GPa)
#
#
# Indices 1 2 3 4 5 6 
#
# 1 202.2182 30.4908 85.6293 0.0000 0.0000 0.0000
# 2 30.4908 69.4822 17.3359 0.0000 0.0000 0.0000
# 3 85.6293 17.3359 202.3036 0.0000 0.0000 0.0000
# 4 0.0000 0.0000 0.0000 -10.9887 0.0000 0.0000
# 5 0.0000 0.0000 0.0000 0.0000 32.6939 0.0000
# 6 0.0000 0.0000 0.0000 0.0000 0.0000 25.7919
#
#
#
# Elastic Compliance Matrix: (Units=1/GPa)
#
#
# Indices 1 2 3 4 5 6 
#
# 1 0.006326 -0.002154 -0.002493 0.000000 0.000000 0.000000
# 2 -0.002154 0.015440 -0.000411 0.000000 0.000000 0.000000
# 3 -0.002493 -0.000411 0.006033 0.000000 0.000000 0.000000
# 4 0.000000 0.000000 0.000000 -0.091002 0.000000 0.000000
# 5 0.000000 0.000000 0.000000 0.000000 0.030587 0.000000
# 6 0.000000 0.000000 0.000000 0.000000 0.000000 0.038772
#
#
# Mechanical properties :
#
#
# Convention : Reuss Voigt Hill
#
# Bulk Modulus (GPa) = 56.55229 82.32401 69.43815
# Shear Modulus (GPa) = 225.57537 32.20263 128.88900
#
# Velocity S-wave (km/s) = 9.93471 3.75366 7.50961
# Velocity P-wave (km/s) = 12.50367 7.40316 10.27494
#
# Compressibility (1/GPa) = 0.01768275
#
# Stress axis : x y z
#
# Youngs Moduli (GPa) = 158.09009 64.76679 165.74215
#
# Poissons Ratio (x) = 0.13950 0.41317
# Poissons Ratio (y) = 0.34050 0.06819
# Poissons Ratio (z) = 0.39409 0.02665
#
# Static dielectric constant tensor:
#      x y z
#    x 10.968100 0.000000 0.000000 
#    y 0.000000 4.006590 0.000000 
#    z 0.000000 0.000000 4.380750 
# 
# 
# High freq. dielectric constant tensor:
#      x y z
#    x 1.914340 0.000000 0.000000 
#    y 0.000000 1.911370 0.000000 
#    z 0.000000 0.000000 1.897170 
# 
# From -- ./inp_files/7361.got.cif
#   From: 2010.03.12/outbox.cif.g09.slc.cpg/sg67_4_cif.got.tgz:7361.got - 2010.04.10 22:41:39.
