data_PCOD8281633
_publ_section_title
;
Structure prediction by ZEFSAII (Michael W. Deem and Ramdas Pophale) SiO2 
 PCOD8281633
Probable space group: C C C A
;
_chemical_formula_sum "Si O2"
_cell_formula_units_Z 68
_cell_length_a 14.968314
_cell_length_b 39.284842
_cell_length_c 5.322025
_cell_angle_alpha 90.000000
_cell_angle_beta 90.000000
_cell_angle_gamma 90.000000
_cell_volume 3129.498921
_symmetry_space_group_name_H-M "C C C A"
_symmetry_group_IT_number 68
_space_group.IT_coordinate_system_code '2'
_symmetry_cell_setting 'orthorhombic'
loop_
_space_group_symop_operation_xyz
x,y,z
-x,1/2-y,z
x,1/2-y,1/2-z
-x,y,1/2-z
-x,-y,-z
x,1/2+y,-z
-x,1/2+y,1/2+z
x,-y,1/2+z
1/2+x,1/2+y,z
1/2-x,-y,z
1/2+x,-y,1/2-z
1/2-x,1/2+y,1/2-z
1/2-x,1/2-y,-z
1/2+x,y,-z
1/2-x,y,1/2+z
1/2+x,1/2-y,1/2+z
loop_
_atom_site_type_symbol
_atom_site_label
_atom_site_fract_x
_atom_site_fract_y
_atom_site_fract_z
Si Si1 0.850711 0.014200 0.903695
Si Si2 0.590790 0.812098 0.475108
Si Si3 0.193840 0.409465 0.905314
Si Si4 0.603333 0.840255 0.975287
Si Si5 0.500000 0.250000 0.750000
O O1 0.855654 0.054660 0.931557
O O2 0.899532 0.002626 0.645467
O O3 0.750000 0.000000 0.879561
O O4 0.642553 0.817837 0.739084
O O5 0.502391 0.835254 0.500179
O O6 0.562607 0.772895 0.430177
O O7 0.647711 0.826027 0.235501
O O8 0.234002 0.406194 0.626737
O O9 0.121507 0.379916 0.938067
#
# Coordination Sequence:
#
# PCOD8281633 Si02
#       5
#    16  16  16  16   4
#     4  10  16  29  42  63  95 115 163 213 233 275
#     4   9  18  34  52  76  97 117 166 197 247 281
#     4  12  20  29  48  72 101 133 160 193 260 287
#     4   9  19  31  46  73 103 127 153 203 240 292
#     4   8  16  30  60  82  92 118 152 226 248 260
#
# _framework density 21.728717
#
# number of rings (size 3 to 8) (size 9 to 14) (size 15 to 20)
#    0.000    2.353    4.706    1.412    0.000    7.529 
#    0.000    0.000    0.000    0.000    0.000  107.059 
#    0.000    0.000    0.000    0.000    0.000    0.000 
#
# Total GULP energy -421236.325918 kJ/mol
# GULP energy per Si atom -12389.303703 kJ/mol
# Density = 2.167926 g / cm^3
# Si number density = 21.728717 Si / 1000 Ang^3
#
#
#
# Elastic Constant Matrix: (Units=GPa)
#
#
# Indices 1 2 3 4 5 6 
#
# 1 9.6596 21.0451 2.1771 0.0000 0.0000 0.0000
# 2 21.0451 200.3685 56.7483 0.0000 0.0000 0.0000
# 3 2.1771 56.7483 226.1213 0.0000 0.0000 0.0000
# 4 0.0000 0.0000 0.0000 33.4666 0.0000 0.0000
# 5 0.0000 0.0000 0.0000 0.0000 4.2526 0.0000
# 6 0.0000 0.0000 0.0000 0.0000 0.0000 25.6174
#
#
#
# Elastic Compliance Matrix: (Units=1/GPa)
#
#
# Indices 1 2 3 4 5 6 
#
# 1 0.135483 -0.014921 0.002440 0.000000 0.000000 0.000000
# 2 -0.014921 0.007016 -0.001617 0.000000 0.000000 0.000000
# 3 0.002440 -0.001617 0.004805 0.000000 0.000000 0.000000
# 4 0.000000 0.000000 0.000000 0.029881 0.000000 0.000000
# 5 0.000000 0.000000 0.000000 0.000000 0.235151 0.000000
# 6 0.000000 0.000000 0.000000 0.000000 0.000000 0.039036
#
#
# Mechanical properties :
#
#
# Convention : Reuss Voigt Hill
#
# Bulk Modulus (GPa) = 8.39578 66.23226 37.31402
# Shear Modulus (GPa) = 9.62891 36.41257 23.02074
#
# Velocity S-wave (km/s) = 2.10738 4.09807 3.25847
# Velocity P-wave (km/s) = 3.12949 7.27598 5.60060
#
# Compressibility (1/GPa) = 0.11910749
#
# Stress axis : x y z
#
# Youngs Moduli (GPa) = 7.38101 142.53140 208.12765
#
# Poissons Ratio (x) = 2.12673 -0.50788
# Poissons Ratio (y) = 0.11013 0.33656
# Poissons Ratio (z) = -0.01801 0.23049
#
# Static dielectric constant tensor:
#      x y z
#    x 3.025860 0.000000 0.000000 
#    y 0.000000 3.934130 0.000000 
#    z 0.000000 0.000000 7.225140 
# 
# 
# High freq. dielectric constant tensor:
#      x y z
#    x 1.768340 0.000000 0.000000 
#    y 0.000000 1.856430 0.000000 
#    z 0.000000 0.000000 1.902470 
# 
# From -- ./inp_files/1629.got.cif
#   From: 2010.03.12/outbox.cif.g09.slc.cpg/sg68_1_cif.got.tgz:1629.got - 2010.04.10 23:14:56.
