data_PCOD8281037
_publ_section_title
;
Structure prediction by ZEFSAII (Michael W. Deem and Ramdas Pophale) SiO2 
 PCOD8281037
Probable space group: C M M A
;
_chemical_formula_sum "Si O2"
_cell_formula_units_Z 72
_cell_length_a 16.043741
_cell_length_b 8.788457
_cell_length_c 24.466666
_cell_angle_alpha 90.000000
_cell_angle_beta 90.000000
_cell_angle_gamma 90.000000
_cell_volume 3449.793249
_symmetry_space_group_name_H-M "C M M A"
_symmetry_group_IT_number 67
_symmetry_cell_setting 'orthorhombic'
loop_
_space_group_symop_operation_xyz
x,y,z
-x,1/2-y,z
x,-y,-z
-x,1/2+y,-z
-x,-y,-z
x,1/2+y,-z
-x,y,z
x,1/2-y,z
1/2+x,1/2+y,z
1/2-x,-y,z
1/2+x,1/2-y,-z
1/2-x,y,-z
1/2-x,1/2-y,-z
1/2+x,y,-z
1/2-x,1/2+y,z
1/2+x,-y,z
loop_
_atom_site_type_symbol
_atom_site_label
_atom_site_fract_x
_atom_site_fract_y
_atom_site_fract_z
Si Si1 0.000000 0.567727 0.059934
Si Si2 0.595509 0.929248 0.554623
Si Si3 0.661787 0.430371 0.881992
Si Si4 0.406518 0.420375 0.767627
Si Si5 0.335717 0.071763 0.331856
O O1 0.084530 0.510249 0.088371
O O2 0.000000 0.750000 0.059295
O O3 0.000000 0.500000 0.000000
O O4 0.500000 0.980777 0.558107
O O5 0.604994 0.750000 0.551394
O O6 0.638728 0.996027 0.609031
O O7 0.637100 0.000000 0.500000
O O8 0.659327 0.250000 0.893886
O O9 0.750000 0.500000 0.902412
O O10 0.654287 0.465323 0.817233
O O11 0.500000 0.431203 0.790919
O O12 0.386115 0.250000 0.747204
O O13 0.400585 0.531662 0.715717
O O14 0.328482 0.250000 0.337109
O O15 0.250000 0.000000 0.312424
#
# Coordination Sequence:
#
# PCOD8281037 Si02
#       5
#     8  16  16  16  16
#     4  12  26  46  72 102 136 180 225 272 327 382
#     4   9  19  36  56  77 103 139 187 241 299 363
#     4  11  23  43  68 100 138 176 221 274 325 386
#     4  10  21  39  63  91 124 162 204 255 312 372
#     4  11  23  37  54  81 116 153 196 248 302 366
#
# _framework density 20.870816999999999
#
# number of rings (size 3 to 8) (size 9 to 14) (size 15 to 20)
#    0.000    1.556    1.111    3.667    0.000    7.556 
#    0.000    6.667    0.000    0.000    0.000    0.000 
#    0.000    0.000    0.000    0.000    0.000    0.000 
#
# Total GULP energy -446395.833088 kJ/mol
# GULP energy per Si atom -12399.884252 kJ/mol
# Density = 2.082331 g / cm^3
# Si number density = 20.870817 Si / 1000 Ang^3
#
#
#
# Elastic Constant Matrix: (Units=GPa)
#
#
# Indices 1 2 3 4 5 6 
#
# 1 119.1189 48.6602 50.9504 0.0000 0.0000 0.0000
# 2 48.6602 100.2528 57.9882 0.0000 0.0000 0.0000
# 3 50.9504 57.9882 126.0434 0.0000 0.0000 0.0000
# 4 0.0000 0.0000 0.0000 36.7341 0.0000 0.0000
# 5 0.0000 0.0000 0.0000 0.0000 19.7322 0.0000
# 6 0.0000 0.0000 0.0000 0.0000 0.0000 32.7319
#
#
#
# Elastic Compliance Matrix: (Units=1/GPa)
#
#
# Indices 1 2 3 4 5 6 
#
# 1 0.011126 -0.003814 -0.002743 0.000000 0.000000 0.000000
# 2 -0.003814 0.014899 -0.005313 0.000000 0.000000 0.000000
# 3 -0.002743 -0.005313 0.011487 0.000000 0.000000 0.000000
# 4 0.000000 0.000000 0.000000 0.027223 0.000000 0.000000
# 5 0.000000 0.000000 0.000000 0.000000 0.050679 0.000000
# 6 0.000000 0.000000 0.000000 0.000000 0.000000 0.030551
#
#
# Mechanical properties :
#
#
# Convention : Reuss Voigt Hill
#
# Bulk Modulus (GPa) = 72.60697 73.40141 73.00419
# Shear Modulus (GPa) = 28.68707 30.36071 29.52389
#
# Velocity S-wave (km/s) = 3.71146 3.81819 3.76520
# Velocity P-wave (km/s) = 7.29594 7.39485 7.34556
#
# Compressibility (1/GPa) = 0.01377278
#
# Stress axis : x y z
#
# Youngs Moduli (GPa) = 89.87853 67.11872 87.05643
#
# Poissons Ratio (x) = 0.25598 0.23879
# Poissons Ratio (y) = 0.34278 0.46252
# Poissons Ratio (z) = 0.24653 0.35659
#
# Static dielectric constant tensor:
#      x y z
#    x 4.160480 0.000000 0.000000 
#    y 0.000000 3.763230 0.000000 
#    z 0.000000 0.000000 3.955510 
# 
# 
# High freq. dielectric constant tensor:
#      x y z
#    x 1.820040 0.000000 0.000000 
#    y 0.000000 1.813100 0.000000 
#    z 0.000000 0.000000 1.825200 
# 
# From -- ./inp_files/43095.got.cif
#   From: 2010.03.12/outbox.cif.g09.slc.cpg/sg67_22_cif.got.tgz:43095.got - 2010.04.10 22:41:39.
