data_PCOD8281761
_publ_section_title
;
Structure prediction by ZEFSAII (Michael W. Deem and Ramdas Pophale) SiO2 
 PCOD8281761
Probable space group: C C C A
;
_chemical_formula_sum "Si O2"
_cell_formula_units_Z 72
_cell_length_a 11.569474
_cell_length_b 18.010140
_cell_length_c 19.122971
_cell_angle_alpha 90.000000
_cell_angle_beta 90.000000
_cell_angle_gamma 90.000000
_cell_volume 3984.612285
_symmetry_space_group_name_H-M "C C C A"
_symmetry_group_IT_number 68
_space_group.IT_coordinate_system_code '2'
_symmetry_cell_setting 'orthorhombic'
loop_
_space_group_symop_operation_xyz
x,y,z
-x,1/2-y,z
x,1/2-y,1/2-z
-x,y,1/2-z
-x,-y,-z
x,1/2+y,-z
-x,1/2+y,1/2+z
x,-y,1/2+z
1/2+x,1/2+y,z
1/2-x,-y,z
1/2+x,-y,1/2-z
1/2-x,1/2+y,1/2-z
1/2-x,1/2-y,-z
1/2+x,y,-z
1/2-x,y,1/2+z
1/2+x,1/2-y,1/2+z
loop_
_atom_site_type_symbol
_atom_site_label
_atom_site_fract_x
_atom_site_fract_y
_atom_site_fract_z
Si Si1 0.351789 0.856511 0.982074
Si Si2 0.745061 0.773781 0.397582
Si Si3 0.750000 0.500000 0.538501
Si Si4 0.299628 0.250000 0.250000
Si Si5 0.000000 0.365519 0.750000
Si Si6 0.930574 0.599041 0.103104
O O1 0.282384 0.805254 0.928402
O O2 0.476298 0.882080 0.956430
O O3 0.357756 0.812163 0.057065
O O4 0.278013 0.931003 0.989364
O O5 0.713359 0.761782 0.316070
O O6 0.855197 0.827106 0.397453
O O7 0.859411 0.475923 0.586148
O O8 0.384067 0.180976 0.264189
O O9 0.984703 0.414934 0.680007
#
# Coordination Sequence:
#
# PCOD8281761 Si02
#       6
#    16  16   8   8   8  16
#     4  10  18  32  49  77 104 138 171 218 264 314
#     4   9  18  29  54  80  99 128 180 224 269 303
#     4  10  22  32  48  74 108 140 178 208 260 320
#     4   9  14  28  48  80 101 116 168 229 270 312
#     4   9  16  26  52  72  98 128 165 222 276 299
#     4  10  18  33  51  77 102 138 176 222 260 317
#
# _framework density 18.069513000000001
#
# number of rings (size 3 to 8) (size 9 to 14) (size 15 to 20)
#    0.000    2.444    2.222    1.333    0.000    0.000 
#    0.000    1.111    0.000    0.000    0.000    6.222 
#    0.000    0.000    0.000    0.000    0.000    0.000 
#
# Total GULP energy -446090.807583 kJ/mol
# GULP energy per Si atom -12391.411322 kJ/mol
# Density = 1.802839 g / cm^3
# Si number density = 18.069513 Si / 1000 Ang^3
#
#
#
# Elastic Constant Matrix: (Units=GPa)
#
#
# Indices 1 2 3 4 5 6 
#
# 1 63.3227 23.8048 57.3796 0.0000 0.0000 0.0000
# 2 23.8048 97.9634 44.5123 0.0000 0.0000 0.0000
# 3 57.3796 44.5123 164.4916 0.0000 0.0000 0.0000
# 4 0.0000 0.0000 0.0000 12.4661 0.0000 0.0000
# 5 0.0000 0.0000 0.0000 0.0000 30.2987 0.0000
# 6 0.0000 0.0000 0.0000 0.0000 0.0000 24.2925
#
#
#
# Elastic Compliance Matrix: (Units=1/GPa)
#
#
# Indices 1 2 3 4 5 6 
#
# 1 0.023524 -0.002266 -0.007593 0.000000 0.000000 0.000000
# 2 -0.002266 0.011857 -0.002418 0.000000 0.000000 0.000000
# 3 -0.007593 -0.002418 0.009382 0.000000 0.000000 0.000000
# 4 0.000000 0.000000 0.000000 0.080217 0.000000 0.000000
# 5 0.000000 0.000000 0.000000 0.000000 0.033005 0.000000
# 6 0.000000 0.000000 0.000000 0.000000 0.000000 0.041165
#
#
# Mechanical properties :
#
#
# Convention : Reuss Voigt Hill
#
# Bulk Modulus (GPa) = 49.48165 64.13014 56.80590
# Shear Modulus (GPa) = 21.69748 26.75019 24.22384
#
# Velocity S-wave (km/s) = 3.46898 3.85178 3.66538
# Velocity P-wave (km/s) = 6.59459 7.43972 7.02987
#
# Compressibility (1/GPa) = 0.02020951
#
# Stress axis : x y z
#
# Youngs Moduli (GPa) = 42.50955 84.33601 106.58464
#
# Poissons Ratio (x) = 0.19114 0.80926
# Poissons Ratio (y) = 0.09634 0.25773
# Poissons Ratio (z) = 0.32276 0.20393
#
# Static dielectric constant tensor:
#      x y z
#    x 3.115210 0.000000 0.000000 
#    y 0.000000 3.292110 0.000000 
#    z 0.000000 0.000000 3.782740 
# 
# 
# High freq. dielectric constant tensor:
#      x y z
#    x 1.663730 0.000000 0.000000 
#    y 0.000000 1.690840 0.000000 
#    z 0.000000 0.000000 1.709990 
# 
# From -- ./inp_files/29433.got.cif
#   From: 2010.03.12/outbox.cif.g09.slc.cpg/sg68_15_cif.got.tgz:29433.got - 2010.04.10 23:14:56.
