data_PCOD8281335
_publ_section_title
;
Structure prediction by ZEFSAII (Michael W. Deem and Ramdas Pophale) SiO2 
 PCOD8281335
Probable space group: C M M A
;
_chemical_formula_sum "Si O2"
_cell_formula_units_Z 96
_cell_length_a 29.121116
_cell_length_b 8.454689
_cell_length_c 20.593367
_cell_angle_alpha 90.000000
_cell_angle_beta 90.000000
_cell_angle_gamma 90.000000
_cell_volume 5070.292459
_symmetry_space_group_name_H-M "C M M A"
_symmetry_group_IT_number 67
_symmetry_cell_setting 'orthorhombic'
loop_
_space_group_symop_operation_xyz
x,y,z
-x,1/2-y,z
x,-y,-z
-x,1/2+y,-z
-x,-y,-z
x,1/2+y,-z
-x,y,z
x,1/2-y,z
1/2+x,1/2+y,z
1/2-x,-y,z
1/2+x,1/2-y,-z
1/2-x,y,-z
1/2-x,1/2-y,-z
1/2+x,y,-z
1/2-x,1/2+y,z
1/2+x,-y,z
loop_
_atom_site_type_symbol
_atom_site_label
_atom_site_fract_x
_atom_site_fract_y
_atom_site_fract_z
Si Si1 0.549890 0.562475 0.236374
Si Si2 0.854037 0.561891 0.568867
Si Si3 0.549825 0.562444 0.381876
Si Si4 0.198743 0.436829 0.692068
Si Si5 0.799182 0.434048 0.930866
Si Si6 0.355279 0.063780 0.814666
O O1 0.500000 0.507726 0.208261
O O2 0.551871 0.750000 0.240402
O O3 0.556077 0.494503 0.309096
O O4 0.591945 0.503733 0.191974
O O5 0.835520 0.500000 0.500000
O O6 0.848876 0.750000 0.574614
O O7 0.907232 0.504253 0.575264
O O8 0.823962 0.479747 0.623767
O O9 0.500000 0.503956 0.409751
O O10 0.550099 0.750000 0.378985
O O11 0.198100 0.250000 0.703329
O O12 0.250000 0.500000 0.692199
O O13 0.171833 0.521973 0.749698
O O14 0.793663 0.250000 0.938339
O O15 0.750000 0.500000 0.908959
O O16 0.836340 0.474222 0.876892
O O17 0.815645 0.500000 0.000000
O O18 0.351732 0.250000 0.826601
#
# Coordination Sequence:
#
# PCOD8281335 Si02
#       6
#    16  16  16  16  16  16
#     4   8  14  27  52  84 113 144 183 225 271 325
#     4  11  22  38  57  80 109 145 184 229 281 337
#     4   8  14  28  52  80 109 142 180 223 272 328
#     4  12  25  41  59  81 108 141 185 234 281 333
#     4  11  22  38  58  85 119 155 192 232 277 331
#     4  11  20  35  60  89 118 150 186 229 277 327
#
# _framework density 18.933820000000001
#
# number of rings (size 3 to 8) (size 9 to 14) (size 15 to 20)
#    0.000    1.833    1.667    6.000    0.000    0.667 
#    0.000    1.667    0.000    5.000    0.000    0.000 
#    0.000    0.000    0.000    0.000    0.000    0.000 
#
# Total GULP energy -595026.082236 kJ/mol
# GULP energy per Si atom -12396.376713 kJ/mol
# Density = 1.889073 g / cm^3
# Si number density = 18.933820 Si / 1000 Ang^3
#
#
#
# Elastic Constant Matrix: (Units=GPa)
#
#
# Indices 1 2 3 4 5 6 
#
# 1 126.0805 13.7861 49.4449 0.0000 0.0000 0.0000
# 2 13.7861 67.8473 9.7503 0.0000 0.0000 0.0000
# 3 49.4449 9.7503 102.1201 0.0000 0.0000 0.0000
# 4 0.0000 0.0000 0.0000 27.5709 0.0000 0.0000
# 5 0.0000 0.0000 0.0000 0.0000 27.9372 0.0000
# 6 0.0000 0.0000 0.0000 0.0000 0.0000 16.5096
#
#
#
# Elastic Compliance Matrix: (Units=1/GPa)
#
#
# Indices 1 2 3 4 5 6 
#
# 1 0.009910 -0.001342 -0.004670 0.000000 0.000000 0.000000
# 2 -0.001342 0.015126 -0.000794 0.000000 0.000000 0.000000
# 3 -0.004670 -0.000794 0.012129 0.000000 0.000000 0.000000
# 4 0.000000 0.000000 0.000000 0.036270 0.000000 0.000000
# 5 0.000000 0.000000 0.000000 0.000000 0.035795 0.000000
# 6 0.000000 0.000000 0.000000 0.000000 0.000000 0.060571
#
#
# Mechanical properties :
#
#
# Convention : Reuss Voigt Hill
#
# Bulk Modulus (GPa) = 42.45979 49.11228 45.78603
# Shear Modulus (GPa) = 26.14187 29.27465 27.70826
#
# Velocity S-wave (km/s) = 3.71980 3.93639 3.82963
# Velocity P-wave (km/s) = 6.39713 6.83048 6.61735
#
# Compressibility (1/GPa) = 0.02355170
#
# Stress axis : x y z
#
# Youngs Moduli (GPa) = 100.91198 66.11183 82.44487
#
# Poissons Ratio (x) = 0.08875 0.38501
# Poissons Ratio (y) = 0.13547 0.06548
# Poissons Ratio (z) = 0.47125 0.05251
#
# Static dielectric constant tensor:
#      x y z
#    x 3.893250 0.000000 0.000000 
#    y 0.000000 3.295240 0.000000 
#    z 0.000000 0.000000 3.376500 
# 
# 
# High freq. dielectric constant tensor:
#      x y z
#    x 1.748160 0.000000 0.000000 
#    y 0.000000 1.720620 0.000000 
#    z 0.000000 0.000000 1.720910 
# 
# From -- ./inp_files/39889.got.cif
#   From: 2010.03.12/outbox.cif.g09.slc.cpg/sg67_20_cif.got.tgz:39889.got - 2010.04.10 22:41:39.
