data_PCOD8281700
_publ_section_title
;
Structure prediction by ZEFSAII (Michael W. Deem and Ramdas Pophale) SiO2 
 PCOD8281700
Probable space group: C C C A
;
_chemical_formula_sum "Si O2"
_cell_formula_units_Z 120
_cell_length_a 11.084805
_cell_length_b 23.377018
_cell_length_c 22.546880
_cell_angle_alpha 90.000000
_cell_angle_beta 90.000000
_cell_angle_gamma 90.000000
_cell_volume 5842.565935
_symmetry_space_group_name_H-M "C C C A"
_symmetry_group_IT_number 68
_space_group.IT_coordinate_system_code '2'
_symmetry_cell_setting 'orthorhombic'
loop_
_space_group_symop_operation_xyz
x,y,z
-x,1/2-y,z
x,1/2-y,1/2-z
-x,y,1/2-z
-x,-y,-z
x,1/2+y,-z
-x,1/2+y,1/2+z
x,-y,1/2+z
1/2+x,1/2+y,z
1/2-x,-y,z
1/2+x,-y,1/2-z
1/2-x,1/2+y,1/2-z
1/2-x,1/2-y,-z
1/2+x,y,-z
1/2-x,y,1/2+z
1/2+x,1/2-y,1/2+z
loop_
_atom_site_type_symbol
_atom_site_label
_atom_site_fract_x
_atom_site_fract_y
_atom_site_fract_z
Si Si1 0.665156 0.344809 0.147018
Si Si2 0.246860 0.684117 0.734037
Si Si3 0.319130 0.782578 0.889245
Si Si4 0.928741 0.307325 0.445482
Si Si5 0.378831 0.965954 0.013311
Si Si6 0.000000 0.880552 0.750000
Si Si7 0.512602 0.367118 0.444877
Si Si8 0.921214 0.605663 0.625895
O O1 0.662299 0.347112 0.218973
O O2 0.637482 0.280747 0.125857
O O3 0.567801 0.385859 0.113031
O O4 0.797809 0.360418 0.127711
O O5 0.229248 0.750000 0.750000
O O6 0.307134 0.678398 0.669822
O O7 0.114052 0.658093 0.734107
O O8 0.198742 0.783194 0.926881
O O9 0.418376 0.809560 0.930694
O O10 0.000000 0.250000 0.459723
O O11 0.920973 0.349802 0.502299
O O12 0.982974 0.346579 0.393503
O O13 0.397781 0.946583 0.081211
O O14 0.250000 0.000000 0.005664
O O15 0.387625 0.913869 0.965979
O O16 0.500000 0.000000 0.000000
O O17 0.035372 0.917734 0.691035
#
# Coordination Sequence:
#
# PCOD8281700 Si02
#       8
#    16  16  16  16  16   8  16  16
#     4  10  20  37  55  90 126 169 198 240 291 359
#     4   9  19  30  53  83 128 172 205 234 276 352
#     4  11  21  35  56  87 129 166 204 236 291 356
#     4  11  21  33  53  88 125 165 194 242 288 357
#     4  11  26  46  67  88 115 155 207 268 328 382
#     4  10  17  32  56  92 116 150 200 256 297 348
#     4  11  26  37  59  84 120 162 208 250 308 370
#     4  10  21  35  63  88 122 151 199 250 309 358
#
# _framework density 20.538921999999999
#
# number of rings (size 3 to 8) (size 9 to 14) (size 15 to 20)
#    0.000    1.600    2.667    2.200    7.467    1.600 
#    0.000    2.000    0.000    5.600    0.000    0.000 
#    0.000    0.000    0.000    0.000    0.000    0.000 
#
# Total GULP energy -743305.443192 kJ/mol
# GULP energy per Si atom -12388.424053 kJ/mol
# Density = 2.049217 g / cm^3
# Si number density = 20.538922 Si / 1000 Ang^3
#
#
#
# Elastic Constant Matrix: (Units=GPa)
#
#
# Indices 1 2 3 4 5 6 
#
# 1 74.2345 14.6501 47.2063 0.0000 0.0000 0.0000
# 2 14.6501 47.2731 39.4720 0.0000 0.0000 0.0000
# 3 47.2063 39.4720 139.9767 0.0000 0.0000 0.0000
# 4 0.0000 0.0000 0.0000 444.3099 0.0000 0.0000
# 5 0.0000 0.0000 0.0000 0.0000 34.2819 0.0000
# 6 0.0000 0.0000 0.0000 0.0000 0.0000 33.3176
#
#
#
# Elastic Compliance Matrix: (Units=1/GPa)
#
#
# Indices 1 2 3 4 5 6 
#
# 1 0.017163 -0.000636 -0.005609 0.000000 0.000000 0.000000
# 2 -0.000636 0.027692 -0.007595 0.000000 0.000000 0.000000
# 3 -0.005609 -0.007595 0.011177 0.000000 0.000000 0.000000
# 4 0.000000 0.000000 0.000000 0.002251 0.000000 0.000000
# 5 0.000000 0.000000 0.000000 0.000000 0.029170 0.000000
# 6 0.000000 0.000000 0.000000 0.000000 0.000000 0.030014
#
#
# Mechanical properties :
#
#
# Convention : Reuss Voigt Hill
#
# Bulk Modulus (GPa) = 35.26816 51.57123 43.41970
# Shear Modulus (GPa) = 32.34233 113.05895 72.70064
#
# Velocity S-wave (km/s) = 3.97253 7.42736 5.95595
# Velocity P-wave (km/s) = 6.18466 9.93568 8.27550
#
# Compressibility (1/GPa) = 0.02835418
#
# Stress axis : x y z
#
# Youngs Moduli (GPa) = 58.26491 36.11162 89.46793
#
# Poissons Ratio (x) = 0.02295 0.50182
# Poissons Ratio (y) = 0.03703 0.67947
# Poissons Ratio (z) = 0.32680 0.27425
#
# Static dielectric constant tensor:
#      x y z
#    x 3.974870 0.000000 0.000000 
#    y 0.000000 3.549020 0.000000 
#    z 0.000000 0.000000 4.138500 
# 
# 
# High freq. dielectric constant tensor:
#      x y z
#    x 1.810800 0.000000 0.000000 
#    y 0.000000 1.758620 0.000000 
#    z 0.000000 0.000000 1.822030 
# 
# From -- ./inp_files/37984.got.cif
#   From: 2010.03.12/outbox.cif.g09.slc.cpg/sg68_19_cif.got.tgz:37984.got - 2010.04.10 23:14:56.
