data_PCOD8281563
_publ_section_title
;
Structure prediction by ZEFSAII (Michael W. Deem and Ramdas Pophale) SiO2 
 PCOD8281563
Probable space group: C M M A
;
_chemical_formula_sum "Si O2"
_cell_formula_units_Z 96
_cell_length_a 19.508166
_cell_length_b 9.884472
_cell_length_c 30.129286
_cell_angle_alpha 90.000000
_cell_angle_beta 90.000000
_cell_angle_gamma 90.000000
_cell_volume 5809.767568
_symmetry_space_group_name_H-M "C M M A"
_symmetry_group_IT_number 67
_symmetry_cell_setting 'orthorhombic'
loop_
_space_group_symop_operation_xyz
x,y,z
-x,1/2-y,z
x,-y,-z
-x,1/2+y,-z
-x,-y,-z
x,1/2+y,-z
-x,y,z
x,1/2-y,z
1/2+x,1/2+y,z
1/2-x,-y,z
1/2+x,1/2-y,-z
1/2-x,y,-z
1/2-x,1/2-y,-z
1/2+x,y,-z
1/2-x,1/2+y,z
1/2+x,-y,z
loop_
_atom_site_type_symbol
_atom_site_label
_atom_site_fract_x
_atom_site_fract_y
_atom_site_fract_z
Si Si1 0.581580 0.901771 0.037249
Si Si2 0.188059 0.094651 0.714390
Si Si3 0.921118 0.594351 0.212579
Si Si4 0.421346 0.594728 0.539838
Si Si5 0.311779 0.094752 0.387248
Si Si6 0.581437 0.401613 0.864390
O O1 0.500000 0.909673 0.036059
O O2 0.606047 0.750000 0.026375
O O3 0.607626 0.944280 0.086459
O O4 0.613929 0.000000 0.000000
O O5 0.211115 0.250000 0.720507
O O6 0.121118 0.061060 0.743173
O O7 0.168429 0.063312 0.663552
O O8 0.250000 0.000000 0.730484
O O9 0.913456 0.750000 0.198355
O O10 0.890299 0.505761 0.172212
O O11 0.000000 0.557518 0.222773
O O12 0.395278 0.500000 0.500000
O O13 0.500000 0.562891 0.551688
O O14 0.411572 0.750000 0.524940
O O15 0.378176 0.560981 0.583619
O O16 0.288522 0.250000 0.393242
O O17 0.250000 0.000000 0.403431
O O18 0.500000 0.405467 0.864327
O O19 0.607058 0.250000 0.852918
#
# Coordination Sequence:
#
# PCOD8281563 Si02
#       6
#    16  16  16  16  16  16
#     4   8  13  20  30  46  70 102 138 172 207 249
#     4   9  18  32  48  66  89 116 146 181 220 261
#     4   9  17  28  43  64  87 111 142 180 219 257
#     4   9  18  32  49  69  93 121 151 182 218 259
#     4   9  18  32  49  68  90 117 148 182 220 261
#     4   8  14  24  36  52  78 110 141 174 213 257
#
# _framework density 16.523897000000002
#
# number of rings (size 3 to 8) (size 9 to 14) (size 15 to 20)
#    0.000    3.333    0.000    1.000    0.000    3.000 
#    0.000    8.333    0.000    0.000    0.000    9.333 
#    0.000    0.667    0.000    7.333    0.000   12.000 
#
# Total GULP energy -595033.312265 kJ/mol
# GULP energy per Si atom -12396.527339 kJ/mol
# Density = 1.648629 g / cm^3
# Si number density = 16.523897 Si / 1000 Ang^3
#
#
#
# Elastic Constant Matrix: (Units=GPa)
#
#
# Indices 1 2 3 4 5 6 
#
# 1 55.4773 44.4333 52.9666 0.0000 0.0000 0.0000
# 2 44.4333 85.6215 72.1287 0.0000 0.0000 0.0000
# 3 52.9666 72.1287 116.5626 0.0000 0.0000 0.0000
# 4 0.0000 0.0000 0.0000 32.3479 0.0000 0.0000
# 5 0.0000 0.0000 0.0000 0.0000 6.8012 0.0000
# 6 0.0000 0.0000 0.0000 0.0000 0.0000 19.9924
#
#
#
# Elastic Compliance Matrix: (Units=1/GPa)
#
#
# Indices 1 2 3 4 5 6 
#
# 1 0.035596 -0.010124 -0.009910 0.000000 0.000000 0.000000
# 2 -0.010124 0.027277 -0.012278 0.000000 0.000000 0.000000
# 3 -0.009910 -0.012278 0.020680 0.000000 0.000000 0.000000
# 4 0.000000 0.000000 0.000000 0.030914 0.000000 0.000000
# 5 0.000000 0.000000 0.000000 0.000000 0.147033 0.000000
# 6 0.000000 0.000000 0.000000 0.000000 0.000000 0.050019
#
#
# Mechanical properties :
#
#
# Convention : Reuss Voigt Hill
#
# Bulk Modulus (GPa) = 52.83325 66.30208 59.56766
# Shear Modulus (GPa) = 13.07354 17.70381 15.38868
#
# Velocity S-wave (km/s) = 2.81586 3.27679 3.05503
# Velocity P-wave (km/s) = 6.52804 7.38434 6.96936
#
# Compressibility (1/GPa) = 0.01892748
#
# Stress axis : x y z
#
# Youngs Moduli (GPa) = 28.09340 36.66154 48.35563
#
# Poissons Ratio (x) = 0.37116 0.47921
# Poissons Ratio (y) = 0.28441 0.59373
# Poissons Ratio (z) = 0.27841 0.45014
#
# Static dielectric constant tensor:
#      x y z
#    x 2.744280 0.000000 0.000000 
#    y 0.000000 3.283490 0.000000 
#    z 0.000000 0.000000 3.312850 
# 
# 
# High freq. dielectric constant tensor:
#      x y z
#    x 1.591610 0.000000 0.000000 
#    y 0.000000 1.640550 0.000000 
#    z 0.000000 0.000000 1.641500 
# 
# From -- ./inp_files/44793.got.cif
#   From: 2010.03.12/outbox.cif.g09.slc.cpg/sg67_23_cif.got.tgz:44793.got - 2010.04.10 22:41:39.
