data_PCOD8281067
_publ_section_title
;
Structure prediction by ZEFSAII (Michael W. Deem and Ramdas Pophale) SiO2 
 PCOD8281067
Probable space group: C M M A
;
_chemical_formula_sum "Si O2"
_cell_formula_units_Z 88
_cell_length_a 16.597079
_cell_length_b 31.196055
_cell_length_c 8.085604
_cell_angle_alpha 90.000000
_cell_angle_beta 90.000000
_cell_angle_gamma 90.000000
_cell_volume 4186.429732
_symmetry_space_group_name_H-M "C M M A"
_symmetry_group_IT_number 67
_symmetry_cell_setting 'orthorhombic'
loop_
_space_group_symop_operation_xyz
x,y,z
-x,1/2-y,z
x,-y,-z
-x,1/2+y,-z
-x,-y,-z
x,1/2+y,-z
-x,y,z
x,1/2-y,z
1/2+x,1/2+y,z
1/2-x,-y,z
1/2+x,1/2-y,-z
1/2-x,y,-z
1/2-x,1/2-y,-z
1/2+x,y,-z
1/2-x,1/2+y,z
1/2+x,-y,z
loop_
_atom_site_type_symbol
_atom_site_label
_atom_site_fract_x
_atom_site_fract_y
_atom_site_fract_z
Si Si1 0.088803 0.984586 0.183793
Si Si2 0.832618 0.897830 0.196180
Si Si3 0.691269 0.298301 0.656281
Si Si4 0.806985 0.053743 0.345579
Si Si5 0.750000 0.166488 0.000000
Si Si6 0.405912 0.872191 0.476037
O O1 0.098595 0.933383 0.177508
O O2 0.000000 0.994537 0.256640
O O3 0.158642 0.007498 0.289788
O O4 0.097064 0.000000 0.000000
O O5 0.745507 0.921606 0.207938
O O6 0.852977 0.869603 0.357334
O O7 0.826429 0.864441 0.044360
O O8 0.657207 0.250000 0.654708
O O9 0.750000 0.304993 0.500000
O O10 0.617832 0.331549 0.636865
O O11 0.732030 0.305649 0.836446
O O12 0.750000 0.045301 0.500000
O O13 0.884198 0.083149 0.386267
O O14 0.500000 0.870764 0.514846
#
# Coordination Sequence:
#
# PCOD8281067 Si02
#       6
#    16  16  16  16   8  16
#     4  11  24  39  56  90 131 171 214 268 325 371
#     4  11  22  38  63  94 127 166 223 265 315 377
#     4  11  23  44  72 102 130 163 213 266 323 393
#     4  10  21  40  62  87 120 170 225 267 312 371
#     4  12  21  42  71 102 126 166 220 269 319 378
#     4  11  22  41  65  93 132 171 212 268 330 389
#
# _framework density 21.020298
#
# number of rings (size 3 to 8) (size 9 to 14) (size 15 to 20)
#    0.000    1.091    3.636    3.545    0.000    6.182 
#    0.000    5.455    0.000    0.000    0.000    0.000 
#    0.000    0.000    0.000    0.000    0.000    0.000 
#
# Total GULP energy -545430.586956 kJ/mol
# GULP energy per Si atom -12396.149704 kJ/mol
# Density = 2.097245 g / cm^3
# Si number density = 21.020298 Si / 1000 Ang^3
#
#
#
# Elastic Constant Matrix: (Units=GPa)
#
#
# Indices 1 2 3 4 5 6 
#
# 1 88.2112 38.6042 19.7681 0.0000 0.0000 0.0000
# 2 38.6042 125.8054 38.1058 0.0000 0.0000 0.0000
# 3 19.7681 38.1058 87.9199 0.0000 0.0000 0.0000
# 4 0.0000 0.0000 0.0000 24.6101 0.0000 0.0000
# 5 0.0000 0.0000 0.0000 0.0000 -5.3410 0.0000
# 6 0.0000 0.0000 0.0000 0.0000 0.0000 23.0318
#
#
#
# Elastic Compliance Matrix: (Units=1/GPa)
#
#
# Indices 1 2 3 4 5 6 
#
# 1 0.013243 -0.003640 -0.001400 0.000000 0.000000 0.000000
# 2 -0.003640 0.010150 -0.003581 0.000000 0.000000 0.000000
# 3 -0.001400 -0.003581 0.013241 0.000000 0.000000 0.000000
# 4 0.000000 0.000000 0.000000 0.040634 0.000000 0.000000
# 5 0.000000 0.000000 0.000000 0.000000 -0.187231 0.000000
# 6 0.000000 0.000000 0.000000 0.000000 0.000000 0.043418
#
#
# Mechanical properties :
#
#
# Convention : Reuss Voigt Hill
#
# Bulk Modulus (GPa) = 51.56562 54.98806 53.27684
# Shear Modulus (GPa) = -116.71446 22.15741 -47.27853
#
# Velocity S-wave (km/s) = -7.45957 3.25021 -4.74770
# Velocity P-wave (km/s) = 7.04336 6.34834 2.15726
#
# Compressibility (1/GPa) = 0.01939277
#
# Stress axis : x y z
#
# Youngs Moduli (GPa) = 75.51151 98.51956 75.52397
#
# Poissons Ratio (x) = 0.35857 0.10574
# Poissons Ratio (y) = 0.27483 0.27045
# Poissons Ratio (z) = 0.10573 0.35279
#
# Static dielectric constant tensor:
#      x y z
#    x 3.621400 0.000000 0.000000 
#    y 0.000000 4.162380 0.000000 
#    z 0.000000 0.000000 3.870890 
# 
# 
# High freq. dielectric constant tensor:
#      x y z
#    x 1.800570 0.000000 0.000000 
#    y 0.000000 1.827840 0.000000 
#    z 0.000000 0.000000 1.829590 
# 
# From -- ./inp_files/10224.got.cif
#   From: 2010.03.12/outbox.cif.g09.slc.cpg/sg67_6_cif.got.tgz:10224.got - 2010.04.10 22:41:39.
