data_PCOD8281191
_publ_section_title
;
Structure prediction by ZEFSAII (Michael W. Deem and Ramdas Pophale) SiO2 
 PCOD8281191
Probable space group: C M M A
;
_chemical_formula_sum "Si O2"
_cell_formula_units_Z 80
_cell_length_a 15.140300
_cell_length_b 24.982882
_cell_length_c 11.290950
_cell_angle_alpha 90.000000
_cell_angle_beta 90.000000
_cell_angle_gamma 90.000000
_cell_volume 4270.782963
_symmetry_space_group_name_H-M "C M M A"
_symmetry_group_IT_number 67
_symmetry_cell_setting 'orthorhombic'
loop_
_space_group_symop_operation_xyz
x,y,z
-x,1/2-y,z
x,-y,-z
-x,1/2+y,-z
-x,-y,-z
x,1/2+y,-z
-x,y,z
x,1/2-y,z
1/2+x,1/2+y,z
1/2-x,-y,z
1/2+x,1/2-y,-z
1/2-x,y,-z
1/2-x,1/2-y,-z
1/2+x,y,-z
1/2-x,1/2+y,z
1/2+x,-y,z
loop_
_atom_site_type_symbol
_atom_site_label
_atom_site_fract_x
_atom_site_fract_y
_atom_site_fract_z
Si Si1 0.339548 0.476344 0.208972
Si Si2 0.601515 0.687597 0.772959
Si Si3 0.646817 0.388628 0.026344
Si Si4 0.904822 0.590127 0.768793
Si Si5 0.230815 0.886377 0.362502
O O1 0.250000 0.500000 0.152088
O O2 0.382561 0.438133 0.110393
O O3 0.401871 0.525536 0.243870
O O4 0.315235 0.442431 0.327024
O O5 0.500000 0.675969 0.737090
O O6 0.622035 0.750000 0.775603
O O7 0.621243 0.665346 0.904393
O O8 0.666389 0.661605 0.675562
O O9 0.750000 0.389601 0.000000
O O10 0.593660 0.392623 0.905612
O O11 0.825126 0.619783 0.702923
O O12 0.000000 0.607787 0.715241
O O13 0.250000 0.884474 0.500000
#
# Coordination Sequence:
#
# PCOD8281191 Si02
#       5
#    16  16  16  16  16
#     4   9  18  31  52  79 113 149 188 222 271 329
#     4  10  22  40  63  88 112 143 188 240 297 354
#     4  11  18  34  58  85 113 152 184 229 287 348
#     4  11  22  34  54  85 118 152 191 230 279 336
#     4  10  22  40  59  79 112 153 194 242 283 330
#
# _framework density 18.731928
#
# number of rings (size 3 to 8) (size 9 to 14) (size 15 to 20)
#    0.000    1.800    6.000    1.200    0.000   10.000 
#    0.000    1.000    0.000    0.600    0.000    0.000 
#    0.000    0.000    0.000    0.000    0.000    0.000 
#
# Total GULP energy -495863.510129 kJ/mol
# GULP energy per Si atom -12396.587753 kJ/mol
# Density = 1.868929 g / cm^3
# Si number density = 18.731928 Si / 1000 Ang^3
#
#
#
# Elastic Constant Matrix: (Units=GPa)
#
#
# Indices 1 2 3 4 5 6 
#
# 1 118.8525 47.3414 41.7879 0.0000 0.0000 0.0000
# 2 47.3414 93.8384 60.7466 0.0000 0.0000 0.0000
# 3 41.7879 60.7466 134.0513 0.0000 0.0000 0.0000
# 4 0.0000 0.0000 0.0000 14.4245 0.0000 0.0000
# 5 0.0000 0.0000 0.0000 0.0000 6.9909 0.0000
# 6 0.0000 0.0000 0.0000 0.0000 0.0000 24.8475
#
#
#
# Elastic Compliance Matrix: (Units=1/GPa)
#
#
# Indices 1 2 3 4 5 6 
#
# 1 0.010677 -0.004574 -0.001256 0.000000 0.000000 0.000000
# 2 -0.004574 0.017040 -0.006296 0.000000 0.000000 0.000000
# 3 -0.001256 -0.006296 0.010704 0.000000 0.000000 0.000000
# 4 0.000000 0.000000 0.000000 0.069326 0.000000 0.000000
# 5 0.000000 0.000000 0.000000 0.000000 0.143044 0.000000
# 6 0.000000 0.000000 0.000000 0.000000 0.000000 0.040246
#
#
# Mechanical properties :
#
#
# Convention : Reuss Voigt Hill
#
# Bulk Modulus (GPa) = 70.56964 71.83267 71.20116
# Shear Modulus (GPa) = 15.62446 22.37699 19.00073
#
# Velocity S-wave (km/s) = 2.89123 3.46004 3.18834
# Velocity P-wave (km/s) = 6.99291 7.37519 7.18659
#
# Compressibility (1/GPa) = 0.01417040
#
# Stress axis : x y z
#
# Youngs Moduli (GPa) = 93.65847 58.68631 93.41968
#
# Poissons Ratio (x) = 0.26841 0.11731
# Poissons Ratio (y) = 0.42836 0.58817
# Poissons Ratio (z) = 0.11761 0.36949
#
# Static dielectric constant tensor:
#      x y z
#    x 3.523750 0.000000 0.000000 
#    y 0.000000 3.466340 0.000000 
#    z 0.000000 0.000000 3.331460 
# 
# 
# High freq. dielectric constant tensor:
#      x y z
#    x 1.735000 0.000000 0.000000 
#    y 0.000000 1.710900 0.000000 
#    z 0.000000 0.000000 1.708740 
# 
# From -- ./inp_files/17896.got.cif
#   From: 2010.03.12/outbox.cif.g09.slc.cpg/sg67_9_cif.got.tgz:17896.got - 2010.04.10 22:41:39.
