data_PCOD8281538
_publ_section_title
;
Structure prediction by ZEFSAII (Michael W. Deem and Ramdas Pophale) SiO2 
 PCOD8281538
Probable space group: C M M A
;
_chemical_formula_sum "Si O2"
_cell_formula_units_Z 68
_cell_length_a 10.286262
_cell_length_b 13.870867
_cell_length_c 22.239704
_cell_angle_alpha 90.000000
_cell_angle_beta 90.000000
_cell_angle_gamma 90.000000
_cell_volume 3173.147003
_symmetry_space_group_name_H-M "C M M A"
_symmetry_group_IT_number 67
_symmetry_cell_setting 'orthorhombic'
loop_
_space_group_symop_operation_xyz
x,y,z
-x,1/2-y,z
x,-y,-z
-x,1/2+y,-z
-x,-y,-z
x,1/2+y,-z
-x,y,z
x,1/2-y,z
1/2+x,1/2+y,z
1/2-x,-y,z
1/2+x,1/2-y,-z
1/2-x,y,-z
1/2-x,1/2-y,-z
1/2+x,y,-z
1/2-x,1/2+y,z
1/2+x,-y,z
loop_
_atom_site_type_symbol
_atom_site_label
_atom_site_fract_x
_atom_site_fract_y
_atom_site_fract_z
Si Si1 0.250000 0.000000 0.500000
Si Si2 0.354142 0.364552 0.725450
Si Si3 0.850172 0.645233 0.594350
Si Si4 0.645330 0.635286 0.818972
Si Si5 0.144991 0.135340 0.953755
O O1 0.163777 0.932374 0.541895
O O2 0.500000 0.406265 0.736858
O O3 0.358927 0.250000 0.731115
O O4 0.297143 0.391813 0.658982
O O5 0.253362 0.409038 0.773876
O O6 0.786884 0.750000 0.576942
O O7 0.000000 0.663152 0.605582
O O8 0.500000 0.600578 0.800461
O O9 0.649947 0.750000 0.816388
O O10 0.678552 0.599759 0.886400
O O11 0.150904 0.250000 0.955715
O O12 0.000000 0.100962 0.972354
O O13 0.250000 0.090457 0.000000
#
# Coordination Sequence:
#
# PCOD8281538 Si02
#       5
#     4  16  16  16  16
#     4  12  20  32  56  80 100 132 170 204 252 312
#     4   8  14  26  43  60  81 115 156 195 240 296
#     4   9  19  35  52  73 103 134 167 211 258 305
#     4   8  13  21  33  51  76 106 145 196 246 286
#     4   8  13  19  26  40  67 103 142 186 235 284
#
# _framework density 21.429829000000002
#
# number of rings (size 3 to 8) (size 9 to 14) (size 15 to 20)
#    0.000    3.529    0.000    3.529    0.000    0.941 
#    0.000    7.059    0.000    5.647    0.000    0.000 
#    0.000    0.000    0.000    1.059    0.000   19.529 
#
# Total GULP energy -421225.282161 kJ/mol
# GULP energy per Si atom -12388.978887 kJ/mol
# Density = 2.138105 g / cm^3
# Si number density = 21.429829 Si / 1000 Ang^3
#
#
#
# Elastic Constant Matrix: (Units=GPa)
#
#
# Indices 1 2 3 4 5 6 
#
# 1 128.5405 18.6477 101.1887 0.0000 0.0000 0.0000
# 2 18.6477 47.0741 35.5171 0.0000 0.0000 0.0000
# 3 101.1887 35.5171 188.6392 0.0000 0.0000 0.0000
# 4 0.0000 0.0000 0.0000 -17.3831 0.0000 0.0000
# 5 0.0000 0.0000 0.0000 0.0000 38.2222 0.0000
# 6 0.0000 0.0000 0.0000 0.0000 0.0000 -2.3943
#
#
#
# Elastic Compliance Matrix: (Units=1/GPa)
#
#
# Indices 1 2 3 4 5 6 
#
# 1 0.013467 0.000135 -0.007249 0.000000 0.000000 0.000000
# 2 0.000135 0.024762 -0.004734 0.000000 0.000000 0.000000
# 3 -0.007249 -0.004734 0.010081 0.000000 0.000000 0.000000
# 4 0.000000 0.000000 0.000000 -0.057527 0.000000 0.000000
# 5 0.000000 0.000000 0.000000 0.000000 0.026163 0.000000
# 6 0.000000 0.000000 0.000000 0.000000 0.000000 -0.417659
#
#
# Mechanical properties :
#
#
# Convention : Reuss Voigt Hill
#
# Bulk Modulus (GPa) = 40.63063 74.99566 57.81314
# Shear Modulus (GPa) = -13.55703 17.61565 2.02931
#
# Velocity S-wave (km/s) = -2.51793 2.87019 0.97417
# Velocity P-wave (km/s) = 3.24772 6.78645 5.31994
#
# Compressibility (1/GPa) = 0.02461197
#
# Stress axis : x y z
#
# Youngs Moduli (GPa) = 74.25743 40.38474 99.19612
#
# Poissons Ratio (x) = -0.00544 0.71908
# Poissons Ratio (y) = -0.01001 0.46964
# Poissons Ratio (z) = 0.53830 0.19120
#
# Static dielectric constant tensor:
#      x y z
#    x 3.955090 0.000000 0.000000 
#    y 0.000000 3.427290 0.000000 
#    z 0.000000 0.000000 4.192820 
# 
# 
# High freq. dielectric constant tensor:
#      x y z
#    x 1.822040 0.000000 0.000000 
#    y 0.000000 1.819340 0.000000 
#    z 0.000000 0.000000 1.844750 
# 
# From -- ./inp_files/32781.got.cif
#   From: 2010.03.12/outbox.cif.g09.slc.cpg/sg67_17_cif.got.tgz:32781.got - 2010.04.10 22:41:39.
