data_PCOD8281980
_publ_section_title
;
Structure prediction by ZEFSAII (Michael W. Deem and Ramdas Pophale) SiO2 
 PCOD8281980
Probable space group: C C C A
;
_chemical_formula_sum "Si O2"
_cell_formula_units_Z 112
_cell_length_a 16.043320
_cell_length_b 22.158115
_cell_length_c 16.068441
_cell_angle_alpha 90.000000
_cell_angle_beta 90.000000
_cell_angle_gamma 90.000000
_cell_volume 5712.165745
_symmetry_space_group_name_H-M "C C C A"
_symmetry_group_IT_number 68
_space_group.IT_coordinate_system_code '2'
_symmetry_cell_setting 'orthorhombic'
loop_
_space_group_symop_operation_xyz
x,y,z
-x,1/2-y,z
x,1/2-y,1/2-z
-x,y,1/2-z
-x,-y,-z
x,1/2+y,-z
-x,1/2+y,1/2+z
x,-y,1/2+z
1/2+x,1/2+y,z
1/2-x,-y,z
1/2+x,-y,1/2-z
1/2-x,1/2+y,1/2-z
1/2-x,1/2-y,-z
1/2+x,y,-z
1/2-x,y,1/2+z
1/2+x,1/2-y,1/2+z
loop_
_atom_site_type_symbol
_atom_site_label
_atom_site_fract_x
_atom_site_fract_y
_atom_site_fract_z
Si Si1 0.840745 0.976666 0.058258
Si Si2 0.217502 0.869926 0.541598
Si Si3 0.634544 0.290074 0.404248
Si Si4 0.574356 0.714076 0.450824
Si Si5 0.791677 0.234925 0.341153
Si Si6 0.094974 0.593318 0.480452
Si Si7 0.537662 0.400125 0.340933
O O1 0.884597 0.944283 0.136945
O O2 0.750000 0.000000 0.087986
O O3 0.831186 0.932720 0.976714
O O4 0.899174 0.031505 0.030956
O O5 0.195705 0.827626 0.464190
O O6 0.192861 0.834707 0.627595
O O7 0.315476 0.881949 0.547400
O O8 0.581118 0.243073 0.457325
O O9 0.693990 0.251971 0.343054
O O10 0.571444 0.331869 0.351420
O O11 0.500000 0.750000 0.403617
O O12 0.659563 0.719708 0.401166
O O13 0.551595 0.643511 0.460251
O O14 0.826442 0.250000 0.250000
O O15 0.037717 0.583202 0.401288
O O16 0.500000 0.410700 0.250000
#
# Coordination Sequence:
#
# PCOD8281980 Si02
#       7
#    16  16  16  16  16  16  16
#     4   9  21  41  66  84 113 169 217 243 294 372
#     4   9  18  37  60  84 112 156 212 240 287 373
#     4  10  19  36  58  83 115 160 193 240 307 374
#     4  11  20  37  61  86 115 160 205 246 296 370
#     4  11  22  35  58  88 126 157 197 252 311 368
#     4  11  19  37  63  84 114 160 204 248 297 361
#     4  11  24  37  58  94 127 147 193 266 317 359
#
# _framework density 19.607274
#
# number of rings (size 3 to 8) (size 9 to 14) (size 15 to 20)
#    0.000    1.714    4.286    1.286    2.000    0.286 
#    0.000    4.286    0.000    0.000    0.000    0.000 
#    0.000    0.000    0.000    0.000    0.000    0.000 
#
# Total GULP energy -694047.122864 kJ/mol
# GULP energy per Si atom -12393.698623 kJ/mol
# Density = 1.956265 g / cm^3
# Si number density = 19.607274 Si / 1000 Ang^3
#
#
#
# Elastic Constant Matrix: (Units=GPa)
#
#
# Indices 1 2 3 4 5 6 
#
# 1 85.4584 32.1852 36.5899 0.0000 0.0000 0.0000
# 2 32.1852 126.5934 46.8591 0.0000 0.0000 0.0000
# 3 36.5899 46.8591 96.4501 0.0000 0.0000 0.0000
# 4 0.0000 0.0000 0.0000 19.8585 0.0000 0.0000
# 5 0.0000 0.0000 0.0000 0.0000 20.9273 0.0000
# 6 0.0000 0.0000 0.0000 0.0000 0.0000 32.8301
#
#
#
# Elastic Compliance Matrix: (Units=1/GPa)
#
#
# Indices 1 2 3 4 5 6 
#
# 1 0.014372 -0.001994 -0.004483 0.000000 0.000000 0.000000
# 2 -0.001994 0.009908 -0.004057 0.000000 0.000000 0.000000
# 3 -0.004483 -0.004057 0.014040 0.000000 0.000000 0.000000
# 4 0.000000 0.000000 0.000000 0.050356 0.000000 0.000000
# 5 0.000000 0.000000 0.000000 0.000000 0.047784 0.000000
# 6 0.000000 0.000000 0.000000 0.000000 0.000000 0.030460
#
#
# Mechanical properties :
#
#
# Convention : Reuss Voigt Hill
#
# Bulk Modulus (GPa) = 57.96924 59.97448 58.97186
# Shear Modulus (GPa) = 25.80760 27.58101 26.69431
#
# Velocity S-wave (km/s) = 3.63192 3.75463 3.69378
# Velocity P-wave (km/s) = 6.87147 7.03211 6.95226
#
# Compressibility (1/GPa) = 0.01725053
#
# Stress axis : x y z
#
# Youngs Moduli (GPa) = 69.57790 100.92705 71.22508
#
# Poissons Ratio (x) = 0.20130 0.31933
# Poissons Ratio (y) = 0.13877 0.28897
# Poissons Ratio (z) = 0.31194 0.40947
#
# Static dielectric constant tensor:
#      x y z
#    x 3.715250 0.000000 0.000000 
#    y 0.000000 3.895860 0.000000 
#    z 0.000000 0.000000 3.157550 
# 
# 
# High freq. dielectric constant tensor:
#      x y z
#    x 1.779760 0.000000 0.000000 
#    y 0.000000 1.770250 0.000000 
#    z 0.000000 0.000000 1.715880 
# 
# From -- ./inp_files/22631.got.cif
#   From: 2010.03.12/outbox.cif.g09.slc.cpg/sg68_12_cif.got.tgz:22631.got - 2010.04.10 23:14:56.
