data_PCOD8281109
_publ_section_title
;
Structure prediction by ZEFSAII (Michael W. Deem and Ramdas Pophale) SiO2 
 PCOD8281109
Probable space group: C M M A
;
_chemical_formula_sum "Si O2"
_cell_formula_units_Z 104
_cell_length_a 14.833362
_cell_length_b 29.752994
_cell_length_c 13.347579
_cell_angle_alpha 90.000000
_cell_angle_beta 90.000000
_cell_angle_gamma 90.000000
_cell_volume 5890.779547
_symmetry_space_group_name_H-M "C M M A"
_symmetry_group_IT_number 67
_symmetry_cell_setting 'orthorhombic'
loop_
_space_group_symop_operation_xyz
x,y,z
-x,1/2-y,z
x,-y,-z
-x,1/2+y,-z
-x,-y,-z
x,1/2+y,-z
-x,y,z
x,1/2-y,z
1/2+x,1/2+y,z
1/2-x,-y,z
1/2+x,1/2-y,-z
1/2-x,y,-z
1/2-x,1/2-y,-z
1/2+x,y,-z
1/2-x,1/2+y,z
1/2+x,-y,z
loop_
_atom_site_type_symbol
_atom_site_label
_atom_site_fract_x
_atom_site_fract_y
_atom_site_fract_z
Si Si1 0.103737 0.996393 0.700783
Si Si2 0.758898 0.426260 0.687349
Si Si3 0.792605 0.616335 0.890281
Si Si4 0.397491 0.698872 0.423644
Si Si5 0.750000 0.637267 0.500000
Si Si6 0.599087 0.529975 0.081456
Si Si7 0.396387 0.801495 0.192024
O O1 0.163637 0.952644 0.673266
O O2 0.100031 0.999954 0.819718
O O3 0.000000 0.993351 0.657285
O O4 0.155832 0.041179 0.666453
O O5 0.768564 0.401166 0.796030
O O6 0.762458 0.390545 0.600105
O O7 0.869644 0.579829 0.898580
O O8 0.832741 0.665564 0.870520
O O9 0.750000 0.618770 0.000000
O O10 0.500000 0.691820 0.457064
O O11 0.367453 0.750000 0.439970
O O12 0.338313 0.667784 0.494174
O O13 0.385250 0.685561 0.307877
O O14 0.500000 0.537288 0.037862
O O15 0.654974 0.500000 0.000000
O O16 0.500000 0.807858 0.158990
O O17 0.366324 0.750000 0.172427
#
# Coordination Sequence:
#
# PCOD8281109 Si02
#       7
#    16  16  16  16   8  16  16
#     4   9  19  36  52  69 106 148 185 227 267 319
#     4  10  22  35  51  80 106 142 187 223 274 327
#     4  11  20  32  52  80 111 139 174 225 274 324
#     4   9  19  36  59  84 108 140 182 228 279 328
#     4  12  21  35  56  82 116 140 176 235 275 328
#     4   9  17  30  50  73  97 136 184 227 266 305
#     4   9  18  35  57  80 106 138 182 229 271 325
#
# _framework density 17.654709
#
# number of rings (size 3 to 8) (size 9 to 14) (size 15 to 20)
#    0.000    2.308    1.538    2.538    0.000    4.923 
#    0.000    1.538    0.000    0.000    0.000    2.154 
#    0.000    0.000    0.000    0.000    0.000    0.000 
#
# Total GULP energy -644279.725156 kJ/mol
# GULP energy per Si atom -12389.994715 kJ/mol
# Density = 1.761453 g / cm^3
# Si number density = 17.654709 Si / 1000 Ang^3
#
#
#
# Elastic Constant Matrix: (Units=GPa)
#
#
# Indices 1 2 3 4 5 6 
#
# 1 86.7058 41.6115 34.7188 0.0000 0.0000 0.0000
# 2 41.6115 96.8280 46.5425 0.0000 0.0000 0.0000
# 3 34.7188 46.5425 90.9060 0.0000 0.0000 0.0000
# 4 0.0000 0.0000 0.0000 34.0648 0.0000 0.0000
# 5 0.0000 0.0000 0.0000 0.0000 17.4466 0.0000
# 6 0.0000 0.0000 0.0000 0.0000 0.0000 17.7520
#
#
#
# Elastic Compliance Matrix: (Units=1/GPa)
#
#
# Indices 1 2 3 4 5 6 
#
# 1 0.015229 -0.004973 -0.003270 0.000000 0.000000 0.000000
# 2 -0.004973 0.015323 -0.005946 0.000000 0.000000 0.000000
# 3 -0.003270 -0.005946 0.015294 0.000000 0.000000 0.000000
# 4 0.000000 0.000000 0.000000 0.029356 0.000000 0.000000
# 5 0.000000 0.000000 0.000000 0.000000 0.057318 0.000000
# 6 0.000000 0.000000 0.000000 0.000000 0.000000 0.056332
#
#
# Mechanical properties :
#
#
# Convention : Reuss Voigt Hill
#
# Bulk Modulus (GPa) = 57.24872 57.79836 57.52354
# Shear Modulus (GPa) = 22.41643 23.95716 23.18679
#
# Velocity S-wave (km/s) = 3.56717 3.68772 3.62795
# Velocity P-wave (km/s) = 7.03303 7.13734 7.08538
#
# Compressibility (1/GPa) = 0.01746764
#
# Stress axis : x y z
#
# Youngs Moduli (GPa) = 65.66293 65.26319 65.38709
#
# Poissons Ratio (x) = 0.32454 0.21384
# Poissons Ratio (y) = 0.32653 0.38877
# Poissons Ratio (z) = 0.21474 0.38804
#
# Static dielectric constant tensor:
#      x y z
#    x 3.362190 0.000000 0.000000 
#    y 0.000000 3.344000 0.000000 
#    z 0.000000 0.000000 3.332880 
# 
# 
# High freq. dielectric constant tensor:
#      x y z
#    x 1.673140 0.000000 0.000000 
#    y 0.000000 1.690240 0.000000 
#    z 0.000000 0.000000 1.671710 
# 
# From -- ./inp_files/18573.got.cif
#   From: 2010.03.12/outbox.cif.g09.slc.cpg/sg67_10_cif.got.tgz:18573.got - 2010.04.10 22:41:39.
