data_PCOD8281537
_publ_section_title
;
Structure prediction by ZEFSAII (Michael W. Deem and Ramdas Pophale) SiO2 
 PCOD8281537
Probable space group: C M M A
;
_chemical_formula_sum "Si O2"
_cell_formula_units_Z 112
_cell_length_a 14.505496
_cell_length_b 32.112110
_cell_length_c 15.291320
_cell_angle_alpha 90.000000
_cell_angle_beta 90.000000
_cell_angle_gamma 90.000000
_cell_volume 7122.728710
_symmetry_space_group_name_H-M "C M M A"
_symmetry_group_IT_number 67
_symmetry_cell_setting 'orthorhombic'
loop_
_space_group_symop_operation_xyz
x,y,z
-x,1/2-y,z
x,-y,-z
-x,1/2+y,-z
-x,-y,-z
x,1/2+y,-z
-x,y,z
x,1/2-y,z
1/2+x,1/2+y,z
1/2-x,-y,z
1/2+x,1/2-y,-z
1/2-x,y,-z
1/2-x,1/2-y,-z
1/2+x,y,-z
1/2-x,1/2+y,z
1/2+x,-y,z
loop_
_atom_site_type_symbol
_atom_site_label
_atom_site_fract_x
_atom_site_fract_y
_atom_site_fract_z
Si Si1 0.897119 0.201139 0.970794
Si Si2 0.103090 0.297294 0.431418
Si Si3 0.752449 0.932544 0.603868
Si Si4 0.897168 0.703463 0.366238
Si Si5 0.102314 0.001439 0.602572
Si Si6 0.221860 0.299483 0.137215
Si Si7 0.234352 0.654052 0.690962
O O1 0.907663 0.250000 0.965267
O O2 0.854396 0.189593 0.064716
O O3 0.000000 0.180878 0.959152
O O4 0.824536 0.187667 0.895745
O O5 0.135197 0.250000 0.416093
O O6 0.105012 0.308878 0.532705
O O7 0.172963 0.327810 0.386066
O O8 0.000000 0.303797 0.394369
O O9 0.750000 0.920168 0.500000
O O10 0.840728 0.960462 0.628789
O O11 0.760402 0.894827 0.672406
O O12 0.658819 0.957126 0.628351
O O13 0.858299 0.750000 0.353027
O O14 0.837402 0.671707 0.311183
O O15 0.000000 0.700525 0.328983
O O16 0.000000 0.001787 0.646591
O O17 0.090591 0.000000 0.500000
O O18 0.218068 0.250000 0.162162
O O19 0.194002 0.330419 0.216486
#
# Coordination Sequence:
#
# PCOD8281537 Si02
#       7
#    16  16  16  16  16  16  16
#     4   8  15  31  50  61  77 110 149 186 219 257
#     4   9  18  30  40  52  78 122 165 186 203 239
#     4   9  18  29  43  66  88 113 150 180 215 265
#     4   9  18  30  40  52  78 122 165 186 203 239
#     4   8  15  31  50  61  77 110 149 186 219 257
#     4   9  18  29  43  66  88 113 150 180 215 265
#     4  12  20  27  42  66  94 113 136 186 234 262
#
# _framework density 15.724311
#
# number of rings (size 3 to 8) (size 9 to 14) (size 15 to 20)
#    0.000    2.857    0.000    5.143    0.000    3.429 
#    0.000    5.714    0.000    0.000    0.000    0.000 
#    0.000    9.143    0.000   10.286    0.000    0.000 
#
# Total GULP energy -693885.452765 kJ/mol
# GULP energy per Si atom -12390.811657 kJ/mol
# Density = 1.568852 g / cm^3
# Si number density = 15.724311 Si / 1000 Ang^3
#
#
#
# Elastic Constant Matrix: (Units=GPa)
#
#
# Indices 1 2 3 4 5 6 
#
# 1 82.5148 18.3673 0.5983 0.0000 0.0000 0.0000
# 2 18.3673 71.5241 24.9521 0.0000 0.0000 0.0000
# 3 0.5983 24.9521 28.3131 0.0000 0.0000 0.0000
# 4 0.0000 0.0000 0.0000 17.4681 0.0000 0.0000
# 5 0.0000 0.0000 0.0000 0.0000 5.9891 0.0000
# 6 0.0000 0.0000 0.0000 0.0000 0.0000 17.2100
#
#
#
# Elastic Compliance Matrix: (Units=1/GPa)
#
#
# Indices 1 2 3 4 5 6 
#
# 1 0.013145 -0.004734 0.003894 0.000000 0.000000 0.000000
# 2 -0.004734 0.021893 -0.019194 0.000000 0.000000 0.000000
# 3 0.003894 -0.019194 0.052153 0.000000 0.000000 0.000000
# 4 0.000000 0.000000 0.000000 0.057247 0.000000 0.000000
# 5 0.000000 0.000000 0.000000 0.000000 0.166971 0.000000
# 6 0.000000 0.000000 0.000000 0.000000 0.000000 0.058106
#
#
# Mechanical properties :
#
#
# Convention : Reuss Voigt Hill
#
# Bulk Modulus (GPa) = 21.22126 30.02081 25.62103
# Shear Modulus (GPa) = 11.75669 17.36238 14.55954
#
# Velocity S-wave (km/s) = 2.73733 3.32652 3.04620
# Velocity P-wave (km/s) = 4.84931 5.82131 5.35740
#
# Compressibility (1/GPa) = 0.04712256
#
# Stress axis : x y z
#
# Youngs Moduli (GPa) = 76.07692 45.67640 19.17447
#
# Poissons Ratio (x) = 0.21624 -0.07467
# Poissons Ratio (y) = 0.36016 0.36804
# Poissons Ratio (z) = -0.29627 0.87672
#
# Static dielectric constant tensor:
#      x y z
#    x 3.746660 0.000000 0.000000 
#    y 0.000000 2.717050 0.000000 
#    z 0.000000 0.000000 2.734100 
# 
# 
# High freq. dielectric constant tensor:
#      x y z
#    x 1.622270 0.000000 0.000000 
#    y 0.000000 1.564940 0.000000 
#    z 0.000000 0.000000 1.567420 
# 
# From -- ./inp_files/27867.got.cif
#   From: 2010.03.12/outbox.cif.g09.slc.cpg/sg67_14_cif.got.tgz:27867.got - 2010.04.10 22:41:39.
