data_PCOD8281185
_publ_section_title
;
Structure prediction by ZEFSAII (Michael W. Deem and Ramdas Pophale) SiO2 
 PCOD8281185
Probable space group: C M M A
;
_chemical_formula_sum "Si O2"
_cell_formula_units_Z 100
_cell_length_a 19.679641
_cell_length_b 27.281186
_cell_length_c 9.437810
_cell_angle_alpha 90.000000
_cell_angle_beta 90.000000
_cell_angle_gamma 90.000000
_cell_volume 5067.008679
_symmetry_space_group_name_H-M "C M M A"
_symmetry_group_IT_number 67
_symmetry_cell_setting 'orthorhombic'
loop_
_space_group_symop_operation_xyz
x,y,z
-x,1/2-y,z
x,-y,-z
-x,1/2+y,-z
-x,-y,-z
x,1/2+y,-z
-x,y,z
x,1/2-y,z
1/2+x,1/2+y,z
1/2-x,-y,z
1/2+x,1/2-y,-z
1/2-x,y,-z
1/2-x,1/2-y,-z
1/2+x,y,-z
1/2-x,1/2+y,z
1/2+x,-y,z
loop_
_atom_site_type_symbol
_atom_site_label
_atom_site_fract_x
_atom_site_fract_y
_atom_site_fract_z
Si Si1 0.818962 0.696958 0.916502
Si Si2 0.250000 0.500000 0.500000
Si Si3 0.076855 0.614855 0.552145
Si Si4 0.829967 0.903419 0.030504
Si Si5 0.637774 0.449147 0.317616
Si Si6 0.814600 0.306238 0.411929
Si Si7 0.578858 0.546297 0.187810
O O1 0.858364 0.750000 0.928257
O O2 0.858559 0.650629 0.984685
O O3 0.801264 0.685452 0.753896
O O4 0.750000 0.702638 0.000000
O O5 0.294707 0.534501 0.600196
O O6 0.086905 0.577364 0.424033
O O7 0.121802 0.662906 0.534198
O O8 0.095135 0.588176 0.698485
O O9 0.000000 0.633180 0.552502
O O10 0.873272 0.944383 0.947510
O O11 0.750000 0.909049 0.000000
O O12 0.840695 0.910894 0.196708
O O13 0.596812 0.494324 0.254051
O O14 0.830287 0.250000 0.448310
O O15 0.750000 0.325158 0.500000
O O16 0.500000 0.546649 0.141126
#
# Coordination Sequence:
#
# PCOD8281185 Si02
#       7
#    16   4  16  16  16  16  16
#     4   9  19  37  60  89 124 156 194 247 312 367
#     4  12  24  40  60  92 126 180 208 272 312 356
#     4  11  24  41  63  90 125 168 209 252 309 375
#     4  11  24  39  62  96 122 157 204 263 313 374
#     4  12  25  38  62  88 127 168 214 256 312 369
#     4  10  22  39  66  97 122 157 206 255 310 374
#     4  11  23  44  64  87 124 167 213 255 310 378
#
# _framework density 19.735510000000001
#
# number of rings (size 3 to 8) (size 9 to 14) (size 15 to 20)
#    0.000    1.280    3.200    1.920    5.600    4.160 
#    0.000    0.000    0.000    0.480    0.000    0.000 
#    0.000    0.000    0.000    0.000    0.000    0.000 
#
# Total GULP energy -620033.325132 kJ/mol
# GULP energy per Si atom -12400.666503 kJ/mol
# Density = 1.969059 g / cm^3
# Si number density = 19.735510 Si / 1000 Ang^3
#
#
#
# Elastic Constant Matrix: (Units=GPa)
#
#
# Indices 1 2 3 4 5 6 
#
# 1 83.3737 51.0706 44.9334 0.0000 0.0000 0.0000
# 2 51.0706 110.2662 48.4948 0.0000 0.0000 0.0000
# 3 44.9334 48.4948 113.5267 0.0000 0.0000 0.0000
# 4 0.0000 0.0000 0.0000 31.0448 0.0000 0.0000
# 5 0.0000 0.0000 0.0000 0.0000 27.6573 0.0000
# 6 0.0000 0.0000 0.0000 0.0000 0.0000 38.3152
#
#
#
# Elastic Compliance Matrix: (Units=1/GPa)
#
#
# Indices 1 2 3 4 5 6 
#
# 1 0.018436 -0.006562 -0.004494 0.000000 0.000000 0.000000
# 2 -0.006562 0.013503 -0.003171 0.000000 0.000000 0.000000
# 3 -0.004494 -0.003171 0.011941 0.000000 0.000000 0.000000
# 4 0.000000 0.000000 0.000000 0.032212 0.000000 0.000000
# 5 0.000000 0.000000 0.000000 0.000000 0.036157 0.000000
# 6 0.000000 0.000000 0.000000 0.000000 0.000000 0.026099
#
#
# Mechanical properties :
#
#
# Convention : Reuss Voigt Hill
#
# Bulk Modulus (GPa) = 64.82193 66.24050 65.53122
# Shear Modulus (GPa) = 29.07943 30.24799 29.66371
#
# Velocity S-wave (km/s) = 3.84273 3.91918 3.88114
# Velocity P-wave (km/s) = 7.25296 7.35642 7.30487
#
# Compressibility (1/GPa) = 0.01542688
#
# Stress axis : x y z
#
# Youngs Moduli (GPa) = 54.24247 74.05875 83.74231
#
# Poissons Ratio (x) = 0.48600 0.37630
# Poissons Ratio (y) = 0.35596 0.26551
# Poissons Ratio (z) = 0.24374 0.23481
#
# Static dielectric constant tensor:
#      x y z
#    x 3.364690 0.000000 0.000000 
#    y 0.000000 4.107330 0.000000 
#    z 0.000000 0.000000 3.817940 
# 
# 
# High freq. dielectric constant tensor:
#      x y z
#    x 1.747100 0.000000 0.000000 
#    y 0.000000 1.781900 0.000000 
#    z 0.000000 0.000000 1.784030 
# 
# From -- ./inp_files/11568.got.cif
#   From: 2010.03.12/outbox.cif.g09.slc.cpg/sg67_6_cif.got.tgz:11568.got - 2010.04.10 22:41:39.
