data_PCOD8281709
_publ_section_title
;
Structure prediction by ZEFSAII (Michael W. Deem and Ramdas Pophale) SiO2 
 PCOD8281709
Probable space group: C C C A
;
_chemical_formula_sum "Si O2"
_cell_formula_units_Z 72
_cell_length_a 8.637110
_cell_length_b 15.006188
_cell_length_c 26.535291
_cell_angle_alpha 90.000000
_cell_angle_beta 90.000000
_cell_angle_gamma 90.000000
_cell_volume 3439.241625
_symmetry_space_group_name_H-M "C C C A"
_symmetry_group_IT_number 68
_space_group.IT_coordinate_system_code '2'
_symmetry_cell_setting 'orthorhombic'
loop_
_space_group_symop_operation_xyz
x,y,z
-x,1/2-y,z
x,1/2-y,1/2-z
-x,y,1/2-z
-x,-y,-z
x,1/2+y,-z
-x,1/2+y,1/2+z
x,-y,1/2+z
1/2+x,1/2+y,z
1/2-x,-y,z
1/2+x,-y,1/2-z
1/2-x,1/2+y,1/2-z
1/2-x,1/2-y,-z
1/2+x,y,-z
1/2-x,y,1/2+z
1/2+x,1/2-y,1/2+z
loop_
_atom_site_type_symbol
_atom_site_label
_atom_site_fract_x
_atom_site_fract_y
_atom_site_fract_z
Si Si1 0.000000 0.250000 0.366661
Si Si2 0.250000 0.000000 0.999878
Si Si3 0.758542 0.307462 0.705751
Si Si4 0.078802 0.460103 0.839436
Si Si5 0.000000 0.432179 0.250000
Si Si6 0.500554 0.569455 0.069875
O O1 0.152881 0.248801 0.331911
O O2 0.999594 0.161127 0.399728
O O3 0.150476 0.066724 0.034245
O O4 0.350672 0.064984 0.964996
O O5 0.837990 0.250000 0.750000
O O6 0.895686 0.355384 0.673489
O O7 0.650103 0.375077 0.736935
O O8 0.250000 0.500000 0.838554
O O9 0.966406 0.504493 0.797962
O O10 0.003379 0.482102 0.893576
#
# Coordination Sequence:
#
# PCOD8281709 Si02
#       6
#     8   8  16  16   8  16
#     4  12  19  34  62  88 118 150 204 247 298 358
#     4  10  24  42  66  86 116 154 204 248 316 366
#     4  11  18  33  56  86 118 163 202 239 285 357
#     4  10  19  35  59  85 119 162 193 244 296 353
#     4  10  17  34  55  84 114 158 198 232 287 365
#     4  11  21  42  64  91 116 157 199 255 304 363
#
# _framework density 20.934847999999999
#
# number of rings (size 3 to 8) (size 9 to 14) (size 15 to 20)
#    0.000    1.333    7.778    0.000    0.000    0.889 
#   10.000    0.556    0.000    0.000    0.000    0.000 
#    0.000    0.000    0.000    0.000    0.000    0.000 
#
# Total GULP energy -446159.134327 kJ/mol
# GULP energy per Si atom -12393.309287 kJ/mol
# Density = 2.088720 g / cm^3
# Si number density = 20.934848 Si / 1000 Ang^3
#
#
#
# Elastic Constant Matrix: (Units=GPa)
#
#
# Indices 1 2 3 4 5 6 
#
# 1 64.0912 34.7495 52.4663 0.0000 0.0000 0.0000
# 2 34.7495 110.7304 67.2796 0.0000 0.0000 0.0000
# 3 52.4663 67.2796 161.5681 0.0000 0.0000 0.0000
# 4 0.0000 0.0000 0.0000 34.5570 0.0000 0.0000
# 5 0.0000 0.0000 0.0000 0.0000 -66.6438 0.0000
# 6 0.0000 0.0000 0.0000 0.0000 0.0000 17.6700
#
#
#
# Elastic Compliance Matrix: (Units=1/GPa)
#
#
# Indices 1 2 3 4 5 6 
#
# 1 0.022202 -0.003463 -0.005768 0.000000 0.000000 0.000000
# 2 -0.003463 0.012630 -0.004135 0.000000 0.000000 0.000000
# 3 -0.005768 -0.004135 0.009784 0.000000 0.000000 0.000000
# 4 0.000000 0.000000 0.000000 0.028938 0.000000 0.000000
# 5 0.000000 0.000000 0.000000 0.000000 -0.015005 0.000000
# 6 0.000000 0.000000 0.000000 0.000000 0.000000 0.056593
#
#
# Mechanical properties :
#
#
# Convention : Reuss Voigt Hill
#
# Bulk Modulus (GPa) = 55.91248 71.70895 63.81072
# Shear Modulus (GPa) = 33.82173 9.24292 21.53232
#
# Velocity S-wave (km/s) = 4.02378 2.10349 3.21056
# Velocity P-wave (km/s) = 6.95367 6.34250 6.65511
#
# Compressibility (1/GPa) = 0.01788509
#
# Stress axis : x y z
#
# Youngs Moduli (GPa) = 45.04140 79.17654 102.20718
#
# Poissons Ratio (x) = 0.27419 0.58949
# Poissons Ratio (y) = 0.15598 0.42261
# Poissons Ratio (z) = 0.25978 0.32738
#
# Static dielectric constant tensor:
#      x y z
#    x 3.721770 0.000000 0.000000 
#    y 0.000000 4.032520 0.000000 
#    z 0.000000 0.000000 4.249880 
# 
# 
# High freq. dielectric constant tensor:
#      x y z
#    x 1.799750 0.000000 0.000000 
#    y 0.000000 1.803210 0.000000 
#    z 0.000000 0.000000 1.836970 
# 
# From -- ./inp_files/53925.got.cif
#   From: 2010.03.12/outbox.cif.g09.slc.cpg/sg68_27_cif.got.tgz:53925.got - 2010.04.10 23:14:56.
