data_PCOD8281969
_publ_section_title
;
Structure prediction by ZEFSAII (Michael W. Deem and Ramdas Pophale) SiO2 
 PCOD8281969
Probable space group: C C C A
;
_chemical_formula_sum "Si O2"
_cell_formula_units_Z 64
_cell_length_a 22.805045
_cell_length_b 8.044380
_cell_length_c 15.643543
_cell_angle_alpha 90.000000
_cell_angle_beta 90.000000
_cell_angle_gamma 90.000000
_cell_volume 2869.846257
_symmetry_space_group_name_H-M "C C C A"
_symmetry_group_IT_number 68
_space_group.IT_coordinate_system_code '2'
_symmetry_cell_setting 'orthorhombic'
loop_
_space_group_symop_operation_xyz
x,y,z
-x,1/2-y,z
x,1/2-y,1/2-z
-x,y,1/2-z
-x,-y,-z
x,1/2+y,-z
-x,1/2+y,1/2+z
x,-y,1/2+z
1/2+x,1/2+y,z
1/2-x,-y,z
1/2+x,-y,1/2-z
1/2-x,1/2+y,1/2-z
1/2-x,1/2-y,-z
1/2+x,y,-z
1/2-x,y,1/2+z
1/2+x,1/2-y,1/2+z
loop_
_atom_site_type_symbol
_atom_site_label
_atom_site_fract_x
_atom_site_fract_y
_atom_site_fract_z
Si Si1 0.308767 0.403707 0.536321
Si Si2 0.000000 0.250000 0.539801
Si Si3 0.309715 0.935882 0.130538
Si Si4 0.068477 0.051713 0.401560
Si Si5 0.398059 0.250000 0.750000
O O1 0.250000 0.500000 0.560236
O O2 0.327512 0.416476 0.435466
O O3 0.297653 0.213889 0.563667
O O4 0.362182 0.481245 0.591281
O O5 0.049003 0.165085 0.481103
O O6 0.031409 0.382650 0.601376
O O7 0.357922 0.885933 0.200181
O O8 0.250000 0.000000 0.177543
O O9 0.058845 0.152282 0.313635
#
# Coordination Sequence:
#
# PCOD8281969 Si02
#       5
#    16   8  16  16   8
#     4  10  19  35  63  90 118 156 206 251 296 365
#     4  10  22  41  70  87 114 166 222 248 288 382
#     4  10  20  35  57  88 124 166 202 245 303 367
#     4  10  21  40  64  92 119 161 206 258 311 363
#     4  10  22  35  58  90 134 162 196 267 326 362
#
# _framework density 22.300844999999999
#
# number of rings (size 3 to 8) (size 9 to 14) (size 15 to 20)
#    0.000    2.000    0.000    6.000    0.000    4.500 
#    0.000    0.000    0.000   55.500    0.000    0.000 
#    0.000    0.000    0.000    0.000    0.000    0.000 
#
# Total GULP energy -396606.307951 kJ/mol
# GULP energy per Si atom -12393.947123 kJ/mol
# Density = 2.225009 g / cm^3
# Si number density = 22.300845 Si / 1000 Ang^3
#
#
#
# Elastic Constant Matrix: (Units=GPa)
#
#
# Indices 1 2 3 4 5 6 
#
# 1 108.4621 63.7937 45.6288 0.0000 0.0000 0.0000
# 2 63.7937 117.5808 56.1918 0.0000 0.0000 0.0000
# 3 45.6288 56.1918 96.4433 0.0000 0.0000 0.0000
# 4 0.0000 0.0000 0.0000 34.5008 0.0000 0.0000
# 5 0.0000 0.0000 0.0000 0.0000 19.9467 0.0000
# 6 0.0000 0.0000 0.0000 0.0000 0.0000 40.2464
#
#
#
# Elastic Compliance Matrix: (Units=1/GPa)
#
#
# Indices 1 2 3 4 5 6 
#
# 1 0.014173 -0.006216 -0.003084 0.000000 0.000000 0.000000
# 2 -0.006216 0.014513 -0.005515 0.000000 0.000000 0.000000
# 3 -0.003084 -0.005515 0.015041 0.000000 0.000000 0.000000
# 4 0.000000 0.000000 0.000000 0.028985 0.000000 0.000000
# 5 0.000000 0.000000 0.000000 0.000000 0.050134 0.000000
# 6 0.000000 0.000000 0.000000 0.000000 0.000000 0.024847
#
#
# Mechanical properties :
#
#
# Convention : Reuss Voigt Hill
#
# Bulk Modulus (GPa) = 70.93412 72.63496 71.78454
# Shear Modulus (GPa) = 27.46936 29.39691 28.43313
#
# Velocity S-wave (km/s) = 3.51346 3.63464 3.57456
# Velocity P-wave (km/s) = 6.95241 7.08910 7.02109
#
# Compressibility (1/GPa) = 0.01409759
#
# Stress axis : x y z
#
# Youngs Moduli (GPa) = 70.55595 68.90464 66.48471
#
# Poissons Ratio (x) = 0.42830 0.20503
# Poissons Ratio (y) = 0.43857 0.36666
# Poissons Ratio (z) = 0.21759 0.38000
#
# Static dielectric constant tensor:
#      x y z
#    x 4.025340 0.000000 0.000000 
#    y 0.000000 4.121730 0.000000 
#    z 0.000000 0.000000 3.879570 
# 
# 
# High freq. dielectric constant tensor:
#      x y z
#    x 1.887270 0.000000 0.000000 
#    y 0.000000 1.876210 0.000000 
#    z 0.000000 0.000000 1.855380 
# 
# From -- ./inp_files/25047.got.cif
#   From: 2010.03.12/outbox.cif.g09.slc.cpg/sg68_13_cif.got.tgz:25047.got - 2010.04.10 23:14:56.
