data_PCOD8281521
_publ_section_title
;
Structure prediction by ZEFSAII (Michael W. Deem and Ramdas Pophale) SiO2 
 PCOD8281521
Probable space group: C M M A
;
_chemical_formula_sum "Si O2"
_cell_formula_units_Z 72
_cell_length_a 22.262785
_cell_length_b 10.008438
_cell_length_c 18.674568
_cell_angle_alpha 90.000000
_cell_angle_beta 90.000000
_cell_angle_gamma 90.000000
_cell_volume 4160.987004
_symmetry_space_group_name_H-M "C M M A"
_symmetry_group_IT_number 67
_symmetry_cell_setting 'orthorhombic'
loop_
_space_group_symop_operation_xyz
x,y,z
-x,1/2-y,z
x,-y,-z
-x,1/2+y,-z
-x,-y,-z
x,1/2+y,-z
-x,y,z
x,1/2-y,z
1/2+x,1/2+y,z
1/2-x,-y,z
1/2+x,1/2-y,-z
1/2-x,y,-z
1/2-x,1/2-y,-z
1/2+x,y,-z
1/2-x,1/2+y,z
1/2+x,-y,z
loop_
_atom_site_type_symbol
_atom_site_label
_atom_site_fract_x
_atom_site_fract_y
_atom_site_fract_z
Si Si1 0.000000 0.598839 0.565918
Si Si2 0.431858 0.592269 0.781952
Si Si3 0.881256 0.988922 0.641656
Si Si4 0.305792 0.250000 0.595975
Si Si5 0.071571 0.601313 0.058683
Si Si6 0.667708 0.250000 0.430319
O O1 0.000000 0.500000 0.500000
O O2 0.942125 0.576885 0.614449
O O3 0.000000 0.750000 0.536288
O O4 0.500000 0.541654 0.770141
O O5 0.429556 0.750000 0.770730
O O6 0.387749 0.523402 0.725326
O O7 0.409009 0.554616 0.861726
O O8 0.867692 0.119668 0.594954
O O9 0.827454 0.883387 0.635679
O O10 0.331245 0.250000 0.515755
O O11 0.234375 0.250000 0.601017
O O12 0.096383 0.750000 0.042368
O O13 0.000000 0.603814 0.055183
O O14 0.098793 0.500000 0.000000
#
# Coordination Sequence:
#
# PCOD8281521 Si02
#       6
#     8  16  16   8  16   8
#     4  12  26  38  54  80 111 142 175 222 275 334
#     4   9  17  31  49  74 108 146 176 207 262 329
#     4  12  22  37  57  79 109 139 180 223 271 331
#     4  11  24  41  55  79 104 134 186 244 275 310
#     4   8  14  26  44  67  99 138 178 208 243 307
#     4  11  24  41  61  73  98 146 186 228 285 318
#
# _framework density 17.303585999999999
#
# number of rings (size 3 to 8) (size 9 to 14) (size 15 to 20)
#    0.000    1.778    3.333    4.000    1.556    1.778 
#    2.000    0.000    0.000    0.000    0.000    0.000 
#    0.000    5.333    0.000    0.000    0.000    0.000 
#
# Total GULP energy -446436.900019 kJ/mol
# GULP energy per Si atom -12401.025001 kJ/mol
# Density = 1.726420 g / cm^3
# Si number density = 17.303586 Si / 1000 Ang^3
#
#
#
# Elastic Constant Matrix: (Units=GPa)
#
#
# Indices 1 2 3 4 5 6 
#
# 1 54.0226 27.9582 26.6910 0.0000 0.0000 0.0000
# 2 27.9582 109.1270 52.8186 0.0000 0.0000 0.0000
# 3 26.6910 52.8186 127.6841 0.0000 0.0000 0.0000
# 4 0.0000 0.0000 0.0000 32.0424 0.0000 0.0000
# 5 0.0000 0.0000 0.0000 0.0000 15.1435 0.0000
# 6 0.0000 0.0000 0.0000 0.0000 0.0000 18.7877
#
#
#
# Elastic Compliance Matrix: (Units=1/GPa)
#
#
# Indices 1 2 3 4 5 6 
#
# 1 0.022141 -0.004292 -0.002853 0.000000 0.000000 0.000000
# 2 -0.004292 0.012290 -0.004187 0.000000 0.000000 0.000000
# 3 -0.002853 -0.004187 0.010160 0.000000 0.000000 0.000000
# 4 0.000000 0.000000 0.000000 0.031209 0.000000 0.000000
# 5 0.000000 0.000000 0.000000 0.000000 0.066035 0.000000
# 6 0.000000 0.000000 0.000000 0.000000 0.000000 0.053226
#
#
# Mechanical properties :
#
#
# Convention : Reuss Voigt Hill
#
# Bulk Modulus (GPa) = 45.60327 56.19658 50.89993
# Shear Modulus (GPa) = 22.21894 25.41912 23.81903
#
# Velocity S-wave (km/s) = 3.58727 3.83692 3.71420
# Velocity P-wave (km/s) = 6.60076 7.22334 6.91906
#
# Compressibility (1/GPa) = 0.02192825
#
# Stress axis : x y z
#
# Youngs Moduli (GPa) = 45.16416 81.37003 98.42410
#
# Poissons Ratio (x) = 0.34921 0.28081
# Poissons Ratio (y) = 0.19383 0.41207
# Poissons Ratio (z) = 0.12886 0.34067
#
# Static dielectric constant tensor:
#      x y z
#    x 2.994760 0.000000 0.000000 
#    y 0.000000 3.440010 0.000000 
#    z 0.000000 0.000000 3.358290 
# 
# 
# High freq. dielectric constant tensor:
#      x y z
#    x 1.631320 0.000000 0.000000 
#    y 0.000000 1.675610 0.000000 
#    z 0.000000 0.000000 1.667020 
# 
# From -- ./inp_files/36795.got.cif
#   From: 2010.03.12/outbox.cif.g09.slc.cpg/sg67_19_cif.got.tgz:36795.got - 2010.04.10 22:41:39.
