data_PCOD8281043
_publ_section_title
;
Structure prediction by ZEFSAII (Michael W. Deem and Ramdas Pophale) SiO2 
 PCOD8281043
Probable space group: C M M A
;
_chemical_formula_sum "Si O2"
_cell_formula_units_Z 72
_cell_length_a 7.730437
_cell_length_b 16.084603
_cell_length_c 28.337943
_cell_angle_alpha 90.000000
_cell_angle_beta 90.000000
_cell_angle_gamma 90.000000
_cell_volume 3523.568459
_symmetry_space_group_name_H-M "C M M A"
_symmetry_group_IT_number 67
_symmetry_cell_setting 'orthorhombic'
loop_
_space_group_symop_operation_xyz
x,y,z
-x,1/2-y,z
x,-y,-z
-x,1/2+y,-z
-x,-y,-z
x,1/2+y,-z
-x,y,z
x,1/2-y,z
1/2+x,1/2+y,z
1/2-x,-y,z
1/2+x,1/2-y,-z
1/2-x,y,-z
1/2-x,1/2-y,-z
1/2+x,y,-z
1/2-x,1/2+y,z
1/2+x,-y,z
loop_
_atom_site_type_symbol
_atom_site_label
_atom_site_fract_x
_atom_site_fract_y
_atom_site_fract_z
Si Si1 0.500000 0.657421 0.719434
Si Si2 0.705207 0.592873 0.217213
Si Si3 0.193225 0.651030 0.551105
Si Si4 0.299471 0.750000 0.945859
Si Si5 0.000000 0.349580 0.616302
Si Si6 0.197436 0.909970 0.887811
O O1 0.500000 0.750000 0.701767
O O2 0.676793 0.647522 0.748967
O O3 0.500000 0.609534 0.669206
O O4 0.500000 0.613237 0.223361
O O5 0.750000 0.500000 0.232163
O O6 0.778346 0.607602 0.163700
O O7 0.195668 0.750000 0.550111
O O8 0.250000 0.616691 0.500000
O O9 0.327790 0.617018 0.590073
O O10 0.000000 0.618820 0.563489
O O11 0.500000 0.750000 0.938121
O O12 0.228998 0.834623 0.923429
O O13 0.250000 0.750000 0.000000
O O14 0.000000 0.250000 0.615001
O O15 0.000000 0.917575 0.876517
O O16 0.250000 0.000000 0.909642
#
# Coordination Sequence:
#
# PCOD8281043 Si02
#       6
#     8  16  16   8   8  16
#     4  11  24  36  56  88 128 155 196 251 316 367
#     4  10  21  39  64  88 116 158 207 254 296 364
#     4   9  14  22  40  62  91 140 193 228 277 352
#     4  12  26  42  64  92 130 168 204 254 310 369
#     4   9  18  30  40  68 111 146 179 242 296 348
#     4  10  22  40  64  93 122 157 209 259 305 366
#
# _framework density 20.433828999999999
#
# number of rings (size 3 to 8) (size 9 to 14) (size 15 to 20)
#    0.000    2.000    2.222    1.667    4.667    1.778 
#    0.000    4.444    0.000    0.000    0.000    0.000 
#    0.000    2.667    0.000    0.000    0.000    0.000 
#
# Total GULP energy -446070.403634 kJ/mol
# GULP energy per Si atom -12390.844545 kJ/mol
# Density = 2.038732 g / cm^3
# Si number density = 20.433829 Si / 1000 Ang^3
#
#
#
# Elastic Constant Matrix: (Units=GPa)
#
#
# Indices 1 2 3 4 5 6 
#
# 1 140.3763 22.1231 60.2194 0.0000 0.0000 0.0000
# 2 22.1231 72.9357 49.0892 0.0000 0.0000 0.0000
# 3 60.2194 49.0892 149.4641 0.0000 0.0000 0.0000
# 4 0.0000 0.0000 0.0000 -6.9704 0.0000 0.0000
# 5 0.0000 0.0000 0.0000 0.0000 -1.5937 0.0000
# 6 0.0000 0.0000 0.0000 0.0000 0.0000 23.4828
#
#
#
# Elastic Compliance Matrix: (Units=1/GPa)
#
#
# Indices 1 2 3 4 5 6 
#
# 1 0.008619 -0.000356 -0.003356 0.000000 0.000000 0.000000
# 2 -0.000356 0.017616 -0.005642 0.000000 0.000000 0.000000
# 3 -0.003356 -0.005642 0.009896 0.000000 0.000000 0.000000
# 4 0.000000 0.000000 0.000000 -0.143465 0.000000 0.000000
# 5 0.000000 0.000000 0.000000 0.000000 -0.627487 0.000000
# 6 0.000000 0.000000 0.000000 0.000000 0.000000 0.042584
#
#
# Mechanical properties :
#
#
# Convention : Reuss Voigt Hill
#
# Bulk Modulus (GPa) = 57.39465 69.51550 63.45507
# Shear Modulus (GPa) = -7.48817 18.40672 5.45928
#
# Velocity S-wave (km/s) = -1.91639 3.00458 1.63630
# Velocity P-wave (km/s) = 4.82206 6.79193 5.88993
#
# Compressibility (1/GPa) = 0.01742323
#
# Stress axis : x y z
#
# Youngs Moduli (GPa) = 116.01701 56.76577 101.05232
#
# Poissons Ratio (x) = 0.02020 0.33913
# Poissons Ratio (y) = 0.04128 0.57018
# Poissons Ratio (z) = 0.38935 0.32030
#
# Static dielectric constant tensor:
#      x y z
#    x 3.827790 0.000000 0.000000 
#    y 0.000000 3.345340 0.000000 
#    z 0.000000 0.000000 3.684800 
# 
# 
# High freq. dielectric constant tensor:
#      x y z
#    x 1.814830 0.000000 0.000000 
#    y 0.000000 1.764930 0.000000 
#    z 0.000000 0.000000 1.796860 
# 
# From -- ./inp_files/43155.got.cif
#   From: 2010.03.12/outbox.cif.g09.slc.cpg/sg67_22_cif.got.tgz:43155.got - 2010.04.10 22:41:39.
