data_PCOD8281433
_publ_section_title
;
Structure prediction by ZEFSAII (Michael W. Deem and Ramdas Pophale) SiO2 
 PCOD8281433
Probable space group: C M M A
;
_chemical_formula_sum "Si O2"
_cell_formula_units_Z 56
_cell_length_a 15.771128
_cell_length_b 8.564179
_cell_length_c 19.297591
_cell_angle_alpha 90.000000
_cell_angle_beta 90.000000
_cell_angle_gamma 90.000000
_cell_volume 2606.463154
_symmetry_space_group_name_H-M "C M M A"
_symmetry_group_IT_number 67
_symmetry_cell_setting 'orthorhombic'
loop_
_space_group_symop_operation_xyz
x,y,z
-x,1/2-y,z
x,-y,-z
-x,1/2+y,-z
-x,-y,-z
x,1/2+y,-z
-x,y,z
x,1/2-y,z
1/2+x,1/2+y,z
1/2-x,-y,z
1/2+x,1/2-y,-z
1/2-x,y,-z
1/2-x,1/2-y,-z
1/2+x,y,-z
1/2-x,1/2+y,z
1/2+x,-y,z
loop_
_atom_site_type_symbol
_atom_site_label
_atom_site_fract_x
_atom_site_fract_y
_atom_site_fract_z
Si Si1 0.000000 0.934570 0.923398
Si Si2 0.843244 0.434739 0.572080
Si Si3 0.096251 0.072792 0.290891
Si Si4 0.339028 0.566223 0.843825
O O1 0.000000 0.750000 0.924751
O O2 0.915522 0.990556 0.885552
O O3 0.000000 0.000000 0.000000
O O4 0.880872 0.500000 0.500000
O O5 0.841032 0.250000 0.568541
O O6 0.750000 0.500000 0.585271
O O7 0.902137 0.491863 0.634326
O O8 0.130511 0.250000 0.295561
O O9 0.000000 0.070765 0.263809
O O10 0.153576 0.976947 0.237260
O O11 0.341553 0.750000 0.854043
O O12 0.250000 0.500000 0.872606
#
# Coordination Sequence:
#
# PCOD8281433 Si02
#       4
#     8  16  16  16
#     4  12  26  48  74 106 143 180 223 274 332 396
#     4  11  22  38  59  84 119 161 213 270 332 397
#     4  11  23  40  63  91 127 169 218 274 332 393
#     4  12  25  44  71 103 139 181 228 277 334 397
#
# _framework density 21.485054999999999
#
# number of rings (size 3 to 8) (size 9 to 14) (size 15 to 20)
#    0.000    0.571    1.429    9.000    0.000    2.857 
#    0.000    2.857    0.000    0.000    0.000    0.000 
#    0.000    0.000    0.000    0.000    0.000    0.000 
#
# Total GULP energy -347383.208589 kJ/mol
# GULP energy per Si atom -12406.543164 kJ/mol
# Density = 2.143615 g / cm^3
# Si number density = 21.485055 Si / 1000 Ang^3
#
#
#
# Elastic Constant Matrix: (Units=GPa)
#
#
# Indices 1 2 3 4 5 6 
#
# 1 131.8618 62.0386 55.3117 0.0000 0.0000 0.0000
# 2 62.0386 227.4178 58.3624 0.0000 0.0000 0.0000
# 3 55.3117 58.3624 130.9017 0.0000 0.0000 0.0000
# 4 0.0000 0.0000 0.0000 42.2625 0.0000 0.0000
# 5 0.0000 0.0000 0.0000 0.0000 17.5419 0.0000
# 6 0.0000 0.0000 0.0000 0.0000 0.0000 34.4394
#
#
#
# Elastic Compliance Matrix: (Units=1/GPa)
#
#
# Indices 1 2 3 4 5 6 
#
# 1 0.009847 -0.001828 -0.003346 0.000000 0.000000 0.000000
# 2 -0.001828 0.005304 -0.001593 0.000000 0.000000 0.000000
# 3 -0.003346 -0.001593 0.009763 0.000000 0.000000 0.000000
# 4 0.000000 0.000000 0.000000 0.023662 0.000000 0.000000
# 5 0.000000 0.000000 0.000000 0.000000 0.057006 0.000000
# 6 0.000000 0.000000 0.000000 0.000000 0.000000 0.029036
#
#
# Mechanical properties :
#
#
# Convention : Reuss Voigt Hill
#
# Bulk Modulus (GPa) = 87.85662 93.51183 90.68423
# Shear Modulus (GPa) = 32.90642 39.81335 36.35988
#
# Velocity S-wave (km/s) = 3.91781 4.30940 4.11826
# Velocity P-wave (km/s) = 7.83877 8.26921 8.05687
#
# Compressibility (1/GPa) = 0.01138218
#
# Stress axis : x y z
#
# Youngs Moduli (GPa) = 101.55311 188.51926 102.42450
#
# Poissons Ratio (x) = 0.34453 0.34271
# Poissons Ratio (y) = 0.18559 0.16314
# Poissons Ratio (z) = 0.33980 0.30027
#
# Static dielectric constant tensor:
#      x y z
#    x 3.576620 0.000000 0.000000 
#    y 0.000000 4.066050 0.000000 
#    z 0.000000 0.000000 4.026580 
# 
# 
# High freq. dielectric constant tensor:
#      x y z
#    x 1.846600 0.000000 0.000000 
#    y 0.000000 1.864000 0.000000 
#    z 0.000000 0.000000 1.847790 
# 
# From -- ./inp_files/36517.got.cif
#   From: 2010.03.12/outbox.cif.g09.slc.cpg/sg67_19_cif.got.tgz:36517.got - 2010.04.10 22:41:39.
