data_PCOD8281861
_publ_section_title
;
Structure prediction by ZEFSAII (Michael W. Deem and Ramdas Pophale) SiO2 
 PCOD8281861
Probable space group: C C C A
;
_chemical_formula_sum "Si O2"
_cell_formula_units_Z 84
_cell_length_a 12.054398
_cell_length_b 22.763436
_cell_length_c 18.127100
_cell_angle_alpha 90.000000
_cell_angle_beta 90.000000
_cell_angle_gamma 90.000000
_cell_volume 4974.067492
_symmetry_space_group_name_H-M "C C C A"
_symmetry_group_IT_number 68
_space_group.IT_coordinate_system_code '2'
_symmetry_cell_setting 'orthorhombic'
loop_
_space_group_symop_operation_xyz
x,y,z
-x,1/2-y,z
x,1/2-y,1/2-z
-x,y,1/2-z
-x,-y,-z
x,1/2+y,-z
-x,1/2+y,1/2+z
x,-y,1/2+z
1/2+x,1/2+y,z
1/2-x,-y,z
1/2+x,-y,1/2-z
1/2-x,1/2+y,1/2-z
1/2-x,1/2-y,-z
1/2+x,y,-z
1/2-x,y,1/2+z
1/2+x,1/2-y,1/2+z
loop_
_atom_site_type_symbol
_atom_site_label
_atom_site_fract_x
_atom_site_fract_y
_atom_site_fract_z
Si Si1 0.707897 0.562857 0.197469
Si Si2 0.444024 0.575000 0.575856
Si Si3 0.000000 0.750000 0.250000
Si Si4 0.078925 0.361918 0.814105
Si Si5 0.716888 0.063464 0.631863
Si Si6 0.514042 0.057302 0.910241
O O1 0.750000 0.500000 0.166376
O O2 0.796722 0.614480 0.188631
O O3 0.681864 0.557601 0.283334
O O4 0.596940 0.580068 0.153060
O O5 0.532367 0.622512 0.604834
O O6 0.328552 0.599112 0.612694
O O7 0.488401 0.511595 0.603005
O O8 0.430961 0.573754 0.487954
O O9 0.078268 0.791290 0.198528
O O10 0.000000 0.391564 0.750000
O O11 0.606500 0.089491 0.592927
O O12 0.750000 0.000000 0.598235
#
# Coordination Sequence:
#
# PCOD8281861 Si02
#       6
#    16  16   4  16  16  16
#     4  11  19  29  52  76 110 139 175 227 289 339
#     4  10  19  32  46  72 113 144 176 222 267 341
#     4   8  20  36  60  80  98 148 210 246 256 294
#     4  10  19  35  55  80 100 143 195 237 266 315
#     4   9  18  29  42  67 104 144 178 206 252 335
#     4  10  21  28  46  76 114 148 167 206 296 351
#
# _framework density 16.887588000000001
#
# number of rings (size 3 to 8) (size 9 to 14) (size 15 to 20)
#    0.571    1.524    3.810    0.571    2.667    0.762 
#    0.000    0.000    0.000    1.143    0.000    5.333 
#    0.000    0.000    0.000    0.000    0.000    0.000 
#
# Total GULP energy -520374.070176 kJ/mol
# GULP energy per Si atom -12389.858814 kJ/mol
# Density = 1.684915 g / cm^3
# Si number density = 16.887588 Si / 1000 Ang^3
#
#
#
# Elastic Constant Matrix: (Units=GPa)
#
#
# Indices 1 2 3 4 5 6 
#
# 1 121.6562 27.0397 43.4208 0.0000 0.0000 0.0000
# 2 27.0397 67.6248 13.6420 0.0000 0.0000 0.0000
# 3 43.4208 13.6420 83.9356 0.0000 0.0000 0.0000
# 4 0.0000 0.0000 0.0000 15.9729 0.0000 0.0000
# 5 0.0000 0.0000 0.0000 0.0000 30.4274 0.0000
# 6 0.0000 0.0000 0.0000 0.0000 0.0000 18.8910
#
#
#
# Elastic Compliance Matrix: (Units=1/GPa)
#
#
# Indices 1 2 3 4 5 6 
#
# 1 0.010742 -0.003282 -0.005024 0.000000 0.000000 0.000000
# 2 -0.003282 0.016291 -0.000950 0.000000 0.000000 0.000000
# 3 -0.005024 -0.000950 0.014667 0.000000 0.000000 0.000000
# 4 0.000000 0.000000 0.000000 0.062606 0.000000 0.000000
# 5 0.000000 0.000000 0.000000 0.000000 0.032865 0.000000
# 6 0.000000 0.000000 0.000000 0.000000 0.000000 0.052935
#
#
# Mechanical properties :
#
#
# Convention : Reuss Voigt Hill
#
# Bulk Modulus (GPa) = 43.12296 49.04685 46.08491
# Shear Modulus (GPa) = 23.11084 25.66585 24.38835
#
# Velocity S-wave (km/s) = 3.70335 3.90270 3.80433
# Velocity P-wave (km/s) = 6.62398 7.02953 6.82977
#
# Compressibility (1/GPa) = 0.02318950
#
# Stress axis : x y z
#
# Youngs Moduli (GPa) = 93.08935 61.38211 68.17957
#
# Poissons Ratio (x) = 0.20145 0.34252
# Poissons Ratio (y) = 0.30551 0.06478
# Poissons Ratio (z) = 0.46766 0.05832
#
# Static dielectric constant tensor:
#      x y z
#    x 3.328930 0.000000 0.000000 
#    y 0.000000 2.604700 0.000000 
#    z 0.000000 0.000000 3.086580 
# 
# 
# High freq. dielectric constant tensor:
#      x y z
#    x 1.664320 0.000000 0.000000 
#    y 0.000000 1.574550 0.000000 
#    z 0.000000 0.000000 1.651890 
# 
# From -- ./inp_files/29907.got.cif
#   From: 2010.03.12/outbox.cif.g09.slc.cpg/sg68_15_cif.got.tgz:29907.got - 2010.04.10 23:14:56.
