data_PCOD8281828
_publ_section_title
;
Structure prediction by ZEFSAII (Michael W. Deem and Ramdas Pophale) SiO2 
 PCOD8281828
Probable space group: C C C A
;
_chemical_formula_sum "Si O2"
_cell_formula_units_Z 88
_cell_length_a 14.273789
_cell_length_b 20.004631
_cell_length_c 14.518912
_cell_angle_alpha 90.000000
_cell_angle_beta 90.000000
_cell_angle_gamma 90.000000
_cell_volume 4145.757456
_symmetry_space_group_name_H-M "C C C A"
_symmetry_group_IT_number 68
_space_group.IT_coordinate_system_code '2'
_symmetry_cell_setting 'orthorhombic'
loop_
_space_group_symop_operation_xyz
x,y,z
-x,1/2-y,z
x,1/2-y,1/2-z
-x,y,1/2-z
-x,-y,-z
x,1/2+y,-z
-x,1/2+y,1/2+z
x,-y,1/2+z
1/2+x,1/2+y,z
1/2-x,-y,z
1/2+x,-y,1/2-z
1/2-x,1/2+y,1/2-z
1/2-x,1/2-y,-z
1/2+x,y,-z
1/2-x,y,1/2+z
1/2+x,1/2-y,1/2+z
loop_
_atom_site_type_symbol
_atom_site_label
_atom_site_fract_x
_atom_site_fract_y
_atom_site_fract_z
Si Si1 0.250000 0.500000 0.846956
Si Si2 0.755433 0.176949 0.782921
Si Si3 0.532218 0.575009 0.990600
Si Si4 0.332878 0.115859 0.041900
Si Si5 0.785484 0.423795 0.874743
Si Si6 0.592741 0.096245 0.807510
O O1 0.310193 0.544067 0.916150
O O2 0.327114 0.460050 0.785549
O O3 0.783612 0.250000 0.750000
O O4 0.793658 0.171672 0.887856
O O5 0.798629 0.117215 0.720612
O O6 0.641899 0.166594 0.780281
O O7 0.575025 0.600960 0.085148
O O8 0.500000 0.500000 0.000000
O O9 0.444910 0.623171 0.966358
O O10 0.609876 0.577494 0.912802
O O11 0.284927 0.118413 0.940822
O O12 0.750000 0.500000 0.859498
O O13 0.500000 0.080603 0.750000
#
# Coordination Sequence:
#
# PCOD8281828 Si02
#       6
#     8  16  16  16  16  16
#     4  10  18  38  62  98 142 170 212 290 348 412
#     4  11  28  47  68  95 143 194 234 287 353 425
#     4  12  21  37  68 104 139 172 222 294 356 415
#     4  11  21  43  64  99 142 170 233 281 352 414
#     4  12  23  40  72 104 133 180 228 291 361 410
#     4  11  23  40  66 102 138 180 236 287 343 420
#
# _framework density 21.226519
#
# number of rings (size 3 to 8) (size 9 to 14) (size 15 to 20)
#    0.000    0.727    8.182    1.091    5.091    1.818 
#    0.000    1.818    0.000    0.000    0.000    0.000 
#    0.000    0.000    0.000    0.000    0.000    0.000 
#
# Total GULP energy -545326.230023 kJ/mol
# GULP energy per Si atom -12393.777955 kJ/mol
# Density = 2.117821 g / cm^3
# Si number density = 21.226519 Si / 1000 Ang^3
#
#
#
# Elastic Constant Matrix: (Units=GPa)
#
#
# Indices 1 2 3 4 5 6 
#
# 1 148.1889 16.0700 22.1127 0.0000 0.0000 0.0000
# 2 16.0700 81.8491 20.2240 0.0000 0.0000 0.0000
# 3 22.1127 20.2240 89.4276 0.0000 0.0000 0.0000
# 4 0.0000 0.0000 0.0000 24.3424 0.0000 0.0000
# 5 0.0000 0.0000 0.0000 0.0000 46.0473 0.0000
# 6 0.0000 0.0000 0.0000 0.0000 0.0000 18.0055
#
#
#
# Elastic Compliance Matrix: (Units=1/GPa)
#
#
# Indices 1 2 3 4 5 6 
#
# 1 0.007085 -0.001015 -0.001522 0.000000 0.000000 0.000000
# 2 -0.001015 0.013086 -0.002708 0.000000 0.000000 0.000000
# 3 -0.001522 -0.002708 0.012171 0.000000 0.000000 0.000000
# 4 0.000000 0.000000 0.000000 0.041081 0.000000 0.000000
# 5 0.000000 0.000000 0.000000 0.000000 0.021717 0.000000
# 6 0.000000 0.000000 0.000000 0.000000 0.000000 0.055539
#
#
# Mechanical properties :
#
#
# Convention : Reuss Voigt Hill
#
# Bulk Modulus (GPa) = 45.76456 48.47546 47.12001
# Shear Modulus (GPa) = 29.68169 35.08298 32.38233
#
# Velocity S-wave (km/s) = 3.74348 4.06986 3.91008
# Velocity P-wave (km/s) = 6.34758 6.70610 6.52930
#
# Compressibility (1/GPa) = 0.02185097
#
# Stress axis : x y z
#
# Youngs Moduli (GPa) = 141.13555 76.41699 82.16118
#
# Poissons Ratio (x) = 0.07756 0.12509
# Poissons Ratio (y) = 0.14324 0.22253
# Poissons Ratio (z) = 0.21487 0.20697
#
# Static dielectric constant tensor:
#      x y z
#    x 4.185590 0.000000 0.000000 
#    y 0.000000 3.460740 0.000000 
#    z 0.000000 0.000000 4.116980 
# 
# 
# High freq. dielectric constant tensor:
#      x y z
#    x 1.843930 0.000000 0.000000 
#    y 0.000000 1.785680 0.000000 
#    z 0.000000 0.000000 1.853680 
# 
# From -- ./inp_files/22279.got.cif
#   From: 2010.03.12/outbox.cif.g09.slc.cpg/sg68_12_cif.got.tgz:22279.got - 2010.04.10 23:14:56.
