data_PCOD8281292
_publ_section_title
;
Structure prediction by ZEFSAII (Michael W. Deem and Ramdas Pophale) SiO2 
 PCOD8281292
Probable space group: C M M A
;
_chemical_formula_sum "Si O2"
_cell_formula_units_Z 52
_cell_length_a 7.692894
_cell_length_b 16.152894
_cell_length_c 21.801181
_cell_angle_alpha 90.000000
_cell_angle_beta 90.000000
_cell_angle_gamma 90.000000
_cell_volume 2709.069283
_symmetry_space_group_name_H-M "C M M A"
_symmetry_group_IT_number 67
_symmetry_cell_setting 'orthorhombic'
loop_
_space_group_symop_operation_xyz
x,y,z
-x,1/2-y,z
x,-y,-z
-x,1/2+y,-z
-x,-y,-z
x,1/2+y,-z
-x,y,z
x,1/2-y,z
1/2+x,1/2+y,z
1/2-x,-y,z
1/2+x,1/2-y,-z
1/2-x,y,-z
1/2-x,1/2-y,-z
1/2+x,y,-z
1/2-x,1/2+y,z
1/2+x,-y,z
loop_
_atom_site_type_symbol
_atom_site_label
_atom_site_fract_x
_atom_site_fract_y
_atom_site_fract_z
Si Si1 0.500000 0.250000 0.239072
Si Si2 0.000000 0.660587 0.357196
Si Si3 0.798316 0.593525 0.564704
Si Si4 0.298611 0.908544 0.929226
Si Si5 0.190856 0.750000 0.855343
O O1 0.500000 0.168135 0.282752
O O2 0.328976 0.250000 0.198576
O O3 0.179140 0.619249 0.378248
O O4 0.000000 0.750000 0.388854
O O5 0.750000 0.500000 0.553220
O O6 0.750000 0.639364 0.500000
O O7 0.000000 0.608279 0.581647
O O8 0.500000 0.892925 0.919309
O O9 0.202545 0.833579 0.895466
O O10 0.250000 0.000000 0.902980
O O11 0.250000 0.904589 0.000000
O O12 0.000000 0.750000 0.825217
#
# Coordination Sequence:
#
# PCOD8281292 Si02
#       5
#     4   8  16  16   8
#     4  10  26  48  58  82 126 166 210 258 302 354
#     4  10  24  41  59  88 127 153 207 252 302 362
#     4  11  19  36  65  94 125 159 194 248 315 374
#     4  11  21  37  62 101 133 157 201 260 315 381
#     4  12  23  43  69  85 123 174 211 253 318 366
#
# _framework density 19.194783000000001
#
# number of rings (size 3 to 8) (size 9 to 14) (size 15 to 20)
#    0.462    0.615    4.615    5.077    0.000    2.462 
#    0.000    1.538    0.000    0.000    0.000    0.000 
#    0.000    0.000    0.000    0.000    0.000    0.000 
#
# Total GULP energy -322155.437951 kJ/mol
# GULP energy per Si atom -12390.593767 kJ/mol
# Density = 1.915110 g / cm^3
# Si number density = 19.194783 Si / 1000 Ang^3
#
#
#
# Elastic Constant Matrix: (Units=GPa)
#
#
# Indices 1 2 3 4 5 6 
#
# 1 195.0941 34.3411 53.7588 0.0000 0.0000 0.0000
# 2 34.3411 107.6332 48.7776 0.0000 0.0000 0.0000
# 3 53.7588 48.7776 107.9247 0.0000 0.0000 0.0000
# 4 0.0000 0.0000 0.0000 35.1712 0.0000 0.0000
# 5 0.0000 0.0000 0.0000 0.0000 33.4827 0.0000
# 6 0.0000 0.0000 0.0000 0.0000 0.0000 10.3507
#
#
#
# Elastic Compliance Matrix: (Units=1/GPa)
#
#
# Indices 1 2 3 4 5 6 
#
# 1 0.005983 -0.000702 -0.002663 0.000000 0.000000 0.000000
# 2 -0.000702 0.011766 -0.004968 0.000000 0.000000 0.000000
# 3 -0.002663 -0.004968 0.012838 0.000000 0.000000 0.000000
# 4 0.000000 0.000000 0.000000 0.028432 0.000000 0.000000
# 5 0.000000 0.000000 0.000000 0.000000 0.029866 0.000000
# 6 0.000000 0.000000 0.000000 0.000000 0.000000 0.096612
#
#
# Mechanical properties :
#
#
# Convention : Reuss Voigt Hill
#
# Bulk Modulus (GPa) = 71.83633 76.04522 73.94078
# Shear Modulus (GPa) = 24.17747 34.05256 29.11501
#
# Velocity S-wave (km/s) = 3.55291 4.21652 3.89886
# Velocity P-wave (km/s) = 7.37137 7.96298 7.67288
#
# Compressibility (1/GPa) = 0.01392053
#
# Stress axis : x y z
#
# Youngs Moduli (GPa) = 167.13733 84.98827 77.89643
#
# Poissons Ratio (x) = 0.05968 0.20743
# Poissons Ratio (y) = 0.11736 0.38700
# Poissons Ratio (z) = 0.44507 0.42223
#
# Static dielectric constant tensor:
#      x y z
#    x 3.656970 0.000000 0.000000 
#    y 0.000000 3.634820 0.000000 
#    z 0.000000 0.000000 3.265410 
# 
# 
# High freq. dielectric constant tensor:
#      x y z
#    x 1.768730 0.000000 0.000000 
#    y 0.000000 1.746950 0.000000 
#    z 0.000000 0.000000 1.720370 
# 
# From -- ./inp_files/40392.got.cif
#   From: 2010.03.12/outbox.cif.g09.slc.cpg/sg67_21_cif.got.tgz:40392.got - 2010.04.10 22:41:39.
