data_PCOD8281160
_publ_section_title
;
Structure prediction by ZEFSAII (Michael W. Deem and Ramdas Pophale) SiO2 
 PCOD8281160
Probable space group: C M M A
;
_chemical_formula_sum "Si O2"
_cell_formula_units_Z 52
_cell_length_a 10.187671
_cell_length_b 13.456683
_cell_length_c 16.829355
_cell_angle_alpha 90.000000
_cell_angle_beta 90.000000
_cell_angle_gamma 90.000000
_cell_volume 2307.174297
_symmetry_space_group_name_H-M "C M M A"
_symmetry_group_IT_number 67
_symmetry_cell_setting 'orthorhombic'
loop_
_space_group_symop_operation_xyz
x,y,z
-x,1/2-y,z
x,-y,-z
-x,1/2+y,-z
-x,-y,-z
x,1/2+y,-z
-x,y,z
x,1/2-y,z
1/2+x,1/2+y,z
1/2-x,-y,z
1/2+x,1/2-y,-z
1/2-x,y,-z
1/2-x,1/2-y,-z
1/2+x,y,-z
1/2-x,1/2+y,z
1/2+x,-y,z
loop_
_atom_site_type_symbol
_atom_site_label
_atom_site_fract_x
_atom_site_fract_y
_atom_site_fract_z
Si Si1 0.147615 0.135880 0.131954
Si Si2 0.750000 0.500000 0.000000
Si Si3 0.853383 0.131979 0.562504
Si Si4 0.146158 0.132069 0.739528
O O1 0.182986 0.250000 0.111032
O O2 0.245962 0.091799 0.198660
O O3 0.000000 0.128409 0.165538
O O4 0.157936 0.070472 0.052819
O O5 0.843150 0.250000 0.562284
O O6 0.750000 0.085510 0.500000
O O7 0.821052 0.092162 0.651130
O O8 0.000000 0.099158 0.537134
O O9 0.150499 0.250000 0.738060
O O10 0.000000 0.096528 0.765956
#
# Coordination Sequence:
#
# PCOD8281160 Si02
#       4
#    16   4  16  16
#     4  10  22  39  59  84 112 144 186 232 276 330
#     4  12  24  40  60  84 112 144 178 226 290 346
#     4   8  13  21  36  63  99 138 179 220 262 311
#     4   8  15  29  48  71 104 145 183 222 273 326
#
# _framework density 22.538392000000002
#
# number of rings (size 3 to 8) (size 9 to 14) (size 15 to 20)
#    0.000    3.077    0.000    2.769    0.000    3.692 
#    0.000    9.231    0.000    0.000    0.000    1.077 
#    0.000    7.385    0.000    0.923    0.000    0.308 
#
# Total GULP energy -322299.668301 kJ/mol
# GULP energy per Si atom -12396.141088 kJ/mol
# Density = 2.248709 g / cm^3
# Si number density = 22.538392 Si / 1000 Ang^3
#
#
#
# Elastic Constant Matrix: (Units=GPa)
#
#
# Indices 1 2 3 4 5 6 
#
# 1 189.6229 28.8776 114.8664 0.0000 0.0000 0.0000
# 2 28.8776 60.6347 31.9762 0.0000 0.0000 0.0000
# 3 114.8664 31.9762 169.7839 0.0000 0.0000 0.0000
# 4 0.0000 0.0000 0.0000 -4.2828 0.0000 0.0000
# 5 0.0000 0.0000 0.0000 0.0000 42.7405 0.0000
# 6 0.0000 0.0000 0.0000 0.0000 0.0000 -3.3424
#
#
#
# Elastic Compliance Matrix: (Units=1/GPa)
#
#
# Indices 1 2 3 4 5 6 
#
# 1 0.009013 -0.001196 -0.005873 0.000000 0.000000 0.000000
# 2 -0.001196 0.018469 -0.002670 0.000000 0.000000 0.000000
# 3 -0.005873 -0.002670 0.010366 0.000000 0.000000 0.000000
# 4 0.000000 0.000000 0.000000 -0.233495 0.000000 0.000000
# 5 0.000000 0.000000 0.000000 0.000000 0.023397 0.000000
# 6 0.000000 0.000000 0.000000 0.000000 0.000000 -0.299183
#
#
# Mechanical properties :
#
#
# Convention : Reuss Voigt Hill
#
# Bulk Modulus (GPa) = 54.42850 85.72023 70.07437
# Shear Modulus (GPa) = -11.21496 23.31115 6.04809
#
# Velocity S-wave (km/s) = -2.23310 3.21952 1.63990
# Velocity P-wave (km/s) = 4.18959 7.20666 5.89443
#
# Compressibility (1/GPa) = 0.01837273
#
# Stress axis : x y z
#
# Youngs Moduli (GPa) = 110.94970 54.14347 96.47216
#
# Poissons Ratio (x) = 0.06473 0.56654
# Poissons Ratio (y) = 0.13265 0.25754
# Poissons Ratio (z) = 0.65156 0.14454
#
# Static dielectric constant tensor:
#      x y z
#    x 4.191900 0.000000 0.000000 
#    y 0.000000 3.719250 0.000000 
#    z 0.000000 0.000000 4.243910 
# 
# 
# High freq. dielectric constant tensor:
#      x y z
#    x 1.885660 0.000000 0.000000 
#    y 0.000000 1.886400 0.000000 
#    z 0.000000 0.000000 1.879020 
# 
# From -- ./inp_files/36478.got.cif
#   From: 2010.03.12/outbox.cif.g09.slc.cpg/sg67_19_cif.got.tgz:36478.got - 2010.04.10 22:41:39.
