data_PCOD8281079
_publ_section_title
;
Structure prediction by ZEFSAII (Michael W. Deem and Ramdas Pophale) SiO2 
 PCOD8281079
Probable space group: C M M A
;
_chemical_formula_sum "Si O2"
_cell_formula_units_Z 72
_cell_length_a 10.153718
_cell_length_b 24.937371
_cell_length_c 14.651505
_cell_angle_alpha 90.000000
_cell_angle_beta 90.000000
_cell_angle_gamma 90.000000
_cell_volume 3709.864107
_symmetry_space_group_name_H-M "C M M A"
_symmetry_group_IT_number 67
_symmetry_cell_setting 'orthorhombic'
loop_
_space_group_symop_operation_xyz
x,y,z
-x,1/2-y,z
x,-y,-z
-x,1/2+y,-z
-x,-y,-z
x,1/2+y,-z
-x,y,z
x,1/2-y,z
1/2+x,1/2+y,z
1/2-x,-y,z
1/2+x,1/2-y,-z
1/2-x,y,-z
1/2-x,1/2-y,-z
1/2+x,y,-z
1/2-x,1/2+y,z
1/2+x,-y,z
loop_
_atom_site_type_symbol
_atom_site_label
_atom_site_fract_x
_atom_site_fract_y
_atom_site_fract_z
Si Si1 0.750000 0.365615 0.500000
Si Si2 0.500000 0.446816 0.118414
Si Si3 0.262593 0.403603 0.792511
Si Si4 0.000000 0.073083 0.087659
Si Si5 0.354338 0.456962 0.614130
Si Si6 0.847501 0.811067 0.323449
O O1 0.647116 0.403309 0.553428
O O2 0.827427 0.329050 0.571980
O O3 0.371848 0.429037 0.172707
O O4 0.500000 0.510413 0.109789
O O5 0.500000 0.417892 0.020478
O O6 0.369291 0.398227 0.873094
O O7 0.322465 0.443701 0.718340
O O8 0.237201 0.345548 0.748006
O O9 0.500000 0.482646 0.608510
O O10 0.250000 0.500000 0.576358
O O11 0.800261 0.750000 0.313219
O O12 0.000000 0.817650 0.298524
#
# Coordination Sequence:
#
# PCOD8281079 Si02
#       6
#     8   8  16   8  16  16
#     4  10  22  36  58  86 118 148 202 252 300 336
#     4  11  22  38  61  92 121 162 191 230 287 359
#     4  11  22  38  60  89 120 157 199 242 290 348
#     4  11  22  38  61  90 129 154 191 234 289 351
#     4  11  23  36  55  83 123 165 200 237 287 354
#     4  10  21  40  64  85 113 155 203 251 299 350
#
# _framework density 19.407717999999999
#
# number of rings (size 3 to 8) (size 9 to 14) (size 15 to 20)
#    0.000    1.333    2.222    4.000    1.556    4.444 
#    0.000    0.556    0.000    4.000    0.000    0.000 
#    0.000    0.000    0.000    0.000    0.000    0.000 
#
# Total GULP energy -446502.104794 kJ/mol
# GULP energy per Si atom -12402.836244 kJ/mol
# Density = 1.936355 g / cm^3
# Si number density = 19.407718 Si / 1000 Ang^3
#
#
#
# Elastic Constant Matrix: (Units=GPa)
#
#
# Indices 1 2 3 4 5 6 
#
# 1 148.0066 40.7029 38.3573 0.0000 0.0000 0.0000
# 2 40.7029 101.2526 31.8794 0.0000 0.0000 0.0000
# 3 38.3573 31.8794 101.6259 0.0000 0.0000 0.0000
# 4 0.0000 0.0000 0.0000 22.0645 0.0000 0.0000
# 5 0.0000 0.0000 0.0000 0.0000 18.6262 0.0000
# 6 0.0000 0.0000 0.0000 0.0000 0.0000 25.4347
#
#
#
# Elastic Compliance Matrix: (Units=1/GPa)
#
#
# Indices 1 2 3 4 5 6 
#
# 1 0.008031 -0.002523 -0.002240 0.000000 0.000000 0.000000
# 2 -0.002523 0.011751 -0.002734 0.000000 0.000000 0.000000
# 3 -0.002240 -0.002734 0.011543 0.000000 0.000000 0.000000
# 4 0.000000 0.000000 0.000000 0.045322 0.000000 0.000000
# 5 0.000000 0.000000 0.000000 0.000000 0.053688 0.000000
# 6 0.000000 0.000000 0.000000 0.000000 0.000000 0.039316
#
#
# Mechanical properties :
#
#
# Convention : Reuss Voigt Hill
#
# Bulk Modulus (GPa) = 61.23111 63.64047 62.43579
# Shear Modulus (GPa) = 26.30358 29.22146 27.76252
#
# Velocity S-wave (km/s) = 3.68545 3.88450 3.78628
# Velocity P-wave (km/s) = 7.05184 7.27884 7.16624
#
# Compressibility (1/GPa) = 0.01633157
#
# Stress axis : x y z
#
# Youngs Moduli (GPa) = 124.52123 85.09627 86.63295
#
# Poissons Ratio (x) = 0.21471 0.19402
# Poissons Ratio (y) = 0.31419 0.23685
# Poissons Ratio (z) = 0.27888 0.23265
#
# Static dielectric constant tensor:
#      x y z
#    x 3.530530 0.000000 0.000000 
#    y 0.000000 3.414660 0.000000 
#    z 0.000000 0.000000 3.706770 
# 
# 
# High freq. dielectric constant tensor:
#      x y z
#    x 1.762450 0.000000 0.000000 
#    y 0.000000 1.735060 0.000000 
#    z 0.000000 0.000000 1.767090 
# 
# From -- ./inp_files/26064.got.cif
#   From: 2010.03.12/outbox.cif.g09.slc.cpg/sg67_14_cif.got.tgz:26064.got - 2010.04.10 22:41:39.
