data_PCOD8281613
_publ_section_title
;
Structure prediction by ZEFSAII (Michael W. Deem and Ramdas Pophale) SiO2 
 PCOD8281613
Probable space group: C C C A
;
_chemical_formula_sum "Si O2"
_cell_formula_units_Z 80
_cell_length_a 5.213233
_cell_length_b 24.753153
_cell_length_c 31.999944
_cell_angle_alpha 90.000000
_cell_angle_beta 90.000000
_cell_angle_gamma 90.000000
_cell_volume 4129.399304
_symmetry_space_group_name_H-M "C C C A"
_symmetry_group_IT_number 68
_space_group.IT_coordinate_system_code '2'
_symmetry_cell_setting 'orthorhombic'
loop_
_space_group_symop_operation_xyz
x,y,z
-x,1/2-y,z
x,1/2-y,1/2-z
-x,y,1/2-z
-x,-y,-z
x,1/2+y,-z
-x,1/2+y,1/2+z
x,-y,1/2+z
1/2+x,1/2+y,z
1/2-x,-y,z
1/2+x,-y,1/2-z
1/2-x,1/2+y,1/2-z
1/2-x,1/2-y,-z
1/2+x,y,-z
1/2-x,y,1/2+z
1/2+x,1/2-y,1/2+z
loop_
_atom_site_type_symbol
_atom_site_label
_atom_site_fract_x
_atom_site_fract_y
_atom_site_fract_z
Si Si1 0.559053 0.836772 0.160998
Si Si2 0.500000 0.653415 0.250000
Si Si3 0.449800 0.349346 0.383095
Si Si4 0.832013 0.942450 0.163021
Si Si5 0.500000 0.082660 0.250000
Si Si6 0.995214 0.812876 0.025749
O O1 0.538413 0.810805 0.207609
O O2 0.313692 0.822736 0.132865
O O3 0.587793 0.902053 0.167930
O O4 0.812851 0.815119 0.136970
O O5 0.754758 0.619401 0.241112
O O6 0.468246 0.412224 0.368286
O O7 0.463692 0.347956 0.432877
O O8 0.957334 0.953665 0.208666
O O9 0.750000 0.000000 0.143687
O O10 0.000000 0.750000 0.037814
O O11 0.221753 0.828215 0.993894
#
# Coordination Sequence:
#
# PCOD8281613 Si02
#       6
#    16   8  16  16   8  16
#     4   9  18  29  48  71 103 142 176 212 252 293
#     4  10  14  31  42  66 101 139 181 212 247 282
#     4  10  19  34  50  77 106 134 170 214 268 315
#     4   9  20  31  47  73 106 148 184 216 254 288
#     4  10  18  29  42  68 101 141 185 223 244 272
#     4  10  21  38  63  87 104 123 158 217 285 340
#
# _framework density 19.373276000000001
#
# number of rings (size 3 to 8) (size 9 to 14) (size 15 to 20)
#    1.200    1.200    2.000    1.200    0.000    4.000 
#    0.000    0.000    0.000    1.200    0.000    7.700 
#    0.000    0.000    0.000    0.000    0.000    0.000 
#
# Total GULP energy -495548.232468 kJ/mol
# GULP energy per Si atom -12388.705812 kJ/mol
# Density = 1.932918 g / cm^3
# Si number density = 19.373276 Si / 1000 Ang^3
#
#
#
# Elastic Constant Matrix: (Units=GPa)
#
#
# Indices 1 2 3 4 5 6 
#
# 1 133.9511 3.8024 28.8305 0.0000 0.0000 0.0000
# 2 3.8024 29.7940 20.8290 0.0000 0.0000 0.0000
# 3 28.8305 20.8290 131.1013 0.0000 0.0000 0.0000
# 4 0.0000 0.0000 0.0000 23.8680 0.0000 0.0000
# 5 0.0000 0.0000 0.0000 0.0000 33.5183 0.0000
# 6 0.0000 0.0000 0.0000 0.0000 0.0000 9.2443
#
#
#
# Elastic Compliance Matrix: (Units=1/GPa)
#
#
# Indices 1 2 3 4 5 6 
#
# 1 0.007838 0.000230 -0.001760 0.000000 0.000000 0.000000
# 2 0.000230 0.037764 -0.006051 0.000000 0.000000 0.000000
# 3 -0.001760 -0.006051 0.008976 0.000000 0.000000 0.000000
# 4 0.000000 0.000000 0.000000 0.041897 0.000000 0.000000
# 5 0.000000 0.000000 0.000000 0.000000 0.029834 0.000000
# 6 0.000000 0.000000 0.000000 0.000000 0.000000 0.108175
#
#
# Mechanical properties :
#
#
# Convention : Reuss Voigt Hill
#
# Bulk Modulus (GPa) = 25.36958 44.64114 35.00536
# Shear Modulus (GPa) = 19.02702 29.41844 24.22273
#
# Velocity S-wave (km/s) = 3.13729 3.90103 3.53982
# Velocity P-wave (km/s) = 5.12319 6.58661 5.90044
#
# Compressibility (1/GPa) = 0.03941729
#
# Stress axis : x y z
#
# Youngs Moduli (GPa) = 127.58814 26.47997 111.40742
#
# Poissons Ratio (x) = -0.00610 0.19610
# Poissons Ratio (y) = -0.02938 0.67408
# Poissons Ratio (z) = 0.22458 0.16022
#
# Static dielectric constant tensor:
#      x y z
#    x 3.543230 0.000000 0.000000 
#    y 0.000000 2.892080 0.000000 
#    z 0.000000 0.000000 3.452170 
# 
# 
# High freq. dielectric constant tensor:
#      x y z
#    x 1.771090 0.000000 0.000000 
#    y 0.000000 1.691240 0.000000 
#    z 0.000000 0.000000 1.752050 
# 
# From -- ./inp_files/48517.got.cif
#   From: 2010.03.12/outbox.cif.g09.slc.cpg/sg68_25_cif.got.tgz:48517.got - 2010.04.10 23:14:56.
