data_PCOD8281577
_publ_section_title
;
Structure prediction by ZEFSAII (Michael W. Deem and Ramdas Pophale) SiO2 
 PCOD8281577
Probable space group: C M M A
;
_chemical_formula_sum "Si O2"
_cell_formula_units_Z 96
_cell_length_a 26.974662
_cell_length_b 9.781237
_cell_length_c 23.521546
_cell_angle_alpha 90.000000
_cell_angle_beta 90.000000
_cell_angle_gamma 90.000000
_cell_volume 6206.055524
_symmetry_space_group_name_H-M "C M M A"
_symmetry_group_IT_number 67
_symmetry_cell_setting 'orthorhombic'
loop_
_space_group_symop_operation_xyz
x,y,z
-x,1/2-y,z
x,-y,-z
-x,1/2+y,-z
-x,-y,-z
x,1/2+y,-z
-x,y,z
x,1/2-y,z
1/2+x,1/2+y,z
1/2-x,-y,z
1/2+x,1/2-y,-z
1/2-x,y,-z
1/2-x,1/2-y,-z
1/2+x,y,-z
1/2-x,1/2+y,z
1/2+x,-y,z
loop_
_atom_site_type_symbol
_atom_site_label
_atom_site_fract_x
_atom_site_fract_y
_atom_site_fract_z
Si Si1 0.058779 0.400662 0.452418
Si Si2 0.150145 0.090247 0.947431
Si Si3 0.554738 0.087654 0.116040
Si Si4 0.295359 0.594832 0.831426
Si Si5 0.442749 0.589785 0.324523
Si Si6 0.896241 0.908487 0.230623
O O1 0.082248 0.500000 0.500000
O O2 0.081012 0.250000 0.463085
O O3 0.072080 0.450306 0.388947
O O4 0.000000 0.394607 0.458630
O O5 0.150726 0.250000 0.964039
O O6 0.094637 0.039234 0.930695
O O7 0.186242 0.060564 0.894879
O O8 0.168984 0.000000 0.000000
O O9 0.500000 0.031534 0.100189
O O10 0.556299 0.250000 0.117641
O O11 0.569568 0.037052 0.178888
O O12 0.276645 0.750000 0.828980
O O13 0.250000 0.500000 0.813846
O O14 0.339080 0.571559 0.786291
O O15 0.500000 0.552895 0.312586
O O16 0.433506 0.750000 0.313660
O O17 0.407403 0.500470 0.284956
O O18 0.907541 0.750000 0.244507
#
# Coordination Sequence:
#
# PCOD8281577 Si02
#       6
#    16  16  16  16  16  16
#     4   8  14  24  36  52  79 115 151 182 208 235
#     4   9  18  31  45  63  85 106 133 168 203 245
#     4   8  14  26  43  60  81 110 138 166 202 240
#     4   9  19  34  49  65  84 106 134 171 215 260
#     4   9  17  27  39  60  91 121 146 176 213 246
#     4   9  17  29  45  64  83 106 142 179 208 250
#
# _framework density 15.468762999999999
#
# number of rings (size 3 to 8) (size 9 to 14) (size 15 to 20)
#    0.000    3.333    0.000    3.500    0.000    3.667 
#    0.000    5.833    0.000    1.000    0.000    0.000 
#    0.000    0.667    0.000    7.333    0.000    5.667 
#
# Total GULP energy -594965.890280 kJ/mol
# GULP energy per Si atom -12395.122714 kJ/mol
# Density = 1.543356 g / cm^3
# Si number density = 15.468763 Si / 1000 Ang^3
#
#
#
# Elastic Constant Matrix: (Units=GPa)
#
#
# Indices 1 2 3 4 5 6 
#
# 1 57.3645 32.5005 21.8743 0.0000 0.0000 0.0000
# 2 32.5005 67.6370 57.4690 0.0000 0.0000 0.0000
# 3 21.8743 57.4690 100.8303 0.0000 0.0000 0.0000
# 4 0.0000 0.0000 0.0000 30.3087 0.0000 0.0000
# 5 0.0000 0.0000 0.0000 0.0000 11.0820 0.0000
# 6 0.0000 0.0000 0.0000 0.0000 0.0000 22.5999
#
#
#
# Elastic Compliance Matrix: (Units=1/GPa)
#
#
# Indices 1 2 3 4 5 6 
#
# 1 0.024323 -0.013969 0.002685 0.000000 0.000000 0.000000
# 2 -0.013969 0.036690 -0.017882 0.000000 0.000000 0.000000
# 3 0.002685 -0.017882 0.019527 0.000000 0.000000 0.000000
# 4 0.000000 0.000000 0.000000 0.032994 0.000000 0.000000
# 5 0.000000 0.000000 0.000000 0.000000 0.090237 0.000000
# 6 0.000000 0.000000 0.000000 0.000000 0.000000 0.044248
#
#
# Mechanical properties :
#
#
# Convention : Reuss Voigt Hill
#
# Bulk Modulus (GPa) = 45.02608 49.94660 47.48634
# Shear Modulus (GPa) = 15.93616 20.39732 18.16674
#
# Velocity S-wave (km/s) = 3.21318 3.63521 3.43069
# Velocity P-wave (km/s) = 6.55263 7.06954 6.81599
#
# Compressibility (1/GPa) = 0.02220935
#
# Stress axis : x y z
#
# Youngs Moduli (GPa) = 41.11388 27.25516 51.21146
#
# Poissons Ratio (x) = 0.38072 -0.13750
# Poissons Ratio (y) = 0.57431 0.91574
# Poissons Ratio (z) = -0.11039 0.48736
#
# Static dielectric constant tensor:
#      x y z
#    x 2.785680 0.000000 0.000000 
#    y 0.000000 2.878120 0.000000 
#    z 0.000000 0.000000 2.903990 
# 
# 
# High freq. dielectric constant tensor:
#      x y z
#    x 1.563790 0.000000 0.000000 
#    y 0.000000 1.581940 0.000000 
#    z 0.000000 0.000000 1.586770 
# 
# From -- ./inp_files/40930.got.cif
#   From: 2010.03.12/outbox.cif.g09.slc.cpg/sg67_21_cif.got.tgz:40930.got - 2010.04.10 22:41:39.
