data_PCOD8281559
_publ_section_title
;
Structure prediction by ZEFSAII (Michael W. Deem and Ramdas Pophale) SiO2 
 PCOD8281559
Probable space group: C M M A
;
_chemical_formula_sum "Si O2"
_cell_formula_units_Z 96
_cell_length_a 14.029611
_cell_length_b 10.360284
_cell_length_c 29.636346
_cell_angle_alpha 90.000000
_cell_angle_beta 90.000000
_cell_angle_gamma 90.000000
_cell_volume 4307.665248
_symmetry_space_group_name_H-M "C M M A"
_symmetry_group_IT_number 67
_symmetry_cell_setting 'orthorhombic'
loop_
_space_group_symop_operation_xyz
x,y,z
-x,1/2-y,z
x,-y,-z
-x,1/2+y,-z
-x,-y,-z
x,1/2+y,-z
-x,y,z
x,1/2-y,z
1/2+x,1/2+y,z
1/2-x,-y,z
1/2+x,1/2-y,-z
1/2-x,y,-z
1/2-x,1/2-y,-z
1/2+x,y,-z
1/2-x,1/2+y,z
1/2+x,-y,z
loop_
_atom_site_type_symbol
_atom_site_label
_atom_site_fract_x
_atom_site_fract_y
_atom_site_fract_z
Si Si1 0.113397 0.605928 0.534178
Si Si2 0.649611 0.887900 0.025579
Si Si3 0.113263 0.894080 0.195334
Si Si4 0.386610 0.894065 0.364683
Si Si5 0.388009 0.895555 0.125546
Si Si6 0.113387 0.394022 0.703626
O O1 0.157608 0.500000 0.500000
O O2 0.146534 0.750000 0.519599
O O3 0.149544 0.574701 0.584750
O O4 0.000000 0.599227 0.533058
O O5 0.595803 0.750000 0.021789
O O6 0.664404 0.921454 0.078113
O O7 0.750000 0.878585 0.000000
O O8 0.589359 0.000000 0.000000
O O9 0.145782 0.750000 0.179924
O O10 0.150827 0.923164 0.245828
O O11 0.000000 0.901616 0.195315
O O12 0.154714 0.002648 0.161603
O O13 0.500000 0.900919 0.363622
O O14 0.353518 0.750000 0.350087
O O15 0.342372 0.999861 0.330464
O O16 0.500000 0.917736 0.117783
O O17 0.368241 0.750000 0.143241
O O18 0.145337 0.250000 0.688450
O O19 0.000000 0.402403 0.703077
#
# Coordination Sequence:
#
# PCOD8281559 Si02
#       6
#    16  16  16  16  16  16
#     4   8  13  19  24  30  41  58  83 118 160 205
#     4   9  18  32  47  62  82 107 132 158 189 225
#     4   8  14  24  36  51  72  95 117 143 178 220
#     4   8  13  19  25  34  48  66  91 124 162 206
#     4   9  17  28  42  61  82 102 127 158 189 224
#     4   8  13  20  29  41  57  77 101 128 160 204
#
# _framework density 22.285855000000002
#
# number of rings (size 3 to 8) (size 9 to 14) (size 15 to 20)
#    0.000    3.667    0.000    2.000    0.000    2.333 
#    0.000    6.667    0.000    0.000    0.000    0.000 
#    0.000    0.000    0.000    0.000    0.000    0.000 
#
# Total GULP energy -594676.808663 kJ/mol
# GULP energy per Si atom -12389.100180 kJ/mol
# Density = 2.223513 g / cm^3
# Si number density = 22.285855 Si / 1000 Ang^3
#
#
#
# Elastic Constant Matrix: (Units=GPa)
#
#
# Indices 1 2 3 4 5 6 
#
# 1 24.7452 -2.6086 7.6202 0.0000 0.0000 0.0000
# 2 -2.6086 243.6292 151.0353 0.0000 0.0000 0.0000
# 3 7.6202 151.0353 185.6754 0.0000 0.0000 0.0000
# 4 0.0000 0.0000 0.0000 56.4802 0.0000 0.0000
# 5 0.0000 0.0000 0.0000 0.0000 -13.5261 0.0000
# 6 0.0000 0.0000 0.0000 0.0000 0.0000 -7.2541
#
#
#
# Elastic Compliance Matrix: (Units=1/GPa)
#
#
# Indices 1 2 3 4 5 6 
#
# 1 0.042034 0.003065 -0.004219 0.000000 0.000000 0.000000
# 2 0.003065 0.008504 -0.007043 0.000000 0.000000 0.000000
# 3 -0.004219 -0.007043 0.011288 0.000000 0.000000 0.000000
# 4 0.000000 0.000000 0.000000 0.017705 0.000000 0.000000
# 5 0.000000 0.000000 0.000000 0.000000 -0.073931 0.000000
# 6 0.000000 0.000000 0.000000 0.000000 0.000000 -0.137853
#
#
# Mechanical properties :
#
#
# Convention : Reuss Voigt Hill
#
# Bulk Modulus (GPa) = 22.01030 85.12706 53.56868
# Shear Modulus (GPa) = -49.64439 27.00686 -11.31877
#
# Velocity S-wave (km/s) = -4.72489 3.48492 -2.25609
# Velocity P-wave (km/s) = 4.45738 7.38063 4.15965
#
# Compressibility (1/GPa) = 0.04543328
#
# Stress axis : x y z
#
# Youngs Moduli (GPa) = 23.79017 117.59665 88.59042
#
# Poissons Ratio (x) = -0.36047 0.37372
# Poissons Ratio (y) = -0.07292 0.62394
# Poissons Ratio (z) = 0.10036 0.82823
#
# Static dielectric constant tensor:
#      x y z
#    x 3.249300 0.000000 0.000000 
#    y 0.000000 7.082050 0.000000 
#    z 0.000000 0.000000 4.247930 
# 
# 
# High freq. dielectric constant tensor:
#      x y z
#    x 1.834940 0.000000 0.000000 
#    y 0.000000 1.891060 0.000000 
#    z 0.000000 0.000000 1.872460 
# 
# From -- ./inp_files/42160.got.cif
#   From: 2010.03.12/outbox.cif.g09.slc.cpg/sg67_22_cif.got.tgz:42160.got - 2010.04.10 22:41:39.
