data_PCOD8281540
_publ_section_title
;
Structure prediction by ZEFSAII (Michael W. Deem and Ramdas Pophale) SiO2 
 PCOD8281540
Probable space group: C M M A
;
_chemical_formula_sum "Si O2"
_cell_formula_units_Z 72
_cell_length_a 9.885135
_cell_length_b 26.760921
_cell_length_c 13.448756
_cell_angle_alpha 90.000000
_cell_angle_beta 90.000000
_cell_angle_gamma 90.000000
_cell_volume 3557.670929
_symmetry_space_group_name_H-M "C M M A"
_symmetry_group_IT_number 67
_symmetry_cell_setting 'orthorhombic'
loop_
_space_group_symop_operation_xyz
x,y,z
-x,1/2-y,z
x,-y,-z
-x,1/2+y,-z
-x,-y,-z
x,1/2+y,-z
-x,y,z
x,1/2-y,z
1/2+x,1/2+y,z
1/2-x,-y,z
1/2+x,1/2-y,-z
1/2-x,y,-z
1/2-x,1/2-y,-z
1/2+x,y,-z
1/2-x,1/2+y,z
1/2+x,-y,z
loop_
_atom_site_type_symbol
_atom_site_label
_atom_site_fract_x
_atom_site_fract_y
_atom_site_fract_z
Si Si1 0.348104 0.750000 0.095177
Si Si2 0.000000 0.905958 0.903040
Si Si3 0.000000 0.120854 0.883565
Si Si4 0.000000 0.988125 0.169455
Si Si5 0.721266 0.849868 0.205474
Si Si6 0.338809 0.602299 0.405944
Si Si7 0.250000 0.000000 0.309345
O O1 0.500000 0.750000 0.052090
O O2 0.328757 0.703314 0.167741
O O3 0.250000 0.750000 0.000000
O O4 0.864966 0.894381 0.842314
O O5 0.000000 0.868688 0.998388
O O6 0.000000 0.966185 0.909316
O O7 0.875181 0.144199 0.826481
O O8 0.000000 0.061429 0.895077
O O9 0.127860 0.984465 0.240116
O O10 0.700705 0.856323 0.323141
O O11 0.500000 0.603560 0.427923
O O12 0.250000 0.618785 0.500000
O O13 0.294018 0.546471 0.377059
#
# Coordination Sequence:
#
# PCOD8281540 Si02
#       7
#     8   8   8   8  16  16   8
#     4  12  26  46  75 104 134 179 224 279 343 395
#     4  12  21  43  62  97 135 187 224 269 332 407
#     4  12  25  37  68  99 135 185 226 269 332 407
#     4  12  21  38  63  94 140 180 223 268 333 398
#     4  12  25  45  67  97 141 172 224 288 333 398
#     4  12  26  44  68  96 130 177 227 279 344 400
#     4  12  21  40  63  92 132 180 223 282 333 396
#
# _framework density 20.237959
#
# number of rings (size 3 to 8) (size 9 to 14) (size 15 to 20)
#    0.000    0.000    7.778    2.667    4.667    0.889 
#    0.000    3.889    0.000    0.000    0.000    0.000 
#    0.000    0.000    0.000    0.000    0.000    0.000 
#
# Total GULP energy -446372.096510 kJ/mol
# GULP energy per Si atom -12399.224903 kJ/mol
# Density = 2.019190 g / cm^3
# Si number density = 20.237959 Si / 1000 Ang^3
#
#
#
# Elastic Constant Matrix: (Units=GPa)
#
#
# Indices 1 2 3 4 5 6 
#
# 1 182.8873 18.8300 60.0874 0.0000 0.0000 0.0000
# 2 18.8300 93.9380 27.8175 0.0000 0.0000 0.0000
# 3 60.0874 27.8175 130.5628 0.0000 0.0000 0.0000
# 4 0.0000 0.0000 0.0000 24.5020 0.0000 0.0000
# 5 0.0000 0.0000 0.0000 0.0000 38.4126 0.0000
# 6 0.0000 0.0000 0.0000 0.0000 0.0000 35.1848
#
#
#
# Elastic Compliance Matrix: (Units=1/GPa)
#
#
# Indices 1 2 3 4 5 6 
#
# 1 0.006459 -0.000442 -0.002878 0.000000 0.000000 0.000000
# 2 -0.000442 0.011392 -0.002224 0.000000 0.000000 0.000000
# 3 -0.002878 -0.002224 0.009458 0.000000 0.000000 0.000000
# 4 0.000000 0.000000 0.000000 0.040813 0.000000 0.000000
# 5 0.000000 0.000000 0.000000 0.000000 0.026033 0.000000
# 6 0.000000 0.000000 0.000000 0.000000 0.000000 0.028421
#
#
# Mechanical properties :
#
#
# Convention : Reuss Voigt Hill
#
# Bulk Modulus (GPa) = 61.65088 68.98421 65.31755
# Shear Modulus (GPa) = 35.95255 39.66342 37.80799
#
# Velocity S-wave (km/s) = 4.21942 4.43183 4.32692
# Velocity P-wave (km/s) = 7.36662 7.76844 7.57020
#
# Compressibility (1/GPa) = 0.01622037
#
# Stress axis : x y z
#
# Youngs Moduli (GPa) = 154.82110 87.77714 105.73530
#
# Poissons Ratio (x) = 0.03883 0.30434
# Poissons Ratio (y) = 0.06849 0.23512
# Poissons Ratio (z) = 0.44563 0.19519
#
# Static dielectric constant tensor:
#      x y z
#    x 3.884060 0.000000 0.000000 
#    y 0.000000 3.682820 0.000000 
#    z 0.000000 0.000000 3.691490 
# 
# 
# High freq. dielectric constant tensor:
#      x y z
#    x 1.814360 0.000000 0.000000 
#    y 0.000000 1.783810 0.000000 
#    z 0.000000 0.000000 1.787910 
# 
# From -- ./inp_files/25158.got.cif
#   From: 2010.03.12/outbox.cif.g09.slc.cpg/sg67_13_cif.got.tgz:25158.got - 2010.04.10 22:41:39.
