data_PCOD8281434
_publ_section_title
;
Structure prediction by ZEFSAII (Michael W. Deem and Ramdas Pophale) SiO2 
 PCOD8281434
Probable space group: C M M A
;
_chemical_formula_sum "Si O2"
_cell_formula_units_Z 72
_cell_length_a 26.912246
_cell_length_b 8.679720
_cell_length_c 14.266750
_cell_angle_alpha 90.000000
_cell_angle_beta 90.000000
_cell_angle_gamma 90.000000
_cell_volume 3332.580973
_symmetry_space_group_name_H-M "C M M A"
_symmetry_group_IT_number 67
_symmetry_cell_setting 'orthorhombic'
loop_
_space_group_symop_operation_xyz
x,y,z
-x,1/2-y,z
x,-y,-z
-x,1/2+y,-z
-x,-y,-z
x,1/2+y,-z
-x,y,z
x,1/2-y,z
1/2+x,1/2+y,z
1/2-x,-y,z
1/2+x,1/2-y,-z
1/2-x,y,-z
1/2-x,1/2-y,-z
1/2+x,y,-z
1/2-x,1/2+y,z
1/2+x,-y,z
loop_
_atom_site_type_symbol
_atom_site_label
_atom_site_fract_x
_atom_site_fract_y
_atom_site_fract_z
Si Si1 0.946427 0.069870 0.602286
Si Si2 0.892440 0.567637 0.103064
Si Si3 0.000000 0.069377 0.898134
Si Si4 0.652616 0.931665 0.396481
Si Si5 0.699250 0.067263 0.225397
O O1 0.933204 0.250000 0.595928
O O2 0.000000 0.047130 0.655113
O O3 0.952118 0.000000 0.500000
O O4 0.900345 0.982853 0.650629
O O5 0.887798 0.750000 0.096178
O O6 0.847474 0.503165 0.165926
O O7 0.946826 0.521631 0.149412
O O8 0.886893 0.500000 0.000000
O O9 0.000000 0.250000 0.910079
O O10 0.000000 0.000000 0.000000
O O11 0.657170 0.750000 0.400970
O O12 0.658418 0.000000 0.500000
O O13 0.695272 0.001287 0.330861
O O14 0.701282 0.250000 0.227252
O O15 0.750000 0.000000 0.181005
#
# Coordination Sequence:
#
# PCOD8281434 Si02
#       5
#    16  16   8  16  16
#     4   9  16  28  49  77 109 146 186 232 286 345
#     4   9  19  36  62  91 123 156 194 237 290 353
#     4   8  14  30  56  88 119 152 187 230 283 342
#     4  11  22  38  60  84 114 153 198 251 303 359
#     4  11  24  42  60  85 118 156 202 252 300 356
#
# _framework density 21.604876000000001
#
# number of rings (size 3 to 8) (size 9 to 14) (size 15 to 20)
#    0.000    2.222    0.000    4.667    0.000    4.000 
#    2.000    4.444    0.000    0.000    0.000    0.000 
#    0.000    0.000    0.000    0.000    0.000    0.000 
#
# Total GULP energy -446004.518727 kJ/mol
# GULP energy per Si atom -12389.014409 kJ/mol
# Density = 2.155570 g / cm^3
# Si number density = 21.604876 Si / 1000 Ang^3
#
#
#
# Elastic Constant Matrix: (Units=GPa)
#
#
# Indices 1 2 3 4 5 6 
#
# 1 196.9667 47.8641 61.6410 0.0000 0.0000 0.0000
# 2 47.8641 92.7152 23.2194 0.0000 0.0000 0.0000
# 3 61.6410 23.2194 54.0140 0.0000 0.0000 0.0000
# 4 0.0000 0.0000 0.0000 22.7795 0.0000 0.0000
# 5 0.0000 0.0000 0.0000 0.0000 27.5622 0.0000
# 6 0.0000 0.0000 0.0000 0.0000 0.0000 36.4309
#
#
#
# Elastic Compliance Matrix: (Units=1/GPa)
#
#
# Indices 1 2 3 4 5 6 
#
# 1 0.008257 -0.002132 -0.008507 0.000000 0.000000 0.000000
# 2 -0.002132 0.012638 -0.002999 0.000000 0.000000 0.000000
# 3 -0.008507 -0.002999 0.029511 0.000000 0.000000 0.000000
# 4 0.000000 0.000000 0.000000 0.043899 0.000000 0.000000
# 5 0.000000 0.000000 0.000000 0.000000 0.036282 0.000000
# 6 0.000000 0.000000 0.000000 0.000000 0.000000 0.027449
#
#
# Mechanical properties :
#
#
# Convention : Reuss Voigt Hill
#
# Bulk Modulus (GPa) = 43.23493 67.68277 55.45885
# Shear Modulus (GPa) = 25.90378 31.41927 28.66153
#
# Velocity S-wave (km/s) = 3.46638 3.81762 3.64624
# Velocity P-wave (km/s) = 6.00635 7.12937 6.59182
#
# Compressibility (1/GPa) = 0.02312945
#
# Stress axis : x y z
#
# Youngs Moduli (GPa) = 121.10397 79.12839 33.88592
#
# Poissons Ratio (x) = 0.16874 0.28826
# Poissons Ratio (y) = 0.25825 0.10163
# Poissons Ratio (z) = 1.03019 0.23731
#
# Static dielectric constant tensor:
#      x y z
#    x 4.938950 0.000000 0.000000 
#    y 0.000000 3.460160 0.000000 
#    z 0.000000 0.000000 3.645130 
# 
# 
# High freq. dielectric constant tensor:
#      x y z
#    x 1.874410 0.000000 0.000000 
#    y 0.000000 1.843250 0.000000 
#    z 0.000000 0.000000 1.817910 
# 
# From -- ./inp_files/30541.got.cif
#   From: 2010.03.12/outbox.cif.g09.slc.cpg/sg67_16_cif.got.tgz:30541.got - 2010.04.10 22:41:39.
