data_PCOD8281742
_publ_section_title
;
Structure prediction by ZEFSAII (Michael W. Deem and Ramdas Pophale) SiO2 
 PCOD8281742
Probable space group: C C C A
;
_chemical_formula_sum "Si O2"
_cell_formula_units_Z 128
_cell_length_a 19.469410
_cell_length_b 19.369424
_cell_length_c 19.207594
_cell_angle_alpha 90.000000
_cell_angle_beta 90.000000
_cell_angle_gamma 90.000000
_cell_volume 7243.399923
_symmetry_space_group_name_H-M "C C C A"
_symmetry_group_IT_number 68
_space_group.IT_coordinate_system_code '2'
_symmetry_cell_setting 'orthorhombic'
loop_
_space_group_symop_operation_xyz
x,y,z
-x,1/2-y,z
x,1/2-y,1/2-z
-x,y,1/2-z
-x,-y,-z
x,1/2+y,-z
-x,1/2+y,1/2+z
x,-y,1/2+z
1/2+x,1/2+y,z
1/2-x,-y,z
1/2+x,-y,1/2-z
1/2-x,1/2+y,1/2-z
1/2-x,1/2-y,-z
1/2+x,y,-z
1/2-x,y,1/2+z
1/2+x,1/2-y,1/2+z
loop_
_atom_site_type_symbol
_atom_site_label
_atom_site_fract_x
_atom_site_fract_y
_atom_site_fract_z
Si Si1 0.079253 0.181383 0.583352
Si Si2 0.073148 0.663120 0.051917
Si Si3 0.822305 0.318018 0.059440
Si Si4 0.848692 0.429672 0.845092
Si Si5 0.363522 0.825952 0.726325
Si Si6 0.201961 0.177429 0.217237
Si Si7 0.685991 0.580865 0.341319
Si Si8 0.306227 0.337246 0.524419
O O1 0.086528 0.264269 0.590601
O O2 0.091361 0.151435 0.660140
O O3 0.137920 0.152941 0.534541
O O4 0.008454 0.152285 0.551599
O O5 0.112863 0.599347 0.087082
O O6 0.102186 0.669445 0.973191
O O7 0.827551 0.338911 0.140405
O O8 0.798777 0.238747 0.056521
O O9 0.766203 0.359482 0.011918
O O10 0.879720 0.384887 0.782313
O O11 0.767480 0.423287 0.850312
O O12 0.859620 0.511435 0.835508
O O13 0.387523 0.750000 0.750000
O O14 0.283488 0.824776 0.708079
O O15 0.178392 0.250000 0.250000
O O16 0.170990 0.120940 0.269731
O O17 0.664710 0.617044 0.412676
#
# Coordination Sequence:
#
# PCOD8281742 Si02
#       8
#    16  16  16  16  16  16  16  16
#     4  10  20  33  53  83 112 141 183 234 288 336
#     4  10  20  34  52  81 113 144 181 232 289 338
#     4  10  18  30  56  81 110 139 184 241 278 320
#     4  10  20  34  51  76 116 152 178 220 282 345
#     4  10  18  30  53  81 113 143 178 226 282 345
#     4  10  18  30  54  88 110 139 183 237 281 323
#     4  10  20  34  54  78 110 149 185 222 281 339
#     4  10  18  31  54  82 105 142 186 229 279 331
#
# _framework density 17.67126
#
# number of rings (size 3 to 8) (size 9 to 14) (size 15 to 20)
#    0.000    2.000    5.000    0.000    0.000    0.500 
#    0.000    1.875    2.750    2.250    0.000    0.000 
#    0.000    0.000    0.000    0.000    0.000    0.000 
#
# Total GULP energy -793170.013944 kJ/mol
# GULP energy per Si atom -12393.281468 kJ/mol
# Density = 1.763104 g / cm^3
# Si number density = 17.671260 Si / 1000 Ang^3
#
#
#
# Elastic Constant Matrix: (Units=GPa)
#
#
# Indices 1 2 3 4 5 6 
#
# 1 59.6343 25.2415 28.8766 0.0000 0.0000 0.0000
# 2 25.2415 92.8112 43.5843 0.0000 0.0000 0.0000
# 3 28.8766 43.5843 123.9725 0.0000 0.0000 0.0000
# 4 0.0000 0.0000 0.0000 21.8854 0.0000 0.0000
# 5 0.0000 0.0000 0.0000 0.0000 15.3525 0.0000
# 6 0.0000 0.0000 0.0000 0.0000 0.0000 12.6925
#
#
#
# Elastic Compliance Matrix: (Units=1/GPa)
#
#
# Indices 1 2 3 4 5 6 
#
# 1 0.020012 -0.003897 -0.003291 0.000000 0.000000 0.000000
# 2 -0.003897 0.013664 -0.003896 0.000000 0.000000 0.000000
# 3 -0.003291 -0.003896 0.010203 0.000000 0.000000 0.000000
# 4 0.000000 0.000000 0.000000 0.045693 0.000000 0.000000
# 5 0.000000 0.000000 0.000000 0.000000 0.065136 0.000000
# 6 0.000000 0.000000 0.000000 0.000000 0.000000 0.078787
#
#
# Mechanical properties :
#
#
# Convention : Reuss Voigt Hill
#
# Bulk Modulus (GPa) = 46.06171 52.42476 49.24323
# Shear Modulus (GPa) = 19.01867 21.90044 20.45956
#
# Velocity S-wave (km/s) = 3.28418 3.52422 3.40632
# Velocity P-wave (km/s) = 6.36424 6.80377 6.58767
#
# Compressibility (1/GPa) = 0.02171001
#
# Stress axis : x y z
#
# Youngs Moduli (GPa) = 49.96975 73.18488 98.01364
#
# Poissons Ratio (x) = 0.28520 0.32259
# Poissons Ratio (y) = 0.19473 0.38187
# Poissons Ratio (z) = 0.16447 0.28513
#
# Static dielectric constant tensor:
#      x y z
#    x 3.042200 0.000000 0.000000 
#    y 0.000000 3.231520 0.000000 
#    z 0.000000 0.000000 3.306250 
# 
# 
# High freq. dielectric constant tensor:
#      x y z
#    x 1.655450 0.000000 0.000000 
#    y 0.000000 1.654110 0.000000 
#    z 0.000000 0.000000 1.694930 
# 
# From -- ./inp_files/39867.got.cif
#   From: 2010.03.12/outbox.cif.g09.slc.cpg/sg68_20_cif.got.tgz:39867.got - 2010.04.10 23:14:56.
