data_PCOD8281036
_publ_section_title
;
Structure prediction by ZEFSAII (Michael W. Deem and Ramdas Pophale) SiO2 
 PCOD8281036
Probable space group: C M M A
;
_chemical_formula_sum "Si O2"
_cell_formula_units_Z 80
_cell_length_a 17.563545
_cell_length_b 8.633286
_cell_length_c 25.476437
_cell_angle_alpha 90.000000
_cell_angle_beta 90.000000
_cell_angle_gamma 90.000000
_cell_volume 3863.020349
_symmetry_space_group_name_H-M "C M M A"
_symmetry_group_IT_number 67
_symmetry_cell_setting 'orthorhombic'
loop_
_space_group_symop_operation_xyz
x,y,z
-x,1/2-y,z
x,-y,-z
-x,1/2+y,-z
-x,-y,-z
x,1/2+y,-z
-x,y,z
x,1/2-y,z
1/2+x,1/2+y,z
1/2-x,-y,z
1/2+x,1/2-y,-z
1/2-x,y,-z
1/2-x,1/2-y,-z
1/2+x,y,-z
1/2-x,1/2+y,z
1/2+x,-y,z
loop_
_atom_site_type_symbol
_atom_site_label
_atom_site_fract_x
_atom_site_fract_y
_atom_site_fract_z
Si Si1 0.168441 0.067672 0.845564
Si Si2 0.668571 0.432172 0.350411
Si Si3 0.587384 0.569564 0.250959
Si Si4 0.912930 0.567386 0.944203
Si Si5 0.090094 0.924139 0.553088
O O1 0.174543 0.250000 0.848624
O O2 0.250000 0.000000 0.829508
O O3 0.106924 0.019880 0.802182
O O4 0.142867 0.003890 0.901532
O O5 0.672554 0.250000 0.341178
O O6 0.750000 0.500000 0.365613
O O7 0.640255 0.511934 0.297588
O O8 0.612265 0.470268 0.397883
O O9 0.500000 0.535915 0.265696
O O10 0.602220 0.750000 0.241442
O O11 0.902684 0.750000 0.944908
O O12 0.000000 0.520175 0.931464
O O13 0.887682 0.500000 0.000000
O O14 0.123067 0.750000 0.559344
O O15 0.000000 0.918194 0.550114
O O16 0.123569 0.000000 0.500000
#
# Coordination Sequence:
#
# PCOD8281036 Si02
#       5
#    16  16  16  16  16
#     4  12  25  41  62  89 123 160 201 248 300 357
#     4  12  25  41  62  89 123 160 201 248 300 357
#     4  11  24  43  66  91 121 157 198 245 298 357
#     4  10  21  39  63  91 123 159 201 248 298 354
#     4  10  21  39  63  91 123 159 201 248 298 354
#
# _framework density 20.709184
#
# number of rings (size 3 to 8) (size 9 to 14) (size 15 to 20)
#    0.000    1.000    0.000    7.200    0.000    9.600 
#    0.000    4.000    0.000    0.000    0.000    0.000 
#    0.000    0.000    0.000    0.000    0.000    0.000 
#
# Total GULP energy -496316.959557 kJ/mol
# GULP energy per Si atom -12407.923989 kJ/mol
# Density = 2.066205 g / cm^3
# Si number density = 20.709184 Si / 1000 Ang^3
#
#
#
# Elastic Constant Matrix: (Units=GPa)
#
#
# Indices 1 2 3 4 5 6 
#
# 1 46.0098 33.8786 16.3807 0.0000 0.0000 0.0000
# 2 33.8786 74.9950 34.7522 0.0000 0.0000 0.0000
# 3 16.3807 34.7522 119.4329 0.0000 0.0000 0.0000
# 4 0.0000 0.0000 0.0000 41.9302 0.0000 0.0000
# 5 0.0000 0.0000 0.0000 0.0000 16.1356 0.0000
# 6 0.0000 0.0000 0.0000 0.0000 0.0000 27.5874
#
#
#
# Elastic Compliance Matrix: (Units=1/GPa)
#
#
# Indices 1 2 3 4 5 6 
#
# 1 0.032572 -0.014615 -0.000215 0.000000 0.000000 0.000000
# 2 -0.014615 0.021970 -0.004388 0.000000 0.000000 0.000000
# 3 -0.000215 -0.004388 0.009679 0.000000 0.000000 0.000000
# 4 0.000000 0.000000 0.000000 0.023849 0.000000 0.000000
# 5 0.000000 0.000000 0.000000 0.000000 0.061975 0.000000
# 6 0.000000 0.000000 0.000000 0.000000 0.000000 0.036248
#
#
# Mechanical properties :
#
#
# Convention : Reuss Voigt Hill
#
# Bulk Modulus (GPa) = 38.78126 45.60672 42.19399
# Shear Modulus (GPa) = 21.42936 27.49240 24.46088
#
# Velocity S-wave (km/s) = 3.22028 3.64750 3.44053
# Velocity P-wave (km/s) = 5.70913 6.30946 6.01679
#
# Compressibility (1/GPa) = 0.02578565
#
# Stress axis : x y z
#
# Youngs Moduli (GPa) = 30.70087 45.51684 103.31381
#
# Poissons Ratio (x) = 0.66522 0.02220
# Poissons Ratio (y) = 0.44869 0.45337
# Poissons Ratio (z) = 0.00660 0.19974
#
# Static dielectric constant tensor:
#      x y z
#    x 3.763280 0.000000 0.000000 
#    y 0.000000 4.091250 0.000000 
#    z 0.000000 0.000000 3.834880 
# 
# 
# High freq. dielectric constant tensor:
#      x y z
#    x 1.809430 0.000000 0.000000 
#    y 0.000000 1.829140 0.000000 
#    z 0.000000 0.000000 1.825310 
# 
# From -- ./inp_files/44445.got.cif
#   From: 2010.03.12/outbox.cif.g09.slc.cpg/sg67_23_cif.got.tgz:44445.got - 2010.04.10 22:41:39.
