data_PCOD8281810
_publ_section_title
;
Structure prediction by ZEFSAII (Michael W. Deem and Ramdas Pophale) SiO2 
 PCOD8281810
Probable space group: C C C A
;
_chemical_formula_sum "Si O2"
_cell_formula_units_Z 112
_cell_length_a 14.669769
_cell_length_b 26.363082
_cell_length_c 14.193852
_cell_angle_alpha 90.000000
_cell_angle_beta 90.000000
_cell_angle_gamma 90.000000
_cell_volume 5489.334908
_symmetry_space_group_name_H-M "C C C A"
_symmetry_group_IT_number 68
_space_group.IT_coordinate_system_code '2'
_symmetry_cell_setting 'orthorhombic'
loop_
_space_group_symop_operation_xyz
x,y,z
-x,1/2-y,z
x,1/2-y,1/2-z
-x,y,1/2-z
-x,-y,-z
x,1/2+y,-z
-x,1/2+y,1/2+z
x,-y,1/2+z
1/2+x,1/2+y,z
1/2-x,-y,z
1/2+x,-y,1/2-z
1/2-x,1/2+y,1/2-z
1/2-x,1/2-y,-z
1/2+x,y,-z
1/2-x,y,1/2+z
1/2+x,1/2-y,1/2+z
loop_
_atom_site_type_symbol
_atom_site_label
_atom_site_fract_x
_atom_site_fract_y
_atom_site_fract_z
Si Si1 0.102194 0.952597 0.722989
Si Si2 0.350399 0.801862 0.291384
Si Si3 0.882749 0.641399 0.613995
Si Si4 0.261868 0.101301 0.858712
Si Si5 0.688474 0.631124 0.559794
Si Si6 0.105564 0.430025 0.766816
Si Si7 0.537929 0.698033 0.474342
O O1 0.121435 0.919832 0.628189
O O2 0.166850 0.934888 0.807083
O O3 0.000000 0.940235 0.750000
O O4 0.117461 0.011554 0.704663
O O5 0.307049 0.750000 0.250000
O O6 0.408464 0.831368 0.211968
O O7 0.271522 0.839481 0.329149
O O8 0.419793 0.787127 0.373871
O O9 0.781537 0.660139 0.586461
O O10 0.956658 0.656773 0.535667
O O11 0.159929 0.083416 0.829897
O O12 0.286075 0.096112 0.969284
O O13 0.650942 0.598466 0.645980
O O14 0.614039 0.674180 0.540775
O O15 0.000000 0.415546 0.750000
O O16 0.500000 0.750000 0.520356
#
# Coordination Sequence:
#
# PCOD8281810 Si02
#       7
#    16  16  16  16  16  16  16
#     4  10  20  41  67  93 123 165 215 275 319 384
#     4  10  18  36  64  93 118 161 214 271 327 365
#     4  11  21  38  65  90 131 163 214 268 324 381
#     4  10  22  42  62  95 130 167 218 269 321 392
#     4  11  25  42  63  96 133 174 214 271 327 400
#     4  11  24  45  66  91 134 179 216 260 336 395
#     4  11  23  38  63  96 128 163 218 273 329 386
#
# _framework density 20.403200999999999
#
# number of rings (size 3 to 8) (size 9 to 14) (size 15 to 20)
#    0.000    1.429    4.286    3.429    2.000    0.571 
#    5.143    2.143    0.000    0.000    0.000    0.000 
#    0.000    0.000    0.000    0.000    0.000    0.000 
#
# Total GULP energy -694221.042562 kJ/mol
# GULP energy per Si atom -12396.804331 kJ/mol
# Density = 2.035676 g / cm^3
# Si number density = 20.403201 Si / 1000 Ang^3
#
#
#
# Elastic Constant Matrix: (Units=GPa)
#
#
# Indices 1 2 3 4 5 6 
#
# 1 130.2003 37.7463 33.6803 0.0000 0.0000 0.0000
# 2 37.7463 79.9865 16.1532 0.0000 0.0000 0.0000
# 3 33.6803 16.1532 70.3493 0.0000 0.0000 0.0000
# 4 0.0000 0.0000 0.0000 14.8280 0.0000 0.0000
# 5 0.0000 0.0000 0.0000 0.0000 25.4396 0.0000
# 6 0.0000 0.0000 0.0000 0.0000 0.0000 22.4344
#
#
#
# Elastic Compliance Matrix: (Units=1/GPa)
#
#
# Indices 1 2 3 4 5 6 
#
# 1 0.009778 -0.003847 -0.003798 0.000000 0.000000 0.000000
# 2 -0.003847 0.014624 -0.001516 0.000000 0.000000 0.000000
# 3 -0.003798 -0.001516 0.016381 0.000000 0.000000 0.000000
# 4 0.000000 0.000000 0.000000 0.067440 0.000000 0.000000
# 5 0.000000 0.000000 0.000000 0.000000 0.039309 0.000000
# 6 0.000000 0.000000 0.000000 0.000000 0.000000 0.044574
#
#
# Mechanical properties :
#
#
# Convention : Reuss Voigt Hill
#
# Bulk Modulus (GPa) = 44.52217 50.63284 47.57751
# Shear Modulus (GPa) = 22.94459 25.40415 24.17437
#
# Velocity S-wave (km/s) = 3.35708 3.53243 3.44587
# Velocity P-wave (km/s) = 6.07414 6.44263 6.26110
#
# Compressibility (1/GPa) = 0.02246072
#
# Stress axis : x y z
#
# Youngs Moduli (GPa) = 102.26647 68.38118 61.04568
#
# Poissons Ratio (x) = 0.26310 0.23185
# Poissons Ratio (y) = 0.39347 0.09254
# Poissons Ratio (z) = 0.38841 0.10366
#
# Static dielectric constant tensor:
#      x y z
#    x 3.868150 0.000000 0.000000 
#    y 0.000000 3.754350 0.000000 
#    z 0.000000 0.000000 3.607570 
# 
# 
# High freq. dielectric constant tensor:
#      x y z
#    x 1.806320 0.000000 0.000000 
#    y 0.000000 1.795940 0.000000 
#    z 0.000000 0.000000 1.777060 
# 
# From -- ./inp_files/22584.got.cif
#   From: 2010.03.12/outbox.cif.g09.slc.cpg/sg68_12_cif.got.tgz:22584.got - 2010.04.10 23:14:56.
