data_PCOD8281281
_publ_section_title
;
Structure prediction by ZEFSAII (Michael W. Deem and Ramdas Pophale) SiO2 
 PCOD8281281
Probable space group: C M M A
;
_chemical_formula_sum "Si O2"
_cell_formula_units_Z 72
_cell_length_a 14.619950
_cell_length_b 9.933356
_cell_length_c 24.723725
_cell_angle_alpha 90.000000
_cell_angle_beta 90.000000
_cell_angle_gamma 90.000000
_cell_volume 3590.507118
_symmetry_space_group_name_H-M "C M M A"
_symmetry_group_IT_number 67
_symmetry_cell_setting 'orthorhombic'
loop_
_space_group_symop_operation_xyz
x,y,z
-x,1/2-y,z
x,-y,-z
-x,1/2+y,-z
-x,-y,-z
x,1/2+y,-z
-x,y,z
x,1/2-y,z
1/2+x,1/2+y,z
1/2-x,-y,z
1/2+x,1/2-y,-z
1/2-x,y,-z
1/2-x,1/2-y,-z
1/2+x,y,-z
1/2-x,1/2+y,z
1/2+x,-y,z
loop_
_atom_site_type_symbol
_atom_site_label
_atom_site_fract_x
_atom_site_fract_y
_atom_site_fract_z
Si Si1 0.646129 0.982762 0.863730
Si Si2 0.900441 0.250000 0.194026
Si Si3 0.234531 0.750000 0.706381
Si Si4 0.607659 0.250000 0.218239
Si Si5 0.894426 0.905059 0.450581
Si Si6 0.250000 0.000000 0.364896
Si Si7 0.000000 0.597026 0.050657
O O1 0.639031 0.881728 0.813581
O O2 0.590382 0.926128 0.914160
O O3 0.750000 0.000000 0.882741
O O4 0.605962 0.123741 0.845354
O O5 0.823555 0.250000 0.239174
O O6 0.000000 0.250000 0.222375
O O7 0.341436 0.750000 0.723708
O O8 0.209889 0.881344 0.671934
O O9 0.500000 0.250000 0.229178
O O10 0.877604 0.750000 0.467493
O O11 0.000000 0.929945 0.435043
O O12 0.864469 0.000000 0.500000
O O13 0.833476 0.942658 0.399542
O O14 0.000000 0.750000 0.029607
O O15 0.000000 0.500000 0.000000
#
# Coordination Sequence:
#
# PCOD8281281 Si02
#       7
#    16   8   8   8  16   8   8
#     4  12  22  43  72  98 131 172 219 273 327 390
#     4  12  24  40  68 100 129 170 227 274 318 378
#     4  12  26  40  63 102 137 174 228 278 326 396
#     4  12  22  44  70  94 127 180 233 270 318 392
#     4  10  23  44  71  98 128 176 229 273 334 412
#     4  12  25  42  64  96 146 176 209 280 350 388
#     4  12  28  48  70 104 138 174 220 274 345 402
#
# _framework density 20.052879000000001
#
# number of rings (size 3 to 8) (size 9 to 14) (size 15 to 20)
#    0.000    0.444    6.667    1.667    3.111    3.111 
#    0.000    1.111    0.000    0.000    0.000    0.000 
#    0.000    0.000    0.000    0.000    0.000    0.000 
#
# Total GULP energy -446639.805123 kJ/mol
# GULP energy per Si atom -12406.661253 kJ/mol
# Density = 2.000724 g / cm^3
# Si number density = 20.052879 Si / 1000 Ang^3
#
#
#
# Elastic Constant Matrix: (Units=GPa)
#
#
# Indices 1 2 3 4 5 6 
#
# 1 129.3266 25.2583 30.2911 0.0000 0.0000 0.0000
# 2 25.2583 166.5275 46.9195 0.0000 0.0000 0.0000
# 3 30.2911 46.9195 86.7467 0.0000 0.0000 0.0000
# 4 0.0000 0.0000 0.0000 35.8173 0.0000 0.0000
# 5 0.0000 0.0000 0.0000 0.0000 11.2542 0.0000
# 6 0.0000 0.0000 0.0000 0.0000 0.0000 26.7457
#
#
#
# Elastic Compliance Matrix: (Units=1/GPa)
#
#
# Indices 1 2 3 4 5 6 
#
# 1 0.008461 -0.000532 -0.002667 0.000000 0.000000 0.000000
# 2 -0.000532 0.007118 -0.003664 0.000000 0.000000 0.000000
# 3 -0.002667 -0.003664 0.014441 0.000000 0.000000 0.000000
# 4 0.000000 0.000000 0.000000 0.027919 0.000000 0.000000
# 5 0.000000 0.000000 0.000000 0.000000 0.088856 0.000000
# 6 0.000000 0.000000 0.000000 0.000000 0.000000 0.037389
#
#
# Mechanical properties :
#
#
# Convention : Reuss Voigt Hill
#
# Bulk Modulus (GPa) = 61.37236 65.28209 63.32723
# Shear Modulus (GPa) = 24.58915 33.43890 29.01403
#
# Velocity S-wave (km/s) = 3.50553 4.08798 3.80791
# Velocity P-wave (km/s) = 6.85979 7.40998 7.14018
#
# Compressibility (1/GPa) = 0.01629398
#
# Stress axis : x y z
#
# Youngs Moduli (GPa) = 118.19124 140.48650 69.24753
#
# Poissons Ratio (x) = 0.07473 0.18466
# Poissons Ratio (y) = 0.06287 0.25374
# Poissons Ratio (z) = 0.31518 0.51478
#
# Static dielectric constant tensor:
#      x y z
#    x 3.478310 0.000000 0.000000 
#    y 0.000000 4.152570 0.000000 
#    z 0.000000 0.000000 3.531050 
# 
# 
# High freq. dielectric constant tensor:
#      x y z
#    x 1.797110 0.000000 0.000000 
#    y 0.000000 1.808300 0.000000 
#    z 0.000000 0.000000 1.769500 
# 
# From -- ./inp_files/44281.got.cif
#   From: 2010.03.12/outbox.cif.g09.slc.cpg/sg67_23_cif.got.tgz:44281.got - 2010.04.10 22:41:39.
