data_PCOD8281077
_publ_section_title
;
Structure prediction by ZEFSAII (Michael W. Deem and Ramdas Pophale) SiO2 
 PCOD8281077
Probable space group: C M M A
;
_chemical_formula_sum "Si O2"
_cell_formula_units_Z 64
_cell_length_a 24.304810
_cell_length_b 15.067130
_cell_length_c 8.497396
_cell_angle_alpha 90.000000
_cell_angle_beta 90.000000
_cell_angle_gamma 90.000000
_cell_volume 3111.778127
_symmetry_space_group_name_H-M "C M M A"
_symmetry_group_IT_number 67
_symmetry_cell_setting 'orthorhombic'
loop_
_space_group_symop_operation_xyz
x,y,z
-x,1/2-y,z
x,-y,-z
-x,1/2+y,-z
-x,-y,-z
x,1/2+y,-z
-x,y,z
x,1/2-y,z
1/2+x,1/2+y,z
1/2-x,-y,z
1/2+x,1/2-y,-z
1/2-x,y,-z
1/2-x,1/2-y,-z
1/2+x,y,-z
1/2-x,1/2+y,z
1/2+x,-y,z
loop_
_atom_site_type_symbol
_atom_site_label
_atom_site_fract_x
_atom_site_fract_y
_atom_site_fract_z
Si Si1 0.500000 0.852776 0.412650
Si Si2 0.613674 0.595896 0.564485
Si Si3 0.811389 0.250000 0.436705
Si Si4 0.500000 0.098494 0.938060
Si Si5 0.386616 0.900723 0.936911
Si Si6 0.189182 0.250000 0.064058
O O1 0.500000 0.750000 0.367827
O O2 0.447297 0.877857 0.513260
O O3 0.500000 0.906496 0.250334
O O4 0.630029 0.500000 0.500000
O O5 0.658183 0.662957 0.497220
O O6 0.615450 0.597557 0.750756
O O7 0.750000 0.250000 0.500000
O O8 0.811753 0.250000 0.250364
O O9 0.444230 0.143332 0.003249
O O10 0.500000 0.000000 0.000000
O O11 0.338691 0.839235 0.001620
O O12 0.378193 0.000000 0.000000
O O13 0.250000 0.250000 0.000000
#
# Coordination Sequence:
#
# PCOD8281077 Si02
#       6
#     8  16   8   8  16   8
#     4  12  24  40  67 102 138 180 221 274 337 399
#     4  12  24  44  70  98 135 177 220 273 332 398
#     4  12  26  47  68  99 132 170 226 276 330 394
#     4  10  21  40  63  97 133 171 215 265 323 390
#     4  11  24  43  67  99 132 172 218 269 329 391
#     4  12  26  45  68  95 130 172 218 274 326 388
#
# _framework density 20.567018999999998
#
# number of rings (size 3 to 8) (size 9 to 14) (size 15 to 20)
#    0.000    0.500    1.250    9.375    1.750    1.000 
#    0.000    5.000    0.000    0.000    0.000    0.000 
#    0.000    0.000    0.000    0.000    0.000    0.000 
#
# Total GULP energy -396948.672383 kJ/mol
# GULP energy per Si atom -12404.646012 kJ/mol
# Density = 2.052021 g / cm^3
# Si number density = 20.567019 Si / 1000 Ang^3
#
#
#
# Elastic Constant Matrix: (Units=GPa)
#
#
# Indices 1 2 3 4 5 6 
#
# 1 202.4137 86.7140 89.0984 0.0000 0.0000 0.0000
# 2 86.7140 149.8179 67.4709 0.0000 0.0000 0.0000
# 3 89.0984 67.4709 241.1867 0.0000 0.0000 0.0000
# 4 0.0000 0.0000 0.0000 36.5147 0.0000 0.0000
# 5 0.0000 0.0000 0.0000 0.0000 41.9907 0.0000
# 6 0.0000 0.0000 0.0000 0.0000 0.0000 -9.1719
#
#
#
# Elastic Compliance Matrix: (Units=1/GPa)
#
#
# Indices 1 2 3 4 5 6 
#
# 1 0.007125 -0.003362 -0.001692 0.000000 0.000000 0.000000
# 2 -0.003362 0.009224 -0.001338 0.000000 0.000000 0.000000
# 3 -0.001692 -0.001338 0.005145 0.000000 0.000000 0.000000
# 4 0.000000 0.000000 0.000000 0.027386 0.000000 0.000000
# 5 0.000000 0.000000 0.000000 0.000000 0.023815 0.000000
# 6 0.000000 0.000000 0.000000 0.000000 0.000000 -0.109028
#
#
# Mechanical properties :
#
#
# Convention : Reuss Voigt Hill
#
# Bulk Modulus (GPa) = 114.80890 119.99833 117.40361
# Shear Modulus (GPa) = -242.18342 37.20904 -102.48719
#
# Velocity S-wave (km/s) = -10.86319 4.25804 -7.06675
# Velocity P-wave (km/s) = 10.06987 9.09100 3.06235
#
# Compressibility (1/GPa) = 0.00871013
#
# Stress axis : x y z
#
# Youngs Moduli (GPa) = 140.34246 108.41867 194.34724
#
# Poissons Ratio (x) = 0.36454 0.32877
# Poissons Ratio (y) = 0.47188 0.26006
# Poissons Ratio (z) = 0.23741 0.14508
#
# Static dielectric constant tensor:
#      x y z
#    x 4.110890 0.000000 0.000000 
#    y 0.000000 3.940080 0.000000 
#    z 0.000000 0.000000 3.997400 
# 
# 
# High freq. dielectric constant tensor:
#      x y z
#    x 1.814160 0.000000 0.000000 
#    y 0.000000 1.816950 0.000000 
#    z 0.000000 0.000000 1.831350 
# 
# From -- ./inp_files/12122.got.cif
#   From: 2010.03.12/outbox.cif.g09.slc.cpg/sg67_7_cif.got.tgz:12122.got - 2010.04.10 22:41:39.
