data_PCOD8281148
_publ_section_title
;
Structure prediction by ZEFSAII (Michael W. Deem and Ramdas Pophale) SiO2 
 PCOD8281148
Probable space group: C M M A
;
_chemical_formula_sum "Si O2"
_cell_formula_units_Z 80
_cell_length_a 15.636640
_cell_length_b 26.959441
_cell_length_c 8.838636
_cell_angle_alpha 90.000000
_cell_angle_beta 90.000000
_cell_angle_gamma 90.000000
_cell_volume 3725.971849
_symmetry_space_group_name_H-M "C M M A"
_symmetry_group_IT_number 67
_symmetry_cell_setting 'orthorhombic'
loop_
_space_group_symop_operation_xyz
x,y,z
-x,1/2-y,z
x,-y,-z
-x,1/2+y,-z
-x,-y,-z
x,1/2+y,-z
-x,y,z
x,1/2-y,z
1/2+x,1/2+y,z
1/2-x,-y,z
1/2+x,1/2-y,-z
1/2-x,y,-z
1/2-x,1/2-y,-z
1/2+x,y,-z
1/2-x,1/2+y,z
1/2+x,-y,z
loop_
_atom_site_type_symbol
_atom_site_label
_atom_site_fract_x
_atom_site_fract_y
_atom_site_fract_z
Si Si1 0.844078 0.978735 0.220427
Si Si2 0.830394 0.613106 0.397401
Si Si3 0.095169 0.304336 0.396470
Si Si4 0.284282 0.658419 0.159337
Si Si5 0.096886 0.430369 0.077236
O O1 0.872906 0.940231 0.353659
O O2 0.750000 0.000000 0.250789
O O3 0.906882 0.026070 0.205480
O O4 0.846684 0.948431 0.063500
O O5 0.750000 0.600568 0.500000
O O6 0.892398 0.651402 0.482615
O O7 0.800057 0.638297 0.241735
O O8 0.101915 0.250000 0.476520
O O9 0.166723 0.301978 0.264206
O O10 0.000000 0.311400 0.327773
O O11 0.356081 0.616455 0.145298
O O12 0.250000 0.680588 0.000000
O O13 0.000000 0.417138 0.029289
#
# Coordination Sequence:
#
# PCOD8281148 Si02
#       5
#    16  16  16  16  16
#     4  11  19  35  57  86 128 168 213 255 301 367
#     4  10  22  38  64  89 121 170 214 252 305 374
#     4  10  24  46  67  91 127 163 201 263 332 380
#     4  11  20  40  65  93 123 162 209 261 308 373
#     4  11  21  33  56  92 130 167 205 257 319 367
#
# _framework density 21.470908999999999
#
# number of rings (size 3 to 8) (size 9 to 14) (size 15 to 20)
#    0.000    1.400    4.000    3.000    0.000    6.000 
#    0.000    0.000    0.000    6.000    0.000    0.000 
#    0.000    0.000    0.000    0.000    0.000    0.000 
#
# Total GULP energy -495608.301401 kJ/mol
# GULP energy per Si atom -12390.207535 kJ/mol
# Density = 2.142204 g / cm^3
# Si number density = 21.470909 Si / 1000 Ang^3
#
#
#
# Elastic Constant Matrix: (Units=GPa)
#
#
# Indices 1 2 3 4 5 6 
#
# 1 79.6203 30.3181 23.7494 0.0000 0.0000 0.0000
# 2 30.3181 114.2379 33.2557 0.0000 0.0000 0.0000
# 3 23.7494 33.2557 86.0444 0.0000 0.0000 0.0000
# 4 0.0000 0.0000 0.0000 27.8521 0.0000 0.0000
# 5 0.0000 0.0000 0.0000 0.0000 18.4142 0.0000
# 6 0.0000 0.0000 0.0000 0.0000 0.0000 27.2955
#
#
#
# Elastic Compliance Matrix: (Units=1/GPa)
#
#
# Indices 1 2 3 4 5 6 
#
# 1 0.014565 -0.003037 -0.002846 0.000000 0.000000 0.000000
# 2 -0.003037 0.010497 -0.003219 0.000000 0.000000 0.000000
# 3 -0.002846 -0.003219 0.013652 0.000000 0.000000 0.000000
# 4 0.000000 0.000000 0.000000 0.035904 0.000000 0.000000
# 5 0.000000 0.000000 0.000000 0.000000 0.054306 0.000000
# 6 0.000000 0.000000 0.000000 0.000000 0.000000 0.036636
#
#
# Mechanical properties :
#
#
# Convention : Reuss Voigt Hill
#
# Bulk Modulus (GPa) = 48.75835 50.50545 49.63190
# Shear Modulus (GPa) = 26.23300 27.55097 26.89199
#
# Velocity S-wave (km/s) = 3.49921 3.58603 3.54289
# Velocity P-wave (km/s) = 6.25174 6.38122 6.31681
#
# Compressibility (1/GPa) = 0.02050931
#
# Stress axis : x y z
#
# Youngs Moduli (GPa) = 68.65757 95.26879 73.25178
#
# Poissons Ratio (x) = 0.28932 0.20850
# Poissons Ratio (y) = 0.20850 0.23577
# Poissons Ratio (z) = 0.19543 0.30664
#
# Static dielectric constant tensor:
#      x y z
#    x 3.702250 0.000000 0.000000 
#    y 0.000000 4.015090 0.000000 
#    z 0.000000 0.000000 3.911920 
# 
# 
# High freq. dielectric constant tensor:
#      x y z
#    x 1.828120 0.000000 0.000000 
#    y 0.000000 1.842970 0.000000 
#    z 0.000000 0.000000 1.825840 
# 
# From -- ./inp_files/10142.got.cif
#   From: 2010.03.12/outbox.cif.g09.slc.cpg/sg67_6_cif.got.tgz:10142.got - 2010.04.10 22:41:39.
