data_PCOD8281840
_publ_section_title
;
Structure prediction by ZEFSAII (Michael W. Deem and Ramdas Pophale) SiO2 
 PCOD8281840
Probable space group: C C C A
;
_chemical_formula_sum "Si O2"
_cell_formula_units_Z 108
_cell_length_a 31.741105
_cell_length_b 29.421111
_cell_length_c 5.150856
_cell_angle_alpha 90.000000
_cell_angle_beta 90.000000
_cell_angle_gamma 90.000000
_cell_volume 4810.171036
_symmetry_space_group_name_H-M "C C C A"
_symmetry_group_IT_number 68
_space_group.IT_coordinate_system_code '2'
_symmetry_cell_setting 'orthorhombic'
loop_
_space_group_symop_operation_xyz
x,y,z
-x,1/2-y,z
x,1/2-y,1/2-z
-x,y,1/2-z
-x,-y,-z
x,1/2+y,-z
-x,1/2+y,1/2+z
x,-y,1/2+z
1/2+x,1/2+y,z
1/2-x,-y,z
1/2+x,-y,1/2-z
1/2-x,1/2+y,1/2-z
1/2-x,1/2-y,-z
1/2+x,y,-z
1/2-x,y,1/2+z
1/2+x,1/2-y,1/2+z
loop_
_atom_site_type_symbol
_atom_site_label
_atom_site_fract_x
_atom_site_fract_y
_atom_site_fract_z
Si Si1 0.275954 0.701433 0.910031
Si Si2 0.353048 0.750000 0.750000
Si Si3 0.574531 0.790382 0.455035
Si Si4 0.026951 0.376281 0.504291
Si Si5 0.337708 0.525757 0.692487
Si Si6 0.562893 0.527085 0.846547
Si Si7 0.500000 0.250000 0.250000
Si Si8 0.725230 0.594884 0.618334
O O1 0.256806 0.716908 0.631411
O O2 0.322307 0.723709 0.951755
O O3 0.282593 0.648163 0.896573
O O4 0.383592 0.711576 0.629566
O O5 0.581772 0.750000 0.250000
O O6 0.565361 0.843376 0.392857
O O7 0.529553 0.781449 0.580862
O O8 0.046148 0.422552 0.614279
O O9 0.000000 0.386794 0.250000
O O10 0.000000 0.356073 0.750000
O O11 0.322198 0.511348 0.406223
O O12 0.387279 0.530873 0.678643
O O13 0.318626 0.573322 0.789824
O O14 0.546539 0.505781 0.576858
O O15 0.739989 0.579706 0.332232
#
# Coordination Sequence:
#
# PCOD8281840 Si02
#       8
#    16   8  16  16  16  16   4  16
#     4  10  23  43  66  92 132 171 217 272 328 386
#     4  11  26  41  68  98 124 178 222 273 332 401
#     4  11  25  42  66 100 135 175 229 278 340 406
#     4  12  26  45  72  99 131 179 222 270 345 402
#     4  10  21  37  59  87 125 166 202 261 325 381
#     4  10  23  44  66  98 133 170 218 275 332 393
#     4  10  18  44  64  82 140 172 206 280 330 398
#     4  10  21  37  58  89 121 163 210 262 314 378
#
# _framework density 22.452424000000001
#
# number of rings (size 3 to 8) (size 9 to 14) (size 15 to 20)
#    0.000    1.481    0.741    3.333    6.222    3.556 
#    0.000    1.481    0.000    0.000    0.000    0.000 
#    0.000    0.000    0.000    0.000    0.000    0.000 
#
# Total GULP energy -669002.914278 kJ/mol
# GULP energy per Si atom -12388.942857 kJ/mol
# Density = 2.240132 g / cm^3
# Si number density = 22.452424 Si / 1000 Ang^3
#
#
#
# Elastic Constant Matrix: (Units=GPa)
#
#
# Indices 1 2 3 4 5 6 
#
# 1 99.2997 52.5040 37.3403 0.0000 0.0000 0.0000
# 2 52.5040 118.7061 37.0623 0.0000 0.0000 0.0000
# 3 37.3403 37.0623 111.3864 0.0000 0.0000 0.0000
# 4 0.0000 0.0000 0.0000 38.0953 0.0000 0.0000
# 5 0.0000 0.0000 0.0000 0.0000 38.7404 0.0000
# 6 0.0000 0.0000 0.0000 0.0000 0.0000 53.5426
#
#
#
# Elastic Compliance Matrix: (Units=1/GPa)
#
#
# Indices 1 2 3 4 5 6 
#
# 1 0.013951 -0.005256 -0.002928 0.000000 0.000000 0.000000
# 2 -0.005256 0.011381 -0.002025 0.000000 0.000000 0.000000
# 3 -0.002928 -0.002025 0.010633 0.000000 0.000000 0.000000
# 4 0.000000 0.000000 0.000000 0.026250 0.000000 0.000000
# 5 0.000000 0.000000 0.000000 0.000000 0.025813 0.000000
# 6 0.000000 0.000000 0.000000 0.000000 0.000000 0.018677
#
#
# Mechanical properties :
#
#
# Convention : Reuss Voigt Hill
#
# Bulk Modulus (GPa) = 64.32092 64.80061 64.56077
# Shear Modulus (GPa) = 37.79155 39.57470 38.68312
#
# Velocity S-wave (km/s) = 4.10711 4.20289 4.15528
# Velocity P-wave (km/s) = 7.15549 7.24406 7.19991
#
# Compressibility (1/GPa) = 0.01554704
#
# Stress axis : x y z
#
# Youngs Moduli (GPa) = 71.68089 87.86377 94.04698
#
# Poissons Ratio (x) = 0.46184 0.27535
# Poissons Ratio (y) = 0.37678 0.19043
# Poissons Ratio (z) = 0.20986 0.17791
#
# Static dielectric constant tensor:
#      x y z
#    x 3.877980 0.000000 0.000000 
#    y 0.000000 4.157460 0.000000 
#    z 0.000000 0.000000 4.439670 
# 
# 
# High freq. dielectric constant tensor:
#      x y z
#    x 1.884150 0.000000 0.000000 
#    y 0.000000 1.899810 0.000000 
#    z 0.000000 0.000000 1.888440 
# 
# From -- ./inp_files/2963.got.cif
#   From: 2010.03.12/outbox.cif.g09.slc.cpg/sg68_2_cif.got.tgz:2963.got - 2010.04.10 23:14:56.
