data_PCOD8281233
_publ_section_title
;
Structure prediction by ZEFSAII (Michael W. Deem and Ramdas Pophale) SiO2 
 PCOD8281233
Probable space group: C M M A
;
_chemical_formula_sum "Si O2"
_cell_formula_units_Z 64
_cell_length_a 9.290420
_cell_length_b 17.785739
_cell_length_c 18.515877
_cell_angle_alpha 90.000000
_cell_angle_beta 90.000000
_cell_angle_gamma 90.000000
_cell_volume 3059.507696
_symmetry_space_group_name_H-M "C M M A"
_symmetry_group_IT_number 67
_symmetry_cell_setting 'orthorhombic'
loop_
_space_group_symop_operation_xyz
x,y,z
-x,1/2-y,z
x,-y,-z
-x,1/2+y,-z
-x,-y,-z
x,1/2+y,-z
-x,y,z
x,1/2-y,z
1/2+x,1/2+y,z
1/2-x,-y,z
1/2+x,1/2-y,-z
1/2-x,y,-z
1/2-x,1/2-y,-z
1/2+x,y,-z
1/2-x,1/2+y,z
1/2+x,-y,z
loop_
_atom_site_type_symbol
_atom_site_label
_atom_site_fract_x
_atom_site_fract_y
_atom_site_fract_z
Si Si1 0.826768 0.079718 0.430618
Si Si2 0.000000 0.396392 0.933912
Si Si3 0.751342 0.664487 0.153561
Si Si4 0.000000 0.931710 0.899047
Si Si5 0.158791 0.663176 0.315064
O O1 0.750000 0.119673 0.500000
O O2 0.788518 0.124505 0.358226
O O3 0.000000 0.074015 0.439615
O O4 0.750000 0.000000 0.423071
O O5 0.863448 0.347981 0.910699
O O6 0.000000 0.478258 0.896197
O O7 0.000000 0.402662 0.019470
O O8 0.690547 0.750000 0.148560
O O9 0.633485 0.600622 0.144434
O O10 0.824674 0.649643 0.230188
O O11 0.168629 0.750000 0.334142
O O12 0.000000 0.632052 0.337231
#
# Coordination Sequence:
#
# PCOD8281233 Si02
#       5
#    16   8  16   8  16
#     4  11  23  41  66  96 131 168 210 258 308 370
#     4  11  23  43  61  87 126 167 212 259 333 382
#     4  11  23  41  64  90 124 167 214 264 318 383
#     4  11  25  39  61  93 126 161 208 275 321 388
#     4  10  22  42  64  89 126 167 209 260 317 377
#
# _framework density 20.918398
#
# number of rings (size 3 to 8) (size 9 to 14) (size 15 to 20)
#    0.000    1.250    1.250    5.250    1.750    8.000 
#    0.000    0.000    0.000    0.000    0.000    0.000 
#    0.000    0.000    0.000    0.000    0.000    0.000 
#
# Total GULP energy -396736.177423 kJ/mol
# GULP energy per Si atom -12398.005544 kJ/mol
# Density = 2.087079 g / cm^3
# Si number density = 20.918398 Si / 1000 Ang^3
#
#
#
# Elastic Constant Matrix: (Units=GPa)
#
#
# Indices 1 2 3 4 5 6 
#
# 1 152.2611 31.2446 27.7585 0.0000 0.0000 0.0000
# 2 31.2446 69.3386 38.1969 0.0000 0.0000 0.0000
# 3 27.7585 38.1969 77.9647 0.0000 0.0000 0.0000
# 4 0.0000 0.0000 0.0000 35.7259 0.0000 0.0000
# 5 0.0000 0.0000 0.0000 0.0000 35.3176 0.0000
# 6 0.0000 0.0000 0.0000 0.0000 0.0000 23.1450
#
#
#
# Elastic Compliance Matrix: (Units=1/GPa)
#
#
# Indices 1 2 3 4 5 6 
#
# 1 0.007341 -0.002559 -0.001360 0.000000 0.000000 0.000000
# 2 -0.002559 0.020645 -0.009204 0.000000 0.000000 0.000000
# 3 -0.001360 -0.009204 0.017820 0.000000 0.000000 0.000000
# 4 0.000000 0.000000 0.000000 0.027991 0.000000 0.000000
# 5 0.000000 0.000000 0.000000 0.000000 0.028314 0.000000
# 6 0.000000 0.000000 0.000000 0.000000 0.000000 0.043206
#
#
# Mechanical properties :
#
#
# Convention : Reuss Voigt Hill
#
# Bulk Modulus (GPa) = 51.12247 54.88495 53.00371
# Shear Modulus (GPa) = 28.07713 32.32866 30.20290
#
# Velocity S-wave (km/s) = 3.66761 3.93551 3.80392
# Velocity P-wave (km/s) = 6.51362 6.85168 6.68479
#
# Compressibility (1/GPa) = 0.01956087
#
# Stress axis : x y z
#
# Youngs Moduli (GPa) = 136.22797 48.43818 56.11798
#
# Poissons Ratio (x) = 0.12393 0.07632
# Poissons Ratio (y) = 0.34854 0.51648
# Poissons Ratio (z) = 0.18528 0.44580
#
# Static dielectric constant tensor:
#      x y z
#    x 3.664480 0.000000 0.000000 
#    y 0.000000 3.745380 0.000000 
#    z 0.000000 0.000000 3.933370 
# 
# 
# High freq. dielectric constant tensor:
#      x y z
#    x 1.828680 0.000000 0.000000 
#    y 0.000000 1.815630 0.000000 
#    z 0.000000 0.000000 1.826600 
# 
# From -- ./inp_files/31760.got.cif
#   From: 2010.03.12/outbox.cif.g09.slc.cpg/sg67_16_cif.got.tgz:31760.got - 2010.04.10 22:41:39.
