data_PCOD8281560
_publ_section_title
;
Structure prediction by ZEFSAII (Michael W. Deem and Ramdas Pophale) SiO2 
 PCOD8281560
Probable space group: C M M A
;
_chemical_formula_sum "Si O2"
_cell_formula_units_Z 112
_cell_length_a 27.029881
_cell_length_b 9.868400
_cell_length_c 28.943102
_cell_angle_alpha 90.000000
_cell_angle_beta 90.000000
_cell_angle_gamma 90.000000
_cell_volume 7720.331584
_symmetry_space_group_name_H-M "C M M A"
_symmetry_group_IT_number 67
_symmetry_cell_setting 'orthorhombic'
loop_
_space_group_symop_operation_xyz
x,y,z
-x,1/2-y,z
x,-y,-z
-x,1/2+y,-z
-x,-y,-z
x,1/2+y,-z
-x,y,z
x,1/2-y,z
1/2+x,1/2+y,z
1/2-x,-y,z
1/2+x,1/2-y,-z
1/2-x,y,-z
1/2-x,1/2-y,-z
1/2+x,y,-z
1/2-x,1/2+y,z
1/2+x,-y,z
loop_
_atom_site_type_symbol
_atom_site_label
_atom_site_fract_x
_atom_site_fract_y
_atom_site_fract_z
Si Si1 0.558771 0.401810 0.358675
Si Si2 0.558864 0.098112 0.461159
Si Si3 0.941703 0.406798 0.277748
Si Si4 0.349223 0.906709 0.041461
Si Si5 0.054559 0.588837 0.907969
Si Si6 0.795924 0.094201 0.137364
Si Si7 0.603711 0.909716 0.183368
O O1 0.500000 0.403442 0.358146
O O2 0.577653 0.250000 0.346880
O O3 0.577292 0.445077 0.409908
O O4 0.579048 0.508185 0.321176
O O5 0.500000 0.090855 0.462717
O O6 0.576818 0.250000 0.472249
O O7 0.582250 0.000000 0.500000
O O8 0.928755 0.250000 0.286802
O O9 0.913912 0.466856 0.232688
O O10 0.000000 0.426830 0.270308
O O11 0.348032 0.750000 0.025965
O O12 0.405103 0.954857 0.053924
O O13 0.314114 0.930302 0.085223
O O14 0.329401 0.000000 0.000000
O O15 0.055185 0.750000 0.904665
O O16 0.069783 0.529222 0.857791
O O17 0.000000 0.534131 0.921627
O O18 0.780122 0.250000 0.143839
O O19 0.839127 0.054728 0.173438
O O20 0.750000 0.000000 0.149151
O O21 0.595818 0.750000 0.183700
#
# Coordination Sequence:
#
# PCOD8281560 Si02
#       7
#    16  16  16  16  16  16  16
#     4   8  14  23  31  42  66  97 123 150 189 229
#     4   8  13  20  29  40  56  83 120 159 194 222
#     4   9  15  22  36  57  75  93 121 154 183 214
#     4   9  18  30  43  61  82 101 122 149 180 214
#     4   8  13  23  40  59  78 101 126 149 176 213
#     4   9  18  32  47  61  77  97 121 150 184 220
#     4   8  14  25  40  58  78  96 118 151 186 217
#
# _framework density 14.507149
#
# number of rings (size 3 to 8) (size 9 to 14) (size 15 to 20)
#    0.000    3.571    0.000    3.000    0.000    3.429 
#    0.000    5.000    0.000    0.857    0.000    0.000 
#    0.000    0.000    0.000    0.000    0.000    0.714 
#
# Total GULP energy -693943.296046 kJ/mol
# GULP energy per Si atom -12391.844572 kJ/mol
# Density = 1.447413 g / cm^3
# Si number density = 14.507149 Si / 1000 Ang^3
#
#
#
# Elastic Constant Matrix: (Units=GPa)
#
#
# Indices 1 2 3 4 5 6 
#
# 1 42.5476 18.6919 15.2069 0.0000 0.0000 0.0000
# 2 18.6919 54.0033 50.1360 0.0000 0.0000 0.0000
# 3 15.2069 50.1360 104.5300 0.0000 0.0000 0.0000
# 4 0.0000 0.0000 0.0000 23.3887 0.0000 0.0000
# 5 0.0000 0.0000 0.0000 0.0000 8.5425 0.0000
# 6 0.0000 0.0000 0.0000 0.0000 0.0000 14.3759
#
#
#
# Elastic Compliance Matrix: (Units=1/GPa)
#
#
# Indices 1 2 3 4 5 6 
#
# 1 0.027779 -0.010570 0.001028 0.000000 0.000000 0.000000
# 2 -0.010570 0.037403 -0.016402 0.000000 0.000000 0.000000
# 3 0.001028 -0.016402 0.017284 0.000000 0.000000 0.000000
# 4 0.000000 0.000000 0.000000 0.042756 0.000000 0.000000
# 5 0.000000 0.000000 0.000000 0.000000 0.117061 0.000000
# 6 0.000000 0.000000 0.000000 0.000000 0.000000 0.069561
#
#
# Mechanical properties :
#
#
# Convention : Reuss Voigt Hill
#
# Bulk Modulus (GPa) = 32.70184 41.01671 36.85928
# Shear Modulus (GPa) = 13.37169 17.06451 15.21810
#
# Velocity S-wave (km/s) = 3.03930 3.43342 3.24235
# Velocity P-wave (km/s) = 5.90824 6.63722 6.28331
#
# Compressibility (1/GPa) = 0.03057932
#
# Stress axis : x y z
#
# Youngs Moduli (GPa) = 35.99846 26.73548 57.85665
#
# Poissons Ratio (x) = 0.28258 -0.05949
# Poissons Ratio (y) = 0.38049 0.94898
# Poissons Ratio (z) = -0.03702 0.43852
#
# Static dielectric constant tensor:
#      x y z
#    x 2.561030 0.000000 0.000000 
#    y 0.000000 2.682040 0.000000 
#    z 0.000000 0.000000 3.058820 
# 
# 
# High freq. dielectric constant tensor:
#      x y z
#    x 1.508780 0.000000 0.000000 
#    y 0.000000 1.532870 0.000000 
#    z 0.000000 0.000000 1.555080 
# 
# From -- ./inp_files/44902.got.cif
#   From: 2010.03.12/outbox.cif.g09.slc.cpg/sg67_23_cif.got.tgz:44902.got - 2010.04.10 22:41:39.
