data_PCOD8281194
_publ_section_title
;
Structure prediction by ZEFSAII (Michael W. Deem and Ramdas Pophale) SiO2 
 PCOD8281194
Probable space group: C M M A
;
_chemical_formula_sum "Si O2"
_cell_formula_units_Z 96
_cell_length_a 18.052024
_cell_length_b 9.193967
_cell_length_c 30.661655
_cell_angle_alpha 90.000000
_cell_angle_beta 90.000000
_cell_angle_gamma 90.000000
_cell_volume 5088.906079
_symmetry_space_group_name_H-M "C M M A"
_symmetry_group_IT_number 67
_symmetry_cell_setting 'orthorhombic'
loop_
_space_group_symop_operation_xyz
x,y,z
-x,1/2-y,z
x,-y,-z
-x,1/2+y,-z
-x,-y,-z
x,1/2+y,-z
-x,y,z
x,1/2-y,z
1/2+x,1/2+y,z
1/2-x,-y,z
1/2+x,1/2-y,-z
1/2-x,y,-z
1/2-x,1/2-y,-z
1/2+x,y,-z
1/2-x,1/2+y,z
1/2+x,-y,z
loop_
_atom_site_type_symbol
_atom_site_label
_atom_site_fract_x
_atom_site_fract_y
_atom_site_fract_z
Si Si1 0.827903 0.577882 0.128713
Si Si2 0.174131 0.080315 0.289393
Si Si3 0.584627 0.079914 0.043002
Si Si4 0.412308 0.090465 0.460233
Si Si5 0.586426 0.584340 0.202066
Si Si6 0.414635 0.921735 0.636795
O O1 0.816997 0.750000 0.131726
O O2 0.750000 0.500000 0.132887
O O3 0.865590 0.530366 0.083457
O O4 0.879782 0.527658 0.167874
O O5 0.189489 0.250000 0.297313
O O6 0.119358 0.053144 0.249379
O O7 0.250000 0.000000 0.278104
O O8 0.138194 0.013018 0.332291
O O9 0.500000 0.033845 0.052865
O O10 0.591006 0.250000 0.034417
O O11 0.614850 0.000000 0.000000
O O12 0.500000 0.099771 0.465793
O O13 0.377229 0.250000 0.463751
O O14 0.394478 0.026118 0.412358
O O15 0.376660 0.000000 0.500000
O O16 0.500000 0.553002 0.204994
O O17 0.603116 0.750000 0.187315
O O18 0.500000 0.957994 0.647524
O O19 0.400246 0.750000 0.642286
#
# Coordination Sequence:
#
# PCOD8281194 Si02
#       6
#    16  16  16  16  16  16
#     4  11  23  38  57  83 115 149 186 226 270 322
#     4  11  23  38  56  79 108 141 178 220 267 320
#     4   9  19  36  57  81 109 143 185 230 274 322
#     4   8  14  25  43  70 103 136 171 213 260 310
#     4  10  22  40  61  85 111 139 176 222 270 322
#     4   9  18  33  53  78 108 141 178 220 266 317
#
# _framework density 18.864564999999999
#
# number of rings (size 3 to 8) (size 9 to 14) (size 15 to 20)
#    0.000    2.333    0.000    3.500    0.000    7.000 
#    0.000    5.000    0.000    0.500    0.000    3.500 
#    0.000    0.000    0.000    0.000    0.000    0.000 
#
# Total GULP energy -595222.208061 kJ/mol
# GULP energy per Si atom -12400.462668 kJ/mol
# Density = 1.882163 g / cm^3
# Si number density = 18.864565 Si / 1000 Ang^3
#
#
#
# Elastic Constant Matrix: (Units=GPa)
#
#
# Indices 1 2 3 4 5 6 
#
# 1 97.0741 46.2803 56.4611 0.0000 0.0000 0.0000
# 2 46.2803 79.3178 61.6355 0.0000 0.0000 0.0000
# 3 56.4611 61.6355 135.2631 0.0000 0.0000 0.0000
# 4 0.0000 0.0000 0.0000 36.9683 0.0000 0.0000
# 5 0.0000 0.0000 0.0000 0.0000 -8.4026 0.0000
# 6 0.0000 0.0000 0.0000 0.0000 0.0000 25.3213
#
#
#
# Elastic Compliance Matrix: (Units=1/GPa)
#
#
# Indices 1 2 3 4 5 6 
#
# 1 0.015323 -0.006147 -0.003595 0.000000 0.000000 0.000000
# 2 -0.006147 0.021985 -0.007452 0.000000 0.000000 0.000000
# 3 -0.003595 -0.007452 0.012289 0.000000 0.000000 0.000000
# 4 0.000000 0.000000 0.000000 0.027050 0.000000 0.000000
# 5 0.000000 0.000000 0.000000 0.000000 -0.119011 0.000000
# 6 0.000000 0.000000 0.000000 0.000000 0.000000 0.039492
#
#
# Mechanical properties :
#
#
# Convention : Reuss Voigt Hill
#
# Bulk Modulus (GPa) = 65.75050 71.15651 68.45350
# Shear Modulus (GPa) = 136.66147 20.59595 78.62871
#
# Velocity S-wave (km/s) = 8.52061 3.30779 6.46306
# Velocity P-wave (km/s) = 11.47740 7.23811 9.59481
#
# Compressibility (1/GPa) = 0.01520901
#
# Stress axis : x y z
#
# Youngs Moduli (GPa) = 65.26130 45.48576 81.37163
#
# Poissons Ratio (x) = 0.27960 0.29254
# Poissons Ratio (y) = 0.40116 0.60638
# Poissons Ratio (z) = 0.23462 0.33896
#
# Static dielectric constant tensor:
#      x y z
#    x 3.335600 0.000000 0.000000 
#    y 0.000000 3.558890 0.000000 
#    z 0.000000 0.000000 3.621770 
# 
# 
# High freq. dielectric constant tensor:
#      x y z
#    x 1.718180 0.000000 0.000000 
#    y 0.000000 1.732680 0.000000 
#    z 0.000000 0.000000 1.747320 
# 
# From -- ./inp_files/44605.got.cif
#   From: 2010.03.12/outbox.cif.g09.slc.cpg/sg67_23_cif.got.tgz:44605.got - 2010.04.10 22:41:39.
