data_PCOD8281905
_publ_section_title
;
Structure prediction by ZEFSAII (Michael W. Deem and Ramdas Pophale) SiO2 
 PCOD8281905
Probable space group: C C C A
;
_chemical_formula_sum "Si O2"
_cell_formula_units_Z 112
_cell_length_a 17.222227
_cell_length_b 34.893287
_cell_length_c 9.754340
_cell_angle_alpha 90.000000
_cell_angle_beta 90.000000
_cell_angle_gamma 90.000000
_cell_volume 5861.774148
_symmetry_space_group_name_H-M "C C C A"
_symmetry_group_IT_number 68
_space_group.IT_coordinate_system_code '2'
_symmetry_cell_setting 'orthorhombic'
loop_
_space_group_symop_operation_xyz
x,y,z
-x,1/2-y,z
x,1/2-y,1/2-z
-x,y,1/2-z
-x,-y,-z
x,1/2+y,-z
-x,1/2+y,1/2+z
x,-y,1/2+z
1/2+x,1/2+y,z
1/2-x,-y,z
1/2+x,-y,1/2-z
1/2-x,1/2+y,1/2-z
1/2-x,1/2-y,-z
1/2+x,y,-z
1/2-x,y,1/2+z
1/2+x,1/2-y,1/2+z
loop_
_atom_site_type_symbol
_atom_site_label
_atom_site_fract_x
_atom_site_fract_y
_atom_site_fract_z
Si Si1 0.671425 0.602264 0.875736
Si Si2 0.915022 0.473903 0.817302
Si Si3 0.162661 0.514606 0.444898
Si Si4 0.083277 0.174739 0.904570
Si Si5 0.588047 0.827973 0.920133
Si Si6 0.173570 0.749223 0.411446
Si Si7 0.812659 0.399758 0.569234
O O1 0.606279 0.569961 0.853284
O O2 0.634890 0.639068 0.951502
O O3 0.709876 0.610245 0.726658
O O4 0.737291 0.590771 0.980921
O O5 0.855518 0.495526 0.713391
O O6 0.000000 0.475574 0.750000
O O7 0.903666 0.496840 0.958450
O O8 0.250000 0.500000 0.481765
O O9 0.143426 0.560056 0.447314
O O10 0.079101 0.170229 0.742024
O O11 0.120861 0.214629 0.950477
O O12 0.999533 0.172103 0.978162
O O13 0.629523 0.788719 0.960619
O O14 0.634754 0.864218 0.983820
O O15 0.193541 0.750000 0.250000
O O16 0.250000 0.750000 0.500000
#
# Coordination Sequence:
#
# PCOD8281905 Si02
#       7
#    16  16  16  16  16  16  16
#     4  10  21  35  57  80 110 142 185 226 280 331
#     4  11  24  38  58  83 113 148 187 239 291 339
#     4  11  22  39  59  82 110 148 193 234 284 342
#     4   9  18  32  55  82 109 144 182 229 273 325
#     4   9  18  33  55  82 112 139 185 230 275 327
#     4  10  19  33  56  83 110 144 182 227 271 328
#     4  10  21  35  57  81 107 146 183 231 277 332
#
# _framework density 19.106843999999999
#
# number of rings (size 3 to 8) (size 9 to 14) (size 15 to 20)
#    0.000    2.000    1.429    2.143    8.000    1.714 
#    0.000    0.000    0.000    3.429    0.000    0.000 
#    0.000    0.000    0.000    0.000    0.000    0.000 
#
# Total GULP energy -693948.272218 kJ/mol
# GULP energy per Si atom -12391.933432 kJ/mol
# Density = 1.906336 g / cm^3
# Si number density = 19.106844 Si / 1000 Ang^3
#
#
#
# Elastic Constant Matrix: (Units=GPa)
#
#
# Indices 1 2 3 4 5 6 
#
# 1 98.7894 37.9709 26.8492 0.0000 0.0000 0.0000
# 2 37.9709 130.2627 35.1692 0.0000 0.0000 0.0000
# 3 26.8492 35.1692 46.0428 0.0000 0.0000 0.0000
# 4 0.0000 0.0000 0.0000 19.7158 0.0000 0.0000
# 5 0.0000 0.0000 0.0000 0.0000 28.6283 0.0000
# 6 0.0000 0.0000 0.0000 0.0000 0.0000 28.3994
#
#
#
# Elastic Compliance Matrix: (Units=1/GPa)
#
#
# Indices 1 2 3 4 5 6 
#
# 1 0.012471 -0.002106 -0.005664 0.000000 0.000000 0.000000
# 2 -0.002106 0.010027 -0.006431 0.000000 0.000000 0.000000
# 3 -0.005664 -0.006431 0.029934 0.000000 0.000000 0.000000
# 4 0.000000 0.000000 0.000000 0.050721 0.000000 0.000000
# 5 0.000000 0.000000 0.000000 0.000000 0.034931 0.000000
# 6 0.000000 0.000000 0.000000 0.000000 0.000000 0.035212
#
#
# Mechanical properties :
#
#
# Convention : Reuss Voigt Hill
#
# Bulk Modulus (GPa) = 41.61349 52.78596 47.19972
# Shear Modulus (GPa) = 23.84281 27.02241 25.43261
#
# Velocity S-wave (km/s) = 3.53635 3.76477 3.65235
# Velocity P-wave (km/s) = 6.20492 6.82530 6.52249
#
# Compressibility (1/GPa) = 0.02403067
#
# Stress axis : x y z
#
# Youngs Moduli (GPa) = 80.18360 99.73099 33.40721
#
# Poissons Ratio (x) = 0.21006 0.18921
# Poissons Ratio (y) = 0.16888 0.21483
# Poissons Ratio (z) = 0.45413 0.64135
#
# Static dielectric constant tensor:
#      x y z
#    x 3.562990 0.000000 0.000000 
#    y 0.000000 4.374190 0.000000 
#    z 0.000000 0.000000 3.287180 
# 
# 
# High freq. dielectric constant tensor:
#      x y z
#    x 1.741500 0.000000 0.000000 
#    y 0.000000 1.759180 0.000000 
#    z 0.000000 0.000000 1.711710 
# 
# From -- ./inp_files/13616.got.cif
#   From: 2010.03.12/outbox.cif.g09.slc.cpg/sg68_7_cif.got.tgz:13616.got - 2010.04.10 23:14:56.
