data_PCOD8281542
_publ_section_title
;
Structure prediction by ZEFSAII (Michael W. Deem and Ramdas Pophale) SiO2 
 PCOD8281542
Probable space group: C M M A
;
_chemical_formula_sum "Si O2"
_cell_formula_units_Z 64
_cell_length_a 27.248439
_cell_length_b 9.952236
_cell_length_c 11.158066
_cell_angle_alpha 90.000000
_cell_angle_beta 90.000000
_cell_angle_gamma 90.000000
_cell_volume 3025.876647
_symmetry_space_group_name_H-M "C M M A"
_symmetry_group_IT_number 67
_symmetry_cell_setting 'orthorhombic'
loop_
_space_group_symop_operation_xyz
x,y,z
-x,1/2-y,z
x,-y,-z
-x,1/2+y,-z
-x,-y,-z
x,1/2+y,-z
-x,y,z
x,1/2-y,z
1/2+x,1/2+y,z
1/2-x,-y,z
1/2+x,1/2-y,-z
1/2-x,y,-z
1/2-x,1/2-y,-z
1/2+x,y,-z
1/2-x,1/2+y,z
1/2+x,-y,z
loop_
_atom_site_type_symbol
_atom_site_label
_atom_site_fract_x
_atom_site_fract_y
_atom_site_fract_z
Si Si1 0.103718 0.988002 0.641301
Si Si2 0.056434 0.250000 0.745614
Si Si3 0.706447 0.092539 0.753413
Si Si4 0.169433 0.000000 0.000000
Si Si5 0.555520 0.750000 0.233604
Si Si6 0.895036 0.750000 0.020835
O O1 0.157425 0.944789 0.683369
O O2 0.064558 0.878625 0.684389
O O3 0.103124 0.000000 0.500000
O O4 0.086735 0.126057 0.696900
O O5 0.057993 0.250000 0.891049
O O6 0.000000 0.250000 0.703056
O O7 0.718817 0.250000 0.735499
O O8 0.750000 0.000000 0.699921
O O9 0.702427 0.061040 0.894571
O O10 0.135812 0.117966 0.946864
O O11 0.500000 0.750000 0.187147
O O12 0.590985 0.750000 0.118651
#
# Coordination Sequence:
#
# PCOD8281542 Si02
#       6
#    16   8  16   8   8   8
#     4  12  26  47  69  98 143 187 232 283 337 410
#     4  12  26  42  71 109 137 179 237 285 341 406
#     4  12  27  46  71 104 137 181 230 286 355 414
#     4  12  21  42  71  96 142 182 221 282 353 414
#     4  12  24  46  73  99 139 187 229 287 353 408
#     4  12  21  42  71 102 138 180 223 286 355 408
#
# _framework density 21.150895999999999
#
# number of rings (size 3 to 8) (size 9 to 14) (size 15 to 20)
#    0.000    0.000    7.500    2.250    3.500    4.500 
#    0.000    5.000    0.000    0.000    0.000    0.000 
#    0.000    0.000    0.000    0.000    0.000    0.000 
#
# Total GULP energy -396934.524918 kJ/mol
# GULP energy per Si atom -12404.203904 kJ/mol
# Density = 2.110276 g / cm^3
# Si number density = 21.150896 Si / 1000 Ang^3
#
#
#
# Elastic Constant Matrix: (Units=GPa)
#
#
# Indices 1 2 3 4 5 6 
#
# 1 101.8104 56.1698 10.5254 0.0000 0.0000 0.0000
# 2 56.1698 200.0993 34.6201 0.0000 0.0000 0.0000
# 3 10.5254 34.6201 119.2308 0.0000 0.0000 0.0000
# 4 0.0000 0.0000 0.0000 16.2616 0.0000 0.0000
# 5 0.0000 0.0000 0.0000 0.0000 11.5922 0.0000
# 6 0.0000 0.0000 0.0000 0.0000 0.0000 35.0054
#
#
#
# Elastic Compliance Matrix: (Units=1/GPa)
#
#
# Indices 1 2 3 4 5 6 
#
# 1 0.011623 -0.003248 -0.000083 0.000000 0.000000 0.000000
# 2 -0.003248 0.006170 -0.001505 0.000000 0.000000 0.000000
# 3 -0.000083 -0.001505 0.008831 0.000000 0.000000 0.000000
# 4 0.000000 0.000000 0.000000 0.061494 0.000000 0.000000
# 5 0.000000 0.000000 0.000000 0.000000 0.086265 0.000000
# 6 0.000000 0.000000 0.000000 0.000000 0.000000 0.028567
#
#
# Mechanical properties :
#
#
# Convention : Reuss Voigt Hill
#
# Bulk Modulus (GPa) = 58.98953 69.30789 64.14871
# Shear Modulus (GPa) = 22.90714 33.89354 28.40034
#
# Velocity S-wave (km/s) = 3.29452 4.00742 3.66833
# Velocity P-wave (km/s) = 6.51323 7.36560 6.95249
#
# Compressibility (1/GPa) = 0.01695216
#
# Stress axis : x y z
#
# Youngs Moduli (GPa) = 86.03729 162.08288 113.23345
#
# Poissons Ratio (x) = 0.52650 0.00938
# Poissons Ratio (y) = 0.27948 0.17038
# Poissons Ratio (z) = 0.00713 0.24388
#
# Static dielectric constant tensor:
#      x y z
#    x 3.790180 0.000000 0.000000 
#    y 0.000000 4.190720 0.000000 
#    z 0.000000 0.000000 3.840620 
# 
# 
# High freq. dielectric constant tensor:
#      x y z
#    x 1.831160 0.000000 0.000000 
#    y 0.000000 1.853020 0.000000 
#    z 0.000000 0.000000 1.827630 
# 
# From -- ./inp_files/23435.got.cif
#   From: 2010.03.12/outbox.cif.g09.slc.cpg/sg67_12_cif.got.tgz:23435.got - 2010.04.10 22:41:39.
