data_PCOD8281893
_publ_section_title
;
Structure prediction by ZEFSAII (Michael W. Deem and Ramdas Pophale) SiO2 
 PCOD8281893
Probable space group: C C C A
;
_chemical_formula_sum "Si O2"
_cell_formula_units_Z 116
_cell_length_a 23.535578
_cell_length_b 17.563798
_cell_length_c 16.619595
_cell_angle_alpha 90.000000
_cell_angle_beta 90.000000
_cell_angle_gamma 90.000000
_cell_volume 6870.110754
_symmetry_space_group_name_H-M "C C C A"
_symmetry_group_IT_number 68
_space_group.IT_coordinate_system_code '2'
_symmetry_cell_setting 'orthorhombic'
loop_
_space_group_symop_operation_xyz
x,y,z
-x,1/2-y,z
x,1/2-y,1/2-z
-x,y,1/2-z
-x,-y,-z
x,1/2+y,-z
-x,1/2+y,1/2+z
x,-y,1/2+z
1/2+x,1/2+y,z
1/2-x,-y,z
1/2+x,-y,1/2-z
1/2-x,1/2+y,1/2-z
1/2-x,1/2-y,-z
1/2+x,y,-z
1/2-x,y,1/2+z
1/2+x,1/2-y,1/2+z
loop_
_atom_site_type_symbol
_atom_site_label
_atom_site_fract_x
_atom_site_fract_y
_atom_site_fract_z
Si Si1 0.683253 0.662072 0.031948
Si Si2 0.005002 0.606266 0.163806
Si Si3 0.895217 0.950551 0.060230
Si Si4 0.000000 0.750000 0.250000
Si Si5 0.188984 0.665449 0.526082
Si Si6 0.889960 0.569057 0.080506
Si Si7 0.307362 0.039565 0.848400
Si Si8 0.307317 0.460392 0.837689
O O1 0.666937 0.749838 0.045135
O O2 0.683976 0.619187 0.117047
O O3 0.635812 0.623321 0.975856
O O4 0.744547 0.659432 0.991308
O O5 0.044517 0.568568 0.098103
O O6 0.000000 0.560643 0.250000
O O7 0.031040 0.690548 0.188362
O O8 0.943207 0.610602 0.121892
O O9 0.857639 0.980956 0.133804
O O10 0.907214 0.014176 0.993038
O O11 0.152957 0.633733 0.450981
O O12 0.178575 0.617400 0.606227
O O13 0.859032 0.518113 0.147777
O O14 0.302625 0.059638 0.755367
O O15 0.250000 0.000000 0.881011
O O16 0.250000 0.500000 0.870391
#
# Coordination Sequence:
#
# PCOD8281893 Si02
#       8
#    16  16  16   4  16  16  16  16
#     4  10  20  33  51  75 105 138 175 218 263 315
#     4  10  21  37  52  80 110 139 177 214 268 314
#     4  10  20  34  58  77 104 137 182 219 260 313
#     4   8  24  36  56  72 120 144 164 228 272 306
#     4  10  20  33  51  75 105 138 175 218 263 315
#     4  10  20  34  58  77 104 137 182 219 260 313
#     4  10  19  33  52  75 103 138 176 218 261 308
#     4  10  19  33  52  75 103 138 176 218 261 308
#
# _framework density 16.884736
#
# number of rings (size 3 to 8) (size 9 to 14) (size 15 to 20)
#    0.414    1.655    2.759    1.241    1.931    0.552 
#    0.000    0.000    0.000    0.000    0.000    0.000 
#    0.000   13.241    0.000    0.000    0.000    0.000 
#
# Total GULP energy -718732.484325 kJ/mol
# GULP energy per Si atom -12391.939385 kJ/mol
# Density = 1.684631 g / cm^3
# Si number density = 16.884736 Si / 1000 Ang^3
#
#
#
# Elastic Constant Matrix: (Units=GPa)
#
#
# Indices 1 2 3 4 5 6 
#
# 1 70.9102 20.2159 23.5990 0.0000 0.0000 0.0000
# 2 20.2159 105.6246 31.8741 0.0000 0.0000 0.0000
# 3 23.5990 31.8741 71.9924 0.0000 0.0000 0.0000
# 4 0.0000 0.0000 0.0000 14.7456 0.0000 0.0000
# 5 0.0000 0.0000 0.0000 0.0000 24.2463 0.0000
# 6 0.0000 0.0000 0.0000 0.0000 0.0000 16.2353
#
#
#
# Elastic Compliance Matrix: (Units=1/GPa)
#
#
# Indices 1 2 3 4 5 6 
#
# 1 0.016095 -0.001718 -0.004515 0.000000 0.000000 0.000000
# 2 -0.001718 0.011111 -0.004356 0.000000 0.000000 0.000000
# 3 -0.004515 -0.004356 0.017299 0.000000 0.000000 0.000000
# 4 0.000000 0.000000 0.000000 0.067817 0.000000 0.000000
# 5 0.000000 0.000000 0.000000 0.000000 0.041243 0.000000
# 6 0.000000 0.000000 0.000000 0.000000 0.000000 0.061594
#
#
# Mechanical properties :
#
#
# Convention : Reuss Voigt Hill
#
# Bulk Modulus (GPa) = 42.87030 44.43390 43.65210
# Shear Modulus (GPa) = 20.48230 22.56798 21.52514
#
# Velocity S-wave (km/s) = 3.48669 3.65991 3.57435
# Velocity P-wave (km/s) = 6.45402 6.65079 6.55315
#
# Compressibility (1/GPa) = 0.02332617
#
# Stress axis : x y z
#
# Youngs Moduli (GPa) = 62.13194 90.00238 57.80654
#
# Poissons Ratio (x) = 0.15461 0.26101
# Poissons Ratio (y) = 0.10673 0.25181
# Poissons Ratio (z) = 0.28054 0.39206
#
# Static dielectric constant tensor:
#      x y z
#    x 3.023080 0.000000 0.000000 
#    y 0.000000 3.173000 0.000000 
#    z 0.000000 0.000000 3.069600 
# 
# 
# High freq. dielectric constant tensor:
#      x y z
#    x 1.640290 0.000000 0.000000 
#    y 0.000000 1.646140 0.000000 
#    z 0.000000 0.000000 1.655470 
# 
# From -- ./inp_files/25613.got.cif
#   From: 2010.03.12/outbox.cif.g09.slc.cpg/sg68_13_cif.got.tgz:25613.got - 2010.04.10 23:14:56.
