data_PCOD8281680
_publ_section_title
;
Structure prediction by ZEFSAII (Michael W. Deem and Ramdas Pophale) SiO2 
 PCOD8281680
Probable space group: C C C A
;
_chemical_formula_sum "Si O2"
_cell_formula_units_Z 80
_cell_length_a 13.183044
_cell_length_b 12.808700
_cell_length_c 27.240111
_cell_angle_alpha 90.000000
_cell_angle_beta 90.000000
_cell_angle_gamma 90.000000
_cell_volume 4599.701284
_symmetry_space_group_name_H-M "C C C A"
_symmetry_group_IT_number 68
_space_group.IT_coordinate_system_code '2'
_symmetry_cell_setting 'orthorhombic'
loop_
_space_group_symop_operation_xyz
x,y,z
-x,1/2-y,z
x,1/2-y,1/2-z
-x,y,1/2-z
-x,-y,-z
x,1/2+y,-z
-x,1/2+y,1/2+z
x,-y,1/2+z
1/2+x,1/2+y,z
1/2-x,-y,z
1/2+x,-y,1/2-z
1/2-x,1/2+y,1/2-z
1/2-x,1/2-y,-z
1/2+x,y,-z
1/2-x,y,1/2+z
1/2+x,1/2-y,1/2+z
loop_
_atom_site_type_symbol
_atom_site_label
_atom_site_fract_x
_atom_site_fract_y
_atom_site_fract_z
Si Si1 0.392249 0.710034 0.326760
Si Si2 0.650570 0.563246 0.328072
Si Si3 0.904178 0.605028 0.936305
Si Si4 0.250000 0.500000 0.992653
Si Si5 0.500000 0.920962 0.250000
Si Si6 0.368344 0.154989 0.570568
O O1 0.500000 0.750000 0.349843
O O2 0.327441 0.814481 0.315852
O O3 0.413311 0.648841 0.276592
O O4 0.346891 0.639050 0.370643
O O5 0.750000 0.500000 0.315627
O O6 0.616538 0.549968 0.383990
O O7 0.561332 0.516628 0.292045
O O8 0.859715 0.721650 0.939829
O O9 0.024328 0.606081 0.946358
O O10 0.847127 0.533008 0.975534
O O11 0.279779 0.402383 0.958660
#
# Coordination Sequence:
#
# PCOD8281680 Si02
#       6
#    16  16  16   8   8  16
#     4   9  15  31  54  70  98 130 164 204 248 289
#     4  10  17  29  52  79  98 123 170 207 246 299
#     4  10  19  36  52  72 102 139 169 208 248 299
#     4  12  22  30  52  80 102 138 172 204 264 298
#     4  10  17  32  56  76  93 128 165 208 256 292
#     4  10  19  35  51  72 105 133 168 218 244 290
#
# _framework density 17.392433
#
# number of rings (size 3 to 8) (size 9 to 14) (size 15 to 20)
#    0.000    2.000    7.000    3.900    0.000    0.000 
#    1.800    0.000    0.000    0.000    0.000   11.200 
#    0.000    0.000    0.000    0.000    0.000    0.000 
#
# Total GULP energy -495624.609219 kJ/mol
# GULP energy per Si atom -12390.615230 kJ/mol
# Density = 1.735285 g / cm^3
# Si number density = 17.392433 Si / 1000 Ang^3
#
#
#
# Elastic Constant Matrix: (Units=GPa)
#
#
# Indices 1 2 3 4 5 6 
#
# 1 69.7584 34.6138 36.9946 0.0000 0.0000 0.0000
# 2 34.6138 53.4648 31.2270 0.0000 0.0000 0.0000
# 3 36.9946 31.2270 113.0532 0.0000 0.0000 0.0000
# 4 0.0000 0.0000 0.0000 12.1977 0.0000 0.0000
# 5 0.0000 0.0000 0.0000 0.0000 19.7498 0.0000
# 6 0.0000 0.0000 0.0000 0.0000 0.0000 34.2592
#
#
#
# Elastic Compliance Matrix: (Units=1/GPa)
#
#
# Indices 1 2 3 4 5 6 
#
# 1 0.022533 -0.012259 -0.003987 0.000000 0.000000 0.000000
# 2 -0.012259 0.028971 -0.003991 0.000000 0.000000 0.000000
# 3 -0.003987 -0.003991 0.011252 0.000000 0.000000 0.000000
# 4 0.000000 0.000000 0.000000 0.081983 0.000000 0.000000
# 5 0.000000 0.000000 0.000000 0.000000 0.050633 0.000000
# 6 0.000000 0.000000 0.000000 0.000000 0.000000 0.029189
#
#
# Mechanical properties :
#
#
# Convention : Reuss Voigt Hill
#
# Bulk Modulus (GPa) = 44.87866 49.10524 46.99195
# Shear Modulus (GPa) = 18.35106 22.13740 20.24423
#
# Velocity S-wave (km/s) = 3.25178 3.57153 3.41540
# Velocity P-wave (km/s) = 6.32126 6.73073 6.52921
#
# Compressibility (1/GPa) = 0.02228231
#
# Stress axis : x y z
#
# Youngs Moduli (GPa) = 44.38010 34.51673 88.86940
#
# Poissons Ratio (x) = 0.42314 0.35434
# Poissons Ratio (y) = 0.54406 0.35466
# Poissons Ratio (z) = 0.17695 0.13775
#
# Static dielectric constant tensor:
#      x y z
#    x 3.022420 0.000000 0.000000 
#    y 0.000000 3.020940 0.000000 
#    z 0.000000 0.000000 3.378110 
# 
# 
# High freq. dielectric constant tensor:
#      x y z
#    x 1.641950 0.000000 0.000000 
#    y 0.000000 1.636650 0.000000 
#    z 0.000000 0.000000 1.694290 
# 
# From -- ./inp_files/50834.got.cif
#   From: 2010.03.12/outbox.cif.g09.slc.cpg/sg68_26_cif.got.tgz:50834.got - 2010.04.10 23:14:56.
