data_PCOD8281713
_publ_section_title
;
Structure prediction by ZEFSAII (Michael W. Deem and Ramdas Pophale) SiO2 
 PCOD8281713
Probable space group: C C C A
;
_chemical_formula_sum "Si O2"
_cell_formula_units_Z 72
_cell_length_a 16.637438
_cell_length_b 9.256543
_cell_length_c 22.778525
_cell_angle_alpha 90.000000
_cell_angle_beta 90.000000
_cell_angle_gamma 90.000000
_cell_volume 3508.010393
_symmetry_space_group_name_H-M "C C C A"
_symmetry_group_IT_number 68
_space_group.IT_coordinate_system_code '2'
_symmetry_cell_setting 'orthorhombic'
loop_
_space_group_symop_operation_xyz
x,y,z
-x,1/2-y,z
x,1/2-y,1/2-z
-x,y,1/2-z
-x,-y,-z
x,1/2+y,-z
-x,1/2+y,1/2+z
x,-y,1/2+z
1/2+x,1/2+y,z
1/2-x,-y,z
1/2+x,-y,1/2-z
1/2-x,1/2+y,1/2-z
1/2-x,1/2-y,-z
1/2+x,y,-z
1/2-x,y,1/2+z
1/2+x,1/2-y,1/2+z
loop_
_atom_site_type_symbol
_atom_site_label
_atom_site_fract_x
_atom_site_fract_y
_atom_site_fract_z
Si Si1 0.371638 0.410209 0.159688
Si Si2 0.000000 0.459218 0.750000
Si Si3 0.007828 0.919710 0.438857
Si Si4 0.433846 0.373482 0.853728
Si Si5 0.711037 0.207543 0.683256
O O1 0.442387 0.364143 0.206339
O O2 0.407361 0.440563 0.094947
O O3 0.331566 0.553920 0.183528
O O4 0.301199 0.290758 0.155755
O O5 0.946487 0.567147 0.711475
O O6 0.000000 0.750000 0.448924
O O7 0.000000 0.000000 0.500000
O O8 0.938883 0.991776 0.398592
O O9 0.500000 0.250000 0.869420
O O10 0.343142 0.314220 0.856057
O O11 0.719965 0.250000 0.750000
#
# Coordination Sequence:
#
# PCOD8281713 Si02
#       5
#    16   8  16  16  16
#     4  10  23  36  61 100 135 168 229 275 331 407
#     4  10  17  34  63  96 131 180 225 268 331 422
#     4  11  25  44  67  92 121 171 231 288 335 395
#     4  11  18  36  67  92 127 176 224 264 333 416
#     4  11  20  37  64 100 138 178 210 270 344 418
#
# _framework density 20.524453999999999
#
# number of rings (size 3 to 8) (size 9 to 14) (size 15 to 20)
#    0.000    1.333    6.667    1.000    0.000    3.556 
#    0.000    6.111    0.000    0.000    0.000    0.000 
#    0.000    0.000    0.000    0.000    0.000    0.000 
#
# Total GULP energy -446105.381726 kJ/mol
# GULP energy per Si atom -12391.816159 kJ/mol
# Density = 2.047774 g / cm^3
# Si number density = 20.524454 Si / 1000 Ang^3
#
#
#
# Elastic Constant Matrix: (Units=GPa)
#
#
# Indices 1 2 3 4 5 6 
#
# 1 175.9083 55.1355 69.1503 0.0000 0.0000 0.0000
# 2 55.1355 101.7452 54.1511 0.0000 0.0000 0.0000
# 3 69.1503 54.1511 145.0835 0.0000 0.0000 0.0000
# 4 0.0000 0.0000 0.0000 23.4091 0.0000 0.0000
# 5 0.0000 0.0000 0.0000 0.0000 -4.4587 0.0000
# 6 0.0000 0.0000 0.0000 0.0000 0.0000 40.8238
#
#
#
# Elastic Compliance Matrix: (Units=1/GPa)
#
#
# Indices 1 2 3 4 5 6 
#
# 1 0.007553 -0.002717 -0.002586 0.000000 0.000000 0.000000
# 2 -0.002717 0.013242 -0.003648 0.000000 0.000000 0.000000
# 3 -0.002586 -0.003648 0.009487 0.000000 0.000000 0.000000
# 4 0.000000 0.000000 0.000000 0.042718 0.000000 0.000000
# 5 0.000000 0.000000 0.000000 0.000000 -0.224280 0.000000
# 6 0.000000 0.000000 0.000000 0.000000 0.000000 0.024495
#
#
# Mechanical properties :
#
#
# Convention : Reuss Voigt Hill
#
# Bulk Modulus (GPa) = 80.76883 86.62344 83.69614
# Shear Modulus (GPa) = -47.72926 28.24152 -9.74387
#
# Velocity S-wave (km/s) = -4.82756 3.71346 -2.18123
# Velocity P-wave (km/s) = 2.89209 7.78993 5.87568
#
# Compressibility (1/GPa) = 0.01238101
#
# Stress axis : x y z
#
# Youngs Moduli (GPa) = 132.40177 75.51768 105.41247
#
# Poissons Ratio (x) = 0.20515 0.27259
# Poissons Ratio (y) = 0.35968 0.38451
# Poissons Ratio (z) = 0.34238 0.27546
#
# Static dielectric constant tensor:
#      x y z
#    x 6.370630 0.000000 0.000000 
#    y 0.000000 3.686870 0.000000 
#    z 0.000000 0.000000 3.601650 
# 
# 
# High freq. dielectric constant tensor:
#      x y z
#    x 1.800430 0.000000 0.000000 
#    y 0.000000 1.806230 0.000000 
#    z 0.000000 0.000000 1.779970 
# 
# From -- ./inp_files/39285.got.cif
#   From: 2010.03.12/outbox.cif.g09.slc.cpg/sg68_20_cif.got.tgz:39285.got - 2010.04.10 23:14:56.
