data_PCOD8281500
_publ_section_title
;
Structure prediction by ZEFSAII (Michael W. Deem and Ramdas Pophale) SiO2 
 PCOD8281500
Probable space group: C M M A
;
_chemical_formula_sum "Si O2"
_cell_formula_units_Z 88
_cell_length_a 21.708929
_cell_length_b 13.773765
_cell_length_c 12.728837
_cell_angle_alpha 90.000000
_cell_angle_beta 90.000000
_cell_angle_gamma 90.000000
_cell_volume 3806.096476
_symmetry_space_group_name_H-M "C M M A"
_symmetry_group_IT_number 67
_symmetry_cell_setting 'orthorhombic'
loop_
_space_group_symop_operation_xyz
x,y,z
-x,1/2-y,z
x,-y,-z
-x,1/2+y,-z
-x,-y,-z
x,1/2+y,-z
-x,y,z
x,1/2-y,z
1/2+x,1/2+y,z
1/2-x,-y,z
1/2+x,1/2-y,-z
1/2-x,y,-z
1/2-x,1/2-y,-z
1/2+x,y,-z
1/2-x,1/2+y,z
1/2+x,-y,z
loop_
_atom_site_type_symbol
_atom_site_label
_atom_site_fract_x
_atom_site_fract_y
_atom_site_fract_z
Si Si1 0.068994 0.893958 0.452684
Si Si2 0.931132 0.365670 0.179892
Si Si3 0.648269 0.135171 0.246844
Si Si4 0.068774 0.365440 0.947018
Si Si5 0.152662 0.855622 0.633438
Si Si6 0.250000 0.000000 0.325670
O O1 0.102396 0.888928 0.341619
O O2 0.107884 0.832806 0.536420
O O3 0.000000 0.851131 0.440700
O O4 0.066664 0.000000 0.500000
O O5 0.929639 0.250000 0.180636
O O6 0.883267 0.403854 0.267194
O O7 0.000000 0.401030 0.210169
O O8 0.913267 0.405497 0.063508
O O9 0.662653 0.250000 0.242787
O O10 0.615702 0.096538 0.140795
O O11 0.711854 0.075815 0.254619
O O12 0.069943 0.250000 0.950040
O O13 0.000000 0.401269 0.918195
O O14 0.181157 0.750000 0.663398
O O15 0.205428 0.933281 0.601963
#
# Coordination Sequence:
#
# PCOD8281500 Si02
#       6
#    16  16  16  16  16   8
#     4  11  23  41  66  96 128 154 187 248 314 365
#     4   8  15  32  61  94 123 152 193 248 308 367
#     4  11  23  41  65  89 120 164 206 247 299 358
#     4   8  15  32  61  94 123 152 193 248 308 367
#     4  11  23  41  65  89 120 164 206 247 299 358
#     4  12  26  45  59  86 124 164 213 259 290 340
#
# _framework density 23.120802000000001
#
# number of rings (size 3 to 8) (size 9 to 14) (size 15 to 20)
#    0.000    2.000    1.818    3.273    0.000    4.364 
#    0.000    4.545    0.000    6.545    0.000    0.000 
#    0.000    0.000    0.000    0.000    0.000    0.000 
#
# Total GULP energy -545414.857945 kJ/mol
# GULP energy per Si atom -12395.792226 kJ/mol
# Density = 2.306818 g / cm^3
# Si number density = 23.120802 Si / 1000 Ang^3
#
#
#
# Elastic Constant Matrix: (Units=GPa)
#
#
# Indices 1 2 3 4 5 6 
#
# 1 146.6551 51.5957 66.5454 0.0000 0.0000 0.0000
# 2 51.5957 81.9990 25.2825 0.0000 0.0000 0.0000
# 3 66.5454 25.2825 127.9272 0.0000 0.0000 0.0000
# 4 0.0000 0.0000 0.0000 28.0590 0.0000 0.0000
# 5 0.0000 0.0000 0.0000 0.0000 13.1517 0.0000
# 6 0.0000 0.0000 0.0000 0.0000 0.0000 9.2921
#
#
#
# Elastic Compliance Matrix: (Units=1/GPa)
#
#
# Indices 1 2 3 4 5 6 
#
# 1 0.010771 -0.005377 -0.004540 0.000000 0.000000 0.000000
# 2 -0.005377 0.015671 -0.000300 0.000000 0.000000 0.000000
# 3 -0.004540 -0.000300 0.010238 0.000000 0.000000 0.000000
# 4 0.000000 0.000000 0.000000 0.035639 0.000000 0.000000
# 5 0.000000 0.000000 0.000000 0.000000 0.076036 0.000000
# 6 0.000000 0.000000 0.000000 0.000000 0.000000 0.107618
#
#
# Mechanical properties :
#
#
# Convention : Reuss Voigt Hill
#
# Bulk Modulus (GPa) = 61.55640 71.49204 66.52422
# Shear Modulus (GPa) = 17.74167 24.31107 21.02637
#
# Velocity S-wave (km/s) = 2.77311 3.24617 3.01892
# Velocity P-wave (km/s) = 6.07743 6.71106 6.40209
#
# Compressibility (1/GPa) = 0.01624526
#
# Stress axis : x y z
#
# Youngs Moduli (GPa) = 92.84573 63.81099 97.67710
#
# Poissons Ratio (x) = 0.34313 0.44345
# Poissons Ratio (y) = 0.49926 0.02930
# Poissons Ratio (z) = 0.42151 0.01914
#
# Static dielectric constant tensor:
#      x y z
#    x 4.255510 0.000000 0.000000 
#    y 0.000000 4.291130 0.000000 
#    z 0.000000 0.000000 4.385040 
# 
# 
# High freq. dielectric constant tensor:
#      x y z
#    x 1.895440 0.000000 0.000000 
#    y 0.000000 1.935680 0.000000 
#    z 0.000000 0.000000 1.905700 
# 
# From -- ./inp_files/21745.got.cif
#   From: 2010.03.12/outbox.cif.g09.slc.cpg/sg67_11_cif.got.tgz:21745.got - 2010.04.10 22:41:39.
