data_PCOD8281083
_publ_section_title
;
Structure prediction by ZEFSAII (Michael W. Deem and Ramdas Pophale) SiO2 
 PCOD8281083
Probable space group: C M M A
;
_chemical_formula_sum "Si O2"
_cell_formula_units_Z 72
_cell_length_a 15.603299
_cell_length_b 9.002761
_cell_length_c 25.140136
_cell_angle_alpha 90.000000
_cell_angle_beta 90.000000
_cell_angle_gamma 90.000000
_cell_volume 3531.504585
_symmetry_space_group_name_H-M "C M M A"
_symmetry_group_IT_number 67
_symmetry_cell_setting 'orthorhombic'
loop_
_space_group_symop_operation_xyz
x,y,z
-x,1/2-y,z
x,-y,-z
-x,1/2+y,-z
-x,-y,-z
x,1/2+y,-z
-x,y,z
x,1/2-y,z
1/2+x,1/2+y,z
1/2-x,-y,z
1/2+x,1/2-y,-z
1/2-x,y,-z
1/2-x,1/2-y,-z
1/2+x,y,-z
1/2-x,1/2+y,z
1/2+x,-y,z
loop_
_atom_site_type_symbol
_atom_site_label
_atom_site_fract_x
_atom_site_fract_y
_atom_site_fract_z
Si Si1 0.902248 0.912169 0.650854
Si Si2 0.662360 0.076797 0.760514
Si Si3 0.397561 0.585647 0.551509
Si Si4 0.843317 0.928341 0.879391
Si Si5 0.000000 0.429949 0.942195
O O1 0.857694 0.750000 0.648327
O O2 0.898504 0.973555 0.711678
O O3 0.000000 0.896142 0.634541
O O4 0.859374 0.016312 0.606233
O O5 0.678531 0.250000 0.761041
O O6 0.627689 0.032618 0.818861
O O7 0.750000 0.000000 0.747255
O O8 0.362479 0.500000 0.500000
O O9 0.500000 0.586721 0.552011
O O10 0.360190 0.750000 0.548035
O O11 0.840932 0.750000 0.889958
O O12 0.750000 0.000000 0.891531
O O13 0.913949 0.008884 0.914944
O O14 0.000000 0.250000 0.943106
O O15 0.000000 0.500000 0.000000
#
# Coordination Sequence:
#
# PCOD8281083 Si02
#       5
#    16  16  16  16   8
#     4   9  17  29  47  72 100 133 174 217 266 325
#     4   9  19  34  55  79 109 146 183 223 275 335
#     4   9  16  26  41  63  93 128 167 214 268 324
#     4  10  21  40  65  93 127 166 207 252 303 360
#     4  12  26  44  66  96 128 164 209 254 303 356
#
# _framework density 20.387910999999999
#
# number of rings (size 3 to 8) (size 9 to 14) (size 15 to 20)
#    0.000    2.444    0.000    2.333    1.556    4.889 
#    0.000    2.222    0.000    0.667    0.000    4.667 
#    0.000    0.000    0.000    0.000    0.000    0.000 
#
# Total GULP energy -446000.091094 kJ/mol
# GULP energy per Si atom -12388.891419 kJ/mol
# Density = 2.034151 g / cm^3
# Si number density = 20.387911 Si / 1000 Ang^3
#
#
#
# Elastic Constant Matrix: (Units=GPa)
#
#
# Indices 1 2 3 4 5 6 
#
# 1 63.4529 47.2014 57.9201 0.0000 0.0000 0.0000
# 2 47.2014 128.0892 88.9313 0.0000 0.0000 0.0000
# 3 57.9201 88.9313 185.6179 0.0000 0.0000 0.0000
# 4 0.0000 0.0000 0.0000 34.8282 0.0000 0.0000
# 5 0.0000 0.0000 0.0000 0.0000 -7.4562 0.0000
# 6 0.0000 0.0000 0.0000 0.0000 0.0000 25.4126
#
#
#
# Elastic Compliance Matrix: (Units=1/GPa)
#
#
# Indices 1 2 3 4 5 6 
#
# 1 0.024418 -0.005556 -0.004957 0.000000 0.000000 0.000000
# 2 -0.005556 0.012963 -0.004477 0.000000 0.000000 0.000000
# 3 -0.004957 -0.004477 0.009079 0.000000 0.000000 0.000000
# 4 0.000000 0.000000 0.000000 0.028712 0.000000 0.000000
# 5 0.000000 0.000000 0.000000 0.000000 -0.134117 0.000000
# 6 0.000000 0.000000 0.000000 0.000000 0.000000 0.039351
#
#
# Mechanical properties :
#
#
# Convention : Reuss Voigt Hill
#
# Bulk Modulus (GPa) = 60.68285 85.02952 72.85619
# Shear Modulus (GPa) = 314.87163 22.76406 168.81785
#
# Velocity S-wave (km/s) = 12.44089 3.34510 9.10948
# Velocity P-wave (km/s) = 15.36868 7.53100 12.10191
#
# Compressibility (1/GPa) = 0.01647912
#
# Stress axis : x y z
#
# Youngs Moduli (GPa) = 40.95336 77.14379 110.14228
#
# Poissons Ratio (x) = 0.42864 0.54601
# Poissons Ratio (y) = 0.22755 0.49309
# Poissons Ratio (z) = 0.20302 0.34536
#
# Static dielectric constant tensor:
#      x y z
#    x 3.278780 0.000000 0.000000 
#    y 0.000000 3.852910 0.000000 
#    z 0.000000 0.000000 4.100790 
# 
# 
# High freq. dielectric constant tensor:
#      x y z
#    x 1.764020 0.000000 0.000000 
#    y 0.000000 1.800550 0.000000 
#    z 0.000000 0.000000 1.814930 
# 
# From -- ./inp_files/40513.got.cif
#   From: 2010.03.12/outbox.cif.g09.slc.cpg/sg67_21_cif.got.tgz:40513.got - 2010.04.10 22:41:39.
