data_PCOD8281235
_publ_section_title
;
Structure prediction by ZEFSAII (Michael W. Deem and Ramdas Pophale) SiO2 
 PCOD8281235
Probable space group: C M M A
;
_chemical_formula_sum "Si O2"
_cell_formula_units_Z 80
_cell_length_a 26.476659
_cell_length_b 9.103180
_cell_length_c 16.885755
_cell_angle_alpha 90.000000
_cell_angle_beta 90.000000
_cell_angle_gamma 90.000000
_cell_volume 4069.834941
_symmetry_space_group_name_H-M "C M M A"
_symmetry_group_IT_number 67
_symmetry_cell_setting 'orthorhombic'
loop_
_space_group_symop_operation_xyz
x,y,z
-x,1/2-y,z
x,-y,-z
-x,1/2+y,-z
-x,-y,-z
x,1/2+y,-z
-x,y,z
x,1/2-y,z
1/2+x,1/2+y,z
1/2-x,-y,z
1/2+x,1/2-y,-z
1/2-x,y,-z
1/2-x,1/2-y,-z
1/2+x,y,-z
1/2-x,1/2+y,z
1/2+x,-y,z
loop_
_atom_site_type_symbol
_atom_site_label
_atom_site_fract_x
_atom_site_fract_y
_atom_site_fract_z
Si Si1 0.700447 0.750000 0.888172
Si Si2 0.397258 0.072813 0.418117
Si Si3 0.817440 0.250000 0.066020
Si Si4 0.801958 0.415503 0.348882
Si Si5 0.442857 0.578035 0.273098
Si Si6 0.846630 0.475493 0.185098
O O1 0.759164 0.750000 0.908147
O O2 0.683932 0.621399 0.830934
O O3 0.672245 0.750000 0.972553
O O4 0.397634 0.250000 0.422021
O O5 0.414705 0.000000 0.500000
O O6 0.341842 0.013375 0.396688
O O7 0.437060 0.013810 0.353717
O O8 0.844493 0.390158 0.102572
O O9 0.798089 0.250000 0.384282
O O10 0.750000 0.500000 0.358143
O O11 0.818208 0.397096 0.257515
O O12 0.500000 0.561799 0.242218
O O13 0.428874 0.750000 0.287161
O O14 0.405684 0.506409 0.207495
#
# Coordination Sequence:
#
# PCOD8281235 Si02
#       6
#     8  16   8  16  16  16
#     4  11  24  32  59  89 126 161 197 241 297 361
#     4  11  23  40  61  89 124 155 194 247 301 360
#     4  11  20  40  55  87 124 165 199 235 297 359
#     4  11  22  36  58  85 119 165 209 248 295 355
#     4  10  22  42  66  87 113 157 206 252 305 356
#     4  11  21  37  58  86 120 159 201 253 294 357
#
# _framework density 19.656818000000001
#
# number of rings (size 3 to 8) (size 9 to 14) (size 15 to 20)
#    0.000    1.200    2.000    6.000    7.000    2.800 
#    0.000    2.000    0.000    3.600    0.000    0.000 
#    0.000    0.000    0.000    0.000    0.000    0.000 
#
# Total GULP energy -495854.891122 kJ/mol
# GULP energy per Si atom -12396.372278 kJ/mol
# Density = 1.961208 g / cm^3
# Si number density = 19.656818 Si / 1000 Ang^3
#
#
#
# Elastic Constant Matrix: (Units=GPa)
#
#
# Indices 1 2 3 4 5 6 
#
# 1 101.2157 23.2854 22.2928 0.0000 0.0000 0.0000
# 2 23.2854 121.3690 22.9228 0.0000 0.0000 0.0000
# 3 22.2928 22.9228 86.8075 0.0000 0.0000 0.0000
# 4 0.0000 0.0000 0.0000 19.8661 0.0000 0.0000
# 5 0.0000 0.0000 0.0000 0.0000 17.7562 0.0000
# 6 0.0000 0.0000 0.0000 0.0000 0.0000 100.5492
#
#
#
# Elastic Compliance Matrix: (Units=1/GPa)
#
#
# Indices 1 2 3 4 5 6 
#
# 1 0.010768 -0.001625 -0.002336 0.000000 0.000000 0.000000
# 2 -0.001625 0.008917 -0.001937 0.000000 0.000000 0.000000
# 3 -0.002336 -0.001937 0.012631 0.000000 0.000000 0.000000
# 4 0.000000 0.000000 0.000000 0.050337 0.000000 0.000000
# 5 0.000000 0.000000 0.000000 0.000000 0.056318 0.000000
# 6 0.000000 0.000000 0.000000 0.000000 0.000000 0.009945
#
#
# Mechanical properties :
#
#
# Convention : Reuss Voigt Hill
#
# Bulk Modulus (GPa) = 48.73381 49.59935 49.16658
# Shear Modulus (GPa) = 29.84112 43.69372 36.76742
#
# Velocity S-wave (km/s) = 3.90051 4.71980 4.32958
# Velocity P-wave (km/s) = 6.71800 7.41549 7.07534
#
# Compressibility (1/GPa) = 0.02051964
#
# Stress axis : x y z
#
# Youngs Moduli (GPa) = 92.86575 112.14579 79.16819
#
# Poissons Ratio (x) = 0.18220 0.18496
# Poissons Ratio (y) = 0.15088 0.15338
# Poissons Ratio (z) = 0.21697 0.21727
#
# Static dielectric constant tensor:
#      x y z
#    x 3.543130 0.000000 0.000000 
#    y 0.000000 3.635110 0.000000 
#    z 0.000000 0.000000 3.645290 
# 
# 
# High freq. dielectric constant tensor:
#      x y z
#    x 1.756080 0.000000 0.000000 
#    y 0.000000 1.779850 0.000000 
#    z 0.000000 0.000000 1.758940 
# 
# From -- ./inp_files/35815.got.cif
#   From: 2010.03.12/outbox.cif.g09.slc.cpg/sg67_18_cif.got.tgz:35815.got - 2010.04.10 22:41:39.
