data_PCOD8281990
_publ_section_title
;
Structure prediction by ZEFSAII (Michael W. Deem and Ramdas Pophale) SiO2 
 PCOD8281990
Probable space group: C C C A
;
_chemical_formula_sum "Si O2"
_cell_formula_units_Z 80
_cell_length_a 14.000448
_cell_length_b 13.781979
_cell_length_c 22.856510
_cell_angle_alpha 90.000000
_cell_angle_beta 90.000000
_cell_angle_gamma 90.000000
_cell_volume 4410.252295
_symmetry_space_group_name_H-M "C C C A"
_symmetry_group_IT_number 68
_space_group.IT_coordinate_system_code '2'
_symmetry_cell_setting 'orthorhombic'
loop_
_space_group_symop_operation_xyz
x,y,z
-x,1/2-y,z
x,1/2-y,1/2-z
-x,y,1/2-z
-x,-y,-z
x,1/2+y,-z
-x,1/2+y,1/2+z
x,-y,1/2+z
1/2+x,1/2+y,z
1/2-x,-y,z
1/2+x,-y,1/2-z
1/2-x,1/2+y,1/2-z
1/2-x,1/2-y,-z
1/2+x,y,-z
1/2-x,y,1/2+z
1/2+x,1/2-y,1/2+z
loop_
_atom_site_type_symbol
_atom_site_label
_atom_site_fract_x
_atom_site_fract_y
_atom_site_fract_z
Si Si1 0.344807 0.750000 0.750000
Si Si2 0.058770 0.963073 0.126784
Si Si3 0.075856 0.666108 0.058808
Si Si4 0.712132 0.703653 0.625720
Si Si5 0.000000 0.598426 0.250000
Si Si6 0.084993 0.171052 0.074985
O O1 0.280055 0.782944 0.695692
O O2 0.412894 0.835874 0.773246
O O3 0.152847 0.896416 0.113115
O O4 0.035793 0.964840 0.195697
O O5 0.968203 0.927982 0.089404
O O6 0.068760 0.074184 0.111105
O O7 0.165559 0.702646 0.095624
O O8 0.000000 0.750000 0.060391
O O9 0.102503 0.641728 0.992251
O O10 0.816865 0.711083 0.599832
O O11 0.000000 0.250000 0.083121
#
# Coordination Sequence:
#
# PCOD8281990 Si02
#       6
#     8  16  16  16   8  16
#     4   9  16  32  61  86 104 128 187 246 275 308
#     4  10  19  36  60  85 105 144 191 232 276 321
#     4   9  18  35  61  85 109 139 190 241 273 316
#     4  10  19  36  60  85 105 144 191 232 276 321
#     4   9  16  32  61  86 104 128 187 246 275 308
#     4  11  23  37  51  81 123 155 176 215 281 344
#
# _framework density 18.139551000000001
#
# number of rings (size 3 to 8) (size 9 to 14) (size 15 to 20)
#    0.000    2.200    2.000    1.800    0.000    0.000 
#    3.600    3.000    0.000    0.000    0.000    0.000 
#    0.000    0.000    0.000    0.000    0.000    0.000 
#
# Total GULP energy -495758.781891 kJ/mol
# GULP energy per Si atom -12393.969547 kJ/mol
# Density = 1.809826 g / cm^3
# Si number density = 18.139551 Si / 1000 Ang^3
#
#
#
# Elastic Constant Matrix: (Units=GPa)
#
#
# Indices 1 2 3 4 5 6 
#
# 1 103.2325 17.8785 55.5611 0.0000 0.0000 0.0000
# 2 17.8785 32.0060 23.1294 0.0000 0.0000 0.0000
# 3 55.5611 23.1294 106.7498 0.0000 0.0000 0.0000
# 4 0.0000 0.0000 0.0000 29.3810 0.0000 0.0000
# 5 0.0000 0.0000 0.0000 0.0000 36.2667 0.0000
# 6 0.0000 0.0000 0.0000 0.0000 0.0000 20.2062
#
#
#
# Elastic Compliance Matrix: (Units=1/GPa)
#
#
# Indices 1 2 3 4 5 6 
#
# 1 0.013689 -0.002962 -0.006483 0.000000 0.000000 0.000000
# 2 -0.002962 0.037685 -0.006624 0.000000 0.000000 0.000000
# 3 -0.006483 -0.006624 0.014177 0.000000 0.000000 0.000000
# 4 0.000000 0.000000 0.000000 0.034036 0.000000 0.000000
# 5 0.000000 0.000000 0.000000 0.000000 0.027574 0.000000
# 6 0.000000 0.000000 0.000000 0.000000 0.000000 0.049490
#
#
# Mechanical properties :
#
#
# Convention : Reuss Voigt Hill
#
# Bulk Modulus (GPa) = 29.92720 48.34736 39.13728
# Shear Modulus (GPa) = 22.73494 26.86539 24.80017
#
# Velocity S-wave (km/s) = 3.54409 3.85260 3.70156
# Velocity P-wave (km/s) = 5.76902 6.81916 6.31595
#
# Compressibility (1/GPa) = 0.03341442
#
# Stress axis : x y z
#
# Youngs Moduli (GPa) = 73.05060 26.53562 70.53544
#
# Poissons Ratio (x) = 0.07859 0.45730
# Poissons Ratio (y) = 0.21634 0.46721
# Poissons Ratio (z) = 0.47360 0.17577
#
# Static dielectric constant tensor:
#      x y z
#    x 4.595710 0.000000 0.000000 
#    y 0.000000 3.557860 0.000000 
#    z 0.000000 0.000000 3.780410 
# 
# 
# High freq. dielectric constant tensor:
#      x y z
#    x 1.690320 0.000000 0.000000 
#    y 0.000000 1.684930 0.000000 
#    z 0.000000 0.000000 1.719140 
# 
# From -- ./inp_files/44164.got.cif
#   From: 2010.03.12/outbox.cif.g09.slc.cpg/sg68_23_cif.got.tgz:44164.got - 2010.04.10 23:14:56.
