data_PCOD8281822
_publ_section_title
;
Structure prediction by ZEFSAII (Michael W. Deem and Ramdas Pophale) SiO2 
 PCOD8281822
Probable space group: C C C A
;
_chemical_formula_sum "Si O2"
_cell_formula_units_Z 120
_cell_length_a 24.507400
_cell_length_b 12.223076
_cell_length_c 18.462200
_cell_angle_alpha 90.000000
_cell_angle_beta 90.000000
_cell_angle_gamma 90.000000
_cell_volume 5530.459326
_symmetry_space_group_name_H-M "C C C A"
_symmetry_group_IT_number 68
_space_group.IT_coordinate_system_code '2'
_symmetry_cell_setting 'orthorhombic'
loop_
_space_group_symop_operation_xyz
x,y,z
-x,1/2-y,z
x,1/2-y,1/2-z
-x,y,1/2-z
-x,-y,-z
x,1/2+y,-z
-x,1/2+y,1/2+z
x,-y,1/2+z
1/2+x,1/2+y,z
1/2-x,-y,z
1/2+x,-y,1/2-z
1/2-x,1/2+y,1/2-z
1/2-x,1/2-y,-z
1/2+x,y,-z
1/2-x,y,1/2+z
1/2+x,1/2-y,1/2+z
loop_
_atom_site_type_symbol
_atom_site_label
_atom_site_fract_x
_atom_site_fract_y
_atom_site_fract_z
Si Si1 0.551668 0.970325 0.852235
Si Si2 0.097108 0.760626 0.395519
Si Si3 0.293719 0.712745 0.440224
Si Si4 0.750000 0.500000 0.376697
Si Si5 0.889360 0.414435 0.025471
Si Si6 0.571397 0.030020 0.188200
Si Si7 0.789599 0.276071 0.831850
Si Si8 0.858940 0.911077 0.578293
O O1 0.561959 0.850006 0.887143
O O2 0.488318 0.996566 0.842347
O O3 0.579523 0.978767 0.773988
O O4 0.575463 0.068136 0.902023
O O5 0.086086 0.819423 0.473051
O O6 0.083283 0.844398 0.331137
O O7 0.161880 0.738843 0.386031
O O8 0.250000 0.750000 0.500000
O O9 0.323780 0.598909 0.458641
O O10 0.264120 0.712932 0.362011
O O11 0.351421 0.782569 0.435814
O O12 0.779375 0.593785 0.329779
O O13 0.795716 0.447217 0.426961
O O14 0.893848 0.530751 0.984058
O O15 0.613772 0.942149 0.154986
O O16 0.803652 0.250000 0.750000
#
# Coordination Sequence:
#
# PCOD8281822 Si02
#       8
#    16  16  16   8  16  16  16  16
#     4  11  24  40  67  98 129 166 226 267 325 389
#     4  11  21  41  64  92 130 168 213 274 328 379
#     4  11  22  41  60  87 128 170 215 262 332 398
#     4  10  18  38  60  80 122 166 204 268 338 386
#     4  11  22  39  63  95 126 168 212 271 323 390
#     4  10  22  43  66  94 129 174 212 274 326 384
#     4  11  22  37  59  91 122 166 224 265 323 400
#     4  10  21  39  64  84 126 170 211 263 333 378
#
# _framework density 21.698018000000001
#
# number of rings (size 3 to 8) (size 9 to 14) (size 15 to 20)
#    0.000    1.333    4.000    3.200    0.000    5.333 
#    0.000    3.333    0.000    1.600    0.000    0.000 
#    0.000    0.000    0.000    0.000    0.000    0.000 
#
# Total GULP energy -743561.811933 kJ/mol
# GULP energy per Si atom -12392.696866 kJ/mol
# Density = 2.164863 g / cm^3
# Si number density = 21.698018 Si / 1000 Ang^3
#
#
#
# Elastic Constant Matrix: (Units=GPa)
#
#
# Indices 1 2 3 4 5 6 
#
# 1 69.6625 15.1111 42.5355 0.0000 0.0000 0.0000
# 2 15.1111 49.5037 42.0093 0.0000 0.0000 0.0000
# 3 42.5355 42.0093 138.5638 0.0000 0.0000 0.0000
# 4 0.0000 0.0000 0.0000 25.5713 0.0000 0.0000
# 5 0.0000 0.0000 0.0000 0.0000 27.7475 0.0000
# 6 0.0000 0.0000 0.0000 0.0000 0.0000 31.1343
#
#
#
# Elastic Compliance Matrix: (Units=1/GPa)
#
#
# Indices 1 2 3 4 5 6 
#
# 1 0.017708 -0.001067 -0.005112 0.000000 0.000000 0.000000
# 2 -0.001067 0.027262 -0.007938 0.000000 0.000000 0.000000
# 3 -0.005112 -0.007938 0.011193 0.000000 0.000000 0.000000
# 4 0.000000 0.000000 0.000000 0.039106 0.000000 0.000000
# 5 0.000000 0.000000 0.000000 0.000000 0.036039 0.000000
# 6 0.000000 0.000000 0.000000 0.000000 0.000000 0.032119
#
#
# Mechanical properties :
#
#
# Convention : Reuss Voigt Hill
#
# Bulk Modulus (GPa) = 35.80531 50.78240 43.29386
# Shear Modulus (GPa) = 24.87918 27.42891 26.15404
#
# Velocity S-wave (km/s) = 3.38984 3.55930 3.47560
# Velocity P-wave (km/s) = 5.64436 6.35189 6.00855
#
# Compressibility (1/GPa) = 0.02792882
#
# Stress axis : x y z
#
# Youngs Moduli (GPa) = 56.47174 36.68075 89.34306
#
# Poissons Ratio (x) = 0.03914 0.45676
# Poissons Ratio (y) = 0.06025 0.70918
# Poissons Ratio (z) = 0.28871 0.29116
#
# Static dielectric constant tensor:
#      x y z
#    x 3.981040 0.000000 0.000000 
#    y 0.000000 4.343960 0.000000 
#    z 0.000000 0.000000 3.850830 
# 
# 
# High freq. dielectric constant tensor:
#      x y z
#    x 1.852920 0.000000 0.000000 
#    y 0.000000 1.837070 0.000000 
#    z 0.000000 0.000000 1.850090 
# 
# From -- ./inp_files/40948.got.cif
#   From: 2010.03.12/outbox.cif.g09.slc.cpg/sg68_21_cif.got.tgz:40948.got - 2010.04.10 23:14:56.
