data_PCOD8281891
_publ_section_title
;
Structure prediction by ZEFSAII (Michael W. Deem and Ramdas Pophale) SiO2 
 PCOD8281891
Probable space group: C C C A
;
_chemical_formula_sum "Si O2"
_cell_formula_units_Z 72
_cell_length_a 19.861747
_cell_length_b 8.396435
_cell_length_c 21.212986
_cell_angle_alpha 90.000000
_cell_angle_beta 90.000000
_cell_angle_gamma 90.000000
_cell_volume 3537.644442
_symmetry_space_group_name_H-M "C C C A"
_symmetry_group_IT_number 68
_space_group.IT_coordinate_system_code '2'
_symmetry_cell_setting 'orthorhombic'
loop_
_space_group_symop_operation_xyz
x,y,z
-x,1/2-y,z
x,1/2-y,1/2-z
-x,y,1/2-z
-x,-y,-z
x,1/2+y,-z
-x,1/2+y,1/2+z
x,-y,1/2+z
1/2+x,1/2+y,z
1/2-x,-y,z
1/2+x,-y,1/2-z
1/2-x,1/2+y,1/2-z
1/2-x,1/2-y,-z
1/2+x,y,-z
1/2-x,y,1/2+z
1/2+x,1/2-y,1/2+z
loop_
_atom_site_type_symbol
_atom_site_label
_atom_site_fract_x
_atom_site_fract_y
_atom_site_fract_z
Si Si1 0.176572 0.934175 0.446466
Si Si2 0.122465 0.593035 0.181211
Si Si3 0.623668 0.407627 0.064117
Si Si4 0.175299 0.558457 0.308037
Si Si5 0.500000 0.250000 0.377119
O O1 0.150775 0.004997 0.379190
O O2 0.173904 0.742842 0.444886
O O3 0.250000 0.000000 0.462351
O O4 0.125528 0.986493 0.501748
O O5 0.130707 0.498579 0.247405
O O6 0.168961 0.750709 0.186771
O O7 0.044661 0.638546 0.168752
O O8 0.648075 0.510890 0.125297
O O9 0.547377 0.352538 0.076937
O O10 0.250000 0.500000 0.295349
#
# Coordination Sequence:
#
# PCOD8281891 Si02
#       5
#    16  16  16  16   8
#     4  10  19  33  50  76 103 137 173 212 264 304
#     4   9  19  31  53  73 100 134 167 217 252 308
#     4  10  21  32  53  73 104 138 169 218 252 307
#     4   9  17  31  47  73  99 126 164 207 255 295
#     4   8  18  35  50  76 100 133 180 208 260 299
#
# _framework density 20.352525
#
# number of rings (size 3 to 8) (size 9 to 14) (size 15 to 20)
#    0.000    3.111    0.000    2.000    0.000   12.444 
#    0.000    0.000    0.000    0.000    0.000    0.000 
#    0.000   64.000    0.000    0.000    0.000    0.000 
#
# Total GULP energy -445984.525499 kJ/mol
# GULP energy per Si atom -12388.459042 kJ/mol
# Density = 2.030620 g / cm^3
# Si number density = 20.352525 Si / 1000 Ang^3
#
#
#
# Elastic Constant Matrix: (Units=GPa)
#
#
# Indices 1 2 3 4 5 6 
#
# 1 141.5457 17.4626 52.2632 0.0000 0.0000 0.0000
# 2 17.4626 19.1434 22.6351 0.0000 0.0000 0.0000
# 3 52.2632 22.6351 221.1352 0.0000 0.0000 0.0000
# 4 0.0000 0.0000 0.0000 24.2126 0.0000 0.0000
# 5 0.0000 0.0000 0.0000 0.0000 25.3081 0.0000
# 6 0.0000 0.0000 0.0000 0.0000 0.0000 22.3471
#
#
#
# Elastic Compliance Matrix: (Units=1/GPa)
#
#
# Indices 1 2 3 4 5 6 
#
# 1 0.008301 -0.005975 -0.001350 0.000000 0.000000 0.000000
# 2 -0.005975 0.063732 -0.005111 0.000000 0.000000 0.000000
# 3 -0.001350 -0.005111 0.005364 0.000000 0.000000 0.000000
# 4 0.000000 0.000000 0.000000 0.041301 0.000000 0.000000
# 5 0.000000 0.000000 0.000000 0.000000 0.039513 0.000000
# 6 0.000000 0.000000 0.000000 0.000000 0.000000 0.044749
#
#
# Mechanical properties :
#
#
# Convention : Reuss Voigt Hill
#
# Bulk Modulus (GPa) = 19.03923 62.94956 40.99439
# Shear Modulus (GPa) = 20.37985 33.67112 27.02548
#
# Velocity S-wave (km/s) = 3.16783 4.07184 3.64795
# Velocity P-wave (km/s) = 4.77025 7.28720 6.15867
#
# Compressibility (1/GPa) = 0.05252315
#
# Stress axis : x y z
#
# Youngs Moduli (GPa) = 120.47398 15.69076 186.41434
#
# Poissons Ratio (x) = 0.09376 0.25168
# Poissons Ratio (y) = 0.71988 0.95282
# Poissons Ratio (z) = 0.16265 0.08020
#
# Static dielectric constant tensor:
#      x y z
#    x 3.501950 0.000000 0.000000 
#    y 0.000000 3.105670 0.000000 
#    z 0.000000 0.000000 4.840320 
# 
# 
# High freq. dielectric constant tensor:
#      x y z
#    x 1.786600 0.000000 0.000000 
#    y 0.000000 1.727170 0.000000 
#    z 0.000000 0.000000 1.833890 
# 
# From -- ./inp_files/40090.got.cif
#   From: 2010.03.12/outbox.cif.g09.slc.cpg/sg68_21_cif.got.tgz:40090.got - 2010.04.10 23:14:56.
