data_PCOD8281964
_publ_section_title
;
Structure prediction by ZEFSAII (Michael W. Deem and Ramdas Pophale) SiO2 
 PCOD8281964
Probable space group: C C C A
;
_chemical_formula_sum "Si O2"
_cell_formula_units_Z 84
_cell_length_a 23.667363
_cell_length_b 9.809897
_cell_length_c 18.047625
_cell_angle_alpha 90.000000
_cell_angle_beta 90.000000
_cell_angle_gamma 90.000000
_cell_volume 4190.196385
_symmetry_space_group_name_H-M "C C C A"
_symmetry_group_IT_number 68
_space_group.IT_coordinate_system_code '2'
_symmetry_cell_setting 'orthorhombic'
loop_
_space_group_symop_operation_xyz
x,y,z
-x,1/2-y,z
x,1/2-y,1/2-z
-x,y,1/2-z
-x,-y,-z
x,1/2+y,-z
-x,1/2+y,1/2+z
x,-y,1/2+z
1/2+x,1/2+y,z
1/2-x,-y,z
1/2+x,-y,1/2-z
1/2-x,1/2+y,1/2-z
1/2-x,1/2-y,-z
1/2+x,y,-z
1/2-x,y,1/2+z
1/2+x,1/2-y,1/2+z
loop_
_atom_site_type_symbol
_atom_site_label
_atom_site_fract_x
_atom_site_fract_y
_atom_site_fract_z
Si Si1 0.580468 0.534201 0.178311
Si Si2 0.225765 0.646745 0.185035
Si Si3 0.661798 0.748170 0.338606
Si Si4 0.111456 0.468239 0.660245
Si Si5 0.500000 0.750000 0.250000
Si Si6 0.501987 0.402309 0.430691
O O1 0.634653 0.606606 0.137550
O O2 0.598954 0.453411 0.251852
O O3 0.537614 0.656169 0.197344
O O4 0.551543 0.429077 0.122502
O O5 0.209907 0.750000 0.250000
O O6 0.250000 0.500000 0.214505
O O7 0.273993 0.718718 0.132635
O O8 0.167677 0.619151 0.140449
O O9 0.667205 0.750000 0.250000
O O10 0.620407 0.625801 0.362552
O O11 0.059527 0.414073 0.614324
O O12 0.500000 0.250000 0.461757
O O13 0.500000 0.500000 0.500000
#
# Coordination Sequence:
#
# PCOD8281964 Si02
#       6
#    16  16  16  16   4  16
#     4  11  19  35  64  91 121 155 205 243 306 370
#     4   9  18  31  54  91 128 153 188 241 303 365
#     4   8  15  31  58  93 115 156 187 230 297 358
#     4  10  19  35  60  89 123 151 189 250 301 352
#     4  12  16  32  66  88 116 160 188 252 290 372
#     4  12  29  42  57  84 118 164 208 254 308 359
#
# _framework density 20.046793000000001
#
# number of rings (size 3 to 8) (size 9 to 14) (size 15 to 20)
#    0.000    1.905    4.762    1.143    6.667    0.762 
#    0.000    0.000    0.000    1.143    0.000    0.000 
#    0.000    0.000    0.000    0.000    0.000    0.000 
#
# Total GULP energy -520449.807319 kJ/mol
# GULP energy per Si atom -12391.662079 kJ/mol
# Density = 2.000117 g / cm^3
# Si number density = 20.046793 Si / 1000 Ang^3
#
#
#
# Elastic Constant Matrix: (Units=GPa)
#
#
# Indices 1 2 3 4 5 6 
#
# 1 145.6667 58.3819 35.1798 0.0000 0.0000 0.0000
# 2 58.3819 111.6874 37.3255 0.0000 0.0000 0.0000
# 3 35.1798 37.3255 52.3633 0.0000 0.0000 0.0000
# 4 0.0000 0.0000 0.0000 26.1319 0.0000 0.0000
# 5 0.0000 0.0000 0.0000 0.0000 4.1034 0.0000
# 6 0.0000 0.0000 0.0000 0.0000 0.0000 36.4929
#
#
#
# Elastic Compliance Matrix: (Units=1/GPa)
#
#
# Indices 1 2 3 4 5 6 
#
# 1 0.009175 -0.003591 -0.003604 0.000000 0.000000 0.000000
# 2 -0.003591 0.013159 -0.006967 0.000000 0.000000 0.000000
# 3 -0.003604 -0.006967 0.026485 0.000000 0.000000 0.000000
# 4 0.000000 0.000000 0.000000 0.038267 0.000000 0.000000
# 5 0.000000 0.000000 0.000000 0.000000 0.243702 0.000000
# 6 0.000000 0.000000 0.000000 0.000000 0.000000 0.027403
#
#
# Mechanical properties :
#
#
# Convention : Reuss Voigt Hill
#
# Bulk Modulus (GPa) = 48.79542 63.49908 56.14725
# Shear Modulus (GPa) = 12.71140 25.26765 18.98953
#
# Velocity S-wave (km/s) = 2.52084 3.55411 3.08110
# Velocity P-wave (km/s) = 5.73293 6.97040 6.38173
#
# Compressibility (1/GPa) = 0.02049373
#
# Stress axis : x y z
#
# Youngs Moduli (GPa) = 108.99419 75.99136 37.75716
#
# Poissons Ratio (x) = 0.27292 0.13607
# Poissons Ratio (y) = 0.39145 0.26307
# Poissons Ratio (z) = 0.39281 0.52946
#
# Static dielectric constant tensor:
#      x y z
#    x 4.390790 0.000000 0.000000 
#    y 0.000000 3.972260 0.000000 
#    z 0.000000 0.000000 3.001850 
# 
# 
# High freq. dielectric constant tensor:
#      x y z
#    x 1.809740 0.000000 0.000000 
#    y 0.000000 1.790350 0.000000 
#    z 0.000000 0.000000 1.698170 
# 
# From -- ./inp_files/40668.got.cif
#   From: 2010.03.12/outbox.cif.g09.slc.cpg/sg68_21_cif.got.tgz:40668.got - 2010.04.10 23:14:56.
