data_PCOD8281715
_publ_section_title
;
Structure prediction by ZEFSAII (Michael W. Deem and Ramdas Pophale) SiO2 
 PCOD8281715
Probable space group: C C C A
;
_chemical_formula_sum "Si O2"
_cell_formula_units_Z 112
_cell_length_a 19.572447
_cell_length_b 15.641403
_cell_length_c 17.563794
_cell_angle_alpha 90.000000
_cell_angle_beta 90.000000
_cell_angle_gamma 90.000000
_cell_volume 5376.989225
_symmetry_space_group_name_H-M "C C C A"
_symmetry_group_IT_number 68
_space_group.IT_coordinate_system_code '2'
_symmetry_cell_setting 'orthorhombic'
loop_
_space_group_symop_operation_xyz
x,y,z
-x,1/2-y,z
x,1/2-y,1/2-z
-x,y,1/2-z
-x,-y,-z
x,1/2+y,-z
-x,1/2+y,1/2+z
x,-y,1/2+z
1/2+x,1/2+y,z
1/2-x,-y,z
1/2+x,-y,1/2-z
1/2-x,1/2+y,1/2-z
1/2-x,1/2-y,-z
1/2+x,y,-z
1/2-x,y,1/2+z
1/2+x,1/2-y,1/2+z
loop_
_atom_site_type_symbol
_atom_site_label
_atom_site_fract_x
_atom_site_fract_y
_atom_site_fract_z
Si Si1 0.785880 0.915326 0.148196
Si Si2 0.342025 0.146939 0.911906
Si Si3 0.066698 0.519998 0.840608
Si Si4 0.812765 0.934305 0.429402
Si Si5 0.916803 0.006287 0.664582
Si Si6 0.760437 0.165451 0.792937
Si Si7 0.892409 0.797160 0.823205
O O1 0.738993 0.838874 0.112860
O O2 0.780333 0.914438 0.239577
O O3 0.750000 0.000000 0.114276
O O4 0.867420 0.918283 0.129393
O O5 0.380365 0.082545 0.855304
O O6 0.380616 0.236931 0.897743
O O7 0.343076 0.113454 0.997354
O O8 0.125023 0.488727 0.896797
O O9 0.080405 0.487396 0.755706
O O10 0.060312 0.623125 0.845916
O O11 0.992862 0.485006 0.869462
O O12 0.791956 0.855485 0.375075
O O13 0.750000 0.000000 0.445911
O O14 0.790789 0.250000 0.750000
O O15 0.679442 0.166211 0.795287
O O16 0.926039 0.750000 0.750000
#
# Coordination Sequence:
#
# PCOD8281715 Si02
#       7
#    16  16  16  16  16  16  16
#     4  10  17  35  61  85 118 157 206 247 298 365
#     4  11  23  38  60  94 128 158 201 257 323 372
#     4  11  22  38  63  93 121 165 213 253 309 376
#     4  12  24  40  62  93 127 165 208 259 308 376
#     4  10  21  37  62  92 120 166 205 255 302 374
#     4  11  20  35  62  91 117 160 202 258 310 357
#     4  11  19  37  63  93 123 158 201 260 323 373
#
# _framework density 20.829501
#
# number of rings (size 3 to 8) (size 9 to 14) (size 15 to 20)
#    0.000    1.143    7.143    2.571    0.000    1.714 
#    0.000    0.000    0.000    3.429    0.000    0.000 
#    0.000    0.000    0.000    0.000    0.000    0.000 
#
# Total GULP energy -693785.858297 kJ/mol
# GULP energy per Si atom -12389.033184 kJ/mol
# Density = 2.078209 g / cm^3
# Si number density = 20.829501 Si / 1000 Ang^3
#
#
#
# Elastic Constant Matrix: (Units=GPa)
#
#
# Indices 1 2 3 4 5 6 
#
# 1 120.7988 13.2982 22.6256 0.0000 0.0000 0.0000
# 2 13.2982 44.5969 22.4220 0.0000 0.0000 0.0000
# 3 22.6256 22.4220 87.7112 0.0000 0.0000 0.0000
# 4 0.0000 0.0000 0.0000 32.7240 0.0000 0.0000
# 5 0.0000 0.0000 0.0000 0.0000 13.1362 0.0000
# 6 0.0000 0.0000 0.0000 0.0000 0.0000 20.0464
#
#
#
# Elastic Compliance Matrix: (Units=1/GPa)
#
#
# Indices 1 2 3 4 5 6 
#
# 1 0.008810 -0.001703 -0.001837 0.000000 0.000000 0.000000
# 2 -0.001703 0.026059 -0.006222 0.000000 0.000000 0.000000
# 3 -0.001837 -0.006222 0.013466 0.000000 0.000000 0.000000
# 4 0.000000 0.000000 0.000000 0.030559 0.000000 0.000000
# 5 0.000000 0.000000 0.000000 0.000000 0.076125 0.000000
# 6 0.000000 0.000000 0.000000 0.000000 0.000000 0.049884
#
#
# Mechanical properties :
#
#
# Convention : Reuss Voigt Hill
#
# Bulk Modulus (GPa) = 34.71100 41.08872 37.89986
# Shear Modulus (GPa) = 21.36465 26.16540 23.76503
#
# Velocity S-wave (km/s) = 3.20612 3.54809 3.38143
# Velocity P-wave (km/s) = 5.51417 6.04602 5.78621
#
# Compressibility (1/GPa) = 0.02880931
#
# Stress axis : x y z
#
# Youngs Moduli (GPa) = 113.50952 38.37391 74.26337
#
# Poissons Ratio (x) = 0.06536 0.13643
# Poissons Ratio (y) = 0.19334 0.46209
# Poissons Ratio (z) = 0.20853 0.23877
#
# Static dielectric constant tensor:
#      x y z
#    x 3.919870 0.000000 0.000000 
#    y 0.000000 3.860770 0.000000 
#    z 0.000000 0.000000 3.615090 
# 
# 
# High freq. dielectric constant tensor:
#      x y z
#    x 1.810210 0.000000 0.000000 
#    y 0.000000 1.798210 0.000000 
#    z 0.000000 0.000000 1.798490 
# 
# From -- ./inp_files/33129.got.cif
#   From: 2010.03.12/outbox.cif.g09.slc.cpg/sg68_17_cif.got.tgz:33129.got - 2010.04.10 23:14:56.
