data_PCOD8281758
_publ_section_title
;
Structure prediction by ZEFSAII (Michael W. Deem and Ramdas Pophale) SiO2 
 PCOD8281758
Probable space group: C C C A
;
_chemical_formula_sum "Si O2"
_cell_formula_units_Z 80
_cell_length_a 16.505726
_cell_length_b 8.632217
_cell_length_c 28.753184
_cell_angle_alpha 90.000000
_cell_angle_beta 90.000000
_cell_angle_gamma 90.000000
_cell_volume 4096.782656
_symmetry_space_group_name_H-M "C C C A"
_symmetry_group_IT_number 68
_space_group.IT_coordinate_system_code '2'
_symmetry_cell_setting 'orthorhombic'
loop_
_space_group_symop_operation_xyz
x,y,z
-x,1/2-y,z
x,1/2-y,1/2-z
-x,y,1/2-z
-x,-y,-z
x,1/2+y,-z
-x,1/2+y,1/2+z
x,-y,1/2+z
1/2+x,1/2+y,z
1/2-x,-y,z
1/2+x,-y,1/2-z
1/2-x,1/2+y,1/2-z
1/2-x,1/2-y,-z
1/2+x,y,-z
1/2-x,y,1/2+z
1/2+x,1/2-y,1/2+z
loop_
_atom_site_type_symbol
_atom_site_label
_atom_site_fract_x
_atom_site_fract_y
_atom_site_fract_z
Si Si1 0.578386 0.849876 0.629369
Si Si2 0.987977 0.425643 0.195619
Si Si3 0.592711 0.061850 0.546559
Si Si4 0.160048 0.451431 0.856268
Si Si5 0.900340 0.088878 0.451353
O O1 0.500000 0.750000 0.612123
O O2 0.647879 0.733947 0.647805
O O3 0.552802 0.964667 0.670560
O O4 0.618962 0.948225 0.588051
O O5 0.896963 0.467224 0.181462
O O6 0.000000 0.250000 0.179137
O O7 0.000000 0.447525 0.250000
O O8 0.629565 0.233482 0.551520
O O9 0.496413 0.074557 0.549695
O O10 0.628268 0.989380 0.499295
O O11 0.250000 0.500000 0.842808
O O12 0.138941 0.498772 0.908775
#
# Coordination Sequence:
#
# PCOD8281758 Si02
#       5
#    16  16  16  16  16
#     4  10  19  34  58  84 116 155 203 239 285 353
#     4  10  21  41  66  90 115 152 203 245 288 362
#     4  10  18  31  56  84 111 159 208 247 277 342
#     4  11  23  39  58  90 127 154 189 251 307 348
#     4  10  19  31  54  83 120 152 203 247 288 344
#
# _framework density 19.527519000000002
#
# number of rings (size 3 to 8) (size 9 to 14) (size 15 to 20)
#    0.000    1.800    4.000    2.400    2.800    3.600 
#    0.000   12.000    0.000    0.000    0.000    0.000 
#    0.000    0.000    0.000    0.000    0.000    0.000 
#
# Total GULP energy -496013.592536 kJ/mol
# GULP energy per Si atom -12400.339813 kJ/mol
# Density = 1.948307 g / cm^3
# Si number density = 19.527519 Si / 1000 Ang^3
#
#
#
# Elastic Constant Matrix: (Units=GPa)
#
#
# Indices 1 2 3 4 5 6 
#
# 1 84.3045 48.8292 46.5943 0.0000 0.0000 0.0000
# 2 48.8292 177.6931 67.0448 0.0000 0.0000 0.0000
# 3 46.5943 67.0448 112.1231 0.0000 0.0000 0.0000
# 4 0.0000 0.0000 0.0000 19.5168 0.0000 0.0000
# 5 0.0000 0.0000 0.0000 0.0000 4.1842 0.0000
# 6 0.0000 0.0000 0.0000 0.0000 0.0000 21.5366
#
#
#
# Elastic Compliance Matrix: (Units=1/GPa)
#
#
# Indices 1 2 3 4 5 6 
#
# 1 0.016195 -0.002468 -0.005255 0.000000 0.000000 0.000000
# 2 -0.002468 0.007643 -0.003545 0.000000 0.000000 0.000000
# 3 -0.005255 -0.003545 0.013222 0.000000 0.000000 0.000000
# 4 0.000000 0.000000 0.000000 0.051238 0.000000 0.000000
# 5 0.000000 0.000000 0.000000 0.000000 0.238997 0.000000
# 6 0.000000 0.000000 0.000000 0.000000 0.000000 0.046433
#
#
# Mechanical properties :
#
#
# Convention : Reuss Voigt Hill
#
# Bulk Modulus (GPa) = 68.84091 77.67304 73.25697
# Shear Modulus (GPa) = 12.46559 23.15767 17.81163
#
# Velocity S-wave (km/s) = 2.52932 3.44742 3.02342
# Velocity P-wave (km/s) = 6.62267 7.46384 7.05580
#
# Compressibility (1/GPa) = 0.01452625
#
# Stress axis : x y z
#
# Youngs Moduli (GPa) = 61.74650 130.83330 75.63142
#
# Poissons Ratio (x) = 0.32287 0.39741
# Poissons Ratio (y) = 0.15238 0.26810
# Poissons Ratio (z) = 0.32445 0.46378
#
# Static dielectric constant tensor:
#      x y z
#    x 3.199400 0.000000 0.000000 
#    y 0.000000 4.041520 0.000000 
#    z 0.000000 0.000000 3.508260 
# 
# 
# High freq. dielectric constant tensor:
#      x y z
#    x 1.710720 0.000000 0.000000 
#    y 0.000000 1.787120 0.000000 
#    z 0.000000 0.000000 1.758840 
# 
# From -- ./inp_files/51301.got.cif
#   From: 2010.03.12/outbox.cif.g09.slc.cpg/sg68_26_cif.got.tgz:51301.got - 2010.04.10 23:14:56.
