data_PCOD8281414
_publ_section_title
;
Structure prediction by ZEFSAII (Michael W. Deem and Ramdas Pophale) SiO2 
 PCOD8281414
Probable space group: C M M A
;
_chemical_formula_sum "Si O2"
_cell_formula_units_Z 92
_cell_length_a 19.266039
_cell_length_b 27.021330
_cell_length_c 8.888541
_cell_angle_alpha 90.000000
_cell_angle_beta 90.000000
_cell_angle_gamma 90.000000
_cell_volume 4627.321092
_symmetry_space_group_name_H-M "C M M A"
_symmetry_group_IT_number 67
_symmetry_cell_setting 'orthorhombic'
loop_
_space_group_symop_operation_xyz
x,y,z
-x,1/2-y,z
x,-y,-z
-x,1/2+y,-z
-x,-y,-z
x,1/2+y,-z
-x,y,z
x,1/2-y,z
1/2+x,1/2+y,z
1/2-x,-y,z
1/2+x,1/2-y,-z
1/2-x,y,-z
1/2-x,1/2-y,-z
1/2+x,y,-z
1/2-x,1/2+y,z
1/2+x,-y,z
loop_
_atom_site_type_symbol
_atom_site_label
_atom_site_fract_x
_atom_site_fract_y
_atom_site_fract_z
Si Si1 0.000000 0.385862 0.939063
Si Si2 0.425003 0.033129 0.647090
Si Si3 0.826279 0.401666 0.520067
Si Si4 0.000000 0.692723 0.793633
Si Si5 0.615110 0.696046 0.448726
Si Si6 0.128467 0.552844 0.168783
Si Si7 0.000000 0.803185 0.304663
Si Si8 0.750000 0.000000 0.000000
O O1 0.928969 0.418963 0.934893
O O2 0.000000 0.351626 0.794219
O O3 0.000000 0.348918 0.078822
O O4 0.500000 0.057307 0.681864
O O5 0.371100 0.076302 0.616559
O O6 0.429259 0.000000 0.500000
O O7 0.403852 0.000046 0.788427
O O8 0.750000 0.424181 0.500000
O O9 0.824637 0.343469 0.481960
O O10 0.856261 0.413853 0.684302
O O11 0.930737 0.683571 0.697244
O O12 0.000000 0.750000 0.853496
O O13 0.650071 0.750000 0.428974
O O14 0.567537 0.695097 0.594274
O O15 0.201257 0.538870 0.090232
O O16 0.000000 0.750000 0.216020
#
# Coordination Sequence:
#
# PCOD8281414 Si02
#       8
#     8  16  16   8  16  16   8   4
#     4  12  21  37  66  95 121 160 217 253 300 385
#     4   9  19  35  60  86 115 148 201 267 307 344
#     4  11  22  36  63  93 119 159 211 260 317 368
#     4   9  21  37  58  95 134 163 195 256 331 375
#     4   9  19  37  60  88 124 158 198 255 313 368
#     4  11  24  42  61  86 121 167 216 257 306 377
#     4   9  17  33  61  91 118 150 195 260 309 346
#     4  12  28  46  54  76 142 178 196 258 320 374
#
# _framework density 19.881913000000001
#
# number of rings (size 3 to 8) (size 9 to 14) (size 15 to 20)
#    0.000    1.913    2.609    2.348    3.652    5.913 
#    0.000    0.000    0.000    0.000    0.000    4.261 
#    0.000    0.000    0.000    0.000    0.000    0.000 
#
# Total GULP energy -569977.296680 kJ/mol
# GULP energy per Si atom -12390.810797 kJ/mol
# Density = 1.983666 g / cm^3
# Si number density = 19.881913 Si / 1000 Ang^3
#
#
#
# Elastic Constant Matrix: (Units=GPa)
#
#
# Indices 1 2 3 4 5 6 
#
# 1 129.9495 58.3362 31.2852 0.0000 0.0000 0.0000
# 2 58.3362 125.1346 49.4683 0.0000 0.0000 0.0000
# 3 31.2852 49.4683 70.9001 0.0000 0.0000 0.0000
# 4 0.0000 0.0000 0.0000 34.8795 0.0000 0.0000
# 5 0.0000 0.0000 0.0000 0.0000 34.1384 0.0000
# 6 0.0000 0.0000 0.0000 0.0000 0.0000 18.7555
#
#
#
# Elastic Compliance Matrix: (Units=1/GPa)
#
#
# Indices 1 2 3 4 5 6 
#
# 1 0.009858 -0.003972 -0.001579 0.000000 0.000000 0.000000
# 2 -0.003972 0.012635 -0.007063 0.000000 0.000000 0.000000
# 3 -0.001579 -0.007063 0.019729 0.000000 0.000000 0.000000
# 4 0.000000 0.000000 0.000000 0.028670 0.000000 0.000000
# 5 0.000000 0.000000 0.000000 0.000000 0.029292 0.000000
# 6 0.000000 0.000000 0.000000 0.000000 0.000000 0.053318
#
#
# Mechanical properties :
#
#
# Convention : Reuss Voigt Hill
#
# Bulk Modulus (GPa) = 58.84086 67.12930 62.98508
# Shear Modulus (GPa) = 27.11555 30.01432 28.56494
#
# Velocity S-wave (km/s) = 3.69701 3.88961 3.79453
# Velocity P-wave (km/s) = 6.91978 7.34911 7.13767
#
# Compressibility (1/GPa) = 0.01699499
#
# Stress axis : x y z
#
# Youngs Moduli (GPa) = 101.43673 79.14399 50.68610
#
# Poissons Ratio (x) = 0.31433 0.08003
# Poissons Ratio (y) = 0.40287 0.35801
# Poissons Ratio (z) = 0.16017 0.55902
#
# Static dielectric constant tensor:
#      x y z
#    x 3.571720 0.000000 0.000000 
#    y 0.000000 3.911350 0.000000 
#    z 0.000000 0.000000 3.501760 
# 
# 
# High freq. dielectric constant tensor:
#      x y z
#    x 1.766320 0.000000 0.000000 
#    y 0.000000 1.787090 0.000000 
#    z 0.000000 0.000000 1.762090 
# 
# From -- ./inp_files/11542.got.cif
#   From: 2010.03.12/outbox.cif.g09.slc.cpg/sg67_6_cif.got.tgz:11542.got - 2010.04.10 22:41:39.
