data_PCOD8281942
_publ_section_title
;
Structure prediction by ZEFSAII (Michael W. Deem and Ramdas Pophale) SiO2 
 PCOD8281942
Probable space group: C C C A
;
_chemical_formula_sum "Si O2"
_cell_formula_units_Z 104
_cell_length_a 13.577777
_cell_length_b 19.237469
_cell_length_c 20.278361
_cell_angle_alpha 90.000000
_cell_angle_beta 90.000000
_cell_angle_gamma 90.000000
_cell_volume 5296.749750
_symmetry_space_group_name_H-M "C C C A"
_symmetry_group_IT_number 68
_space_group.IT_coordinate_system_code '2'
_symmetry_cell_setting 'orthorhombic'
loop_
_space_group_symop_operation_xyz
x,y,z
-x,1/2-y,z
x,1/2-y,1/2-z
-x,y,1/2-z
-x,-y,-z
x,1/2+y,-z
-x,1/2+y,1/2+z
x,-y,1/2+z
1/2+x,1/2+y,z
1/2-x,-y,z
1/2+x,-y,1/2-z
1/2-x,1/2+y,1/2-z
1/2-x,1/2-y,-z
1/2+x,y,-z
1/2-x,y,1/2+z
1/2+x,1/2-y,1/2+z
loop_
_atom_site_type_symbol
_atom_site_label
_atom_site_fract_x
_atom_site_fract_y
_atom_site_fract_z
Si Si1 0.850561 0.151546 0.138895
Si Si2 0.681074 0.936406 0.679480
Si Si3 0.500000 0.665279 0.250000
Si Si4 0.988079 0.443727 0.593353
Si Si5 0.861179 0.809326 0.860903
Si Si6 0.202387 0.926556 0.168748
Si Si7 0.506483 0.402034 0.550667
O O1 0.739542 0.130673 0.154655
O O2 0.831512 0.231949 0.120068
O O3 0.924424 0.125647 0.199500
O O4 0.894776 0.114831 0.073692
O O5 0.576543 0.940580 0.644720
O O6 0.663201 0.933613 0.757185
O O7 0.750000 0.000000 0.658430
O O8 0.569806 0.708962 0.201822
O O9 0.014600 0.400136 0.528149
O O10 0.891367 0.409169 0.624106
O O11 0.961048 0.522932 0.576795
O O12 0.775091 0.861188 0.838695
O O13 0.920628 0.843670 0.920826
O O14 0.250000 0.000000 0.146844
#
# Coordination Sequence:
#
# PCOD8281942 Si02
#       7
#    16  16   8  16  16  16  16
#     4  11  21  38  64  95 124 159 212 262 307 352
#     4  11  23  39  63  94 127 162 206 258 310 373
#     4  10  19  34  64  94 126 156 201 266 307 348
#     4  11  23  42  61  88 130 166 201 250 312 380
#     4  11  21  38  64  95 124 159 212 262 307 352
#     4  11  23  39  63  94 127 162 206 258 310 373
#     4  10  22  40  62  91 122 165 212 253 309 364
#
# _framework density 19.634682000000002
#
# number of rings (size 3 to 8) (size 9 to 14) (size 15 to 20)
#    0.000    1.231    4.615    3.231    0.000    1.231 
#    0.000    5.385    0.000    1.846    0.000    0.000 
#    0.000    0.000    0.000    0.000    0.000    0.000 
#
# Total GULP energy -644430.079072 kJ/mol
# GULP energy per Si atom -12392.886136 kJ/mol
# Density = 1.958999 g / cm^3
# Si number density = 19.634682 Si / 1000 Ang^3
#
#
#
# Elastic Constant Matrix: (Units=GPa)
#
#
# Indices 1 2 3 4 5 6 
#
# 1 110.9926 33.6603 55.4808 0.0000 0.0000 0.0000
# 2 33.6603 97.7541 42.4883 0.0000 0.0000 0.0000
# 3 55.4808 42.4883 104.8918 0.0000 0.0000 0.0000
# 4 0.0000 0.0000 0.0000 20.6823 0.0000 0.0000
# 5 0.0000 0.0000 0.0000 0.0000 20.2815 0.0000
# 6 0.0000 0.0000 0.0000 0.0000 0.0000 28.5320
#
#
#
# Elastic Compliance Matrix: (Units=1/GPa)
#
#
# Indices 1 2 3 4 5 6 
#
# 1 0.012485 -0.001734 -0.005902 0.000000 0.000000 0.000000
# 2 -0.001734 0.012657 -0.004210 0.000000 0.000000 0.000000
# 3 -0.005902 -0.004210 0.014360 0.000000 0.000000 0.000000
# 4 0.000000 0.000000 0.000000 0.048351 0.000000 0.000000
# 5 0.000000 0.000000 0.000000 0.000000 0.049306 0.000000
# 6 0.000000 0.000000 0.000000 0.000000 0.000000 0.035048
#
#
# Mechanical properties :
#
#
# Convention : Reuss Voigt Hill
#
# Bulk Modulus (GPa) = 63.24346 64.09972 63.67159
# Shear Modulus (GPa) = 24.85482 26.03309 25.44395
#
# Velocity S-wave (km/s) = 3.56176 3.64520 3.60372
# Velocity P-wave (km/s) = 7.01390 7.10167 7.05792
#
# Compressibility (1/GPa) = 0.01581191
#
# Stress axis : x y z
#
# Youngs Moduli (GPa) = 80.09317 79.01065 69.63641
#
# Poissons Ratio (x) = 0.13701 0.41096
# Poissons Ratio (y) = 0.13889 0.29314
# Poissons Ratio (z) = 0.47267 0.33260
#
# Static dielectric constant tensor:
#      x y z
#    x 3.630390 0.000000 0.000000 
#    y 0.000000 3.449520 0.000000 
#    z 0.000000 0.000000 3.626800 
# 
# 
# High freq. dielectric constant tensor:
#      x y z
#    x 1.761120 0.000000 0.000000 
#    y 0.000000 1.758300 0.000000 
#    z 0.000000 0.000000 1.764930 
# 
# From -- ./inp_files/38768.got.cif
#   From: 2010.03.12/outbox.cif.g09.slc.cpg/sg68_20_cif.got.tgz:38768.got - 2010.04.10 23:14:56.
