data_PCOD8281386
_publ_section_title
;
Structure prediction by ZEFSAII (Michael W. Deem and Ramdas Pophale) SiO2 
 PCOD8281386
Probable space group: C M M A
;
_chemical_formula_sum "Si O2"
_cell_formula_units_Z 60
_cell_length_a 13.566761
_cell_length_b 25.090145
_cell_length_c 8.999586
_cell_angle_alpha 90.000000
_cell_angle_beta 90.000000
_cell_angle_gamma 90.000000
_cell_volume 3063.387084
_symmetry_space_group_name_H-M "C M M A"
_symmetry_group_IT_number 67
_symmetry_cell_setting 'orthorhombic'
loop_
_space_group_symop_operation_xyz
x,y,z
-x,1/2-y,z
x,-y,-z
-x,1/2+y,-z
-x,-y,-z
x,1/2+y,-z
-x,y,z
x,1/2-y,z
1/2+x,1/2+y,z
1/2-x,-y,z
1/2+x,1/2-y,-z
1/2-x,y,-z
1/2-x,1/2-y,-z
1/2+x,y,-z
1/2-x,1/2+y,z
1/2+x,-y,z
loop_
_atom_site_type_symbol
_atom_site_label
_atom_site_fract_x
_atom_site_fract_y
_atom_site_fract_z
Si Si1 0.211186 0.059776 0.843508
Si Si2 0.203370 0.750000 0.158390
Si Si3 0.288576 0.152478 0.664327
Si Si4 0.500000 0.750000 0.980058
Si Si5 0.000000 0.849428 0.799710
Si Si6 0.500000 0.060341 0.048326
O O1 0.253202 0.093827 0.709064
O O2 0.093896 0.067873 0.845679
O O3 0.250000 0.000000 0.820536
O O4 0.250000 0.082603 0.000000
O O5 0.236595 0.803110 0.238669
O O6 0.087244 0.750000 0.138123
O O7 0.250000 0.750000 0.000000
O O8 0.250000 0.163574 0.500000
O O9 0.406505 0.154517 0.688928
O O10 0.500000 0.698757 0.084792
O O11 0.000000 0.903047 0.899973
O O12 0.500000 0.000000 0.000000
#
# Coordination Sequence:
#
# PCOD8281386 Si02
#       6
#    16   8  16   4   8   8
#     4  11  21  39  64  95 122 164 215 262 302 361
#     4  12  23  44  67  95 119 161 213 259 301 363
#     4  12  26  42  63  93 134 165 202 255 316 381
#     4  12  24  38  74  96 118 156 216 262 306 356
#     4  12  22  40  65  91 123 169 203 255 319 361
#     4  12  20  35  67  95 121 160 216 266 306 354
#
# _framework density 19.586162999999999
#
# number of rings (size 3 to 8) (size 9 to 14) (size 15 to 20)
#    0.000    0.267    8.000    2.800    0.000    2.667 
#    0.000    0.000    0.000    4.800    0.000    0.000 
#    0.000    0.000    0.000    0.000    0.000    0.000 
#
# Total GULP energy -371970.401610 kJ/mol
# GULP energy per Si atom -12399.013387 kJ/mol
# Density = 1.954158 g / cm^3
# Si number density = 19.586163 Si / 1000 Ang^3
#
#
#
# Elastic Constant Matrix: (Units=GPa)
#
#
# Indices 1 2 3 4 5 6 
#
# 1 214.5546 47.4775 64.5174 0.0000 0.0000 0.0000
# 2 47.4775 109.6145 59.8269 0.0000 0.0000 0.0000
# 3 64.5174 59.8269 124.6258 0.0000 0.0000 0.0000
# 4 0.0000 0.0000 0.0000 -237.8271 0.0000 0.0000
# 5 0.0000 0.0000 0.0000 0.0000 28.7711 0.0000
# 6 0.0000 0.0000 0.0000 0.0000 0.0000 30.6370
#
#
#
# Elastic Compliance Matrix: (Units=1/GPa)
#
#
# Indices 1 2 3 4 5 6 
#
# 1 0.005625 -0.001148 -0.002361 0.000000 0.000000 0.000000
# 2 -0.001148 0.012596 -0.005453 0.000000 0.000000 0.000000
# 3 -0.002361 -0.005453 0.011864 0.000000 0.000000 0.000000
# 4 0.000000 0.000000 0.000000 -0.004205 0.000000 0.000000
# 5 0.000000 0.000000 0.000000 0.000000 0.034757 0.000000
# 6 0.000000 0.000000 0.000000 0.000000 0.000000 0.032640
#
#
# Mechanical properties :
#
#
# Convention : Reuss Voigt Hill
#
# Bulk Modulus (GPa) = 82.22260 88.04873 85.13566
# Shear Modulus (GPa) = 43.38265 -17.21892 13.08186
#
# Velocity S-wave (km/s) = 4.71145 -2.96824 2.58721
# Velocity P-wave (km/s) = 8.46570 5.77104 7.24475
#
# Compressibility (1/GPa) = 0.01216211
#
# Stress axis : x y z
#
# Youngs Moduli (GPa) = 177.78681 79.39058 84.29034
#
# Poissons Ratio (x) = 0.09111 0.19900
# Poissons Ratio (y) = 0.20404 0.45960
# Poissons Ratio (z) = 0.41974 0.43288
#
# Static dielectric constant tensor:
#      x y z
#    x 3.803320 0.000000 0.000000 
#    y 0.000000 4.169690 0.000000 
#    z 0.000000 0.000000 3.371340 
# 
# 
# High freq. dielectric constant tensor:
#      x y z
#    x 1.789120 0.000000 0.000000 
#    y 0.000000 1.783570 0.000000 
#    z 0.000000 0.000000 1.736560 
# 
# From -- ./inp_files/6553.got.cif
#   From: 2010.03.12/outbox.cif.g09.slc.cpg/sg67_4_cif.got.tgz:6553.got - 2010.04.10 22:41:39.
