data_PCOD8281858
_publ_section_title
;
Structure prediction by ZEFSAII (Michael W. Deem and Ramdas Pophale) SiO2 
 PCOD8281858
Probable space group: C C C A
;
_chemical_formula_sum "Si O2"
_cell_formula_units_Z 88
_cell_length_a 21.988570
_cell_length_b 11.909791
_cell_length_c 17.064833
_cell_angle_alpha 90.000000
_cell_angle_beta 90.000000
_cell_angle_gamma 90.000000
_cell_volume 4468.926061
_symmetry_space_group_name_H-M "C C C A"
_symmetry_group_IT_number 68
_space_group.IT_coordinate_system_code '2'
_symmetry_cell_setting 'orthorhombic'
loop_
_space_group_symop_operation_xyz
x,y,z
-x,1/2-y,z
x,1/2-y,1/2-z
-x,y,1/2-z
-x,-y,-z
x,1/2+y,-z
-x,1/2+y,1/2+z
x,-y,1/2+z
1/2+x,1/2+y,z
1/2-x,-y,z
1/2+x,-y,1/2-z
1/2-x,1/2+y,1/2-z
1/2-x,1/2-y,-z
1/2+x,y,-z
1/2-x,y,1/2+z
1/2+x,1/2-y,1/2+z
loop_
_atom_site_type_symbol
_atom_site_label
_atom_site_fract_x
_atom_site_fract_y
_atom_site_fract_z
Si Si1 0.650853 0.175019 0.318609
Si Si2 0.551108 0.840361 0.394721
Si Si3 0.432406 0.792196 0.929395
Si Si4 0.966509 0.513173 0.327278
Si Si5 0.133961 0.919052 0.732372
Si Si6 0.733987 0.250000 0.750000
O O1 0.618384 0.250000 0.250000
O O2 0.616319 0.198877 0.400719
O O3 0.721496 0.217424 0.323349
O O4 0.648796 0.043586 0.298658
O O5 0.500000 0.750000 0.372550
O O6 0.578984 0.823026 0.480629
O O7 0.517253 0.960621 0.385023
O O8 0.609136 0.838737 0.337324
O O9 0.500000 0.750000 0.916675
O O10 0.425355 0.900354 0.874935
O O11 0.918343 0.420039 0.298345
O O12 0.000000 0.565338 0.250000
O O13 0.193400 0.859732 0.768665
#
# Coordination Sequence:
#
# PCOD8281858 Si02
#       6
#    16  16  16  16  16   8
#     4  10  22  37  60  89 115 147 209 248 293 349
#     4  10  22  35  53  87 123 157 193 230 297 364
#     4  11  21  35  55  85 123 154 189 241 299 355
#     4  10  19  31  55  84 113 150 199 238 289 357
#     4  11  20  39  63  87 119 158 196 253 297 349
#     4  10  22  38  62  86 112 150 208 252 294 340
#
# _framework density 19.691531999999999
#
# number of rings (size 3 to 8) (size 9 to 14) (size 15 to 20)
#    0.545    1.091    1.818    4.364    0.000    4.000 
#    0.000    0.909    0.000    2.182    0.000    0.000 
#    0.000    0.000    0.000    0.000    0.000    0.000 
#
# Total GULP energy -545267.861292 kJ/mol
# GULP energy per Si atom -12392.451393 kJ/mol
# Density = 1.964671 g / cm^3
# Si number density = 19.691532 Si / 1000 Ang^3
#
#
#
# Elastic Constant Matrix: (Units=GPa)
#
#
# Indices 1 2 3 4 5 6 
#
# 1 105.7523 23.2306 40.7778 0.0000 0.0000 0.0000
# 2 23.2306 86.0681 33.9386 0.0000 0.0000 0.0000
# 3 40.7778 33.9386 88.8246 0.0000 0.0000 0.0000
# 4 0.0000 0.0000 0.0000 25.9968 0.0000 0.0000
# 5 0.0000 0.0000 0.0000 0.0000 10.5578 0.0000
# 6 0.0000 0.0000 0.0000 0.0000 0.0000 28.8559
#
#
#
# Elastic Compliance Matrix: (Units=1/GPa)
#
#
# Indices 1 2 3 4 5 6 
#
# 1 0.011597 -0.001214 -0.004860 0.000000 0.000000 0.000000
# 2 -0.001214 0.013807 -0.004718 0.000000 0.000000 0.000000
# 3 -0.004860 -0.004718 0.015292 0.000000 0.000000 0.000000
# 4 0.000000 0.000000 0.000000 0.038466 0.000000 0.000000
# 5 0.000000 0.000000 0.000000 0.000000 0.094717 0.000000
# 6 0.000000 0.000000 0.000000 0.000000 0.000000 0.034655
#
#
# Mechanical properties :
#
#
# Convention : Reuss Voigt Hill
#
# Bulk Modulus (GPa) = 52.32409 52.94878 52.63643
# Shear Modulus (GPa) = 21.14272 25.26197 23.20234
#
# Velocity S-wave (km/s) = 3.28029 3.58562 3.43635
# Velocity P-wave (km/s) = 6.40130 6.64001 6.52175
#
# Compressibility (1/GPa) = 0.01911166
#
# Stress axis : x y z
#
# Youngs Moduli (GPa) = 86.23138 72.42822 65.39320
#
# Poissons Ratio (x) = 0.08790 0.31782
# Poissons Ratio (y) = 0.10465 0.30854
# Poissons Ratio (z) = 0.41910 0.34173
#
# Static dielectric constant tensor:
#      x y z
#    x 3.587150 0.000000 0.000000 
#    y 0.000000 3.611870 0.000000 
#    z 0.000000 0.000000 3.384070 
# 
# 
# High freq. dielectric constant tensor:
#      x y z
#    x 1.759080 0.000000 0.000000 
#    y 0.000000 1.776450 0.000000 
#    z 0.000000 0.000000 1.737690 
# 
# From -- ./inp_files/32821.got.cif
#   From: 2010.03.12/outbox.cif.g09.slc.cpg/sg68_17_cif.got.tgz:32821.got - 2010.04.10 23:14:56.
