data_PCOD8281274
_publ_section_title
;
Structure prediction by ZEFSAII (Michael W. Deem and Ramdas Pophale) SiO2 
 PCOD8281274
Probable space group: C M M A
;
_chemical_formula_sum "Si O2"
_cell_formula_units_Z 72
_cell_length_a 28.086367
_cell_length_b 15.796553
_cell_length_c 7.856744
_cell_angle_alpha 90.000000
_cell_angle_beta 90.000000
_cell_angle_gamma 90.000000
_cell_volume 3485.784207
_symmetry_space_group_name_H-M "C M M A"
_symmetry_group_IT_number 67
_symmetry_cell_setting 'orthorhombic'
loop_
_space_group_symop_operation_xyz
x,y,z
-x,1/2-y,z
x,-y,-z
-x,1/2+y,-z
-x,-y,-z
x,1/2+y,-z
-x,y,z
x,1/2-y,z
1/2+x,1/2+y,z
1/2-x,-y,z
1/2+x,1/2-y,-z
1/2-x,y,-z
1/2-x,1/2-y,-z
1/2+x,y,-z
1/2-x,1/2+y,z
1/2+x,-y,z
loop_
_atom_site_type_symbol
_atom_site_label
_atom_site_fract_x
_atom_site_fract_y
_atom_site_fract_z
Si Si1 0.268640 0.750000 0.686663
Si Si2 0.056194 0.750000 0.115125
Si Si3 0.271913 0.579348 0.185518
Si Si4 0.368189 0.079432 0.627563
Si Si5 0.055215 0.914569 0.900540
Si Si6 0.870449 0.750000 0.411492
O O1 0.250000 0.750000 0.500000
O O2 0.247744 0.668605 0.769226
O O3 0.325234 0.750000 0.713138
O O4 0.082024 0.750000 0.297977
O O5 0.000000 0.750000 0.153104
O O6 0.071841 0.833276 0.010209
O O7 0.250000 0.500000 0.293709
O O8 0.328594 0.576987 0.221336
O O9 0.250000 0.565682 0.000000
O O10 0.418854 0.079454 0.720069
O O11 0.365771 0.166506 0.525013
O O12 0.363438 0.000000 0.500000
O O13 0.000000 0.906235 0.856558
O O14 0.067083 0.000000 0.000000
#
# Coordination Sequence:
#
# PCOD8281274 Si02
#       6
#     8   8  16  16  16   8
#     4  12  23  42  62  89 132 165 205 261 319 372
#     4  10  23  43  67  94 129 171 217 263 317 387
#     4  11  26  42  63  92 124 171 213 259 309 382
#     4  12  25  41  65  97 130 167 213 267 323 378
#     4  10  23  43  67  93 126 168 213 264 319 383
#     4  12  25  39  64  96 125 172 207 266 321 371
#
# _framework density 20.655322000000002
#
# number of rings (size 3 to 8) (size 9 to 14) (size 15 to 20)
#    0.000    0.889    2.222    3.667    6.222    1.333 
#    0.000    0.000    0.000    0.000    0.000    0.000 
#    0.000    0.000    0.000    0.000    0.000    0.000 
#
# Total GULP energy -446091.927092 kJ/mol
# GULP energy per Si atom -12391.442419 kJ/mol
# Density = 2.060831 g / cm^3
# Si number density = 20.655322 Si / 1000 Ang^3
#
#
#
# Elastic Constant Matrix: (Units=GPa)
#
#
# Indices 1 2 3 4 5 6 
#
# 1 96.6670 45.6648 53.8408 0.0000 0.0000 0.0000
# 2 45.6648 212.5594 55.5860 0.0000 0.0000 0.0000
# 3 53.8408 55.5860 99.5606 0.0000 0.0000 0.0000
# 4 0.0000 0.0000 0.0000 22.4632 0.0000 0.0000
# 5 0.0000 0.0000 0.0000 0.0000 49.8468 0.0000
# 6 0.0000 0.0000 0.0000 0.0000 0.0000 23.7933
#
#
#
# Elastic Compliance Matrix: (Units=1/GPa)
#
#
# Indices 1 2 3 4 5 6 
#
# 1 0.015104 -0.001298 -0.007443 0.000000 0.000000 0.000000
# 2 -0.001298 0.005620 -0.002436 0.000000 0.000000 0.000000
# 3 -0.007443 -0.002436 0.015429 0.000000 0.000000 0.000000
# 4 0.000000 0.000000 0.000000 0.044517 0.000000 0.000000
# 5 0.000000 0.000000 0.000000 0.000000 0.020061 0.000000
# 6 0.000000 0.000000 0.000000 0.000000 0.000000 0.042029
#
#
# Mechanical properties :
#
#
# Convention : Reuss Voigt Hill
#
# Bulk Modulus (GPa) = 72.46924 79.88558 76.17741
# Shear Modulus (GPa) = 29.46123 36.13369 32.79746
#
# Velocity S-wave (km/s) = 3.78077 4.18708 3.98910
# Velocity P-wave (km/s) = 7.36343 7.88258 7.62742
#
# Compressibility (1/GPa) = 0.01379896
#
# Stress axis : x y z
#
# Youngs Moduli (GPa) = 66.20929 177.92017 64.81259
#
# Poissons Ratio (x) = 0.23101 0.48239
# Poissons Ratio (y) = 0.08596 0.15787
# Poissons Ratio (z) = 0.49279 0.43339
#
# Static dielectric constant tensor:
#      x y z
#    x 3.920330 0.000000 0.000000 
#    y 0.000000 4.199080 0.000000 
#    z 0.000000 0.000000 3.530330 
# 
# 
# High freq. dielectric constant tensor:
#      x y z
#    x 1.815780 0.000000 0.000000 
#    y 0.000000 1.849480 0.000000 
#    z 0.000000 0.000000 1.798080 
# 
# From -- ./inp_files/13379.got.cif
#   From: 2010.03.12/outbox.cif.g09.slc.cpg/sg67_7_cif.got.tgz:13379.got - 2010.04.10 22:41:39.
