data_PCOD8281686
_publ_section_title
;
Structure prediction by ZEFSAII (Michael W. Deem and Ramdas Pophale) SiO2 
 PCOD8281686
Probable space group: C C C A
;
_chemical_formula_sum "Si O2"
_cell_formula_units_Z 104
_cell_length_a 8.310431
_cell_length_b 21.847507
_cell_length_c 28.736120
_cell_angle_alpha 90.000000
_cell_angle_beta 90.000000
_cell_angle_gamma 90.000000
_cell_volume 5217.393151
_symmetry_space_group_name_H-M "C C C A"
_symmetry_group_IT_number 68
_space_group.IT_coordinate_system_code '2'
_symmetry_cell_setting 'orthorhombic'
loop_
_space_group_symop_operation_xyz
x,y,z
-x,1/2-y,z
x,1/2-y,1/2-z
-x,y,1/2-z
-x,-y,-z
x,1/2+y,-z
-x,1/2+y,1/2+z
x,-y,1/2+z
1/2+x,1/2+y,z
1/2-x,-y,z
1/2+x,-y,1/2-z
1/2-x,1/2+y,1/2-z
1/2-x,1/2-y,-z
1/2+x,y,-z
1/2-x,y,1/2+z
1/2+x,1/2-y,1/2+z
loop_
_atom_site_type_symbol
_atom_site_label
_atom_site_fract_x
_atom_site_fract_y
_atom_site_fract_z
Si Si1 0.750000 0.000000 0.361653
Si Si2 0.540025 0.406278 0.698091
Si Si3 0.755925 0.209398 0.318454
Si Si4 0.945996 0.938078 0.442311
Si Si5 0.531763 0.317484 0.101138
Si Si6 0.266613 0.845599 0.825776
Si Si7 0.250000 0.000000 0.979586
Si Si8 0.500000 0.324670 0.250000
O O1 0.651530 0.954184 0.328668
O O2 0.872936 0.963024 0.394082
O O3 0.500000 0.430267 0.750000
O O4 0.622177 0.339613 0.702883
O O5 0.373504 0.396298 0.669458
O O6 0.694120 0.185038 0.368296
O O7 0.822068 0.278886 0.320719
O O8 0.600259 0.217430 0.285634
O O9 0.841946 0.952311 0.487620
O O10 0.944351 0.864383 0.441088
O O11 0.125618 0.964431 0.446828
O O12 0.500000 0.250000 0.080680
O O13 0.378785 0.344035 0.129183
O O14 0.375289 0.864953 0.780760
#
# Coordination Sequence:
#
# PCOD8281686 Si02
#       8
#     8  16  16  16  16  16   8   8
#     4  11  26  44  57  80 122 170 201 258 302 353
#     4  12  24  39  53  83 117 165 220 263 297 339
#     4  10  18  34  54  84 116 153 207 255 303 347
#     4  10  20  44  67  90 123 145 203 244 310 371
#     4   9  19  36  61  89 123 158 189 241 304 374
#     4  10  20  31  57  86 112 157 208 250 308 354
#     4   9  22  38  73 102 108 154 193 256 286 377
#     4  10  17  30  52  80 114 154 198 260 309 342
#
# _framework density 19.933326999999998
#
# number of rings (size 3 to 8) (size 9 to 14) (size 15 to 20)
#    0.000    1.846    3.077    2.769    2.154    0.615 
#    4.154    0.769    0.000    0.000    0.000    0.000 
#    0.000    0.000    0.000    0.000    0.000    0.000 
#
# Total GULP energy -644538.991294 kJ/mol
# GULP energy per Si atom -12394.980602 kJ/mol
# Density = 1.988796 g / cm^3
# Si number density = 19.933327 Si / 1000 Ang^3
#
#
#
# Elastic Constant Matrix: (Units=GPa)
#
#
# Indices 1 2 3 4 5 6 
#
# 1 106.5298 52.5840 36.7271 0.0000 0.0000 0.0000
# 2 52.5840 108.7146 51.4412 0.0000 0.0000 0.0000
# 3 36.7271 51.4412 71.4978 0.0000 0.0000 0.0000
# 4 0.0000 0.0000 0.0000 18.1792 0.0000 0.0000
# 5 0.0000 0.0000 0.0000 0.0000 22.9115 0.0000
# 6 0.0000 0.0000 0.0000 0.0000 0.0000 35.0583
#
#
#
# Elastic Compliance Matrix: (Units=1/GPa)
#
#
# Indices 1 2 3 4 5 6 
#
# 1 0.012801 -0.004670 -0.003215 0.000000 0.000000 0.000000
# 2 -0.004670 0.015650 -0.008861 0.000000 0.000000 0.000000
# 3 -0.003215 -0.008861 0.022013 0.000000 0.000000 0.000000
# 4 0.000000 0.000000 0.000000 0.055008 0.000000 0.000000
# 5 0.000000 0.000000 0.000000 0.000000 0.043646 0.000000
# 6 0.000000 0.000000 0.000000 0.000000 0.000000 0.028524
#
#
# Mechanical properties :
#
#
# Convention : Reuss Voigt Hill
#
# Bulk Modulus (GPa) = 58.92327 63.13855 61.03091
# Shear Modulus (GPa) = 23.06354 24.96248 24.01301
#
# Velocity S-wave (km/s) = 3.40521 3.54262 3.47460
# Velocity P-wave (km/s) = 6.71453 6.96256 6.83967
#
# Compressibility (1/GPa) = 0.01697122
#
# Stress axis : x y z
#
# Youngs Moduli (GPa) = 78.11997 63.89745 45.42677
#
# Poissons Ratio (x) = 0.29841 0.14607
# Poissons Ratio (y) = 0.36483 0.40252
# Poissons Ratio (z) = 0.25119 0.56619
#
# Static dielectric constant tensor:
#      x y z
#    x 3.775510 0.000000 0.000000 
#    y 0.000000 3.451850 0.000000 
#    z 0.000000 0.000000 3.361530 
# 
# 
# High freq. dielectric constant tensor:
#      x y z
#    x 1.788960 0.000000 0.000000 
#    y 0.000000 1.764890 0.000000 
#    z 0.000000 0.000000 1.750740 
# 
# From -- ./inp_files/54152.got.cif
#   From: 2010.03.12/outbox.cif.g09.slc.cpg/sg68_28_cif.got.tgz:54152.got - 2010.04.10 23:14:56.
