data_PCOD8281837
_publ_section_title
;
Structure prediction by ZEFSAII (Michael W. Deem and Ramdas Pophale) SiO2 
 PCOD8281837
Probable space group: C C C A
;
_chemical_formula_sum "Si O2"
_cell_formula_units_Z 72
_cell_length_a 25.366566
_cell_length_b 13.208831
_cell_length_c 10.640991
_cell_angle_alpha 90.000000
_cell_angle_beta 90.000000
_cell_angle_gamma 90.000000
_cell_volume 3565.398998
_symmetry_space_group_name_H-M "C C C A"
_symmetry_group_IT_number 68
_space_group.IT_coordinate_system_code '2'
_symmetry_cell_setting 'orthorhombic'
loop_
_space_group_symop_operation_xyz
x,y,z
-x,1/2-y,z
x,1/2-y,1/2-z
-x,y,1/2-z
-x,-y,-z
x,1/2+y,-z
-x,1/2+y,1/2+z
x,-y,1/2+z
1/2+x,1/2+y,z
1/2-x,-y,z
1/2+x,-y,1/2-z
1/2-x,1/2+y,1/2-z
1/2-x,1/2-y,-z
1/2+x,y,-z
1/2-x,y,1/2+z
1/2+x,1/2-y,1/2+z
loop_
_atom_site_type_symbol
_atom_site_label
_atom_site_fract_x
_atom_site_fract_y
_atom_site_fract_z
Si Si1 0.826214 0.250000 0.250000
Si Si2 0.505136 0.585340 0.105738
Si Si3 0.584666 0.253755 0.941051
Si Si4 0.674127 0.260230 0.395355
Si Si5 0.736586 0.115793 0.929506
O O1 0.865204 0.212691 0.140911
O O2 0.789702 0.341202 0.199068
O O3 0.500000 0.544255 0.250000
O O4 0.459480 0.662936 0.071992
O O5 0.560935 0.643829 0.095677
O O6 0.500000 0.500000 0.000000
O O7 0.610953 0.249520 0.079748
O O8 0.684103 0.250000 0.250000
O O9 0.696165 0.366327 0.453380
O O10 0.708648 0.172380 0.462314
O O11 0.750000 0.000000 0.909244
#
# Coordination Sequence:
#
# PCOD8281837 Si02
#       5
#     8  16  16  16  16
#     4  10  18  41  68  90 124 175 220 260 328 396
#     4  11  23  43  68  98 125 166 223 274 336 404
#     4  10  21  42  67  87 128 177 207 266 334 393
#     4  10  22  41  59  94 134 171 222 273 327 392
#     4  10  22  40  63  93 130 177 221 272 324 389
#
# _framework density 20.194092999999999
#
# number of rings (size 3 to 8) (size 9 to 14) (size 15 to 20)
#    0.000    1.778    3.333    0.667    0.000    6.222 
#    4.000    2.222    0.000    0.000    0.000    0.000 
#    0.000    0.000    0.000    0.000    0.000    0.000 
#
# Total GULP energy -446040.407270 kJ/mol
# GULP energy per Si atom -12390.011313 kJ/mol
# Density = 2.014813 g / cm^3
# Si number density = 20.194093 Si / 1000 Ang^3
#
#
#
# Elastic Constant Matrix: (Units=GPa)
#
#
# Indices 1 2 3 4 5 6 
#
# 1 117.8879 44.4000 49.0741 0.0000 0.0000 0.0000
# 2 44.4000 127.6358 62.3988 0.0000 0.0000 0.0000
# 3 49.0741 62.3988 138.0888 0.0000 0.0000 0.0000
# 4 0.0000 0.0000 0.0000 16.0551 0.0000 0.0000
# 5 0.0000 0.0000 0.0000 0.0000 29.1696 0.0000
# 6 0.0000 0.0000 0.0000 0.0000 0.0000 -6.8528
#
#
#
# Elastic Compliance Matrix: (Units=1/GPa)
#
#
# Indices 1 2 3 4 5 6 
#
# 1 0.010473 -0.002341 -0.002664 0.000000 0.000000 0.000000
# 2 -0.002341 0.010580 -0.003949 0.000000 0.000000 0.000000
# 3 -0.002664 -0.003949 0.009973 0.000000 0.000000 0.000000
# 4 0.000000 0.000000 0.000000 0.062286 0.000000 0.000000
# 5 0.000000 0.000000 0.000000 0.000000 0.034282 0.000000
# 6 0.000000 0.000000 0.000000 0.000000 0.000000 -0.145926
#
#
# Mechanical properties :
#
#
# Convention : Reuss Voigt Hill
#
# Bulk Modulus (GPa) = 76.23039 77.26201 76.74620
# Shear Modulus (GPa) = 1266.32899 22.85702 644.59300
#
# Velocity S-wave (km/s) = 25.06871 3.36797 17.88552
# Velocity P-wave (km/s) = 29.59309 7.31212 21.55479
#
# Compressibility (1/GPa) = 0.01311813
#
# Stress axis : x y z
#
# Youngs Moduli (GPa) = 95.48069 94.52207 100.27179
#
# Poissons Ratio (x) = 0.22126 0.26715
# Poissons Ratio (y) = 0.22350 0.39595
# Poissons Ratio (z) = 0.25439 0.37324
#
# Static dielectric constant tensor:
#      x y z
#    x 4.103930 0.000000 0.000000 
#    y 0.000000 3.436070 0.000000 
#    z 0.000000 0.000000 4.034110 
# 
# 
# High freq. dielectric constant tensor:
#      x y z
#    x 1.809270 0.000000 0.000000 
#    y 0.000000 1.752750 0.000000 
#    z 0.000000 0.000000 1.796040 
# 
# From -- ./inp_files/16950.got.cif
#   From: 2010.03.12/outbox.cif.g09.slc.cpg/sg68_9_cif.got.tgz:16950.got - 2010.04.10 23:14:56.
