data_PCOD8281996
_publ_section_title
;
Structure prediction by ZEFSAII (Michael W. Deem and Ramdas Pophale) SiO2 
 PCOD8281996
Probable space group: C C C A
;
_chemical_formula_sum "Si O2"
_cell_formula_units_Z 104
_cell_length_a 8.636525
_cell_length_b 23.046584
_cell_length_c 26.375331
_cell_angle_alpha 90.000000
_cell_angle_beta 90.000000
_cell_angle_gamma 90.000000
_cell_volume 5249.809154
_symmetry_space_group_name_H-M "C C C A"
_symmetry_group_IT_number 68
_space_group.IT_coordinate_system_code '2'
_symmetry_cell_setting 'orthorhombic'
loop_
_space_group_symop_operation_xyz
x,y,z
-x,1/2-y,z
x,1/2-y,1/2-z
-x,y,1/2-z
-x,-y,-z
x,1/2+y,-z
-x,1/2+y,1/2+z
x,-y,1/2+z
1/2+x,1/2+y,z
1/2-x,-y,z
1/2+x,-y,1/2-z
1/2-x,1/2+y,1/2-z
1/2-x,1/2-y,-z
1/2+x,y,-z
1/2-x,y,1/2+z
1/2+x,1/2-y,1/2+z
loop_
_atom_site_type_symbol
_atom_site_label
_atom_site_fract_x
_atom_site_fract_y
_atom_site_fract_z
Si Si1 0.594819 0.694455 0.158484
Si Si2 0.750000 0.500000 0.865645
Si Si3 0.602942 0.599379 0.297517
Si Si4 0.168986 0.881849 0.998894
Si Si5 0.065461 0.042769 0.956921
Si Si6 0.423800 0.192892 0.544267
Si Si7 0.829147 0.682747 0.240475
O O1 0.500000 0.750000 0.182288
O O2 0.500650 0.634685 0.162837
O O3 0.628986 0.708646 0.100484
O O4 0.760951 0.680329 0.183647
O O5 0.692898 0.450089 0.827849
O O6 0.898917 0.482898 0.900984
O O7 0.500000 0.574722 0.250000
O O8 0.722234 0.646810 0.277704
O O9 0.271059 0.826929 0.014814
O O10 0.065594 0.906597 0.046220
O O11 0.268070 0.933539 0.974915
O O12 0.048890 0.859303 0.956362
O O13 0.000000 0.000000 0.000000
O O14 0.500000 0.250000 0.518415
O O15 0.828221 0.750000 0.250000
O O16 0.000000 0.656803 0.250000
#
# Coordination Sequence:
#
# PCOD8281996 Si02
#       7
#    16   8  16  16  16  16  16
#     4  10  19  36  62  89 118 162 211 247 307 382
#     4  12  24  40  66  92 128 168 214 270 322 376
#     4  10  23  40  63  89 124 167 207 254 318 384
#     4  10  21  37  60  86 123 161 209 257 309 370
#     4  11  21  39  62  88 119 161 217 265 304 371
#     4  10  21  36  59  89 125 162 200 252 317 379
#     4  10  20  37  64  92 124 153 204 268 308 359
#
# _framework density 19.810244000000001
#
# number of rings (size 3 to 8) (size 9 to 14) (size 15 to 20)
#    0.000    1.692    3.077    1.385    2.154    1.846 
#    0.000    1.538    3.385    0.000    0.000    0.000 
#    0.000    0.000    0.000    0.000    0.000    0.000 
#
# Total GULP energy -644231.951216 kJ/mol
# GULP energy per Si atom -12389.075985 kJ/mol
# Density = 1.976516 g / cm^3
# Si number density = 19.810244 Si / 1000 Ang^3
#
#
#
# Elastic Constant Matrix: (Units=GPa)
#
#
# Indices 1 2 3 4 5 6 
#
# 1 110.6569 26.6464 30.9049 0.0000 0.0000 0.0000
# 2 26.6464 80.9974 26.5339 0.0000 0.0000 0.0000
# 3 30.9049 26.5339 78.1597 0.0000 0.0000 0.0000
# 4 0.0000 0.0000 0.0000 27.1152 0.0000 0.0000
# 5 0.0000 0.0000 0.0000 0.0000 23.8878 0.0000
# 6 0.0000 0.0000 0.0000 0.0000 0.0000 42.5824
#
#
#
# Elastic Compliance Matrix: (Units=1/GPa)
#
#
# Indices 1 2 3 4 5 6 
#
# 1 0.010547 -0.002367 -0.003367 0.000000 0.000000 0.000000
# 2 -0.002367 0.014422 -0.003960 0.000000 0.000000 0.000000
# 3 -0.003367 -0.003960 0.015470 0.000000 0.000000 0.000000
# 4 0.000000 0.000000 0.000000 0.036880 0.000000 0.000000
# 5 0.000000 0.000000 0.000000 0.000000 0.041862 0.000000
# 6 0.000000 0.000000 0.000000 0.000000 0.000000 0.023484
#
#
# Mechanical properties :
#
#
# Convention : Reuss Voigt Hill
#
# Bulk Modulus (GPa) = 47.50281 48.66493 48.08387
# Shear Modulus (GPa) = 29.57351 31.09900 30.33625
#
# Velocity S-wave (km/s) = 3.86792 3.96642 3.91748
# Velocity P-wave (km/s) = 6.63164 6.75245 6.69232
#
# Compressibility (1/GPa) = 0.02105139
#
# Stress axis : x y z
#
# Youngs Moduli (GPa) = 94.81172 69.33840 64.64104
#
# Poissons Ratio (x) = 0.16411 0.21764
# Poissons Ratio (y) = 0.22440 0.25599
# Poissons Ratio (z) = 0.31923 0.27459
#
# Static dielectric constant tensor:
#      x y z
#    x 4.105810 0.000000 0.000000 
#    y 0.000000 3.696920 0.000000 
#    z 0.000000 0.000000 3.356540 
# 
# 
# High freq. dielectric constant tensor:
#      x y z
#    x 1.781020 0.000000 0.000000 
#    y 0.000000 1.779790 0.000000 
#    z 0.000000 0.000000 1.749020 
# 
# From -- ./inp_files/49595.got.cif
#   From: 2010.03.12/outbox.cif.g09.slc.cpg/sg68_25_cif.got.tgz:49595.got - 2010.04.10 23:14:56.
