data_PCOD8281516
_publ_section_title
;
Structure prediction by ZEFSAII (Michael W. Deem and Ramdas Pophale) SiO2 
 PCOD8281516
Probable space group: C M M A
;
_chemical_formula_sum "Si O2"
_cell_formula_units_Z 88
_cell_length_a 14.721095
_cell_length_b 23.721029
_cell_length_c 11.971508
_cell_angle_alpha 90.000000
_cell_angle_beta 90.000000
_cell_angle_gamma 90.000000
_cell_volume 4180.444864
_symmetry_space_group_name_H-M "C M M A"
_symmetry_group_IT_number 67
_symmetry_cell_setting 'orthorhombic'
loop_
_space_group_symop_operation_xyz
x,y,z
-x,1/2-y,z
x,-y,-z
-x,1/2+y,-z
-x,-y,-z
x,1/2+y,-z
-x,y,z
x,1/2-y,z
1/2+x,1/2+y,z
1/2-x,-y,z
1/2+x,1/2-y,-z
1/2-x,y,-z
1/2-x,1/2-y,-z
1/2+x,y,-z
1/2-x,1/2+y,z
1/2+x,-y,z
loop_
_atom_site_type_symbol
_atom_site_label
_atom_site_fract_x
_atom_site_fract_y
_atom_site_fract_z
Si Si1 0.500000 0.184629 0.774496
Si Si2 0.500000 0.144831 0.022649
Si Si3 0.648924 0.882782 0.356670
Si Si4 0.143179 0.882778 0.391214
Si Si5 0.395080 0.008101 0.282944
Si Si6 0.652627 0.445168 0.054937
Si Si7 0.000000 0.813450 0.260777
O O1 0.500000 0.250000 0.741171
O O2 0.591132 0.155943 0.726628
O O3 0.500000 0.179192 0.908020
O O4 0.409632 0.107912 0.030970
O O5 0.500000 0.187644 0.126372
O O6 0.754458 0.867360 0.357652
O O7 0.614396 0.869773 0.481687
O O8 0.640867 0.947376 0.317924
O O9 0.119479 0.949239 0.385253
O O10 0.087627 0.845580 0.304894
O O11 0.500000 0.003853 0.246412
O O12 0.337291 0.038713 0.185026
O O13 0.606619 0.500000 0.000000
O O14 0.750000 0.432365 0.000000
O O15 0.000000 0.750000 0.306028
#
# Coordination Sequence:
#
# PCOD8281516 Si02
#       7
#     8   8  16  16  16  16   8
#     4  12  28  46  68  95 131 177 233 291 340 391
#     4  12  24  46  65  95 131 176 228 277 340 406
#     4  11  26  43  70  99 140 180 223 274 338 404
#     4  11  24  45  68 103 137 180 223 273 337 409
#     4  12  22  40  67 105 139 177 222 271 337 412
#     4  11  24  36  62  99 139 182 218 263 330 405
#     4  12  26  46  73  97 131 179 233 291 339 391
#
# _framework density 21.050391000000001
#
# number of rings (size 3 to 8) (size 9 to 14) (size 15 to 20)
#    0.000    0.545    4.545    3.273    7.636    4.364 
#    0.000    1.818    0.000    3.273    0.000    0.000 
#    0.000    0.000    0.000    0.000    0.000    0.000 
#
# Total GULP energy -545571.766319 kJ/mol
# GULP energy per Si atom -12399.358325 kJ/mol
# Density = 2.100248 g / cm^3
# Si number density = 21.050391 Si / 1000 Ang^3
#
#
#
# Elastic Constant Matrix: (Units=GPa)
#
#
# Indices 1 2 3 4 5 6 
#
# 1 116.3335 32.8171 52.7239 0.0000 0.0000 0.0000
# 2 32.8171 128.1791 35.3928 0.0000 0.0000 0.0000
# 3 52.7239 35.3928 135.9351 0.0000 0.0000 0.0000
# 4 0.0000 0.0000 0.0000 19.1074 0.0000 0.0000
# 5 0.0000 0.0000 0.0000 0.0000 44.6585 0.0000
# 6 0.0000 0.0000 0.0000 0.0000 0.0000 -2.5849
#
#
#
# Elastic Compliance Matrix: (Units=1/GPa)
#
#
# Indices 1 2 3 4 5 6 
#
# 1 0.010773 -0.001729 -0.003728 0.000000 0.000000 0.000000
# 2 -0.001729 0.008683 -0.001590 0.000000 0.000000 0.000000
# 3 -0.003728 -0.001590 0.009217 0.000000 0.000000 0.000000
# 4 0.000000 0.000000 0.000000 0.052336 0.000000 0.000000
# 5 0.000000 0.000000 0.000000 0.000000 0.022392 0.000000
# 6 0.000000 0.000000 0.000000 0.000000 0.000000 -0.386856
#
#
# Mechanical properties :
#
#
# Convention : Reuss Voigt Hill
#
# Bulk Modulus (GPa) = 68.59523 69.14616 68.87070
# Shear Modulus (GPa) = -18.90361 29.53710 5.31675
#
# Velocity S-wave (km/s) = -2.99994 3.74994 1.59098
# Velocity P-wave (km/s) = 4.54504 7.18809 6.01357
#
# Compressibility (1/GPa) = 0.01457827
#
# Stress axis : x y z
#
# Youngs Moduli (GPa) = 92.82070 115.16344 108.49926
#
# Poissons Ratio (x) = 0.19909 0.40454
# Poissons Ratio (y) = 0.16047 0.17255
# Poissons Ratio (z) = 0.34608 0.18315
#
# Static dielectric constant tensor:
#      x y z
#    x 4.701120 0.000000 0.000000 
#    y 0.000000 3.590190 0.000000 
#    z 0.000000 0.000000 4.083540 
# 
# 
# High freq. dielectric constant tensor:
#      x y z
#    x 1.837770 0.000000 0.000000 
#    y 0.000000 1.804430 0.000000 
#    z 0.000000 0.000000 1.842960 
# 
# From -- ./inp_files/18143.got.cif
#   From: 2010.03.12/outbox.cif.g09.slc.cpg/sg67_10_cif.got.tgz:18143.got - 2010.04.10 22:41:39.
