data_PCOD8281057
_publ_section_title
;
Structure prediction by ZEFSAII (Michael W. Deem and Ramdas Pophale) SiO2 
 PCOD8281057
Probable space group: C M M A
;
_chemical_formula_sum "Si O2"
_cell_formula_units_Z 80
_cell_length_a 23.696641
_cell_length_b 14.378594
_cell_length_c 10.724409
_cell_angle_alpha 90.000000
_cell_angle_beta 90.000000
_cell_angle_gamma 90.000000
_cell_volume 3654.067608
_symmetry_space_group_name_H-M "C M M A"
_symmetry_group_IT_number 67
_symmetry_cell_setting 'orthorhombic'
loop_
_space_group_symop_operation_xyz
x,y,z
-x,1/2-y,z
x,-y,-z
-x,1/2+y,-z
-x,-y,-z
x,1/2+y,-z
-x,y,z
x,1/2-y,z
1/2+x,1/2+y,z
1/2-x,-y,z
1/2+x,1/2-y,-z
1/2-x,y,-z
1/2-x,1/2-y,-z
1/2+x,y,-z
1/2-x,1/2+y,z
1/2+x,-y,z
loop_
_atom_site_type_symbol
_atom_site_label
_atom_site_fract_x
_atom_site_fract_y
_atom_site_fract_z
Si Si1 0.829176 0.646280 0.776348
Si Si2 0.000000 0.858423 0.856977
Si Si3 0.778206 0.142572 0.626548
Si Si4 0.609601 0.145566 0.016487
Si Si5 0.500000 0.491466 0.352741
Si Si6 0.617870 0.040759 0.267729
O O1 0.845298 0.750000 0.724663
O O2 0.764546 0.622879 0.741201
O O3 0.835925 0.645020 0.925834
O O4 0.871440 0.569951 0.718375
O O5 0.945313 0.886195 0.938091
O O6 0.000000 0.750000 0.823343
O O7 0.000000 0.912548 0.725738
O O8 0.793113 0.250000 0.613570
O O9 0.750000 0.104719 0.500000
O O10 0.836652 0.091035 0.646632
O O11 0.600539 0.250000 0.070899
O O12 0.622782 0.072996 0.124877
O O13 0.500000 0.500000 0.500000
O O14 0.444275 0.433378 0.316353
#
# Coordination Sequence:
#
# PCOD8281057 Si02
#       6
#    16   8  16  16   8  16
#     4  10  22  39  65  99 131 175 227 273 330 404
#     4  10  21  43  71  93 134 190 228 276 345 407
#     4  10  24  45  69  96 132 183 233 278 335 407
#     4  10  21  39  67 102 135 175 227 283 342 405
#     4  12  29  43  63 103 137 178 227 278 331 413
#     4  12  24  41  69  98 139 174 223 283 345 392
#
# _framework density 21.893411
#
# number of rings (size 3 to 8) (size 9 to 14) (size 15 to 20)
#    0.000    1.400    2.000    2.400    2.800    2.400 
#    0.000    8.500    0.000    0.000    0.000    0.000 
#    0.000    0.000    0.000    0.000    0.000    0.000 
#
# Total GULP energy -495962.635229 kJ/mol
# GULP energy per Si atom -12399.065881 kJ/mol
# Density = 2.184358 g / cm^3
# Si number density = 21.893411 Si / 1000 Ang^3
#
#
#
# Elastic Constant Matrix: (Units=GPa)
#
#
# Indices 1 2 3 4 5 6 
#
# 1 172.2742 63.6408 72.9737 0.0000 0.0000 0.0000
# 2 63.6408 103.4478 47.1588 0.0000 0.0000 0.0000
# 3 72.9737 47.1588 131.8124 0.0000 0.0000 0.0000
# 4 0.0000 0.0000 0.0000 27.0910 0.0000 0.0000
# 5 0.0000 0.0000 0.0000 0.0000 39.8166 0.0000
# 6 0.0000 0.0000 0.0000 0.0000 0.0000 29.5371
#
#
#
# Elastic Compliance Matrix: (Units=1/GPa)
#
#
# Indices 1 2 3 4 5 6 
#
# 1 0.008650 -0.003750 -0.003447 0.000000 0.000000 0.000000
# 2 -0.003750 0.013176 -0.002638 0.000000 0.000000 0.000000
# 3 -0.003447 -0.002638 0.010439 0.000000 0.000000 0.000000
# 4 0.000000 0.000000 0.000000 0.036913 0.000000 0.000000
# 5 0.000000 0.000000 0.000000 0.000000 0.025115 0.000000
# 6 0.000000 0.000000 0.000000 0.000000 0.000000 0.033856
#
#
# Mechanical properties :
#
#
# Convention : Reuss Voigt Hill
#
# Bulk Modulus (GPa) = 79.39858 86.12011 82.75934
# Shear Modulus (GPa) = 32.89086 34.20636 33.54861
#
# Velocity S-wave (km/s) = 3.88018 3.95701 3.91879
# Velocity P-wave (km/s) = 7.51126 7.76523 7.63930
#
# Compressibility (1/GPa) = 0.01259468
#
# Stress axis : x y z
#
# Youngs Moduli (GPa) = 115.60322 75.89350 95.79643
#
# Poissons Ratio (x) = 0.28461 0.33024
# Poissons Ratio (y) = 0.43353 0.25271
# Poissons Ratio (z) = 0.39851 0.20021
#
# Static dielectric constant tensor:
#      x y z
#    x 4.159300 0.000000 0.000000 
#    y 0.000000 4.090330 0.000000 
#    z 0.000000 0.000000 3.840960 
# 
# 
# High freq. dielectric constant tensor:
#      x y z
#    x 1.864370 0.000000 0.000000 
#    y 0.000000 1.867930 0.000000 
#    z 0.000000 0.000000 1.846470 
# 
# From -- ./inp_files/21673.got.cif
#   From: 2010.03.12/outbox.cif.g09.slc.cpg/sg67_11_cif.got.tgz:21673.got - 2010.04.10 22:41:39.
