data_PCOD8281968
_publ_section_title
;
Structure prediction by ZEFSAII (Michael W. Deem and Ramdas Pophale) SiO2 
 PCOD8281968
Probable space group: C C C A
;
_chemical_formula_sum "Si O2"
_cell_formula_units_Z 64
_cell_length_a 13.329330
_cell_length_b 12.121870
_cell_length_c 18.090361
_cell_angle_alpha 90.000000
_cell_angle_beta 90.000000
_cell_angle_gamma 90.000000
_cell_volume 2922.975504
_symmetry_space_group_name_H-M "C C C A"
_symmetry_group_IT_number 68
_space_group.IT_coordinate_system_code '2'
_symmetry_cell_setting 'orthorhombic'
loop_
_space_group_symop_operation_xyz
x,y,z
-x,1/2-y,z
x,1/2-y,1/2-z
-x,y,1/2-z
-x,-y,-z
x,1/2+y,-z
-x,1/2+y,1/2+z
x,-y,1/2+z
1/2+x,1/2+y,z
1/2-x,-y,z
1/2+x,-y,1/2-z
1/2-x,1/2+y,1/2-z
1/2-x,1/2-y,-z
1/2+x,y,-z
1/2-x,y,1/2+z
1/2+x,1/2-y,1/2+z
loop_
_atom_site_type_symbol
_atom_site_label
_atom_site_fract_x
_atom_site_fract_y
_atom_site_fract_z
Si Si1 0.818955 0.897906 0.964199
Si Si2 0.650478 0.436279 0.294735
Si Si3 0.443116 0.039256 0.139965
Si Si4 0.850491 0.750141 0.402033
O O1 0.754989 0.810184 0.917701
O O2 0.750000 0.000000 0.990416
O O3 0.908613 0.940434 0.912427
O O4 0.870116 0.842133 0.035292
O O5 0.750000 0.500000 0.319387
O O6 0.635971 0.443923 0.206964
O O7 0.553966 0.492193 0.333827
O O8 0.657634 0.309902 0.322432
O O9 0.440332 0.158897 0.098741
#
# Coordination Sequence:
#
# PCOD8281968 Si02
#       4
#    16  16  16  16
#     4   9  19  37  59  88 123 155 191 240 296 344
#     4  11  22  38  60  87 119 154 194 240 291 349
#     4  10  22  39  60  87 118 153 194 242 293 346
#     4  10  19  35  62  89 116 152 195 241 287 344
#
# _framework density 21.895496000000001
#
# number of rings (size 3 to 8) (size 9 to 14) (size 15 to 20)
#    0.000    2.000    0.000    4.500    0.000    3.000 
#    0.000    6.250    0.000    3.000    0.000    0.000 
#    0.000    0.000    0.000    0.000    0.000    0.000 
#
# Total GULP energy -396848.660220 kJ/mol
# GULP energy per Si atom -12401.520632 kJ/mol
# Density = 2.184566 g / cm^3
# Si number density = 21.895496 Si / 1000 Ang^3
#
#
#
# Elastic Constant Matrix: (Units=GPa)
#
#
# Indices 1 2 3 4 5 6 
#
# 1 106.0358 40.1249 41.3504 0.0000 0.0000 0.0000
# 2 40.1249 109.6213 58.8834 0.0000 0.0000 0.0000
# 3 41.3504 58.8834 113.2034 0.0000 0.0000 0.0000
# 4 0.0000 0.0000 0.0000 35.8213 0.0000 0.0000
# 5 0.0000 0.0000 0.0000 0.0000 32.9776 0.0000
# 6 0.0000 0.0000 0.0000 0.0000 0.0000 25.7105
#
#
#
# Elastic Compliance Matrix: (Units=1/GPa)
#
#
# Indices 1 2 3 4 5 6 
#
# 1 0.011555 -0.002723 -0.002804 0.000000 0.000000 0.000000
# 2 -0.002723 0.013301 -0.005924 0.000000 0.000000 0.000000
# 3 -0.002804 -0.005924 0.012939 0.000000 0.000000 0.000000
# 4 0.000000 0.000000 0.000000 0.027916 0.000000 0.000000
# 5 0.000000 0.000000 0.000000 0.000000 0.030324 0.000000
# 6 0.000000 0.000000 0.000000 0.000000 0.000000 0.038895
#
#
# Mechanical properties :
#
#
# Convention : Reuss Voigt Hill
#
# Bulk Modulus (GPa) = 67.14727 67.73087 67.43907
# Shear Modulus (GPa) = 30.71314 31.46867 31.09090
#
# Velocity S-wave (km/s) = 3.74935 3.79518 3.77233
# Velocity P-wave (km/s) = 7.03400 7.08558 7.05984
#
# Compressibility (1/GPa) = 0.01489264
#
# Stress axis : x y z
#
# Youngs Moduli (GPa) = 86.54420 75.18147 77.28354
#
# Poissons Ratio (x) = 0.20473 0.21672
# Poissons Ratio (y) = 0.23567 0.45783
# Poissons Ratio (z) = 0.24269 0.44537
#
# Static dielectric constant tensor:
#      x y z
#    x 3.781320 0.000000 0.000000 
#    y 0.000000 3.918270 0.000000 
#    z 0.000000 0.000000 4.016300 
# 
# 
# High freq. dielectric constant tensor:
#      x y z
#    x 1.859760 0.000000 0.000000 
#    y 0.000000 1.855720 0.000000 
#    z 0.000000 0.000000 1.865930 
# 
# From -- ./inp_files/29110.got.cif
#   From: 2010.03.12/outbox.cif.g09.slc.cpg/sg68_15_cif.got.tgz:29110.got - 2010.04.10 23:14:56.
