data_PCOD8281606
_publ_section_title
;
Structure prediction by ZEFSAII (Michael W. Deem and Ramdas Pophale) SiO2 
 PCOD8281606
Probable space group: C M M A
;
_chemical_formula_sum "Si O2"
_cell_formula_units_Z 64
_cell_length_a 10.315174
_cell_length_b 32.806516
_cell_length_c 9.655960
_cell_angle_alpha 90.000000
_cell_angle_beta 90.000000
_cell_angle_gamma 90.000000
_cell_volume 3267.624380
_symmetry_space_group_name_H-M "C M M A"
_symmetry_group_IT_number 67
_symmetry_cell_setting 'orthorhombic'
loop_
_space_group_symop_operation_xyz
x,y,z
-x,1/2-y,z
x,-y,-z
-x,1/2+y,-z
-x,-y,-z
x,1/2+y,-z
-x,y,z
x,1/2-y,z
1/2+x,1/2+y,z
1/2-x,-y,z
1/2+x,1/2-y,-z
1/2-x,y,-z
1/2-x,1/2-y,-z
1/2+x,y,-z
1/2-x,1/2+y,z
1/2+x,-y,z
loop_
_atom_site_type_symbol
_atom_site_label
_atom_site_fract_x
_atom_site_fract_y
_atom_site_fract_z
Si Si1 0.646801 0.652801 0.888286
Si Si2 0.361158 0.542638 0.581012
Si Si3 0.646668 0.057507 0.112311
Si Si4 0.352896 0.297023 0.385353
O O1 0.500000 0.661511 0.940453
O O2 0.667824 0.605163 0.860433
O O3 0.676503 0.676127 0.747921
O O4 0.750000 0.668934 0.000000
O O5 0.371304 0.500000 0.500000
O O6 0.500000 0.565733 0.572102
O O7 0.250000 0.568627 0.500000
O O8 0.326191 0.535160 0.741664
O O9 0.500000 0.048521 0.059078
O O10 0.750000 0.040826 0.000000
O O11 0.500000 0.304276 0.439194
O O12 0.331779 0.250000 0.344862
O O13 0.250000 0.310985 0.500000
#
# Coordination Sequence:
#
# PCOD8281606 Si02
#       4
#    16  16  16  16
#     4   9  18  32  49  71  98 126 160 201 242 285
#     4   9  18  33  51  71  96 124 155 192 235 284
#     4   9  18  33  52  73  97 126 160 198 240 286
#     4   9  18  32  48  68  97 131 165 201 240 283
#
# _framework density 19.586093999999999
#
# number of rings (size 3 to 8) (size 9 to 14) (size 15 to 20)
#    0.000    3.000    0.000    0.000    0.000    3.500 
#    0.000    2.500    0.000   13.500    0.000    0.000 
#    0.000    0.000    0.000    0.000    0.000    0.000 
#
# Total GULP energy -396548.286243 kJ/mol
# GULP energy per Si atom -12392.133945 kJ/mol
# Density = 1.954152 g / cm^3
# Si number density = 19.586094 Si / 1000 Ang^3
#
#
#
# Elastic Constant Matrix: (Units=GPa)
#
#
# Indices 1 2 3 4 5 6 
#
# 1 175.3178 24.6401 114.7189 0.0000 0.0000 0.0000
# 2 24.6401 38.4648 37.3422 0.0000 0.0000 0.0000
# 3 114.7189 37.3422 162.1505 0.0000 0.0000 0.0000
# 4 0.0000 0.0000 0.0000 28.7818 0.0000 0.0000
# 5 0.0000 0.0000 0.0000 0.0000 46.7755 0.0000
# 6 0.0000 0.0000 0.0000 0.0000 0.0000 -10.1727
#
#
#
# Elastic Compliance Matrix: (Units=1/GPa)
#
#
# Indices 1 2 3 4 5 6 
#
# 1 0.010633 0.000633 -0.007668 0.000000 0.000000 0.000000
# 2 0.000633 0.033522 -0.008168 0.000000 0.000000 0.000000
# 3 -0.007668 -0.008168 0.013473 0.000000 0.000000 0.000000
# 4 0.000000 0.000000 0.000000 0.034744 0.000000 0.000000
# 5 0.000000 0.000000 0.000000 0.000000 0.021379 0.000000
# 6 0.000000 0.000000 0.000000 0.000000 0.000000 -0.098302
#
#
# Mechanical properties :
#
#
# Convention : Reuss Voigt Hill
#
# Bulk Modulus (GPa) = 36.73511 81.03729 58.88620
# Shear Modulus (GPa) = 91.02878 26.35903 58.69391
#
# Velocity S-wave (km/s) = 6.82474 3.67250 5.48016
# Velocity P-wave (km/s) = 8.99440 7.71024 8.37696
#
# Compressibility (1/GPa) = 0.02722191
#
# Stress axis : x y z
#
# Youngs Moduli (GPa) = 94.04998 29.83150 74.22081
#
# Poissons Ratio (x) = -0.01889 0.56915
# Poissons Ratio (y) = -0.05957 0.60623
# Poissons Ratio (z) = 0.72120 0.24366
#
# Static dielectric constant tensor:
#      x y z
#    x 9.324230 0.000000 0.000000 
#    y 0.000000 3.289540 0.000000 
#    z 0.000000 0.000000 3.597640 
# 
# 
# High freq. dielectric constant tensor:
#      x y z
#    x 1.785500 0.000000 0.000000 
#    y 0.000000 1.735910 0.000000 
#    z 0.000000 0.000000 1.757930 
# 
# From -- ./inp_files/6702.got.cif
#   From: 2010.03.12/outbox.cif.g09.slc.cpg/sg67_4_cif.got.tgz:6702.got - 2010.04.10 22:41:39.
