data_PCOD8281925
_publ_section_title
;
Structure prediction by ZEFSAII (Michael W. Deem and Ramdas Pophale) SiO2 
 PCOD8281925
Probable space group: C C C A
;
_chemical_formula_sum "Si O2"
_cell_formula_units_Z 104
_cell_length_a 23.540865
_cell_length_b 14.644437
_cell_length_c 15.001318
_cell_angle_alpha 90.000000
_cell_angle_beta 90.000000
_cell_angle_gamma 90.000000
_cell_volume 5171.595087
_symmetry_space_group_name_H-M "C C C A"
_symmetry_group_IT_number 68
_space_group.IT_coordinate_system_code '2'
_symmetry_cell_setting 'orthorhombic'
loop_
_space_group_symop_operation_xyz
x,y,z
-x,1/2-y,z
x,1/2-y,1/2-z
-x,y,1/2-z
-x,-y,-z
x,1/2+y,-z
-x,1/2+y,1/2+z
x,-y,1/2+z
1/2+x,1/2+y,z
1/2-x,-y,z
1/2+x,-y,1/2-z
1/2-x,1/2+y,1/2-z
1/2-x,1/2-y,-z
1/2+x,y,-z
1/2-x,y,1/2+z
1/2+x,1/2-y,1/2+z
loop_
_atom_site_type_symbol
_atom_site_label
_atom_site_fract_x
_atom_site_fract_y
_atom_site_fract_z
Si Si1 0.703456 0.075439 0.040149
Si Si2 0.913555 0.495543 0.510570
Si Si3 0.112561 0.496866 0.290603
Si Si4 0.314036 0.842627 0.779236
Si Si5 0.501472 0.354287 0.944782
Si Si6 0.719297 0.903271 0.343342
Si Si7 0.500000 0.408374 0.750000
O O1 0.703613 0.152488 0.116981
O O2 0.750000 0.000000 0.064846
O O3 0.644554 0.020189 0.037922
O O4 0.715281 0.128024 0.946790
O O5 0.903823 0.465524 0.612339
O O6 0.939146 0.405728 0.462968
O O7 0.953474 0.585544 0.505943
O O8 0.143335 0.574983 0.235743
O O9 0.155932 0.411209 0.302019
O O10 0.056202 0.470109 0.236153
O O11 0.346327 0.750000 0.750000
O O12 0.257507 0.838093 0.717094
O O13 0.500000 0.250000 0.981473
O O14 0.490614 0.348349 0.838397
O O15 0.750000 0.000000 0.343026
#
# Coordination Sequence:
#
# PCOD8281925 Si02
#       7
#    16  16  16  16  16  16   8
#     4  10  19  36  60  77 101 146 184 217 272 331
#     4   9  20  37  57  80 107 147 185 220 275 325
#     4   9  18  36  55  74 107 144 181 225 268 323
#     4  11  22  34  53  83 112 139 178 227 277 331
#     4  10  20  35  56  82 111 141 181 229 272 321
#     4   8  17  35  54  74 103 137 178 222 262 315
#     4  10  19  34  57  80 104 142 185 222 268 318
#
# _framework density 20.109850000000002
#
# number of rings (size 3 to 8) (size 9 to 14) (size 15 to 20)
#    0.000    2.462    0.000    3.462    0.000    1.846 
#    0.000    9.615    0.000    0.000    0.000    0.000 
#    0.000    0.000    0.000    0.000    0.000    0.000 
#
# Total GULP energy -644600.998463 kJ/mol
# GULP energy per Si atom -12396.173047 kJ/mol
# Density = 2.006408 g / cm^3
# Si number density = 20.109850 Si / 1000 Ang^3
#
#
#
# Elastic Constant Matrix: (Units=GPa)
#
#
# Indices 1 2 3 4 5 6 
#
# 1 120.4641 28.1570 28.3252 0.0000 0.0000 0.0000
# 2 28.1570 87.7150 35.0752 0.0000 0.0000 0.0000
# 3 28.3252 35.0752 85.8458 0.0000 0.0000 0.0000
# 4 0.0000 0.0000 0.0000 15.4019 0.0000 0.0000
# 5 0.0000 0.0000 0.0000 0.0000 22.4482 0.0000
# 6 0.0000 0.0000 0.0000 0.0000 0.0000 6.5524
#
#
#
# Elastic Compliance Matrix: (Units=1/GPa)
#
#
# Indices 1 2 3 4 5 6 
#
# 1 0.009314 -0.002105 -0.002213 0.000000 0.000000 0.000000
# 2 -0.002105 0.014103 -0.005068 0.000000 0.000000 0.000000
# 3 -0.002213 -0.005068 0.014450 0.000000 0.000000 0.000000
# 4 0.000000 0.000000 0.000000 0.064927 0.000000 0.000000
# 5 0.000000 0.000000 0.000000 0.000000 0.044547 0.000000
# 6 0.000000 0.000000 0.000000 0.000000 0.000000 0.152616
#
#
# Mechanical properties :
#
#
# Convention : Reuss Voigt Hill
#
# Bulk Modulus (GPa) = 52.37022 53.01552 52.69287
# Shear Modulus (GPa) = 15.38026 22.37832 18.87929
#
# Velocity S-wave (km/s) = 2.76852 3.33949 3.06732
# Velocity P-wave (km/s) = 6.02646 6.42571 6.22929
#
# Compressibility (1/GPa) = 0.01909482
#
# Stress axis : x y z
#
# Youngs Moduli (GPa) = 107.37037 70.90880 69.20621
#
# Poissons Ratio (x) = 0.14924 0.15316
# Poissons Ratio (y) = 0.22599 0.35071
# Poissons Ratio (z) = 0.23762 0.35934
#
# Static dielectric constant tensor:
#      x y z
#    x 3.926880 0.000000 0.000000 
#    y 0.000000 3.205570 0.000000 
#    z 0.000000 0.000000 3.748180 
# 
# 
# High freq. dielectric constant tensor:
#      x y z
#    x 1.792600 0.000000 0.000000 
#    y 0.000000 1.744580 0.000000 
#    z 0.000000 0.000000 1.794720 
# 
# From -- ./inp_files/33674.got.cif
#   From: 2010.03.12/outbox.cif.g09.slc.cpg/sg68_17_cif.got.tgz:33674.got - 2010.04.10 23:14:56.
