data_PCOD8281127
_publ_section_title
;
Structure prediction by ZEFSAII (Michael W. Deem and Ramdas Pophale) SiO2 
 PCOD8281127
Probable space group: C M M A
;
_chemical_formula_sum "Si O2"
_cell_formula_units_Z 80
_cell_length_a 24.555759
_cell_length_b 14.319857
_cell_length_c 9.096917
_cell_angle_alpha 90.000000
_cell_angle_beta 90.000000
_cell_angle_gamma 90.000000
_cell_volume 3198.794022
_symmetry_space_group_name_H-M "C M M A"
_symmetry_group_IT_number 67
_symmetry_cell_setting 'orthorhombic'
loop_
_space_group_symop_operation_xyz
x,y,z
-x,1/2-y,z
x,-y,-z
-x,1/2+y,-z
-x,-y,-z
x,1/2+y,-z
-x,y,z
x,1/2-y,z
1/2+x,1/2+y,z
1/2-x,-y,z
1/2+x,1/2-y,-z
1/2-x,y,-z
1/2-x,1/2-y,-z
1/2+x,y,-z
1/2-x,1/2+y,z
1/2+x,-y,z
loop_
_atom_site_type_symbol
_atom_site_label
_atom_site_fract_x
_atom_site_fract_y
_atom_site_fract_z
Si Si1 0.438554 0.354479 0.704567
Si Si2 0.863043 0.992371 0.807810
Si Si3 0.194867 0.351705 0.913455
Si Si4 0.277226 0.144188 0.680595
Si Si5 0.644606 0.355346 0.434839
O O1 0.500000 0.379512 0.656869
O O2 0.436343 0.250000 0.770904
O O3 0.417256 0.429418 0.827007
O O4 0.397485 0.363941 0.569358
O O5 0.849367 0.066254 0.944673
O O6 0.873656 0.063150 0.673281
O O7 0.811081 0.924851 0.785637
O O8 0.169114 0.250000 0.941186
O O9 0.213213 0.365816 0.737041
O O10 0.250000 0.364717 0.000000
O O11 0.294853 0.250000 0.722713
O O12 0.293904 0.128307 0.508367
O O13 0.640085 0.250000 0.367339
#
# Coordination Sequence:
#
# PCOD8281127 Si02
#       5
#    16  16  16  16  16
#     4   9  18  33  53  79 114 151 182 219 275 342
#     4  11  19  30  52  78 107 139 179 226 267 316
#     4  10  22  38  53  72 101 140 184 226 272 325
#     4   9  18  32  49  71 102 139 177 220 268 320
#     4   9  18  31  48  76 110 141 178 223 272 323
#
# _framework density 25.009425
#
# number of rings (size 3 to 8) (size 9 to 14) (size 15 to 20)
#    0.000    2.400    0.000    5.400    0.000    4.000 
#    0.000    7.000    0.000    3.600    0.000   12.600 
#    0.000   19.200    0.000   19.600    0.000    0.000 
#
# Total GULP energy -495548.324749 kJ/mol
# GULP energy per Si atom -12388.708119 kJ/mol
# Density = 2.495250 g / cm^3
# Si number density = 25.009425 Si / 1000 Ang^3
#
#
#
# Elastic Constant Matrix: (Units=GPa)
#
#
# Indices 1 2 3 4 5 6 
#
# 1 110.2180 76.4813 6.8842 0.0000 0.0000 0.0000
# 2 76.4813 208.0651 24.9072 0.0000 0.0000 0.0000
# 3 6.8842 24.9072 41.1786 0.0000 0.0000 0.0000
# 4 0.0000 0.0000 0.0000 9.6562 0.0000 0.0000
# 5 0.0000 0.0000 0.0000 0.0000 14.2463 0.0000
# 6 0.0000 0.0000 0.0000 0.0000 0.0000 40.8546
#
#
#
# Elastic Compliance Matrix: (Units=1/GPa)
#
#
# Indices 1 2 3 4 5 6 
#
# 1 0.012200 -0.004571 0.000725 0.000000 0.000000 0.000000
# 2 -0.004571 0.006894 -0.003406 0.000000 0.000000 0.000000
# 3 0.000725 -0.003406 0.026223 0.000000 0.000000 0.000000
# 4 0.000000 0.000000 0.000000 0.103560 0.000000 0.000000
# 5 0.000000 0.000000 0.000000 0.000000 0.070194 0.000000
# 6 0.000000 0.000000 0.000000 0.000000 0.000000 0.024477
#
#
# Mechanical properties :
#
#
# Convention : Reuss Voigt Hill
#
# Bulk Modulus (GPa) = 32.45294 64.00077 48.22686
# Shear Modulus (GPa) = 18.63428 29.69735 24.16582
#
# Velocity S-wave (km/s) = 2.73260 3.44967 3.11186
# Velocity P-wave (km/s) = 4.79172 6.44307 5.67775
#
# Compressibility (1/GPa) = 0.03081385
#
# Stress axis : x y z
#
# Youngs Moduli (GPa) = 81.96972 145.04950 38.13415
#
# Poissons Ratio (x) = 0.66305 -0.02766
# Poissons Ratio (y) = 0.37470 0.12988
# Poissons Ratio (z) = -0.05946 0.49401
#
# Static dielectric constant tensor:
#      x y z
#    x 4.516790 0.000000 0.000000 
#    y 0.000000 5.349140 0.000000 
#    z 0.000000 0.000000 5.483250 
# 
# 
# High freq. dielectric constant tensor:
#      x y z
#    x 1.949460 0.000000 0.000000 
#    y 0.000000 2.033120 0.000000 
#    z 0.000000 0.000000 2.017530 
# 
# From -- ./inp_files/22751.got.cif
#   From: 2010.03.12/outbox.cif.g09.slc.cpg/sg67_12_cif.got.tgz:22751.got - 2010.04.10 22:41:39.
