data_PCOD8281629
_publ_section_title
;
Structure prediction by ZEFSAII (Michael W. Deem and Ramdas Pophale) SiO2 
 PCOD8281629
Probable space group: C C C A
;
_chemical_formula_sum "Si O2"
_cell_formula_units_Z 104
_cell_length_a 17.236828
_cell_length_b 17.855458
_cell_length_c 22.943450
_cell_angle_alpha 90.000000
_cell_angle_beta 90.000000
_cell_angle_gamma 90.000000
_cell_volume 7061.339067
_symmetry_space_group_name_H-M "C C C A"
_symmetry_group_IT_number 68
_space_group.IT_coordinate_system_code '2'
_symmetry_cell_setting 'orthorhombic'
loop_
_space_group_symop_operation_xyz
x,y,z
-x,1/2-y,z
x,1/2-y,1/2-z
-x,y,1/2-z
-x,-y,-z
x,1/2+y,-z
-x,1/2+y,1/2+z
x,-y,1/2+z
1/2+x,1/2+y,z
1/2-x,-y,z
1/2+x,-y,1/2-z
1/2-x,1/2+y,1/2-z
1/2-x,1/2-y,-z
1/2+x,y,-z
1/2-x,y,1/2+z
1/2+x,1/2-y,1/2+z
loop_
_atom_site_type_symbol
_atom_site_label
_atom_site_fract_x
_atom_site_fract_y
_atom_site_fract_z
Si Si1 0.500000 0.032303 0.934764
Si Si2 0.250000 0.000000 0.000000
Si Si3 0.590445 0.836672 0.684167
Si Si4 0.590445 0.336672 0.184167
Si Si5 0.625513 0.923431 0.921665
Si Si6 1.000000 0.837932 0.493070
Si Si7 0.374487 0.423431 0.078335
O O1 0.577684 0.999432 0.905424
O O2 0.422316 0.999432 0.905424
O O3 0.500000 0.122422 0.942246
O O4 0.500000 0.000000 0.000000
O O5 0.200830 0.054513 0.958361
O O6 0.299170 0.054513 0.041639
O O7 0.606817 0.863714 0.750000
O O8 0.500000 0.849372 0.668019
O O9 0.611935 0.750000 0.677683
O O10 0.644863 0.884345 0.640273
O O11 0.644863 0.384345 0.140273
O O12 0.576547 0.862841 0.958319
O O13 0.076547 0.862841 0.458320
O O14 0.000000 0.750000 0.503029
#
# Coordination Sequence:
#
# PCOD8281629 Si02
#       7
#    16   8  16  16  16  16  16
#     4   8  14  28  42  60  85 118 153 183 219 256
#     4  12  20  30  44  64 100 130 154 174 216 274
#     4   9  16  27  47  72  91 111 146 193 235 265
#     4   9  16  27  47  72  91 111 146 193 235 265
#     4  10  17  29  45  65  93 123 148 184 224 268
#     4  10  16  28  46  64  87 118 155 192 229 262
#     4  10  17  29  45  65  93 123 148 184 224 268
#
# _framework density 14.728085
#
# number of rings (size 3 to 8) (size 9 to 14) (size 15 to 20)
#    0.000    2.769    7.692    1.846    0.000    0.000 
#    0.000    3.846    0.000    0.000    0.000    0.000 
#    0.000    2.462    0.000    0.000    0.000    2.769 
#
# Total GULP energy -644207.006285 kJ/mol
# GULP energy per Si atom -12388.596275 kJ/mol
# Density = 1.469456 g / cm^3
# Si number density = 14.728085 Si / 1000 Ang^3
#
#
#
# Elastic Constant Matrix: (Units=GPa)
#
#
# Indices 1 2 3 4 5 6 
#
# 1 67.5231 31.8519 38.3664 0.0000 0.0000 0.0000
# 2 31.8519 106.0404 51.4360 0.0000 0.0000 0.0000
# 3 38.3664 51.4360 98.8349 0.0000 0.0000 0.0000
# 4 0.0000 0.0000 0.0000 29.8407 0.0000 0.0000
# 5 0.0000 0.0000 0.0000 0.0000 10.0278 0.0000
# 6 0.0000 0.0000 0.0000 0.0000 0.0000 10.3740
#
#
#
# Elastic Compliance Matrix: (Units=1/GPa)
#
#
# Indices 1 2 3 4 5 6 
#
# 1 0.019666 -0.002949 -0.006100 0.000000 0.000000 0.000000
# 2 -0.002949 0.013057 -0.005651 0.000000 0.000000 0.000000
# 3 -0.006100 -0.005651 0.015426 0.000000 0.000000 0.000000
# 4 0.000000 0.000000 0.000000 0.033511 0.000000 0.000000
# 5 0.000000 0.000000 0.000000 0.000000 0.099723 0.000000
# 6 0.000000 0.000000 0.000000 0.000000 0.000000 0.096395
#
#
# Mechanical properties :
#
#
# Convention : Reuss Voigt Hill
#
# Bulk Modulus (GPa) = 53.32745 57.30080 55.31413
# Shear Modulus (GPa) = 15.95268 20.09811 18.02540
#
# Velocity S-wave (km/s) = 3.29469 3.69807 3.50219
# Velocity P-wave (km/s) = 7.12460 7.56469 7.34794
#
# Compressibility (1/GPa) = 0.01875207
#
# Stress axis : x y z
#
# Youngs Moduli (GPa) = 50.84789 76.58788 64.82398
#
# Poissons Ratio (x) = 0.22583 0.39541
# Poissons Ratio (y) = 0.14993 0.36629
# Poissons Ratio (z) = 0.31016 0.43276
#
# Static dielectric constant tensor:
#      x y z
#    x 2.597400 0.000000 0.000000 
#    y 0.000000 3.136630 0.000000 
#    z 0.000000 0.000000 2.894670 
# 
# 
# High freq. dielectric constant tensor:
#      x y z
#    x 1.524360 0.000000 0.000000 
#    y 0.000000 1.555660 0.000000 
#    z 0.000000 0.000000 1.546150 
# 
# From -- ./inp_files/45634.got.cif
#   From: 2010.03.12/outbox.cif.g09.slc.cpg/sg68_23_cif.got.tgz:45634.got - 2010.04.10 23:14:56.
