data_PCOD8281940
_publ_section_title
;
Structure prediction by ZEFSAII (Michael W. Deem and Ramdas Pophale) SiO2 
 PCOD8281940
Probable space group: C C C A
;
_chemical_formula_sum "Si O2"
_cell_formula_units_Z 104
_cell_length_a 13.423958
_cell_length_b 19.349259
_cell_length_c 21.207568
_cell_angle_alpha 90.000000
_cell_angle_beta 90.000000
_cell_angle_gamma 90.000000
_cell_volume 5508.530911
_symmetry_space_group_name_H-M "C C C A"
_symmetry_group_IT_number 68
_space_group.IT_coordinate_system_code '2'
_symmetry_cell_setting 'orthorhombic'
loop_
_space_group_symop_operation_xyz
x,y,z
-x,1/2-y,z
x,1/2-y,1/2-z
-x,y,1/2-z
-x,-y,-z
x,1/2+y,-z
-x,1/2+y,1/2+z
x,-y,1/2+z
1/2+x,1/2+y,z
1/2-x,-y,z
1/2+x,-y,1/2-z
1/2-x,1/2+y,1/2-z
1/2-x,1/2-y,-z
1/2+x,y,-z
1/2-x,y,1/2+z
1/2+x,1/2-y,1/2+z
loop_
_atom_site_type_symbol
_atom_site_label
_atom_site_fract_x
_atom_site_fract_y
_atom_site_fract_z
Si Si1 0.397366 0.915486 0.224571
Si Si2 0.386714 0.598909 0.613758
Si Si3 0.750000 0.000000 0.189470
Si Si4 0.171930 0.058423 0.021275
Si Si5 0.616546 0.742165 0.824044
Si Si6 0.247285 0.364907 0.868337
Si Si7 0.415334 0.471918 0.371661
O O1 0.500000 0.879836 0.250000
O O2 0.341282 0.860497 0.179222
O O3 0.313953 0.942815 0.272999
O O4 0.442889 0.979489 0.186147
O O5 0.328370 0.536860 0.644880
O O6 0.372921 0.597131 0.538743
O O7 0.350242 0.668893 0.647492
O O8 0.504105 0.588628 0.623990
O O9 0.217632 0.123432 0.059821
O O10 0.250000 0.000000 0.999423
O O11 0.090759 0.017996 0.064501
O O12 0.500000 0.750000 0.836378
O O13 0.641979 0.750000 0.750000
O O14 0.678748 0.797975 0.863330
O O15 0.188435 0.435785 0.852807
#
# Coordination Sequence:
#
# PCOD8281940 Si02
#       7
#    16  16   8  16  16  16  16
#     4  11  20  33  58  88 118 159 195 248 310 364
#     4  12  22  36  59  88 121 155 197 255 300 353
#     4  12  22  32  54  90 120 142 202 248 300 350
#     4   9  20  37  58  87 121 157 200 247 296 359
#     4  11  24  38  60  88 119 158 202 249 299 360
#     4  10  20  40  58  85 122 163 200 241 306 367
#     4  10  19  34  61  87 119 158 194 252 307 353
#
# _framework density 18.879807
#
# number of rings (size 3 to 8) (size 9 to 14) (size 15 to 20)
#    0.000    1.385    5.385    2.308    0.000    0.615 
#    0.000    0.000    0.000    4.154    0.000    0.000 
#    0.000    0.000    0.000    0.000    0.000    0.000 
#
# Total GULP energy -644505.482328 kJ/mol
# GULP energy per Si atom -12394.336199 kJ/mol
# Density = 1.883684 g / cm^3
# Si number density = 18.879807 Si / 1000 Ang^3
#
#
#
# Elastic Constant Matrix: (Units=GPa)
#
#
# Indices 1 2 3 4 5 6 
#
# 1 81.9495 16.4937 32.9563 0.0000 0.0000 0.0000
# 2 16.4937 83.6802 34.7074 0.0000 0.0000 0.0000
# 3 32.9563 34.7074 94.5982 0.0000 0.0000 0.0000
# 4 0.0000 0.0000 0.0000 19.1240 0.0000 0.0000
# 5 0.0000 0.0000 0.0000 0.0000 26.7587 0.0000
# 6 0.0000 0.0000 0.0000 0.0000 0.0000 33.0846
#
#
#
# Elastic Compliance Matrix: (Units=1/GPa)
#
#
# Indices 1 2 3 4 5 6 
#
# 1 0.014246 -0.000884 -0.004639 0.000000 0.000000 0.000000
# 2 -0.000884 0.014150 -0.004884 0.000000 0.000000 0.000000
# 3 -0.004639 -0.004884 0.013979 0.000000 0.000000 0.000000
# 4 0.000000 0.000000 0.000000 0.052290 0.000000 0.000000
# 5 0.000000 0.000000 0.000000 0.000000 0.037371 0.000000
# 6 0.000000 0.000000 0.000000 0.000000 0.000000 0.030226
#
#
# Mechanical properties :
#
#
# Convention : Reuss Voigt Hill
#
# Bulk Modulus (GPa) = 46.37723 47.61585 46.99654
# Shear Modulus (GPa) = 26.27958 27.53149 26.90554
#
# Velocity S-wave (km/s) = 3.73492 3.82285 3.77914
# Velocity P-wave (km/s) = 6.57399 6.69035 6.63242
#
# Compressibility (1/GPa) = 0.02156230
#
# Stress axis : x y z
#
# Youngs Moduli (GPa) = 70.19494 70.67127 71.53673
#
# Poissons Ratio (x) = 0.06247 0.33184
# Poissons Ratio (y) = 0.06205 0.34936
# Poissons Ratio (z) = 0.32562 0.34513
#
# Static dielectric constant tensor:
#      x y z
#    x 3.571810 0.000000 0.000000 
#    y 0.000000 3.143520 0.000000 
#    z 0.000000 0.000000 3.476730 
# 
# 
# High freq. dielectric constant tensor:
#      x y z
#    x 1.738310 0.000000 0.000000 
#    y 0.000000 1.704220 0.000000 
#    z 0.000000 0.000000 1.737410 
# 
# From -- ./inp_files/31129.got.cif
#   From: 2010.03.12/outbox.cif.g09.slc.cpg/sg68_16_cif.got.tgz:31129.got - 2010.04.10 23:14:56.
