data_PCOD8281380
_publ_section_title
;
Structure prediction by ZEFSAII (Michael W. Deem and Ramdas Pophale) SiO2 
 PCOD8281380
Probable space group: C M M A
;
_chemical_formula_sum "Si O2"
_cell_formula_units_Z 112
_cell_length_a 14.597446
_cell_length_b 22.511025
_cell_length_c 16.849458
_cell_angle_alpha 90.000000
_cell_angle_beta 90.000000
_cell_angle_gamma 90.000000
_cell_volume 5536.790397
_symmetry_space_group_name_H-M "C M M A"
_symmetry_group_IT_number 67
_symmetry_cell_setting 'orthorhombic'
loop_
_space_group_symop_operation_xyz
x,y,z
-x,1/2-y,z
x,-y,-z
-x,1/2+y,-z
-x,-y,-z
x,1/2+y,-z
-x,y,z
x,1/2-y,z
1/2+x,1/2+y,z
1/2-x,-y,z
1/2+x,1/2-y,-z
1/2-x,y,-z
1/2-x,1/2-y,-z
1/2+x,y,-z
1/2-x,1/2+y,z
1/2+x,-y,z
loop_
_atom_site_type_symbol
_atom_site_label
_atom_site_fract_x
_atom_site_fract_y
_atom_site_fract_z
Si Si1 0.108739 0.684265 0.006652
Si Si2 0.750095 0.595663 0.593439
Si Si3 0.396418 0.119245 0.159031
Si Si4 0.751991 0.321112 0.731267
Si Si5 0.895506 0.369277 0.153628
Si Si6 0.102917 0.000102 0.593724
Si Si7 0.142357 0.496891 0.090753
O O1 0.144452 0.750000 0.023288
O O2 0.146903 0.644026 0.077314
O O3 0.000000 0.679936 0.002943
O O4 0.148775 0.662243 0.923371
O O5 0.750000 0.609256 0.500000
O O6 0.750843 0.658311 0.639480
O O7 0.840384 0.558354 0.619356
O O8 0.659407 0.558676 0.619245
O O9 0.500000 0.141201 0.172747
O O10 0.338741 0.145727 0.230852
O O11 0.393955 0.048515 0.148703
O O12 0.760109 0.250000 0.736592
O O13 0.660215 0.345879 0.771393
O O14 0.890191 0.439207 0.137960
O O15 0.000000 0.350130 0.168462
O O16 0.000000 0.000204 0.631595
O O17 0.094854 0.000000 0.500000
O O18 0.250000 0.500000 0.085571
O O19 0.101829 0.500000 0.000000
#
# Coordination Sequence:
#
# PCOD8281380 Si02
#       7
#    16  16  16  16  16  16  16
#     4   9  18  34  57  82 111 154 204 241 280 349
#     4   9  20  39  64  93 123 159 203 244 297 373
#     4  11  23  40  62  87 118 159 202 248 306 363
#     4  12  27  43  59  85 124 162 205 263 307 350
#     4  11  23  40  62  87 118 159 202 248 306 363
#     4   8  15  33  65  99 125 147 180 238 302 360
#     4  11  21  37  62  92 125 159 199 252 309 364
#
# _framework density 20.228325999999999
#
# number of rings (size 3 to 8) (size 9 to 14) (size 15 to 20)
#    0.000    1.857    2.857    2.143    0.000    6.571 
#    0.000    1.429    0.000    0.000    0.000    6.000 
#    0.000    0.000    0.000    0.000    0.000    0.000 
#
# Total GULP energy -694251.118145 kJ/mol
# GULP energy per Si atom -12397.341395 kJ/mol
# Density = 2.018229 g / cm^3
# Si number density = 20.228326 Si / 1000 Ang^3
#
#
#
# Elastic Constant Matrix: (Units=GPa)
#
#
# Indices 1 2 3 4 5 6 
#
# 1 115.8822 13.3400 26.8043 0.0000 0.0000 0.0000
# 2 13.3400 117.8629 42.5520 0.0000 0.0000 0.0000
# 3 26.8043 42.5520 88.7007 0.0000 0.0000 0.0000
# 4 0.0000 0.0000 0.0000 -88.4037 0.0000 0.0000
# 5 0.0000 0.0000 0.0000 0.0000 26.5022 0.0000
# 6 0.0000 0.0000 0.0000 0.0000 0.0000 7.8516
#
#
#
# Elastic Compliance Matrix: (Units=1/GPa)
#
#
# Indices 1 2 3 4 5 6 
#
# 1 0.009278 -0.000046 -0.002782 0.000000 0.000000 0.000000
# 2 -0.000046 0.010262 -0.004909 0.000000 0.000000 0.000000
# 3 -0.002782 -0.004909 0.014469 0.000000 0.000000 0.000000
# 4 0.000000 0.000000 0.000000 -0.011312 0.000000 0.000000
# 5 0.000000 0.000000 0.000000 0.000000 0.037733 0.000000
# 6 0.000000 0.000000 0.000000 0.000000 0.000000 0.127362
#
#
# Mechanical properties :
#
#
# Convention : Reuss Voigt Hill
#
# Bulk Modulus (GPa) = 53.94826 54.20427 54.07626
# Shear Modulus (GPa) = 23.87266 5.17334 14.52300
#
# Velocity S-wave (km/s) = 3.43907 1.60094 2.68237
# Velocity P-wave (km/s) = 6.51899 5.50198 6.03195
#
# Compressibility (1/GPa) = 0.01853628
#
# Stress axis : x y z
#
# Youngs Moduli (GPa) = 107.77989 97.44746 69.11090
#
# Poissons Ratio (x) = 0.00447 0.19225
# Poissons Ratio (y) = 0.00494 0.33927
# Poissons Ratio (z) = 0.29982 0.47838
#
# Static dielectric constant tensor:
#      x y z
#    x 3.907270 0.000000 0.000000 
#    y 0.000000 3.648090 0.000000 
#    z 0.000000 0.000000 3.443960 
# 
# 
# High freq. dielectric constant tensor:
#      x y z
#    x 1.797820 0.000000 0.000000 
#    y 0.000000 1.784610 0.000000 
#    z 0.000000 0.000000 1.769020 
# 
# From -- ./inp_files/18633.got.cif
#   From: 2010.03.12/outbox.cif.g09.slc.cpg/sg67_10_cif.got.tgz:18633.got - 2010.04.10 22:41:39.
