data_PCOD8281908
_publ_section_title
;
Structure prediction by ZEFSAII (Michael W. Deem and Ramdas Pophale) SiO2 
 PCOD8281908
Probable space group: C C C A
;
_chemical_formula_sum "Si O2"
_cell_formula_units_Z 68
_cell_length_a 10.042860
_cell_length_b 15.771609
_cell_length_c 22.518525
_cell_angle_alpha 90.000000
_cell_angle_beta 90.000000
_cell_angle_gamma 90.000000
_cell_volume 3566.755589
_symmetry_space_group_name_H-M "C C C A"
_symmetry_group_IT_number 68
_space_group.IT_coordinate_system_code '2'
_symmetry_cell_setting 'orthorhombic'
loop_
_space_group_symop_operation_xyz
x,y,z
-x,1/2-y,z
x,1/2-y,1/2-z
-x,y,1/2-z
-x,-y,-z
x,1/2+y,-z
-x,1/2+y,1/2+z
x,-y,1/2+z
1/2+x,1/2+y,z
1/2-x,-y,z
1/2+x,-y,1/2-z
1/2-x,1/2+y,1/2-z
1/2-x,1/2-y,-z
1/2+x,y,-z
1/2-x,y,1/2+z
1/2+x,1/2-y,1/2+z
loop_
_atom_site_type_symbol
_atom_site_label
_atom_site_fract_x
_atom_site_fract_y
_atom_site_fract_z
Si Si1 0.113534 0.457882 0.080556
Si Si2 0.157810 0.376083 0.832650
Si Si3 0.500000 0.250000 0.250000
Si Si4 0.368453 0.067559 0.046424
Si Si5 0.058514 0.934558 0.686764
O O1 0.250000 0.500000 0.103943
O O2 0.014823 0.529569 0.056280
O O3 0.047322 0.407429 0.135371
O O4 0.143812 0.399147 0.021884
O O5 0.145451 0.358189 0.903950
O O6 0.089246 0.466018 0.818870
O O7 0.312694 0.376326 0.817597
O O8 0.091088 0.304790 0.793162
O O9 0.250000 0.000000 0.060069
O O10 0.000000 0.913081 0.750000
#
# Coordination Sequence:
#
# PCOD8281908 Si02
#       5
#    16  16   4  16  16
#     4   9  17  25  50  86 109 136 188 243 286 328
#     4  10  20  35  54  79 118 149 193 238 292 342
#     4  12  24  36  58  88 116 162 194 230 304 380
#     4   9  15  31  50  78 110 144 184 245 282 326
#     4  10  19  33  56  85 113 147 192 249 284 342
#
# _framework density 19.064945999999999
#
# number of rings (size 3 to 8) (size 9 to 14) (size 15 to 20)
#    0.000    2.353    5.882    0.000    3.294    0.000 
#    0.000    0.588    0.000    1.412    0.000    0.000 
#    0.000    0.000    0.000    0.000    0.000    0.000 
#
# Total GULP energy -421194.636986 kJ/mol
# GULP energy per Si atom -12388.077558 kJ/mol
# Density = 1.902155 g / cm^3
# Si number density = 19.064946 Si / 1000 Ang^3
#
#
#
# Elastic Constant Matrix: (Units=GPa)
#
#
# Indices 1 2 3 4 5 6 
#
# 1 142.4633 31.9297 71.0769 0.0000 0.0000 0.0000
# 2 31.9297 44.6700 43.1878 0.0000 0.0000 0.0000
# 3 71.0769 43.1878 225.8992 0.0000 0.0000 0.0000
# 4 0.0000 0.0000 0.0000 11.1817 0.0000 0.0000
# 5 0.0000 0.0000 0.0000 0.0000 19.8767 0.0000
# 6 0.0000 0.0000 0.0000 0.0000 0.0000 16.3935
#
#
#
# Elastic Compliance Matrix: (Units=1/GPa)
#
#
# Indices 1 2 3 4 5 6 
#
# 1 0.009020 -0.004543 -0.001970 0.000000 0.000000 0.000000
# 2 -0.004543 0.029751 -0.004258 0.000000 0.000000 0.000000
# 3 -0.001970 -0.004258 0.005861 0.000000 0.000000 0.000000
# 4 0.000000 0.000000 0.000000 0.089432 0.000000 0.000000
# 5 0.000000 0.000000 0.000000 0.000000 0.050310 0.000000
# 6 0.000000 0.000000 0.000000 0.000000 0.000000 0.061000
#
#
# Mechanical properties :
#
#
# Convention : Reuss Voigt Hill
#
# Bulk Modulus (GPa) = 43.31010 78.38015 60.84512
# Shear Modulus (GPa) = 18.20745 27.27958 22.74351
#
# Velocity S-wave (km/s) = 3.09370 3.78680 3.45766
# Velocity P-wave (km/s) = 5.96051 7.76667 6.92275
#
# Compressibility (1/GPa) = 0.02308930
#
# Stress axis : x y z
#
# Youngs Moduli (GPa) = 110.86136 33.61231 170.63244
#
# Poissons Ratio (x) = 0.15272 0.33606
# Poissons Ratio (y) = 0.50369 0.72660
# Poissons Ratio (z) = 0.21834 0.14313
#
# Static dielectric constant tensor:
#      x y z
#    x 3.736160 0.000000 0.000000 
#    y 0.000000 2.689780 0.000000 
#    z 0.000000 0.000000 4.274480 
# 
# 
# High freq. dielectric constant tensor:
#      x y z
#    x 1.765570 0.000000 0.000000 
#    y 0.000000 1.640410 0.000000 
#    z 0.000000 0.000000 1.777860 
# 
# From -- ./inp_files/48877.got.cif
#   From: 2010.03.12/outbox.cif.g09.slc.cpg/sg68_25_cif.got.tgz:48877.got - 2010.04.10 23:14:56.
