data_PCOD8281679
_publ_section_title
;
Structure prediction by ZEFSAII (Michael W. Deem and Ramdas Pophale) SiO2 
 PCOD8281679
Probable space group: C C C A
;
_chemical_formula_sum "Si O2"
_cell_formula_units_Z 128
_cell_length_a 17.869269
_cell_length_b 20.978877
_cell_length_c 18.196479
_cell_angle_alpha 90.000000
_cell_angle_beta 90.000000
_cell_angle_gamma 90.000000
_cell_volume 6821.445032
_symmetry_space_group_name_H-M "C C C A"
_symmetry_group_IT_number 68
_space_group.IT_coordinate_system_code '2'
_symmetry_cell_setting 'orthorhombic'
loop_
_space_group_symop_operation_xyz
x,y,z
-x,1/2-y,z
x,1/2-y,1/2-z
-x,y,1/2-z
-x,-y,-z
x,1/2+y,-z
-x,1/2+y,1/2+z
x,-y,1/2+z
1/2+x,1/2+y,z
1/2-x,-y,z
1/2+x,-y,1/2-z
1/2-x,1/2+y,1/2-z
1/2-x,1/2-y,-z
1/2+x,y,-z
1/2-x,y,1/2+z
1/2+x,1/2-y,1/2+z
loop_
_atom_site_type_symbol
_atom_site_label
_atom_site_fract_x
_atom_site_fract_y
_atom_site_fract_z
Si Si1 0.552872 0.562695 0.590153
Si Si2 0.266325 0.602151 0.273881
Si Si3 0.957932 0.689544 0.174576
Si Si4 0.773684 0.855926 0.113797
Si Si5 0.787511 0.275534 0.674161
Si Si6 0.689973 0.952211 0.018902
Si Si7 0.394109 0.456494 0.117024
Si Si8 0.629271 0.492028 0.223319
O O1 0.540123 0.634633 0.615167
O O2 0.616713 0.561134 0.528925
O O3 0.469116 0.540440 0.566192
O O4 0.572287 0.516851 0.657276
O O5 0.264210 0.627567 0.190958
O O6 0.258955 0.658107 0.336600
O O7 0.344740 0.565540 0.281600
O O8 0.198590 0.554622 0.288821
O O9 0.872800 0.706645 0.190980
O O10 0.000000 0.750000 0.139479
O O11 0.000000 0.669243 0.250000
O O12 0.778272 0.777864 0.109487
O O13 0.725360 0.884871 0.045709
O O14 0.857020 0.886066 0.111331
O O15 0.753652 0.250000 0.750000
O O16 0.750000 0.000000 0.977928
O O17 0.666178 0.991792 0.090753
O O18 0.412626 0.474391 0.201079
#
# Coordination Sequence:
#
# PCOD8281679 Si02
#       8
#    16  16  16  16  16  16  16  16
#     4  12  23  31  55  85 113 139 180 236 285 336
#     4   9  17  29  52  79 109 140 176 225 274 324
#     4  11  20  32  48  79 117 143 166 224 293 347
#     4   9  18  35  56  75 105 152 187 220 270 342
#     4  10  17  29  51  80 106 134 183 225 272 329
#     4  10  22  39  54  74 110 155 192 227 278 341
#     4  10  19  36  54  78 107 148 185 222 281 341
#     4  10  18  31  53  81 113 136 175 230 285 323
#
# _framework density 18.764353
#
# number of rings (size 3 to 8) (size 9 to 14) (size 15 to 20)
#    0.000    1.875    3.750    2.250    3.500    0.000 
#    0.000    0.625    0.000    3.000    0.000    0.000 
#    0.000    0.000    0.000    0.000    0.000    0.000 
#
# Total GULP energy -792911.226652 kJ/mol
# GULP energy per Si atom -12389.237916 kJ/mol
# Density = 1.872164 g / cm^3
# Si number density = 18.764353 Si / 1000 Ang^3
#
#
#
# Elastic Constant Matrix: (Units=GPa)
#
#
# Indices 1 2 3 4 5 6 
#
# 1 93.3704 48.5911 30.4319 0.0000 0.0000 0.0000
# 2 48.5911 117.0612 22.3260 0.0000 0.0000 0.0000
# 3 30.4319 22.3260 43.4810 0.0000 0.0000 0.0000
# 4 0.0000 0.0000 0.0000 16.7802 0.0000 0.0000
# 5 0.0000 0.0000 0.0000 0.0000 11.8049 0.0000
# 6 0.0000 0.0000 0.0000 0.0000 0.0000 23.6562
#
#
#
# Elastic Compliance Matrix: (Units=1/GPa)
#
#
# Indices 1 2 3 4 5 6 
#
# 1 0.016186 -0.005053 -0.008734 0.000000 0.000000 0.000000
# 2 -0.005053 0.011047 -0.002136 0.000000 0.000000 0.000000
# 3 -0.008734 -0.002136 0.030208 0.000000 0.000000 0.000000
# 4 0.000000 0.000000 0.000000 0.059594 0.000000 0.000000
# 5 0.000000 0.000000 0.000000 0.000000 0.084711 0.000000
# 6 0.000000 0.000000 0.000000 0.000000 0.000000 0.042272
#
#
# Mechanical properties :
#
#
# Convention : Reuss Voigt Hill
#
# Bulk Modulus (GPa) = 39.06884 50.73452 44.90168
# Shear Modulus (GPa) = 17.58106 20.61916 19.10011
#
# Velocity S-wave (km/s) = 3.06427 3.31848 3.19391
# Velocity P-wave (km/s) = 5.77803 6.46371 6.13046
#
# Compressibility (1/GPa) = 0.02559584
#
# Stress axis : x y z
#
# Youngs Moduli (GPa) = 61.78029 90.51923 33.10361
#
# Poissons Ratio (x) = 0.45740 0.28913
# Poissons Ratio (y) = 0.31218 0.07071
# Poissons Ratio (z) = 0.53960 0.19334
#
# Static dielectric constant tensor:
#      x y z
#    x 3.457210 0.000000 0.000000 
#    y 0.000000 4.164940 0.000000 
#    z 0.000000 0.000000 3.073250 
# 
# 
# High freq. dielectric constant tensor:
#      x y z
#    x 1.720050 0.000000 0.000000 
#    y 0.000000 1.732290 0.000000 
#    z 0.000000 0.000000 1.692000 
# 
# From -- ./inp_files/39882.got.cif
#   From: 2010.03.12/outbox.cif.g09.slc.cpg/sg68_20_cif.got.tgz:39882.got - 2010.04.10 23:14:56.
