data_PCOD8281557
_publ_section_title
;
Structure prediction by ZEFSAII (Michael W. Deem and Ramdas Pophale) SiO2 
 PCOD8281557
Probable space group: C M M A
;
_chemical_formula_sum "Si O2"
_cell_formula_units_Z 96
_cell_length_a 18.363318
_cell_length_b 21.666210
_cell_length_c 15.262469
_cell_angle_alpha 90.000000
_cell_angle_beta 90.000000
_cell_angle_gamma 90.000000
_cell_volume 6072.379397
_symmetry_space_group_name_H-M "C M M A"
_symmetry_group_IT_number 67
_symmetry_cell_setting 'orthorhombic'
loop_
_space_group_symop_operation_xyz
x,y,z
-x,1/2-y,z
x,-y,-z
-x,1/2+y,-z
-x,-y,-z
x,1/2+y,-z
-x,y,z
x,1/2-y,z
1/2+x,1/2+y,z
1/2-x,-y,z
1/2+x,1/2-y,-z
1/2-x,y,-z
1/2-x,1/2-y,-z
1/2+x,y,-z
1/2-x,1/2+y,z
1/2+x,-y,z
loop_
_atom_site_type_symbol
_atom_site_label
_atom_site_fract_x
_atom_site_fract_y
_atom_site_fract_z
Si Si1 0.086571 0.587298 0.444270
Si Si2 0.667239 0.072010 0.984615
Si Si3 0.084923 0.452621 0.182200
Si Si4 0.913078 0.319163 0.695923
Si Si5 0.086320 0.042234 0.374939
Si Si6 0.083918 0.904205 0.148250
O O1 0.115243 0.647743 0.393224
O O2 0.111367 0.588487 0.546704
O O3 0.117569 0.525970 0.396422
O O4 0.000000 0.584820 0.439828
O O5 0.635629 0.084653 0.886944
O O6 0.750000 0.092549 0.000000
O O7 0.621693 0.110286 0.055671
O O8 0.656201 0.000000 0.000000
O O9 0.111827 0.432840 0.279766
O O10 0.097614 0.525858 0.177890
O O11 0.000000 0.436702 0.164100
O O12 0.881047 0.250000 0.698817
O O13 0.883700 0.357950 0.778832
O O14 0.000000 0.318131 0.697159
O O15 0.000000 0.036822 0.371306
O O16 0.000000 0.890387 0.133951
#
# Coordination Sequence:
#
# PCOD8281557 Si02
#       6
#    16  16  16  16  16  16
#     4   8  12  19  30  50  78 103 124 152 190 229
#     4   9  17  26  36  53  78 103 129 157 198 243
#     4   9  14  22  37  57  78 103 131 158 191 237
#     4   9  15  22  34  54  80 106 131 161 196 229
#     4   8  12  18  32  52  77 102 123 151 190 233
#     4   9  15  24  37  54  77 103 131 162 194 232
#
# _framework density 15.809289
#
# number of rings (size 3 to 8) (size 9 to 14) (size 15 to 20)
#    0.000    3.333    1.667    1.500    0.000    2.000 
#    0.000    0.000    0.000    0.500    0.000    2.333 
#    0.000    8.000    0.000    0.000    0.000    0.000 
#
# Total GULP energy -594638.819503 kJ/mol
# GULP energy per Si atom -12388.308740 kJ/mol
# Density = 1.577331 g / cm^3
# Si number density = 15.809289 Si / 1000 Ang^3
#
#
#
# Elastic Constant Matrix: (Units=GPa)
#
#
# Indices 1 2 3 4 5 6 
#
# 1 33.7799 18.1110 43.7985 0.0000 0.0000 0.0000
# 2 18.1110 54.3946 48.3058 0.0000 0.0000 0.0000
# 3 43.7985 48.3058 180.1767 0.0000 0.0000 0.0000
# 4 0.0000 0.0000 0.0000 16.7071 0.0000 0.0000
# 5 0.0000 0.0000 0.0000 0.0000 4.7546 0.0000
# 6 0.0000 0.0000 0.0000 0.0000 0.0000 4.5374
#
#
#
# Elastic Compliance Matrix: (Units=1/GPa)
#
#
# Indices 1 2 3 4 5 6 
#
# 1 0.045138 -0.006936 -0.009113 0.000000 0.000000 0.000000
# 2 -0.006936 0.025195 -0.005069 0.000000 0.000000 0.000000
# 3 -0.009113 -0.005069 0.009124 0.000000 0.000000 0.000000
# 4 0.000000 0.000000 0.000000 0.059855 0.000000 0.000000
# 5 0.000000 0.000000 0.000000 0.000000 0.210322 0.000000
# 6 0.000000 0.000000 0.000000 0.000000 0.000000 0.220388
#
#
# Mechanical properties :
#
#
# Convention : Reuss Voigt Hill
#
# Bulk Modulus (GPa) = 26.86617 54.30911 40.58764
# Shear Modulus (GPa) = 8.00430 15.74223 11.87326
#
# Velocity S-wave (km/s) = 2.25256 3.15899 2.74347
# Velocity P-wave (km/s) = 4.87813 6.90889 5.98034
#
# Compressibility (1/GPa) = 0.03722153
#
# Stress axis : x y z
#
# Youngs Moduli (GPa) = 22.15446 39.69041 109.59824
#
# Poissons Ratio (x) = 0.27530 0.99874
# Poissons Ratio (y) = 0.15367 0.55553
# Poissons Ratio (z) = 0.20189 0.20118
#
# Static dielectric constant tensor:
#      x y z
#    x 2.539880 0.000000 0.000000 
#    y 0.000000 2.744110 0.000000 
#    z 0.000000 0.000000 3.516620 
# 
# 
# High freq. dielectric constant tensor:
#      x y z
#    x 1.551020 0.000000 0.000000 
#    y 0.000000 1.550560 0.000000 
#    z 0.000000 0.000000 1.629830 
# 
# From -- ./inp_files/29544.got.cif
#   From: 2010.03.12/outbox.cif.g09.slc.cpg/sg67_15_cif.got.tgz:29544.got - 2010.04.10 22:41:39.
