data_PCOD8281632
_publ_section_title
;
Structure prediction by ZEFSAII (Michael W. Deem and Ramdas Pophale) SiO2 
 PCOD8281632
Probable space group: C C C A
;
_chemical_formula_sum "Si O2"
_cell_formula_units_Z 68
_cell_length_a 28.408838
_cell_length_b 26.382575
_cell_length_c 5.332298
_cell_angle_alpha 90.000000
_cell_angle_beta 90.000000
_cell_angle_gamma 90.000000
_cell_volume 3996.548282
_symmetry_space_group_name_H-M "C C C A"
_symmetry_group_IT_number 68
_space_group.IT_coordinate_system_code '2'
_symmetry_cell_setting 'orthorhombic'
loop_
_space_group_symop_operation_xyz
x,y,z
-x,1/2-y,z
x,1/2-y,1/2-z
-x,y,1/2-z
-x,-y,-z
x,1/2+y,-z
-x,1/2+y,1/2+z
x,-y,1/2+z
1/2+x,1/2+y,z
1/2-x,-y,z
1/2+x,-y,1/2-z
1/2-x,1/2+y,1/2-z
1/2-x,1/2-y,-z
1/2+x,y,-z
1/2-x,y,1/2+z
1/2+x,1/2-y,1/2+z
loop_
_atom_site_type_symbol
_atom_site_label
_atom_site_fract_x
_atom_site_fract_y
_atom_site_fract_z
Si Si1 0.585973 0.800989 0.523716
Si Si2 0.624573 0.190740 0.523017
Si Si3 0.802749 0.021335 0.044597
Si Si4 0.000000 0.250000 0.750000
Si Si5 0.280114 0.363326 0.546408
O O1 0.618533 0.751042 0.499685
O O2 0.593740 0.830625 0.260882
O O3 0.531786 0.784960 0.568244
O O4 0.604315 0.833636 0.763365
O O5 0.679099 0.178247 0.558696
O O6 0.803843 0.081662 0.051675
O O7 0.828614 0.000969 0.792522
O O8 0.750000 0.000000 0.036780
O O9 0.247979 0.355506 0.789341
#
# Coordination Sequence:
#
# PCOD8281632 Si02
#       5
#    16  16  16   4  16
#     4   9  18  34  47  66  92 110 143 179 231 259
#     4   9  19  31  43  63  93 117 142 195 218 244
#     4  10  16  29  42  60  81 102 154 202 221 243
#     4   8  16  30  60  70  76 122 144 170 224 298
#     4  12  20  29  45  62  84 126 165 177 226 255
#
# _framework density 17.014683000000002
#
# number of rings (size 3 to 8) (size 9 to 14) (size 15 to 20)
#    0.000    2.353    4.706    1.412    0.000    7.529 
#    0.000   14.118    0.000    0.000    0.000    0.000 
#    0.000    0.000    0.000  112.235    0.000    0.000 
#
# Total GULP energy -421203.096799 kJ/mol
# GULP energy per Si atom -12388.326376 kJ/mol
# Density = 1.697596 g / cm^3
# Si number density = 17.014683 Si / 1000 Ang^3
#
#
#
# Elastic Constant Matrix: (Units=GPa)
#
#
# Indices 1 2 3 4 5 6 
#
# 1 81.0862 30.2670 37.6517 0.0000 0.0000 0.0000
# 2 30.2670 41.4541 8.9658 0.0000 0.0000 0.0000
# 3 37.6517 8.9658 182.8891 0.0000 0.0000 0.0000
# 4 0.0000 0.0000 0.0000 10.5608 0.0000 0.0000
# 5 0.0000 0.0000 0.0000 0.0000 10.9722 0.0000
# 6 0.0000 0.0000 0.0000 0.0000 0.0000 1.7496
#
#
#
# Elastic Compliance Matrix: (Units=1/GPa)
#
#
# Indices 1 2 3 4 5 6 
#
# 1 0.018643 -0.012919 -0.003205 0.000000 0.000000 0.000000
# 2 -0.012919 0.033333 0.001025 0.000000 0.000000 0.000000
# 3 -0.003205 0.001025 0.006077 0.000000 0.000000 0.000000
# 4 0.000000 0.000000 0.000000 0.094690 0.000000 0.000000
# 5 0.000000 0.000000 0.000000 0.000000 0.091140 0.000000
# 6 0.000000 0.000000 0.000000 0.000000 0.000000 0.571553
#
#
# Mechanical properties :
#
#
# Convention : Reuss Voigt Hill
#
# Bulk Modulus (GPa) = 35.89641 51.02204 43.45923
# Shear Modulus (GPa) = 5.84852 19.89284 12.87068
#
# Velocity S-wave (km/s) = 1.85602 3.42300 2.75334
# Velocity P-wave (km/s) = 5.07308 6.75831 5.97541
#
# Compressibility (1/GPa) = 0.02785794
#
# Stress axis : x y z
#
# Youngs Moduli (GPa) = 53.64021 29.99985 164.54726
#
# Poissons Ratio (x) = 0.38755 0.52733
# Poissons Ratio (y) = 0.69295 -0.16873
# Poissons Ratio (z) = 0.17190 -0.03076
#
# Static dielectric constant tensor:
#      x y z
#    x 2.405000 0.000000 0.000000 
#    y 0.000000 2.809160 0.000000 
#    z 0.000000 0.000000 6.908740 
# 
# 
# High freq. dielectric constant tensor:
#      x y z
#    x 1.608590 0.000000 0.000000 
#    y 0.000000 1.599870 0.000000 
#    z 0.000000 0.000000 1.706160 
# 
# From -- ./inp_files/1529.got.cif
#   From: 2010.03.12/outbox.cif.g09.slc.cpg/sg68_1_cif.got.tgz:1529.got - 2010.04.10 23:14:56.
