data_PCOD8281714
_publ_section_title
;
Structure prediction by ZEFSAII (Michael W. Deem and Ramdas Pophale) SiO2 
 PCOD8281714
Probable space group: C C C A
;
_chemical_formula_sum "Si O2"
_cell_formula_units_Z 84
_cell_length_a 12.468529
_cell_length_b 17.297957
_cell_length_c 23.173699
_cell_angle_alpha 90.000000
_cell_angle_beta 90.000000
_cell_angle_gamma 90.000000
_cell_volume 4998.105219
_symmetry_space_group_name_H-M "C C C A"
_symmetry_group_IT_number 68
_space_group.IT_coordinate_system_code '2'
_symmetry_cell_setting 'orthorhombic'
loop_
_space_group_symop_operation_xyz
x,y,z
-x,1/2-y,z
x,1/2-y,1/2-z
-x,y,1/2-z
-x,-y,-z
x,1/2+y,-z
-x,1/2+y,1/2+z
x,-y,1/2+z
1/2+x,1/2+y,z
1/2-x,-y,z
1/2+x,-y,1/2-z
1/2-x,1/2+y,1/2-z
1/2-x,1/2-y,-z
1/2+x,y,-z
1/2-x,y,1/2+z
1/2+x,1/2-y,1/2+z
loop_
_atom_site_type_symbol
_atom_site_label
_atom_site_fract_x
_atom_site_fract_y
_atom_site_fract_z
Si Si1 0.228076 0.589977 0.414178
Si Si2 0.985548 0.838645 0.447959
Si Si3 0.288376 0.088385 0.460396
Si Si4 0.000000 0.250000 0.250000
Si Si5 0.401398 0.673196 0.355062
Si Si6 0.907639 0.169014 0.078731
O O1 0.250000 0.500000 0.409591
O O2 0.104164 0.616308 0.410094
O O3 0.276750 0.621125 0.474587
O O4 0.291880 0.625810 0.359767
O O5 0.949243 0.835942 0.513733
O O6 0.000000 0.750000 0.425526
O O7 0.091315 0.891983 0.440072
O O8 0.208623 0.130556 0.416154
O O9 0.250000 0.000000 0.459516
O O10 0.078698 0.302060 0.289115
O O11 0.392502 0.744138 0.399594
O O12 0.506051 0.626073 0.379008
#
# Coordination Sequence:
#
# PCOD8281714 Si02
#       6
#    16  16  16   4  16  16
#     4  10  21  29  48  74 109 137 164 203 246 299
#     4  11  18  30  46  72 105 149 173 190 235 298
#     4  10  20  28  43  73 113 148 166 187 234 304
#     4   8  20  32  60  72  86 116 174 228 268 284
#     4  10  17  35  50  77  90 126 172 220 252 294
#     4   9  17  28  48  66 102 133 167 208 229 284
#
# _framework density 16.806367999999999
#
# number of rings (size 3 to 8) (size 9 to 14) (size 15 to 20)
#    0.000    2.286    3.810    1.143    2.667    5.333 
#    0.000    0.000    0.000    4.571    0.000    5.333 
#    0.000    0.000    0.000    0.000    0.000    0.000 
#
# Total GULP energy -520319.906085 kJ/mol
# GULP energy per Si atom -12388.569192 kJ/mol
# Density = 1.676812 g / cm^3
# Si number density = 16.806368 Si / 1000 Ang^3
#
#
#
# Elastic Constant Matrix: (Units=GPa)
#
#
# Indices 1 2 3 4 5 6 
#
# 1 163.8036 61.4295 47.5068 0.0000 0.0000 0.0000
# 2 61.4295 76.5071 29.6608 0.0000 0.0000 0.0000
# 3 47.5068 29.6608 71.0625 0.0000 0.0000 0.0000
# 4 0.0000 0.0000 0.0000 11.3323 0.0000 0.0000
# 5 0.0000 0.0000 0.0000 0.0000 13.7934 0.0000
# 6 0.0000 0.0000 0.0000 0.0000 0.0000 30.1493
#
#
#
# Elastic Compliance Matrix: (Units=1/GPa)
#
#
# Indices 1 2 3 4 5 6 
#
# 1 0.009519 -0.006175 -0.003786 0.000000 0.000000 0.000000
# 2 -0.006175 0.019600 -0.004053 0.000000 0.000000 0.000000
# 3 -0.003786 -0.004053 0.018295 0.000000 0.000000 0.000000
# 4 0.000000 0.000000 0.000000 0.088243 0.000000 0.000000
# 5 0.000000 0.000000 0.000000 0.000000 0.072498 0.000000
# 6 0.000000 0.000000 0.000000 0.000000 0.000000 0.033168
#
#
# Mechanical properties :
#
#
# Convention : Reuss Voigt Hill
#
# Bulk Modulus (GPa) = 51.58402 65.39636 58.49019
# Shear Modulus (GPa) = 18.12825 22.57341 20.35083
#
# Velocity S-wave (km/s) = 3.28785 3.66887 3.48357
# Velocity P-wave (km/s) = 6.72109 7.54610 7.14551
#
# Compressibility (1/GPa) = 0.01938585
#
# Stress axis : x y z
#
# Youngs Moduli (GPa) = 105.05698 51.02070 54.66050
#
# Poissons Ratio (x) = 0.31505 0.20695
# Poissons Ratio (y) = 0.64872 0.22152
# Poissons Ratio (z) = 0.39775 0.20677
#
# Static dielectric constant tensor:
#      x y z
#    x 3.601110 0.000000 0.000000 
#    y 0.000000 3.112040 0.000000 
#    z 0.000000 0.000000 2.731630 
# 
# 
# High freq. dielectric constant tensor:
#      x y z
#    x 1.665220 0.000000 0.000000 
#    y 0.000000 1.640210 0.000000 
#    z 0.000000 0.000000 1.587270 
# 
# From -- ./inp_files/37391.got.cif
#   From: 2010.03.12/outbox.cif.g09.slc.cpg/sg68_19_cif.got.tgz:37391.got - 2010.04.10 23:14:56.
