data_PCOD8281832
_publ_section_title
;
Structure prediction by ZEFSAII (Michael W. Deem and Ramdas Pophale) SiO2 
 PCOD8281832
Probable space group: C C C A
;
_chemical_formula_sum "Si O2"
_cell_formula_units_Z 120
_cell_length_a 22.326714
_cell_length_b 11.656161
_cell_length_c 20.741784
_cell_angle_alpha 90.000000
_cell_angle_beta 90.000000
_cell_angle_gamma 90.000000
_cell_volume 5397.920127
_symmetry_space_group_name_H-M "C C C A"
_symmetry_group_IT_number 68
_space_group.IT_coordinate_system_code '2'
_symmetry_cell_setting 'orthorhombic'
loop_
_space_group_symop_operation_xyz
x,y,z
-x,1/2-y,z
x,1/2-y,1/2-z
-x,y,1/2-z
-x,-y,-z
x,1/2+y,-z
-x,1/2+y,1/2+z
x,-y,1/2+z
1/2+x,1/2+y,z
1/2-x,-y,z
1/2+x,-y,1/2-z
1/2-x,1/2+y,1/2-z
1/2-x,1/2-y,-z
1/2+x,y,-z
1/2-x,y,1/2+z
1/2+x,1/2-y,1/2+z
loop_
_atom_site_type_symbol
_atom_site_label
_atom_site_fract_x
_atom_site_fract_y
_atom_site_fract_z
Si Si1 0.307974 0.560388 0.906666
Si Si2 0.604484 0.965772 0.612334
Si Si3 0.686989 0.719306 0.823341
Si Si4 0.133261 0.605623 0.808956
Si Si5 0.416050 0.418046 0.483931
Si Si6 0.319753 0.140256 0.822323
Si Si7 0.022007 0.965045 0.631701
Si Si8 0.500000 0.250000 0.950380
O O1 0.250000 0.500000 0.936839
O O2 0.294731 0.663542 0.858044
O O3 0.339729 0.457832 0.869673
O O4 0.347014 0.605935 0.966373
O O5 0.633782 0.845945 0.636995
O O6 0.582498 0.977043 0.537098
O O7 0.653991 0.066319 0.619046
O O8 0.544239 0.993285 0.653887
O O9 0.666805 0.750000 0.750000
O O10 0.747974 0.645984 0.824722
O O11 0.144456 0.740585 0.819963
O O12 0.164261 0.567941 0.742305
O O13 0.063759 0.562477 0.806098
O O14 0.451160 0.442801 0.417941
O O15 0.444940 0.300277 0.508440
O O16 0.026205 0.846906 0.594145
#
# Coordination Sequence:
#
# PCOD8281832 Si02
#       8
#    16  16  16  16  16  16  16   8
#     4  11  22  40  62  92 129 170 221 270 336 399
#     4  11  24  41  63  98 128 168 222 271 335 392
#     4  12  24  42  67  95 130 179 223 276 334 408
#     4  10  20  40  64  93 122 168 216 269 330 391
#     4  10  24  39  64  93 130 173 216 269 330 401
#     4  11  21  39  66  92 127 167 221 274 329 396
#     4  10  22  40  63  94 131 162 216 269 327 395
#     4  10  18  38  66  87 127 170 212 256 328 386
#
# _framework density 22.230785999999998
#
# number of rings (size 3 to 8) (size 9 to 14) (size 15 to 20)
#    0.000    1.333    2.667    4.400    3.733    1.600 
#    0.000    2.667    0.000    3.200    0.000    0.000 
#    0.000    0.000    0.000    0.000    0.000    0.000 
#
# Total GULP energy -743474.118579 kJ/mol
# GULP energy per Si atom -12391.235310 kJ/mol
# Density = 2.218019 g / cm^3
# Si number density = 22.230786 Si / 1000 Ang^3
#
#
#
# Elastic Constant Matrix: (Units=GPa)
#
#
# Indices 1 2 3 4 5 6 
#
# 1 154.7591 37.8895 33.5198 0.0000 0.0000 0.0000
# 2 37.8895 77.0266 15.7799 0.0000 0.0000 0.0000
# 3 33.5198 15.7799 59.0231 0.0000 0.0000 0.0000
# 4 0.0000 0.0000 0.0000 29.7295 0.0000 0.0000
# 5 0.0000 0.0000 0.0000 0.0000 29.7343 0.0000
# 6 0.0000 0.0000 0.0000 0.0000 0.0000 35.5656
#
#
#
# Elastic Compliance Matrix: (Units=1/GPa)
#
#
# Indices 1 2 3 4 5 6 
#
# 1 0.008050 -0.003198 -0.003716 0.000000 0.000000 0.000000
# 2 -0.003198 0.015006 -0.002195 0.000000 0.000000 0.000000
# 3 -0.003716 -0.002195 0.019640 0.000000 0.000000 0.000000
# 4 0.000000 0.000000 0.000000 0.033637 0.000000 0.000000
# 5 0.000000 0.000000 0.000000 0.000000 0.033631 0.000000
# 6 0.000000 0.000000 0.000000 0.000000 0.000000 0.028117
#
#
# Mechanical properties :
#
#
# Convention : Reuss Voigt Hill
#
# Bulk Modulus (GPa) = 40.85799 51.68747 46.27273
# Shear Modulus (GPa) = 30.40280 32.58052 31.49166
#
# Velocity S-wave (km/s) = 3.70212 3.83241 3.76783
# Velocity P-wave (km/s) = 6.05749 6.54859 6.30782
#
# Compressibility (1/GPa) = 0.02447502
#
# Stress axis : x y z
#
# Youngs Moduli (GPa) = 124.22926 66.64210 50.91644
#
# Poissons Ratio (x) = 0.21314 0.18923
# Poissons Ratio (y) = 0.39732 0.11178
# Poissons Ratio (z) = 0.46168 0.14631
#
# Static dielectric constant tensor:
#      x y z
#    x 4.667150 0.000000 0.000000 
#    y 0.000000 1.705180 0.000000 
#    z 0.000000 0.000000 4.099530 
# 
# 
# High freq. dielectric constant tensor:
#      x y z
#    x 1.888610 0.000000 0.000000 
#    y 0.000000 1.868430 0.000000 
#    z 0.000000 0.000000 1.860620 
# 
# From -- ./inp_files/46730.got.cif
#   From: 2010.03.12/outbox.cif.g09.slc.cpg/sg68_24_cif.got.tgz:46730.got - 2010.04.10 23:14:56.
