data_PCOD8281800
_publ_section_title
;
Structure prediction by ZEFSAII (Michael W. Deem and Ramdas Pophale) SiO2 
 PCOD8281800
Probable space group: C C C A
;
_chemical_formula_sum "Si O2"
_cell_formula_units_Z 84
_cell_length_a 15.262240
_cell_length_b 10.902385
_cell_length_c 22.867097
_cell_angle_alpha 90.000000
_cell_angle_beta 90.000000
_cell_angle_gamma 90.000000
_cell_volume 3804.966408
_symmetry_space_group_name_H-M "C C C A"
_symmetry_group_IT_number 68
_space_group.IT_coordinate_system_code '2'
_symmetry_cell_setting 'orthorhombic'
loop_
_space_group_symop_operation_xyz
x,y,z
-x,1/2-y,z
x,1/2-y,1/2-z
-x,y,1/2-z
-x,-y,-z
x,1/2+y,-z
-x,1/2+y,1/2+z
x,-y,1/2+z
1/2+x,1/2+y,z
1/2-x,-y,z
1/2+x,-y,1/2-z
1/2-x,1/2+y,1/2-z
1/2-x,1/2-y,-z
1/2+x,y,-z
1/2-x,y,1/2+z
1/2+x,1/2-y,1/2+z
loop_
_atom_site_type_symbol
_atom_site_label
_atom_site_fract_x
_atom_site_fract_y
_atom_site_fract_z
Si Si1 0.426691 0.483744 0.120509
Si Si2 0.324183 0.247963 0.086317
Si Si3 0.603192 0.886561 0.238900
Si Si4 0.818129 0.893327 0.528677
Si Si5 0.000000 0.250000 0.750000
Si Si6 0.893528 0.570134 0.169733
O O1 0.393734 0.343700 0.113501
O O2 0.379022 0.554224 0.175000
O O3 0.403188 0.552199 0.060295
O O4 0.531534 0.485729 0.126796
O O5 0.230184 0.310259 0.077675
O O6 0.317928 0.134745 0.131573
O O7 0.353248 0.190955 0.023818
O O8 0.640506 0.750000 0.250000
O O9 0.500000 0.890059 0.250000
O O10 0.650241 0.966924 0.289336
O O11 0.750000 0.000000 0.507693
O O12 0.938856 0.166672 0.788457
#
# Coordination Sequence:
#
# PCOD8281800 Si02
#       6
#    16  16  16  16   4  16
#     4  10  18  35  61  83 114 147 190 246 298 349
#     4  10  19  36  58  82 110 152 199 239 290 355
#     4   9  18  34  56  86 117 148 176 230 310 358
#     4   9  21  38  56  75 116 163 192 237 298 354
#     4  12  16  32  58  96 112 140 180 250 324 344
#     4  11  18  32  62  91 114 146 191 248 306 361
#
# _framework density 22.076409999999999
#
# number of rings (size 3 to 8) (size 9 to 14) (size 15 to 20)
#    0.000    2.095    4.762    0.000    0.000    0.762 
#   10.286    0.000   18.857    0.000    0.000    0.000 
#    0.000    0.000    0.000    0.000    0.000    0.000 
#
# Total GULP energy -520511.786723 kJ/mol
# GULP energy per Si atom -12393.137779 kJ/mol
# Density = 2.202616 g / cm^3
# Si number density = 22.076410 Si / 1000 Ang^3
#
#
#
# Elastic Constant Matrix: (Units=GPa)
#
#
# Indices 1 2 3 4 5 6 
#
# 1 13.7594 17.0774 16.7622 0.0000 0.0000 0.0000
# 2 17.0774 149.5239 64.7517 0.0000 0.0000 0.0000
# 3 16.7622 64.7517 90.8293 0.0000 0.0000 0.0000
# 4 0.0000 0.0000 0.0000 69.4607 0.0000 0.0000
# 5 0.0000 0.0000 0.0000 0.0000 27.6356 0.0000
# 6 0.0000 0.0000 0.0000 0.0000 0.0000 21.0435
#
#
#
# Elastic Compliance Matrix: (Units=1/GPa)
#
#
# Indices 1 2 3 4 5 6 
#
# 1 0.096046 -0.004765 -0.014328 0.000000 0.000000 0.000000
# 2 -0.004765 0.009911 -0.006186 0.000000 0.000000 0.000000
# 3 -0.014328 -0.006186 0.018064 0.000000 0.000000 0.000000
# 4 0.000000 0.000000 0.000000 0.014397 0.000000 0.000000
# 5 0.000000 0.000000 0.000000 0.000000 0.036185 0.000000
# 6 0.000000 0.000000 0.000000 0.000000 0.000000 0.047521
#
#
# Mechanical properties :
#
#
# Convention : Reuss Voigt Hill
#
# Bulk Modulus (GPa) = 13.61230 50.14391 31.87811
# Shear Modulus (GPa) = 16.82540 33.99606 25.41073
#
# Velocity S-wave (km/s) = 2.76369 3.92845 3.39637
# Velocity P-wave (km/s) = 4.04517 6.58332 5.46367
#
# Compressibility (1/GPa) = 0.07346297
#
# Stress axis : x y z
#
# Youngs Moduli (GPa) = 10.41165 100.89752 55.35868
#
# Poissons Ratio (x) = 0.48075 0.79319
# Poissons Ratio (y) = 0.04961 0.34246
# Poissons Ratio (z) = 0.14918 0.62417
#
# Static dielectric constant tensor:
#      x y z
#    x 3.328110 0.000000 0.000000 
#    y 0.000000 4.539730 0.000000 
#    z 0.000000 0.000000 4.096950 
# 
# 
# High freq. dielectric constant tensor:
#      x y z
#    x 1.815510 0.000000 0.000000 
#    y 0.000000 1.888080 0.000000 
#    z 0.000000 0.000000 1.875590 
# 
# From -- ./inp_files/32734.got.cif
#   From: 2010.03.12/outbox.cif.g09.slc.cpg/sg68_17_cif.got.tgz:32734.got - 2010.04.10 23:14:56.
