data_PCOD8281973
_publ_section_title
;
Structure prediction by ZEFSAII (Michael W. Deem and Ramdas Pophale) SiO2 
 PCOD8281973
Probable space group: C C C A
;
_chemical_formula_sum "Si O2"
_cell_formula_units_Z 116
_cell_length_a 12.559790
_cell_length_b 30.544669
_cell_length_c 15.998838
_cell_angle_alpha 90.000000
_cell_angle_beta 90.000000
_cell_angle_gamma 90.000000
_cell_volume 6137.708269
_symmetry_space_group_name_H-M "C C C A"
_symmetry_group_IT_number 68
_space_group.IT_coordinate_system_code '2'
_symmetry_cell_setting 'orthorhombic'
loop_
_space_group_symop_operation_xyz
x,y,z
-x,1/2-y,z
x,1/2-y,1/2-z
-x,y,1/2-z
-x,-y,-z
x,1/2+y,-z
-x,1/2+y,1/2+z
x,-y,1/2+z
1/2+x,1/2+y,z
1/2-x,-y,z
1/2+x,-y,1/2-z
1/2-x,1/2+y,1/2-z
1/2-x,1/2-y,-z
1/2+x,y,-z
1/2-x,y,1/2+z
1/2+x,1/2-y,1/2+z
loop_
_atom_site_type_symbol
_atom_site_label
_atom_site_fract_x
_atom_site_fract_y
_atom_site_fract_z
Si Si1 0.699745 0.541496 0.444860
Si Si2 0.241198 0.817506 0.971923
Si Si3 0.116541 0.473565 0.234746
Si Si4 0.363722 0.388853 0.113154
Si Si5 0.323255 0.431162 0.280924
Si Si6 0.000000 0.750000 0.750000
Si Si7 0.111277 0.236268 0.086550
Si Si8 0.400567 0.390527 0.446567
O O1 0.750000 0.500000 0.495349
O O2 0.646150 0.520833 0.362203
O O3 0.799814 0.572727 0.431301
O O4 0.607738 0.567812 0.491894
O O5 0.299452 0.844038 0.898700
O O6 0.190599 0.777330 0.921676
O O7 0.329434 0.803999 0.041725
O O8 0.150428 0.846407 0.016537
O O9 0.196614 0.437613 0.272092
O O10 0.122364 0.520898 0.279601
O O11 0.000000 0.453974 0.250000
O O12 0.375424 0.400350 0.210339
O O13 0.476795 0.382222 0.070068
O O14 0.337821 0.404632 0.364733
O O15 0.079785 0.724174 0.815415
O O16 0.000000 0.250000 0.040616
#
# Coordination Sequence:
#
# PCOD8281973 Si02
#       8
#    16  16  16  16  16   4  16  16
#     4  10  21  37  52  80 111 147 207 253 288 349
#     4  10  21  36  62  89 119 148 195 235 282 368
#     4  10  19  36  57  73 106 151 200 255 296 336
#     4  10  20  38  55  78 120 153 186 243 299 332
#     4  10  21  37  51  80 110 149 198 238 295 349
#     4   8  20  36  68  92 122 150 192 228 300 344
#     4   9  19  40  63  90 118 153 186 235 293 351
#     4  11  23  34  57  83 115 156 193 241 295 351
#
# _framework density 18.899562
#
# number of rings (size 3 to 8) (size 9 to 14) (size 15 to 20)
#    0.414    1.655    2.759    2.069    1.931    3.862 
#    0.000    1.379    6.069    0.000    0.000    7.724 
#    0.000    0.000    0.000    0.000    0.000    0.000 
#
# Total GULP energy -718670.150900 kJ/mol
# GULP energy per Si atom -12390.864671 kJ/mol
# Density = 1.885655 g / cm^3
# Si number density = 18.899562 Si / 1000 Ang^3
#
#
#
# Elastic Constant Matrix: (Units=GPa)
#
#
# Indices 1 2 3 4 5 6 
#
# 1 117.4775 17.4114 14.2103 0.0000 0.0000 0.0000
# 2 17.4114 75.0432 16.9687 0.0000 0.0000 0.0000
# 3 14.2103 16.9687 66.0901 0.0000 0.0000 0.0000
# 4 0.0000 0.0000 0.0000 21.1029 0.0000 0.0000
# 5 0.0000 0.0000 0.0000 0.0000 14.8378 0.0000
# 6 0.0000 0.0000 0.0000 0.0000 0.0000 14.6185
#
#
#
# Elastic Compliance Matrix: (Units=1/GPa)
#
#
# Indices 1 2 3 4 5 6 
#
# 1 0.008949 -0.001742 -0.001477 0.000000 0.000000 0.000000
# 2 -0.001742 0.014486 -0.003345 0.000000 0.000000 0.000000
# 3 -0.001477 -0.003345 0.016307 0.000000 0.000000 0.000000
# 4 0.000000 0.000000 0.000000 0.047387 0.000000 0.000000
# 5 0.000000 0.000000 0.000000 0.000000 0.067395 0.000000
# 6 0.000000 0.000000 0.000000 0.000000 0.000000 0.068406
#
#
# Mechanical properties :
#
#
# Convention : Reuss Voigt Hill
#
# Bulk Modulus (GPa) = 37.57335 39.53241 38.55288
# Shear Modulus (GPa) = 20.41393 24.11319 22.26356
#
# Velocity S-wave (km/s) = 3.29009 3.57579 3.43591
# Velocity P-wave (km/s) = 5.86146 6.16530 6.01530
#
# Compressibility (1/GPa) = 0.02661461
#
# Stress axis : x y z
#
# Youngs Moduli (GPa) = 111.74237 69.03102 61.32275
#
# Poissons Ratio (x) = 0.12028 0.09056
# Poissons Ratio (y) = 0.19470 0.20511
# Poissons Ratio (z) = 0.16502 0.23089
#
# Static dielectric constant tensor:
#      x y z
#    x 3.596900 0.000000 0.000000 
#    y 0.000000 3.485720 0.000000 
#    z 0.000000 0.000000 3.504630 
# 
# 
# High freq. dielectric constant tensor:
#      x y z
#    x 1.746480 0.000000 0.000000 
#    y 0.000000 1.721300 0.000000 
#    z 0.000000 0.000000 1.720920 
# 
# From -- ./inp_files/30103.got.cif
#   From: 2010.03.12/outbox.cif.g09.slc.cpg/sg68_16_cif.got.tgz:30103.got - 2010.04.10 23:14:56.
