data_PCOD8281453
_publ_section_title
;
Structure prediction by ZEFSAII (Michael W. Deem and Ramdas Pophale) SiO2 
 PCOD8281453
Probable space group: C M M A
;
_chemical_formula_sum "Si O2"
_cell_formula_units_Z 96
_cell_length_a 14.161353
_cell_length_b 20.822034
_cell_length_c 14.599214
_cell_angle_alpha 90.000000
_cell_angle_beta 90.000000
_cell_angle_gamma 90.000000
_cell_volume 4304.843569
_symmetry_space_group_name_H-M "C M M A"
_symmetry_group_IT_number 67
_symmetry_cell_setting 'orthorhombic'
loop_
_space_group_symop_operation_xyz
x,y,z
-x,1/2-y,z
x,-y,-z
-x,1/2+y,-z
-x,-y,-z
x,1/2+y,-z
-x,y,z
x,1/2-y,z
1/2+x,1/2+y,z
1/2-x,-y,z
1/2+x,1/2-y,-z
1/2-x,y,-z
1/2-x,1/2-y,-z
1/2+x,y,-z
1/2-x,1/2+y,z
1/2+x,-y,z
loop_
_atom_site_type_symbol
_atom_site_label
_atom_site_fract_x
_atom_site_fract_y
_atom_site_fract_z
Si Si1 0.645265 0.473460 0.374736
Si Si2 0.606396 0.113946 0.220894
Si Si3 0.888120 0.928502 0.021026
Si Si4 0.396975 0.399348 0.547268
Si Si5 0.888130 0.822385 0.879827
Si Si6 0.214841 0.176657 0.304573
O O1 0.750000 0.500000 0.365220
O O2 0.604742 0.452375 0.277020
O O3 0.581324 0.531570 0.408136
O O4 0.642343 0.412538 0.444790
O O5 0.500000 0.143697 0.217601
O O6 0.644023 0.096816 0.120129
O O7 0.678558 0.161282 0.272442
O O8 0.000000 0.931518 0.015508
O O9 0.847198 0.876224 0.949078
O O10 0.847020 0.000000 0.000000
O O11 0.500000 0.363961 0.543450
O O12 0.319039 0.361165 0.605592
O O13 0.852677 0.750000 0.906479
O O14 0.855510 0.840395 0.778036
O O15 0.000000 0.824138 0.881884
O O16 0.210591 0.250000 0.333015
#
# Coordination Sequence:
#
# PCOD8281453 Si02
#       6
#    16  16  16  16  16  16
#     4  11  22  41  67  97 131 164 207 253 317 391
#     4  11  24  42  63  91 129 173 218 267 325 384
#     4   9  20  37  61  95 129 165 215 274 334 392
#     4  11  22  39  67  97 128 163 205 261 321 383
#     4   9  19  39  64  91 127 169 214 267 331 398
#     4  11  25  42  64  94 127 170 221 271 318 380
#
# _framework density 22.300463000000001
#
# number of rings (size 3 to 8) (size 9 to 14) (size 15 to 20)
#    0.000    1.667    1.667    3.500    2.333    2.667 
#    0.000    5.833    0.000    2.000    0.000    0.000 
#    0.000    0.000    0.000    0.000    0.000    0.000 
#
# Total GULP energy -594911.642968 kJ/mol
# GULP energy per Si atom -12393.992562 kJ/mol
# Density = 2.224971 g / cm^3
# Si number density = 22.300463 Si / 1000 Ang^3
#
#
#
# Elastic Constant Matrix: (Units=GPa)
#
#
# Indices 1 2 3 4 5 6 
#
# 1 90.4926 21.7969 28.1248 0.0000 0.0000 0.0000
# 2 21.7969 106.6901 46.1654 0.0000 0.0000 0.0000
# 3 28.1248 46.1654 88.1678 0.0000 0.0000 0.0000
# 4 0.0000 0.0000 0.0000 36.1920 0.0000 0.0000
# 5 0.0000 0.0000 0.0000 0.0000 22.6182 0.0000
# 6 0.0000 0.0000 0.0000 0.0000 0.0000 -48.5684
#
#
#
# Elastic Compliance Matrix: (Units=1/GPa)
#
#
# Indices 1 2 3 4 5 6 
#
# 1 0.012359 -0.001059 -0.003388 0.000000 0.000000 0.000000
# 2 -0.001059 0.012209 -0.006055 0.000000 0.000000 0.000000
# 3 -0.003388 -0.006055 0.015593 0.000000 0.000000 0.000000
# 4 0.000000 0.000000 0.000000 0.027630 0.000000 0.000000
# 5 0.000000 0.000000 0.000000 0.000000 0.044212 0.000000
# 6 0.000000 0.000000 0.000000 0.000000 0.000000 -0.020590
#
#
# Mechanical properties :
#
#
# Convention : Reuss Voigt Hill
#
# Bulk Modulus (GPa) = 52.19916 53.05830 52.62873
# Shear Modulus (GPa) = 42.08614 14.66592 28.37603
#
# Velocity S-wave (km/s) = 4.34894 2.56725 3.57100
# Velocity P-wave (km/s) = 6.97680 5.71243 6.37603
#
# Compressibility (1/GPa) = 0.01915740
#
# Stress axis : x y z
#
# Youngs Moduli (GPa) = 80.91517 81.90427 64.13047
#
# Poissons Ratio (x) = 0.08673 0.21726
# Poissons Ratio (y) = 0.08569 0.38832
# Poissons Ratio (z) = 0.27413 0.49594
#
# Static dielectric constant tensor:
#      x y z
#    x 3.885040 0.000000 0.000000 
#    y 0.000000 4.072420 0.000000 
#    z 0.000000 0.000000 4.131540 
# 
# 
# High freq. dielectric constant tensor:
#      x y z
#    x 1.889450 0.000000 0.000000 
#    y 0.000000 1.856320 0.000000 
#    z 0.000000 0.000000 1.881800 
# 
# From -- ./inp_files/27218.got.cif
#   From: 2010.03.12/outbox.cif.g09.slc.cpg/sg67_14_cif.got.tgz:27218.got - 2010.04.10 22:41:39.
