data_PCOD8281777
_publ_section_title
;
Structure prediction by ZEFSAII (Michael W. Deem and Ramdas Pophale) SiO2 
 PCOD8281777
Probable space group: C C C A
;
_chemical_formula_sum "Si O2"
_cell_formula_units_Z 88
_cell_length_a 17.750396
_cell_length_b 24.388016
_cell_length_c 8.938912
_cell_angle_alpha 90.000000
_cell_angle_beta 90.000000
_cell_angle_gamma 90.000000
_cell_volume 3869.627667
_symmetry_space_group_name_H-M "C C C A"
_symmetry_group_IT_number 68
_space_group.IT_coordinate_system_code '2'
_symmetry_cell_setting 'orthorhombic'
loop_
_space_group_symop_operation_xyz
x,y,z
-x,1/2-y,z
x,1/2-y,1/2-z
-x,y,1/2-z
-x,-y,-z
x,1/2+y,-z
-x,1/2+y,1/2+z
x,-y,1/2+z
1/2+x,1/2+y,z
1/2-x,-y,z
1/2+x,-y,1/2-z
1/2-x,1/2+y,1/2-z
1/2-x,1/2-y,-z
1/2+x,y,-z
1/2-x,y,1/2+z
1/2+x,1/2-y,1/2+z
loop_
_atom_site_type_symbol
_atom_site_label
_atom_site_fract_x
_atom_site_fract_y
_atom_site_fract_z
Si Si1 0.500000 0.250000 0.750000
Si Si2 0.663492 0.481005 0.204424
Si Si3 0.707901 0.123605 0.432903
Si Si4 0.758912 0.303502 0.840727
Si Si5 0.869508 0.073869 0.493530
Si Si6 0.409699 0.809444 0.996300
Si Si7 0.000000 0.750000 0.250000
O O1 0.556348 0.214836 0.852212
O O2 0.750000 0.500000 0.229013
O O3 0.656817 0.430721 0.083600
O O4 0.615051 0.532090 0.142963
O O5 0.626194 0.462281 0.357555
O O6 0.688662 0.166223 0.570590
O O7 0.703568 0.153969 0.274126
O O8 0.789892 0.102709 0.474525
O O9 0.731239 0.250000 0.750000
O O10 0.821655 0.290877 0.970829
O O11 0.926284 0.125124 0.494182
O O12 0.449959 0.789394 0.848520
#
# Coordination Sequence:
#
# PCOD8281777 Si02
#       7
#     4  16  16  16  16  16   4
#     4  10  24  46  72  86 112 150 212 278 322 360
#     4  10  18  33  56  86 125 173 197 237 280 363
#     4  10  19  34  54  85 132 170 196 237 285 371
#     4  11  21  37  54  92 132 166 203 243 300 364
#     4  10  21  35  58  90 126 156 212 238 296 360
#     4  10  21  43  64  94 109 158 208 265 313 365
#     4  10  20  42  76  78 116 154 212 270 322 364
#
# _framework density 22.741205000000001
#
# number of rings (size 3 to 8) (size 9 to 14) (size 15 to 20)
#    0.000    1.818    4.545    2.182    2.545    0.000 
#   13.091    3.636    0.000    3.273    0.000    0.000 
#    0.000    0.000    0.000    0.000    0.000    0.000 
#
# Total GULP energy -545093.747861 kJ/mol
# GULP energy per Si atom -12388.494270 kJ/mol
# Density = 2.268945 g / cm^3
# Si number density = 22.741205 Si / 1000 Ang^3
#
#
#
# Elastic Constant Matrix: (Units=GPa)
#
#
# Indices 1 2 3 4 5 6 
#
# 1 21.5147 11.7361 28.4888 0.0000 0.0000 0.0000
# 2 11.7361 154.4283 90.1851 0.0000 0.0000 0.0000
# 3 28.4888 90.1851 144.5618 0.0000 0.0000 0.0000
# 4 0.0000 0.0000 0.0000 51.1164 0.0000 0.0000
# 5 0.0000 0.0000 0.0000 0.0000 -71.1625 0.0000
# 6 0.0000 0.0000 0.0000 0.0000 0.0000 60.2445
#
#
#
# Elastic Compliance Matrix: (Units=1/GPa)
#
#
# Indices 1 2 3 4 5 6 
#
# 1 0.064395 0.003960 -0.015161 0.000000 0.000000 0.000000
# 2 0.003960 0.010430 -0.007287 0.000000 0.000000 0.000000
# 3 -0.015161 -0.007287 0.014451 0.000000 0.000000 0.000000
# 4 0.000000 0.000000 0.000000 0.019563 0.000000 0.000000
# 5 0.000000 0.000000 0.000000 0.000000 -0.014052 0.000000
# 6 0.000000 0.000000 0.000000 0.000000 0.000000 0.016599
#
#
# Mechanical properties :
#
#
# Convention : Reuss Voigt Hill
#
# Bulk Modulus (GPa) = 19.12038 64.59165 41.85601
# Shear Modulus (GPa) = 30.15754 20.71264 25.43509
#
# Velocity S-wave (km/s) = 3.64554 3.02122 3.34796
# Velocity P-wave (km/s) = 5.11332 6.37455 5.77845
#
# Compressibility (1/GPa) = 0.05230022
#
# Stress axis : x y z
#
# Youngs Moduli (GPa) = 15.52922 95.87435 69.19745
#
# Poissons Ratio (x) = -0.37965 1.04908
# Poissons Ratio (y) = -0.06149 0.50427
# Poissons Ratio (z) = 0.23543 0.69867
#
# Static dielectric constant tensor:
#      x y z
#    x 3.461000 0.000000 0.000000 
#    y 0.000000 4.866880 0.000000 
#    z 0.000000 0.000000 4.445860 
# 
# 
# High freq. dielectric constant tensor:
#      x y z
#    x 1.808290 0.000000 0.000000 
#    y 0.000000 1.932010 0.000000 
#    z 0.000000 0.000000 1.917690 
# 
# From -- ./inp_files/7155.got.cif
#   From: 2010.03.12/outbox.cif.g09.slc.cpg/sg68_4_cif.got.tgz:7155.got - 2010.04.10 23:14:56.
