data_PCOD8281488
_publ_section_title
;
Structure prediction by ZEFSAII (Michael W. Deem and Ramdas Pophale) SiO2 
 PCOD8281488
Probable space group: C M M A
;
_chemical_formula_sum "Si O2"
_cell_formula_units_Z 112
_cell_length_a 27.839265
_cell_length_b 17.236547
_cell_length_c 12.148927
_cell_angle_alpha 90.000000
_cell_angle_beta 90.000000
_cell_angle_gamma 90.000000
_cell_volume 5829.696633
_symmetry_space_group_name_H-M "C M M A"
_symmetry_group_IT_number 67
_symmetry_cell_setting 'orthorhombic'
loop_
_space_group_symop_operation_xyz
x,y,z
-x,1/2-y,z
x,-y,-z
-x,1/2+y,-z
-x,-y,-z
x,1/2+y,-z
-x,y,z
x,1/2-y,z
1/2+x,1/2+y,z
1/2-x,-y,z
1/2+x,1/2-y,-z
1/2-x,y,-z
1/2-x,1/2-y,-z
1/2+x,y,-z
1/2-x,1/2+y,z
1/2+x,-y,z
loop_
_atom_site_type_symbol
_atom_site_label
_atom_site_fract_x
_atom_site_fract_y
_atom_site_fract_z
Si Si1 0.697109 0.659101 0.968749
Si Si2 0.285091 0.339278 0.643522
Si Si3 0.855926 0.915712 0.219268
Si Si4 0.553007 0.159334 0.867730
Si Si5 0.690951 0.083374 0.440948
Si Si6 0.649222 0.592331 0.171656
Si Si7 0.554032 0.160774 0.122807
O O1 0.693516 0.750000 0.988198
O O2 0.682666 0.639362 0.843165
O O3 0.750000 0.628400 0.000000
O O4 0.658471 0.617022 0.046035
O O5 0.268366 0.250000 0.651795
O O6 0.318837 0.352268 0.535859
O O7 0.240413 0.397473 0.624159
O O8 0.313403 0.361058 0.753156
O O9 0.851103 0.910410 0.351160
O O10 0.910481 0.893471 0.191938
O O11 0.842999 0.001860 0.182517
O O12 0.500000 0.135774 0.823233
O O13 0.561637 0.250000 0.851309
O O14 0.594007 0.114059 0.799541
O O15 0.556300 0.137009 0.995648
O O16 0.692822 0.000000 0.500000
O O17 0.500000 0.148134 0.167559
O O18 0.569932 0.250000 0.137553
#
# Coordination Sequence:
#
# PCOD8281488 Si02
#       7
#    16  16  16  16  16  16  16
#     4  11  24  39  55  82 123 162 200 244 294 359
#     4  11  23  39  64  88 114 159 210 251 296 358
#     4  12  24  36  61  87 120 160 199 244 310 361
#     4   9  18  35  59  85 120 161 196 238 291 351
#     4  11  23  42  61  84 120 157 205 263 302 344
#     4  12  23  36  57  91 126 158 195 245 301 365
#     4   9  19  37  61  89 121 158 202 248 295 357
#
# _framework density 19.211977999999998
#
# number of rings (size 3 to 8) (size 9 to 14) (size 15 to 20)
#    0.000    1.286    2.857    5.571    0.000    6.286 
#    0.000    1.429    0.000    1.286    0.000    2.000 
#    0.000    0.000    0.000    0.000    0.000    0.000 
#
# Total GULP energy -694358.653631 kJ/mol
# GULP energy per Si atom -12399.261672 kJ/mol
# Density = 1.916825 g / cm^3
# Si number density = 19.211978 Si / 1000 Ang^3
#
#
#
# Elastic Constant Matrix: (Units=GPa)
#
#
# Indices 1 2 3 4 5 6 
#
# 1 78.3487 14.8442 10.8526 0.0000 0.0000 0.0000
# 2 14.8442 63.3860 13.4656 0.0000 0.0000 0.0000
# 3 10.8526 13.4656 64.6351 0.0000 0.0000 0.0000
# 4 0.0000 0.0000 0.0000 20.1462 0.0000 0.0000
# 5 0.0000 0.0000 0.0000 0.0000 26.2315 0.0000
# 6 0.0000 0.0000 0.0000 0.0000 0.0000 29.5053
#
#
#
# Elastic Compliance Matrix: (Units=1/GPa)
#
#
# Indices 1 2 3 4 5 6 
#
# 1 0.013529 -0.002810 -0.001686 0.000000 0.000000 0.000000
# 2 -0.002810 0.017091 -0.003089 0.000000 0.000000 0.000000
# 3 -0.001686 -0.003089 0.016398 0.000000 0.000000 0.000000
# 4 0.000000 0.000000 0.000000 0.049637 0.000000 0.000000
# 5 0.000000 0.000000 0.000000 0.000000 0.038122 0.000000
# 6 0.000000 0.000000 0.000000 0.000000 0.000000 0.033892
#
#
# Mechanical properties :
#
#
# Convention : Reuss Voigt Hill
#
# Bulk Modulus (GPa) = 31.39924 31.63275 31.51600
# Shear Modulus (GPa) = 25.71276 26.32374 26.01825
#
# Velocity S-wave (km/s) = 3.66234 3.70560 3.68404
# Velocity P-wave (km/s) = 5.85344 5.89996 5.87674
#
# Compressibility (1/GPa) = 0.03184791
#
# Stress axis : x y z
#
# Youngs Moduli (GPa) = 73.91284 58.51161 60.98280
#
# Poissons Ratio (x) = 0.16443 0.10283
# Poissons Ratio (y) = 0.20771 0.18836
# Poissons Ratio (z) = 0.12463 0.18072
#
# Static dielectric constant tensor:
#      x y z
#    x 3.583170 0.000000 0.000000 
#    y 0.000000 3.506320 0.000000 
#    z 0.000000 0.000000 3.579320 
# 
# 
# High freq. dielectric constant tensor:
#      x y z
#    x 1.741370 0.000000 0.000000 
#    y 0.000000 1.751720 0.000000 
#    z 0.000000 0.000000 1.727960 
# 
# From -- ./inp_files/23809.got.cif
#   From: 2010.03.12/outbox.cif.g09.slc.cpg/sg67_12_cif.got.tgz:23809.got - 2010.04.10 22:41:39.
