data_PCOD8281509
_publ_section_title
;
Structure prediction by ZEFSAII (Michael W. Deem and Ramdas Pophale) SiO2 
 PCOD8281509
Probable space group: C M M A
;
_chemical_formula_sum "Si O2"
_cell_formula_units_Z 64
_cell_length_a 23.532050
_cell_length_b 15.428026
_cell_length_c 8.665063
_cell_angle_alpha 90.000000
_cell_angle_beta 90.000000
_cell_angle_gamma 90.000000
_cell_volume 3145.877804
_symmetry_space_group_name_H-M "C M M A"
_symmetry_group_IT_number 67
_symmetry_cell_setting 'orthorhombic'
loop_
_space_group_symop_operation_xyz
x,y,z
-x,1/2-y,z
x,-y,-z
-x,1/2+y,-z
-x,-y,-z
x,1/2+y,-z
-x,y,z
x,1/2-y,z
1/2+x,1/2+y,z
1/2-x,-y,z
1/2+x,1/2-y,-z
1/2-x,y,-z
1/2-x,1/2-y,-z
1/2+x,y,-z
1/2-x,1/2+y,z
1/2+x,-y,z
loop_
_atom_site_type_symbol
_atom_site_label
_atom_site_fract_x
_atom_site_fract_y
_atom_site_fract_z
Si Si1 0.318396 0.250000 0.329638
Si Si2 0.186580 0.250000 0.309241
Si Si3 0.000000 0.654174 0.696380
Si Si4 0.500000 0.415863 0.388503
Si Si5 0.384796 0.098868 0.835338
Si Si6 0.887326 0.594187 0.189134
O O1 0.253238 0.250000 0.278733
O O2 0.327910 0.250000 0.511468
O O3 0.344943 0.162214 0.264809
O O4 0.160621 0.164689 0.233138
O O5 0.000000 0.663125 0.510321
O O6 0.055174 0.602050 0.749041
O O7 0.000000 0.750000 0.769058
O O8 0.500000 0.500000 0.500000
O O9 0.553853 0.407284 0.279148
O O10 0.359964 0.002203 0.809035
O O11 0.397376 0.121829 0.012715
#
# Coordination Sequence:
#
# PCOD8281509 Si02
#       6
#     8   8   8   8  16  16
#     4  11  27  44  67  96 127 169 227 275 328 387
#     4  11  25  46  67  94 127 173 223 279 326 387
#     4  12  23  37  63  98 129 174 204 267 326 391
#     4  12  23  39  64  99 135 169 213 268 321 402
#     4  11  23  43  68  94 135 172 216 265 332 393
#     4  11  25  42  65  99 132 173 214 269 323 400
#
# _framework density 20.344083000000001
#
# number of rings (size 3 to 8) (size 9 to 14) (size 15 to 20)
#    0.000    0.750    3.750    3.000    1.750    5.000 
#    0.000    5.000    0.000    0.000    0.000    0.000 
#    0.000    0.000    0.000    0.000    0.000    0.000 
#
# Total GULP energy -396833.238318 kJ/mol
# GULP energy per Si atom -12401.038697 kJ/mol
# Density = 2.029778 g / cm^3
# Si number density = 20.344083 Si / 1000 Ang^3
#
#
#
# Elastic Constant Matrix: (Units=GPa)
#
#
# Indices 1 2 3 4 5 6 
#
# 1 132.3650 78.9271 99.0090 0.0000 0.0000 0.0000
# 2 78.9271 150.0865 69.2482 0.0000 0.0000 0.0000
# 3 99.0090 69.2482 165.4174 0.0000 0.0000 0.0000
# 4 0.0000 0.0000 0.0000 37.4018 0.0000 0.0000
# 5 0.0000 0.0000 0.0000 0.0000 104.7203 0.0000
# 6 0.0000 0.0000 0.0000 0.0000 0.0000 36.2907
#
#
#
# Elastic Compliance Matrix: (Units=1/GPa)
#
#
# Indices 1 2 3 4 5 6 
#
# 1 0.016259 -0.005032 -0.007625 0.000000 0.000000 0.000000
# 2 -0.005032 0.009815 -0.001097 0.000000 0.000000 0.000000
# 3 -0.007625 -0.001097 0.011068 0.000000 0.000000 0.000000
# 4 0.000000 0.000000 0.000000 0.026737 0.000000 0.000000
# 5 0.000000 0.000000 0.000000 0.000000 0.009549 0.000000
# 6 0.000000 0.000000 0.000000 0.000000 0.000000 0.027555
#
#
# Mechanical properties :
#
#
# Convention : Reuss Voigt Hill
#
# Bulk Modulus (GPa) = 103.79576 104.69305 104.24440
# Shear Modulus (GPa) = 37.96399 49.06153 43.51276
#
# Velocity S-wave (km/s) = 4.32452 4.91612 4.62978
# Velocity P-wave (km/s) = 8.72159 9.15408 8.94045
#
# Compressibility (1/GPa) = 0.00963430
#
# Stress axis : x y z
#
# Youngs Moduli (GPa) = 61.50438 101.88230 90.34671
#
# Poissons Ratio (x) = 0.51268 0.68890
# Poissons Ratio (y) = 0.30950 0.09911
# Poissons Ratio (z) = 0.46898 0.11177
#
# Static dielectric constant tensor:
#      x y z
#    x 3.553900 0.000000 0.000000 
#    y 0.000000 3.973800 0.000000 
#    z 0.000000 0.000000 4.063440 
# 
# 
# High freq. dielectric constant tensor:
#      x y z
#    x 1.782780 0.000000 0.000000 
#    y 0.000000 1.815970 0.000000 
#    z 0.000000 0.000000 1.817930 
# 
# From -- ./inp_files/8084.got.cif
#   From: 2010.03.12/outbox.cif.g09.slc.cpg/sg67_5_cif.got.tgz:8084.got - 2010.04.10 22:41:39.
