data_PCOD8281240
_publ_section_title
;
Structure prediction by ZEFSAII (Michael W. Deem and Ramdas Pophale) SiO2 
 PCOD8281240
Probable space group: C M M A
;
_chemical_formula_sum "Si O2"
_cell_formula_units_Z 60
_cell_length_a 18.306739
_cell_length_b 9.177920
_cell_length_c 16.850668
_cell_angle_alpha 90.000000
_cell_angle_beta 90.000000
_cell_angle_gamma 90.000000
_cell_volume 2831.211930
_symmetry_space_group_name_H-M "C M M A"
_symmetry_group_IT_number 67
_symmetry_cell_setting 'orthorhombic'
loop_
_space_group_symop_operation_xyz
x,y,z
-x,1/2-y,z
x,-y,-z
-x,1/2+y,-z
-x,-y,-z
x,1/2+y,-z
-x,y,z
x,1/2-y,z
1/2+x,1/2+y,z
1/2-x,-y,z
1/2+x,1/2-y,-z
1/2-x,y,-z
1/2-x,1/2-y,-z
1/2+x,y,-z
1/2-x,1/2+y,z
1/2+x,-y,z
loop_
_atom_site_type_symbol
_atom_site_label
_atom_site_fract_x
_atom_site_fract_y
_atom_site_fract_z
Si Si1 0.913580 0.415009 0.423126
Si Si2 0.000000 0.422089 0.083073
Si Si3 0.362207 0.589931 0.870765
Si Si4 0.750000 0.000000 0.000000
Si Si5 0.679113 0.081659 0.305983
O O1 0.882757 0.500000 0.500000
O O2 0.882688 0.250000 0.422546
O O3 0.890401 0.502055 0.344325
O O4 0.000000 0.412313 0.424153
O O5 0.074358 0.469158 0.126412
O O6 0.000000 0.250000 0.073430
O O7 0.000000 0.500000 0.000000
O O8 0.399058 0.750000 0.871798
O O9 0.303707 0.590682 0.942698
O O10 0.320925 0.563340 0.788655
O O11 0.680058 0.250000 0.331518
O O12 0.750000 0.000000 0.340070
#
# Coordination Sequence:
#
# PCOD8281240 Si02
#       5
#    16   8  16   4  16
#     4  10  22  42  68  98 130 169 214 263 320 385
#     4  12  26  42  64  90 123 164 215 268 322 384
#     4  11  25  43  65  95 129 169 216 268 324 381
#     4  12  22  42  72  94 128 174 218 268 326 378
#     4  11  24  42  64  95 132 169 213 266 321 383
#
# _framework density 21.192340000000002
#
# number of rings (size 3 to 8) (size 9 to 14) (size 15 to 20)
#    0.000    1.067    2.667    3.200    1.867    5.333 
#    0.000    2.667    0.000    0.000    0.000    0.000 
#    0.000    0.000    0.000    0.000    0.000    0.000 
#
# Total GULP energy -371988.178124 kJ/mol
# GULP energy per Si atom -12399.605937 kJ/mol
# Density = 2.114410 g / cm^3
# Si number density = 21.192340 Si / 1000 Ang^3
#
#
#
# Elastic Constant Matrix: (Units=GPa)
#
#
# Indices 1 2 3 4 5 6 
#
# 1 75.1901 53.1166 18.4828 0.0000 0.0000 0.0000
# 2 53.1166 198.9238 56.7613 0.0000 0.0000 0.0000
# 3 18.4828 56.7613 108.5376 0.0000 0.0000 0.0000
# 4 0.0000 0.0000 0.0000 33.4446 0.0000 0.0000
# 5 0.0000 0.0000 0.0000 0.0000 29.9712 0.0000
# 6 0.0000 0.0000 0.0000 0.0000 0.0000 32.2135
#
#
#
# Elastic Compliance Matrix: (Units=1/GPa)
#
#
# Indices 1 2 3 4 5 6 
#
# 1 0.016424 -0.004217 -0.000592 0.000000 0.000000 0.000000
# 2 -0.004217 0.006991 -0.002938 0.000000 0.000000 0.000000
# 3 -0.000592 -0.002938 0.010851 0.000000 0.000000 0.000000
# 4 0.000000 0.000000 0.000000 0.029900 0.000000 0.000000
# 5 0.000000 0.000000 0.000000 0.000000 0.033365 0.000000
# 6 0.000000 0.000000 0.000000 0.000000 0.000000 0.031043
#
#
# Mechanical properties :
#
#
# Convention : Reuss Voigt Hill
#
# Bulk Modulus (GPa) = 53.26815 71.04142 62.15478
# Shear Modulus (GPa) = 33.26124 36.07856 34.66990
#
# Velocity S-wave (km/s) = 3.96598 4.13053 4.04909
# Velocity P-wave (km/s) = 6.79427 7.50622 7.15910
#
# Compressibility (1/GPa) = 0.01877295
#
# Stress axis : x y z
#
# Youngs Moduli (GPa) = 60.88709 143.03338 92.15991
#
# Poissons Ratio (x) = 0.60313 0.05452
# Poissons Ratio (y) = 0.25674 0.27078
# Poissons Ratio (z) = 0.03602 0.42026
#
# Static dielectric constant tensor:
#      x y z
#    x 3.528010 0.000000 0.000000 
#    y 0.000000 4.128030 0.000000 
#    z 0.000000 0.000000 3.790710 
# 
# 
# High freq. dielectric constant tensor:
#      x y z
#    x 1.827150 0.000000 0.000000 
#    y 0.000000 1.843120 0.000000 
#    z 0.000000 0.000000 1.832620 
# 
# From -- ./inp_files/31652.got.cif
#   From: 2010.03.12/outbox.cif.g09.slc.cpg/sg67_16_cif.got.tgz:31652.got - 2010.04.10 22:41:39.
