data_PCOD8281351
_publ_section_title
;
Structure prediction by ZEFSAII (Michael W. Deem and Ramdas Pophale) SiO2 
 PCOD8281351
Probable space group: C M M A
;
_chemical_formula_sum "Si O2"
_cell_formula_units_Z 96
_cell_length_a 27.731579
_cell_length_b 8.806787
_cell_length_c 23.862013
_cell_angle_alpha 90.000000
_cell_angle_beta 90.000000
_cell_angle_gamma 90.000000
_cell_volume 5827.726598
_symmetry_space_group_name_H-M "C M M A"
_symmetry_group_IT_number 67
_symmetry_cell_setting 'orthorhombic'
loop_
_space_group_symop_operation_xyz
x,y,z
-x,1/2-y,z
x,-y,-z
-x,1/2+y,-z
-x,-y,-z
x,1/2+y,-z
-x,y,z
x,1/2-y,z
1/2+x,1/2+y,z
1/2-x,-y,z
1/2+x,1/2-y,-z
1/2-x,y,-z
1/2-x,1/2-y,-z
1/2+x,y,-z
1/2-x,1/2+y,z
1/2+x,-y,z
loop_
_atom_site_type_symbol
_atom_site_label
_atom_site_fract_x
_atom_site_fract_y
_atom_site_fract_z
Si Si1 0.055224 0.570637 0.942576
Si Si2 0.105086 0.430832 0.168440
Si Si3 0.801080 0.429890 0.558860
Si Si4 0.946922 0.930107 0.722331
Si Si5 0.800848 0.071919 0.227948
Si Si6 0.353711 0.571532 0.341070
O O1 0.059603 0.750000 0.946849
O O2 0.087464 0.505573 0.891456
O O3 0.000000 0.520466 0.932400
O O4 0.075381 0.500000 0.000000
O O5 0.102524 0.250000 0.168545
O O6 0.069844 0.493683 0.217192
O O7 0.159695 0.484100 0.182201
O O8 0.818079 0.500000 0.500000
O O9 0.796115 0.250000 0.553215
O O10 0.750000 0.500000 0.577249
O O11 0.840438 0.472907 0.605048
O O12 0.948526 0.750000 0.726245
O O13 0.908422 0.975958 0.674704
O O14 0.000000 0.995878 0.707581
O O15 0.794875 0.250000 0.224275
O O16 0.818327 0.026345 0.290112
O O17 0.750000 0.000000 0.212895
O O18 0.349624 0.750000 0.354625
#
# Coordination Sequence:
#
# PCOD8281351 Si02
#       6
#    16  16  16  16  16  16
#     4   9  16  26  42  63  86 111 139 173 213 257
#     4   8  14  25  41  62  87 114 144 177 214 256
#     4  11  21  33  49  68  91 118 148 181 218 259
#     4   8  13  23  43  69  92 115 146 182 216 253
#     4   9  17  28  43  63  87 114 143 177 214 255
#     4   9  17  29  45  68  95 118 143 177 217 260
#
# _framework density 16.472975999999999
#
# number of rings (size 3 to 8) (size 9 to 14) (size 15 to 20)
#    0.000    3.000    0.000    5.000    0.000    4.000 
#    0.000    0.833    0.000    2.500    0.000    3.500 
#    0.000    0.000    0.000    0.000    0.000    0.000 
#
# Total GULP energy -594961.015569 kJ/mol
# GULP energy per Si atom -12395.021158 kJ/mol
# Density = 1.643548 g / cm^3
# Si number density = 16.472976 Si / 1000 Ang^3
#
#
#
# Elastic Constant Matrix: (Units=GPa)
#
#
# Indices 1 2 3 4 5 6 
#
# 1 138.2428 28.4290 78.3228 0.0000 0.0000 0.0000
# 2 28.4290 43.5066 36.0579 0.0000 0.0000 0.0000
# 3 78.3228 36.0579 132.6895 0.0000 0.0000 0.0000
# 4 0.0000 0.0000 0.0000 22.0619 0.0000 0.0000
# 5 0.0000 0.0000 0.0000 0.0000 28.1957 0.0000
# 6 0.0000 0.0000 0.0000 0.0000 0.0000 18.0211
#
#
#
# Elastic Compliance Matrix: (Units=1/GPa)
#
#
# Indices 1 2 3 4 5 6 
#
# 1 0.011050 -0.002342 -0.005886 0.000000 0.000000 0.000000
# 2 -0.002342 0.030163 -0.006814 0.000000 0.000000 0.000000
# 3 -0.005886 -0.006814 0.012862 0.000000 0.000000 0.000000
# 4 0.000000 0.000000 0.000000 0.045327 0.000000 0.000000
# 5 0.000000 0.000000 0.000000 0.000000 0.035466 0.000000
# 6 0.000000 0.000000 0.000000 0.000000 0.000000 0.055490
#
#
# Mechanical properties :
#
#
# Convention : Reuss Voigt Hill
#
# Bulk Modulus (GPa) = 41.68282 66.67315 54.17798
# Shear Modulus (GPa) = 21.88745 25.09768 23.49256
#
# Velocity S-wave (km/s) = 3.64907 3.90752 3.78051
# Velocity P-wave (km/s) = 6.56605 7.80516 7.21226
#
# Compressibility (1/GPa) = 0.02399070
#
# Stress axis : x y z
#
# Youngs Moduli (GPa) = 90.49655 33.15317 77.74549
#
# Poissons Ratio (x) = 0.07765 0.45762
# Poissons Ratio (y) = 0.21197 0.52977
# Poissons Ratio (z) = 0.53267 0.22591
#
# Static dielectric constant tensor:
#      x y z
#    x 3.618360 0.000000 0.000000 
#    y 0.000000 2.754040 0.000000 
#    z 0.000000 0.000000 3.166640 
# 
# 
# High freq. dielectric constant tensor:
#      x y z
#    x 1.628330 0.000000 0.000000 
#    y 0.000000 1.602540 0.000000 
#    z 0.000000 0.000000 1.627820 
# 
# From -- ./inp_files/40946.got.cif
#   From: 2010.03.12/outbox.cif.g09.slc.cpg/sg67_21_cif.got.tgz:40946.got - 2010.04.10 22:41:39.
