data_PCOD8281410
_publ_section_title
;
Structure prediction by ZEFSAII (Michael W. Deem and Ramdas Pophale) SiO2 
 PCOD8281410
Probable space group: C M M A
;
_chemical_formula_sum "Si O2"
_cell_formula_units_Z 96
_cell_length_a 8.660165
_cell_length_b 28.668784
_cell_length_c 20.427456
_cell_angle_alpha 90.000000
_cell_angle_beta 90.000000
_cell_angle_gamma 90.000000
_cell_volume 5071.655233
_symmetry_space_group_name_H-M "C M M A"
_symmetry_group_IT_number 67
_symmetry_cell_setting 'orthorhombic'
loop_
_space_group_symop_operation_xyz
x,y,z
-x,1/2-y,z
x,-y,-z
-x,1/2+y,-z
-x,-y,-z
x,1/2+y,-z
-x,y,z
x,1/2-y,z
1/2+x,1/2+y,z
1/2-x,-y,z
1/2+x,1/2-y,-z
1/2-x,y,-z
1/2-x,1/2-y,-z
1/2+x,y,-z
1/2-x,1/2+y,z
1/2+x,-y,z
loop_
_atom_site_type_symbol
_atom_site_label
_atom_site_fract_x
_atom_site_fract_y
_atom_site_fract_z
Si Si1 0.181778 0.050154 0.809438
Si Si2 0.678907 0.108175 0.318531
Si Si3 0.318816 0.049439 0.569143
Si Si4 0.321141 0.197448 0.728787
Si Si5 0.816716 0.199504 0.122581
Si Si6 0.816707 0.603084 0.931398
O O1 0.225164 0.084174 0.749880
O O2 0.258765 0.068804 0.875371
O O3 0.000000 0.046539 0.820223
O O4 0.250000 0.000000 0.791963
O O5 0.500000 0.100824 0.334860
O O6 0.780061 0.087343 0.376532
O O7 0.718965 0.162883 0.314952
O O8 0.500000 0.043925 0.561447
O O9 0.250000 0.065917 0.500000
O O10 0.250000 0.000000 0.591458
O O11 0.500000 0.182717 0.724515
O O12 0.297544 0.250000 0.702406
O O13 0.260053 0.193661 0.803065
O O14 0.756743 0.250000 0.095212
O O15 0.753456 0.155994 0.080555
O O16 0.000000 0.199569 0.122243
O O17 0.000000 0.601639 0.932963
O O18 0.750000 0.585093 0.000000
#
# Coordination Sequence:
#
# PCOD8281410 Si02
#       6
#    16  16  16  16  16  16
#     4  11  24  40  58  81 108 140 184 233 281 333
#     4  11  22  36  58  88 120 151 188 233 281 333
#     4  11  22  38  60  87 122 158 195 233 279 333
#     4   9  17  32  56  84 113 148 190 232 279 334
#     4   8  15  30  53  79 107 141 180 223 274 331
#     4  11  22  37  57  78 108 144 183 229 282 338
#
# _framework density 18.928730000000002
#
# number of rings (size 3 to 8) (size 9 to 14) (size 15 to 20)
#    0.000    1.833    1.667    5.000    0.000    4.333 
#    0.000    1.667    0.000    2.000    0.000    0.000 
#    0.000    0.000    0.000    0.000    0.000    0.000 
#
# Total GULP energy -595262.912950 kJ/mol
# GULP energy per Si atom -12401.310686 kJ/mol
# Density = 1.888565 g / cm^3
# Si number density = 18.928730 Si / 1000 Ang^3
#
#
#
# Elastic Constant Matrix: (Units=GPa)
#
#
# Indices 1 2 3 4 5 6 
#
# 1 91.6078 37.0535 38.5347 0.0000 0.0000 0.0000
# 2 37.0535 102.0000 40.1534 0.0000 0.0000 0.0000
# 3 38.5347 40.1534 91.8384 0.0000 0.0000 0.0000
# 4 0.0000 0.0000 0.0000 28.4283 0.0000 0.0000
# 5 0.0000 0.0000 0.0000 0.0000 24.7725 0.0000
# 6 0.0000 0.0000 0.0000 0.0000 0.0000 29.3938
#
#
#
# Elastic Compliance Matrix: (Units=1/GPa)
#
#
# Indices 1 2 3 4 5 6 
#
# 1 0.014163 -0.003389 -0.004461 0.000000 0.000000 0.000000
# 2 -0.003389 0.012653 -0.004110 0.000000 0.000000 0.000000
# 3 -0.004461 -0.004110 0.014558 0.000000 0.000000 0.000000
# 4 0.000000 0.000000 0.000000 0.035176 0.000000 0.000000
# 5 0.000000 0.000000 0.000000 0.000000 0.040367 0.000000
# 6 0.000000 0.000000 0.000000 0.000000 0.000000 0.034021
#
#
# Mechanical properties :
#
#
# Convention : Reuss Voigt Hill
#
# Bulk Modulus (GPa) = 57.29503 57.43661 57.36582
# Shear Modulus (GPa) = 27.67371 27.83254 27.75312
#
# Velocity S-wave (km/s) = 3.82775 3.83872 3.83324
# Velocity P-wave (km/s) = 7.06188 7.07511 7.06850
#
# Compressibility (1/GPa) = 0.01745352
#
# Stress axis : x y z
#
# Youngs Moduli (GPa) = 70.60429 79.03236 68.69266
#
# Poissons Ratio (x) = 0.26784 0.30645
# Poissons Ratio (y) = 0.23928 0.28234
# Poissons Ratio (z) = 0.31498 0.32484
#
# Static dielectric constant tensor:
#      x y z
#    x 3.332010 0.000000 0.000000 
#    y 0.000000 3.688680 0.000000 
#    z 0.000000 0.000000 3.328000 
# 
# 
# High freq. dielectric constant tensor:
#      x y z
#    x 1.730070 0.000000 0.000000 
#    y 0.000000 1.742500 0.000000 
#    z 0.000000 0.000000 1.719290 
# 
# From -- ./inp_files/37180.got.cif
#   From: 2010.03.12/outbox.cif.g09.slc.cpg/sg67_19_cif.got.tgz:37180.got - 2010.04.10 22:41:39.
