data_PCOD8281063
_publ_section_title
;
Structure prediction by ZEFSAII (Michael W. Deem and Ramdas Pophale) SiO2 
 PCOD8281063
Probable space group: C M M A
;
_chemical_formula_sum "Si O2"
_cell_formula_units_Z 104
_cell_length_a 24.670119
_cell_length_b 15.862441
_cell_length_c 12.904541
_cell_angle_alpha 90.000000
_cell_angle_beta 90.000000
_cell_angle_gamma 90.000000
_cell_volume 5049.912183
_symmetry_space_group_name_H-M "C M M A"
_symmetry_group_IT_number 67
_symmetry_cell_setting 'orthorhombic'
loop_
_space_group_symop_operation_xyz
x,y,z
-x,1/2-y,z
x,-y,-z
-x,1/2+y,-z
-x,-y,-z
x,1/2+y,-z
-x,y,z
x,1/2-y,z
1/2+x,1/2+y,z
1/2-x,-y,z
1/2+x,1/2-y,-z
1/2-x,y,-z
1/2-x,1/2-y,-z
1/2+x,y,-z
1/2-x,1/2+y,z
1/2+x,-y,z
loop_
_atom_site_type_symbol
_atom_site_label
_atom_site_fract_x
_atom_site_fract_y
_atom_site_fract_z
Si Si1 0.344157 0.344422 0.311649
Si Si2 0.059257 0.437900 0.793315
Si Si3 0.893446 0.000000 0.000000
Si Si4 0.224512 0.849057 0.694807
Si Si5 0.560329 0.116897 0.707808
Si Si6 0.640612 0.095622 0.533865
Si Si7 0.143987 0.155426 0.123338
O O1 0.338918 0.250000 0.273329
O O2 0.390752 0.381190 0.239541
O O3 0.285212 0.387333 0.293683
O O4 0.358328 0.347339 0.432346
O O5 0.058698 0.516427 0.716390
O O6 0.000000 0.392306 0.786620
O O7 0.067319 0.468449 0.910128
O O8 0.857561 0.080827 0.037569
O O9 0.224957 0.750000 0.666357
O O10 0.195784 0.898565 0.600595
O O11 0.194737 0.865794 0.803258
O O12 0.500000 0.155422 0.700965
O O13 0.592253 0.135729 0.602028
O O14 0.589731 0.157361 0.807014
O O15 0.630035 0.000000 0.500000
O O16 0.149984 0.250000 0.073716
#
# Coordination Sequence:
#
# PCOD8281063 Si02
#       7
#    16  16   8  16  16  16  16
#     4  11  23  38  56  84 120 157 193 235 298 358
#     4  10  21  40  60  80 112 150 192 243 297 353
#     4  10  21  40  65  92 114 152 196 246 310 360
#     4   9  20  39  59  80 117 159 194 242 290 342
#     4   9  19  36  56  81 117 156 196 241 286 338
#     4  11  20  34  55  89 115 156 200 238 286 344
#     4   9  19  38  62  89 119 153 199 247 296 355
#
# _framework density 20.594417
#
# number of rings (size 3 to 8) (size 9 to 14) (size 15 to 20)
#    0.000    2.154    1.538    1.154    0.000    5.846 
#    0.000    1.538    0.000    2.769    0.000    0.000 
#    0.000    0.000    0.000    0.000    0.000    0.000 
#
# Total GULP energy -644597.055252 kJ/mol
# GULP energy per Si atom -12396.097216 kJ/mol
# Density = 2.054754 g / cm^3
# Si number density = 20.594417 Si / 1000 Ang^3
#
#
#
# Elastic Constant Matrix: (Units=GPa)
#
#
# Indices 1 2 3 4 5 6 
#
# 1 155.8891 23.7653 66.5100 0.0000 0.0000 0.0000
# 2 23.7653 71.6681 29.2284 0.0000 0.0000 0.0000
# 3 66.5100 29.2284 84.9767 0.0000 0.0000 0.0000
# 4 0.0000 0.0000 0.0000 31.1485 0.0000 0.0000
# 5 0.0000 0.0000 0.0000 0.0000 15.7540 0.0000
# 6 0.0000 0.0000 0.0000 0.0000 0.0000 21.8225
#
#
#
# Elastic Compliance Matrix: (Units=1/GPa)
#
#
# Indices 1 2 3 4 5 6 
#
# 1 0.009632 -0.000139 -0.007491 0.000000 0.000000 0.000000
# 2 -0.000139 0.016232 -0.005474 0.000000 0.000000 0.000000
# 3 -0.007491 -0.005474 0.019514 0.000000 0.000000 0.000000
# 4 0.000000 0.000000 0.000000 0.032104 0.000000 0.000000
# 5 0.000000 0.000000 0.000000 0.000000 0.063476 0.000000
# 6 0.000000 0.000000 0.000000 0.000000 0.000000 0.045824
#
#
# Mechanical properties :
#
#
# Convention : Reuss Voigt Hill
#
# Bulk Modulus (GPa) = 52.16684 61.28237 56.72461
# Shear Modulus (GPa) = 22.79143 26.61369 24.70256
#
# Velocity S-wave (km/s) = 3.33029 3.59873 3.46711
# Velocity P-wave (km/s) = 6.33824 6.86215 6.60539
#
# Compressibility (1/GPa) = 0.01916926
#
# Stress axis : x y z
#
# Youngs Moduli (GPa) = 103.81982 61.60718 51.24519
#
# Poissons Ratio (x) = 0.00856 0.38388
# Poissons Ratio (y) = 0.01442 0.28053
# Poissons Ratio (z) = 0.77772 0.33726
#
# Static dielectric constant tensor:
#      x y z
#    x 3.969230 0.000000 0.000000 
#    y 0.000000 3.699620 0.000000 
#    z 0.000000 0.000000 3.595500 
# 
# 
# High freq. dielectric constant tensor:
#      x y z
#    x 1.809080 0.000000 0.000000 
#    y 0.000000 1.796710 0.000000 
#    z 0.000000 0.000000 1.794330 
# 
# From -- ./inp_files/22977.got.cif
#   From: 2010.03.12/outbox.cif.g09.slc.cpg/sg67_12_cif.got.tgz:22977.got - 2010.04.10 22:41:39.
