data_PCOD8281389
_publ_section_title
;
Structure prediction by ZEFSAII (Michael W. Deem and Ramdas Pophale) SiO2 
 PCOD8281389
Probable space group: C M M A
;
_chemical_formula_sum "Si O2"
_cell_formula_units_Z 72
_cell_length_a 10.015386
_cell_length_b 14.508436
_cell_length_c 27.173950
_cell_angle_alpha 90.000000
_cell_angle_beta 90.000000
_cell_angle_gamma 90.000000
_cell_volume 3948.581098
_symmetry_space_group_name_H-M "C M M A"
_symmetry_group_IT_number 67
_symmetry_cell_setting 'orthorhombic'
loop_
_space_group_symop_operation_xyz
x,y,z
-x,1/2-y,z
x,-y,-z
-x,1/2+y,-z
-x,-y,-z
x,1/2+y,-z
-x,y,z
x,1/2-y,z
1/2+x,1/2+y,z
1/2-x,-y,z
1/2+x,1/2-y,-z
1/2-x,y,-z
1/2-x,1/2-y,-z
1/2+x,y,-z
1/2-x,1/2+y,z
1/2+x,-y,z
loop_
_atom_site_type_symbol
_atom_site_label
_atom_site_fract_x
_atom_site_fract_y
_atom_site_fract_z
Si Si1 0.000000 0.853749 0.940766
Si Si2 0.341906 0.750000 0.806543
Si Si3 0.843082 0.591328 0.376533
Si Si4 0.652123 0.750000 0.545564
Si Si5 0.841692 0.250000 0.695661
Si Si6 0.260538 0.100555 0.118354
Si Si7 0.000000 0.140399 0.950952
O O1 0.874311 0.872457 0.907691
O O2 0.000000 0.750000 0.958308
O O3 0.000000 0.903646 0.994069
O O4 0.500000 0.750000 0.807106
O O5 0.285504 0.750000 0.751160
O O6 0.288678 0.838566 0.834446
O O7 0.750000 0.500000 0.379541
O O8 0.821849 0.656266 0.423962
O O9 0.794933 0.655101 0.330614
O O10 0.000000 0.562546 0.371956
O O11 0.500000 0.750000 0.526571
O O12 0.750000 0.750000 0.500000
O O13 0.000000 0.250000 0.693500
O O14 0.371714 0.101977 0.076477
O O15 0.250000 0.000000 0.141252
O O16 0.000000 0.250000 0.946973
#
# Coordination Sequence:
#
# PCOD8281389 Si02
#       7
#     8   8  16   8   8  16   8
#     4  11  23  37  59  80 111 139 168 221 269 306
#     4  11  21  41  60  80 108 142 179 218 273 341
#     4   9  18  35  58  84 113 148 196 241 281 330
#     4   9  19  34  52  82 122 167 201 233 281 330
#     4   8  18  36  61  78 103 145 185 228 278 337
#     4  12  23  37  58  82 107 138 175 216 266 324
#     4  11  21  41  59  78 105 145 180 205 255 334
#
# _framework density 18.234397000000001
#
# number of rings (size 3 to 8) (size 9 to 14) (size 15 to 20)
#    0.000    1.778    3.333    2.667    0.000    6.667 
#    0.000    3.889    4.889    0.000    0.000    0.000 
#    0.000    0.000    0.000    0.000    0.000    0.000 
#
# Total GULP energy -446189.076732 kJ/mol
# GULP energy per Si atom -12394.141020 kJ/mol
# Density = 1.819289 g / cm^3
# Si number density = 18.234397 Si / 1000 Ang^3
#
#
#
# Elastic Constant Matrix: (Units=GPa)
#
#
# Indices 1 2 3 4 5 6 
#
# 1 121.7547 50.2794 66.6618 0.0000 0.0000 0.0000
# 2 50.2794 147.1677 62.3151 0.0000 0.0000 0.0000
# 3 66.6618 62.3151 158.3390 0.0000 0.0000 0.0000
# 4 0.0000 0.0000 0.0000 57.3892 0.0000 0.0000
# 5 0.0000 0.0000 0.0000 0.0000 9.7417 0.0000
# 6 0.0000 0.0000 0.0000 0.0000 0.0000 24.4239
#
#
#
# Elastic Compliance Matrix: (Units=1/GPa)
#
#
# Indices 1 2 3 4 5 6 
#
# 1 0.011239 -0.002203 -0.003865 0.000000 0.000000 0.000000
# 2 -0.002203 0.008586 -0.002451 0.000000 0.000000 0.000000
# 3 -0.003865 -0.002451 0.008907 0.000000 0.000000 0.000000
# 4 0.000000 0.000000 0.000000 0.017425 0.000000 0.000000
# 5 0.000000 0.000000 0.000000 0.000000 0.102651 0.000000
# 6 0.000000 0.000000 0.000000 0.000000 0.000000 0.040944
#
#
# Mechanical properties :
#
#
# Convention : Reuss Voigt Hill
#
# Bulk Modulus (GPa) = 85.51754 87.30822 86.41288
# Shear Modulus (GPa) = 23.73175 34.84463 29.28819
#
# Velocity S-wave (km/s) = 3.61152 4.37616 4.01210
# Velocity P-wave (km/s) = 8.02444 8.57434 8.30394
#
# Compressibility (1/GPa) = 0.01169351
#
# Stress axis : x y z
#
# Youngs Moduli (GPa) = 88.97576 116.47264 112.26770
#
# Poissons Ratio (x) = 0.25664 0.43386
# Poissons Ratio (y) = 0.19605 0.27520
# Poissons Ratio (z) = 0.34385 0.28551
#
# Static dielectric constant tensor:
#      x y z
#    x 3.548440 0.000000 0.000000 
#    y 0.000000 3.630260 0.000000 
#    z 0.000000 0.000000 3.464330 
# 
# 
# High freq. dielectric constant tensor:
#      x y z
#    x 1.702380 0.000000 0.000000 
#    y 0.000000 1.719320 0.000000 
#    z 0.000000 0.000000 1.702000 
# 
# From -- ./inp_files/43177.got.cif
#   From: 2010.03.12/outbox.cif.g09.slc.cpg/sg67_22_cif.got.tgz:43177.got - 2010.04.10 22:41:39.
