data_PCOD8281016
_publ_section_title
;
Structure prediction by ZEFSAII (Michael W. Deem and Ramdas Pophale) SiO2 
 PCOD8281016
Probable space group: C M M A
;
_chemical_formula_sum "Si O2"
_cell_formula_units_Z 112
_cell_length_a 15.454338
_cell_length_b 22.042783
_cell_length_c 15.529973
_cell_angle_alpha 90.000000
_cell_angle_beta 90.000000
_cell_angle_gamma 90.000000
_cell_volume 5290.388094
_symmetry_space_group_name_H-M "C M M A"
_symmetry_group_IT_number 67
_symmetry_cell_setting 'orthorhombic'
loop_
_space_group_symop_operation_xyz
x,y,z
-x,1/2-y,z
x,-y,-z
-x,1/2+y,-z
-x,-y,-z
x,1/2+y,-z
-x,y,z
x,1/2-y,z
1/2+x,1/2+y,z
1/2-x,-y,z
1/2+x,1/2-y,-z
1/2-x,y,-z
1/2-x,1/2-y,-z
1/2+x,y,-z
1/2-x,1/2+y,z
1/2+x,-y,z
loop_
_atom_site_type_symbol
_atom_site_label
_atom_site_fract_x
_atom_site_fract_y
_atom_site_fract_z
Si Si1 0.598224 0.899292 0.298307
Si Si2 0.266057 0.818122 0.405269
Si Si3 0.159096 0.422334 0.957951
Si Si4 0.597402 0.318077 0.146474
Si Si5 0.096473 0.140024 0.665340
Si Si6 0.650187 0.509179 0.599851
Si Si7 0.903761 0.036671 0.128780
O O1 0.500000 0.871312 0.293584
O O2 0.665847 0.854270 0.345635
O O3 0.634827 0.918195 0.202873
O O4 0.591286 0.960482 0.352497
O O5 0.302730 0.750000 0.415384
O O6 0.250000 0.848581 0.500000
O O7 0.170432 0.813831 0.365039
O O8 0.155111 0.354205 0.922220
O O9 0.145551 0.472220 0.882142
O O10 0.250000 0.435673 0.000000
O O11 0.091439 0.429709 0.036332
O O12 0.500000 0.314207 0.110918
O O13 0.634968 0.250000 0.159384
O O14 0.598217 0.357759 0.232244
O O15 0.119179 0.074203 0.630624
O O16 0.000000 0.159395 0.632579
O O17 0.633815 0.500000 0.500000
O O18 0.750000 0.500000 0.625066
O O19 0.000000 0.020678 0.159705
#
# Coordination Sequence:
#
# PCOD8281016 Si02
#       7
#    16  16  16  16  16  16  16
#     4  11  24  41  65  95 130 173 220 267 324 396
#     4  11  25  44  65  92 131 176 220 274 333 390
#     4  11  22  36  62  95 127 164 207 259 322 393
#     4  10  22  41  63  88 122 166 215 268 319 375
#     4  11  23  41  67  95 126 167 217 269 326 391
#     4  11  22  37  61  93 128 163 202 261 333 391
#     4  10  21  39  61  89 127 167 208 258 318 388
#
# _framework density 21.170470000000002
#
# number of rings (size 3 to 8) (size 9 to 14) (size 15 to 20)
#    0.000    1.286    1.429    5.143    2.000    7.714 
#    0.000    2.143    0.000    0.857    0.000    0.000 
#    0.000    0.000    0.000    0.000    0.000    0.000 
#
# Total GULP energy -694033.120408 kJ/mol
# GULP energy per Si atom -12393.448579 kJ/mol
# Density = 2.112228 g / cm^3
# Si number density = 21.170470 Si / 1000 Ang^3
#
#
#
# Elastic Constant Matrix: (Units=GPa)
#
#
# Indices 1 2 3 4 5 6 
#
# 1 113.0027 34.5937 46.2074 0.0000 0.0000 0.0000
# 2 34.5937 125.8789 62.1493 0.0000 0.0000 0.0000
# 3 46.2074 62.1493 112.6519 0.0000 0.0000 0.0000
# 4 0.0000 0.0000 0.0000 9.5157 0.0000 0.0000
# 5 0.0000 0.0000 0.0000 0.0000 27.2021 0.0000
# 6 0.0000 0.0000 0.0000 0.0000 0.0000 17.4270
#
#
#
# Elastic Compliance Matrix: (Units=1/GPa)
#
#
# Indices 1 2 3 4 5 6 
#
# 1 0.010736 -0.001067 -0.003815 0.000000 0.000000 0.000000
# 2 -0.001067 0.011024 -0.005644 0.000000 0.000000 0.000000
# 3 -0.003815 -0.005644 0.013556 0.000000 0.000000 0.000000
# 4 0.000000 0.000000 0.000000 0.105089 0.000000 0.000000
# 5 0.000000 0.000000 0.000000 0.000000 0.036762 0.000000
# 6 0.000000 0.000000 0.000000 0.000000 0.000000 0.057382
#
#
# Mechanical properties :
#
#
# Convention : Reuss Voigt Hill
#
# Bulk Modulus (GPa) = 70.11029 70.82604 70.46816
# Shear Modulus (GPa) = 19.20447 24.73450 21.96949
#
# Velocity S-wave (km/s) = 3.01514 3.42182 3.22490
# Velocity P-wave (km/s) = 6.73129 7.00996 6.87204
#
# Compressibility (1/GPa) = 0.01426324
#
# Stress axis : x y z
#
# Youngs Moduli (GPa) = 93.14503 90.71077 73.76966
#
# Poissons Ratio (x) = 0.09677 0.28144
# Poissons Ratio (y) = 0.09937 0.41638
# Poissons Ratio (z) = 0.35536 0.51200
#
# Static dielectric constant tensor:
#      x y z
#    x 4.010070 0.000000 0.000000 
#    y 0.000000 3.590220 0.000000 
#    z 0.000000 0.000000 4.236480 
# 
# 
# High freq. dielectric constant tensor:
#      x y z
#    x 1.831750 0.000000 0.000000 
#    y 0.000000 1.818430 0.000000 
#    z 0.000000 0.000000 1.835540 
# 
# From -- ./inp_files/27527.got.cif
#   From: 2010.03.12/outbox.cif.g09.slc.cpg/sg67_14_cif.got.tgz:27527.got - 2010.04.10 22:41:39.
