data_PCOD8281769
_publ_section_title
;
Structure prediction by ZEFSAII (Michael W. Deem and Ramdas Pophale) SiO2 
 PCOD8281769
Probable space group: C C C A
;
_chemical_formula_sum "Si O2"
_cell_formula_units_Z 120
_cell_length_a 18.929947
_cell_length_b 15.371418
_cell_length_c 20.847305
_cell_angle_alpha 90.000000
_cell_angle_beta 90.000000
_cell_angle_gamma 90.000000
_cell_volume 6066.151478
_symmetry_space_group_name_H-M "C C C A"
_symmetry_group_IT_number 68
_space_group.IT_coordinate_system_code '2'
_symmetry_cell_setting 'orthorhombic'
loop_
_space_group_symop_operation_xyz
x,y,z
-x,1/2-y,z
x,1/2-y,1/2-z
-x,y,1/2-z
-x,-y,-z
x,1/2+y,-z
-x,1/2+y,1/2+z
x,-y,1/2+z
1/2+x,1/2+y,z
1/2-x,-y,z
1/2+x,-y,1/2-z
1/2-x,1/2+y,1/2-z
1/2-x,1/2-y,-z
1/2+x,y,-z
1/2-x,y,1/2+z
1/2+x,1/2-y,1/2+z
loop_
_atom_site_type_symbol
_atom_site_label
_atom_site_fract_x
_atom_site_fract_y
_atom_site_fract_z
Si Si1 0.013679 0.466520 0.070946
Si Si2 0.326706 0.746453 0.679137
Si Si3 0.313260 0.143249 0.789282
Si Si4 0.762405 0.901499 0.843104
Si Si5 0.928621 0.204867 0.122951
Si Si6 0.877586 0.872856 0.937175
Si Si7 0.750000 0.000000 0.133951
Si Si8 0.123281 0.605213 0.087043
O O1 0.060721 0.378949 0.076623
O O2 0.056725 0.543274 0.108251
O O3 0.935779 0.437694 0.096478
O O4 0.000000 0.500000 0.000000
O O5 0.362707 0.750000 0.750000
O O6 0.251526 0.699709 0.684466
O O7 0.310381 0.844673 0.653108
O O8 0.377625 0.692466 0.631012
O O9 0.312794 0.140474 0.711991
O O10 0.387632 0.181464 0.811884
O O11 0.304775 0.048801 0.819948
O O12 0.801138 0.902538 0.911837
O O13 0.750000 0.000000 0.821853
O O14 0.884681 0.272239 0.080820
O O15 0.000000 0.250000 0.146271
O O16 0.885264 0.872125 0.013095
O O17 0.799981 0.940043 0.090496
#
# Coordination Sequence:
#
# PCOD8281769 Si02
#       8
#    16  16  16  16  16  16   8  16
#     4   9  19  38  60  82 113 156 195 238 288 356
#     4   9  20  36  58  84 115 151 195 242 295 356
#     4  10  18  36  58  80 113 155 198 235 298 358
#     4  11  22  37  56  85 124 155 187 251 312 355
#     4  10  19  35  59  84 118 152 196 245 297 361
#     4  10  22  37  54  89 119 152 191 240 306 353
#     4  10  18  32  58  86 102 156 198 240 274 362
#     4  10  20  36  59  84 118 151 199 237 289 356
#
# _framework density 19.7819
#
# number of rings (size 3 to 8) (size 9 to 14) (size 15 to 20)
#    0.000    2.133    3.333    0.000    0.933    0.533 
#    4.800    4.667    0.000    0.000    0.000    2.800 
#    0.000    0.000    0.000    0.000    0.000    0.000 
#
# Total GULP energy -743319.083137 kJ/mol
# GULP energy per Si atom -12388.651386 kJ/mol
# Density = 1.973688 g / cm^3
# Si number density = 19.781900 Si / 1000 Ang^3
#
#
#
# Elastic Constant Matrix: (Units=GPa)
#
#
# Indices 1 2 3 4 5 6 
#
# 1 57.2449 39.5171 36.9629 0.0000 0.0000 0.0000
# 2 39.5171 129.2242 44.8442 0.0000 0.0000 0.0000
# 3 36.9629 44.8442 88.6356 0.0000 0.0000 0.0000
# 4 0.0000 0.0000 0.0000 28.1612 0.0000 0.0000
# 5 0.0000 0.0000 0.0000 0.0000 24.1642 0.0000
# 6 0.0000 0.0000 0.0000 0.0000 0.0000 31.1423
#
#
#
# Elastic Compliance Matrix: (Units=1/GPa)
#
#
# Indices 1 2 3 4 5 6 
#
# 1 0.026481 -0.005174 -0.008425 0.000000 0.000000 0.000000
# 2 -0.005174 0.010397 -0.003103 0.000000 0.000000 0.000000
# 3 -0.008425 -0.003103 0.016365 0.000000 0.000000 0.000000
# 4 0.000000 0.000000 0.000000 0.035510 0.000000 0.000000
# 5 0.000000 0.000000 0.000000 0.000000 0.041384 0.000000
# 6 0.000000 0.000000 0.000000 0.000000 0.000000 0.032111
#
#
# Mechanical properties :
#
#
# Convention : Reuss Voigt Hill
#
# Bulk Modulus (GPa) = 50.40465 57.52812 53.96638
# Shear Modulus (GPa) = 24.72002 26.94557 25.83280
#
# Velocity S-wave (km/s) = 3.53884 3.69471 3.61762
# Velocity P-wave (km/s) = 6.49872 6.88081 6.69249
#
# Compressibility (1/GPa) = 0.01983944
#
# Stress axis : x y z
#
# Youngs Moduli (GPa) = 37.76332 96.17708 61.10427
#
# Poissons Ratio (x) = 0.49763 0.51482
# Poissons Ratio (y) = 0.19539 0.18959
# Poissons Ratio (z) = 0.31817 0.29842
#
# Static dielectric constant tensor:
#      x y z
#    x 3.569240 0.000000 0.000000 
#    y 0.000000 4.122870 0.000000 
#    z 0.000000 0.000000 3.461700 
# 
# 
# High freq. dielectric constant tensor:
#      x y z
#    x 1.746050 0.000000 0.000000 
#    y 0.000000 1.790200 0.000000 
#    z 0.000000 0.000000 1.751880 
# 
# From -- ./inp_files/40397.got.cif
#   From: 2010.03.12/outbox.cif.g09.slc.cpg/sg68_21_cif.got.tgz:40397.got - 2010.04.10 23:14:56.
