data_PCOD8281723
_publ_section_title
;
Structure prediction by ZEFSAII (Michael W. Deem and Ramdas Pophale) SiO2 
 PCOD8281723
Probable space group: C C C A
;
_chemical_formula_sum "Si O2"
_cell_formula_units_Z 92
_cell_length_a 25.450549
_cell_length_b 19.990494
_cell_length_c 9.548256
_cell_angle_alpha 90.000000
_cell_angle_beta 90.000000
_cell_angle_gamma 90.000000
_cell_volume 4857.857106
_symmetry_space_group_name_H-M "C C C A"
_symmetry_group_IT_number 68
_space_group.IT_coordinate_system_code '2'
_symmetry_cell_setting 'orthorhombic'
loop_
_space_group_symop_operation_xyz
x,y,z
-x,1/2-y,z
x,1/2-y,1/2-z
-x,y,1/2-z
-x,-y,-z
x,1/2+y,-z
-x,1/2+y,1/2+z
x,-y,1/2+z
1/2+x,1/2+y,z
1/2-x,-y,z
1/2+x,-y,1/2-z
1/2-x,1/2+y,1/2-z
1/2-x,1/2-y,-z
1/2+x,y,-z
1/2-x,y,1/2+z
1/2+x,1/2-y,1/2+z
loop_
_atom_site_type_symbol
_atom_site_label
_atom_site_fract_x
_atom_site_fract_y
_atom_site_fract_z
Si Si1 0.265864 0.577181 0.967312
Si Si2 0.685897 0.892518 0.689812
Si Si3 0.426452 0.857981 0.874367
Si Si4 0.140573 0.027866 0.377769
Si Si5 0.000000 0.032514 0.750000
Si Si6 0.000000 0.250000 0.750000
Si Si7 0.921717 0.449677 0.111476
O O1 0.250000 0.500000 0.934957
O O2 0.278491 0.620349 0.827379
O O3 0.218918 0.616383 0.046446
O O4 0.316601 0.580895 0.068557
O O5 0.633106 0.846481 0.682258
O O6 0.669438 0.969444 0.707224
O O7 0.450584 0.923336 0.798566
O O8 0.462592 0.793713 0.849346
O O9 0.426543 0.876441 0.039268
O O10 0.102115 0.063202 0.266364
O O11 0.112683 0.997934 0.514193
O O12 0.978584 0.984673 0.873275
#
# Coordination Sequence:
#
# PCOD8281723 Si02
#       7
#    16  16  16  16   8   4  16
#     4  10  18  27  46  78 124 161 171 212 277 361
#     4  10  19  30  48  79 114 147 190 215 277 338
#     4  10  22  36  59  81 108 152 203 237 282 340
#     4  10  18  29  45  76 125 156 180 209 277 357
#     4  11  18  33  54  89 120 143 178 238 304 353
#     4  10  24  48  64  74 100 162 212 244 280 348
#     4  11  19  31  52  87 119 149 183 232 291 349
#
# _framework density 18.938392
#
# number of rings (size 3 to 8) (size 9 to 14) (size 15 to 20)
#    0.000    1.739    5.217    2.087    4.870    0.000 
#    0.000    0.000    0.000    1.565    0.000    0.000 
#    0.000    0.000    0.000    0.000    0.000    0.000 
#
# Total GULP energy -570081.726580 kJ/mol
# GULP energy per Si atom -12393.081013 kJ/mol
# Density = 1.889529 g / cm^3
# Si number density = 18.938392 Si / 1000 Ang^3
#
#
#
# Elastic Constant Matrix: (Units=GPa)
#
#
# Indices 1 2 3 4 5 6 
#
# 1 132.9754 37.4300 58.0845 0.0000 0.0000 0.0000
# 2 37.4300 49.0372 26.0617 0.0000 0.0000 0.0000
# 3 58.0845 26.0617 100.8217 0.0000 0.0000 0.0000
# 4 0.0000 0.0000 0.0000 7.6557 0.0000 0.0000
# 5 0.0000 0.0000 0.0000 0.0000 44.7099 0.0000
# 6 0.0000 0.0000 0.0000 0.0000 0.0000 23.4469
#
#
#
# Elastic Compliance Matrix: (Units=1/GPa)
#
#
# Indices 1 2 3 4 5 6 
#
# 1 0.011411 -0.006047 -0.005011 0.000000 0.000000 0.000000
# 2 -0.006047 0.026845 -0.003455 0.000000 0.000000 0.000000
# 3 -0.005011 -0.003455 0.013699 0.000000 0.000000 0.000000
# 4 0.000000 0.000000 0.000000 0.130622 0.000000 0.000000
# 5 0.000000 0.000000 0.000000 0.000000 0.022366 0.000000
# 6 0.000000 0.000000 0.000000 0.000000 0.000000 0.042650
#
#
# Mechanical properties :
#
#
# Convention : Reuss Voigt Hill
#
# Bulk Modulus (GPa) = 43.61538 58.44297 51.02918
# Shear Modulus (GPa) = 17.58943 25.91303 21.75123
#
# Velocity S-wave (km/s) = 3.05088 3.70304 3.39267
# Velocity P-wave (km/s) = 5.95740 7.01497 6.50771
#
# Compressibility (1/GPa) = 0.02292769
#
# Stress axis : x y z
#
# Youngs Moduli (GPa) = 87.63408 37.25129 73.00018
#
# Poissons Ratio (x) = 0.22525 0.36580
# Poissons Ratio (y) = 0.52991 0.25225
# Poissons Ratio (z) = 0.43913 0.12872
#
# Static dielectric constant tensor:
#      x y z
#    x 3.886800 0.000000 0.000000 
#    y 0.000000 2.804400 0.000000 
#    z 0.000000 0.000000 3.632830 
# 
# 
# High freq. dielectric constant tensor:
#      x y z
#    x 1.764230 0.000000 0.000000 
#    y 0.000000 1.640040 0.000000 
#    z 0.000000 0.000000 1.745580 
# 
# From -- ./inp_files/7338.got.cif
#   From: 2010.03.12/outbox.cif.g09.slc.cpg/sg68_4_cif.got.tgz:7338.got - 2010.04.10 23:14:56.
