data_PCOD8281039
_publ_section_title
;
Structure prediction by ZEFSAII (Michael W. Deem and Ramdas Pophale) SiO2 
 PCOD8281039
Probable space group: C M M A
;
_chemical_formula_sum "Si O2"
_cell_formula_units_Z 72
_cell_length_a 8.728173
_cell_length_b 14.719664
_cell_length_c 28.442372
_cell_angle_alpha 90.000000
_cell_angle_beta 90.000000
_cell_angle_gamma 90.000000
_cell_volume 3654.155754
_symmetry_space_group_name_H-M "C M M A"
_symmetry_group_IT_number 67
_symmetry_cell_setting 'orthorhombic'
loop_
_space_group_symop_operation_xyz
x,y,z
-x,1/2-y,z
x,-y,-z
-x,1/2+y,-z
-x,-y,-z
x,1/2+y,-z
-x,y,z
x,1/2-y,z
1/2+x,1/2+y,z
1/2-x,-y,z
1/2+x,1/2-y,-z
1/2-x,y,-z
1/2-x,1/2-y,-z
1/2+x,y,-z
1/2-x,1/2+y,z
1/2+x,-y,z
loop_
_atom_site_type_symbol
_atom_site_label
_atom_site_fract_x
_atom_site_fract_y
_atom_site_fract_z
Si Si1 0.825304 0.750000 0.305694
Si Si2 0.679645 0.399236 0.382607
Si Si3 0.178968 0.750000 0.792809
Si Si4 0.681769 0.091732 0.148147
Si Si5 0.320770 0.354420 0.046703
Si Si6 0.317534 0.250000 0.551562
O O1 0.793322 0.658228 0.335082
O O2 0.708861 0.750000 0.262599
O O3 0.000000 0.750000 0.287461
O O4 0.500000 0.407586 0.393982
O O5 0.750000 0.500000 0.377596
O O6 0.759764 0.342638 0.424041
O O7 0.256404 0.664570 0.816282
O O8 0.000000 0.750000 0.802809
O O9 0.500000 0.094341 0.148601
O O10 0.744697 0.103143 0.094782
O O11 0.750000 0.000000 0.168721
O O12 0.500000 0.367545 0.043898
O O13 0.271207 0.250000 0.048105
O O14 0.250000 0.401307 0.000000
O O15 0.500000 0.250000 0.550917
O O16 0.250000 0.250000 0.500000
#
# Coordination Sequence:
#
# PCOD8281039 Si02
#       6
#     8  16   8  16  16   8
#     4   9  21  41  63  86 119 158 196 247 302 356
#     4  10  21  39  63  92 124 161 205 252 304 357
#     4  12  25  41  63  89 117 153 194 240 298 356
#     4  11  23  41  61  85 117 151 191 236 288 347
#     4   9  18  34  56  81 110 147 184 227 280 337
#     4  11  22  38  60  89 128 171 214 259 305 356
#
# _framework density 19.703593999999999
#
# number of rings (size 3 to 8) (size 9 to 14) (size 15 to 20)
#    0.000    1.778    1.111    4.000    0.000    6.222 
#    0.000    6.667    0.000    0.000    0.000    0.000 
#    0.000    0.000    0.000    0.000    0.000    0.000 
#
# Total GULP energy -446358.566334 kJ/mol
# GULP energy per Si atom -12398.849065 kJ/mol
# Density = 1.965875 g / cm^3
# Si number density = 19.703594 Si / 1000 Ang^3
#
#
#
# Elastic Constant Matrix: (Units=GPa)
#
#
# Indices 1 2 3 4 5 6 
#
# 1 115.2411 58.5757 56.4921 0.0000 0.0000 0.0000
# 2 58.5757 152.7336 63.1525 0.0000 0.0000 0.0000
# 3 56.4921 63.1525 128.9071 0.0000 0.0000 0.0000
# 4 0.0000 0.0000 0.0000 28.5138 0.0000 0.0000
# 5 0.0000 0.0000 0.0000 0.0000 35.4105 0.0000
# 6 0.0000 0.0000 0.0000 0.0000 0.0000 33.1859
#
#
#
# Elastic Compliance Matrix: (Units=1/GPa)
#
#
# Indices 1 2 3 4 5 6 
#
# 1 0.012100 -0.003070 -0.003799 0.000000 0.000000 0.000000
# 2 -0.003070 0.008989 -0.003059 0.000000 0.000000 0.000000
# 3 -0.003799 -0.003059 0.010921 0.000000 0.000000 0.000000
# 4 0.000000 0.000000 0.000000 0.035071 0.000000 0.000000
# 5 0.000000 0.000000 0.000000 0.000000 0.028240 0.000000
# 6 0.000000 0.000000 0.000000 0.000000 0.000000 0.030133
#
#
# Mechanical properties :
#
#
# Convention : Reuss Voigt Hill
#
# Bulk Modulus (GPa) = 82.26625 83.70251 82.98438
# Shear Modulus (GPa) = 33.47601 33.99946 33.73773
#
# Velocity S-wave (km/s) = 4.12634 4.15848 4.14244
# Velocity P-wave (km/s) = 8.03398 8.10125 8.06768
#
# Compressibility (1/GPa) = 0.01215565
#
# Stress axis : x y z
#
# Youngs Moduli (GPa) = 82.64463 111.24260 91.56886
#
# Poissons Ratio (x) = 0.34149 0.34785
# Poissons Ratio (y) = 0.25370 0.28008
# Poissons Ratio (z) = 0.31395 0.34025
#
# Static dielectric constant tensor:
#      x y z
#    x 3.607670 0.000000 0.000000 
#    y 0.000000 3.669980 0.000000 
#    z 0.000000 0.000000 3.711360 
# 
# 
# High freq. dielectric constant tensor:
#      x y z
#    x 1.773480 0.000000 0.000000 
#    y 0.000000 1.775030 0.000000 
#    z 0.000000 0.000000 1.770320 
# 
# From -- ./inp_files/43159.got.cif
#   From: 2010.03.12/outbox.cif.g09.slc.cpg/sg67_22_cif.got.tgz:43159.got - 2010.04.10 22:41:39.
