data_PCOD8281517
_publ_section_title
;
Structure prediction by ZEFSAII (Michael W. Deem and Ramdas Pophale) SiO2 
 PCOD8281517
Probable space group: C M M A
;
_chemical_formula_sum "Si O2"
_cell_formula_units_Z 88
_cell_length_a 17.645011
_cell_length_b 14.209807
_cell_length_c 16.454490
_cell_angle_alpha 90.000000
_cell_angle_beta 90.000000
_cell_angle_gamma 90.000000
_cell_volume 4125.670491
_symmetry_space_group_name_H-M "C M M A"
_symmetry_group_IT_number 67
_symmetry_cell_setting 'orthorhombic'
loop_
_space_group_symop_operation_xyz
x,y,z
-x,1/2-y,z
x,-y,-z
-x,1/2+y,-z
-x,-y,-z
x,1/2+y,-z
-x,y,z
x,1/2-y,z
1/2+x,1/2+y,z
1/2-x,-y,z
1/2+x,1/2-y,-z
1/2-x,y,-z
1/2-x,1/2-y,-z
1/2+x,y,-z
1/2-x,1/2+y,z
1/2+x,-y,z
loop_
_atom_site_type_symbol
_atom_site_label
_atom_site_fract_x
_atom_site_fract_y
_atom_site_fract_z
Si Si1 0.627595 0.500000 0.000000
Si Si2 0.614818 0.854071 0.878059
Si Si3 0.914881 0.480720 0.409683
Si Si4 0.704994 0.644806 0.117624
Si Si5 0.196813 0.139957 0.300476
Si Si6 0.629632 0.641238 0.696031
O O1 0.578874 0.567095 0.939007
O O2 0.678112 0.430649 0.946574
O O3 0.584570 0.750000 0.901963
O O4 0.705006 0.857080 0.883592
O O5 0.593922 0.876339 0.785198
O O6 0.883553 0.500000 0.500000
O O7 0.858968 0.411323 0.362361
O O8 0.919785 0.581430 0.365881
O O9 0.000000 0.437662 0.412489
O O10 0.677098 0.750000 0.093286
O O11 0.673082 0.618868 0.207111
O O12 0.191232 0.250000 0.318864
O O13 0.283374 0.105775 0.311099
O O14 0.623617 0.750000 0.672165
#
# Coordination Sequence:
#
# PCOD8281517 Si02
#       6
#     8  16  16  16  16  16
#     4  12  17  20  38  68 107 146 167 198 259 312
#     4   9  17  27  41  67 101 135 173 213 253 301
#     4  11  24  38  54  81 112 137 167 215 273 328
#     4   9  17  27  41  67 101 135 173 213 253 301
#     4   9  19  37  58  78 105 143 183 221 261 309
#     4   9  19  37  58  78 105 143 183 221 261 309
#
# _framework density 21.329867
#
# number of rings (size 3 to 8) (size 9 to 14) (size 15 to 20)
#    0.000    2.364    0.000    6.000    0.000    7.273 
#    0.000    3.636    0.000    0.000    0.000   10.182 
#    0.000   23.273    0.000    0.000    0.000    0.000 
#
# Total GULP energy -545341.094548 kJ/mol
# GULP energy per Si atom -12394.115785 kJ/mol
# Density = 2.128132 g / cm^3
# Si number density = 21.329867 Si / 1000 Ang^3
#
#
#
# Elastic Constant Matrix: (Units=GPa)
#
#
# Indices 1 2 3 4 5 6 
#
# 1 52.7733 15.3824 25.0090 0.0000 0.0000 0.0000
# 2 15.3824 99.6625 71.4130 0.0000 0.0000 0.0000
# 3 25.0090 71.4130 147.9013 0.0000 0.0000 0.0000
# 4 0.0000 0.0000 0.0000 -34.8834 0.0000 0.0000
# 5 0.0000 0.0000 0.0000 0.0000 -78.3956 0.0000
# 6 0.0000 0.0000 0.0000 0.0000 0.0000 3.5550
#
#
#
# Elastic Compliance Matrix: (Units=1/GPa)
#
#
# Indices 1 2 3 4 5 6 
#
# 1 0.020671 -0.001049 -0.002989 0.000000 0.000000 0.000000
# 2 -0.001049 0.015395 -0.007256 0.000000 0.000000 0.000000
# 3 -0.002989 -0.007256 0.010770 0.000000 0.000000 0.000000
# 4 0.000000 0.000000 0.000000 -0.028667 0.000000 0.000000
# 5 0.000000 0.000000 0.000000 0.000000 -0.012756 0.000000
# 6 0.000000 0.000000 0.000000 0.000000 0.000000 0.281291
#
#
# Mechanical properties :
#
#
# Convention : Reuss Voigt Hill
#
# Bulk Modulus (GPa) = 41.23907 58.21621 49.72764
# Shear Modulus (GPa) = 15.75422 -9.37595 3.18914
#
# Velocity S-wave (km/s) = 2.72067 -2.09886 1.22409
# Velocity P-wave (km/s) = 5.40789 4.63453 5.03608
#
# Compressibility (1/GPa) = 0.02424885
#
# Stress axis : x y z
#
# Youngs Moduli (GPa) = 48.37673 64.95597 92.84891
#
# Poissons Ratio (x) = 0.06812 0.27752
# Poissons Ratio (y) = 0.05074 0.67371
# Poissons Ratio (z) = 0.14459 0.47132
#
# Static dielectric constant tensor:
#      x y z
#    x 3.309770 0.000000 0.000000 
#    y 0.000000 4.397740 0.000000 
#    z 0.000000 0.000000 4.166250 
# 
# 
# High freq. dielectric constant tensor:
#      x y z
#    x 1.792910 0.000000 0.000000 
#    y 0.000000 1.851310 0.000000 
#    z 0.000000 0.000000 1.843100 
# 
# From -- ./inp_files/29161.got.cif
#   From: 2010.03.12/outbox.cif.g09.slc.cpg/sg67_15_cif.got.tgz:29161.got - 2010.04.10 22:41:39.
