data_PCOD8281727
_publ_section_title
;
Structure prediction by ZEFSAII (Michael W. Deem and Ramdas Pophale) SiO2 
 PCOD8281727
Probable space group: C C C A
;
_chemical_formula_sum "Si O2"
_cell_formula_units_Z 128
_cell_length_a 25.214394
_cell_length_b 23.995472
_cell_length_c 11.909384
_cell_angle_alpha 90.000000
_cell_angle_beta 90.000000
_cell_angle_gamma 90.000000
_cell_volume 7205.549908
_symmetry_space_group_name_H-M "C C C A"
_symmetry_group_IT_number 68
_space_group.IT_coordinate_system_code '2'
_symmetry_cell_setting 'orthorhombic'
loop_
_space_group_symop_operation_xyz
x,y,z
-x,1/2-y,z
x,1/2-y,1/2-z
-x,y,1/2-z
-x,-y,-z
x,1/2+y,-z
-x,1/2+y,1/2+z
x,-y,1/2+z
1/2+x,1/2+y,z
1/2-x,-y,z
1/2+x,-y,1/2-z
1/2-x,1/2+y,1/2-z
1/2-x,1/2-y,-z
1/2+x,y,-z
1/2-x,y,1/2+z
1/2+x,1/2-y,1/2+z
loop_
_atom_site_type_symbol
_atom_site_label
_atom_site_fract_x
_atom_site_fract_y
_atom_site_fract_z
Si Si1 0.637839 0.311549 0.257655
Si Si2 0.938049 0.034926 0.235638
Si Si3 0.612866 0.562680 0.495479
Si Si4 0.800012 0.366099 0.574488
Si Si5 0.940436 0.089498 0.780660
Si Si6 0.744326 0.937829 0.253492
Si Si7 0.144929 0.054114 0.090365
Si Si8 0.704596 0.365685 0.433543
O O1 0.611846 0.250000 0.250000
O O2 0.673709 0.317283 0.146892
O O3 0.594707 0.360209 0.266933
O O4 0.675838 0.316368 0.366491
O O5 0.917190 0.061997 0.121948
O O6 0.911288 0.062660 0.346158
O O7 0.000000 0.045504 0.250000
O O8 0.924723 0.969075 0.223090
O O9 0.657792 0.610509 0.484449
O O10 0.568588 0.581432 0.586401
O O11 0.643003 0.505915 0.530186
O O12 0.787634 0.419587 0.654119
O O13 0.745726 0.340583 0.524266
O O14 0.000000 0.105882 0.750000
O O15 0.686465 0.936340 0.308885
O O16 0.754849 0.900756 0.144143
O O17 0.750000 0.000000 0.209981
O O18 0.158181 0.098071 0.992343
#
# Coordination Sequence:
#
# PCOD8281727 Si02
#       8
#    16  16  16  16  16  16  16  16
#     4  10  21  37  53  71  96 127 171 220 255 289
#     4  10  21  33  49  74 105 140 169 195 245 310
#     4  10  18  31  50  70 105 141 160 200 243 291
#     4   9  19  33  46  75 101 131 170 195 244 300
#     4   9  20  35  51  74  99 126 169 210 250 305
#     4  10  18  28  46  75 105 133 167 195 237 298
#     4  10  20  30  47  72 102 138 172 199 238 304
#     4  10  21  30  50  74 104 136 163 207 246 292
#
# _framework density 17.764085000000001
#
# number of rings (size 3 to 8) (size 9 to 14) (size 15 to 20)
#    0.000    2.250    1.250    1.500    5.250    6.250 
#    0.000    0.000    0.000    0.000    0.000    0.000 
#    0.000    4.000    0.000    0.000    0.000    0.000 
#
# Total GULP energy -793004.086850 kJ/mol
# GULP energy per Si atom -12390.688857 kJ/mol
# Density = 1.772365 g / cm^3
# Si number density = 17.764085 Si / 1000 Ang^3
#
#
#
# Elastic Constant Matrix: (Units=GPa)
#
#
# Indices 1 2 3 4 5 6 
#
# 1 92.5317 35.0584 40.6556 0.0000 0.0000 0.0000
# 2 35.0584 55.4393 23.4938 0.0000 0.0000 0.0000
# 3 40.6556 23.4938 75.9120 0.0000 0.0000 0.0000
# 4 0.0000 0.0000 0.0000 7.1553 0.0000 0.0000
# 5 0.0000 0.0000 0.0000 0.0000 30.0323 0.0000
# 6 0.0000 0.0000 0.0000 0.0000 0.0000 14.2960
#
#
#
# Elastic Compliance Matrix: (Units=1/GPa)
#
#
# Indices 1 2 3 4 5 6 
#
# 1 0.016592 -0.007742 -0.006490 0.000000 0.000000 0.000000
# 2 -0.007742 0.024373 -0.003397 0.000000 0.000000 0.000000
# 3 -0.006490 -0.003397 0.017700 0.000000 0.000000 0.000000
# 4 0.000000 0.000000 0.000000 0.139756 0.000000 0.000000
# 5 0.000000 0.000000 0.000000 0.000000 0.033298 0.000000
# 6 0.000000 0.000000 0.000000 0.000000 0.000000 0.069950
#
#
# Mechanical properties :
#
#
# Convention : Reuss Voigt Hill
#
# Bulk Modulus (GPa) = 42.72114 46.92206 44.82160
# Shear Modulus (GPa) = 14.50415 18.60839 16.55627
#
# Velocity S-wave (km/s) = 2.86052 3.24007 3.05619
# Velocity P-wave (km/s) = 5.91705 6.36150 6.14330
#
# Compressibility (1/GPa) = 0.02340762
#
# Stress axis : x y z
#
# Youngs Moduli (GPa) = 60.27039 41.02883 56.49662
#
# Poissons Ratio (x) = 0.31765 0.36666
# Poissons Ratio (y) = 0.46662 0.19191
# Poissons Ratio (z) = 0.39115 0.13937
#
# Static dielectric constant tensor:
#      x y z
#    x 3.346290 0.000000 0.000000 
#    y 0.000000 2.873800 0.000000 
#    z 0.000000 0.000000 3.344040 
# 
# 
# High freq. dielectric constant tensor:
#      x y z
#    x 1.690690 0.000000 0.000000 
#    y 0.000000 1.639450 0.000000 
#    z 0.000000 0.000000 1.694690 
# 
# From -- ./inp_files/16693.got.cif
#   From: 2010.03.12/outbox.cif.g09.slc.cpg/sg68_9_cif.got.tgz:16693.got - 2010.04.10 23:14:56.
