data_PCOD8281584
_publ_section_title
;
Structure prediction by ZEFSAII (Michael W. Deem and Ramdas Pophale) SiO2 
 PCOD8281584
Probable space group: C M M A
;
_chemical_formula_sum "Si O2"
_cell_formula_units_Z 112
_cell_length_a 35.882145
_cell_length_b 9.854868
_cell_length_c 20.900199
_cell_angle_alpha 90.000000
_cell_angle_beta 90.000000
_cell_angle_gamma 90.000000
_cell_volume 7390.598842
_symmetry_space_group_name_H-M "C M M A"
_symmetry_group_IT_number 67
_symmetry_cell_setting 'orthorhombic'
loop_
_space_group_symop_operation_xyz
x,y,z
-x,1/2-y,z
x,-y,-z
-x,1/2+y,-z
-x,-y,-z
x,1/2+y,-z
-x,y,z
x,1/2-y,z
1/2+x,1/2+y,z
1/2-x,-y,z
1/2+x,1/2-y,-z
1/2-x,y,-z
1/2-x,1/2-y,-z
1/2+x,y,-z
1/2-x,1/2+y,z
1/2+x,-y,z
loop_
_atom_site_type_symbol
_atom_site_label
_atom_site_fract_x
_atom_site_fract_y
_atom_site_fract_z
Si Si1 0.714717 0.592210 0.686917
Si Si2 0.828794 0.592082 0.441130
Si Si3 0.401696 0.900140 0.629357
Si Si4 0.043163 0.906357 0.942006
Si Si5 0.413310 0.593554 0.185064
Si Si6 0.457130 0.406764 0.686564
Si Si7 0.642855 0.899881 0.760641
O O1 0.726087 0.750000 0.688391
O O2 0.750000 0.500000 0.701172
O O3 0.697562 0.554313 0.618201
O O4 0.685147 0.559741 0.743277
O O5 0.815704 0.500000 0.500000
O O6 0.824514 0.750000 0.459124
O O7 0.871944 0.558090 0.424918
O O8 0.417973 0.750000 0.615114
O O9 0.380150 0.897614 0.695713
O O10 0.435429 0.007278 0.632498
O O11 0.050024 0.750000 0.960624
O O12 0.066217 0.948869 0.879763
O O13 0.000000 0.933222 0.926525
O O14 0.057078 0.000000 0.000000
O O15 0.401480 0.750000 0.184734
O O16 0.441492 0.562282 0.242949
O O17 0.375325 0.507123 0.190610
O O18 0.500000 0.450971 0.685786
O O19 0.452047 0.250000 0.668549
O O20 0.641726 0.750000 0.792130
#
# Coordination Sequence:
#
# PCOD8281584 Si02
#       7
#    16  16  16  16  16  16  16
#     4   9  18  31  45  63  88 113 134 161 199 241
#     4   9  18  31  45  61  81 106 136 167 198 235
#     4   8  15  28  42  56  77 103 130 163 203 243
#     4   9  17  28  40  56  83 118 151 181 211 241
#     4   9  16  26  41  60  82 109 141 174 206 241
#     4   9  16  25  39  60  82 102 128 166 210 250
#     4   8  15  28  43  59  81 107 134 166 203 241
#
# _framework density 15.154387
#
# number of rings (size 3 to 8) (size 9 to 14) (size 15 to 20)
#    0.000    3.286    0.000    2.143    0.000    4.571 
#    0.000    4.286    0.000    3.000    0.000    0.000 
#    0.000    0.571    0.000    6.286    0.000    4.571 
#
# Total GULP energy -694206.853757 kJ/mol
# GULP energy per Si atom -12396.550960 kJ/mol
# Density = 1.511989 g / cm^3
# Si number density = 15.154387 Si / 1000 Ang^3
#
#
#
# Elastic Constant Matrix: (Units=GPa)
#
#
# Indices 1 2 3 4 5 6 
#
# 1 99.3681 59.4305 27.7005 0.0000 0.0000 0.0000
# 2 59.4305 71.9929 31.6195 0.0000 0.0000 0.0000
# 3 27.7005 31.6195 41.4428 0.0000 0.0000 0.0000
# 4 0.0000 0.0000 0.0000 24.6721 0.0000 0.0000
# 5 0.0000 0.0000 0.0000 0.0000 18.4489 0.0000
# 6 0.0000 0.0000 0.0000 0.0000 0.0000 29.0985
#
#
#
# Elastic Compliance Matrix: (Units=1/GPa)
#
#
# Indices 1 2 3 4 5 6 
#
# 1 0.019914 -0.015932 -0.001155 0.000000 0.000000 0.000000
# 2 -0.015932 0.033637 -0.015015 0.000000 0.000000 0.000000
# 3 -0.001155 -0.015015 0.036358 0.000000 0.000000 0.000000
# 4 0.000000 0.000000 0.000000 0.040532 0.000000 0.000000
# 5 0.000000 0.000000 0.000000 0.000000 0.054204 0.000000
# 6 0.000000 0.000000 0.000000 0.000000 0.000000 0.034366
#
#
# Mechanical properties :
#
#
# Convention : Reuss Voigt Hill
#
# Bulk Modulus (GPa) = 38.90337 50.03389 44.46863
# Shear Modulus (GPa) = 17.13606 20.71411 18.92509
#
# Velocity S-wave (km/s) = 3.36633 3.70113 3.53770
# Velocity P-wave (km/s) = 6.39036 7.16605 6.78929
#
# Compressibility (1/GPa) = 0.02570472
#
# Stress axis : x y z
#
# Youngs Moduli (GPa) = 50.21517 29.72937 27.50461
#
# Poissons Ratio (x) = 0.47365 0.03177
# Poissons Ratio (y) = 0.80003 0.41298
# Poissons Ratio (z) = 0.05801 0.44638
#
# Static dielectric constant tensor:
#      x y z
#    x 2.892350 0.000000 0.000000 
#    y 0.000000 3.047820 0.000000 
#    z 0.000000 0.000000 2.694520 
# 
# 
# High freq. dielectric constant tensor:
#      x y z
#    x 1.567950 0.000000 0.000000 
#    y 0.000000 1.586250 0.000000 
#    z 0.000000 0.000000 1.546450 
# 
# From -- ./inp_files/26436.got.cif
#   From: 2010.03.12/outbox.cif.g09.slc.cpg/sg67_14_cif.got.tgz:26436.got - 2010.04.10 22:41:39.
