data_PCOD8281212
_publ_section_title
;
Structure prediction by ZEFSAII (Michael W. Deem and Ramdas Pophale) SiO2 
 PCOD8281212
Probable space group: C M M A
;
_chemical_formula_sum "Si O2"
_cell_formula_units_Z 88
_cell_length_a 26.456627
_cell_length_b 12.937657
_cell_length_c 14.683855
_cell_angle_alpha 90.000000
_cell_angle_beta 90.000000
_cell_angle_gamma 90.000000
_cell_volume 5026.089233
_symmetry_space_group_name_H-M "C M M A"
_symmetry_group_IT_number 67
_symmetry_cell_setting 'orthorhombic'
loop_
_space_group_symop_operation_xyz
x,y,z
-x,1/2-y,z
x,-y,-z
-x,1/2+y,-z
-x,-y,-z
x,1/2+y,-z
-x,y,z
x,1/2-y,z
1/2+x,1/2+y,z
1/2-x,-y,z
1/2+x,1/2-y,-z
1/2-x,y,-z
1/2-x,1/2-y,-z
1/2+x,y,-z
1/2-x,1/2+y,z
1/2+x,-y,z
loop_
_atom_site_type_symbol
_atom_site_label
_atom_site_fract_x
_atom_site_fract_y
_atom_site_fract_z
Si Si1 0.291431 0.250000 0.731273
Si Si2 0.870931 0.579241 0.420861
Si Si3 0.440453 0.250000 0.706260
Si Si4 0.773684 0.750000 0.099490
Si Si5 0.441040 0.250000 0.492033
Si Si6 0.788305 0.250000 0.583056
Si Si7 0.132671 0.574334 0.741265
Si Si8 0.806791 0.970369 0.103575
O O1 0.276411 0.250000 0.837318
O O2 0.239554 0.250000 0.678294
O O3 0.322897 0.351801 0.703576
O O4 0.861188 0.500000 0.500000
O O5 0.919878 0.647938 0.443152
O O6 0.821290 0.647824 0.417732
O O7 0.879447 0.519211 0.326682
O O8 0.500000 0.250000 0.724149
O O9 0.426891 0.250000 0.598821
O O10 0.416975 0.353229 0.752637
O O11 0.810337 0.847178 0.115845
O O12 0.750000 0.750000 0.000000
O O13 0.500000 0.250000 0.476484
O O14 0.750000 0.250000 0.500000
O O15 0.150117 0.525788 0.837046
O O16 0.750000 0.000000 0.134676
O O17 0.817086 0.000000 0.000000
#
# Coordination Sequence:
#
# PCOD8281212 Si02
#       8
#     8  16   8   8   8   8  16  16
#     4  11  21  33  51  75 108 158 192 225 270 331
#     4  11  22  36  52  79 110 144 187 234 283 346
#     4  10  22  41  65  87 109 144 201 258 303 355
#     4  12  19  32  54  83 119 153 199 234 270 333
#     4  10  22  41  60  81 106 139 186 248 307 350
#     4  11  24  33  45  68 111 156 188 212 261 341
#     4  11  22  36  58  83 116 150 196 243 291 346
#     4  11  21  36  57  87 123 162 198 236 284 335
#
# _framework density 17.508641999999998
#
# number of rings (size 3 to 8) (size 9 to 14) (size 15 to 20)
#    0.000    1.091    5.455    2.182    2.545    4.364 
#    0.000    0.000    0.000    0.545    0.000    1.273 
#    0.000    0.000    0.000    0.000    0.000    0.000 
#
# Total GULP energy -545659.398539 kJ/mol
# GULP energy per Si atom -12401.349967 kJ/mol
# Density = 1.746879 g / cm^3
# Si number density = 17.508642 Si / 1000 Ang^3
#
#
#
# Elastic Constant Matrix: (Units=GPa)
#
#
# Indices 1 2 3 4 5 6 
#
# 1 116.0552 62.0223 53.3425 0.0000 0.0000 0.0000
# 2 62.0223 149.3859 46.1142 0.0000 0.0000 0.0000
# 3 53.3425 46.1142 93.2916 0.0000 0.0000 0.0000
# 4 0.0000 0.0000 0.0000 30.2667 0.0000 0.0000
# 5 0.0000 0.0000 0.0000 0.0000 22.9253 0.0000
# 6 0.0000 0.0000 0.0000 0.0000 0.0000 18.6699
#
#
#
# Elastic Compliance Matrix: (Units=1/GPa)
#
#
# Indices 1 2 3 4 5 6 
#
# 1 0.013243 -0.003730 -0.005728 0.000000 0.000000 0.000000
# 2 -0.003730 0.008950 -0.002291 0.000000 0.000000 0.000000
# 3 -0.005728 -0.002291 0.015127 0.000000 0.000000 0.000000
# 4 0.000000 0.000000 0.000000 0.033040 0.000000 0.000000
# 5 0.000000 0.000000 0.000000 0.000000 0.043620 0.000000
# 6 0.000000 0.000000 0.000000 0.000000 0.000000 0.053562
#
#
# Mechanical properties :
#
#
# Convention : Reuss Voigt Hill
#
# Bulk Modulus (GPa) = 72.35477 75.74342 74.04910
# Shear Modulus (GPa) = 25.55616 27.52263 26.53940
#
# Velocity S-wave (km/s) = 3.82466 3.96908 3.89754
# Velocity P-wave (km/s) = 7.80506 8.02242 7.91449
#
# Compressibility (1/GPa) = 0.01382079
#
# Stress axis : x y z
#
# Youngs Moduli (GPa) = 75.51250 111.73235 66.10689
#
# Poissons Ratio (x) = 0.41675 0.37868
# Poissons Ratio (y) = 0.28165 0.15147
# Poissons Ratio (z) = 0.43256 0.25601
#
# Static dielectric constant tensor:
#      x y z
#    x 3.061240 0.000000 0.000000 
#    y 0.000000 3.858680 0.000000 
#    z 0.000000 0.000000 3.273920 
# 
# 
# High freq. dielectric constant tensor:
#      x y z
#    x 1.648970 0.000000 0.000000 
#    y 0.000000 1.702650 0.000000 
#    z 0.000000 0.000000 1.672780 
# 
# From -- ./inp_files/30716.got.cif
#   From: 2010.03.12/outbox.cif.g09.slc.cpg/sg67_16_cif.got.tgz:30716.got - 2010.04.10 22:41:39.
