data_PCOD8281218
_publ_section_title
;
Structure prediction by ZEFSAII (Michael W. Deem and Ramdas Pophale) SiO2 
 PCOD8281218
Probable space group: C M M A
;
_chemical_formula_sum "Si O2"
_cell_formula_units_Z 80
_cell_length_a 23.405547
_cell_length_b 20.106611
_cell_length_c 8.819425
_cell_angle_alpha 90.000000
_cell_angle_beta 90.000000
_cell_angle_gamma 90.000000
_cell_volume 4150.476339
_symmetry_space_group_name_H-M "C M M A"
_symmetry_group_IT_number 67
_symmetry_cell_setting 'orthorhombic'
loop_
_space_group_symop_operation_xyz
x,y,z
-x,1/2-y,z
x,-y,-z
-x,1/2+y,-z
-x,-y,-z
x,1/2+y,-z
-x,y,z
x,1/2-y,z
1/2+x,1/2+y,z
1/2-x,-y,z
1/2+x,1/2-y,-z
1/2-x,y,-z
1/2-x,1/2-y,-z
1/2+x,y,-z
1/2-x,1/2+y,z
1/2+x,-y,z
loop_
_atom_site_type_symbol
_atom_site_label
_atom_site_fract_x
_atom_site_fract_y
_atom_site_fract_z
Si Si1 0.564874 0.988901 0.328904
Si Si2 0.132447 0.114536 0.127196
Si Si3 0.563972 0.869321 0.822865
Si Si4 0.615198 0.750000 0.634562
Si Si5 0.732104 0.750000 0.764669
Si Si6 0.750000 0.860419 0.000000
Si Si7 0.858616 0.250000 0.302020
O O1 0.500000 0.959182 0.325095
O O2 0.565604 0.060271 0.255590
O O3 0.586485 0.000000 0.500000
O O4 0.609171 0.941982 0.239840
O O5 0.126434 0.185016 0.207660
O O6 0.094196 0.121531 0.981111
O O7 0.197857 0.096974 0.074279
O O8 0.500000 0.845440 0.855527
O O9 0.591678 0.815759 0.712249
O O10 0.683346 0.750000 0.640374
O O11 0.603177 0.750000 0.454573
O O12 0.790685 0.750000 0.671227
O O13 0.723182 0.814655 0.869330
#
# Coordination Sequence:
#
# PCOD8281218 Si02
#       7
#    16  16  16   8   8   8   8
#     4  10  22  41  62  85 119 159 197 244 304 367
#     4  11  20  39  62  87 119 156 204 243 299 357
#     4  11  23  38  60  87 116 157 200 244 297 356
#     4  12  20  37  59  89 122 148 197 249 296 348
#     4   9  17  35  57  84 117 153 189 234 291 355
#     4   9  18  34  61  88 112 150 196 246 288 341
#     4  10  23  34  60  89 119 156 192 243 297 351
#
# _framework density 19.274895000000001
#
# number of rings (size 3 to 8) (size 9 to 14) (size 15 to 20)
#    0.000    1.600    2.000    4.200    0.000    1.600 
#    0.000    6.500    0.000    1.200    0.000    0.000 
#    0.000    0.000    0.000    0.000    0.000    0.000 
#
# Total GULP energy -495872.863144 kJ/mol
# GULP energy per Si atom -12396.821579 kJ/mol
# Density = 1.923102 g / cm^3
# Si number density = 19.274895 Si / 1000 Ang^3
#
#
#
# Elastic Constant Matrix: (Units=GPa)
#
#
# Indices 1 2 3 4 5 6 
#
# 1 114.0713 44.6119 66.0094 0.0000 0.0000 0.0000
# 2 44.6119 78.2441 39.1972 0.0000 0.0000 0.0000
# 3 66.0094 39.1972 148.1932 0.0000 0.0000 0.0000
# 4 0.0000 0.0000 0.0000 23.1830 0.0000 0.0000
# 5 0.0000 0.0000 0.0000 0.0000 33.5344 0.0000
# 6 0.0000 0.0000 0.0000 0.0000 0.0000 35.4537
#
#
#
# Elastic Compliance Matrix: (Units=1/GPa)
#
#
# Indices 1 2 3 4 5 6 
#
# 1 0.013549 -0.005420 -0.004601 0.000000 0.000000 0.000000
# 2 -0.005420 0.016901 -0.002056 0.000000 0.000000 0.000000
# 3 -0.004601 -0.002056 0.009341 0.000000 0.000000 0.000000
# 4 0.000000 0.000000 0.000000 0.043135 0.000000 0.000000
# 5 0.000000 0.000000 0.000000 0.000000 0.029820 0.000000
# 6 0.000000 0.000000 0.000000 0.000000 0.000000 0.028206
#
#
# Mechanical properties :
#
#
# Convention : Reuss Voigt Hill
#
# Bulk Modulus (GPa) = 63.95457 71.12729 67.54093
# Shear Modulus (GPa) = 29.35671 31.14690 30.25180
#
# Velocity S-wave (km/s) = 3.90687 4.02423 3.96598
# Velocity P-wave (km/s) = 7.32146 7.65337 7.48926
#
# Compressibility (1/GPa) = 0.01563610
#
# Stress axis : x y z
#
# Youngs Moduli (GPa) = 73.80716 59.16901 107.05024
#
# Poissons Ratio (x) = 0.32069 0.49259
# Poissons Ratio (y) = 0.40003 0.22010
# Poissons Ratio (z) = 0.33962 0.12166
#
# Static dielectric constant tensor:
#      x y z
#    x 3.773320 0.000000 0.000000 
#    y 0.000000 3.474360 0.000000 
#    z 0.000000 0.000000 3.466650 
# 
# 
# High freq. dielectric constant tensor:
#      x y z
#    x 1.755760 0.000000 0.000000 
#    y 0.000000 1.742550 0.000000 
#    z 0.000000 0.000000 1.763940 
# 
# From -- ./inp_files/12402.got.cif
#   From: 2010.03.12/outbox.cif.g09.slc.cpg/sg67_7_cif.got.tgz:12402.got - 2010.04.10 22:41:39.
