data_PCOD8281909
_publ_section_title
;
Structure prediction by ZEFSAII (Michael W. Deem and Ramdas Pophale) SiO2 
 PCOD8281909
Probable space group: C C C A
;
_chemical_formula_sum "Si O2"
_cell_formula_units_Z 120
_cell_length_a 12.105410
_cell_length_b 26.120194
_cell_length_c 20.186736
_cell_angle_alpha 90.000000
_cell_angle_beta 90.000000
_cell_angle_gamma 90.000000
_cell_volume 6382.958265
_symmetry_space_group_name_H-M "C C C A"
_symmetry_group_IT_number 68
_space_group.IT_coordinate_system_code '2'
_symmetry_cell_setting 'orthorhombic'
loop_
_space_group_symop_operation_xyz
x,y,z
-x,1/2-y,z
x,1/2-y,1/2-z
-x,y,1/2-z
-x,-y,-z
x,1/2+y,-z
-x,1/2+y,1/2+z
x,-y,1/2+z
1/2+x,1/2+y,z
1/2-x,-y,z
1/2+x,-y,1/2-z
1/2-x,1/2+y,1/2-z
1/2-x,1/2-y,-z
1/2+x,y,-z
1/2-x,y,1/2+z
1/2+x,1/2-y,1/2+z
loop_
_atom_site_type_symbol
_atom_site_label
_atom_site_fract_x
_atom_site_fract_y
_atom_site_fract_z
Si Si1 0.354772 0.898258 0.814169
Si Si2 0.994723 0.858842 0.825486
Si Si3 0.750000 0.500000 0.859797
Si Si4 0.547909 0.550917 0.424750
Si Si5 0.361419 0.473019 0.441633
Si Si6 0.212900 0.695245 0.678503
Si Si7 0.263265 0.306353 0.832094
Si Si8 0.397208 0.390402 0.340207
O O1 0.280838 0.853780 0.848738
O O2 0.370983 0.892424 0.736726
O O3 0.471524 0.894683 0.852696
O O4 0.290841 0.951873 0.817247
O O5 0.035369 0.899439 0.879620
O O6 0.081525 0.812405 0.827492
O O7 0.000000 0.882104 0.750000
O O8 0.875726 0.837607 0.847030
O O9 0.647234 0.485037 0.903705
O O10 0.436421 0.519501 0.417186
O O11 0.577534 0.561706 0.502002
O O12 0.250000 0.500000 0.467132
O O13 0.337474 0.436219 0.379341
O O14 0.249514 0.700206 0.754053
O O15 0.238270 0.748207 0.638922
O O16 0.158948 0.336796 0.863858
#
# Coordination Sequence:
#
# PCOD8281909 Si02
#       8
#    16  16   8  16  16  16  16  16
#     4  10  21  34  55  82 113 145 183 231 284 341
#     4  10  19  33  56  86 110 135 181 232 285 325
#     4  12  20  38  54  80 112 142 186 232 282 342
#     4  11  23  37  57  80 106 154 189 225 278 337
#     4  11  23  38  54  77 112 150 195 229 270 333
#     4   9  17  32  54  82 111 142 175 224 286 341
#     4   9  18  32  53  82 113 138 176 229 282 335
#     4  10  21  36  51  82 112 146 188 230 283 327
#
# _framework density 18.800060999999999
#
# number of rings (size 3 to 8) (size 9 to 14) (size 15 to 20)
#    0.000    1.867    3.333    1.200    0.933    3.200 
#    0.000    2.667    0.000    0.800    3.467    0.000 
#    0.000    0.000    0.000    0.000    0.000    0.000 
#
# Total GULP energy -743480.786354 kJ/mol
# GULP energy per Si atom -12391.346439 kJ/mol
# Density = 1.875727 g / cm^3
# Si number density = 18.800061 Si / 1000 Ang^3
#
#
#
# Elastic Constant Matrix: (Units=GPa)
#
#
# Indices 1 2 3 4 5 6 
#
# 1 114.7567 60.6390 15.5857 0.0000 0.0000 0.0000
# 2 60.6390 128.0051 28.7514 0.0000 0.0000 0.0000
# 3 15.5857 28.7514 39.0526 0.0000 0.0000 0.0000
# 4 0.0000 0.0000 0.0000 10.8726 0.0000 0.0000
# 5 0.0000 0.0000 0.0000 0.0000 19.9055 0.0000
# 6 0.0000 0.0000 0.0000 0.0000 0.0000 26.4148
#
#
#
# Elastic Compliance Matrix: (Units=1/GPa)
#
#
# Indices 1 2 3 4 5 6 
#
# 1 0.011640 -0.005356 -0.000702 0.000000 0.000000 0.000000
# 2 -0.005356 0.011825 -0.006568 0.000000 0.000000 0.000000
# 3 -0.000702 -0.006568 0.030722 0.000000 0.000000 0.000000
# 4 0.000000 0.000000 0.000000 0.091974 0.000000 0.000000
# 5 0.000000 0.000000 0.000000 0.000000 0.050237 0.000000
# 6 0.000000 0.000000 0.000000 0.000000 0.000000 0.037858
#
#
# Mechanical properties :
#
#
# Convention : Reuss Voigt Hill
#
# Bulk Modulus (GPa) = 34.56115 54.64072 44.60094
# Shear Modulus (GPa) = 18.57676 23.22779 20.90228
#
# Velocity S-wave (km/s) = 3.14685 3.51881 3.33801
# Velocity P-wave (km/s) = 5.62379 6.75548 6.21545
#
# Compressibility (1/GPa) = 0.02893422
#
# Stress axis : x y z
#
# Youngs Moduli (GPa) = 85.91200 84.56735 32.54980
#
# Poissons Ratio (x) = 0.45298 0.02285
# Poissons Ratio (y) = 0.46018 0.21379
# Poissons Ratio (z) = 0.06030 0.55544
#
# Static dielectric constant tensor:
#      x y z
#    x 3.477230 0.000000 0.000000 
#    y 0.000000 5.856950 0.000000 
#    z 0.000000 0.000000 3.197050 
# 
# 
# High freq. dielectric constant tensor:
#      x y z
#    x 1.748170 0.000000 0.000000 
#    y 0.000000 1.730600 0.000000 
#    z 0.000000 0.000000 1.687000 
# 
# From -- ./inp_files/37997.got.cif
#   From: 2010.03.12/outbox.cif.g09.slc.cpg/sg68_19_cif.got.tgz:37997.got - 2010.04.10 23:14:56.
