data_PCOD8281297
_publ_section_title
;
Structure prediction by ZEFSAII (Michael W. Deem and Ramdas Pophale) SiO2 
 PCOD8281297
Probable space group: C M M A
;
_chemical_formula_sum "Si O2"
_cell_formula_units_Z 48
_cell_length_a 15.227428
_cell_length_b 10.361248
_cell_length_c 13.048099
_cell_angle_alpha 90.000000
_cell_angle_beta 90.000000
_cell_angle_gamma 90.000000
_cell_volume 2058.665880
_symmetry_space_group_name_H-M "C M M A"
_symmetry_group_IT_number 67
_symmetry_cell_setting 'orthorhombic'
loop_
_space_group_symop_operation_xyz
x,y,z
-x,1/2-y,z
x,-y,-z
-x,1/2+y,-z
-x,-y,-z
x,1/2+y,-z
-x,y,z
x,1/2-y,z
1/2+x,1/2+y,z
1/2-x,-y,z
1/2+x,1/2-y,-z
1/2-x,y,-z
1/2-x,1/2-y,-z
1/2+x,y,-z
1/2-x,1/2+y,z
1/2+x,-y,z
loop_
_atom_site_type_symbol
_atom_site_label
_atom_site_fract_x
_atom_site_fract_y
_atom_site_fract_z
Si Si1 0.343309 0.610480 0.940932
Si Si2 0.862429 0.250000 0.595203
Si Si3 0.342528 0.250000 0.634071
Si Si4 0.099090 0.483983 0.733039
O O1 0.389991 0.750000 0.947676
O O2 0.336227 0.569188 0.822080
O O3 0.399601 0.500000 0.000000
O O4 0.250000 0.618738 0.000000
O O5 0.759672 0.250000 0.613696
O O6 0.890136 0.250000 0.475979
O O7 0.901978 0.119176 0.641487
O O8 0.368114 0.376789 0.697063
O O9 0.000000 0.496797 0.775603
#
# Coordination Sequence:
#
# PCOD8281297 Si02
#       4
#    16   8   8  16
#     4  10  24  42  68 101 133 186 233 288 348 423
#     4  11  25  47  73 104 143 194 244 287 341 425
#     4  11  27  45  73 108 143 192 242 283 345 435
#     4  12  26  45  73 108 148 184 232 300 361 418
#
# _framework density 23.316071999999998
#
# number of rings (size 3 to 8) (size 9 to 14) (size 15 to 20)
#    0.000    1.000    1.667    3.000   11.667    7.333 
#    0.000    0.000    0.000    0.000    0.000    0.000 
#    0.000    0.000    0.000    0.000    0.000    0.000 
#
# Total GULP energy -297398.935331 kJ/mol
# GULP energy per Si atom -12391.622305 kJ/mol
# Density = 2.326300 g / cm^3
# Si number density = 23.316072 Si / 1000 Ang^3
#
#
#
# Elastic Constant Matrix: (Units=GPa)
#
#
# Indices 1 2 3 4 5 6 
#
# 1 84.5162 11.5032 27.3075 0.0000 0.0000 0.0000
# 2 11.5032 278.8980 90.6599 0.0000 0.0000 0.0000
# 3 27.3075 90.6599 159.1691 0.0000 0.0000 0.0000
# 4 0.0000 0.0000 0.0000 54.9415 0.0000 0.0000
# 5 0.0000 0.0000 0.0000 0.0000 15.8578 0.0000
# 6 0.0000 0.0000 0.0000 0.0000 0.0000 33.7473
#
#
#
# Elastic Compliance Matrix: (Units=1/GPa)
#
#
# Indices 1 2 3 4 5 6 
#
# 1 0.012538 0.000223 -0.002278 0.000000 0.000000 0.000000
# 2 0.000223 0.004404 -0.002547 0.000000 0.000000 0.000000
# 3 -0.002278 -0.002547 0.008124 0.000000 0.000000 0.000000
# 4 0.000000 0.000000 0.000000 0.018201 0.000000 0.000000
# 5 0.000000 0.000000 0.000000 0.000000 0.063061 0.000000
# 6 0.000000 0.000000 0.000000 0.000000 0.000000 0.029632
#
#
# Mechanical properties :
#
#
# Convention : Reuss Voigt Hill
#
# Bulk Modulus (GPa) = 63.04099 86.83603 74.93851
# Shear Modulus (GPa) = 33.23342 47.11683 40.17513
#
# Velocity S-wave (km/s) = 3.77947 4.50019 4.15549
# Velocity P-wave (km/s) = 6.79280 8.02036 7.43197
#
# Compressibility (1/GPa) = 0.01586269
#
# Stress axis : x y z
#
# Youngs Moduli (GPa) = 79.75904 227.05414 123.08938
#
# Poissons Ratio (x) = -0.05074 0.28043
# Poissons Ratio (y) = -0.01782 0.31350
# Poissons Ratio (z) = 0.18172 0.57829
#
# Static dielectric constant tensor:
#      x y z
#    x 3.938910 0.000000 0.000000 
#    y 0.000000 5.570960 0.000000 
#    z 0.000000 0.000000 4.447890 
# 
# 
# High freq. dielectric constant tensor:
#      x y z
#    x 1.898820 0.000000 0.000000 
#    y 0.000000 1.955540 0.000000 
#    z 0.000000 0.000000 1.930990 
# 
# From -- ./inp_files/18820.got.cif
#   From: 2010.03.12/outbox.cif.g09.slc.cpg/sg67_10_cif.got.tgz:18820.got - 2010.04.10 22:41:39.
