data_PCOD8281301
_publ_section_title
;
Structure prediction by ZEFSAII (Michael W. Deem and Ramdas Pophale) SiO2 
 PCOD8281301
Probable space group: C M M A
;
_chemical_formula_sum "Si O2"
_cell_formula_units_Z 88
_cell_length_a 9.239020
_cell_length_b 15.301307
_cell_length_c 30.494122
_cell_angle_alpha 90.000000
_cell_angle_beta 90.000000
_cell_angle_gamma 90.000000
_cell_volume 4310.926015
_symmetry_space_group_name_H-M "C M M A"
_symmetry_group_IT_number 67
_symmetry_cell_setting 'orthorhombic'
loop_
_space_group_symop_operation_xyz
x,y,z
-x,1/2-y,z
x,-y,-z
-x,1/2+y,-z
-x,-y,-z
x,1/2+y,-z
-x,y,z
x,1/2-y,z
1/2+x,1/2+y,z
1/2-x,-y,z
1/2+x,1/2-y,-z
1/2-x,y,-z
1/2-x,1/2-y,-z
1/2+x,y,-z
1/2-x,1/2+y,z
1/2+x,-y,z
loop_
_atom_site_type_symbol
_atom_site_label
_atom_site_fract_x
_atom_site_fract_y
_atom_site_fract_z
Si Si1 0.337067 0.145691 0.041818
Si Si2 0.171311 0.345468 0.218346
Si Si3 0.162944 0.145249 0.124595
Si Si4 0.665461 0.354282 0.686827
Si Si5 0.330671 0.750000 0.545583
Si Si6 0.328977 0.085364 0.396289
O O1 0.500000 0.110566 0.038975
O O2 0.332562 0.250000 0.042026
O O3 0.265932 0.108517 0.086398
O O4 0.250000 0.109157 0.000000
O O5 0.244911 0.250000 0.219327
O O6 0.217740 0.392237 0.172383
O O7 0.210731 0.391914 0.264693
O O8 0.000000 0.333727 0.216675
O O9 0.167513 0.250000 0.126497
O O10 0.000000 0.113918 0.114187
O O11 0.500000 0.380431 0.675197
O O12 0.681700 0.250000 0.686026
O O13 0.774384 0.398112 0.652899
O O14 0.500000 0.750000 0.536131
O O15 0.250000 0.750000 0.500000
O O16 0.283259 0.834552 0.572962
O O17 0.500000 0.071068 0.395421
O O18 0.250000 0.000000 0.415741
#
# Coordination Sequence:
#
# PCOD8281301 Si02
#       6
#    16  16  16  16   8  16
#     4   9  15  20  25  34  51  80 123 176 234 297
#     4   7  11  20  36  59  84 112 151 196 245 305
#     4   8  12  19  30  43  63  92 129 179 234 290
#     4   9  16  29  52  79 106 141 182 223 271 330
#     4  10  24  44  66  90 122 156 194 240 289 338
#     4  11  23  40  60  88 121 155 194 239 286 337
#
# _framework density 20.413247999999999
#
# number of rings (size 3 to 8) (size 9 to 14) (size 15 to 20)
#    0.000    3.091    0.909    3.273    0.000    4.000 
#    0.000    2.727    0.000    3.273    0.000    0.000 
#    0.000    0.000    0.000    0.000    0.000    0.909 
#
# Total GULP energy -545142.149623 kJ/mol
# GULP energy per Si atom -12389.594310 kJ/mol
# Density = 2.036679 g / cm^3
# Si number density = 20.413248 Si / 1000 Ang^3
#
#
#
# Elastic Constant Matrix: (Units=GPa)
#
#
# Indices 1 2 3 4 5 6 
#
# 1 103.8238 34.1485 75.5539 0.0000 0.0000 0.0000
# 2 34.1485 60.7600 44.2201 0.0000 0.0000 0.0000
# 3 75.5539 44.2201 193.6009 0.0000 0.0000 0.0000
# 4 0.0000 0.0000 0.0000 -4.0936 0.0000 0.0000
# 5 0.0000 0.0000 0.0000 0.0000 37.4787 0.0000
# 6 0.0000 0.0000 0.0000 0.0000 0.0000 17.4663
#
#
#
# Elastic Compliance Matrix: (Units=1/GPa)
#
#
# Indices 1 2 3 4 5 6 
#
# 1 0.014555 -0.004853 -0.004572 0.000000 0.000000 0.000000
# 2 -0.004853 0.021358 -0.002984 0.000000 0.000000 0.000000
# 3 -0.004572 -0.002984 0.007631 0.000000 0.000000 0.000000
# 4 0.000000 0.000000 0.000000 -0.244285 0.000000 0.000000
# 5 0.000000 0.000000 0.000000 0.000000 0.026682 0.000000
# 6 0.000000 0.000000 0.000000 0.000000 0.000000 0.057253
#
#
# Mechanical properties :
#
#
# Convention : Reuss Voigt Hill
#
# Bulk Modulus (GPa) = 53.40309 74.00332 63.70321
# Shear Modulus (GPa) = -58.31100 23.78775 -17.26162
#
# Velocity S-wave (km/s) = -5.35045 3.41737 -2.91109
# Velocity P-wave (km/s) = 3.45716 7.20434 4.46937
#
# Compressibility (1/GPa) = 0.01872551
#
# Stress axis : x y z
#
# Youngs Moduli (GPa) = 68.70639 46.82170 131.04410
#
# Poissons Ratio (x) = 0.22722 0.59908
# Poissons Ratio (y) = 0.33343 0.39109
# Poissons Ratio (z) = 0.31410 0.13973
#
# Static dielectric constant tensor:
#      x y z
#    x 3.479180 0.000000 0.000000 
#    y 0.000000 3.362800 0.000000 
#    z 0.000000 0.000000 4.141660 
# 
# 
# High freq. dielectric constant tensor:
#      x y z
#    x 1.773900 0.000000 0.000000 
#    y 0.000000 1.751550 0.000000 
#    z 0.000000 0.000000 1.816140 
# 
# From -- ./inp_files/45246.got.cif
#   From: 2010.03.12/outbox.cif.g09.slc.cpg/sg67_23_cif.got.tgz:45246.got - 2010.04.10 22:41:39.
