data_PCOD8281423
_publ_section_title
;
Structure prediction by ZEFSAII (Michael W. Deem and Ramdas Pophale) SiO2 
 PCOD8281423
Probable space group: C M M A
;
_chemical_formula_sum "Si O2"
_cell_formula_units_Z 112
_cell_length_a 22.243045
_cell_length_b 14.842846
_cell_length_c 16.036760
_cell_angle_alpha 90.000000
_cell_angle_beta 90.000000
_cell_angle_gamma 90.000000
_cell_volume 5294.537781
_symmetry_space_group_name_H-M "C M M A"
_symmetry_group_IT_number 67
_symmetry_cell_setting 'orthorhombic'
loop_
_space_group_symop_operation_xyz
x,y,z
-x,1/2-y,z
x,-y,-z
-x,1/2+y,-z
-x,-y,-z
x,1/2+y,-z
-x,y,z
x,1/2-y,z
1/2+x,1/2+y,z
1/2-x,-y,z
1/2+x,1/2-y,-z
1/2-x,y,-z
1/2-x,1/2-y,-z
1/2+x,y,-z
1/2-x,1/2+y,z
1/2+x,-y,z
loop_
_atom_site_type_symbol
_atom_site_label
_atom_site_fract_x
_atom_site_fract_y
_atom_site_fract_z
Si Si1 0.669675 0.857842 0.946843
Si Si2 0.608409 0.349763 0.339083
Si Si3 0.760667 0.895034 0.405445
Si Si4 0.567135 0.021410 0.591119
Si Si5 0.653196 0.350880 0.701102
Si Si6 0.793363 0.357084 0.126090
Si Si7 0.434286 0.647169 0.840552
O O1 0.672283 0.750000 0.945088
O O2 0.724661 0.892263 0.887329
O O3 0.606516 0.897000 0.912873
O O4 0.672906 0.890766 0.042507
O O5 0.587501 0.250000 0.367512
O O6 0.673328 0.370200 0.375906
O O7 0.560504 0.422641 0.369698
O O8 0.607937 0.357932 0.240056
O O9 0.750000 0.864944 0.500000
O O10 0.714451 0.839622 0.349721
O O11 0.750000 0.000000 0.392339
O O12 0.500000 0.063110 0.582538
O O13 0.607397 0.085783 0.649380
O O14 0.596561 0.000000 0.500000
O O15 0.625132 0.250000 0.710558
O O16 0.671483 0.394206 0.791533
O O17 0.793472 0.250000 0.134791
O O18 0.500000 0.598816 0.832196
O O19 0.446861 0.750000 0.863367
#
# Coordination Sequence:
#
# PCOD8281423 Si02
#       7
#    16  16  16  16  16  16  16
#     4   8  13  26  49  80 118 154 191 238 292 353
#     4  11  22  38  62  89 116 150 195 248 303 356
#     4  11  22  37  58  87 120 151 188 239 300 361
#     4  11  25  43  60  81 114 157 203 251 303 359
#     4  11  22  38  61  89 121 157 198 244 297 360
#     4   8  15  28  51  83 115 152 196 240 293 358
#     4   9  17  29  49  81 116 149 191 240 288 341
#
# _framework density 21.153877000000001
#
# number of rings (size 3 to 8) (size 9 to 14) (size 15 to 20)
#    0.000    2.143    1.429    3.429    0.000    6.286 
#    0.000    2.143    0.000    3.429    0.000    2.000 
#    0.000    0.000    0.000    0.000    0.000    0.000 
#
# Total GULP energy -693758.467066 kJ/mol
# GULP energy per Si atom -12388.544055 kJ/mol
# Density = 2.110573 g / cm^3
# Si number density = 21.153877 Si / 1000 Ang^3
#
#
#
# Elastic Constant Matrix: (Units=GPa)
#
#
# Indices 1 2 3 4 5 6 
#
# 1 133.8140 16.7523 85.3951 0.0000 0.0000 0.0000
# 2 16.7523 61.4203 34.3077 0.0000 0.0000 0.0000
# 3 85.3951 34.3077 164.9897 0.0000 0.0000 0.0000
# 4 0.0000 0.0000 0.0000 17.1217 0.0000 0.0000
# 5 0.0000 0.0000 0.0000 0.0000 32.4307 0.0000
# 6 0.0000 0.0000 0.0000 0.0000 0.0000 13.6953
#
#
#
# Elastic Compliance Matrix: (Units=1/GPa)
#
#
# Indices 1 2 3 4 5 6 
#
# 1 0.011161 0.000207 -0.005820 0.000000 0.000000 0.000000
# 2 0.000207 0.018425 -0.003938 0.000000 0.000000 0.000000
# 3 -0.005820 -0.003938 0.009892 0.000000 0.000000 0.000000
# 4 0.000000 0.000000 0.000000 0.058406 0.000000 0.000000
# 5 0.000000 0.000000 0.000000 0.000000 0.030835 0.000000
# 6 0.000000 0.000000 0.000000 0.000000 0.000000 0.073018
#
#
# Mechanical properties :
#
#
# Convention : Reuss Voigt Hill
#
# Bulk Modulus (GPa) = 49.07907 70.34824 59.71365
# Shear Modulus (GPa) = 21.96546 27.56748 24.76647
#
# Velocity S-wave (km/s) = 3.22586 3.61389 3.42537
# Velocity P-wave (km/s) = 6.09313 7.12329 6.62825
#
# Compressibility (1/GPa) = 0.02037529
#
# Stress axis : x y z
#
# Youngs Moduli (GPa) = 89.59679 54.27512 101.09162
#
# Poissons Ratio (x) = -0.01121 0.58832
# Poissons Ratio (y) = -0.01851 0.39811
# Poissons Ratio (z) = 0.52143 0.21374
#
# Static dielectric constant tensor:
#      x y z
#    x 3.401400 0.000000 0.000000 
#    y 0.000000 3.695750 0.000000 
#    z 0.000000 0.000000 4.101940 
# 
# 
# High freq. dielectric constant tensor:
#      x y z
#    x 1.821630 0.000000 0.000000 
#    y 0.000000 1.802460 0.000000 
#    z 0.000000 0.000000 1.838360 
# 
# From -- ./inp_files/30174.got.cif
#   From: 2010.03.12/outbox.cif.g09.slc.cpg/sg67_16_cif.got.tgz:30174.got - 2010.04.10 22:41:39.
