data_PCOD8281105
_publ_section_title
;
Structure prediction by ZEFSAII (Michael W. Deem and Ramdas Pophale) SiO2 
 PCOD8281105
Probable space group: C M M A
;
_chemical_formula_sum "Si O2"
_cell_formula_units_Z 104
_cell_length_a 8.960731
_cell_length_b 25.068683
_cell_length_c 30.154669
_cell_angle_alpha 90.000000
_cell_angle_beta 90.000000
_cell_angle_gamma 90.000000
_cell_volume 6773.755620
_symmetry_space_group_name_H-M "C M M A"
_symmetry_group_IT_number 67
_symmetry_cell_setting 'orthorhombic'
loop_
_space_group_symop_operation_xyz
x,y,z
-x,1/2-y,z
x,-y,-z
-x,1/2+y,-z
-x,-y,-z
x,1/2+y,-z
-x,y,z
x,1/2-y,z
1/2+x,1/2+y,z
1/2-x,-y,z
1/2+x,1/2-y,-z
1/2-x,y,-z
1/2-x,1/2-y,-z
1/2+x,y,-z
1/2-x,1/2+y,z
1/2+x,-y,z
loop_
_atom_site_type_symbol
_atom_site_label
_atom_site_fract_x
_atom_site_fract_y
_atom_site_fract_z
Si Si1 0.166710 0.313641 0.869853
Si Si2 0.174501 0.250000 0.547311
Si Si3 0.824985 0.688012 0.686092
Si Si4 0.320737 0.943001 0.454019
Si Si5 0.823830 0.146149 0.602136
Si Si6 0.834503 0.813463 0.784625
Si Si7 0.332469 0.686396 0.043455
O O1 0.172689 0.250000 0.869352
O O2 0.230498 0.336605 0.823555
O O3 0.257640 0.336053 0.911812
O O4 0.000000 0.335031 0.874777
O O5 0.250000 0.250000 0.500000
O O6 0.224625 0.301892 0.574469
O O7 0.000000 0.250000 0.539268
O O8 0.786839 0.750000 0.679557
O O9 0.723077 0.653984 0.653036
O O10 0.779430 0.669029 0.735730
O O11 0.000000 0.677735 0.677466
O O12 0.500000 0.946673 0.457736
O O13 0.250000 0.921738 0.500000
O O14 0.271859 0.903222 0.415485
O O15 0.250000 0.000000 0.442537
O O16 0.000000 0.134676 0.598818
O O17 0.838135 0.750000 0.786190
O O18 0.000000 0.835833 0.793273
O O19 0.500000 0.664911 0.042124
O O20 0.326962 0.750000 0.043448
O O21 0.250000 0.663814 0.000000
#
# Coordination Sequence:
#
# PCOD8281105 Si02
#       7
#    16   8  16  16  16  16  16
#     4   9  15  21  29  42  58  78 108 144 185 232
#     4  10  22  34  46  66  92 120 146 172 205 246
#     4   9  17  29  44  62  84 112 142 171 207 250
#     4  11  22  38  57  76  94 117 145 178 213 251
#     4  11  21  34  49  70  95 121 148 177 212 253
#     4   8  14  24  36  49  67  92 123 156 191 234
#     4   9  15  21  28  37  51  72  99 136 183 232
#
# _framework density 15.353374000000001
#
# number of rings (size 3 to 8) (size 9 to 14) (size 15 to 20)
#    0.000    2.462    0.769    4.615    0.000    6.769 
#    0.000    1.538    0.000    0.000    0.000    0.000 
#    0.000    0.000    0.000    0.000    0.000    0.000 
#
# Total GULP energy -644656.616724 kJ/mol
# GULP energy per Si atom -12397.242629 kJ/mol
# Density = 1.531843 g / cm^3
# Si number density = 15.353374 Si / 1000 Ang^3
#
#
#
# Elastic Constant Matrix: (Units=GPa)
#
#
# Indices 1 2 3 4 5 6 
#
# 1 115.6092 25.1056 68.9350 0.0000 0.0000 0.0000
# 2 25.1056 30.4552 27.9200 0.0000 0.0000 0.0000
# 3 68.9350 27.9200 143.8063 0.0000 0.0000 0.0000
# 4 0.0000 0.0000 0.0000 6.3906 0.0000 0.0000
# 5 0.0000 0.0000 0.0000 0.0000 33.8685 0.0000
# 6 0.0000 0.0000 0.0000 0.0000 0.0000 13.4590
#
#
#
# Elastic Compliance Matrix: (Units=1/GPa)
#
#
# Indices 1 2 3 4 5 6 
#
# 1 0.012974 -0.006075 -0.005040 0.000000 0.000000 0.000000
# 2 -0.006075 0.042789 -0.005395 0.000000 0.000000 0.000000
# 3 -0.005040 -0.005395 0.010417 0.000000 0.000000 0.000000
# 4 0.000000 0.000000 0.000000 0.156479 0.000000 0.000000
# 5 0.000000 0.000000 0.000000 0.000000 0.029526 0.000000
# 6 0.000000 0.000000 0.000000 0.000000 0.000000 0.074300
#
#
# Mechanical properties :
#
#
# Convention : Reuss Voigt Hill
#
# Bulk Modulus (GPa) = 30.15664 59.31022 44.73343
# Shear Modulus (GPa) = 13.49313 21.93765 17.71539
#
# Velocity S-wave (km/s) = 2.96774 3.78411 3.40051
# Velocity P-wave (km/s) = 5.60603 7.60307 6.67960
#
# Compressibility (1/GPa) = 0.03316020
#
# Stress axis : x y z
#
# Youngs Moduli (GPa) = 77.07607 23.37037 95.99468
#
# Poissons Ratio (x) = 0.14197 0.48380
# Poissons Ratio (y) = 0.46823 0.51794
# Poissons Ratio (z) = 0.38845 0.12609
#
# Static dielectric constant tensor:
#      x y z
#    x 3.075370 0.000000 0.000000 
#    y 0.000000 2.385910 0.000000 
#    z 0.000000 0.000000 3.170190 
# 
# 
# High freq. dielectric constant tensor:
#      x y z
#    x 1.602160 0.000000 0.000000 
#    y 0.000000 1.506690 0.000000 
#    z 0.000000 0.000000 1.603450 
# 
# From -- ./inp_files/45400.got.cif
#   From: 2010.03.12/outbox.cif.g09.slc.cpg/sg67_23_cif.got.tgz:45400.got - 2010.04.10 22:41:39.
