data_PCOD8281183
_publ_section_title
;
Structure prediction by ZEFSAII (Michael W. Deem and Ramdas Pophale) SiO2 
 PCOD8281183
Probable space group: C M M A
;
_chemical_formula_sum "Si O2"
_cell_formula_units_Z 88
_cell_length_a 27.877371
_cell_length_b 9.976361
_cell_length_c 15.966082
_cell_angle_alpha 90.000000
_cell_angle_beta 90.000000
_cell_angle_gamma 90.000000
_cell_volume 4440.402374
_symmetry_space_group_name_H-M "C M M A"
_symmetry_group_IT_number 67
_symmetry_cell_setting 'orthorhombic'
loop_
_space_group_symop_operation_xyz
x,y,z
-x,1/2-y,z
x,-y,-z
-x,1/2+y,-z
-x,-y,-z
x,1/2+y,-z
-x,y,z
x,1/2-y,z
1/2+x,1/2+y,z
1/2-x,-y,z
1/2+x,1/2-y,-z
1/2-x,y,-z
1/2-x,1/2-y,-z
1/2+x,y,-z
1/2-x,1/2+y,z
1/2+x,-y,z
loop_
_atom_site_type_symbol
_atom_site_label
_atom_site_fract_x
_atom_site_fract_y
_atom_site_fract_z
Si Si1 0.395206 0.404749 0.580553
Si Si2 0.500000 0.898120 0.426359
Si Si3 0.189304 0.250000 0.166379
Si Si4 0.159894 0.250000 0.987135
Si Si5 0.908240 0.500000 0.000000
Si Si6 0.298053 0.250000 0.197514
Si Si7 0.553365 0.595017 0.836167
Si Si8 0.644711 0.499941 0.254194
O O1 0.389337 0.500000 0.500000
O O2 0.384983 0.250000 0.554945
O O3 0.449178 0.417497 0.621934
O O4 0.356704 0.450264 0.649945
O O5 0.500000 0.750000 0.466410
O O6 0.500000 0.000000 0.500000
O O7 0.241089 0.250000 0.209118
O O8 0.159377 0.380129 0.193046
O O9 0.196349 0.250000 0.065834
O O10 0.188547 0.250000 0.900315
O O11 0.126315 0.124241 0.994378
O O12 0.941891 0.498263 0.918327
O O13 0.317283 0.119019 0.244577
O O14 0.500000 0.574493 0.798631
O O15 0.562089 0.750000 0.861227
O O16 0.591841 0.552542 0.767572
#
# Coordination Sequence:
#
# PCOD8281183 Si02
#       8
#    16   8   8   8   8   8  16  16
#     4  10  22  39  65  95 129 169 207 257 317 377
#     4   8  16  34  56  90 128 159 201 246 300 371
#     4  12  25  42  69  92 126 164 213 283 329 372
#     4  12  21  40  65  90 126 164 217 266 327 380
#     4  12  19  38  59  86 130 168 211 270 311 374
#     4  12  25  44  65  92 126 174 211 269 335 380
#     4  11  23  39  60  89 130 179 217 255 313 382
#     4  12  23  43  63  97 129 163 219 267 316 383
#
# _framework density 19.818024000000001
#
# number of rings (size 3 to 8) (size 9 to 14) (size 15 to 20)
#    0.000    0.909    6.364    1.091    2.545    0.000 
#    0.000    4.091    0.000    3.273    0.000    0.000 
#    0.000    0.000    0.000    0.000    0.000    0.000 
#
# Total GULP energy -545419.459146 kJ/mol
# GULP energy per Si atom -12395.896799 kJ/mol
# Density = 1.977292 g / cm^3
# Si number density = 19.818024 Si / 1000 Ang^3
#
#
#
# Elastic Constant Matrix: (Units=GPa)
#
#
# Indices 1 2 3 4 5 6 
#
# 1 99.7809 28.7291 19.9763 0.0000 0.0000 0.0000
# 2 28.7291 87.2041 13.7440 0.0000 0.0000 0.0000
# 3 19.9763 13.7440 82.1282 0.0000 0.0000 0.0000
# 4 0.0000 0.0000 0.0000 33.0585 0.0000 0.0000
# 5 0.0000 0.0000 0.0000 0.0000 21.4577 0.0000
# 6 0.0000 0.0000 0.0000 0.0000 0.0000 -1.5413
#
#
#
# Elastic Compliance Matrix: (Units=1/GPa)
#
#
# Indices 1 2 3 4 5 6 
#
# 1 0.011451 -0.003424 -0.002212 0.000000 0.000000 0.000000
# 2 -0.003424 0.012802 -0.001310 0.000000 0.000000 0.000000
# 3 -0.002212 -0.001310 0.012933 0.000000 0.000000 0.000000
# 4 0.000000 0.000000 0.000000 0.030249 0.000000 0.000000
# 5 0.000000 0.000000 0.000000 0.000000 0.046603 0.000000
# 6 0.000000 0.000000 0.000000 0.000000 0.000000 -0.648810
#
#
# Mechanical properties :
#
#
# Convention : Reuss Voigt Hill
#
# Bulk Modulus (GPa) = 42.92838 43.77912 43.35375
# Shear Modulus (GPa) = -9.74439 24.37258 7.31409
#
# Velocity S-wave (km/s) = -2.21982 3.51068 1.92318
# Velocity P-wave (km/s) = 3.89078 6.21061 5.18217
#
# Compressibility (1/GPa) = 0.02329461
#
# Stress axis : x y z
#
# Youngs Moduli (GPa) = 87.33165 78.11479 77.31960
#
# Poissons Ratio (x) = 0.26744 0.17105
# Poissons Ratio (y) = 0.29900 0.10126
# Poissons Ratio (z) = 0.19320 0.10230
#
# Static dielectric constant tensor:
#      x y z
#    x 3.731430 0.000000 0.000000 
#    y 0.000000 3.921330 0.000000 
#    z 0.000000 0.000000 3.421120 
# 
# 
# High freq. dielectric constant tensor:
#      x y z
#    x 1.769320 0.000000 0.000000 
#    y 0.000000 1.791560 0.000000 
#    z 0.000000 0.000000 1.749800 
# 
# From -- ./inp_files/36234.got.cif
#   From: 2010.03.12/outbox.cif.g09.slc.cpg/sg67_19_cif.got.tgz:36234.got - 2010.04.10 22:41:39.
