data_PCOD8281511
_publ_section_title
;
Structure prediction by ZEFSAII (Michael W. Deem and Ramdas Pophale) SiO2 
 PCOD8281511
Probable space group: C M M A
;
_chemical_formula_sum "Si O2"
_cell_formula_units_Z 68
_cell_length_a 14.929135
_cell_length_b 19.503837
_cell_length_c 10.680857
_cell_angle_alpha 90.000000
_cell_angle_beta 90.000000
_cell_angle_gamma 90.000000
_cell_volume 3110.002976
_symmetry_space_group_name_H-M "C M M A"
_symmetry_group_IT_number 67
_symmetry_cell_setting 'orthorhombic'
loop_
_space_group_symop_operation_xyz
x,y,z
-x,1/2-y,z
x,-y,-z
-x,1/2+y,-z
-x,-y,-z
x,1/2+y,-z
-x,y,z
x,1/2-y,z
1/2+x,1/2+y,z
1/2-x,-y,z
1/2+x,1/2-y,-z
1/2-x,y,-z
1/2-x,1/2-y,-z
1/2+x,y,-z
1/2-x,1/2+y,z
1/2+x,-y,z
loop_
_atom_site_type_symbol
_atom_site_label
_atom_site_fract_x
_atom_site_fract_y
_atom_site_fract_z
Si Si1 0.750000 0.500000 0.000000
Si Si2 0.163392 0.396729 0.805982
Si Si3 0.500000 0.168779 0.791282
Si Si4 0.602709 0.574363 0.543076
Si Si5 0.500000 0.670642 0.935192
Si Si6 0.322447 0.668997 0.346695
O O1 0.809553 0.452200 0.910210
O O2 0.114444 0.432838 0.691229
O O3 0.091245 0.345772 0.864005
O O4 0.245278 0.353266 0.749117
O O5 0.500000 0.250000 0.797978
O O6 0.587548 0.143516 0.720045
O O7 0.500000 0.134415 0.928804
O O8 0.632166 0.500000 0.500000
O O9 0.500000 0.592990 0.510394
O O10 0.670849 0.630683 0.482143
O O11 0.500000 0.750000 0.959238
O O12 0.316465 0.750000 0.373017
#
# Coordination Sequence:
#
# PCOD8281511 Si02
#       6
#     4  16   8  16   8  16
#     4  12  28  46  72 100 140 194 248 290 352 428
#     4  12  25  45  67 104 135 185 233 291 350 422
#     4   9  20  39  63  94 132 178 221 273 340 412
#     4  11  24  44  68  99 137 179 230 288 356 424
#     4  11  24  42  65  98 140 182 229 290 350 419
#     4  11  23  43  73 104 139 182 232 294 362 428
#
# _framework density 21.864930999999999
#
# number of rings (size 3 to 8) (size 9 to 14) (size 15 to 20)
#    0.000    0.941    2.353    4.235    0.000    4.235 
#    0.000    4.706    0.000    0.000    0.000    0.000 
#    0.000    0.000    0.000    0.000    0.000    0.000 
#
# Total GULP energy -421513.961618 kJ/mol
# GULP energy per Si atom -12397.469459 kJ/mol
# Density = 2.181517 g / cm^3
# Si number density = 21.864931 Si / 1000 Ang^3
#
#
#
# Elastic Constant Matrix: (Units=GPa)
#
#
# Indices 1 2 3 4 5 6 
#
# 1 103.4314 33.2605 20.6152 0.0000 0.0000 0.0000
# 2 33.2605 112.7602 43.4741 0.0000 0.0000 0.0000
# 3 20.6152 43.4741 136.9486 0.0000 0.0000 0.0000
# 4 0.0000 0.0000 0.0000 42.0779 0.0000 0.0000
# 5 0.0000 0.0000 0.0000 0.0000 154.4613 0.0000
# 6 0.0000 0.0000 0.0000 0.0000 0.0000 -11.0562
#
#
#
# Elastic Compliance Matrix: (Units=1/GPa)
#
#
# Indices 1 2 3 4 5 6 
#
# 1 0.010739 -0.002899 -0.000696 0.000000 0.000000 0.000000
# 2 -0.002899 0.010888 -0.003020 0.000000 0.000000 0.000000
# 3 -0.000696 -0.003020 0.008365 0.000000 0.000000 0.000000
# 4 0.000000 0.000000 0.000000 0.023765 0.000000 0.000000
# 5 0.000000 0.000000 0.000000 0.000000 0.006474 0.000000
# 6 0.000000 0.000000 0.000000 0.000000 0.000000 -0.090447
#
#
# Mechanical properties :
#
#
# Convention : Reuss Voigt Hill
#
# Bulk Modulus (GPa) = 59.65944 60.87107 60.26526
# Shear Modulus (GPa) = -438.71710 54.14931 -192.28389
#
# Velocity S-wave (km/s) = -14.18042 4.98188 -9.38790
# Velocity P-wave (km/s) = 15.51669 7.80975 9.48092
#
# Compressibility (1/GPa) = 0.01676181
#
# Stress axis : x y z
#
# Youngs Moduli (GPa) = 93.11557 91.84525 119.53890
#
# Poissons Ratio (x) = 0.26629 0.08323
# Poissons Ratio (y) = 0.26997 0.36100
# Poissons Ratio (z) = 0.06483 0.27736
#
# Static dielectric constant tensor:
#      x y z
#    x 4.148230 0.000000 0.000000 
#    y 0.000000 3.677680 0.000000 
#    z 0.000000 0.000000 4.368620 
# 
# 
# High freq. dielectric constant tensor:
#      x y z
#    x 1.881260 0.000000 0.000000 
#    y 0.000000 1.847030 0.000000 
#    z 0.000000 0.000000 1.882530 
# 
# From -- ./inp_files/17761.got.cif
#   From: 2010.03.12/outbox.cif.g09.slc.cpg/sg67_9_cif.got.tgz:17761.got - 2010.04.10 22:41:39.
