data_PCOD8281736
_publ_section_title
;
Structure prediction by ZEFSAII (Michael W. Deem and Ramdas Pophale) SiO2 
 PCOD8281736
Probable space group: C C C A
;
_chemical_formula_sum "Si O2"
_cell_formula_units_Z 112
_cell_length_a 23.425276
_cell_length_b 25.494781
_cell_length_c 10.491403
_cell_angle_alpha 90.000000
_cell_angle_beta 90.000000
_cell_angle_gamma 90.000000
_cell_volume 6265.699636
_symmetry_space_group_name_H-M "C C C A"
_symmetry_group_IT_number 68
_space_group.IT_coordinate_system_code '2'
_symmetry_cell_setting 'orthorhombic'
loop_
_space_group_symop_operation_xyz
x,y,z
-x,1/2-y,z
x,1/2-y,1/2-z
-x,y,1/2-z
-x,-y,-z
x,1/2+y,-z
-x,1/2+y,1/2+z
x,-y,1/2+z
1/2+x,1/2+y,z
1/2-x,-y,z
1/2+x,-y,1/2-z
1/2-x,1/2+y,1/2-z
1/2-x,1/2-y,-z
1/2+x,y,-z
1/2-x,y,1/2+z
1/2+x,1/2-y,1/2+z
loop_
_atom_site_type_symbol
_atom_site_label
_atom_site_fract_x
_atom_site_fract_y
_atom_site_fract_z
Si Si1 0.939762 0.026359 0.530043
Si Si2 0.880231 0.495897 0.221024
Si Si3 0.719245 0.551204 0.828440
Si Si4 0.824745 0.777434 0.118715
Si Si5 0.309408 0.715084 0.127373
Si Si6 0.826972 0.888213 0.747070
Si Si7 0.864976 0.880785 0.017948
O O1 0.926794 0.015472 0.677620
O O2 0.927631 0.089945 0.513463
O O3 0.899518 0.999486 0.424656
O O4 0.000000 0.000000 0.500000
O O5 0.823425 0.530942 0.218596
O O6 0.869348 0.436749 0.270300
O O7 0.750000 0.500000 0.888711
O O8 0.761480 0.592506 0.762475
O O9 0.681347 0.576093 0.939246
O O10 0.842778 0.750000 0.250000
O O11 0.758501 0.792901 0.116702
O O12 0.864379 0.829530 0.107977
O O13 0.836872 0.738777 0.000316
O O14 0.324420 0.750000 0.250000
O O15 0.337066 0.657256 0.142768
O O16 0.840997 0.861355 0.882392
#
# Coordination Sequence:
#
# PCOD8281736 Si02
#       7
#    16  16  16  16  16  16  16
#     4  10  20  37  56  75 103 131 173 229 270 318
#     4   9  20  34  51  77 103 133 175 208 269 323
#     4   9  18  29  44  72 108 143 166 210 250 319
#     4  10  20  31  45  72 106 141 181 214 244 304
#     4  10  18  30  47  68 103 145 180 206 243 292
#     4  10  18  30  49  72 106 144 173 209 250 313
#     4  10  19  32  49  73 105 142 180 210 268 308
#
# _framework density 17.875098999999999
#
# number of rings (size 3 to 8) (size 9 to 14) (size 15 to 20)
#    0.000    2.286    2.857    0.429    0.000    5.143 
#    5.143    0.000    0.000    0.000    0.000    1.000 
#    0.000    0.000    0.000    0.000    0.000    0.000 
#
# Total GULP energy -693730.831101 kJ/mol
# GULP energy per Si atom -12388.050555 kJ/mol
# Density = 1.783441 g / cm^3
# Si number density = 17.875099 Si / 1000 Ang^3
#
#
#
# Elastic Constant Matrix: (Units=GPa)
#
#
# Indices 1 2 3 4 5 6 
#
# 1 56.8998 33.7084 10.2396 0.0000 0.0000 0.0000
# 2 33.7084 111.8226 38.4345 0.0000 0.0000 0.0000
# 3 10.2396 38.4345 92.2451 0.0000 0.0000 0.0000
# 4 0.0000 0.0000 0.0000 33.2710 0.0000 0.0000
# 5 0.0000 0.0000 0.0000 0.0000 16.5853 0.0000
# 6 0.0000 0.0000 0.0000 0.0000 0.0000 21.1603
#
#
#
# Elastic Compliance Matrix: (Units=1/GPa)
#
#
# Indices 1 2 3 4 5 6 
#
# 1 0.021406 -0.006578 0.000365 0.000000 0.000000 0.000000
# 2 -0.006578 0.012459 -0.004461 0.000000 0.000000 0.000000
# 3 0.000365 -0.004461 0.012659 0.000000 0.000000 0.000000
# 4 0.000000 0.000000 0.000000 0.030056 0.000000 0.000000
# 5 0.000000 0.000000 0.000000 0.000000 0.060294 0.000000
# 6 0.000000 0.000000 0.000000 0.000000 0.000000 0.047258
#
#
# Mechanical properties :
#
#
# Convention : Reuss Voigt Hill
#
# Bulk Modulus (GPa) = 39.72163 47.30360 43.51262
# Shear Modulus (GPa) = 23.37834 26.10899 24.74367
#
# Velocity S-wave (km/s) = 3.62037 3.82597 3.72459
# Velocity P-wave (km/s) = 6.30446 6.78515 6.54921
#
# Compressibility (1/GPa) = 0.02517520
#
# Stress axis : x y z
#
# Youngs Moduli (GPa) = 46.71565 80.26375 78.99599
#
# Poissons Ratio (x) = 0.52798 -0.02881
# Poissons Ratio (y) = 0.30730 0.35239
# Poissons Ratio (z) = -0.01703 0.35805
#
# Static dielectric constant tensor:
#      x y z
#    x 3.034010 0.000000 0.000000 
#    y 0.000000 3.406190 0.000000 
#    z 0.000000 0.000000 3.357640 
# 
# 
# High freq. dielectric constant tensor:
#      x y z
#    x 1.637850 0.000000 0.000000 
#    y 0.000000 1.697060 0.000000 
#    z 0.000000 0.000000 1.697730 
# 
# From -- ./inp_files/15750.got.cif
#   From: 2010.03.12/outbox.cif.g09.slc.cpg/sg68_8_cif.got.tgz:15750.got - 2010.04.10 23:14:56.
