data_PCOD8281261
_publ_section_title
;
Structure prediction by ZEFSAII (Michael W. Deem and Ramdas Pophale) SiO2 
 PCOD8281261
Probable space group: C M M A
;
_chemical_formula_sum "Si O2"
_cell_formula_units_Z 112
_cell_length_a 23.474324
_cell_length_b 15.470230
_cell_length_c 14.385148
_cell_angle_alpha 90.000000
_cell_angle_beta 90.000000
_cell_angle_gamma 90.000000
_cell_volume 5224.012405
_symmetry_space_group_name_H-M "C M M A"
_symmetry_group_IT_number 67
_symmetry_cell_setting 'orthorhombic'
loop_
_space_group_symop_operation_xyz
x,y,z
-x,1/2-y,z
x,-y,-z
-x,1/2+y,-z
-x,-y,-z
x,1/2+y,-z
-x,y,z
x,1/2-y,z
1/2+x,1/2+y,z
1/2-x,-y,z
1/2+x,1/2-y,-z
1/2-x,y,-z
1/2-x,1/2-y,-z
1/2+x,y,-z
1/2-x,1/2+y,z
1/2+x,-y,z
loop_
_atom_site_type_symbol
_atom_site_label
_atom_site_fract_x
_atom_site_fract_y
_atom_site_fract_z
Si Si1 0.368484 0.152591 0.413486
Si Si2 0.565675 0.489895 0.295054
Si Si3 0.371577 0.151999 0.627193
Si Si4 0.255410 0.402116 0.340617
Si Si5 0.834119 0.851252 0.959523
Si Si6 0.221375 0.147334 0.858993
Si Si7 0.562871 0.047046 0.902905
O O1 0.387253 0.250000 0.386260
O O2 0.383680 0.131792 0.519443
O O3 0.299994 0.144961 0.408288
O O4 0.399676 0.085666 0.345477
O O5 0.500000 0.483208 0.326476
O O6 0.589668 0.584990 0.317372
O O7 0.572314 0.480961 0.183271
O O8 0.390279 0.250000 0.651514
O O9 0.305354 0.144235 0.655457
O O10 0.250000 0.500000 0.374430
O O11 0.285165 0.400188 0.239014
O O12 0.830421 0.750000 0.962908
O O13 0.781145 0.885488 0.900410
O O14 0.890983 0.877308 0.905718
O O15 0.827937 0.882950 0.067661
O O16 0.219756 0.250000 0.842060
O O17 0.500000 0.088889 0.893475
O O18 0.569348 0.000000 0.000000
#
# Coordination Sequence:
#
# PCOD8281261 Si02
#       7
#    16  16  16  16  16  16  16
#     4  11  25  43  66  96 131 173 217 266 327 391
#     4  11  25  45  68  96 129 169 221 275 322 384
#     4  11  24  43  67  97 134 171 210 268 333 388
#     4  12  23  36  62  96 132 171 212 261 319 391
#     4   9  19  35  58  85 120 161 206 258 311 376
#     4   9  19  35  54  87 127 163 204 255 314 377
#     4  10  23  41  60  85 122 163 207 262 318 371
#
# _framework density 21.439458999999999
#
# number of rings (size 3 to 8) (size 9 to 14) (size 15 to 20)
#    0.000    1.571    1.429    3.857    2.000    5.429 
#    0.000    4.286    0.000    2.571    0.000    0.000 
#    0.000    0.000    0.000    0.000    0.000    0.000 
#
# Total GULP energy -694257.689250 kJ/mol
# GULP energy per Si atom -12397.458737 kJ/mol
# Density = 2.139066 g / cm^3
# Si number density = 21.439459 Si / 1000 Ang^3
#
#
#
# Elastic Constant Matrix: (Units=GPa)
#
#
# Indices 1 2 3 4 5 6 
#
# 1 103.2170 26.8657 20.5771 0.0000 0.0000 0.0000
# 2 26.8657 79.5165 38.5100 0.0000 0.0000 0.0000
# 3 20.5771 38.5100 96.7385 0.0000 0.0000 0.0000
# 4 0.0000 0.0000 0.0000 30.5990 0.0000 0.0000
# 5 0.0000 0.0000 0.0000 0.0000 27.9253 0.0000
# 6 0.0000 0.0000 0.0000 0.0000 0.0000 18.8722
#
#
#
# Elastic Compliance Matrix: (Units=1/GPa)
#
#
# Indices 1 2 3 4 5 6 
#
# 1 0.010706 -0.003115 -0.001037 0.000000 0.000000 0.000000
# 2 -0.003115 0.016486 -0.005900 0.000000 0.000000 0.000000
# 3 -0.001037 -0.005900 0.012907 0.000000 0.000000 0.000000
# 4 0.000000 0.000000 0.000000 0.032681 0.000000 0.000000
# 5 0.000000 0.000000 0.000000 0.000000 0.035810 0.000000
# 6 0.000000 0.000000 0.000000 0.000000 0.000000 0.052988
#
#
# Mechanical properties :
#
#
# Convention : Reuss Voigt Hill
#
# Bulk Modulus (GPa) = 50.01562 50.15305 50.08433
# Shear Modulus (GPa) = 26.54687 28.38056 27.46372
#
# Velocity S-wave (km/s) = 3.52266 3.64229 3.58297
# Velocity P-wave (km/s) = 6.31862 6.41342 6.36620
#
# Compressibility (1/GPa) = 0.01999376
#
# Stress axis : x y z
#
# Youngs Moduli (GPa) = 93.40696 60.65815 77.48004
#
# Poissons Ratio (x) = 0.18893 0.08037
# Poissons Ratio (y) = 0.29094 0.45715
# Poissons Ratio (z) = 0.09689 0.35789
#
# Static dielectric constant tensor:
#      x y z
#    x 4.080660 0.000000 0.000000 
#    y 0.000000 3.650320 0.000000 
#    z 0.000000 0.000000 4.597680 
# 
# 
# High freq. dielectric constant tensor:
#      x y z
#    x 1.833970 0.000000 0.000000 
#    y 0.000000 1.830120 0.000000 
#    z 0.000000 0.000000 1.859480 
# 
# From -- ./inp_files/30165.got.cif
#   From: 2010.03.12/outbox.cif.g09.slc.cpg/sg67_16_cif.got.tgz:30165.got - 2010.04.10 22:41:39.
