data_PCOD8281848
_publ_section_title
;
Structure prediction by ZEFSAII (Michael W. Deem and Ramdas Pophale) SiO2 
 PCOD8281848
Probable space group: C C C A
;
_chemical_formula_sum "Si O2"
_cell_formula_units_Z 104
_cell_length_a 9.210873
_cell_length_b 25.776276
_cell_length_c 23.739374
_cell_angle_alpha 90.000000
_cell_angle_beta 90.000000
_cell_angle_gamma 90.000000
_cell_volume 5636.249764
_symmetry_space_group_name_H-M "C C C A"
_symmetry_group_IT_number 68
_space_group.IT_coordinate_system_code '2'
_symmetry_cell_setting 'orthorhombic'
loop_
_space_group_symop_operation_xyz
x,y,z
-x,1/2-y,z
x,1/2-y,1/2-z
-x,y,1/2-z
-x,-y,-z
x,1/2+y,-z
-x,1/2+y,1/2+z
x,-y,1/2+z
1/2+x,1/2+y,z
1/2-x,-y,z
1/2+x,-y,1/2-z
1/2-x,1/2+y,1/2-z
1/2-x,1/2-y,-z
1/2+x,y,-z
1/2-x,y,1/2+z
1/2+x,1/2-y,1/2+z
loop_
_atom_site_type_symbol
_atom_site_label
_atom_site_fract_x
_atom_site_fract_y
_atom_site_fract_z
Si Si1 0.372137 0.880630 0.105483
Si Si2 0.000000 0.750000 0.443140
Si Si3 0.949358 0.901672 0.406775
Si Si4 0.565872 0.343789 0.982591
Si Si5 0.582884 0.508504 0.057907
Si Si6 0.297591 0.671561 0.612606
Si Si7 0.035801 0.692649 0.684698
O O1 0.202296 0.882164 0.119314
O O2 0.412977 0.844358 0.051743
O O3 0.441665 0.937009 0.090227
O O4 0.442422 0.854506 0.159993
O O5 0.080222 0.708556 0.482146
O O6 0.122760 0.775232 0.403862
O O7 0.938149 0.891628 0.474126
O O8 0.081206 0.872354 0.376069
O O9 0.969168 0.963337 0.398699
O O10 0.697818 0.348578 0.938767
O O11 0.750000 0.500000 0.043033
O O12 0.500000 0.500000 0.000000
O O13 0.204542 0.681285 0.669210
O O14 0.000000 0.750000 0.659464
O O15 0.000000 0.692624 0.750000
#
# Coordination Sequence:
#
# PCOD8281848 Si02
#       7
#    16   8  16  16  16  16  16
#     4  10  21  35  56  79 115 158 188 237 278 335
#     4  10  20  30  50  79 123 144 184 224 278 346
#     4  10  19  33  52  82 124 144 191 223 278 342
#     4  10  19  30  48  79 116 162 187 212 275 344
#     4  10  20  32  52  82 121 162 187 219 270 336
#     4  10  22  33  55  82 110 151 191 232 287 334
#     4  10  24  44  63  77 102 145 203 247 297 345
#
# _framework density 18.451986000000002
#
# number of rings (size 3 to 8) (size 9 to 14) (size 15 to 20)
#    0.000    2.000    1.538    2.308   10.769    0.000 
#    0.000    0.769    0.000    5.538    0.000    0.000 
#    0.000    0.000    0.000    0.000    0.000    0.000 
#
# Total GULP energy -644460.993419 kJ/mol
# GULP energy per Si atom -12393.480643 kJ/mol
# Density = 1.840999 g / cm^3
# Si number density = 18.451986 Si / 1000 Ang^3
#
#
#
# Elastic Constant Matrix: (Units=GPa)
#
#
# Indices 1 2 3 4 5 6 
#
# 1 116.6354 64.8427 38.9138 0.0000 0.0000 0.0000
# 2 64.8427 122.0126 46.3320 0.0000 0.0000 0.0000
# 3 38.9138 46.3320 67.4919 0.0000 0.0000 0.0000
# 4 0.0000 0.0000 0.0000 19.0565 0.0000 0.0000
# 5 0.0000 0.0000 0.0000 0.0000 20.8861 0.0000
# 6 0.0000 0.0000 0.0000 0.0000 0.0000 30.2525
#
#
#
# Elastic Compliance Matrix: (Units=1/GPa)
#
#
# Indices 1 2 3 4 5 6 
#
# 1 0.012807 -0.005413 -0.003668 0.000000 0.000000 0.000000
# 2 -0.005413 0.013374 -0.006060 0.000000 0.000000 0.000000
# 3 -0.003668 -0.006060 0.021091 0.000000 0.000000 0.000000
# 4 0.000000 0.000000 0.000000 0.052476 0.000000 0.000000
# 5 0.000000 0.000000 0.000000 0.000000 0.047879 0.000000
# 6 0.000000 0.000000 0.000000 0.000000 0.000000 0.033055
#
#
# Mechanical properties :
#
#
# Convention : Reuss Voigt Hill
#
# Bulk Modulus (GPa) = 58.85787 67.36854 63.11320
# Shear Modulus (GPa) = 23.08115 24.44245 23.76180
#
# Velocity S-wave (km/s) = 3.54061 3.64352 3.59244
# Velocity P-wave (km/s) = 6.97722 7.36816 7.17536
#
# Compressibility (1/GPa) = 0.01699008
#
# Stress axis : x y z
#
# Youngs Moduli (GPa) = 78.08223 74.77288 47.41287
#
# Poissons Ratio (x) = 0.40477 0.17391
# Poissons Ratio (y) = 0.42269 0.28731
# Poissons Ratio (z) = 0.28640 0.45310
#
# Static dielectric constant tensor:
#      x y z
#    x 3.556660 0.000000 0.000000 
#    y 0.000000 3.849790 0.000000 
#    z 0.000000 0.000000 2.924580 
# 
# 
# High freq. dielectric constant tensor:
#      x y z
#    x 1.726710 0.000000 0.000000 
#    y 0.000000 1.732020 0.000000 
#    z 0.000000 0.000000 1.659930 
# 
# From -- ./inp_files/43479.got.cif
#   From: 2010.03.12/outbox.cif.g09.slc.cpg/sg68_22_cif.got.tgz:43479.got - 2010.04.10 23:14:56.
