data_PCOD8281923
_publ_section_title
;
Structure prediction by ZEFSAII (Michael W. Deem and Ramdas Pophale) SiO2 
 PCOD8281923
Probable space group: C C C A
;
_chemical_formula_sum "Si O2"
_cell_formula_units_Z 64
_cell_length_a 26.629268
_cell_length_b 24.790428
_cell_length_c 5.154123
_cell_angle_alpha 90.000000
_cell_angle_beta 90.000000
_cell_angle_gamma 90.000000
_cell_volume 3402.499200
_symmetry_space_group_name_H-M "C C C A"
_symmetry_group_IT_number 68
_space_group.IT_coordinate_system_code '2'
_symmetry_cell_setting 'orthorhombic'
loop_
_space_group_symop_operation_xyz
x,y,z
-x,1/2-y,z
x,1/2-y,1/2-z
-x,y,1/2-z
-x,-y,-z
x,1/2+y,-z
-x,1/2+y,1/2+z
x,-y,1/2+z
1/2+x,1/2+y,z
1/2-x,-y,z
1/2+x,-y,1/2-z
1/2-x,1/2+y,1/2-z
1/2-x,1/2-y,-z
1/2+x,y,-z
1/2-x,y,1/2+z
1/2+x,1/2-y,1/2+z
loop_
_atom_site_type_symbol
_atom_site_label
_atom_site_fract_x
_atom_site_fract_y
_atom_site_fract_z
Si Si1 0.944286 0.355534 0.194640
Si Si2 0.278904 0.185727 0.252539
Si Si3 0.392070 0.813246 0.699531
Si Si4 0.055690 0.021558 0.073557
O O1 0.907826 0.328597 0.406914
O O2 0.943533 0.419972 0.203616
O O3 0.000000 0.333611 0.250000
O O4 0.929278 0.340015 0.904183
O O5 0.278532 0.250000 0.250000
O O6 0.252550 0.162977 0.510000
O O7 0.335838 0.164445 0.240775
O O8 0.394121 0.750000 0.750000
O O9 0.082854 0.983228 0.292371
O O10 0.000000 0.000000 0.000000
#
# Coordination Sequence:
#
# PCOD8281923 Si02
#       4
#    16  16  16  16
#     4  12  23  35  55  77 112 157 185 218 268 324
#     4   9  17  33  56  75  98 137 181 232 280 302
#     4  11  24  37  51  80 117 149 189 221 252 334
#     4  10  19  34  56  76  98 136 179 245 280 298
#
# _framework density 18.809705000000001
#
# number of rings (size 3 to 8) (size 9 to 14) (size 15 to 20)
#    0.000    1.500    2.500    4.500    3.500    7.000 
#    0.000    0.000    0.000    0.000    0.000    0.000 
#    0.000   70.000    0.000    0.000    0.000    0.000 
#
# Total GULP energy -396564.255426 kJ/mol
# GULP energy per Si atom -12392.632982 kJ/mol
# Density = 1.876689 g / cm^3
# Si number density = 18.809705 Si / 1000 Ang^3
#
#
#
# Elastic Constant Matrix: (Units=GPa)
#
#
# Indices 1 2 3 4 5 6 
#
# 1 95.8457 13.3930 25.0142 0.0000 0.0000 0.0000
# 2 13.3930 62.3316 17.0752 0.0000 0.0000 0.0000
# 3 25.0142 17.0752 142.1190 0.0000 0.0000 0.0000
# 4 0.0000 0.0000 0.0000 33.1619 0.0000 0.0000
# 5 0.0000 0.0000 0.0000 0.0000 33.5770 0.0000
# 6 0.0000 0.0000 0.0000 0.0000 0.0000 -0.9726
#
#
#
# Elastic Compliance Matrix: (Units=1/GPa)
#
#
# Indices 1 2 3 4 5 6 
#
# 1 0.011154 -0.001922 -0.001732 0.000000 0.000000 0.000000
# 2 -0.001922 0.016920 -0.001695 0.000000 0.000000 0.000000
# 3 -0.001732 -0.001695 0.007545 0.000000 0.000000 0.000000
# 4 0.000000 0.000000 0.000000 0.030155 0.000000 0.000000
# 5 0.000000 0.000000 0.000000 0.000000 0.029782 0.000000
# 6 0.000000 0.000000 0.000000 0.000000 0.000000 -1.028212
#
#
# Mechanical properties :
#
#
# Convention : Reuss Voigt Hill
#
# Bulk Modulus (GPa) = 40.12620 45.69570 42.91095
# Shear Modulus (GPa) = -5.47255 29.47418 12.00081
#
# Velocity S-wave (km/s) = -1.70756 3.96279 2.52863
# Velocity P-wave (km/s) = 4.18227 6.72939 5.60250
#
# Compressibility (1/GPa) = 0.02492137
#
# Stress axis : x y z
#
# Youngs Moduli (GPa) = 89.65290 59.10002 132.54056
#
# Poissons Ratio (x) = 0.11360 0.22960
# Poissons Ratio (y) = 0.17232 0.22461
# Poissons Ratio (z) = 0.15530 0.10015
#
# Static dielectric constant tensor:
#      x y z
#    x 3.420740 0.000000 0.000000 
#    y 0.000000 3.273160 0.000000 
#    z 0.000000 0.000000 8.814910 
# 
# 
# High freq. dielectric constant tensor:
#      x y z
#    x 1.701430 0.000000 0.000000 
#    y 0.000000 1.697410 0.000000 
#    z 0.000000 0.000000 1.768380 
# 
# From -- ./inp_files/1791.got.cif
#   From: 2010.03.12/outbox.cif.g09.slc.cpg/sg68_1_cif.got.tgz:1791.got - 2010.04.10 23:14:56.
