data_PCOD8281055
_publ_section_title
;
Structure prediction by ZEFSAII (Michael W. Deem and Ramdas Pophale) SiO2 
 PCOD8281055
Probable space group: C M M A
;
_chemical_formula_sum "Si O2"
_cell_formula_units_Z 104
_cell_length_a 20.582364
_cell_length_b 28.697437
_cell_length_c 8.335676
_cell_angle_alpha 90.000000
_cell_angle_beta 90.000000
_cell_angle_gamma 90.000000
_cell_volume 4923.559507
_symmetry_space_group_name_H-M "C M M A"
_symmetry_group_IT_number 67
_symmetry_cell_setting 'orthorhombic'
loop_
_space_group_symop_operation_xyz
x,y,z
-x,1/2-y,z
x,-y,-z
-x,1/2+y,-z
-x,-y,-z
x,1/2+y,-z
-x,y,z
x,1/2-y,z
1/2+x,1/2+y,z
1/2-x,-y,z
1/2+x,1/2-y,-z
1/2-x,y,-z
1/2-x,1/2-y,-z
1/2+x,y,-z
1/2-x,1/2+y,z
1/2+x,-y,z
loop_
_atom_site_type_symbol
_atom_site_label
_atom_site_fract_x
_atom_site_fract_y
_atom_site_fract_z
Si Si1 0.261884 0.250000 0.750661
Si Si2 0.928023 0.130994 0.915330
Si Si3 0.072109 0.841979 0.433263
Si Si4 0.816157 0.598958 0.570420
Si Si5 0.076450 0.526209 0.160418
Si Si6 0.358850 0.000000 0.500000
Si Si7 0.306373 0.347627 0.890160
Si Si8 0.645873 0.250000 0.458125
O O1 0.281933 0.296210 0.845379
O O2 0.297710 0.250000 0.584718
O O3 0.183652 0.250000 0.714187
O O4 0.932568 0.162027 0.757116
O O5 0.903742 0.079772 0.864907
O O6 0.000000 0.128933 0.997290
O O7 0.876513 0.156681 0.027606
O O8 0.118804 0.883907 0.483312
O O9 0.100807 0.793814 0.494587
O O10 0.000000 0.850477 0.506485
O O11 0.750000 0.621492 0.500000
O O12 0.813514 0.543650 0.544727
O O13 0.817836 0.614820 0.752511
O O14 0.101212 0.508583 0.334488
O O15 0.000000 0.519289 0.168558
O O16 0.103999 0.500000 0.000000
O O17 0.250000 0.369902 0.000000
#
# Coordination Sequence:
#
# PCOD8281055 Si02
#       8
#     8  16  16  16  16   8  16   8
#     4  11  23  40  69 101 131 181 224 284 340 429
#     4  10  22  42  63  93 136 177 220 283 346 411
#     4  11  23  42  70  97 134 178 225 278 340 408
#     4  12  25  44  66  98 137 182 226 284 342 414
#     4  10  21  39  65  98 135 179 233 291 354 422
#     4  12  24  40  72 100 141 182 239 290 359 414
#     4  12  25  42  69  99 133 180 232 284 349 416
#     4  11  21  42  67 101 137 167 225 280 346 404
#
# _framework density 21.12293
#
# number of rings (size 3 to 8) (size 9 to 14) (size 15 to 20)
#    0.000    0.923    3.077    4.615    0.000    1.846 
#    0.000    1.154    0.000    0.000    0.000    0.000 
#    0.000    0.000    0.000    0.000    0.000    0.000 
#
# Total GULP energy -644520.671422 kJ/mol
# GULP energy per Si atom -12394.628297 kJ/mol
# Density = 2.107485 g / cm^3
# Si number density = 21.122930 Si / 1000 Ang^3
#
#
#
# Elastic Constant Matrix: (Units=GPa)
#
#
# Indices 1 2 3 4 5 6 
#
# 1 154.2086 34.6689 43.4516 0.0000 0.0000 0.0000
# 2 34.6689 95.2241 20.0196 0.0000 0.0000 0.0000
# 3 43.4516 20.0196 107.3558 0.0000 0.0000 0.0000
# 4 0.0000 0.0000 0.0000 32.0311 0.0000 0.0000
# 5 0.0000 0.0000 0.0000 0.0000 33.2380 0.0000
# 6 0.0000 0.0000 0.0000 0.0000 0.0000 29.8298
#
#
#
# Elastic Compliance Matrix: (Units=1/GPa)
#
#
# Indices 1 2 3 4 5 6 
#
# 1 0.007757 -0.002253 -0.002720 0.000000 0.000000 0.000000
# 2 -0.002253 0.011584 -0.001248 0.000000 0.000000 0.000000
# 3 -0.002720 -0.001248 0.010648 0.000000 0.000000 0.000000
# 4 0.000000 0.000000 0.000000 0.031220 0.000000 0.000000
# 5 0.000000 0.000000 0.000000 0.000000 0.030086 0.000000
# 6 0.000000 0.000000 0.000000 0.000000 0.000000 0.033524
#
#
# Mechanical properties :
#
#
# Convention : Reuss Voigt Hill
#
# Bulk Modulus (GPa) = 56.98493 61.45206 59.21850
# Shear Modulus (GPa) = 34.93808 36.26300 35.60054
#
# Velocity S-wave (km/s) = 4.07140 4.14788 4.10981
# Velocity P-wave (km/s) = 7.00985 7.21773 7.11455
#
# Compressibility (1/GPa) = 0.01754850
#
# Stress axis : x y z
#
# Youngs Moduli (GPa) = 128.90787 86.32507 93.91052
#
# Poissons Ratio (x) = 0.19445 0.25541
# Poissons Ratio (y) = 0.29037 0.11725
# Poissons Ratio (z) = 0.35060 0.10778
#
# Static dielectric constant tensor:
#      x y z
#    x 4.091900 0.000000 0.000000 
#    y 0.000000 3.750290 0.000000 
#    z 0.000000 0.000000 3.984320 
# 
# 
# High freq. dielectric constant tensor:
#      x y z
#    x 1.835450 0.000000 0.000000 
#    y 0.000000 1.828370 0.000000 
#    z 0.000000 0.000000 1.830400 
# 
# From -- ./inp_files/11616.got.cif
#   From: 2010.03.12/outbox.cif.g09.slc.cpg/sg67_6_cif.got.tgz:11616.got - 2010.04.10 22:41:39.
