data_PCOD8281303
_publ_section_title
;
Structure prediction by ZEFSAII (Michael W. Deem and Ramdas Pophale) SiO2 
 PCOD8281303
Probable space group: C M M A
;
_chemical_formula_sum "Si O2"
_cell_formula_units_Z 72
_cell_length_a 15.378273
_cell_length_b 9.276838
_cell_length_c 24.686359
_cell_angle_alpha 90.000000
_cell_angle_beta 90.000000
_cell_angle_gamma 90.000000
_cell_volume 3521.799110
_symmetry_space_group_name_H-M "C M M A"
_symmetry_group_IT_number 67
_symmetry_cell_setting 'orthorhombic'
loop_
_space_group_symop_operation_xyz
x,y,z
-x,1/2-y,z
x,-y,-z
-x,1/2+y,-z
-x,-y,-z
x,1/2+y,-z
-x,y,z
x,1/2-y,z
1/2+x,1/2+y,z
1/2-x,-y,z
1/2+x,1/2-y,-z
1/2-x,y,-z
1/2-x,1/2-y,-z
1/2+x,y,-z
1/2-x,1/2+y,z
1/2+x,-y,z
loop_
_atom_site_type_symbol
_atom_site_label
_atom_site_fract_x
_atom_site_fract_y
_atom_site_fract_z
Si Si1 0.666163 0.579516 0.626381
Si Si2 0.398416 0.082708 0.727167
Si Si3 0.396151 0.588204 0.948615
Si Si4 0.500000 0.581768 0.556010
Si Si5 0.896506 0.089945 0.151928
O O1 0.680977 0.750000 0.628309
O O2 0.750000 0.500000 0.600755
O O3 0.653635 0.520803 0.687066
O O4 0.584379 0.535952 0.589846
O O5 0.500000 0.050677 0.720521
O O6 0.378483 0.250000 0.714195
O O7 0.366842 0.042697 0.787910
O O8 0.500000 0.585762 0.948319
O O9 0.360447 0.750000 0.952599
O O10 0.359129 0.518654 0.893189
O O11 0.360230 0.500000 0.000000
O O12 0.500000 0.750000 0.543497
O O13 0.500000 0.500000 0.500000
O O14 0.861646 0.250000 0.138649
O O15 0.000000 0.092124 0.150291
#
# Coordination Sequence:
#
# PCOD8281303 Si02
#       5
#    16  16  16   8  16
#     4  11  23  40  61  90 123 157 199 244 291 344
#     4   9  17  31  53  79 108 146 188 233 290 349
#     4   9  15  21  30  47  76 118 167 219 277 335
#     4  10  24  44  66  92 124 160 199 242 289 340
#     4   8  14  24  38  59  88 124 170 220 273 337
#
# _framework density 20.444095000000001
#
# number of rings (size 3 to 8) (size 9 to 14) (size 15 to 20)
#    0.000    2.667    1.111    2.667    0.000    5.778 
#    0.000    4.444    0.000    0.000    0.000    0.000 
#    0.000    0.889    0.000    9.333    0.000   12.889 
#
# Total GULP energy -446362.849731 kJ/mol
# GULP energy per Si atom -12398.968048 kJ/mol
# Density = 2.039756 g / cm^3
# Si number density = 20.444095 Si / 1000 Ang^3
#
#
#
# Elastic Constant Matrix: (Units=GPa)
#
#
# Indices 1 2 3 4 5 6 
#
# 1 77.0904 47.1279 46.3448 0.0000 0.0000 0.0000
# 2 47.1279 131.7071 85.0686 0.0000 0.0000 0.0000
# 3 46.3448 85.0686 159.2641 0.0000 0.0000 0.0000
# 4 0.0000 0.0000 0.0000 44.2964 0.0000 0.0000
# 5 0.0000 0.0000 0.0000 0.0000 0.7681 0.0000
# 6 0.0000 0.0000 0.0000 0.0000 0.0000 22.3189
#
#
#
# Elastic Compliance Matrix: (Units=1/GPa)
#
#
# Indices 1 2 3 4 5 6 
#
# 1 0.017300 -0.004487 -0.002638 0.000000 0.000000 0.000000
# 2 -0.004487 0.012755 -0.005507 0.000000 0.000000 0.000000
# 3 -0.002638 -0.005507 0.009988 0.000000 0.000000 0.000000
# 4 0.000000 0.000000 0.000000 0.022575 0.000000 0.000000
# 5 0.000000 0.000000 0.000000 0.000000 1.301858 0.000000
# 6 0.000000 0.000000 0.000000 0.000000 0.000000 0.044805
#
#
# Mechanical properties :
#
#
# Convention : Reuss Voigt Hill
#
# Bulk Modulus (GPa) = 67.65925 80.57160 74.11543
# Shear Modulus (GPa) = 3.47349 26.11138 14.79244
#
# Velocity S-wave (km/s) = 1.30488 3.57768 2.69282
# Velocity P-wave (km/s) = 5.95289 7.52082 6.78231
#
# Compressibility (1/GPa) = 0.01477994
#
# Stress axis : x y z
#
# Youngs Moduli (GPa) = 57.80184 78.39884 100.11855
#
# Poissons Ratio (x) = 0.35176 0.26409
# Poissons Ratio (y) = 0.25935 0.55139
# Poissons Ratio (z) = 0.15247 0.43178
#
# Static dielectric constant tensor:
#      x y z
#    x 3.422800 0.000000 0.000000 
#    y 0.000000 3.740990 0.000000 
#    z 0.000000 0.000000 3.792650 
# 
# 
# High freq. dielectric constant tensor:
#      x y z
#    x 1.768820 0.000000 0.000000 
#    y 0.000000 1.798310 0.000000 
#    z 0.000000 0.000000 1.801840 
# 
# From -- ./inp_files/40517.got.cif
#   From: 2010.03.12/outbox.cif.g09.slc.cpg/sg67_21_cif.got.tgz:40517.got - 2010.04.10 22:41:39.
