data_PCOD8281464
_publ_section_title
;
Structure prediction by ZEFSAII (Michael W. Deem and Ramdas Pophale) SiO2 
 PCOD8281464
Probable space group: C M M A
;
_chemical_formula_sum "Si O2"
_cell_formula_units_Z 64
_cell_length_a 18.230198
_cell_length_b 20.155275
_cell_length_c 8.407747
_cell_angle_alpha 90.000000
_cell_angle_beta 90.000000
_cell_angle_gamma 90.000000
_cell_volume 3089.297610
_symmetry_space_group_name_H-M "C M M A"
_symmetry_group_IT_number 67
_symmetry_cell_setting 'orthorhombic'
loop_
_space_group_symop_operation_xyz
x,y,z
-x,1/2-y,z
x,-y,-z
-x,1/2+y,-z
-x,-y,-z
x,1/2+y,-z
-x,y,z
x,1/2-y,z
1/2+x,1/2+y,z
1/2-x,-y,z
1/2+x,1/2-y,-z
1/2-x,y,-z
1/2-x,1/2-y,-z
1/2+x,y,-z
1/2-x,1/2+y,z
1/2+x,-y,z
loop_
_atom_site_type_symbol
_atom_site_label
_atom_site_fract_x
_atom_site_fract_y
_atom_site_fract_z
Si Si1 0.299249 0.250000 0.287910
Si Si2 0.336401 0.998225 0.678251
Si Si3 0.365228 0.250000 0.606568
Si Si4 0.084656 0.374023 0.199292
Si Si5 0.822709 0.619908 0.092245
O O1 0.367391 0.250000 0.413427
O O2 0.220240 0.250000 0.365313
O O3 0.299359 0.184468 0.185293
O O4 0.366367 0.062847 0.762147
O O5 0.370724 0.000000 0.500000
O O6 0.250000 0.000000 0.663571
O O7 0.356565 0.934281 0.785477
O O8 0.404622 0.314892 0.675466
O O9 0.000000 0.393994 0.194737
O O10 0.112685 0.354694 0.024227
O O11 0.750000 0.592291 0.000000
#
# Coordination Sequence:
#
# PCOD8281464 Si02
#       5
#     8  16   8  16  16
#     4  11  22  40  72 101 126 168 229 269 327 391
#     4  11  23  41  66  96 128 173 226 272 327 397
#     4  11  22  43  67 100 133 170 220 280 325 398
#     4  12  26  42  65  97 136 177 217 275 345 402
#     4  12  22  40  68  99 131 172 221 283 326 393
#
# _framework density 20.716684000000001
#
# number of rings (size 3 to 8) (size 9 to 14) (size 15 to 20)
#    0.000    0.500    5.000    3.750    0.000    6.500 
#    0.000    5.000    0.000    0.000    0.000    0.000 
#    0.000    0.000    0.000    0.000    0.000    0.000 
#
# Total GULP energy -396738.413677 kJ/mol
# GULP energy per Si atom -12398.075427 kJ/mol
# Density = 2.066953 g / cm^3
# Si number density = 20.716684 Si / 1000 Ang^3
#
#
#
# Elastic Constant Matrix: (Units=GPa)
#
#
# Indices 1 2 3 4 5 6 
#
# 1 92.0721 21.9435 27.9897 0.0000 0.0000 0.0000
# 2 21.9435 121.9946 22.8719 0.0000 0.0000 0.0000
# 3 27.9897 22.8719 107.3347 0.0000 0.0000 0.0000
# 4 0.0000 0.0000 0.0000 37.0185 0.0000 0.0000
# 5 0.0000 0.0000 0.0000 0.0000 15.2231 0.0000
# 6 0.0000 0.0000 0.0000 0.0000 0.0000 12.9553
#
#
#
# Elastic Compliance Matrix: (Units=1/GPa)
#
#
# Indices 1 2 3 4 5 6 
#
# 1 0.012108 -0.001652 -0.002805 0.000000 0.000000 0.000000
# 2 -0.001652 0.008764 -0.001437 0.000000 0.000000 0.000000
# 3 -0.002805 -0.001437 0.010354 0.000000 0.000000 0.000000
# 4 0.000000 0.000000 0.000000 0.027014 0.000000 0.000000
# 5 0.000000 0.000000 0.000000 0.000000 0.065690 0.000000
# 6 0.000000 0.000000 0.000000 0.000000 0.000000 0.077189
#
#
# Mechanical properties :
#
#
# Convention : Reuss Voigt Hill
#
# Bulk Modulus (GPa) = 51.44621 51.89018 51.66820
# Shear Modulus (GPa) = 22.79107 29.61247 26.20177
#
# Velocity S-wave (km/s) = 3.32042 3.78484 3.56021
# Velocity P-wave (km/s) = 6.29185 6.64846 6.47261
#
# Compressibility (1/GPa) = 0.01943778
#
# Stress axis : x y z
#
# Youngs Moduli (GPa) = 82.59315 114.10893 96.57796
#
# Poissons Ratio (x) = 0.18849 0.27093
# Poissons Ratio (y) = 0.13643 0.13875
# Poissons Ratio (z) = 0.23170 0.16394
#
# Static dielectric constant tensor:
#      x y z
#    x 3.573030 0.000000 0.000000 
#    y 0.000000 3.770060 0.000000 
#    z 0.000000 0.000000 4.685730 
# 
# 
# High freq. dielectric constant tensor:
#      x y z
#    x 1.784130 0.000000 0.000000 
#    y 0.000000 1.819810 0.000000 
#    z 0.000000 0.000000 1.832370 
# 
# From -- ./inp_files/9397.got.cif
#   From: 2010.03.12/outbox.cif.g09.slc.cpg/sg67_5_cif.got.tgz:9397.got - 2010.04.10 22:41:39.
