data_PCOD8281845
_publ_section_title
;
Structure prediction by ZEFSAII (Michael W. Deem and Ramdas Pophale) SiO2 
 PCOD8281845
Probable space group: C C C A
;
_chemical_formula_sum "Si O2"
_cell_formula_units_Z 80
_cell_length_a 4.930958
_cell_length_b 25.157042
_cell_length_c 33.707581
_cell_angle_alpha 90.000000
_cell_angle_beta 90.000000
_cell_angle_gamma 90.000000
_cell_volume 4181.368710
_symmetry_space_group_name_H-M "C C C A"
_symmetry_group_IT_number 68
_space_group.IT_coordinate_system_code '2'
_symmetry_cell_setting 'orthorhombic'
loop_
_space_group_symop_operation_xyz
x,y,z
-x,1/2-y,z
x,1/2-y,1/2-z
-x,y,1/2-z
-x,-y,-z
x,1/2+y,-z
-x,1/2+y,1/2+z
x,-y,1/2+z
1/2+x,1/2+y,z
1/2-x,-y,z
1/2+x,-y,1/2-z
1/2-x,1/2+y,1/2-z
1/2-x,1/2-y,-z
1/2+x,y,-z
1/2-x,y,1/2+z
1/2+x,1/2-y,1/2+z
loop_
_atom_site_type_symbol
_atom_site_label
_atom_site_fract_x
_atom_site_fract_y
_atom_site_fract_z
Si Si1 0.382369 0.554749 0.349179
Si Si2 0.397066 0.847144 0.205518
Si Si3 0.106556 0.193351 0.835949
Si Si4 0.615624 0.095140 0.109173
Si Si5 0.768325 0.561303 0.974192
O O1 0.250000 0.500000 0.333571
O O2 0.399780 0.593284 0.311483
O O3 0.683274 0.553959 0.367927
O O4 0.189575 0.574713 0.384905
O O5 0.500000 0.849743 0.250000
O O6 0.592510 0.806107 0.182208
O O7 0.092038 0.826051 0.199651
O O8 0.121616 0.154647 0.873698
O O9 0.000000 0.250000 0.851467
O O10 0.692206 0.098120 0.063024
O O11 0.750000 0.500000 0.960637
O O12 0.569537 0.574022 0.010892
#
# Coordination Sequence:
#
# PCOD8281845 Si02
#       5
#    16  16  16  16  16
#     4  10  19  33  52  73 100 138 172 201 247 303
#     4  10  21  35  51  77 105 129 168 216 260 307
#     4  10  21  36  55  75  97 133 174 214 260 302
#     4  10  20  34  52  74 103 133 170 211 245 300
#     4  10  19  30  48  75 103 131 161 198 249 300
#
# _framework density 19.132491000000002
#
# number of rings (size 3 to 8) (size 9 to 14) (size 15 to 20)
#    0.000    2.000    0.000    4.200    0.000    4.000 
#    0.000    6.000    0.000    1.200    0.000    0.000 
#    0.000    0.000    0.000    0.000    0.000    0.000 
#
# Total GULP energy -495836.303981 kJ/mol
# GULP energy per Si atom -12395.907600 kJ/mol
# Density = 1.908894 g / cm^3
# Si number density = 19.132491 Si / 1000 Ang^3
#
#
#
# Elastic Constant Matrix: (Units=GPa)
#
#
# Indices 1 2 3 4 5 6 
#
# 1 73.0335 19.6535 15.6985 0.0000 0.0000 0.0000
# 2 19.6535 100.5897 42.7997 0.0000 0.0000 0.0000
# 3 15.6985 42.7997 93.9356 0.0000 0.0000 0.0000
# 4 0.0000 0.0000 0.0000 11.1636 0.0000 0.0000
# 5 0.0000 0.0000 0.0000 0.0000 14.0057 0.0000
# 6 0.0000 0.0000 0.0000 0.0000 0.0000 30.0104
#
#
#
# Elastic Compliance Matrix: (Units=1/GPa)
#
#
# Indices 1 2 3 4 5 6 
#
# 1 0.014602 -0.002251 -0.001415 0.000000 0.000000 0.000000
# 2 -0.002251 0.012679 -0.005401 0.000000 0.000000 0.000000
# 3 -0.001415 -0.005401 0.013343 0.000000 0.000000 0.000000
# 4 0.000000 0.000000 0.000000 0.089577 0.000000 0.000000
# 5 0.000000 0.000000 0.000000 0.000000 0.071400 0.000000
# 6 0.000000 0.000000 0.000000 0.000000 0.000000 0.033322
#
#
# Mechanical properties :
#
#
# Convention : Reuss Voigt Hill
#
# Bulk Modulus (GPa) = 44.46212 47.09580 45.77896
# Shear Modulus (GPa) = 19.18999 23.66307 21.42653
#
# Velocity S-wave (km/s) = 3.17046 3.52063 3.35013
# Velocity P-wave (km/s) = 6.05739 6.41837 6.24049
#
# Compressibility (1/GPa) = 0.02249105
#
# Stress axis : x y z
#
# Youngs Moduli (GPa) = 68.48282 78.86957 74.94701
#
# Poissons Ratio (x) = 0.17754 0.10602
# Poissons Ratio (y) = 0.15416 0.40477
# Poissons Ratio (z) = 0.09688 0.42596
#
# Static dielectric constant tensor:
#      x y z
#    x 3.861180 0.000000 0.000000 
#    y 0.000000 3.338350 0.000000 
#    z 0.000000 0.000000 3.165770 
# 
# 
# High freq. dielectric constant tensor:
#      x y z
#    x 1.772440 0.000000 0.000000 
#    y 0.000000 1.720040 0.000000 
#    z 0.000000 0.000000 1.721940 
# 
# From -- ./inp_files/53161.got.cif
#   From: 2010.03.12/outbox.cif.g09.slc.cpg/sg68_27_cif.got.tgz:53161.got - 2010.04.10 23:14:56.
