data_PCOD8281383
_publ_section_title
;
Structure prediction by ZEFSAII (Michael W. Deem and Ramdas Pophale) SiO2 
 PCOD8281383
Probable space group: C M M A
;
_chemical_formula_sum "Si O2"
_cell_formula_units_Z 80
_cell_length_a 9.946881
_cell_length_b 18.220987
_cell_length_c 24.351713
_cell_angle_alpha 90.000000
_cell_angle_beta 90.000000
_cell_angle_gamma 90.000000
_cell_volume 4413.552909
_symmetry_space_group_name_H-M "C M M A"
_symmetry_group_IT_number 67
_symmetry_cell_setting 'orthorhombic'
loop_
_space_group_symop_operation_xyz
x,y,z
-x,1/2-y,z
x,-y,-z
-x,1/2+y,-z
-x,-y,-z
x,1/2+y,-z
-x,y,z
x,1/2-y,z
1/2+x,1/2+y,z
1/2-x,-y,z
1/2+x,1/2-y,-z
1/2-x,y,-z
1/2-x,1/2-y,-z
1/2+x,y,-z
1/2-x,1/2+y,z
1/2+x,-y,z
loop_
_atom_site_type_symbol
_atom_site_label
_atom_site_fract_x
_atom_site_fract_y
_atom_site_fract_z
Si Si1 0.732623 0.586180 0.616577
Si Si2 0.500000 0.080266 0.469953
Si Si3 0.845994 0.835486 0.047724
Si Si4 0.650514 0.566936 0.729629
Si Si5 0.346349 0.069096 0.150551
Si Si6 0.000000 0.663253 0.577969
O O1 0.750000 0.500000 0.624147
O O2 0.630890 0.595428 0.566292
O O3 0.679133 0.617305 0.675547
O O4 0.869831 0.627809 0.605323
O O5 0.500000 0.144846 0.513951
O O6 0.500000 0.000000 0.500000
O O7 0.820099 0.750000 0.055709
O O8 0.805202 0.871666 0.105275
O O9 0.000000 0.852359 0.031468
O O10 0.750000 0.867398 0.000000
O O11 0.500000 0.535629 0.724287
O O12 0.750000 0.500000 0.730359
O O13 0.668411 0.607266 0.788767
O O14 0.500000 0.042611 0.141900
O O15 0.250000 0.000000 0.143964
O O16 0.000000 0.750000 0.586998
#
# Coordination Sequence:
#
# PCOD8281383 Si02
#       6
#    16   8  16  16  16   8
#     4  11  21  38  63  87 114 150 197 237 278 343
#     4  12  22  38  62  94 114 146 201 243 276 345
#     4   9  18  33  53  75 103 140 183 227 270 323
#     4   9  18  32  54  86 111 142 187 235 275 322
#     4   9  18  33  52  79 112 142 179 224 276 324
#     4  12  28  42  58  88 126 152 179 241 307 343
#
# _framework density 18.125986999999999
#
# number of rings (size 3 to 8) (size 9 to 14) (size 15 to 20)
#    0.000    2.000    3.000    0.600    4.200    2.800 
#    0.000    3.000    0.000    1.200    0.000    0.000 
#    0.000    0.000    0.000    0.000    0.000    0.000 
#
# Total GULP energy -495617.160881 kJ/mol
# GULP energy per Si atom -12390.429022 kJ/mol
# Density = 1.808473 g / cm^3
# Si number density = 18.125987 Si / 1000 Ang^3
#
#
#
# Elastic Constant Matrix: (Units=GPa)
#
#
# Indices 1 2 3 4 5 6 
#
# 1 129.5511 44.7205 83.9305 0.0000 0.0000 0.0000
# 2 44.7205 69.1376 50.1851 0.0000 0.0000 0.0000
# 3 83.9305 50.1851 192.5951 0.0000 0.0000 0.0000
# 4 0.0000 0.0000 0.0000 59.9126 0.0000 0.0000
# 5 0.0000 0.0000 0.0000 0.0000 33.7504 0.0000
# 6 0.0000 0.0000 0.0000 0.0000 0.0000 18.4141
#
#
#
# Elastic Compliance Matrix: (Units=1/GPa)
#
#
# Indices 1 2 3 4 5 6 
#
# 1 0.011953 -0.004872 -0.003939 0.000000 0.000000 0.000000
# 2 -0.004872 0.019824 -0.003042 0.000000 0.000000 0.000000
# 3 -0.003939 -0.003042 0.007702 0.000000 0.000000 0.000000
# 4 0.000000 0.000000 0.000000 0.016691 0.000000 0.000000
# 5 0.000000 0.000000 0.000000 0.000000 0.029629 0.000000
# 6 0.000000 0.000000 0.000000 0.000000 0.000000 0.054306
#
#
# Mechanical properties :
#
#
# Convention : Reuss Voigt Hill
#
# Bulk Modulus (GPa) = 63.40854 83.21733 73.31294
# Shear Modulus (GPa) = 29.57365 36.57858 33.07612
#
# Velocity S-wave (km/s) = 4.04364 4.49711 4.27639
# Velocity P-wave (km/s) = 7.54052 8.54257 8.05714
#
# Compressibility (1/GPa) = 0.01577075
#
# Stress axis : x y z
#
# Youngs Moduli (GPa) = 83.66134 50.44476 129.84078
#
# Poissons Ratio (x) = 0.24577 0.51150
# Poissons Ratio (y) = 0.40760 0.39502
# Poissons Ratio (z) = 0.32958 0.15347
#
# Static dielectric constant tensor:
#      x y z
#    x 3.588260 0.000000 0.000000 
#    y 0.000000 2.932190 0.000000 
#    z 0.000000 0.000000 4.329210 
# 
# 
# High freq. dielectric constant tensor:
#      x y z
#    x 1.719740 0.000000 0.000000 
#    y 0.000000 1.647670 0.000000 
#    z 0.000000 0.000000 1.731770 
# 
# From -- ./inp_files/42305.got.cif
#   From: 2010.03.12/outbox.cif.g09.slc.cpg/sg67_22_cif.got.tgz:42305.got - 2010.04.10 22:41:39.
