data_PCOD8281884
_publ_section_title
;
Structure prediction by ZEFSAII (Michael W. Deem and Ramdas Pophale) SiO2 
 PCOD8281884
Probable space group: C C C A
;
_chemical_formula_sum "Si O2"
_cell_formula_units_Z 80
_cell_length_a 13.770533
_cell_length_b 12.619599
_cell_length_c 23.119075
_cell_angle_alpha 90.000000
_cell_angle_beta 90.000000
_cell_angle_gamma 90.000000
_cell_volume 4017.600590
_symmetry_space_group_name_H-M "C C C A"
_symmetry_group_IT_number 68
_space_group.IT_coordinate_system_code '2'
_symmetry_cell_setting 'orthorhombic'
loop_
_space_group_symop_operation_xyz
x,y,z
-x,1/2-y,z
x,1/2-y,1/2-z
-x,y,1/2-z
-x,-y,-z
x,1/2+y,-z
-x,1/2+y,1/2+z
x,-y,1/2+z
1/2+x,1/2+y,z
1/2-x,-y,z
1/2+x,-y,1/2-z
1/2-x,1/2+y,1/2-z
1/2-x,1/2-y,-z
1/2+x,y,-z
1/2-x,y,1/2+z
1/2+x,1/2-y,1/2+z
loop_
_atom_site_type_symbol
_atom_site_label
_atom_site_fract_x
_atom_site_fract_y
_atom_site_fract_z
Si Si1 0.067030 0.346545 0.020587
Si Si2 0.776319 0.841894 0.705341
Si Si3 0.412735 0.032724 0.293426
Si Si4 0.038857 0.432081 0.577777
Si Si5 0.257501 0.374290 0.079588
O O1 0.034238 0.446185 0.058899
O O2 0.182119 0.331452 0.031663
O O3 0.000000 0.250000 0.042009
O O4 0.051543 0.371141 0.952050
O O5 0.801563 0.750000 0.750000
O O6 0.677557 0.896330 0.727774
O O7 0.758174 0.806631 0.638509
O O8 0.872838 0.913740 0.703762
O O9 0.500000 0.043728 0.250000
O O10 0.459208 0.073654 0.353414
O O11 0.133820 0.366666 0.553543
O O12 0.250000 0.500000 0.097591
#
# Coordination Sequence:
#
# PCOD8281884 Si02
#       5
#    16  16  16  16  16
#     4  10  19  32  59  86 108 142 203 236 273 351
#     4  10  19  36  59  87 109 152 197 226 285 357
#     4  10  20  39  60  81 119 155 185 241 296 340
#     4   9  19  38  57  78 115 158 184 230 304 349
#     4   9  16  37  59  75 118 157 176 231 304 342
#
# _framework density 19.912382999999998
#
# number of rings (size 3 to 8) (size 9 to 14) (size 15 to 20)
#    0.000    2.400    6.000    0.000    0.000    3.200 
#    7.200    0.000   22.000    0.000    0.000    0.000 
#    0.000    0.000    0.000    0.000    0.000    0.000 
#
# Total GULP energy -495605.928243 kJ/mol
# GULP energy per Si atom -12390.148206 kJ/mol
# Density = 1.986706 g / cm^3
# Si number density = 19.912383 Si / 1000 Ang^3
#
#
#
# Elastic Constant Matrix: (Units=GPa)
#
#
# Indices 1 2 3 4 5 6 
#
# 1 131.3518 36.5473 80.9533 0.0000 0.0000 0.0000
# 2 36.5473 58.7109 35.6693 0.0000 0.0000 0.0000
# 3 80.9533 35.6693 113.4403 0.0000 0.0000 0.0000
# 4 0.0000 0.0000 0.0000 25.0795 0.0000 0.0000
# 5 0.0000 0.0000 0.0000 0.0000 32.3309 0.0000
# 6 0.0000 0.0000 0.0000 0.0000 0.0000 18.5373
#
#
#
# Elastic Compliance Matrix: (Units=1/GPa)
#
#
# Indices 1 2 3 4 5 6 
#
# 1 0.014086 -0.003290 -0.009018 0.000000 0.000000 0.000000
# 2 -0.003290 0.021823 -0.004514 0.000000 0.000000 0.000000
# 3 -0.009018 -0.004514 0.016670 0.000000 0.000000 0.000000
# 4 0.000000 0.000000 0.000000 0.039873 0.000000 0.000000
# 5 0.000000 0.000000 0.000000 0.000000 0.030930 0.000000
# 6 0.000000 0.000000 0.000000 0.000000 0.000000 0.053945
#
#
# Mechanical properties :
#
#
# Convention : Reuss Voigt Hill
#
# Bulk Modulus (GPa) = 52.81076 67.76031 60.28554
# Shear Modulus (GPa) = 23.01140 25.21174 24.11157
#
# Velocity S-wave (km/s) = 3.40315 3.56214 3.48355
# Velocity P-wave (km/s) = 6.48236 7.14294 6.82065
#
# Compressibility (1/GPa) = 0.01893553
#
# Stress axis : x y z
#
# Youngs Moduli (GPa) = 70.99112 45.82303 59.98857
#
# Poissons Ratio (x) = 0.15076 0.54096
# Poissons Ratio (y) = 0.23356 0.27079
# Poissons Ratio (z) = 0.64018 0.20685
#
# Static dielectric constant tensor:
#      x y z
#    x 3.889990 0.000000 0.000000 
#    y 0.000000 3.440930 0.000000 
#    z 0.000000 0.000000 3.474350 
# 
# 
# High freq. dielectric constant tensor:
#      x y z
#    x 1.779280 0.000000 0.000000 
#    y 0.000000 1.755730 0.000000 
#    z 0.000000 0.000000 1.767320 
# 
# From -- ./inp_files/45390.got.cif
#   From: 2010.03.12/outbox.cif.g09.slc.cpg/sg68_23_cif.got.tgz:45390.got - 2010.04.10 23:14:56.
