data_PCOD8281111
_publ_section_title
;
Structure prediction by ZEFSAII (Michael W. Deem and Ramdas Pophale) SiO2 
 PCOD8281111
Probable space group: C M M A
;
_chemical_formula_sum "Si O2"
_cell_formula_units_Z 68
_cell_length_a 18.711130
_cell_length_b 28.498349
_cell_length_c 6.833985
_cell_angle_alpha 90.000000
_cell_angle_beta 90.000000
_cell_angle_gamma 90.000000
_cell_volume 3644.128964
_symmetry_space_group_name_H-M "C M M A"
_symmetry_group_IT_number 67
_symmetry_cell_setting 'orthorhombic'
loop_
_space_group_symop_operation_xyz
x,y,z
-x,1/2-y,z
x,-y,-z
-x,1/2+y,-z
-x,-y,-z
x,1/2+y,-z
-x,y,z
x,1/2-y,z
1/2+x,1/2+y,z
1/2-x,-y,z
1/2+x,1/2-y,-z
1/2-x,y,-z
1/2-x,1/2-y,-z
1/2+x,y,-z
1/2-x,1/2+y,z
1/2+x,-y,z
loop_
_atom_site_type_symbol
_atom_site_label
_atom_site_fract_x
_atom_site_fract_y
_atom_site_fract_z
Si Si1 0.668613 0.696716 0.021206
Si Si2 0.750000 0.500000 0.000000
Si Si3 0.418085 0.629564 0.301673
Si Si4 0.422295 0.800907 0.650123
Si Si5 0.182885 0.544718 0.626673
O O1 0.661304 0.750000 0.106421
O O2 0.626169 0.658546 0.144010
O O3 0.750000 0.680923 0.000000
O O4 0.639891 0.694170 0.803844
O O5 0.796976 0.468156 0.148360
O O6 0.500000 0.621918 0.231104
O O7 0.414744 0.658085 0.498824
O O8 0.382242 0.580215 0.352187
O O9 0.500000 0.804329 0.754774
O O10 0.415484 0.750000 0.544596
O O11 0.155897 0.500000 0.500000
O O12 0.250000 0.565713 0.500000
#
# Coordination Sequence:
#
# PCOD8281111 Si02
#       5
#    16   4  16  16  16
#     4  10  22  36  54  84 118 154 196 238 280 335
#     4   8  18  40  62  82 106 148 184 228 304 346
#     4  11  23  36  58  88 115 151 193 238 291 344
#     4   9  19  36  55  78 115 156 188 226 278 335
#     4   9  21  39  60  84 110 146 190 237 290 351
#
# _framework density 18.660152
#
# number of rings (size 3 to 8) (size 9 to 14) (size 15 to 20)
#    0.000    2.588    0.000    1.412    4.941    4.706 
#    0.000    4.118    0.000    0.000    0.000    0.000 
#    0.000    0.000    0.000    0.000    0.000    0.000 
#
# Total GULP energy -421271.058990 kJ/mol
# GULP energy per Si atom -12390.325264 kJ/mol
# Density = 1.861768 g / cm^3
# Si number density = 18.660152 Si / 1000 Ang^3
#
#
#
# Elastic Constant Matrix: (Units=GPa)
#
#
# Indices 1 2 3 4 5 6 
#
# 1 156.7334 82.2185 55.7219 0.0000 0.0000 0.0000
# 2 82.2185 119.0464 44.9318 0.0000 0.0000 0.0000
# 3 55.7219 44.9318 91.1699 0.0000 0.0000 0.0000
# 4 0.0000 0.0000 0.0000 26.8766 0.0000 0.0000
# 5 0.0000 0.0000 0.0000 0.0000 24.1480 0.0000
# 6 0.0000 0.0000 0.0000 0.0000 0.0000 41.9592
#
#
#
# Elastic Compliance Matrix: (Units=1/GPa)
#
#
# Indices 1 2 3 4 5 6 
#
# 1 0.010901 -0.006160 -0.003627 0.000000 0.000000 0.000000
# 2 -0.006160 0.013800 -0.003037 0.000000 0.000000 0.000000
# 3 -0.003627 -0.003037 0.014682 0.000000 0.000000 0.000000
# 4 0.000000 0.000000 0.000000 0.037207 0.000000 0.000000
# 5 0.000000 0.000000 0.000000 0.000000 0.041411 0.000000
# 6 0.000000 0.000000 0.000000 0.000000 0.000000 0.023833
#
#
# Mechanical properties :
#
#
# Convention : Reuss Voigt Hill
#
# Bulk Modulus (GPa) = 72.79701 81.41047 77.10374
# Shear Modulus (GPa) = 29.05977 30.86857 29.96417
#
# Velocity S-wave (km/s) = 3.95057 4.07166 4.01157
# Velocity P-wave (km/s) = 7.73990 8.11340 7.92885
#
# Compressibility (1/GPa) = 0.01373683
#
# Stress axis : x y z
#
# Youngs Moduli (GPa) = 91.73536 72.46173 68.11214
#
# Poissons Ratio (x) = 0.44635 0.24703
# Poissons Ratio (y) = 0.56507 0.20683
# Poissons Ratio (z) = 0.33270 0.22003
#
# Static dielectric constant tensor:
#      x y z
#    x 3.603670 0.000000 0.000000 
#    y 0.000000 3.400570 0.000000 
#    z 0.000000 0.000000 3.358690 
# 
# 
# High freq. dielectric constant tensor:
#      x y z
#    x 1.729070 0.000000 0.000000 
#    y 0.000000 1.723610 0.000000 
#    z 0.000000 0.000000 1.720050 
# 
# From -- ./inp_files/2922.got.cif
#   From: 2010.03.12/outbox.cif.g09.slc.cpg/sg67_2_cif.got.tgz:2922.got - 2010.04.10 22:41:39.
