data_PCOD8281211
_publ_section_title
;
Structure prediction by ZEFSAII (Michael W. Deem and Ramdas Pophale) SiO2 
 PCOD8281211
Probable space group: C M M A
;
_chemical_formula_sum "Si O2"
_cell_formula_units_Z 72
_cell_length_a 17.058773
_cell_length_b 15.247792
_cell_length_c 13.749934
_cell_angle_alpha 90.000000
_cell_angle_beta 90.000000
_cell_angle_gamma 90.000000
_cell_volume 3576.476392
_symmetry_space_group_name_H-M "C M M A"
_symmetry_group_IT_number 67
_symmetry_cell_setting 'orthorhombic'
loop_
_space_group_symop_operation_xyz
x,y,z
-x,1/2-y,z
x,-y,-z
-x,1/2+y,-z
-x,-y,-z
x,1/2+y,-z
-x,y,z
x,1/2-y,z
1/2+x,1/2+y,z
1/2-x,-y,z
1/2+x,1/2-y,-z
1/2-x,y,-z
1/2-x,1/2-y,-z
1/2+x,y,-z
1/2-x,1/2+y,z
1/2+x,-y,z
loop_
_atom_site_type_symbol
_atom_site_label
_atom_site_fract_x
_atom_site_fract_y
_atom_site_fract_z
Si Si1 0.661643 0.902438 0.969426
Si Si2 0.195409 0.250000 0.275167
Si Si3 0.910775 0.750000 0.914235
Si Si4 0.591297 0.750000 0.464854
Si Si5 0.091696 0.574213 0.425413
Si Si6 0.801313 0.584792 0.244040
O O1 0.652894 0.888553 0.853785
O O2 0.750000 0.879537 0.000000
O O3 0.602962 0.836153 0.021430
O O4 0.637212 0.000000 0.000000
O O5 0.146192 0.250000 0.177109
O O6 0.137253 0.250000 0.365105
O O7 0.248165 0.163798 0.281828
O O8 0.000000 0.750000 0.877476
O O9 0.500000 0.750000 0.437985
O O10 0.614830 0.832972 0.529307
O O11 0.119794 0.500000 0.500000
O O12 0.135669 0.559123 0.324756
O O13 0.000000 0.566552 0.403326
O O14 0.750000 0.500000 0.218194
#
# Coordination Sequence:
#
# PCOD8281211 Si02
#       6
#    16   8   8   8  16  16
#     4  11  21  43  66  88 126 169 204 257 319 368
#     4  12  23  38  62  92 122 162 206 264 304 371
#     4  12  25  40  63  96 129 166 211 259 319 382
#     4  10  22  41  59  81 123 166 197 247 315 366
#     4  10  23  42  61  87 126 163 201 258 314 367
#     4  12  23  38  67  93 118 162 210 252 311 373
#
# _framework density 20.131547000000001
#
# number of rings (size 3 to 8) (size 9 to 14) (size 15 to 20)
#    0.000    0.889    4.444    3.333    0.000    5.333 
#    0.000    6.667    0.000    0.000    0.000    0.000 
#    0.000    0.000    0.000    0.000    0.000    0.000 
#
# Total GULP energy -446669.628621 kJ/mol
# GULP energy per Si atom -12407.489684 kJ/mol
# Density = 2.008573 g / cm^3
# Si number density = 20.131547 Si / 1000 Ang^3
#
#
#
# Elastic Constant Matrix: (Units=GPa)
#
#
# Indices 1 2 3 4 5 6 
#
# 1 59.3676 24.8981 43.2682 0.0000 0.0000 0.0000
# 2 24.8981 94.2199 4.0402 0.0000 0.0000 0.0000
# 3 43.2682 4.0402 142.8463 0.0000 0.0000 0.0000
# 4 0.0000 0.0000 0.0000 -7.1617 0.0000 0.0000
# 5 0.0000 0.0000 0.0000 0.0000 21.2748 0.0000
# 6 0.0000 0.0000 0.0000 0.0000 0.0000 27.8199
#
#
#
# Elastic Compliance Matrix: (Units=1/GPa)
#
#
# Indices 1 2 3 4 5 6 
#
# 1 0.024810 -0.006242 -0.007339 0.000000 0.000000 0.000000
# 2 -0.006242 0.012197 0.001546 0.000000 0.000000 0.000000
# 3 -0.007339 0.001546 0.009180 0.000000 0.000000 0.000000
# 4 0.000000 0.000000 0.000000 -0.139631 0.000000 0.000000
# 5 0.000000 0.000000 0.000000 0.000000 0.047004 0.000000
# 6 0.000000 0.000000 0.000000 0.000000 0.000000 0.035945
#
#
# Mechanical properties :
#
#
# Convention : Reuss Voigt Hill
#
# Bulk Modulus (GPa) = 45.21295 48.98299 47.09797
# Shear Modulus (GPa) = 238.70629 23.33508 131.02069
#
# Velocity S-wave (km/s) = 10.90095 3.40829 8.07611
# Velocity P-wave (km/s) = 13.45171 6.31450 10.50765
#
# Compressibility (1/GPa) = 0.02211756
#
# Stress axis : x y z
#
# Youngs Moduli (GPa) = 40.30587 81.99033 108.93661
#
# Poissons Ratio (x) = 0.51175 0.79943
# Poissons Ratio (y) = 0.25157 -0.16837
# Poissons Ratio (z) = 0.29578 -0.12672
#
# Static dielectric constant tensor:
#      x y z
#    x 3.473820 0.000000 0.000000 
#    y 0.000000 3.837880 0.000000 
#    z 0.000000 0.000000 3.742480 
# 
# 
# High freq. dielectric constant tensor:
#      x y z
#    x 1.771550 0.000000 0.000000 
#    y 0.000000 1.805050 0.000000 
#    z 0.000000 0.000000 1.801830 
# 
# From -- ./inp_files/28294.got.cif
#   From: 2010.03.12/outbox.cif.g09.slc.cpg/sg67_15_cif.got.tgz:28294.got - 2010.04.10 22:41:39.
