data_PCOD8281332
_publ_section_title
;
Structure prediction by ZEFSAII (Michael W. Deem and Ramdas Pophale) SiO2 
 PCOD8281332
Probable space group: C M M A
;
_chemical_formula_sum "Si O2"
_cell_formula_units_Z 48
_cell_length_a 18.889288
_cell_length_b 15.243615
_cell_length_c 9.429542
_cell_angle_alpha 90.000000
_cell_angle_beta 90.000000
_cell_angle_gamma 90.000000
_cell_volume 2715.152073
_symmetry_space_group_name_H-M "C M M A"
_symmetry_group_IT_number 67
_symmetry_cell_setting 'orthorhombic'
loop_
_space_group_symop_operation_xyz
x,y,z
-x,1/2-y,z
x,-y,-z
-x,1/2+y,-z
-x,-y,-z
x,1/2+y,-z
-x,y,z
x,1/2-y,z
1/2+x,1/2+y,z
1/2-x,-y,z
1/2+x,1/2-y,-z
1/2-x,y,-z
1/2-x,1/2-y,-z
1/2+x,y,-z
1/2-x,1/2+y,z
1/2+x,-y,z
loop_
_atom_site_type_symbol
_atom_site_label
_atom_site_fract_x
_atom_site_fract_y
_atom_site_fract_z
Si Si1 0.079179 0.250000 0.206885
Si Si2 0.577728 0.652352 0.934029
Si Si3 0.774923 0.750000 0.659860
Si Si4 0.221486 0.095104 0.848709
O O1 0.139316 0.250000 0.327996
O O2 0.000000 0.250000 0.275630
O O3 0.087959 0.163930 0.105114
O O4 0.500000 0.611984 0.902424
O O5 0.583724 0.750000 0.865215
O O6 0.636164 0.589470 0.863748
O O7 0.750000 0.750000 0.500000
O O8 0.743742 0.663091 0.729937
O O9 0.250000 0.000000 0.806414
O O10 0.250000 0.128517 0.000000
#
# Coordination Sequence:
#
# PCOD8281332 Si02
#       4
#     8  16   8  16
#     4   8  15  31  54  80 109 141 182 227 279 337
#     4   8  14  29  57  83 108 140 179 236 285 324
#     4  12  22  36  55  77 114 156 186 225 279 336
#     4  11  20  34  57  84 111 140 186 238 280 321
#
# _framework density 17.678569
#
# number of rings (size 3 to 8) (size 9 to 14) (size 15 to 20)
#    1.000    1.333    5.000    0.500    0.000    0.667 
#    0.000    6.667    0.000    0.000    0.000    4.667 
#    0.000    0.000    0.000    0.000    0.000    0.000 
#
# Total GULP energy -297332.890108 kJ/mol
# GULP energy per Si atom -12388.870421 kJ/mol
# Density = 1.763833 g / cm^3
# Si number density = 17.678569 Si / 1000 Ang^3
#
#
#
# Elastic Constant Matrix: (Units=GPa)
#
#
# Indices 1 2 3 4 5 6 
#
# 1 200.7349 56.4841 57.0594 0.0000 0.0000 0.0000
# 2 56.4841 88.7886 54.7024 0.0000 0.0000 0.0000
# 3 57.0594 54.7024 93.4683 0.0000 0.0000 0.0000
# 4 0.0000 0.0000 0.0000 5.1204 0.0000 0.0000
# 5 0.0000 0.0000 0.0000 0.0000 20.8289 0.0000
# 6 0.0000 0.0000 0.0000 0.0000 0.0000 25.7432
#
#
#
# Elastic Compliance Matrix: (Units=1/GPa)
#
#
# Indices 1 2 3 4 5 6 
#
# 1 0.006389 -0.002599 -0.002380 0.000000 0.000000 0.000000
# 2 -0.002599 0.018671 -0.009341 0.000000 0.000000 0.000000
# 3 -0.002380 -0.009341 0.017618 0.000000 0.000000 0.000000
# 4 0.000000 0.000000 0.000000 0.195295 0.000000 0.000000
# 5 0.000000 0.000000 0.000000 0.000000 0.048010 0.000000
# 6 0.000000 0.000000 0.000000 0.000000 0.000000 0.038845
#
#
# Mechanical properties :
#
#
# Convention : Reuss Voigt Hill
#
# Bulk Modulus (GPa) = 71.22347 79.94261 75.58304
# Shear Modulus (GPa) = 13.96076 24.65490 19.30783
#
# Velocity S-wave (km/s) = 2.81321 3.73851 3.30837
# Velocity P-wave (km/s) = 7.13636 7.99710 7.57896
#
# Compressibility (1/GPa) = 0.01404032
#
# Stress axis : x y z
#
# Youngs Moduli (GPa) = 156.51123 53.56042 56.75979
#
# Poissons Ratio (x) = 0.13918 0.13507
# Poissons Ratio (y) = 0.40670 0.53017
# Poissons Ratio (z) = 0.37245 0.50029
#
# Static dielectric constant tensor:
#      x y z
#    x 3.509970 0.000000 0.000000 
#    y 0.000000 2.945940 0.000000 
#    z 0.000000 0.000000 2.744180 
# 
# 
# High freq. dielectric constant tensor:
#      x y z
#    x 1.709700 0.000000 0.000000 
#    y 0.000000 1.660310 0.000000 
#    z 0.000000 0.000000 1.619360 
# 
# From -- ./inp_files/8833.got.cif
#   From: 2010.03.12/outbox.cif.g09.slc.cpg/sg67_5_cif.got.tgz:8833.got - 2010.04.10 22:41:39.
