data_PCOD8281514
_publ_section_title
;
Structure prediction by ZEFSAII (Michael W. Deem and Ramdas Pophale) SiO2 
 PCOD8281514
Probable space group: C M M A
;
_chemical_formula_sum "Si O2"
_cell_formula_units_Z 80
_cell_length_a 9.607636
_cell_length_b 16.958912
_cell_length_c 23.791380
_cell_angle_alpha 90.000000
_cell_angle_beta 90.000000
_cell_angle_gamma 90.000000
_cell_volume 3876.449772
_symmetry_space_group_name_H-M "C M M A"
_symmetry_group_IT_number 67
_symmetry_cell_setting 'orthorhombic'
loop_
_space_group_symop_operation_xyz
x,y,z
-x,1/2-y,z
x,-y,-z
-x,1/2+y,-z
-x,-y,-z
x,1/2+y,-z
-x,y,z
x,1/2-y,z
1/2+x,1/2+y,z
1/2-x,-y,z
1/2+x,1/2-y,-z
1/2-x,y,-z
1/2-x,1/2-y,-z
1/2+x,y,-z
1/2-x,1/2+y,z
1/2+x,-y,z
loop_
_atom_site_type_symbol
_atom_site_label
_atom_site_fract_x
_atom_site_fract_y
_atom_site_fract_z
Si Si1 0.661804 0.075791 0.731232
Si Si2 0.757462 0.839286 0.622933
Si Si3 0.000000 0.108264 0.449145
Si Si4 0.338557 0.342337 0.174568
Si Si5 0.500000 0.926751 0.577958
Si Si6 0.846732 0.843645 0.048348
O O1 0.500000 0.055044 0.743330
O O2 0.667828 0.139316 0.681223
O O3 0.732734 0.110329 0.786766
O O4 0.750000 0.000000 0.712434
O O5 0.701433 0.750000 0.626141
O O6 0.864304 0.845941 0.571412
O O7 0.632492 0.899142 0.612630
O O8 0.000000 0.109914 0.516094
O O9 0.000000 0.020724 0.423598
O O10 0.500000 0.364562 0.186992
O O11 0.316740 0.250000 0.184982
O O12 0.296732 0.366196 0.110969
O O13 0.849917 0.750000 0.043174
O O14 0.000000 0.878135 0.037978
O O15 0.750000 0.881209 0.000000
#
# Coordination Sequence:
#
# PCOD8281514 Si02
#       6
#    16  16   8  16   8  16
#     4  12  26  43  64  87 118 160 207 258 318 382
#     4  12  26  42  65  96 126 160 207 261 310 364
#     4  11  23  45  69  91 131 165 208 249 304 367
#     4   9  19  36  59  88 124 162 204 255 308 367
#     4  11  25  43  67  97 125 171 204 245 306 381
#     4   8  14  26  47  79 118 159 200 245 300 360
#
# _framework density 20.637440000000002
#
# number of rings (size 3 to 8) (size 9 to 14) (size 15 to 20)
#    0.000    1.600    1.000    5.400    2.800    6.000 
#    0.000    2.000    0.000    0.600    0.000    4.200 
#    0.000    0.000    0.000    0.000    0.000    0.000 
#
# Total GULP energy -496061.427615 kJ/mol
# GULP energy per Si atom -12401.535690 kJ/mol
# Density = 2.059047 g / cm^3
# Si number density = 20.637440 Si / 1000 Ang^3
#
#
#
# Elastic Constant Matrix: (Units=GPa)
#
#
# Indices 1 2 3 4 5 6 
#
# 1 122.4387 23.3690 45.1021 0.0000 0.0000 0.0000
# 2 23.3690 66.7590 28.9047 0.0000 0.0000 0.0000
# 3 45.1021 28.9047 112.4371 0.0000 0.0000 0.0000
# 4 0.0000 0.0000 0.0000 24.2163 0.0000 0.0000
# 5 0.0000 0.0000 0.0000 0.0000 40.9982 0.0000
# 6 0.0000 0.0000 0.0000 0.0000 0.0000 25.1620
#
#
#
# Elastic Compliance Matrix: (Units=1/GPa)
#
#
# Indices 1 2 3 4 5 6 
#
# 1 0.009803 -0.001946 -0.003432 0.000000 0.000000 0.000000
# 2 -0.001946 0.017241 -0.003652 0.000000 0.000000 0.000000
# 3 -0.003432 -0.003652 0.011209 0.000000 0.000000 0.000000
# 4 0.000000 0.000000 0.000000 0.041295 0.000000 0.000000
# 5 0.000000 0.000000 0.000000 0.000000 0.024391 0.000000
# 6 0.000000 0.000000 0.000000 0.000000 0.000000 0.039742
#
#
# Mechanical properties :
#
#
# Convention : Reuss Voigt Hill
#
# Bulk Modulus (GPa) = 49.51797 55.15401 52.33599
# Shear Modulus (GPa) = 29.67838 31.69258 30.68548
#
# Velocity S-wave (km/s) = 3.79632 3.92303 3.86020
# Velocity P-wave (km/s) = 6.57742 6.87775 6.72926
#
# Compressibility (1/GPa) = 0.02019469
#
# Stress axis : x y z
#
# Youngs Moduli (GPa) = 102.01008 57.99973 89.21072
#
# Poissons Ratio (x) = 0.11284 0.30618
# Poissons Ratio (y) = 0.19846 0.32579
# Poissons Ratio (z) = 0.35011 0.21181
#
# Static dielectric constant tensor:
#      x y z
#    x 3.746710 0.000000 0.000000 
#    y 0.000000 3.480420 0.000000 
#    z 0.000000 0.000000 3.837140 
# 
# 
# High freq. dielectric constant tensor:
#      x y z
#    x 1.811120 0.000000 0.000000 
#    y 0.000000 1.786930 0.000000 
#    z 0.000000 0.000000 1.817980 
# 
# From -- ./inp_files/43358.got.cif
#   From: 2010.03.12/outbox.cif.g09.slc.cpg/sg67_22_cif.got.tgz:43358.got - 2010.04.10 22:41:39.
