data_PCOD8281921
_publ_section_title
;
Structure prediction by ZEFSAII (Michael W. Deem and Ramdas Pophale) SiO2 
 PCOD8281921
Probable space group: C C C A
;
_chemical_formula_sum "Si O2"
_cell_formula_units_Z 120
_cell_length_a 19.508377
_cell_length_b 11.977249
_cell_length_c 26.756291
_cell_angle_alpha 90.000000
_cell_angle_beta 90.000000
_cell_angle_gamma 90.000000
_cell_volume 6251.786363
_symmetry_space_group_name_H-M "C C C A"
_symmetry_group_IT_number 68
_space_group.IT_coordinate_system_code '2'
_symmetry_cell_setting 'orthorhombic'
loop_
_space_group_symop_operation_xyz
x,y,z
-x,1/2-y,z
x,1/2-y,1/2-z
-x,y,1/2-z
-x,-y,-z
x,1/2+y,-z
-x,1/2+y,1/2+z
x,-y,1/2+z
1/2+x,1/2+y,z
1/2-x,-y,z
1/2+x,-y,1/2-z
1/2-x,1/2+y,1/2-z
1/2-x,1/2-y,-z
1/2+x,y,-z
1/2-x,y,1/2+z
1/2+x,1/2-y,1/2+z
loop_
_atom_site_type_symbol
_atom_site_label
_atom_site_fract_x
_atom_site_fract_y
_atom_site_fract_z
Si Si1 0.551779 0.613425 0.930821
Si Si2 0.182993 0.081495 0.670664
Si Si3 0.750000 0.000000 0.098448
Si Si4 0.403126 0.952135 0.574881
Si Si5 0.422064 0.117559 0.254072
Si Si6 0.868974 0.592714 0.962453
Si Si7 0.344345 0.831565 0.848663
Si Si8 0.433742 0.189310 0.543401
O O1 0.472425 0.618807 0.912878
O O2 0.572585 0.482991 0.935794
O O3 0.601152 0.685462 0.894169
O O4 0.556790 0.665708 0.985085
O O5 0.155026 0.061127 0.615736
O O6 0.125031 0.056008 0.712408
O O7 0.191917 0.217493 0.671779
O O8 0.250000 0.000000 0.679728
O O9 0.797416 0.058738 0.058804
O O10 0.717298 0.091278 0.134161
O O11 0.371464 0.919505 0.521963
O O12 0.420390 0.082193 0.576300
O O13 0.425339 0.250000 0.250000
O O14 0.500000 0.069144 0.250000
O O15 0.386459 0.097062 0.307449
O O16 0.873010 0.722754 0.948859
O O17 0.500000 0.250000 0.564944
#
# Coordination Sequence:
#
# PCOD8281921 Si02
#       8
#    16  16   8  16  16  16  16  16
#     4  10  19  34  55  86 108 151 211 248 287 341
#     4  11  25  38  56  92 125 151 192 239 316 368
#     4  10  24  38  58  80 114 166 208 232 278 368
#     4  11  21  34  55  83 121 160 195 252 299 344
#     4   9  19  40  67  90 112 144 195 257 304 353
#     4  10  20  35  50  79 115 155 207 240 280 345
#     4  10  22  40  62  86 113 154 201 245 300 351
#     4  11  18  32  56  81 119 159 200 250 301 336
#
# _framework density 19.194514000000002
#
# number of rings (size 3 to 8) (size 9 to 14) (size 15 to 20)
#    0.000    1.733    2.667    2.400    3.733    1.067 
#    0.000    2.667    0.000    0.000    0.000    0.933 
#    0.000    0.000    0.000    0.000    0.000    0.000 
#
# Total GULP energy -743411.280548 kJ/mol
# GULP energy per Si atom -12390.188009 kJ/mol
# Density = 1.915083 g / cm^3
# Si number density = 19.194514 Si / 1000 Ang^3
#
#
#
# Elastic Constant Matrix: (Units=GPa)
#
#
# Indices 1 2 3 4 5 6 
#
# 1 134.7764 43.5340 46.1862 0.0000 0.0000 0.0000
# 2 43.5340 70.7226 5.5378 0.0000 0.0000 0.0000
# 3 46.1862 5.5378 65.3319 0.0000 0.0000 0.0000
# 4 0.0000 0.0000 0.0000 22.4216 0.0000 0.0000
# 5 0.0000 0.0000 0.0000 0.0000 4.4443 0.0000
# 6 0.0000 0.0000 0.0000 0.0000 0.0000 31.3167
#
#
#
# Elastic Compliance Matrix: (Units=1/GPa)
#
#
# Indices 1 2 3 4 5 6 
#
# 1 0.012534 -0.007069 -0.008262 0.000000 0.000000 0.000000
# 2 -0.007069 0.018221 0.003453 0.000000 0.000000 0.000000
# 3 -0.008262 0.003453 0.020854 0.000000 0.000000 0.000000
# 4 0.000000 0.000000 0.000000 0.044600 0.000000 0.000000
# 5 0.000000 0.000000 0.000000 0.000000 0.225007 0.000000
# 6 0.000000 0.000000 0.000000 0.000000 0.000000 0.031932
#
#
# Mechanical properties :
#
#
# Convention : Reuss Voigt Hill
#
# Bulk Modulus (GPa) = 35.90190 51.26077 43.58133
# Shear Modulus (GPa) = 12.94705 23.34138 18.14422
#
# Velocity S-wave (km/s) = 2.59997 3.49097 3.07788
# Velocity P-wave (km/s) = 5.26858 6.55843 5.94857
#
# Compressibility (1/GPa) = 0.02785368
#
# Stress axis : x y z
#
# Youngs Moduli (GPa) = 79.78219 54.88317 47.95136
#
# Poissons Ratio (x) = 0.38795 0.39616
# Poissons Ratio (y) = 0.56395 -0.16556
# Poissons Ratio (z) = 0.65915 -0.18949
#
# Static dielectric constant tensor:
#      x y z
#    x 3.648590 0.000000 0.000000 
#    y 0.000000 3.906640 0.000000 
#    z 0.000000 0.000000 3.540870 
# 
# 
# High freq. dielectric constant tensor:
#      x y z
#    x 1.745190 0.000000 0.000000 
#    y 0.000000 1.745190 0.000000 
#    z 0.000000 0.000000 1.734680 
# 
# From -- ./inp_files/46723.got.cif
#   From: 2010.03.12/outbox.cif.g09.slc.cpg/sg68_24_cif.got.tgz:46723.got - 2010.04.10 23:14:56.
