data_PCOD8281918
_publ_section_title
;
Structure prediction by ZEFSAII (Michael W. Deem and Ramdas Pophale) SiO2 
 PCOD8281918
Probable space group: C C C A
;
_chemical_formula_sum "Si O2"
_cell_formula_units_Z 92
_cell_length_a 26.144199
_cell_length_b 19.326902
_cell_length_c 8.625365
_cell_angle_alpha 90.000000
_cell_angle_beta 90.000000
_cell_angle_gamma 90.000000
_cell_volume 4358.279388
_symmetry_space_group_name_H-M "C C C A"
_symmetry_group_IT_number 68
_space_group.IT_coordinate_system_code '2'
_symmetry_cell_setting 'orthorhombic'
loop_
_space_group_symop_operation_xyz
x,y,z
-x,1/2-y,z
x,1/2-y,1/2-z
-x,y,1/2-z
-x,-y,-z
x,1/2+y,-z
-x,1/2+y,1/2+z
x,-y,1/2+z
1/2+x,1/2+y,z
1/2-x,-y,z
1/2+x,-y,1/2-z
1/2-x,1/2+y,1/2-z
1/2-x,1/2-y,-z
1/2+x,y,-z
1/2-x,y,1/2+z
1/2+x,1/2-y,1/2+z
loop_
_atom_site_type_symbol
_atom_site_label
_atom_site_fract_x
_atom_site_fract_y
_atom_site_fract_z
Si Si1 0.819753 0.637716 0.986181
Si Si2 0.417847 0.339550 0.920380
Si Si3 0.720351 0.065575 0.003179
Si Si4 0.133885 0.042344 0.238370
Si Si5 0.868508 0.387263 0.788935
Si Si6 0.837642 0.250000 0.250000
Si Si7 0.000000 0.250000 0.250000
O O1 0.764720 0.617221 0.055640
O O2 0.849966 0.574689 0.903066
O O3 0.807091 0.699939 0.866375
O O4 0.857520 0.656110 0.130882
O O5 0.412570 0.414844 0.840516
O O6 0.369679 0.296664 0.864871
O O7 0.468601 0.299576 0.866221
O O8 0.411830 0.348213 0.107182
O O9 0.685793 0.106118 0.125284
O O10 0.750000 0.000000 0.079227
O O11 0.685740 0.040456 0.861452
O O12 0.111833 0.965317 0.257888
#
# Coordination Sequence:
#
# PCOD8281918 Si02
#       7
#    16  16  16  16  16   8   4
#     4  11  20  32  55  81 126 175 214 256 295 358
#     4   9  21  40  66  89 112 162 205 251 332 381
#     4  11  19  31  52  87 126 173 218 243 299 353
#     4  10  19  34  54  90 128 159 202 260 314 368
#     4  11  20  33  57  92 124 158 209 268 307 364
#     4   9  22  41  54  80 124 170 220 261 302 363
#     4  10  20  48  76  86 116 162 212 254 316 432
#
# _framework density 21.109248999999998
#
# number of rings (size 3 to 8) (size 9 to 14) (size 15 to 20)
#    0.000    1.739    3.478    2.087    0.000    0.696 
#    0.000   14.783    0.000   18.783    0.000    0.000 
#    0.000    0.000    0.000    1.217    0.000    0.000 
#
# Total GULP energy -569933.413390 kJ/mol
# GULP energy per Si atom -12389.856813 kJ/mol
# Density = 2.106120 g / cm^3
# Si number density = 21.109249 Si / 1000 Ang^3
#
#
#
# Elastic Constant Matrix: (Units=GPa)
#
#
# Indices 1 2 3 4 5 6 
#
# 1 82.3989 35.8910 40.3243 0.0000 0.0000 0.0000
# 2 35.8910 97.4291 43.4786 0.0000 0.0000 0.0000
# 3 40.3243 43.4786 132.3609 0.0000 0.0000 0.0000
# 4 0.0000 0.0000 0.0000 14.0171 0.0000 0.0000
# 5 0.0000 0.0000 0.0000 0.0000 4.7783 0.0000
# 6 0.0000 0.0000 0.0000 0.0000 0.0000 22.0588
#
#
#
# Elastic Compliance Matrix: (Units=1/GPa)
#
#
# Indices 1 2 3 4 5 6 
#
# 1 0.015638 -0.004259 -0.003365 0.000000 0.000000 0.000000
# 2 -0.004259 0.013187 -0.003034 0.000000 0.000000 0.000000
# 3 -0.003365 -0.003034 0.009577 0.000000 0.000000 0.000000
# 4 0.000000 0.000000 0.000000 0.071342 0.000000 0.000000
# 5 0.000000 0.000000 0.000000 0.000000 0.209280 0.000000
# 6 0.000000 0.000000 0.000000 0.000000 0.000000 0.045333
#
#
# Mechanical properties :
#
#
# Convention : Reuss Voigt Hill
#
# Bulk Modulus (GPa) = 58.53026 61.28632 59.90829
# Shear Modulus (GPa) = 12.77567 21.00383 16.88975
#
# Velocity S-wave (km/s) = 2.46278 3.15779 2.83169
# Velocity P-wave (km/s) = 5.98954 6.51088 6.25564
#
# Compressibility (1/GPa) = 0.01708518
#
# Stress axis : x y z
#
# Youngs Moduli (GPa) = 63.94658 75.83321 104.41693
#
# Poissons Ratio (x) = 0.32298 0.35138
# Poissons Ratio (y) = 0.27235 0.31682
# Poissons Ratio (z) = 0.21519 0.23009
#
# Static dielectric constant tensor:
#      x y z
#    x 3.397260 0.000000 0.000000 
#    y 0.000000 78.886480 0.000000 
#    z 0.000000 0.000000 4.036710 
# 
# 
# High freq. dielectric constant tensor:
#      x y z
#    x 1.767270 0.000000 0.000000 
#    y 0.000000 1.828040 0.000000 
#    z 0.000000 0.000000 1.840230 
# 
# From -- ./inp_files/8031.got.cif
#   From: 2010.03.12/outbox.cif.g09.slc.cpg/sg68_5_cif.got.tgz:8031.got - 2010.04.10 23:14:56.
