data_PCOD8281058
_publ_section_title
;
Structure prediction by ZEFSAII (Michael W. Deem and Ramdas Pophale) SiO2 
 PCOD8281058
Probable space group: C M M A
;
_chemical_formula_sum "Si O2"
_cell_formula_units_Z 88
_cell_length_a 9.638218
_cell_length_b 17.008740
_cell_length_c 26.727387
_cell_angle_alpha 90.000000
_cell_angle_beta 90.000000
_cell_angle_gamma 90.000000
_cell_volume 4381.525964
_symmetry_space_group_name_H-M "C M M A"
_symmetry_group_IT_number 67
_symmetry_cell_setting 'orthorhombic'
loop_
_space_group_symop_operation_xyz
x,y,z
-x,1/2-y,z
x,-y,-z
-x,1/2+y,-z
-x,-y,-z
x,1/2+y,-z
-x,y,z
x,1/2-y,z
1/2+x,1/2+y,z
1/2-x,-y,z
1/2+x,1/2-y,-z
1/2-x,y,-z
1/2-x,1/2-y,-z
1/2+x,y,-z
1/2-x,1/2+y,z
1/2+x,-y,z
loop_
_atom_site_type_symbol
_atom_site_label
_atom_site_fract_x
_atom_site_fract_y
_atom_site_fract_z
Si Si1 0.160520 0.425948 0.284006
Si Si2 0.349677 0.160726 0.213333
Si Si3 0.164137 0.250000 0.449644
Si Si4 0.660635 0.079084 0.599160
Si Si5 0.000000 0.160901 0.074426
Si Si6 0.000000 0.416322 0.972572
Si Si7 0.776545 0.412309 0.888700
O O1 0.250000 0.500000 0.267007
O O2 0.223316 0.356409 0.251031
O O3 0.181212 0.407908 0.342194
O O4 0.000000 0.438990 0.270598
O O5 0.500000 0.141952 0.238871
O O6 0.334472 0.250000 0.199645
O O7 0.350795 0.120643 0.159669
O O8 0.250000 0.250000 0.500000
O O9 0.204602 0.334342 0.423011
O O10 0.000000 0.250000 0.459666
O O11 0.500000 0.060583 0.585633
O O12 0.750000 0.000000 0.581824
O O13 0.868953 0.126253 0.101632
O O14 0.000000 0.250000 0.087683
O O15 0.000000 0.149759 0.014838
O O16 0.134801 0.404777 0.939039
O O17 0.000000 0.500000 0.000000
O O18 0.750000 0.500000 0.873704
#
# Coordination Sequence:
#
# PCOD8281058 Si02
#       7
#    16  16   8  16   8   8  16
#     4  10  21  39  67  94 125 168 222 270 328 396
#     4  11  25  42  60  90 130 167 205 260 325 382
#     4  10  22  40  62  94 138 182 234 286 343 400
#     4   9  20  39  64  94 131 176 227 285 336 400
#     4  12  28  42  66 102 128 152 204 260 304 365
#     4  12  24  46  70  96 118 164 212 250 310 383
#     4  12  24  44  70  90 126 161 205 255 309 381
#
# _framework density 20.084326999999998
#
# number of rings (size 3 to 8) (size 9 to 14) (size 15 to 20)
#    0.000    1.273    2.727    2.182    2.545    4.364 
#    0.000    1.818    0.000    0.000    0.000    0.000 
#    0.000    0.000    0.000    0.000    0.000    0.000 
#
# Total GULP energy -545227.197184 kJ/mol
# GULP energy per Si atom -12391.527209 kJ/mol
# Density = 2.003861 g / cm^3
# Si number density = 20.084327 Si / 1000 Ang^3
#
#
#
# Elastic Constant Matrix: (Units=GPa)
#
#
# Indices 1 2 3 4 5 6 
#
# 1 122.6759 75.6539 36.2729 0.0000 0.0000 0.0000
# 2 75.6539 162.7545 48.7678 0.0000 0.0000 0.0000
# 3 36.2729 48.7678 73.9504 0.0000 0.0000 0.0000
# 4 0.0000 0.0000 0.0000 38.9688 0.0000 0.0000
# 5 0.0000 0.0000 0.0000 0.0000 46.7394 0.0000
# 6 0.0000 0.0000 0.0000 0.0000 0.0000 37.1186
#
#
#
# Elastic Compliance Matrix: (Units=1/GPa)
#
#
# Indices 1 2 3 4 5 6 
#
# 1 0.011850 -0.004694 -0.002717 0.000000 0.000000 0.000000
# 2 -0.004694 0.009517 -0.003974 0.000000 0.000000 0.000000
# 3 -0.002717 -0.003974 0.017476 0.000000 0.000000 0.000000
# 4 0.000000 0.000000 0.000000 0.025662 0.000000 0.000000
# 5 0.000000 0.000000 0.000000 0.000000 0.021395 0.000000
# 6 0.000000 0.000000 0.000000 0.000000 0.000000 0.026941
#
#
# Mechanical properties :
#
#
# Convention : Reuss Voigt Hill
#
# Bulk Modulus (GPa) = 62.21481 75.64113 68.92797
# Shear Modulus (GPa) = 35.46953 37.81110 36.64031
#
# Velocity S-wave (km/s) = 4.20698 4.34362 4.27584
# Velocity P-wave (km/s) = 7.39204 7.93093 7.66622
#
# Compressibility (1/GPa) = 0.01607334
#
# Stress axis : x y z
#
# Youngs Moduli (GPa) = 84.39049 105.07682 57.22275
#
# Poissons Ratio (x) = 0.49324 0.15546
# Poissons Ratio (y) = 0.39614 0.22738
# Poissons Ratio (z) = 0.22926 0.41753
#
# Static dielectric constant tensor:
#      x y z
#    x 4.890700 0.000000 0.000000 
#    y 0.000000 3.962660 0.000000 
#    z 0.000000 0.000000 3.557420 
# 
# 
# High freq. dielectric constant tensor:
#      x y z
#    x 1.797860 0.000000 0.000000 
#    y 0.000000 1.797460 0.000000 
#    z 0.000000 0.000000 1.779310 
# 
# From -- ./inp_files/45276.got.cif
#   From: 2010.03.12/outbox.cif.g09.slc.cpg/sg67_23_cif.got.tgz:45276.got - 2010.04.10 22:41:39.
