data_PCOD8281576
_publ_section_title
;
Structure prediction by ZEFSAII (Michael W. Deem and Ramdas Pophale) SiO2 
 PCOD8281576
Probable space group: C M M A
;
_chemical_formula_sum "Si O2"
_cell_formula_units_Z 128
_cell_length_a 20.542269
_cell_length_b 18.369390
_cell_length_c 20.996274
_cell_angle_alpha 90.000000
_cell_angle_beta 90.000000
_cell_angle_gamma 90.000000
_cell_volume 7922.921963
_symmetry_space_group_name_H-M "C M M A"
_symmetry_group_IT_number 67
_symmetry_cell_setting 'orthorhombic'
loop_
_space_group_symop_operation_xyz
x,y,z
-x,1/2-y,z
x,-y,-z
-x,1/2+y,-z
-x,-y,-z
x,1/2+y,-z
-x,y,z
x,1/2-y,z
1/2+x,1/2+y,z
1/2-x,-y,z
1/2+x,1/2-y,-z
1/2-x,y,-z
1/2-x,1/2-y,-z
1/2+x,y,-z
1/2-x,1/2+y,z
1/2+x,-y,z
loop_
_atom_site_type_symbol
_atom_site_label
_atom_site_fract_x
_atom_site_fract_y
_atom_site_fract_z
Si Si1 0.172313 0.081806 0.995849
Si Si2 0.179103 0.477417 0.669765
Si Si3 0.157914 0.614192 0.748942
Si Si4 0.815733 0.669322 0.122123
Si Si5 0.075238 0.829603 0.634220
Si Si6 0.661183 0.832755 0.117084
Si Si7 0.199341 0.832535 0.262970
Si Si8 0.424528 0.474187 0.570231
O O1 0.150703 0.113952 0.927262
O O2 0.250000 0.084857 0.000000
O O3 0.138218 0.127542 0.052395
O O4 0.146123 0.000000 0.000000
O O5 0.250000 0.500000 0.640827
O O6 0.168491 0.528915 0.731820
O O7 0.174025 0.392591 0.687756
O O8 0.122369 0.484301 0.618415
O O9 0.107094 0.647841 0.700299
O O10 0.132961 0.623213 0.821606
O O11 0.223286 0.660942 0.742780
O O12 0.839228 0.750000 0.103232
O O13 0.738475 0.665086 0.117635
O O14 0.835249 0.651687 0.194941
O O15 0.100406 0.750000 0.611531
O O16 0.089350 0.887643 0.577905
O O17 0.000000 0.826797 0.650125
O O18 0.634904 0.750000 0.117974
O O19 0.183007 0.750000 0.286043
O O20 0.406003 0.500000 0.500000
O O21 0.500000 0.492559 0.585986
#
# Coordination Sequence:
#
# PCOD8281576 Si02
#       8
#    16  16  16  16  16  16  16  16
#     4   9  16  21  28  44  69 101 137 175 207 243
#     4   9  18  29  45  68  89 114 146 182 216 254
#     4   9  16  26  41  60  85 112 141 174 216 263
#     4   8  14  23  33  45  68 104 140 170 207 252
#     4   9  16  27  45  67  88 109 137 172 210 256
#     4   9  15  22  33  48  70 102 136 169 208 255
#     4   9  16  26  41  59  84 115 145 178 216 257
#     4   9  18  33  50  67  91 121 147 173 210 256
#
# _framework density 16.155656
#
# number of rings (size 3 to 8) (size 9 to 14) (size 15 to 20)
#    0.000    3.125    0.000    2.250    1.750    1.750 
#    0.000    0.625    0.000    1.125    0.000    5.250 
#    0.000    1.500    0.000    3.250    0.000    1.500 
#
# Total GULP energy -793072.933384 kJ/mol
# GULP energy per Si atom -12391.764584 kJ/mol
# Density = 1.611888 g / cm^3
# Si number density = 16.155656 Si / 1000 Ang^3
#
#
#
# Elastic Constant Matrix: (Units=GPa)
#
#
# Indices 1 2 3 4 5 6 
#
# 1 25.5953 28.6297 29.9123 0.0000 0.0000 0.0000
# 2 28.6297 132.8154 66.2050 0.0000 0.0000 0.0000
# 3 29.9123 66.2050 104.0839 0.0000 0.0000 0.0000
# 4 0.0000 0.0000 0.0000 24.1290 0.0000 0.0000
# 5 0.0000 0.0000 0.0000 0.0000 8.2710 0.0000
# 6 0.0000 0.0000 0.0000 0.0000 0.0000 12.2925
#
#
#
# Elastic Compliance Matrix: (Units=1/GPa)
#
#
# Indices 1 2 3 4 5 6 
#
# 1 0.062570 -0.006625 -0.013768 0.000000 0.000000 0.000000
# 2 -0.006625 0.011726 -0.005555 0.000000 0.000000 0.000000
# 3 -0.013768 -0.005555 0.017098 0.000000 0.000000 0.000000
# 4 0.000000 0.000000 0.000000 0.041444 0.000000 0.000000
# 5 0.000000 0.000000 0.000000 0.000000 0.120904 0.000000
# 6 0.000000 0.000000 0.000000 0.000000 0.000000 0.081350
#
#
# Mechanical properties :
#
#
# Convention : Reuss Voigt Hill
#
# Bulk Modulus (GPa) = 25.31726 56.88762 41.10244
# Shear Modulus (GPa) = 12.49521 18.12168 15.30845
#
# Velocity S-wave (km/s) = 2.78407 3.35280 3.08158
# Velocity P-wave (km/s) = 5.10290 7.09063 6.17724
#
# Compressibility (1/GPa) = 0.03949874
#
# Stress axis : x y z
#
# Youngs Moduli (GPa) = 15.98215 85.27891 58.48731
#
# Poissons Ratio (x) = 0.56494 0.80525
# Poissons Ratio (y) = 0.10587 0.32489
# Poissons Ratio (z) = 0.22004 0.47372
#
# Static dielectric constant tensor:
#      x y z
#    x 2.595140 0.000000 0.000000 
#    y 0.000000 3.302890 0.000000 
#    z 0.000000 0.000000 3.097460 
# 
# 
# High freq. dielectric constant tensor:
#      x y z
#    x 1.560060 0.000000 0.000000 
#    y 0.000000 1.633580 0.000000 
#    z 0.000000 0.000000 1.614830 
# 
# From -- ./inp_files/39428.got.cif
#   From: 2010.03.12/outbox.cif.g09.slc.cpg/sg67_20_cif.got.tgz:39428.got - 2010.04.10 22:41:39.
