data_PCOD8281337
_publ_section_title
;
Structure prediction by ZEFSAII (Michael W. Deem and Ramdas Pophale) SiO2 
 PCOD8281337
Probable space group: C M M A
;
_chemical_formula_sum "Si O2"
_cell_formula_units_Z 96
_cell_length_a 9.890827
_cell_length_b 22.931773
_cell_length_c 23.381925
_cell_angle_alpha 90.000000
_cell_angle_beta 90.000000
_cell_angle_gamma 90.000000
_cell_volume 5303.352603
_symmetry_space_group_name_H-M "C M M A"
_symmetry_group_IT_number 67
_symmetry_cell_setting 'orthorhombic'
loop_
_space_group_symop_operation_xyz
x,y,z
-x,1/2-y,z
x,-y,-z
-x,1/2+y,-z
-x,-y,-z
x,1/2+y,-z
-x,y,z
x,1/2-y,z
1/2+x,1/2+y,z
1/2-x,-y,z
1/2+x,1/2-y,-z
1/2-x,y,-z
1/2-x,1/2-y,-z
1/2+x,y,-z
1/2-x,1/2+y,z
1/2+x,-y,z
loop_
_atom_site_type_symbol
_atom_site_label
_atom_site_fract_x
_atom_site_fract_y
_atom_site_fract_z
Si Si1 0.344240 0.682413 0.447600
Si Si2 0.656953 0.445658 0.768510
Si Si3 0.731963 0.122802 0.878360
Si Si4 0.656959 0.750000 0.137894
Si Si5 0.000000 0.936946 0.079679
Si Si6 0.654936 0.750000 0.271966
Si Si7 0.000000 0.566956 0.943973
Si Si8 0.840559 0.363152 0.327946
O O1 0.500000 0.672980 0.465390
O O2 0.320381 0.750000 0.429858
O O3 0.250000 0.663972 0.500000
O O4 0.303540 0.639354 0.395235
O O5 0.500000 0.464823 0.767096
O O6 0.750000 0.500000 0.784782
O O7 0.676644 0.395287 0.815883
O O8 0.706372 0.421081 0.706265
O O9 0.735480 0.192861 0.884409
O O10 0.875469 0.094606 0.890646
O O11 0.633705 0.100945 0.927602
O O12 0.500000 0.750000 0.117885
O O13 0.667022 0.750000 0.205127
O O14 0.000000 0.006121 0.091772
O O15 0.000000 0.935189 0.011724
O O16 0.500000 0.750000 0.292814
O O17 0.727687 0.692841 0.297647
O O18 0.000000 0.359319 0.319526
#
# Coordination Sequence:
#
# PCOD8281337 Si02
#       8
#    16  16  16   8   8   8   8  16
#     4   9  16  27  47  75 108 142 178 223 270 323
#     4  11  22  36  57  84 112 143 187 239 289 337
#     4  12  23  39  63  89 115 152 192 237 288 346
#     4  11  20  37  60  86 118 155 193 230 281 353
#     4  11  26  41  63  87 121 148 190 245 286 340
#     4   9  14  26  48  77 106 136 179 224 261 317
#     4  11  22  45  65  87 111 154 196 235 288 336
#     4   9  16  29  51  79 106 139 184 225 269 326
#
# _framework density 18.101756999999999
#
# number of rings (size 3 to 8) (size 9 to 14) (size 15 to 20)
#    0.000    1.667    4.167    2.000    1.167    1.667 
#    0.000    3.333    0.000    0.500    0.000    3.500 
#    0.000    0.000    0.000    0.000    0.000    0.000 
#
# Total GULP energy -594979.867512 kJ/mol
# GULP energy per Si atom -12395.413906 kJ/mol
# Density = 1.806056 g / cm^3
# Si number density = 18.101757 Si / 1000 Ang^3
#
#
#
# Elastic Constant Matrix: (Units=GPa)
#
#
# Indices 1 2 3 4 5 6 
#
# 1 77.8357 29.8266 22.2126 0.0000 0.0000 0.0000
# 2 29.8266 109.8245 23.8305 0.0000 0.0000 0.0000
# 3 22.2126 23.8305 61.6609 0.0000 0.0000 0.0000
# 4 0.0000 0.0000 0.0000 28.2088 0.0000 0.0000
# 5 0.0000 0.0000 0.0000 0.0000 27.4446 0.0000
# 6 0.0000 0.0000 0.0000 0.0000 0.0000 16.6925
#
#
#
# Elastic Compliance Matrix: (Units=1/GPa)
#
#
# Indices 1 2 3 4 5 6 
#
# 1 0.015302 -0.003231 -0.004264 0.000000 0.000000 0.000000
# 2 -0.003231 0.010621 -0.002941 0.000000 0.000000 0.000000
# 3 -0.004264 -0.002941 0.018890 0.000000 0.000000 0.000000
# 4 0.000000 0.000000 0.000000 0.035450 0.000000 0.000000
# 5 0.000000 0.000000 0.000000 0.000000 0.036437 0.000000
# 6 0.000000 0.000000 0.000000 0.000000 0.000000 0.059907
#
#
# Mechanical properties :
#
#
# Convention : Reuss Voigt Hill
#
# Bulk Modulus (GPa) = 41.76646 44.56227 43.16436
# Shear Modulus (GPa) = 24.33563 26.03259 25.18411
#
# Velocity S-wave (km/s) = 3.67056 3.79638 3.73400
# Velocity P-wave (km/s) = 6.40993 6.62478 6.51824
#
# Compressibility (1/GPa) = 0.02394266
#
# Stress axis : x y z
#
# Youngs Moduli (GPa) = 65.34927 94.15321 52.93702
#
# Poissons Ratio (x) = 0.30418 0.22572
# Poissons Ratio (y) = 0.21112 0.15569
# Poissons Ratio (z) = 0.27864 0.27690
#
# Static dielectric constant tensor:
#      x y z
#    x 2.997230 0.000000 0.000000 
#    y 0.000000 3.470680 0.000000 
#    z 0.000000 0.000000 3.396270 
# 
# 
# High freq. dielectric constant tensor:
#      x y z
#    x 1.672800 0.000000 0.000000 
#    y 0.000000 1.693350 0.000000 
#    z 0.000000 0.000000 1.704420 
# 
# From -- ./inp_files/40865.got.cif
#   From: 2010.03.12/outbox.cif.g09.slc.cpg/sg67_21_cif.got.tgz:40865.got - 2010.04.10 22:41:39.
