data_PCOD8281151
_publ_section_title
;
Structure prediction by ZEFSAII (Michael W. Deem and Ramdas Pophale) SiO2 
 PCOD8281151
Probable space group: C M M A
;
_chemical_formula_sum "Si O2"
_cell_formula_units_Z 64
_cell_length_a 16.586711
_cell_length_b 14.259893
_cell_length_c 12.159071
_cell_angle_alpha 90.000000
_cell_angle_beta 90.000000
_cell_angle_gamma 90.000000
_cell_volume 2875.920913
_symmetry_space_group_name_H-M "C M M A"
_symmetry_group_IT_number 67
_symmetry_cell_setting 'orthorhombic'
loop_
_space_group_symop_operation_xyz
x,y,z
-x,1/2-y,z
x,-y,-z
-x,1/2+y,-z
-x,-y,-z
x,1/2+y,-z
-x,y,z
x,1/2-y,z
1/2+x,1/2+y,z
1/2-x,-y,z
1/2+x,1/2-y,-z
1/2-x,y,-z
1/2-x,1/2-y,-z
1/2+x,y,-z
1/2-x,1/2+y,z
1/2+x,-y,z
loop_
_atom_site_type_symbol
_atom_site_label
_atom_site_fract_x
_atom_site_fract_y
_atom_site_fract_z
Si Si1 0.000000 0.417277 0.233939
Si Si2 0.368037 0.000000 0.500000
Si Si3 0.500000 0.356255 0.520572
Si Si4 0.131221 0.750000 0.056203
Si Si5 0.213074 0.250000 0.178842
Si Si6 0.674648 0.448344 0.731975
Si Si7 0.500000 0.887580 0.997396
O O1 0.000000 0.357710 0.345859
O O2 0.916369 0.479107 0.229866
O O3 0.000000 0.352404 0.124986
O O4 0.422678 0.909300 0.528232
O O5 0.313687 0.974141 0.395831
O O6 0.500000 0.250000 0.478437
O O7 0.190058 0.750000 0.161751
O O8 0.078127 0.655048 0.062590
O O9 0.177564 0.750000 0.942033
O O10 0.183393 0.162125 0.249476
O O11 0.750000 0.500000 0.794726
O O12 0.500000 0.000000 0.000000
#
# Coordination Sequence:
#
# PCOD8281151 Si02
#       7
#     8   8   8   8   8  16   8
#     4  10  22  38  70  97 127 186 234 262 368 415
#     4   9  21  38  62 103 129 180 241 287 342 435
#     4   9  19  36  68  98 139 176 230 297 342 409
#     4  10  24  42  64 104 134 168 250 271 343 435
#     4  11  24  42  67  98 136 186 219 300 344 406
#     4  11  24  43  68  97 139 176 240 289 346 423
#     4  11  23  39  67  98 136 181 219 293 349 422
#
# _framework density 22.253741999999999
#
# number of rings (size 3 to 8) (size 9 to 14) (size 15 to 20)
#    0.000    1.750    2.500    1.125   12.250    0.000 
#    2.250    3.750    0.000    0.000    0.000    0.000 
#    0.000    0.000    0.000    0.000    0.000    0.000 
#
# Total GULP energy -396440.399509 kJ/mol
# GULP energy per Si atom -12388.762485 kJ/mol
# Density = 2.220309 g / cm^3
# Si number density = 22.253742 Si / 1000 Ang^3
#
#
#
# Elastic Constant Matrix: (Units=GPa)
#
#
# Indices 1 2 3 4 5 6 
#
# 1 195.7436 56.8868 20.1861 0.0000 0.0000 0.0000
# 2 56.8868 161.3119 15.5433 0.0000 0.0000 0.0000
# 3 20.1861 15.5433 69.6080 0.0000 0.0000 0.0000
# 4 0.0000 0.0000 0.0000 30.1075 0.0000 0.0000
# 5 0.0000 0.0000 0.0000 0.0000 26.6650 0.0000
# 6 0.0000 0.0000 0.0000 0.0000 0.0000 26.6510
#
#
#
# Elastic Compliance Matrix: (Units=1/GPa)
#
#
# Indices 1 2 3 4 5 6 
#
# 1 0.005797 -0.001924 -0.001252 0.000000 0.000000 0.000000
# 2 -0.001924 0.006974 -0.000999 0.000000 0.000000 0.000000
# 3 -0.001252 -0.000999 0.014952 0.000000 0.000000 0.000000
# 4 0.000000 0.000000 0.000000 0.033214 0.000000 0.000000
# 5 0.000000 0.000000 0.000000 0.000000 0.037502 0.000000
# 6 0.000000 0.000000 0.000000 0.000000 0.000000 0.037522
#
#
# Mechanical properties :
#
#
# Convention : Reuss Voigt Hill
#
# Bulk Modulus (GPa) = 51.61607 67.98844 59.80225
# Shear Modulus (GPa) = 33.16334 38.95449 36.05892
#
# Velocity S-wave (km/s) = 3.86455 4.18840 4.02973
# Velocity P-wave (km/s) = 6.56945 7.34902 6.97014
#
# Compressibility (1/GPa) = 0.01937381
#
# Stress axis : x y z
#
# Youngs Moduli (GPa) = 172.50768 143.39274 66.87948
#
# Poissons Ratio (x) = 0.27584 0.08370
# Poissons Ratio (y) = 0.33185 0.06684
# Poissons Ratio (z) = 0.21590 0.14331
#
# Static dielectric constant tensor:
#      x y z
#    x 4.579450 0.000000 0.000000 
#    y 0.000000 3.698620 0.000000 
#    z 0.000000 0.000000 3.869130 
# 
# 
# High freq. dielectric constant tensor:
#      x y z
#    x 1.906300 0.000000 0.000000 
#    y 0.000000 1.851630 0.000000 
#    z 0.000000 0.000000 1.851330 
# 
# From -- ./inp_files/19047.got.cif
#   From: 2010.03.12/outbox.cif.g09.slc.cpg/sg67_10_cif.got.tgz:19047.got - 2010.04.10 22:41:39.
