data_PCOD8281482
_publ_section_title
;
Structure prediction by ZEFSAII (Michael W. Deem and Ramdas Pophale) SiO2 
 PCOD8281482
Probable space group: C M M A
;
_chemical_formula_sum "Si O2"
_cell_formula_units_Z 96
_cell_length_a 18.248484
_cell_length_b 18.712062
_cell_length_c 14.494937
_cell_angle_alpha 90.000000
_cell_angle_beta 90.000000
_cell_angle_gamma 90.000000
_cell_volume 4949.539232
_symmetry_space_group_name_H-M "C M M A"
_symmetry_group_IT_number 67
_symmetry_cell_setting 'orthorhombic'
loop_
_space_group_symop_operation_xyz
x,y,z
-x,1/2-y,z
x,-y,-z
-x,1/2+y,-z
-x,-y,-z
x,1/2+y,-z
-x,y,z
x,1/2-y,z
1/2+x,1/2+y,z
1/2-x,-y,z
1/2+x,1/2-y,-z
1/2-x,y,-z
1/2-x,1/2-y,-z
1/2+x,y,-z
1/2-x,1/2+y,z
1/2+x,-y,z
loop_
_atom_site_type_symbol
_atom_site_label
_atom_site_fract_x
_atom_site_fract_y
_atom_site_fract_z
Si Si1 0.680403 0.094069 0.756383
Si Si2 0.414613 0.071560 0.443808
Si Si3 0.418705 0.334053 0.903304
Si Si4 0.652940 0.565841 0.752749
Si Si5 0.585801 0.828889 0.894667
Si Si6 0.322200 0.833584 0.440683
O O1 0.640299 0.145877 0.826778
O O2 0.765463 0.088296 0.780421
O O3 0.675892 0.123475 0.653741
O O4 0.640206 0.018123 0.767949
O O5 0.500000 0.072577 0.418032
O O6 0.365610 0.080295 0.353211
O O7 0.394235 0.140621 0.504589
O O8 0.393493 0.000000 0.500000
O O9 0.500000 0.367219 0.883005
O O10 0.426578 0.250000 0.902765
O O11 0.388084 0.357159 0.004480
O O12 0.601470 0.612601 0.817451
O O13 0.500000 0.818801 0.901382
O O14 0.620117 0.750000 0.870907
O O15 0.327746 0.750000 0.420132
O O16 0.250000 0.852553 0.500000
#
# Coordination Sequence:
#
# PCOD8281482 Si02
#       6
#    16  16  16  16  16  16
#     4  11  23  38  61  89 120 159 200 247 302 361
#     4  11  23  40  63  88 119 160 202 246 298 357
#     4   9  20  40  63  87 120 161 202 249 304 359
#     4  11  23  38  61  89 120 159 200 247 302 361
#     4   9  20  40  63  87 120 161 202 249 304 359
#     4  11  23  40  63  88 119 160 202 246 298 357
#
# _framework density 19.395744000000001
#
# number of rings (size 3 to 8) (size 9 to 14) (size 15 to 20)
#    0.000    1.667    3.333    2.000    0.000    6.000 
#    0.000    5.000    0.000    0.000    0.000    0.000 
#    0.000    0.000    0.000    0.000    0.000    0.000 
#
# Total GULP energy -595065.004467 kJ/mol
# GULP energy per Si atom -12397.187593 kJ/mol
# Density = 1.935160 g / cm^3
# Si number density = 19.395744 Si / 1000 Ang^3
#
#
#
# Elastic Constant Matrix: (Units=GPa)
#
#
# Indices 1 2 3 4 5 6 
#
# 1 50.0690 42.9586 39.6155 0.0000 0.0000 0.0000
# 2 42.9586 64.4736 44.7317 0.0000 0.0000 0.0000
# 3 39.6155 44.7317 123.4220 0.0000 0.0000 0.0000
# 4 0.0000 0.0000 0.0000 27.7934 0.0000 0.0000
# 5 0.0000 0.0000 0.0000 0.0000 22.7916 0.0000
# 6 0.0000 0.0000 0.0000 0.0000 0.0000 28.6482
#
#
#
# Elastic Compliance Matrix: (Units=1/GPa)
#
#
# Indices 1 2 3 4 5 6 
#
# 1 0.049010 -0.029044 -0.005205 0.000000 0.000000 0.000000
# 2 -0.029044 0.037933 -0.004425 0.000000 0.000000 0.000000
# 3 -0.005205 -0.004425 0.011377 0.000000 0.000000 0.000000
# 4 0.000000 0.000000 0.000000 0.035980 0.000000 0.000000
# 5 0.000000 0.000000 0.000000 0.000000 0.043876 0.000000
# 6 0.000000 0.000000 0.000000 0.000000 0.000000 0.034906
#
#
# Mechanical properties :
#
#
# Convention : Reuss Voigt Hill
#
# Bulk Modulus (GPa) = 47.68505 54.73070 51.20788
# Shear Modulus (GPa) = 16.81124 23.22390 20.01757
#
# Velocity S-wave (km/s) = 2.94725 3.46406 3.21605
# Velocity P-wave (km/s) = 6.01834 6.65423 6.34426
#
# Compressibility (1/GPa) = 0.02097093
#
# Stress axis : x y z
#
# Youngs Moduli (GPa) = 20.40399 26.36248 87.89903
#
# Poissons Ratio (x) = 0.76568 0.45747
# Poissons Ratio (y) = 0.59262 0.38899
# Poissons Ratio (z) = 0.10619 0.11666
#
# Static dielectric constant tensor:
#      x y z
#    x 3.506560 0.000000 0.000000 
#    y 0.000000 3.567330 0.000000 
#    z 0.000000 0.000000 3.745830 
# 
# 
# High freq. dielectric constant tensor:
#      x y z
#    x 1.749720 0.000000 0.000000 
#    y 0.000000 1.756300 0.000000 
#    z 0.000000 0.000000 1.764900 
# 
# From -- ./inp_files/29320.got.cif
#   From: 2010.03.12/outbox.cif.g09.slc.cpg/sg67_15_cif.got.tgz:29320.got - 2010.04.10 22:41:39.
