data_PCOD8281783
_publ_section_title
;
Structure prediction by ZEFSAII (Michael W. Deem and Ramdas Pophale) SiO2 
 PCOD8281783
Probable space group: C C C A
;
_chemical_formula_sum "Si O2"
_cell_formula_units_Z 116
_cell_length_a 30.165482
_cell_length_b 13.704977
_cell_length_c 14.858456
_cell_angle_alpha 90.000000
_cell_angle_beta 90.000000
_cell_angle_gamma 90.000000
_cell_volume 6142.741826
_symmetry_space_group_name_H-M "C C C A"
_symmetry_group_IT_number 68
_space_group.IT_coordinate_system_code '2'
_symmetry_cell_setting 'orthorhombic'
loop_
_space_group_symop_operation_xyz
x,y,z
-x,1/2-y,z
x,1/2-y,1/2-z
-x,y,1/2-z
-x,-y,-z
x,1/2+y,-z
-x,1/2+y,1/2+z
x,-y,1/2+z
1/2+x,1/2+y,z
1/2-x,-y,z
1/2+x,-y,1/2-z
1/2-x,1/2+y,1/2-z
1/2-x,1/2-y,-z
1/2+x,y,-z
1/2-x,y,1/2+z
1/2+x,1/2-y,1/2+z
loop_
_atom_site_type_symbol
_atom_site_label
_atom_site_fract_x
_atom_site_fract_y
_atom_site_fract_z
Si Si1 0.827153 0.760893 0.646473
Si Si2 0.500000 0.750000 0.250000
Si Si3 0.562742 0.937112 0.990502
Si Si4 0.200683 0.033047 0.309851
Si Si5 0.140322 0.441753 0.555642
Si Si6 0.795434 0.942366 0.893826
Si Si7 0.598996 0.258793 0.503237
Si Si8 0.474424 0.618267 0.409069
O O1 0.840507 0.750000 0.750000
O O2 0.802542 0.864062 0.638012
O O3 0.793082 0.676837 0.609821
O O4 0.873747 0.762472 0.594416
O O5 0.472559 0.674257 0.313080
O O6 0.546883 0.008402 0.908979
O O7 0.587813 0.841844 0.951063
O O8 0.523887 0.894750 0.053768
O O9 0.595616 0.995158 0.056464
O O10 0.187645 0.029181 0.205205
O O11 0.250000 0.000000 0.326368
O O12 0.167384 0.957018 0.354085
O O13 0.168166 0.473179 0.466885
O O14 0.129410 0.326790 0.559070
O O15 0.750000 0.000000 0.916900
O O16 0.553444 0.315314 0.523220
#
# Coordination Sequence:
#
# PCOD8281783 Si02
#       8
#    16   4  16  16  16  16  16  16
#     4   9  18  31  53  81 107 145 184 246 298 334
#     4  12  20  36  56 100 110 138 208 260 284 340
#     4  10  19  38  52  81 119 154 178 233 304 351
#     4  10  19  35  55  80 111 147 193 243 293 355
#     4  10  20  34  55  85 108 151 193 232 292 355
#     4   9  19  36  54  79 112 145 193 245 293 347
#     4  10  18  34  55  81 111 146 189 231 288 361
#     4  10  22  33  58  88 115 146 192 244 294 347
#
# _framework density 18.884074999999999
#
# number of rings (size 3 to 8) (size 9 to 14) (size 15 to 20)
#    0.000    2.207    2.759    0.414    0.966    0.000 
#    7.448    2.069    0.000    0.000    3.586    0.000 
#    0.000    0.000    0.000    0.000    0.000    0.000 
#
# Total GULP energy -718575.366052 kJ/mol
# GULP energy per Si atom -12389.230449 kJ/mol
# Density = 1.884109 g / cm^3
# Si number density = 18.884075 Si / 1000 Ang^3
#
#
#
# Elastic Constant Matrix: (Units=GPa)
#
#
# Indices 1 2 3 4 5 6 
#
# 1 77.3205 43.8520 28.6291 0.0000 0.0000 0.0000
# 2 43.8520 145.0702 43.8822 0.0000 0.0000 0.0000
# 3 28.6291 43.8822 57.5718 0.0000 0.0000 0.0000
# 4 0.0000 0.0000 0.0000 29.2061 0.0000 0.0000
# 5 0.0000 0.0000 0.0000 0.0000 17.9406 0.0000
# 6 0.0000 0.0000 0.0000 0.0000 0.0000 37.6966
#
#
#
# Elastic Compliance Matrix: (Units=1/GPa)
#
#
# Indices 1 2 3 4 5 6 
#
# 1 0.017025 -0.003360 -0.005905 0.000000 0.000000 0.000000
# 2 -0.003360 0.009622 -0.005663 0.000000 0.000000 0.000000
# 3 -0.005905 -0.005663 0.024623 0.000000 0.000000 0.000000
# 4 0.000000 0.000000 0.000000 0.034239 0.000000 0.000000
# 5 0.000000 0.000000 0.000000 0.000000 0.055739 0.000000
# 6 0.000000 0.000000 0.000000 0.000000 0.000000 0.026528
#
#
# Mechanical properties :
#
#
# Convention : Reuss Voigt Hill
#
# Bulk Modulus (GPa) = 46.70031 56.96545 51.83288
# Shear Modulus (GPa) = 24.41752 27.87526 26.14639
#
# Velocity S-wave (km/s) = 3.59976 3.84621 3.72502
# Velocity P-wave (km/s) = 6.48548 7.06794 6.78296
#
# Compressibility (1/GPa) = 0.02141313
#
# Stress axis : x y z
#
# Youngs Moduli (GPa) = 58.73586 103.92885 40.61309
#
# Poissons Ratio (x) = 0.34922 0.23982
# Poissons Ratio (y) = 0.19736 0.23000
# Poissons Ratio (z) = 0.34684 0.58856
#
# Static dielectric constant tensor:
#      x y z
#    x 3.499440 0.000000 0.000000 
#    y 0.000000 3.921600 0.000000 
#    z 0.000000 0.000000 3.196250 
# 
# 
# High freq. dielectric constant tensor:
#      x y z
#    x 1.736980 0.000000 0.000000 
#    y 0.000000 1.752990 0.000000 
#    z 0.000000 0.000000 1.695550 
# 
# From -- ./inp_files/34205.got.cif
#   From: 2010.03.12/outbox.cif.g09.slc.cpg/sg68_18_cif.got.tgz:34205.got - 2010.04.10 23:14:56.
