data_PCOD8281851
_publ_section_title
;
Structure prediction by ZEFSAII (Michael W. Deem and Ramdas Pophale) SiO2 
 PCOD8281851
Probable space group: C C C A
;
_chemical_formula_sum "Si O2"
_cell_formula_units_Z 64
_cell_length_a 5.180454
_cell_length_b 14.500986
_cell_length_c 35.413162
_cell_angle_alpha 90.000000
_cell_angle_beta 90.000000
_cell_angle_gamma 90.000000
_cell_volume 2660.296611
_symmetry_space_group_name_H-M "C C C A"
_symmetry_group_IT_number 68
_space_group.IT_coordinate_system_code '2'
_symmetry_cell_setting 'orthorhombic'
loop_
_space_group_symop_operation_xyz
x,y,z
-x,1/2-y,z
x,1/2-y,1/2-z
-x,y,1/2-z
-x,-y,-z
x,1/2+y,-z
-x,1/2+y,1/2+z
x,-y,1/2+z
1/2+x,1/2+y,z
1/2-x,-y,z
1/2+x,-y,1/2-z
1/2-x,1/2+y,1/2-z
1/2-x,1/2-y,-z
1/2+x,y,-z
1/2-x,y,1/2+z
1/2+x,1/2-y,1/2+z
loop_
_atom_site_type_symbol
_atom_site_label
_atom_site_fract_x
_atom_site_fract_y
_atom_site_fract_z
Si Si1 0.751308 0.109767 0.856848
Si Si2 0.584400 0.851999 0.016196
Si Si3 0.248446 0.889936 0.228164
Si Si4 0.255229 0.890502 0.400784
O O1 0.766994 0.148772 0.814402
O O2 0.484365 0.145603 0.874192
O O3 0.988865 0.146190 0.882500
O O4 0.750000 0.000000 0.855963
O O5 0.500000 0.750000 0.001488
O O6 0.693560 0.848204 0.058325
O O7 0.305139 0.902055 0.010124
O O8 0.500000 0.852287 0.250000
O O9 0.000000 0.851686 0.250000
O O10 0.250000 0.000000 0.227682
O O11 0.250000 0.000000 0.404435
#
# Coordination Sequence:
#
# PCOD8281851 Si02
#       4
#    16  16  16  16
#     4   9  17  28  42  65  96 126 157 193 233 276
#     4  10  21  36  52  70  93 121 154 195 239 283
#     4   9  15  23  37  58  88 126 159 185 221 272
#     4  10  19  31  48  69  95 125 155 193 238 283
#
# _framework density 24.057469000000001
#
# number of rings (size 3 to 8) (size 9 to 14) (size 15 to 20)
#    0.000    2.500    0.000    3.000    0.000    7.000 
#    0.000    0.000    0.000    0.000    0.000    0.000 
#    0.000   15.000    0.000    0.000    0.000    0.000 
#
# Total GULP energy -396616.408123 kJ/mol
# GULP energy per Si atom -12394.262754 kJ/mol
# Density = 2.400271 g / cm^3
# Si number density = 24.057469 Si / 1000 Ang^3
#
#
#
# Elastic Constant Matrix: (Units=GPa)
#
#
# Indices 1 2 3 4 5 6 
#
# 1 256.4897 4.4464 105.3501 0.0000 0.0000 0.0000
# 2 4.4464 13.6328 5.7563 0.0000 0.0000 0.0000
# 3 105.3501 5.7563 203.6802 0.0000 0.0000 0.0000
# 4 0.0000 0.0000 0.0000 -31.5055 0.0000 0.0000
# 5 0.0000 0.0000 0.0000 0.0000 57.1026 0.0000
# 6 0.0000 0.0000 0.0000 0.0000 0.0000 -2.4726
#
#
#
# Elastic Compliance Matrix: (Units=1/GPa)
#
#
# Indices 1 2 3 4 5 6 
#
# 1 0.004954 -0.000540 -0.002547 0.000000 0.000000 0.000000
# 2 -0.000540 0.074297 -0.001820 0.000000 0.000000 0.000000
# 3 -0.002547 -0.001820 0.006279 0.000000 0.000000 0.000000
# 4 0.000000 0.000000 0.000000 -0.031741 0.000000 0.000000
# 5 0.000000 0.000000 0.000000 0.000000 0.017512 0.000000
# 6 0.000000 0.000000 0.000000 0.000000 0.000000 -0.404437
#
#
# Mechanical properties :
#
#
# Convention : Reuss Voigt Hill
#
# Bulk Modulus (GPa) = 13.20748 78.32313 45.76531
# Shear Modulus (GPa) = -16.77399 28.50824 5.86713
#
# Velocity S-wave (km/s) = -2.64341 3.44613 1.56336
# Velocity P-wave (km/s) = 1.95318 6.96145 4.72477
#
# Compressibility (1/GPa) = 0.07571468
#
# Stress axis : x y z
#
# Youngs Moduli (GPa) = 201.83902 13.45941 159.26960
#
# Poissons Ratio (x) = 0.00727 0.40571
# Poissons Ratio (y) = 0.10906 0.28992
# Poissons Ratio (z) = 0.51415 0.02450
#
# Static dielectric constant tensor:
#      x y z
#    x 5.131220 0.000000 0.000000 
#    y 0.000000 3.650060 0.000000 
#    z 0.000000 0.000000 4.272020 
# 
# 
# High freq. dielectric constant tensor:
#      x y z
#    x 1.981310 0.000000 0.000000 
#    y 0.000000 1.908810 0.000000 
#    z 0.000000 0.000000 1.957080 
# 
# From -- ./inp_files/48090.got.cif
#   From: 2010.03.12/outbox.cif.g09.slc.cpg/sg68_25_cif.got.tgz:48090.got - 2010.04.10 23:14:56.
