data_PCOD8281699
_publ_section_title
;
Structure prediction by ZEFSAII (Michael W. Deem and Ramdas Pophale) SiO2 
 PCOD8281699
Probable space group: C C C A
;
_chemical_formula_sum "Si O2"
_cell_formula_units_Z 96
_cell_length_a 16.996077
_cell_length_b 20.580403
_cell_length_c 14.542423
_cell_angle_alpha 90.000000
_cell_angle_beta 90.000000
_cell_angle_gamma 90.000000
_cell_volume 5086.737630
_symmetry_space_group_name_H-M "C C C A"
_symmetry_group_IT_number 68
_space_group.IT_coordinate_system_code '2'
_symmetry_cell_setting 'orthorhombic'
loop_
_space_group_symop_operation_xyz
x,y,z
-x,1/2-y,z
x,1/2-y,1/2-z
-x,y,1/2-z
-x,-y,-z
x,1/2+y,-z
-x,1/2+y,1/2+z
x,-y,1/2+z
1/2+x,1/2+y,z
1/2-x,-y,z
1/2+x,-y,1/2-z
1/2-x,1/2+y,1/2-z
1/2-x,1/2-y,-z
1/2+x,y,-z
1/2-x,y,1/2+z
1/2+x,1/2-y,1/2+z
loop_
_atom_site_type_symbol
_atom_site_label
_atom_site_fract_x
_atom_site_fract_y
_atom_site_fract_z
Si Si1 0.406941 0.677374 0.058687
Si Si2 0.905678 0.939998 0.062772
Si Si3 0.905914 0.822077 0.940253
Si Si4 0.590994 0.060717 0.433097
Si Si5 0.340992 0.015288 0.250573
Si Si6 0.407710 0.125644 0.750352
O O1 0.500497 0.674098 0.064846
O O2 0.377669 0.749693 0.032292
O O3 0.371036 0.657936 0.158113
O O4 0.378334 0.626290 0.982309
O O5 0.998004 0.938736 0.084490
O O6 0.857789 0.944945 0.156898
O O7 0.875867 0.873418 0.015590
O O8 0.884880 0.999527 0.995616
O O9 0.870729 0.840794 0.840150
O O10 0.634823 0.059006 0.336043
O O11 0.392800 0.950718 0.249873
O O12 0.250000 0.000000 0.243910
O O13 0.500000 0.137386 0.750000
#
# Coordination Sequence:
#
# PCOD8281699 Si02
#       6
#    16  16  16  16  16  16
#     4   9  17  30  54  86 112 136 174 226 276 320
#     4  10  19  35  58  82 108 138 177 225 273 319
#     4   9  17  30  54  86 112 136 174 226 276 320
#     4  10  19  35  58  82 108 138 177 225 273 319
#     4  12  24  35  52  80 112 146 184 224 265 321
#     4  10  17  32  56  82 111 139 179 230 275 311
#
# _framework density 18.872608
#
# number of rings (size 3 to 8) (size 9 to 14) (size 15 to 20)
#    0.000    2.000    3.333    2.000    0.000    2.667 
#    0.000    0.833    0.000   10.000    0.000    0.000 
#    0.000    0.000    0.000    0.000    0.000    0.000 
#
# Total GULP energy -595203.151372 kJ/mol
# GULP energy per Si atom -12400.065654 kJ/mol
# Density = 1.882965 g / cm^3
# Si number density = 18.872608 Si / 1000 Ang^3
#
#
#
# Elastic Constant Matrix: (Units=GPa)
#
#
# Indices 1 2 3 4 5 6 
#
# 1 19.3994 1.1021 12.9989 0.0000 0.0000 0.0000
# 2 1.1021 151.9535 55.6136 0.0000 0.0000 0.0000
# 3 12.9989 55.6136 98.5136 0.0000 0.0000 0.0000
# 4 0.0000 0.0000 0.0000 32.9624 0.0000 0.0000
# 5 0.0000 0.0000 0.0000 0.0000 2.2200 0.0000
# 6 0.0000 0.0000 0.0000 0.0000 0.0000 7.3529
#
#
#
# Elastic Compliance Matrix: (Units=1/GPa)
#
#
# Indices 1 2 3 4 5 6 
#
# 1 0.057598 0.002979 -0.009282 0.000000 0.000000 0.000000
# 2 0.002979 0.008449 -0.005163 0.000000 0.000000 0.000000
# 3 -0.009282 -0.005163 0.014290 0.000000 0.000000 0.000000
# 4 0.000000 0.000000 0.000000 0.030338 0.000000 0.000000
# 5 0.000000 0.000000 0.000000 0.000000 0.450452 0.000000
# 6 0.000000 0.000000 0.000000 0.000000 0.000000 0.136002
#
#
# Mechanical properties :
#
#
# Convention : Reuss Voigt Hill
#
# Bulk Modulus (GPa) = 17.41967 45.47731 31.44849
# Shear Modulus (GPa) = 6.76411 21.85051 14.30731
#
# Velocity S-wave (km/s) = 1.89522 3.40632 2.75635
# Velocity P-wave (km/s) = 3.74691 6.29444 5.17974
#
# Compressibility (1/GPa) = 0.05740638
#
# Stress axis : x y z
#
# Youngs Moduli (GPa) = 17.36167 118.35904 69.97823
#
# Poissons Ratio (x) = -0.35263 0.64954
# Poissons Ratio (y) = -0.05173 0.36128
# Poissons Ratio (z) = 0.16115 0.61106
#
# Static dielectric constant tensor:
#      x y z
#    x 2.914910 0.000000 0.000000 
#    y 0.000000 3.698910 0.000000 
#    z 0.000000 0.000000 3.687840 
# 
# 
# High freq. dielectric constant tensor:
#      x y z
#    x 1.679870 0.000000 0.000000 
#    y 0.000000 1.735500 0.000000 
#    z 0.000000 0.000000 1.744050 
# 
# From -- ./inp_files/15598.got.cif
#   From: 2010.03.12/outbox.cif.g09.slc.cpg/sg68_8_cif.got.tgz:15598.got - 2010.04.10 23:14:56.
