data_PCOD8281603
_publ_section_title
;
Structure prediction by ZEFSAII (Michael W. Deem and Ramdas Pophale) SiO2 
 PCOD8281603
Probable space group: C M M A
;
_chemical_formula_sum "Si O2"
_cell_formula_units_Z 96
_cell_length_a 25.974023
_cell_length_b 17.243311
_cell_length_c 12.989624
_cell_angle_alpha 90.000000
_cell_angle_beta 90.000000
_cell_angle_gamma 90.000000
_cell_volume 5817.768851
_symmetry_space_group_name_H-M "C M M A"
_symmetry_group_IT_number 67
_symmetry_cell_setting 'orthorhombic'
loop_
_space_group_symop_operation_xyz
x,y,z
-x,1/2-y,z
x,-y,-z
-x,1/2+y,-z
-x,-y,-z
x,1/2+y,-z
-x,y,z
x,1/2-y,z
1/2+x,1/2+y,z
1/2-x,-y,z
1/2+x,1/2-y,-z
1/2-x,y,-z
1/2-x,1/2-y,-z
1/2+x,y,-z
1/2-x,1/2+y,z
1/2+x,-y,z
loop_
_atom_site_type_symbol
_atom_site_label
_atom_site_fract_x
_atom_site_fract_y
_atom_site_fract_z
Si Si1 0.440804 0.018628 0.713284
Si Si2 0.358759 0.981281 0.117293
Si Si3 0.866930 0.929013 0.429581
Si Si4 0.714737 0.071021 0.260866
Si Si5 0.690024 0.337646 0.790013
Si Si6 0.892793 0.837542 0.619582
O O1 0.500000 0.997761 0.730052
O O2 0.412803 0.014640 0.823194
O O3 0.435651 0.104777 0.665344
O O4 0.416525 0.956196 0.635364
O O5 0.334407 0.895189 0.125615
O O6 0.318990 0.043725 0.163432
O O7 0.370208 0.000000 0.000000
O O8 0.821289 0.902529 0.354538
O O9 0.882064 0.856043 0.499999
O O10 0.847399 0.000000 0.500000
O O11 0.749912 0.143454 0.227966
O O12 0.750000 0.000000 0.298913
O O13 0.684923 0.250000 0.831399
O O14 0.660349 0.349259 0.682021
O O15 0.913616 0.750000 0.629166
#
# Coordination Sequence:
#
# PCOD8281603 Si02
#       6
#    16  16  16  16  16  16
#     4   9  18  32  49  68  89 114 149 193 232 268
#     4   9  18  33  50  67  89 116 148 189 233 272
#     4   9  17  28  43  65  93 124 155 185 217 257
#     4   9  17  28  43  65  93 124 155 185 218 258
#     4   9  18  31  46  68  96 121 149 184 218 258
#     4   9  18  30  44  67  97 124 150 182 220 262
#
# _framework density 16.501172
#
# number of rings (size 3 to 8) (size 9 to 14) (size 15 to 20)
#    0.000    3.000    0.000    3.000    0.000    9.667 
#    0.000    3.333    0.000    1.000    0.000    0.000 
#    0.000    0.000    0.000    0.000    0.000    0.000 
#
# Total GULP energy -595157.849306 kJ/mol
# GULP energy per Si atom -12399.121861 kJ/mol
# Density = 1.646361 g / cm^3
# Si number density = 16.501172 Si / 1000 Ang^3
#
#
#
# Elastic Constant Matrix: (Units=GPa)
#
#
# Indices 1 2 3 4 5 6 
#
# 1 98.6210 28.4490 44.1402 0.0000 0.0000 0.0000
# 2 28.4490 72.6772 40.6734 0.0000 0.0000 0.0000
# 3 44.1402 40.6734 117.9331 0.0000 0.0000 0.0000
# 4 0.0000 0.0000 0.0000 17.1269 0.0000 0.0000
# 5 0.0000 0.0000 0.0000 0.0000 9.7836 0.0000
# 6 0.0000 0.0000 0.0000 0.0000 0.0000 15.2802
#
#
#
# Elastic Compliance Matrix: (Units=1/GPa)
#
#
# Indices 1 2 3 4 5 6 
#
# 1 0.012639 -0.002850 -0.003748 0.000000 0.000000 0.000000
# 2 -0.002850 0.017693 -0.005035 0.000000 0.000000 0.000000
# 3 -0.003748 -0.005035 0.011619 0.000000 0.000000 0.000000
# 4 0.000000 0.000000 0.000000 0.058388 0.000000 0.000000
# 5 0.000000 0.000000 0.000000 0.000000 0.102212 0.000000
# 6 0.000000 0.000000 0.000000 0.000000 0.000000 0.065444
#
#
# Mechanical properties :
#
#
# Convention : Reuss Voigt Hill
#
# Bulk Modulus (GPa) = 53.51955 57.30627 55.41291
# Shear Modulus (GPa) = 16.80731 20.16939 18.48835
#
# Velocity S-wave (km/s) = 3.19494 3.49993 3.35091
# Velocity P-wave (km/s) = 6.79076 7.15099 6.97320
#
# Compressibility (1/GPa) = 0.01868476
#
# Stress axis : x y z
#
# Youngs Moduli (GPa) = 79.11767 56.51898 86.06818
#
# Poissons Ratio (x) = 0.16109 0.32256
# Poissons Ratio (y) = 0.22550 0.43338
# Poissons Ratio (z) = 0.29651 0.28459
#
# Static dielectric constant tensor:
#      x y z
#    x 2.971870 0.000000 0.000000 
#    y 0.000000 3.058890 0.000000 
#    z 0.000000 0.000000 2.958880 
# 
# 
# High freq. dielectric constant tensor:
#      x y z
#    x 1.625760 0.000000 0.000000 
#    y 0.000000 1.620580 0.000000 
#    z 0.000000 0.000000 1.623760 
# 
# From -- ./inp_files/19618.got.cif
#   From: 2010.03.12/outbox.cif.g09.slc.cpg/sg67_10_cif.got.tgz:19618.got - 2010.04.10 22:41:39.
