data_PCOD8281869
_publ_section_title
;
Structure prediction by ZEFSAII (Michael W. Deem and Ramdas Pophale) SiO2 
 PCOD8281869
Probable space group: C C C A
;
_chemical_formula_sum "Si O2"
_cell_formula_units_Z 96
_cell_length_a 17.835653
_cell_length_b 15.900400
_cell_length_c 17.595239
_cell_angle_alpha 90.000000
_cell_angle_beta 90.000000
_cell_angle_gamma 90.000000
_cell_volume 4989.904507
_symmetry_space_group_name_H-M "C C C A"
_symmetry_group_IT_number 68
_space_group.IT_coordinate_system_code '2'
_symmetry_cell_setting 'orthorhombic'
loop_
_space_group_symop_operation_xyz
x,y,z
-x,1/2-y,z
x,1/2-y,1/2-z
-x,y,1/2-z
-x,-y,-z
x,1/2+y,-z
-x,1/2+y,1/2+z
x,-y,1/2+z
1/2+x,1/2+y,z
1/2-x,-y,z
1/2+x,-y,1/2-z
1/2-x,1/2+y,1/2-z
1/2-x,1/2-y,-z
1/2+x,y,-z
1/2-x,y,1/2+z
1/2+x,1/2-y,1/2+z
loop_
_atom_site_type_symbol
_atom_site_label
_atom_site_fract_x
_atom_site_fract_y
_atom_site_fract_z
Si Si1 0.116214 0.229556 0.120381
Si Si2 0.164887 0.830433 0.021316
Si Si3 0.422885 0.517454 0.037579
Si Si4 0.280366 0.756772 0.835156
Si Si5 0.710148 0.588716 0.930804
Si Si6 0.014375 0.376157 0.165316
O O1 0.196518 0.218500 0.160754
O O2 0.065454 0.144657 0.122978
O O3 0.068678 0.295929 0.169577
O O4 0.127282 0.260925 0.033684
O O5 0.166294 0.794998 0.106808
O O6 0.118282 0.916027 0.017145
O O7 0.250031 0.853296 0.995161
O O8 0.374634 0.431656 0.044095
O O9 0.438906 0.552536 0.121512
O O10 0.500000 0.500000 0.000000
O O11 0.311918 0.750000 0.750000
O O12 0.284364 0.856045 0.854554
O O13 0.750000 0.500000 0.915030
O O14 0.000000 0.409630 0.250000
#
# Coordination Sequence:
#
# PCOD8281869 Si02
#       6
#    16  16  16  16  16  16
#     4   9  17  32  57  83 110 138 186 234 288 340
#     4   9  20  37  58  80 109 150 193 238 280 346
#     4  10  22  37  56  80 109 155 195 227 288 355
#     4  11  21  35  59  87 115 152 196 239 294 348
#     4   9  19  38  58  80 116 149 190 240 286 338
#     4  10  19  32  52  86 114 138 179 244 292 331
#
# _framework density 19.238844
#
# number of rings (size 3 to 8) (size 9 to 14) (size 15 to 20)
#    0.000    2.333    0.000    5.000    4.667    0.000 
#    3.000    2.500    0.000    1.000    0.000    0.000 
#    0.000    0.000    0.000    0.000    0.000    0.000 
#
# Total GULP energy -595047.540177 kJ/mol
# GULP energy per Si atom -12396.823754 kJ/mol
# Density = 1.919506 g / cm^3
# Si number density = 19.238844 Si / 1000 Ang^3
#
#
#
# Elastic Constant Matrix: (Units=GPa)
#
#
# Indices 1 2 3 4 5 6 
#
# 1 105.1193 23.6140 35.0979 0.0000 0.0000 0.0000
# 2 23.6140 64.9917 38.7474 0.0000 0.0000 0.0000
# 3 35.0979 38.7474 139.6358 0.0000 0.0000 0.0000
# 4 0.0000 0.0000 0.0000 18.1947 0.0000 0.0000
# 5 0.0000 0.0000 0.0000 0.0000 22.9771 0.0000
# 6 0.0000 0.0000 0.0000 0.0000 0.0000 22.9759
#
#
#
# Elastic Compliance Matrix: (Units=1/GPa)
#
#
# Indices 1 2 3 4 5 6 
#
# 1 0.010782 -0.002758 -0.001945 0.000000 0.000000 0.000000
# 2 -0.002758 0.019142 -0.004619 0.000000 0.000000 0.000000
# 3 -0.001945 -0.004619 0.008932 0.000000 0.000000 0.000000
# 4 0.000000 0.000000 0.000000 0.054961 0.000000 0.000000
# 5 0.000000 0.000000 0.000000 0.000000 0.043522 0.000000
# 6 0.000000 0.000000 0.000000 0.000000 0.000000 0.043524
#
#
# Mechanical properties :
#
#
# Convention : Reuss Voigt Hill
#
# Bulk Modulus (GPa) = 49.47217 56.07395 52.77306
# Shear Modulus (GPa) = 24.24328 26.98205 25.61267
#
# Velocity S-wave (km/s) = 3.55367 3.74903 3.65266
# Velocity P-wave (km/s) = 6.52753 6.92458 6.72898
#
# Compressibility (1/GPa) = 0.02021339
#
# Stress axis : x y z
#
# Youngs Moduli (GPa) = 92.74810 52.24062 111.95845
#
# Poissons Ratio (x) = 0.14408 0.21773
# Poissons Ratio (y) = 0.25580 0.51708
# Poissons Ratio (z) = 0.18037 0.24127
#
# Static dielectric constant tensor:
#      x y z
#    x 3.372440 0.000000 0.000000 
#    y 0.000000 3.257500 0.000000 
#    z 0.000000 0.000000 2.213760 
# 
# 
# High freq. dielectric constant tensor:
#      x y z
#    x 1.751130 0.000000 0.000000 
#    y 0.000000 1.735460 0.000000 
#    z 0.000000 0.000000 1.727310 
# 
# From -- ./inp_files/32018.got.cif
#   From: 2010.03.12/outbox.cif.g09.slc.cpg/sg68_17_cif.got.tgz:32018.got - 2010.04.10 23:14:56.
