data_PCOD8281051
_publ_section_title
;
Structure prediction by ZEFSAII (Michael W. Deem and Ramdas Pophale) SiO2 
 PCOD8281051
Probable space group: C M M A
;
_chemical_formula_sum "Si O2"
_cell_formula_units_Z 56
_cell_length_a 18.732014
_cell_length_b 14.038098
_cell_length_c 9.078150
_cell_angle_alpha 90.000000
_cell_angle_beta 90.000000
_cell_angle_gamma 90.000000
_cell_volume 2387.207103
_symmetry_space_group_name_H-M "C M M A"
_symmetry_group_IT_number 67
_symmetry_cell_setting 'orthorhombic'
loop_
_space_group_symop_operation_xyz
x,y,z
-x,1/2-y,z
x,-y,-z
-x,1/2+y,-z
-x,-y,-z
x,1/2+y,-z
-x,y,z
x,1/2-y,z
1/2+x,1/2+y,z
1/2-x,-y,z
1/2+x,1/2-y,-z
1/2-x,y,-z
1/2-x,1/2-y,-z
1/2+x,y,-z
1/2-x,1/2+y,z
1/2+x,-y,z
loop_
_atom_site_type_symbol
_atom_site_label
_atom_site_fract_x
_atom_site_fract_y
_atom_site_fract_z
Si Si1 0.640584 0.860556 0.427249
Si Si2 0.250000 0.000000 0.283893
Si Si3 0.500000 0.146471 0.717920
Si Si4 0.359911 0.143726 0.230025
Si Si5 0.000000 0.891952 0.044356
O O1 0.656641 0.750000 0.386357
O O2 0.708440 0.924099 0.386025
O O3 0.572765 0.903920 0.336719
O O4 0.623182 0.873399 0.598464
O O5 0.197515 0.936719 0.180597
O O6 0.500000 0.250000 0.639473
O O7 0.500000 0.164552 0.892131
O O8 0.328624 0.250000 0.204803
O O9 0.431461 0.134163 0.138225
O O10 0.000000 0.000000 0.000000
#
# Coordination Sequence:
#
# PCOD8281051 Si02
#       5
#    16   8   8  16   8
#     4  10  21  39  65  95 126 164 210 260 315 373
#     4  12  23  38  63  96 131 166 209 260 313 376
#     4  10  21  40  63  86 117 158 206 256 305 362
#     4  11  23  41  66  95 128 166 209 260 318 377
#     4  12  25  42  64  90 123 164 213 264 315 374
#
# _framework density 23.458373999999999
#
# number of rings (size 3 to 8) (size 9 to 14) (size 15 to 20)
#    0.000    1.143    0.000    7.286    0.000    4.571 
#    0.000   10.714    0.000   10.286    0.000    0.000 
#    0.000    0.000    0.000    0.000    0.000    0.000 
#
# Total GULP energy -347142.524655 kJ/mol
# GULP energy per Si atom -12397.947309 kJ/mol
# Density = 2.340498 g / cm^3
# Si number density = 23.458374 Si / 1000 Ang^3
#
#
#
# Elastic Constant Matrix: (Units=GPa)
#
#
# Indices 1 2 3 4 5 6 
#
# 1 171.2296 68.1511 57.5514 0.0000 0.0000 0.0000
# 2 68.1511 150.0320 22.3655 0.0000 0.0000 0.0000
# 3 57.5514 22.3655 64.7794 0.0000 0.0000 0.0000
# 4 0.0000 0.0000 0.0000 28.6558 0.0000 0.0000
# 5 0.0000 0.0000 0.0000 0.0000 -24.1340 0.0000
# 6 0.0000 0.0000 0.0000 0.0000 0.0000 40.2570
#
#
#
# Elastic Compliance Matrix: (Units=1/GPa)
#
#
# Indices 1 2 3 4 5 6 
#
# 1 0.009641 -0.003271 -0.007436 0.000000 0.000000 0.000000
# 2 -0.003271 0.008137 0.000097 0.000000 0.000000 0.000000
# 3 -0.007436 0.000097 0.022010 0.000000 0.000000 0.000000
# 4 0.000000 0.000000 0.000000 0.034897 0.000000 0.000000
# 5 0.000000 0.000000 0.000000 0.000000 -0.041435 0.000000
# 6 0.000000 0.000000 0.000000 0.000000 0.000000 0.024840
#
#
# Mechanical properties :
#
#
# Convention : Reuss Voigt Hill
#
# Bulk Modulus (GPa) = 53.85842 75.79744 64.82793
# Shear Modulus (GPa) = 58.47934 24.82061 41.64998
#
# Velocity S-wave (km/s) = 4.99831 3.25633 4.21822
# Velocity P-wave (km/s) = 7.50465 6.82055 7.17076
#
# Compressibility (1/GPa) = 0.01856720
#
# Stress axis : x y z
#
# Youngs Moduli (GPa) = 103.71958 122.90077 45.43363
#
# Poissons Ratio (x) = 0.40201 0.33786
# Poissons Ratio (y) = 0.33927 -0.00440
# Poissons Ratio (z) = 0.77129 -0.01190
#
# Static dielectric constant tensor:
#      x y z
#    x 4.506560 0.000000 0.000000 
#    y 0.000000 4.749240 0.000000 
#    z 0.000000 0.000000 1.818080 
# 
# 
# High freq. dielectric constant tensor:
#      x y z
#    x 1.937450 0.000000 0.000000 
#    y 0.000000 1.953760 0.000000 
#    z 0.000000 0.000000 1.902880 
# 
# From -- ./inp_files/10580.got.cif
#   From: 2010.03.12/outbox.cif.g09.slc.cpg/sg67_6_cif.got.tgz:10580.got - 2010.04.10 22:41:39.
