data_PCOD8281188
_publ_section_title
;
Structure prediction by ZEFSAII (Michael W. Deem and Ramdas Pophale) SiO2 
 PCOD8281188
Probable space group: C M M A
;
_chemical_formula_sum "Si O2"
_cell_formula_units_Z 56
_cell_length_a 12.123834
_cell_length_b 22.460472
_cell_length_c 8.999816
_cell_angle_alpha 90.000000
_cell_angle_beta 90.000000
_cell_angle_gamma 90.000000
_cell_volume 2450.713202
_symmetry_space_group_name_H-M "C M M A"
_symmetry_group_IT_number 67
_symmetry_cell_setting 'orthorhombic'
loop_
_space_group_symop_operation_xyz
x,y,z
-x,1/2-y,z
x,-y,-z
-x,1/2+y,-z
-x,-y,-z
x,1/2+y,-z
-x,y,z
x,1/2-y,z
1/2+x,1/2+y,z
1/2-x,-y,z
1/2+x,1/2-y,-z
1/2-x,y,-z
1/2-x,1/2-y,-z
1/2+x,y,-z
1/2-x,1/2+y,z
1/2+x,-y,z
loop_
_atom_site_type_symbol
_atom_site_label
_atom_site_fract_x
_atom_site_fract_y
_atom_site_fract_z
Si Si1 0.750000 0.599853 0.500000
Si Si2 0.370610 0.583035 0.079482
Si Si3 0.869172 0.536829 0.233872
Si Si4 0.128405 0.815497 0.712605
O O1 0.818228 0.558697 0.387556
O O2 0.835355 0.644219 0.576372
O O3 0.500000 0.571614 0.058795
O O4 0.334881 0.532499 0.203040
O O5 0.343902 0.649334 0.135218
O O6 0.321592 0.574694 0.910713
O O7 0.000000 0.544441 0.246789
O O8 0.185833 0.750000 0.716097
O O9 0.000000 0.806262 0.694969
#
# Coordination Sequence:
#
# PCOD8281188 Si02
#       4
#     8  16  16  16
#     4  12  23  35  56  90 121 151 184 234 298 351
#     4   8  17  38  63  83 110 151 196 239 282 333
#     4   9  19  37  61  89 118 148 188 239 291 344
#     4  10  22  40  58  79 113 156 199 239 281 338
#
# _framework density 22.850493
#
# number of rings (size 3 to 8) (size 9 to 14) (size 15 to 20)
#    0.000    2.571    0.000    3.000    0.000    4.571 
#    0.000   11.429    0.000    6.857    0.000   12.000 
#    0.000    0.000    0.000    0.000    0.000    0.000 
#
# Total GULP energy -347210.147368 kJ/mol
# GULP energy per Si atom -12400.362406 kJ/mol
# Density = 2.279848 g / cm^3
# Si number density = 22.850493 Si / 1000 Ang^3
#
#
#
# Elastic Constant Matrix: (Units=GPa)
#
#
# Indices 1 2 3 4 5 6 
#
# 1 80.3136 61.4460 66.3020 0.0000 0.0000 0.0000
# 2 61.4460 181.0022 102.5958 0.0000 0.0000 0.0000
# 3 66.3020 102.5958 175.0780 0.0000 0.0000 0.0000
# 4 0.0000 0.0000 0.0000 -38.9349 0.0000 0.0000
# 5 0.0000 0.0000 0.0000 0.0000 44.6717 0.0000
# 6 0.0000 0.0000 0.0000 0.0000 0.0000 30.8165
#
#
#
# Elastic Compliance Matrix: (Units=1/GPa)
#
#
# Indices 1 2 3 4 5 6 
#
# 1 0.019615 -0.003666 -0.005280 0.000000 0.000000 0.000000
# 2 -0.003666 0.008958 -0.003861 0.000000 0.000000 0.000000
# 3 -0.005280 -0.003861 0.009974 0.000000 0.000000 0.000000
# 4 0.000000 0.000000 0.000000 -0.025684 0.000000 0.000000
# 5 0.000000 0.000000 0.000000 0.000000 0.022386 0.000000
# 6 0.000000 0.000000 0.000000 0.000000 0.000000 0.032450
#
#
# Mechanical properties :
#
#
# Convention : Reuss Voigt Hill
#
# Bulk Modulus (GPa) = 77.32364 99.67571 88.49967
# Shear Modulus (GPa) = 51.21782 21.04732 36.13257
#
# Velocity S-wave (km/s) = 4.73951 3.03824 3.98082
# Velocity P-wave (km/s) = 7.99144 7.48487 7.74230
#
# Compressibility (1/GPa) = 0.01293266
#
# Stress axis : x y z
#
# Youngs Moduli (GPa) = 50.98232 111.63471 100.26365
#
# Poissons Ratio (x) = 0.40926 0.52937
# Poissons Ratio (y) = 0.18690 0.38711
# Poissons Ratio (z) = 0.26917 0.43102
#
# Static dielectric constant tensor:
#      x y z
#    x 4.746500 0.000000 0.000000 
#    y 0.000000 4.278160 0.000000 
#    z 0.000000 0.000000 4.194170 
# 
# 
# High freq. dielectric constant tensor:
#      x y z
#    x 1.955080 0.000000 0.000000 
#    y 0.000000 1.890200 0.000000 
#    z 0.000000 0.000000 1.904600 
# 
# From -- ./inp_files/7692.got.cif
#   From: 2010.03.12/outbox.cif.g09.slc.cpg/sg67_4_cif.got.tgz:7692.got - 2010.04.10 22:41:39.
