data_PCOD8281627
_publ_section_title
;
Structure prediction by ZEFSAII (Michael W. Deem and Ramdas Pophale) SiO2 
 PCOD8281627
Probable space group: C C C A
;
_chemical_formula_sum "Si O2"
_cell_formula_units_Z 56
_cell_length_a 32.672673
_cell_length_b 5.020007
_cell_length_c 17.128739
_cell_angle_alpha 90.000000
_cell_angle_beta 90.000000
_cell_angle_gamma 90.000000
_cell_volume 2809.405193
_symmetry_space_group_name_H-M "C C C A"
_symmetry_group_IT_number 68
_space_group.IT_coordinate_system_code '2'
_symmetry_cell_setting 'orthorhombic'
loop_
_space_group_symop_operation_xyz
x,y,z
-x,1/2-y,z
x,1/2-y,1/2-z
-x,y,1/2-z
-x,-y,-z
x,1/2+y,-z
-x,1/2+y,1/2+z
x,-y,1/2+z
1/2+x,1/2+y,z
1/2-x,-y,z
1/2+x,-y,1/2-z
1/2-x,1/2+y,1/2-z
1/2-x,1/2-y,-z
1/2+x,y,-z
1/2-x,y,1/2+z
1/2+x,1/2-y,1/2+z
loop_
_atom_site_type_symbol
_atom_site_label
_atom_site_fract_x
_atom_site_fract_y
_atom_site_fract_z
Si Si1 0.250000 0.000000 0.197365
Si Si2 0.546278 0.735441 0.050944
Si Si3 0.879229 0.265792 0.342987
Si Si4 0.331746 0.228377 0.157996
O O1 0.267438 0.750000 0.250000
O O2 0.214893 0.870708 0.141994
O O3 0.500000 0.750000 0.083262
O O4 0.575917 0.812024 0.122216
O O5 0.554146 0.438375 0.020082
O O6 0.883106 0.250000 0.250000
O O7 0.846477 0.486582 0.374465
O O8 0.862452 0.989086 0.377094
O O9 0.335928 0.250000 0.250000
#
# Coordination Sequence:
#
# PCOD8281627 Si02
#       4
#     8  16  16  16
#     4  10  16  26  44  70 106 142 170 204 256 306
#     4  10  21  37  55  75 100 133 173 211 252 311
#     4  10  19  32  51  77 105 131 166 213 259 300
#     4   9  17  28  45  73 105 134 165 207 254 299
#
# _framework density 19.933043999999999
#
# number of rings (size 3 to 8) (size 9 to 14) (size 15 to 20)
#    0.000    2.286    0.000    6.000    0.000    0.571 
#    0.000    0.000    0.000   10.286    0.000   20.000 
#    0.000    0.000    0.000    0.000    0.000    0.000 
#
# Total GULP energy -346894.172942 kJ/mol
# GULP energy per Si atom -12389.077605 kJ/mol
# Density = 1.988768 g / cm^3
# Si number density = 19.933044 Si / 1000 Ang^3
#
#
#
# Elastic Constant Matrix: (Units=GPa)
#
#
# Indices 1 2 3 4 5 6 
#
# 1 160.3431 45.6044 42.1632 0.0000 0.0000 0.0000
# 2 45.6044 111.0066 18.0896 0.0000 0.0000 0.0000
# 3 42.1632 18.0896 24.5834 0.0000 0.0000 0.0000
# 4 0.0000 0.0000 0.0000 10.5050 0.0000 0.0000
# 5 0.0000 0.0000 0.0000 0.0000 16.9265 0.0000
# 6 0.0000 0.0000 0.0000 0.0000 0.0000 36.5123
#
#
#
# Elastic Compliance Matrix: (Units=1/GPa)
#
#
# Indices 1 2 3 4 5 6 
#
# 1 0.011648 -0.001738 -0.018698 0.000000 0.000000 0.000000
# 2 -0.001738 0.010495 -0.004742 0.000000 0.000000 0.000000
# 3 -0.018698 -0.004742 0.076237 0.000000 0.000000 0.000000
# 4 0.000000 0.000000 0.000000 0.095193 0.000000 0.000000
# 5 0.000000 0.000000 0.000000 0.000000 0.059079 0.000000
# 6 0.000000 0.000000 0.000000 0.000000 0.000000 0.027388
#
#
# Mechanical properties :
#
#
# Convention : Reuss Voigt Hill
#
# Bulk Modulus (GPa) = 20.82319 56.40528 38.61424
# Shear Modulus (GPa) = 14.43402 25.46048 19.94725
#
# Velocity S-wave (km/s) = 2.69388 3.57781 3.16684
# Velocity P-wave (km/s) = 4.48834 6.73991 5.72589
#
# Compressibility (1/GPa) = 0.04802338
#
# Stress axis : x y z
#
# Youngs Moduli (GPa) = 85.85304 95.28104 13.11704
#
# Poissons Ratio (x) = 0.16561 0.24527
# Poissons Ratio (y) = 0.14923 0.06220
# Poissons Ratio (z) = 1.60530 0.45180
#
# Static dielectric constant tensor:
#      x y z
#    x 3.974370 0.000000 0.000000 
#    y 0.000000 4.306370 0.000000 
#    z 0.000000 0.000000 2.880110 
# 
# 
# High freq. dielectric constant tensor:
#      x y z
#    x 1.788050 0.000000 0.000000 
#    y 0.000000 1.808490 0.000000 
#    z 0.000000 0.000000 1.699320 
# 
# From -- ./inp_files/27085.got.cif
#   From: 2010.03.12/outbox.cif.g09.slc.cpg/sg68_14_cif.got.tgz:27085.got - 2010.04.10 23:14:56.
