data_PCOD8281049
_publ_section_title
;
Structure prediction by ZEFSAII (Michael W. Deem and Ramdas Pophale) SiO2 
 PCOD8281049
Probable space group: C M M A
;
_chemical_formula_sum "Si O2"
_cell_formula_units_Z 68
_cell_length_a 17.431221
_cell_length_b 19.315162
_cell_length_c 9.609281
_cell_angle_alpha 90.000000
_cell_angle_beta 90.000000
_cell_angle_gamma 90.000000
_cell_volume 3235.318622
_symmetry_space_group_name_H-M "C M M A"
_symmetry_group_IT_number 67
_symmetry_cell_setting 'orthorhombic'
loop_
_space_group_symop_operation_xyz
x,y,z
-x,1/2-y,z
x,-y,-z
-x,1/2+y,-z
-x,-y,-z
x,1/2+y,-z
-x,y,z
x,1/2-y,z
1/2+x,1/2+y,z
1/2-x,-y,z
1/2+x,1/2-y,-z
1/2-x,y,-z
1/2-x,1/2-y,-z
1/2+x,y,-z
1/2-x,1/2+y,z
1/2+x,-y,z
loop_
_atom_site_type_symbol
_atom_site_label
_atom_site_fract_x
_atom_site_fract_y
_atom_site_fract_z
Si Si1 0.750000 0.000000 0.500000
Si Si2 0.826273 0.832574 0.189178
Si Si3 0.327817 0.609263 0.304373
Si Si4 0.916143 0.670442 0.454555
Si Si5 0.589111 0.078103 0.964849
O O1 0.696903 0.955280 0.398524
O O2 0.830168 0.750000 0.169274
O O3 0.739331 0.855494 0.215601
O O4 0.874161 0.861833 0.320515
O O5 0.859331 0.868552 0.052052
O O6 0.364485 0.664738 0.408591
O O7 0.393709 0.586571 0.197981
O O8 0.927623 0.750000 0.421514
O O9 0.000000 0.634956 0.473199
O O10 0.500000 0.093494 0.994790
O O11 0.612282 0.000000 0.000000
#
# Coordination Sequence:
#
# PCOD8281049 Si02
#       5
#     4  16  16  16  16
#     4  12  24  40  66  96 128 176 224 270 328 396
#     4  11  23  43  69  96 131 174 218 269 332 394
#     4  12  23  41  65  96 127 170 219 271 323 387
#     4  10  21  39  64  94 128 166 210 267 328 387
#     4  11  26  45  64  94 133 174 218 269 326 390
#
# _framework density 21.018022999999999
#
# number of rings (size 3 to 8) (size 9 to 14) (size 15 to 20)
#    0.000    0.941    2.353    4.235    0.000    7.059 
#    0.000    1.176    0.000    0.000    0.000    0.000 
#    0.000    0.000    0.000    0.000    0.000    0.000 
#
# Total GULP energy -421665.698465 kJ/mol
# GULP energy per Si atom -12401.932308 kJ/mol
# Density = 2.097018 g / cm^3
# Si number density = 21.018023 Si / 1000 Ang^3
#
#
#
# Elastic Constant Matrix: (Units=GPa)
#
#
# Indices 1 2 3 4 5 6 
#
# 1 97.5606 27.9639 31.2047 0.0000 0.0000 0.0000
# 2 27.9639 88.4956 35.5000 0.0000 0.0000 0.0000
# 3 31.2047 35.5000 128.1337 0.0000 0.0000 0.0000
# 4 0.0000 0.0000 0.0000 37.5077 0.0000 0.0000
# 5 0.0000 0.0000 0.0000 0.0000 41.9291 0.0000
# 6 0.0000 0.0000 0.0000 0.0000 0.0000 12.7979
#
#
#
# Elastic Compliance Matrix: (Units=1/GPa)
#
#
# Indices 1 2 3 4 5 6 
#
# 1 0.011735 -0.002882 -0.002059 0.000000 0.000000 0.000000
# 2 -0.002882 0.013421 -0.003016 0.000000 0.000000 0.000000
# 3 -0.002059 -0.003016 0.009142 0.000000 0.000000 0.000000
# 4 0.000000 0.000000 0.000000 0.026661 0.000000 0.000000
# 5 0.000000 0.000000 0.000000 0.000000 0.023850 0.000000
# 6 0.000000 0.000000 0.000000 0.000000 0.000000 0.078138
#
#
# Mechanical properties :
#
#
# Convention : Reuss Voigt Hill
#
# Bulk Modulus (GPa) = 54.40223 55.94746 55.17485
# Shear Modulus (GPa) = 27.02872 33.08169 30.05520
#
# Velocity S-wave (km/s) = 3.58994 3.97163 3.78560
# Velocity P-wave (km/s) = 6.56684 6.90713 6.73913
#
# Compressibility (1/GPa) = 0.01838160
#
# Stress axis : x y z
#
# Youngs Moduli (GPa) = 85.21672 74.51165 109.39039
#
# Poissons Ratio (x) = 0.21474 0.22527
# Poissons Ratio (y) = 0.24559 0.32997
# Poissons Ratio (z) = 0.17549 0.22476
#
# Static dielectric constant tensor:
#      x y z
#    x 4.170460 0.000000 0.000000 
#    y 0.000000 3.635900 0.000000 
#    z 0.000000 0.000000 3.854790 
# 
# 
# High freq. dielectric constant tensor:
#      x y z
#    x 1.836320 0.000000 0.000000 
#    y 0.000000 1.814320 0.000000 
#    z 0.000000 0.000000 1.839340 
# 
# From -- ./inp_files/9474.got.cif
#   From: 2010.03.12/outbox.cif.g09.slc.cpg/sg67_5_cif.got.tgz:9474.got - 2010.04.10 22:41:39.
