data_PCOD8281631
_publ_section_title
;
Structure prediction by ZEFSAII (Michael W. Deem and Ramdas Pophale) SiO2 
 PCOD8281631
Probable space group: C C C A
;
_chemical_formula_sum "Si O2"
_cell_formula_units_Z 120
_cell_length_a 17.284727
_cell_length_b 21.993868
_cell_length_c 16.553168
_cell_angle_alpha 90.000000
_cell_angle_beta 90.000000
_cell_angle_gamma 90.000000
_cell_volume 6292.819308
_symmetry_space_group_name_H-M "C C C A"
_symmetry_group_IT_number 68
_space_group.IT_coordinate_system_code '2'
_symmetry_cell_setting 'orthorhombic'
loop_
_space_group_symop_operation_xyz
x,y,z
-x,1/2-y,z
x,1/2-y,1/2-z
-x,y,1/2-z
-x,-y,-z
x,1/2+y,-z
-x,1/2+y,1/2+z
x,-y,1/2+z
1/2+x,1/2+y,z
1/2-x,-y,z
1/2+x,-y,1/2-z
1/2-x,1/2+y,1/2-z
1/2-x,1/2-y,-z
1/2+x,y,-z
1/2-x,y,1/2+z
1/2+x,1/2-y,1/2+z
loop_
_atom_site_type_symbol
_atom_site_label
_atom_site_fract_x
_atom_site_fract_y
_atom_site_fract_z
Si Si1 0.912885 0.775051 0.832669
Si Si2 0.924744 0.412033 0.868698
Si Si3 0.336587 0.477291 0.000059
Si Si4 0.087091 0.775101 0.332636
Si Si5 0.054056 0.906313 0.000103
Si Si6 0.924726 0.911943 0.868865
Si Si7 0.500000 0.499948 0.750000
Si Si8 0.410980 0.228147 0.000041
O O1 0.872336 0.750000 0.750000
O O2 0.906587 0.847533 0.828425
O O3 0.872003 0.753665 0.917045
O O4 0.000000 0.750000 0.833762
O O5 0.852481 0.435711 0.921545
O O6 0.906742 0.347583 0.828310
O O7 0.940026 0.459667 0.799063
O O8 0.002064 0.407154 0.920871
O O9 0.250000 0.500000 0.000063
O O10 0.392164 0.535317 0.000154
O O11 0.352471 0.435767 0.921612
O O12 0.127652 0.750000 0.250000
O O13 0.127996 0.753813 0.417040
O O14 0.000000 0.750000 0.333790
O O15 0.102132 0.844091 0.000217
O O16 0.001908 0.906811 0.921189
O O17 0.940231 0.959564 0.799292
O O18 0.500000 0.250000 0.000002
#
# Coordination Sequence:
#
# PCOD8281631 Si02
#       8
#    16  16  16  16  16  16   8  16
#     4  10  18  29  50  89 120 141 177 246 315 357
#     4  11  20  34  59  86 118 147 192 252 298 351
#     4  11  24  41  56  79 118 170 208 238 286 358
#     4  10  18  29  50  89 120 141 177 246 315 357
#     4  11  18  37  56  81 112 149 193 253 285 339
#     4  11  20  34  59  86 118 147 192 252 298 351
#     4  12  20  30  56  96 112 142 190 254 312 354
#     4  10  16  28  50  81 110 141 180 239 302 349
#
# _framework density 19.069353
#
# number of rings (size 3 to 8) (size 9 to 14) (size 15 to 20)
#    0.000    1.333    8.000    3.200    0.000    0.000 
#    0.000    0.667    0.000    3.200    0.000    3.733 
#    0.000    0.000    0.000    0.000    0.000    0.000 
#
# Total GULP energy -743724.315804 kJ/mol
# GULP energy per Si atom -12395.405263 kJ/mol
# Density = 1.902595 g / cm^3
# Si number density = 19.069353 Si / 1000 Ang^3
#
#
#
# Elastic Constant Matrix: (Units=GPa)
#
#
# Indices 1 2 3 4 5 6 
#
# 1 48.0969 26.2427 22.1667 0.0000 0.0000 0.0000
# 2 26.2427 176.5881 73.7044 0.0000 0.0000 0.0000
# 3 22.1667 73.7044 183.3199 0.0000 0.0000 0.0000
# 4 0.0000 0.0000 0.0000 48.9162 0.0000 0.0000
# 5 0.0000 0.0000 0.0000 0.0000 0.7615 0.0000
# 6 0.0000 0.0000 0.0000 0.0000 0.0000 11.3072
#
#
#
# Elastic Compliance Matrix: (Units=1/GPa)
#
#
# Indices 1 2 3 4 5 6 
#
# 1 0.023056 -0.002719 -0.001695 0.000000 0.000000 0.000000
# 2 -0.002719 0.007125 -0.002536 0.000000 0.000000 0.000000
# 3 -0.001695 -0.002536 0.006679 0.000000 0.000000 0.000000
# 4 0.000000 0.000000 0.000000 0.020443 0.000000 0.000000
# 5 0.000000 0.000000 0.000000 0.000000 1.313231 0.000000
# 6 0.000000 0.000000 0.000000 0.000000 0.000000 0.088440
#
#
# Mechanical properties :
#
#
# Convention : Reuss Voigt Hill
#
# Bulk Modulus (GPa) = 43.55134 72.47028 58.01081
# Shear Modulus (GPa) = 3.37717 31.25637 17.31677
#
# Velocity S-wave (km/s) = 1.33223 4.05296 3.01673
# Velocity P-wave (km/s) = 5.02538 7.74519 6.52849
#
# Compressibility (1/GPa) = 0.02296141
#
# Stress axis : x y z
#
# Youngs Moduli (GPa) = 43.37278 140.34183 149.71212
#
# Poissons Ratio (x) = 0.38159 0.25372
# Poissons Ratio (y) = 0.11793 0.37968
# Poissons Ratio (z) = 0.07350 0.35591
#
# Static dielectric constant tensor:
#      x y z
#    x 0.220560 0.000000 0.000000 
#    y 0.000000 3.909940 0.000000 
#    z 0.000000 0.000000 4.492220 
# 
# 
# High freq. dielectric constant tensor:
#      x y z
#    x 1.650990 0.000000 0.000000 
#    y 0.000000 1.768820 0.000000 
#    z 0.000000 0.000000 1.767080 
# 
# From -- ./inp_files/32309.got.cif
#   From: 2010.03.12/outbox.cif.g09.slc.cpg/sg68_17_cif.got.tgz:32309.got - 2010.04.10 23:14:56.
