data_PCOD8281778
_publ_section_title
;
Structure prediction by ZEFSAII (Michael W. Deem and Ramdas Pophale) SiO2 
 PCOD8281778
Probable space group: C C C A
;
_chemical_formula_sum "Si O2"
_cell_formula_units_Z 76
_cell_length_a 25.118905
_cell_length_b 13.492114
_cell_length_c 13.582253
_cell_angle_alpha 90.000000
_cell_angle_beta 90.000000
_cell_angle_gamma 90.000000
_cell_volume 4603.122381
_symmetry_space_group_name_H-M "C C C A"
_symmetry_group_IT_number 68
_space_group.IT_coordinate_system_code '2'
_symmetry_cell_setting 'orthorhombic'
loop_
_space_group_symop_operation_xyz
x,y,z
-x,1/2-y,z
x,1/2-y,1/2-z
-x,y,1/2-z
-x,-y,-z
x,1/2+y,-z
-x,1/2+y,1/2+z
x,-y,1/2+z
1/2+x,1/2+y,z
1/2-x,-y,z
1/2+x,-y,1/2-z
1/2-x,1/2+y,1/2-z
1/2-x,1/2-y,-z
1/2+x,y,-z
1/2-x,y,1/2+z
1/2+x,1/2-y,1/2+z
loop_
_atom_site_type_symbol
_atom_site_label
_atom_site_fract_x
_atom_site_fract_y
_atom_site_fract_z
Si Si1 0.834997 0.817053 0.507193
Si Si2 0.250000 0.500000 0.250131
Si Si3 0.831439 0.471037 0.912333
Si Si4 0.500000 0.750000 0.750000
Si Si5 0.223401 0.858032 0.584159
Si Si6 0.898344 0.206311 0.649361
O O1 0.818053 0.733876 0.587696
O O2 0.783664 0.824960 0.436847
O O3 0.884858 0.783666 0.439128
O O4 0.850560 0.917083 0.565001
O O5 0.203571 0.543371 0.184025
O O6 0.223113 0.411991 0.311663
O O7 0.881335 0.401608 0.888772
O O8 0.795913 0.436340 0.003301
O O9 0.461244 0.690640 0.674375
O O10 0.870866 0.250000 0.750000
#
# Coordination Sequence:
#
# PCOD8281778 Si02
#       6
#    16   8  16   4  16  16
#     4  10  18  34  47  75 110 139 182 228 273 329
#     4  12  18  30  48  72 118 152 182 212 264 340
#     4  11  20  33  49  82 108 149 184 221 271 344
#     4   8  20  40  56  88  92 144 208 244 276 346
#     4  10  20  30  44  73 113 146 182 215 259 336
#     4   9  20  36  60  72 105 139 189 239 285 323
#
# _framework density 16.510531
#
# number of rings (size 3 to 8) (size 9 to 14) (size 15 to 20)
#    0.632    1.263    4.211    1.263    0.000    0.842 
#    0.000    1.053    0.000    0.000    0.000    0.000 
#    0.000    3.368    0.000    0.000    0.000    0.000 
#
# Total GULP energy -470747.868853 kJ/mol
# GULP energy per Si atom -12388.101812 kJ/mol
# Density = 1.647295 g / cm^3
# Si number density = 16.510531 Si / 1000 Ang^3
#
#
#
# Elastic Constant Matrix: (Units=GPa)
#
#
# Indices 1 2 3 4 5 6 
#
# 1 92.2624 36.2858 40.4744 0.0000 0.0000 0.0000
# 2 36.2858 129.8652 57.1652 0.0000 0.0000 0.0000
# 3 40.4744 57.1652 93.8414 0.0000 0.0000 0.0000
# 4 0.0000 0.0000 0.0000 -97.4406 0.0000 0.0000
# 5 0.0000 0.0000 0.0000 0.0000 33.9109 0.0000
# 6 0.0000 0.0000 0.0000 0.0000 0.0000 13.5444
#
#
#
# Elastic Compliance Matrix: (Units=1/GPa)
#
#
# Indices 1 2 3 4 5 6 
#
# 1 0.013627 -0.001668 -0.004862 0.000000 0.000000 0.000000
# 2 -0.001668 0.010726 -0.005815 0.000000 0.000000 0.000000
# 3 -0.004862 -0.005815 0.016295 0.000000 0.000000 0.000000
# 4 0.000000 0.000000 0.000000 -0.010263 0.000000 0.000000
# 5 0.000000 0.000000 0.000000 0.000000 0.029489 0.000000
# 6 0.000000 0.000000 0.000000 0.000000 0.000000 0.073831
#
#
# Mechanical properties :
#
#
# Convention : Reuss Voigt Hill
#
# Bulk Modulus (GPa) = 62.65435 64.86886 63.76161
# Shear Modulus (GPa) = 30.54113 2.13917 16.34015
#
# Velocity S-wave (km/s) = 4.30559 1.13950 3.14933
# Velocity P-wave (km/s) = 7.92136 6.41139 7.20604
#
# Compressibility (1/GPa) = 0.01596058
#
# Stress axis : x y z
#
# Youngs Moduli (GPa) = 73.38235 93.23388 61.36773
#
# Poissons Ratio (x) = 0.15547 0.29835
# Poissons Ratio (y) = 0.12237 0.35683
# Poissons Ratio (z) = 0.35676 0.54211
#
# Static dielectric constant tensor:
#      x y z
#    x 2.726860 0.000000 0.000000 
#    y 0.000000 3.983500 0.000000 
#    z 0.000000 0.000000 3.096870 
# 
# 
# High freq. dielectric constant tensor:
#      x y z
#    x 1.589210 0.000000 0.000000 
#    y 0.000000 1.644880 0.000000 
#    z 0.000000 0.000000 1.636050 
# 
# From -- ./inp_files/13492.got.cif
#   From: 2010.03.12/outbox.cif.g09.slc.cpg/sg68_7_cif.got.tgz:13492.got - 2010.04.10 23:14:56.
