data_PCOD8281224
_publ_section_title
;
Structure prediction by ZEFSAII (Michael W. Deem and Ramdas Pophale) SiO2 
 PCOD8281224
Probable space group: C M M A
;
_chemical_formula_sum "Si O2"
_cell_formula_units_Z 52
_cell_length_a 29.670488
_cell_length_b 9.081805
_cell_length_c 9.856232
_cell_angle_alpha 90.000000
_cell_angle_beta 90.000000
_cell_angle_gamma 90.000000
_cell_volume 2655.875909
_symmetry_space_group_name_H-M "C M M A"
_symmetry_group_IT_number 67
_symmetry_cell_setting 'orthorhombic'
loop_
_space_group_symop_operation_xyz
x,y,z
-x,1/2-y,z
x,-y,-z
-x,1/2+y,-z
-x,-y,-z
x,1/2+y,-z
-x,y,z
x,1/2-y,z
1/2+x,1/2+y,z
1/2-x,-y,z
1/2+x,1/2-y,-z
1/2-x,y,-z
1/2-x,1/2-y,-z
1/2+x,y,-z
1/2-x,1/2+y,z
1/2+x,-y,z
loop_
_atom_site_type_symbol
_atom_site_label
_atom_site_fract_x
_atom_site_fract_y
_atom_site_fract_z
Si Si1 0.446684 0.919259 0.636464
Si Si2 0.250000 0.500000 0.500000
Si Si3 0.112258 0.926621 0.855582
Si Si4 0.708886 0.088329 0.761954
O O1 0.500000 0.926293 0.652107
O O2 0.429807 0.750000 0.634537
O O3 0.430512 0.000000 0.500000
O O4 0.426416 0.008933 0.761049
O O5 0.282839 0.405083 0.598322
O O6 0.108296 0.750000 0.863019
O O7 0.160486 0.981097 0.796530
O O8 0.104896 0.000000 0.000000
O O9 0.710307 0.250000 0.824337
O O10 0.750000 0.000000 0.832703
#
# Coordination Sequence:
#
# PCOD8281224 Si02
#       4
#    16   4  16  16
#     4  10  22  41  65  93 122 155 196 246 301 358
#     4   8  18  36  56  80 116 148 196 240 298 344
#     4  11  24  41  59  88 122 162 206 247 301 360
#     4   9  20  35  56  83 114 151 196 243 292 350
#
# _framework density 19.579228000000001
#
# number of rings (size 3 to 8) (size 9 to 14) (size 15 to 20)
#    0.923    1.231    0.000    2.308    2.154    5.538 
#    0.000    3.077    0.000    0.000    0.000    0.000 
#    0.000    0.000    0.000    0.000    0.000    0.000 
#
# Total GULP energy -322222.103925 kJ/mol
# GULP energy per Si atom -12393.157843 kJ/mol
# Density = 1.953466 g / cm^3
# Si number density = 19.579228 Si / 1000 Ang^3
#
#
#
# Elastic Constant Matrix: (Units=GPa)
#
#
# Indices 1 2 3 4 5 6 
#
# 1 51.8242 39.6836 46.2007 0.0000 0.0000 0.0000
# 2 39.6836 123.7097 52.7760 0.0000 0.0000 0.0000
# 3 46.2007 52.7760 139.9796 0.0000 0.0000 0.0000
# 4 0.0000 0.0000 0.0000 33.9059 0.0000 0.0000
# 5 0.0000 0.0000 0.0000 0.0000 0.2693 0.0000
# 6 0.0000 0.0000 0.0000 0.0000 0.0000 30.8122
#
#
#
# Elastic Compliance Matrix: (Units=1/GPa)
#
#
# Indices 1 2 3 4 5 6 
#
# 1 0.031446 -0.006744 -0.007836 0.000000 0.000000 0.000000
# 2 -0.006744 0.011079 -0.001951 0.000000 0.000000 0.000000
# 3 -0.007836 -0.001951 0.010466 0.000000 0.000000 0.000000
# 4 0.000000 0.000000 0.000000 0.029493 0.000000 0.000000
# 5 0.000000 0.000000 0.000000 0.000000 3.713330 0.000000
# 6 0.000000 0.000000 0.000000 0.000000 0.000000 0.032455
#
#
# Mechanical properties :
#
#
# Convention : Reuss Voigt Hill
#
# Bulk Modulus (GPa) = 50.18048 65.87046 58.02547
# Shear Modulus (GPa) = 1.29267 24.78770 13.04018
#
# Velocity S-wave (km/s) = 0.81342 3.56198 2.58354
# Velocity P-wave (km/s) = 5.15435 7.11569 6.21290
#
# Compressibility (1/GPa) = 0.01992807
#
# Stress axis : x y z
#
# Youngs Moduli (GPa) = 31.80035 90.25847 95.54859
#
# Poissons Ratio (x) = 0.60873 0.74873
# Poissons Ratio (y) = 0.21447 0.18643
# Poissons Ratio (z) = 0.24919 0.17611
#
# Static dielectric constant tensor:
#      x y z
#    x 3.556340 0.000000 0.000000 
#    y 0.000000 3.599730 0.000000 
#    z 0.000000 0.000000 3.490730 
# 
# 
# High freq. dielectric constant tensor:
#      x y z
#    x 1.762760 0.000000 0.000000 
#    y 0.000000 1.768230 0.000000 
#    z 0.000000 0.000000 1.757720 
# 
# From -- ./inp_files/22513.got.cif
#   From: 2010.03.12/outbox.cif.g09.slc.cpg/sg67_12_cif.got.tgz:22513.got - 2010.04.10 22:41:39.
