data_PCOD8281266
_publ_section_title
;
Structure prediction by ZEFSAII (Michael W. Deem and Ramdas Pophale) SiO2 
 PCOD8281266
Probable space group: C M M A
;
_chemical_formula_sum "Si O2"
_cell_formula_units_Z 112
_cell_length_a 13.583435
_cell_length_b 25.774599
_cell_length_c 17.789598
_cell_angle_alpha 90.000000
_cell_angle_beta 90.000000
_cell_angle_gamma 90.000000
_cell_volume 6228.273286
_symmetry_space_group_name_H-M "C M M A"
_symmetry_group_IT_number 67
_symmetry_cell_setting 'orthorhombic'
loop_
_space_group_symop_operation_xyz
x,y,z
-x,1/2-y,z
x,-y,-z
-x,1/2+y,-z
-x,-y,-z
x,1/2+y,-z
-x,y,z
x,1/2-y,z
1/2+x,1/2+y,z
1/2-x,-y,z
1/2+x,1/2-y,-z
1/2-x,y,-z
1/2-x,1/2-y,-z
1/2+x,y,-z
1/2-x,1/2+y,z
1/2+x,-y,z
loop_
_atom_site_type_symbol
_atom_site_label
_atom_site_fract_x
_atom_site_fract_y
_atom_site_fract_z
Si Si1 0.500000 0.421946 0.959716
Si Si2 0.385274 0.190040 0.783290
Si Si3 0.308375 0.641469 0.069858
Si Si4 0.112624 0.545275 0.581665
Si Si5 0.793429 0.553975 0.159364
Si Si6 0.000000 0.975408 0.118302
Si Si7 0.226779 0.393651 0.307512
Si Si8 0.615681 0.429428 0.418261
O O1 0.405635 0.385896 0.959434
O O2 0.500000 0.461462 0.887994
O O3 0.500000 0.454618 0.034672
O O4 0.500000 0.170657 0.780822
O O5 0.380492 0.250000 0.761770
O O6 0.339951 0.182653 0.866632
O O7 0.313551 0.161064 0.723936
O O8 0.233246 0.598603 0.100908
O O9 0.250000 0.668673 0.000000
O O10 0.133200 0.581673 0.651673
O O11 0.156399 0.487804 0.597123
O O12 0.144132 0.576793 0.506327
O O13 0.000000 0.532370 0.571583
O O14 0.750000 0.500000 0.129110
O O15 0.753924 0.567801 0.240887
O O16 0.909710 0.546689 0.165642
O O17 0.319223 0.390218 0.366012
O O18 0.500000 0.419158 0.401272
#
# Coordination Sequence:
#
# PCOD8281266 Si02
#       8
#     8  16  16  16  16   8  16  16
#     4  11  20  34  55  74 108 149 178 215 258 315
#     4  10  23  42  61  79 100 130 175 235 293 335
#     4  11  21  36  57  80 102 133 182 223 270 325
#     4   9  17  32  52  79 117 151 185 215 245 300
#     4  11  22  32  45  77 113 146 181 212 254 317
#     4  11  22  32  50  74 116 156 176 212 257 319
#     4  11  21  33  53  78 106 143 179 226 270 317
#     4   9  18  31  51  82 116 154 185 207 244 306
#
# _framework density 17.982512
#
# number of rings (size 3 to 8) (size 9 to 14) (size 15 to 20)
#    0.000    1.714    3.571    3.000    1.000    1.714 
#    1.286    0.000    0.000    2.143    0.000    2.000 
#    0.000    0.000    0.000    0.000    0.000    0.000 
#
# Total GULP energy -693912.970103 kJ/mol
# GULP energy per Si atom -12391.303038 kJ/mol
# Density = 1.794158 g / cm^3
# Si number density = 17.982512 Si / 1000 Ang^3
#
#
#
# Elastic Constant Matrix: (Units=GPa)
#
#
# Indices 1 2 3 4 5 6 
#
# 1 111.8399 33.3810 36.7870 0.0000 0.0000 0.0000
# 2 33.3810 63.6373 34.6455 0.0000 0.0000 0.0000
# 3 36.7870 34.6455 101.4875 0.0000 0.0000 0.0000
# 4 0.0000 0.0000 0.0000 17.0339 0.0000 0.0000
# 5 0.0000 0.0000 0.0000 0.0000 39.5284 0.0000
# 6 0.0000 0.0000 0.0000 0.0000 0.0000 23.7432
#
#
#
# Elastic Compliance Matrix: (Units=1/GPa)
#
#
# Indices 1 2 3 4 5 6 
#
# 1 0.011094 -0.004459 -0.002499 0.000000 0.000000 0.000000
# 2 -0.004459 0.021093 -0.005585 0.000000 0.000000 0.000000
# 3 -0.002499 -0.005585 0.012666 0.000000 0.000000 0.000000
# 4 0.000000 0.000000 0.000000 0.058707 0.000000 0.000000
# 5 0.000000 0.000000 0.000000 0.000000 0.025298 0.000000
# 6 0.000000 0.000000 0.000000 0.000000 0.000000 0.042117
#
#
# Mechanical properties :
#
#
# Convention : Reuss Voigt Hill
#
# Bulk Modulus (GPa) = 50.58670 54.06574 52.32622
# Shear Modulus (GPa) = 24.67306 27.53783 26.10544
#
# Velocity S-wave (km/s) = 3.70815 3.91751 3.81427
# Velocity P-wave (km/s) = 6.82099 7.11291 6.96848
#
# Compressibility (1/GPa) = 0.01976804
#
# Stress axis : x y z
#
# Youngs Moduli (GPa) = 90.13663 47.40845 78.95278
#
# Poissons Ratio (x) = 0.21139 0.19733
# Poissons Ratio (y) = 0.40191 0.44091
# Poissons Ratio (z) = 0.22528 0.26475
#
# Static dielectric constant tensor:
#      x y z
#    x 3.514930 0.000000 0.000000 
#    y 0.000000 2.912430 0.000000 
#    z 0.000000 0.000000 3.419970 
# 
# 
# High freq. dielectric constant tensor:
#      x y z
#    x 1.716270 0.000000 0.000000 
#    y 0.000000 1.645480 0.000000 
#    z 0.000000 0.000000 1.703090 
# 
# From -- ./inp_files/27765.got.cif
#   From: 2010.03.12/outbox.cif.g09.slc.cpg/sg67_14_cif.got.tgz:27765.got - 2010.04.10 22:41:39.
