data_PCOD8281364
_publ_section_title
;
Structure prediction by ZEFSAII (Michael W. Deem and Ramdas Pophale) SiO2 
 PCOD8281364
Probable space group: C M M A
;
_chemical_formula_sum "Si O2"
_cell_formula_units_Z 64
_cell_length_a 8.762342
_cell_length_b 30.597395
_cell_length_c 14.645664
_cell_angle_alpha 90.000000
_cell_angle_beta 90.000000
_cell_angle_gamma 90.000000
_cell_volume 3926.573393
_symmetry_space_group_name_H-M "C M M A"
_symmetry_group_IT_number 67
_symmetry_cell_setting 'orthorhombic'
loop_
_space_group_symop_operation_xyz
x,y,z
-x,1/2-y,z
x,-y,-z
-x,1/2+y,-z
-x,-y,-z
x,1/2+y,-z
-x,y,z
x,1/2-y,z
1/2+x,1/2+y,z
1/2-x,-y,z
1/2+x,1/2-y,-z
1/2-x,y,-z
1/2-x,1/2-y,-z
1/2+x,y,-z
1/2-x,1/2+y,z
1/2+x,-y,z
loop_
_atom_site_type_symbol
_atom_site_label
_atom_site_fract_x
_atom_site_fract_y
_atom_site_fract_z
Si Si1 0.172785 0.882697 0.717926
Si Si2 0.672932 0.851726 0.091907
Si Si3 0.179559 0.299229 0.765259
Si Si4 0.819861 0.046208 0.596169
O O1 0.178358 0.889106 0.828578
O O2 0.237270 0.833642 0.696495
O O3 0.280273 0.918466 0.672591
O O4 0.000000 0.886772 0.680681
O O5 0.500000 0.837998 0.070754
O O6 0.763600 0.809259 0.130909
O O7 0.750000 0.869869 0.000000
O O8 0.225573 0.250000 0.737856
O O9 0.000000 0.306364 0.759349
O O10 0.750000 0.061601 0.500000
O O11 0.000000 0.041376 0.586372
O O12 0.750000 0.000000 0.626532
#
# Coordination Sequence:
#
# PCOD8281364 Si02
#       4
#    16  16  16  16
#     4   9  19  33  49  72 101 133 166 204 249 294
#     4   9  18  29  46  68  98 133 171 210 247 291
#     4   9  17  29  46  69  98 133 172 209 248 292
#     4  11  21  35  57  81 105 127 156 199 246 298
#
# _framework density 16.299198000000001
#
# number of rings (size 3 to 8) (size 9 to 14) (size 15 to 20)
#    1.500    1.000    0.000    4.500    0.000    2.500 
#    0.000    0.000    0.000    1.500    0.000    5.250 
#    0.000    0.000    0.000    0.000    0.000    0.000 
#
# Total GULP energy -396425.023081 kJ/mol
# GULP energy per Si atom -12388.281971 kJ/mol
# Density = 1.626210 g / cm^3
# Si number density = 16.299198 Si / 1000 Ang^3
#
#
#
# Elastic Constant Matrix: (Units=GPa)
#
#
# Indices 1 2 3 4 5 6 
#
# 1 123.0760 46.2063 33.9639 0.0000 0.0000 0.0000
# 2 46.2063 92.8931 52.5637 0.0000 0.0000 0.0000
# 3 33.9639 52.5637 47.1284 0.0000 0.0000 0.0000
# 4 0.0000 0.0000 0.0000 17.0427 0.0000 0.0000
# 5 0.0000 0.0000 0.0000 0.0000 27.6393 0.0000
# 6 0.0000 0.0000 0.0000 0.0000 0.0000 28.6349
#
#
#
# Elastic Compliance Matrix: (Units=1/GPa)
#
#
# Indices 1 2 3 4 5 6 
#
# 1 0.010354 -0.002516 -0.004656 0.000000 0.000000 0.000000
# 2 -0.002516 0.029794 -0.031417 0.000000 0.000000 0.000000
# 3 -0.004656 -0.031417 0.059615 0.000000 0.000000 0.000000
# 4 0.000000 0.000000 0.000000 0.058676 0.000000 0.000000
# 5 0.000000 0.000000 0.000000 0.000000 0.036180 0.000000
# 6 0.000000 0.000000 0.000000 0.000000 0.000000 0.034922
#
#
# Mechanical properties :
#
#
# Convention : Reuss Voigt Hill
#
# Bulk Modulus (GPa) = 44.27727 58.72950 51.50338
# Shear Modulus (GPa) = 15.91101 23.35426 19.63263
#
# Velocity S-wave (km/s) = 3.12778 3.78940 3.47438
# Velocity P-wave (km/s) = 6.34573 7.43347 6.91103
#
# Compressibility (1/GPa) = 0.02258495
#
# Stress axis : x y z
#
# Youngs Moduli (GPa) = 96.57659 33.56414 16.77441
#
# Poissons Ratio (x) = 0.08444 0.07811
# Poissons Ratio (y) = 0.24295 0.52700
# Poissons Ratio (z) = 0.44970 1.05448
#
# Static dielectric constant tensor:
#      x y z
#    x 3.190940 0.000000 0.000000 
#    y 0.000000 2.851210 0.000000 
#    z 0.000000 0.000000 2.834540 
# 
# 
# High freq. dielectric constant tensor:
#      x y z
#    x 1.651710 0.000000 0.000000 
#    y 0.000000 1.602420 0.000000 
#    z 0.000000 0.000000 1.599290 
# 
# From -- ./inp_files/25229.got.cif
#   From: 2010.03.12/outbox.cif.g09.slc.cpg/sg67_13_cif.got.tgz:25229.got - 2010.04.10 22:41:39.
