data_PCOD8281664
_publ_section_title
;
Structure prediction by ZEFSAII (Michael W. Deem and Ramdas Pophale) SiO2 
 PCOD8281664
Probable space group: C C C A
;
_chemical_formula_sum "Si O2"
_cell_formula_units_Z 96
_cell_length_a 8.422222
_cell_length_b 22.412079
_cell_length_c 22.073081
_cell_angle_alpha 90.000000
_cell_angle_beta 90.000000
_cell_angle_gamma 90.000000
_cell_volume 4166.503839
_symmetry_space_group_name_H-M "C C C A"
_symmetry_group_IT_number 68
_space_group.IT_coordinate_system_code '2'
_symmetry_cell_setting 'orthorhombic'
loop_
_space_group_symop_operation_xyz
x,y,z
-x,1/2-y,z
x,1/2-y,1/2-z
-x,y,1/2-z
-x,-y,-z
x,1/2+y,-z
-x,1/2+y,1/2+z
x,-y,1/2+z
1/2+x,1/2+y,z
1/2-x,-y,z
1/2+x,-y,1/2-z
1/2-x,1/2+y,1/2-z
1/2-x,1/2-y,-z
1/2+x,y,-z
1/2-x,y,1/2+z
1/2+x,1/2-y,1/2+z
loop_
_atom_site_type_symbol
_atom_site_label
_atom_site_fract_x
_atom_site_fract_y
_atom_site_fract_z
Si Si1 0.250000 0.000000 0.896796
Si Si2 0.500000 0.250000 0.750000
Si Si3 0.043654 0.434088 0.681398
Si Si4 0.175825 0.114634 0.582722
Si Si5 0.500000 0.250000 0.250000
Si Si6 0.910925 0.063043 0.506658
Si Si7 0.246291 0.179111 0.824684
Si Si8 0.185615 0.745820 0.433472
O O1 0.095323 0.004250 0.852653
O O2 0.231338 0.056672 0.942876
O O3 0.400580 0.202426 0.789372
O O4 0.201802 0.391273 0.677342
O O5 0.000000 0.448421 0.750000
O O6 0.886414 0.410136 0.647070
O O7 0.331825 0.080213 0.557502
O O8 0.231815 0.181891 0.594870
O O9 0.033830 0.112199 0.532528
O O10 0.405647 0.291958 0.205652
O O11 0.000000 0.000000 0.500000
O O12 0.262131 0.201347 0.893803
O O13 0.250000 0.750000 0.500000
O O14 0.000000 0.750000 0.434611
#
# Coordination Sequence:
#
# PCOD8281664 Si02
#       8
#     8   4  16  16   4  16  16  16
#     4  10  24  44  66 100 132 168 236 292 340 398
#     4  10  28  42  70 100 136 182 236 292 324 436
#     4  11  24  47  71  97 138 188 233 290 349 427
#     4  11  23  41  70 100 133 187 229 282 359 417
#     4  10  16  38  78  84 128 182 244 260 320 452
#     4  11  21  43  70  97 133 180 232 284 350 429
#     4  11  22  45  68  99 133 187 233 278 355 420
#     4  12  25  41  64 103 141 177 223 293 350 422
#
# _framework density 23.040900000000001
#
# number of rings (size 3 to 8) (size 9 to 14) (size 15 to 20)
#    0.000    1.000    5.000    1.000    5.833    0.000 
#   10.500    0.000    0.000    0.000    0.000    0.000 
#    0.000    0.000    0.000    0.000    0.000    0.000 
#
# Total GULP energy -594629.879690 kJ/mol
# GULP energy per Si atom -12388.122494 kJ/mol
# Density = 2.298846 g / cm^3
# Si number density = 23.040900 Si / 1000 Ang^3
#
#
#
# Elastic Constant Matrix: (Units=GPa)
#
#
# Indices 1 2 3 4 5 6 
#
# 1 74.5215 17.3960 29.0139 0.0000 0.0000 0.0000
# 2 17.3960 65.2213 8.1836 0.0000 0.0000 0.0000
# 3 29.0139 8.1836 142.9362 0.0000 0.0000 0.0000
# 4 0.0000 0.0000 0.0000 27.1579 0.0000 0.0000
# 5 0.0000 0.0000 0.0000 0.0000 26.2554 0.0000
# 6 0.0000 0.0000 0.0000 0.0000 0.0000 31.8491
#
#
#
# Elastic Compliance Matrix: (Units=1/GPa)
#
#
# Indices 1 2 3 4 5 6 
#
# 1 0.015430 -0.003749 -0.002917 0.000000 0.000000 0.000000
# 2 -0.003749 0.016354 -0.000175 0.000000 0.000000 0.000000
# 3 -0.002917 -0.000175 0.007598 0.000000 0.000000 0.000000
# 4 0.000000 0.000000 0.000000 0.036822 0.000000 0.000000
# 5 0.000000 0.000000 0.000000 0.000000 0.038087 0.000000
# 6 0.000000 0.000000 0.000000 0.000000 0.000000 0.031398
#
#
# Mechanical properties :
#
#
# Convention : Reuss Voigt Hill
#
# Bulk Modulus (GPa) = 38.91265 43.54068 41.22667
# Shear Modulus (GPa) = 29.77244 32.25818 31.01531
#
# Velocity S-wave (km/s) = 3.59856 3.74577 3.67290
# Velocity P-wave (km/s) = 5.84733 6.13562 5.99321
#
# Compressibility (1/GPa) = 0.02569858
#
# Stress axis : x y z
#
# Youngs Moduli (GPa) = 64.80853 61.14532 131.60750
#
# Poissons Ratio (x) = 0.22926 0.38395
# Poissons Ratio (y) = 0.24300 0.02307
# Poissons Ratio (z) = 0.18907 0.01072
#
# Static dielectric constant tensor:
#      x y z
#    x 4.255000 0.000000 0.000000 
#    y 0.000000 4.285110 0.000000 
#    z 0.000000 0.000000 4.362390 
# 
# 
# High freq. dielectric constant tensor:
#      x y z
#    x 1.897210 0.000000 0.000000 
#    y 0.000000 1.897180 0.000000 
#    z 0.000000 0.000000 1.922560 
# 
# From -- ./inp_files/43355.got.cif
#   From: 2010.03.12/outbox.cif.g09.slc.cpg/sg68_22_cif.got.tgz:43355.got - 2010.04.10 23:14:56.
