data_PCOD8281430
_publ_section_title
;
Structure prediction by ZEFSAII (Michael W. Deem and Ramdas Pophale) SiO2 
 PCOD8281430
Probable space group: C M M A
;
_chemical_formula_sum "Si O2"
_cell_formula_units_Z 112
_cell_length_a 14.985494
_cell_length_b 17.450133
_cell_length_c 20.928419
_cell_angle_alpha 90.000000
_cell_angle_beta 90.000000
_cell_angle_gamma 90.000000
_cell_volume 5472.757781
_symmetry_space_group_name_H-M "C M M A"
_symmetry_group_IT_number 67
_symmetry_cell_setting 'orthorhombic'
loop_
_space_group_symop_operation_xyz
x,y,z
-x,1/2-y,z
x,-y,-z
-x,1/2+y,-z
-x,-y,-z
x,1/2+y,-z
-x,y,z
x,1/2-y,z
1/2+x,1/2+y,z
1/2-x,-y,z
1/2+x,1/2-y,-z
1/2-x,y,-z
1/2-x,1/2-y,-z
1/2+x,y,-z
1/2-x,1/2+y,z
1/2+x,-y,z
loop_
_atom_site_type_symbol
_atom_site_label
_atom_site_fract_x
_atom_site_fract_y
_atom_site_fract_z
Si Si1 0.102060 0.577961 0.581693
Si Si2 0.644934 0.912209 0.005757
Si Si3 0.101398 0.662046 0.860861
Si Si4 0.245632 0.338175 0.653703
Si Si5 0.258119 0.090143 0.213239
Si Si6 0.397934 0.098730 0.436149
Si Si7 0.399823 0.337589 0.122581
O O1 0.164527 0.619781 0.632013
O O2 0.124270 0.488185 0.582922
O O3 0.119709 0.611280 0.511153
O O4 0.000000 0.592366 0.601864
O O5 0.611734 0.882254 0.073201
O O6 0.750000 0.903158 0.000000
O O7 0.598756 0.862049 0.951179
O O8 0.614659 0.000000 0.000000
O O9 0.129398 0.750000 0.871233
O O10 0.163234 0.624822 0.806923
O O11 0.000000 0.654945 0.836483
O O12 0.268874 0.250000 0.663891
O O13 0.211657 0.374106 0.719755
O O14 0.166793 0.345347 0.602178
O O15 0.333624 0.107785 0.161142
O O16 0.250000 0.000000 0.220058
O O17 0.500000 0.119002 0.419339
O O18 0.500000 0.346061 0.149995
O O19 0.366864 0.250000 0.128404
#
# Coordination Sequence:
#
# PCOD8281430 Si02
#       7
#    16  16  16  16  16  16  16
#     4   9  19  38  64  92 122 158 201 248 296 349
#     4  11  22  37  62  95 126 159 198 245 297 351
#     4  11  24  42  65  92 122 157 197 247 307 362
#     4  12  25  39  59  88 124 163 200 245 301 357
#     4  12  26  44  64  86 116 160 207 251 298 354
#     4   9  19  38  64  92 122 158 201 248 296 349
#     4  11  24  42  65  92 122 157 197 247 307 362
#
# _framework density 20.465001999999998
#
# number of rings (size 3 to 8) (size 9 to 14) (size 15 to 20)
#    0.000    1.286    1.429    5.571    0.000    8.571 
#    0.000    1.429    0.000    0.000    0.000    0.000 
#    0.000    0.000    0.000    0.000    0.000    0.000 
#
# Total GULP energy -694759.208751 kJ/mol
# GULP energy per Si atom -12406.414442 kJ/mol
# Density = 2.041842 g / cm^3
# Si number density = 20.465002 Si / 1000 Ang^3
#
#
#
# Elastic Constant Matrix: (Units=GPa)
#
#
# Indices 1 2 3 4 5 6 
#
# 1 86.0948 20.0483 15.4523 0.0000 0.0000 0.0000
# 2 20.0483 92.9357 12.0839 0.0000 0.0000 0.0000
# 3 15.4523 12.0839 66.7344 0.0000 0.0000 0.0000
# 4 0.0000 0.0000 0.0000 27.4577 0.0000 0.0000
# 5 0.0000 0.0000 0.0000 0.0000 11.9780 0.0000
# 6 0.0000 0.0000 0.0000 0.0000 0.0000 16.0369
#
#
#
# Elastic Compliance Matrix: (Units=1/GPa)
#
#
# Indices 1 2 3 4 5 6 
#
# 1 0.012620 -0.002399 -0.002488 0.000000 0.000000 0.000000
# 2 -0.002399 0.011476 -0.001522 0.000000 0.000000 0.000000
# 3 -0.002488 -0.001522 0.015837 0.000000 0.000000 0.000000
# 4 0.000000 0.000000 0.000000 0.036420 0.000000 0.000000
# 5 0.000000 0.000000 0.000000 0.000000 0.083486 0.000000
# 6 0.000000 0.000000 0.000000 0.000000 0.000000 0.062356
#
#
# Mechanical properties :
#
#
# Convention : Reuss Voigt Hill
#
# Bulk Modulus (GPa) = 36.88154 37.88155 37.38155
# Shear Modulus (GPa) = 20.48755 24.30656 22.39706
#
# Velocity S-wave (km/s) = 3.16745 3.45006 3.31177
# Velocity P-wave (km/s) = 5.60695 5.86695 5.73842
#
# Compressibility (1/GPa) = 0.02711383
#
# Stress axis : x y z
#
# Youngs Moduli (GPa) = 79.23774 87.14140 63.14521
#
# Poissons Ratio (x) = 0.20905 0.15709
# Poissons Ratio (y) = 0.19009 0.09614
# Poissons Ratio (z) = 0.19713 0.13267
#
# Static dielectric constant tensor:
#      x y z
#    x 4.158990 0.000000 0.000000 
#    y 0.000000 3.635990 0.000000 
#    z 0.000000 0.000000 3.611060 
# 
# 
# High freq. dielectric constant tensor:
#      x y z
#    x 1.812410 0.000000 0.000000 
#    y 0.000000 1.804470 0.000000 
#    z 0.000000 0.000000 1.795130 
# 
# From -- ./inp_files/42025.got.cif
#   From: 2010.03.12/outbox.cif.g09.slc.cpg/sg67_22_cif.got.tgz:42025.got - 2010.04.10 22:41:39.
