data_PCOD8281491
_publ_section_title
;
Structure prediction by ZEFSAII (Michael W. Deem and Ramdas Pophale) SiO2 
 PCOD8281491
Probable space group: C M M A
;
_chemical_formula_sum "Si O2"
_cell_formula_units_Z 128
_cell_length_a 18.333691
_cell_length_b 18.027390
_cell_length_c 20.283767
_cell_angle_alpha 90.000000
_cell_angle_beta 90.000000
_cell_angle_gamma 90.000000
_cell_volume 6703.959389
_symmetry_space_group_name_H-M "C M M A"
_symmetry_group_IT_number 67
_symmetry_cell_setting 'orthorhombic'
loop_
_space_group_symop_operation_xyz
x,y,z
-x,1/2-y,z
x,-y,-z
-x,1/2+y,-z
-x,-y,-z
x,1/2+y,-z
-x,y,z
x,1/2-y,z
1/2+x,1/2+y,z
1/2-x,-y,z
1/2+x,1/2-y,-z
1/2-x,y,-z
1/2-x,1/2-y,-z
1/2+x,y,-z
1/2-x,1/2+y,z
1/2+x,-y,z
loop_
_atom_site_type_symbol
_atom_site_label
_atom_site_fract_x
_atom_site_fract_y
_atom_site_fract_z
Si Si1 0.164180 0.332162 0.500252
Si Si2 0.205532 0.834799 0.279382
Si Si3 0.316949 0.167427 0.133157
Si Si4 0.836345 0.917349 0.008644
Si Si5 0.675954 0.951849 0.608035
Si Si6 0.876118 0.334622 0.257411
Si Si7 0.644595 0.332924 0.884675
Si Si8 0.918289 0.908126 0.614714
O O1 0.132081 0.250000 0.519665
O O2 0.250000 0.323405 0.500000
O O3 0.147820 0.400233 0.548573
O O4 0.133176 0.354355 0.428631
O O5 0.184208 0.750000 0.300887
O O6 0.167702 0.854544 0.209192
O O7 0.180609 0.897514 0.329871
O O8 0.291681 0.840501 0.275303
O O9 0.346565 0.250000 0.119312
O O10 0.357340 0.112871 0.081471
O O11 0.231202 0.165565 0.121716
O O12 0.750000 0.910116 0.000000
O O13 0.879426 0.874891 0.950727
O O14 0.864115 0.000000 0.000000
O O15 0.750000 0.000000 0.594387
O O16 0.610503 0.008461 0.617750
O O17 0.902274 0.250000 0.259440
O O18 0.888930 0.366952 0.183178
O O19 0.922093 0.380057 0.310203
O O20 0.615674 0.250000 0.892444
O O21 0.000000 0.907698 0.585329
#
# Coordination Sequence:
#
# PCOD8281491 Si02
#       8
#    16  16  16  16  16  16  16  16
#     4  11  23  40  63  86 110 147 194 233 271 330
#     4   9  17  32  54  81 106 141 192 234 274 331
#     4   8  14  24  39  61  96 136 176 226 273 318
#     4   9  15  21  30  56  94 138 179 219 268 325
#     4  12  22  37  60  85 112 148 181 231 284 335
#     4   9  17  32  52  76 106 142 186 231 275 332
#     4   8  14  24  40  59  89 136 182 217 260 325
#     4  12  26  40  58  86 119 150 183 230 290 345
#
# _framework density 19.093194
#
# number of rings (size 3 to 8) (size 9 to 14) (size 15 to 20)
#    0.000    2.250    2.500    3.000    0.000    6.500 
#    2.250    0.000    0.000    1.125    0.000    0.000 
#    0.000    4.500    0.000    7.125    0.000    3.000 
#
# Total GULP energy -792951.842552 kJ/mol
# GULP energy per Si atom -12389.872540 kJ/mol
# Density = 1.904974 g / cm^3
# Si number density = 19.093194 Si / 1000 Ang^3
#
#
#
# Elastic Constant Matrix: (Units=GPa)
#
#
# Indices 1 2 3 4 5 6 
#
# 1 44.0412 23.6744 20.3016 0.0000 0.0000 0.0000
# 2 23.6744 120.8661 63.0654 0.0000 0.0000 0.0000
# 3 20.3016 63.0654 124.3858 0.0000 0.0000 0.0000
# 4 0.0000 0.0000 0.0000 10.4821 0.0000 0.0000
# 5 0.0000 0.0000 0.0000 0.0000 7.5840 0.0000
# 6 0.0000 0.0000 0.0000 0.0000 0.0000 -14.3171
#
#
#
# Elastic Compliance Matrix: (Units=1/GPa)
#
#
# Indices 1 2 3 4 5 6 
#
# 1 0.025831 -0.003888 -0.002244 0.000000 0.000000 0.000000
# 2 -0.003888 0.011835 -0.005366 0.000000 0.000000 0.000000
# 3 -0.002244 -0.005366 0.011126 0.000000 0.000000 0.000000
# 4 0.000000 0.000000 0.000000 0.095401 0.000000 0.000000
# 5 0.000000 0.000000 0.000000 0.000000 0.131857 0.000000
# 6 0.000000 0.000000 0.000000 0.000000 0.000000 -0.069847
#
#
# Mechanical properties :
#
#
# Convention : Reuss Voigt Hill
#
# Bulk Modulus (GPa) = 38.76760 55.93065 47.34913
# Shear Modulus (GPa) = 21.02618 12.89992 16.96305
#
# Velocity S-wave (km/s) = 3.32209 2.60211 2.98390
# Velocity P-wave (km/s) = 5.92145 6.19557 6.06006
#
# Compressibility (1/GPa) = 0.02579474
#
# Stress axis : x y z
#
# Youngs Moduli (GPa) = 38.71329 84.49462 89.87620
#
# Poissons Ratio (x) = 0.32855 0.20173
# Poissons Ratio (y) = 0.15054 0.48227
# Poissons Ratio (z) = 0.08689 0.45339
#
# Static dielectric constant tensor:
#      x y z
#    x 2.848290 0.000000 0.000000 
#    y 0.000000 3.794170 0.000000 
#    z 0.000000 0.000000 4.056840 
# 
# 
# High freq. dielectric constant tensor:
#      x y z
#    x 1.669670 0.000000 0.000000 
#    y 0.000000 1.748690 0.000000 
#    z 0.000000 0.000000 1.759550 
# 
# From -- ./inp_files/39424.got.cif
#   From: 2010.03.12/outbox.cif.g09.slc.cpg/sg67_20_cif.got.tgz:39424.got - 2010.04.10 22:41:39.
