data_PCOD8281363
_publ_section_title
;
Structure prediction by ZEFSAII (Michael W. Deem and Ramdas Pophale) SiO2 
 PCOD8281363
Probable space group: C M M A
;
_chemical_formula_sum "Si O2"
_cell_formula_units_Z 96
_cell_length_a 26.453152
_cell_length_b 9.601706
_cell_length_c 21.856491
_cell_angle_alpha 90.000000
_cell_angle_beta 90.000000
_cell_angle_gamma 90.000000
_cell_volume 5551.447918
_symmetry_space_group_name_H-M "C M M A"
_symmetry_group_IT_number 67
_symmetry_cell_setting 'orthorhombic'
loop_
_space_group_symop_operation_xyz
x,y,z
-x,1/2-y,z
x,-y,-z
-x,1/2+y,-z
-x,-y,-z
x,1/2+y,-z
-x,y,z
x,1/2-y,z
1/2+x,1/2+y,z
1/2-x,-y,z
1/2+x,1/2-y,-z
1/2-x,y,-z
1/2-x,1/2-y,-z
1/2+x,y,-z
1/2-x,1/2+y,z
1/2+x,-y,z
loop_
_atom_site_type_symbol
_atom_site_label
_atom_site_fract_x
_atom_site_fract_y
_atom_site_fract_z
Si Si1 0.652530 0.517359 0.862254
Si Si2 0.701442 0.750000 0.085206
Si Si3 0.056342 0.088436 0.198097
Si Si4 0.318680 0.750000 0.947191
Si Si5 0.615381 0.089085 0.680096
Si Si6 0.300204 0.090156 0.263195
Si Si7 0.058066 0.911017 0.557016
O O1 0.685665 0.381002 0.874490
O O2 0.593917 0.485184 0.849457
O O3 0.653888 0.613392 0.921905
O O4 0.676684 0.594842 0.804559
O O5 0.760910 0.750000 0.074405
O O6 0.673871 0.750000 0.019799
O O7 0.056301 0.250000 0.181723
O O8 0.073728 0.064444 0.267637
O O9 0.000000 0.025606 0.190524
O O10 0.633907 0.250000 0.681602
O O11 0.590747 0.049059 0.615826
O O12 0.662024 0.985301 0.689738
O O13 0.290262 0.250000 0.283824
O O14 0.250000 0.000000 0.263909
O O15 0.064250 0.750000 0.539958
O O16 0.000000 0.948190 0.571487
O O17 0.078493 0.000000 0.500000
#
# Coordination Sequence:
#
# PCOD8281363 Si02
#       7
#    16   8  16   8  16  16  16
#     4  11  21  35  54  79 103 135 173 213 261 314
#     4  11  22  36  55  77 101 143 169 208 256 322
#     4   9  17  32  55  77 100 135 176 215 255 306
#     4  11  22  36  53  77 111 131 169 212 266 310
#     4   9  18  32  52  78 106 137 178 217 258 305
#     4  11  22  34  53  77 107 138 169 212 263 315
#     4   9  17  30  50  77 109 145 180 216 259 308
#
# _framework density 17.292787000000001
#
# number of rings (size 3 to 8) (size 9 to 14) (size 15 to 20)
#    0.000    2.000    1.667    3.000    2.333    4.000 
#    0.000    0.417    0.000    4.500    0.000    3.500 
#    0.000    0.000    0.000    0.000    0.000    0.000 
#
# Total GULP energy -595264.386164 kJ/mol
# GULP energy per Si atom -12401.341378 kJ/mol
# Density = 1.725343 g / cm^3
# Si number density = 17.292787 Si / 1000 Ang^3
#
#
#
# Elastic Constant Matrix: (Units=GPa)
#
#
# Indices 1 2 3 4 5 6 
#
# 1 109.9895 40.0500 35.6280 0.0000 0.0000 0.0000
# 2 40.0500 88.1410 28.3971 0.0000 0.0000 0.0000
# 3 35.6280 28.3971 85.9105 0.0000 0.0000 0.0000
# 4 0.0000 0.0000 0.0000 26.8408 0.0000 0.0000
# 5 0.0000 0.0000 0.0000 0.0000 26.9735 0.0000
# 6 0.0000 0.0000 0.0000 0.0000 0.0000 18.3998
#
#
#
# Elastic Compliance Matrix: (Units=1/GPa)
#
#
# Indices 1 2 3 4 5 6 
#
# 1 0.011756 -0.004220 -0.003480 0.000000 0.000000 0.000000
# 2 -0.004220 0.014213 -0.002948 0.000000 0.000000 0.000000
# 3 -0.003480 -0.002948 0.014058 0.000000 0.000000 0.000000
# 4 0.000000 0.000000 0.000000 0.037257 0.000000 0.000000
# 5 0.000000 0.000000 0.000000 0.000000 0.037073 0.000000
# 6 0.000000 0.000000 0.000000 0.000000 0.000000 0.054348
#
#
# Mechanical properties :
#
#
# Convention : Reuss Voigt Hill
#
# Bulk Modulus (GPa) = 53.39139 54.68791 54.03965
# Shear Modulus (GPa) = 25.47838 26.44056 25.95947
#
# Velocity S-wave (km/s) = 3.84259 3.91448 3.87870
# Velocity P-wave (km/s) = 7.11543 7.21971 7.16776
#
# Compressibility (1/GPa) = 0.01872961
#
# Stress axis : x y z
#
# Youngs Moduli (GPa) = 85.06379 70.35888 71.13560
#
# Poissons Ratio (x) = 0.29695 0.24757
# Poissons Ratio (y) = 0.35901 0.20969
# Poissons Ratio (z) = 0.29604 0.20740
#
# Static dielectric constant tensor:
#      x y z
#    x 3.247640 0.000000 0.000000 
#    y 0.000000 3.205430 0.000000 
#    z 0.000000 0.000000 3.178860 
# 
# 
# High freq. dielectric constant tensor:
#      x y z
#    x 1.658540 0.000000 0.000000 
#    y 0.000000 1.670790 0.000000 
#    z 0.000000 0.000000 1.657150 
# 
# From -- ./inp_files/42712.got.cif
#   From: 2010.03.12/outbox.cif.g09.slc.cpg/sg67_22_cif.got.tgz:42712.got - 2010.04.10 22:41:39.
