data_PCOD8281808
_publ_section_title
;
Structure prediction by ZEFSAII (Michael W. Deem and Ramdas Pophale) SiO2 
 PCOD8281808
Probable space group: C C C A
;
_chemical_formula_sum "Si O2"
_cell_formula_units_Z 84
_cell_length_a 10.710275
_cell_length_b 21.732144
_cell_length_c 18.323165
_cell_angle_alpha 90.000000
_cell_angle_beta 90.000000
_cell_angle_gamma 90.000000
_cell_volume 4264.849287
_symmetry_space_group_name_H-M "C C C A"
_symmetry_group_IT_number 68
_space_group.IT_coordinate_system_code '2'
_symmetry_cell_setting 'orthorhombic'
loop_
_space_group_symop_operation_xyz
x,y,z
-x,1/2-y,z
x,1/2-y,1/2-z
-x,y,1/2-z
-x,-y,-z
x,1/2+y,-z
-x,1/2+y,1/2+z
x,-y,1/2+z
1/2+x,1/2+y,z
1/2-x,-y,z
1/2+x,-y,1/2-z
1/2-x,1/2+y,1/2-z
1/2-x,1/2-y,-z
1/2+x,y,-z
1/2-x,y,1/2+z
1/2+x,1/2-y,1/2+z
loop_
_atom_site_type_symbol
_atom_site_label
_atom_site_fract_x
_atom_site_fract_y
_atom_site_fract_z
Si Si1 0.000000 0.250000 0.250000
Si Si2 0.724506 0.865396 0.144390
Si Si3 0.360892 0.256091 0.336518
Si Si4 0.514224 0.076938 0.915626
Si Si5 0.674845 0.649692 0.190440
Si Si6 0.631216 0.539459 0.939219
O O1 0.918016 0.292035 0.196504
O O2 0.774052 0.796868 0.129031
O O3 0.601930 0.876205 0.094538
O O4 0.696465 0.877479 0.229245
O O5 0.830890 0.914253 0.124538
O O6 0.500000 0.250000 0.369982
O O7 0.365417 0.250000 0.250000
O O8 0.299239 0.323501 0.350045
O O9 0.620552 0.094297 0.857455
O O10 0.470150 0.006589 0.903549
O O11 0.571645 0.080711 0.996525
O O12 0.750000 0.500000 0.968717
#
# Coordination Sequence:
#
# PCOD8281808 Si02
#       6
#     4  16  16  16  16  16
#     4  12  16  32  62  96 120 144 184 260 318 336
#     4  10  18  36  63  83 116 151 192 250 296 346
#     4   9  18  34  57  85 119 151 181 236 314 362
#     4  10  19  37  60  84 111 156 203 237 292 357
#     4  11  18  33  64  92 114 150 197 248 299 358
#     4   9  21  39  58  77 121 163 190 240 301 349
#
# _framework density 19.695889000000001
#
# number of rings (size 3 to 8) (size 9 to 14) (size 15 to 20)
#    0.000    2.095    4.762    0.000    0.000    0.000 
#   10.286    5.714   35.619    0.000    0.000    0.000 
#    0.000    0.000    0.000    0.000    0.000    0.000 
#
# Total GULP energy -520576.635737 kJ/mol
# GULP energy per Si atom -12394.681803 kJ/mol
# Density = 1.965106 g / cm^3
# Si number density = 19.695889 Si / 1000 Ang^3
#
#
#
# Elastic Constant Matrix: (Units=GPa)
#
#
# Indices 1 2 3 4 5 6 
#
# 1 119.8612 61.0420 62.5670 0.0000 0.0000 0.0000
# 2 61.0420 93.9810 72.6146 0.0000 0.0000 0.0000
# 3 62.5670 72.6146 92.5567 0.0000 0.0000 0.0000
# 4 0.0000 0.0000 0.0000 25.8284 0.0000 0.0000
# 5 0.0000 0.0000 0.0000 0.0000 23.7514 0.0000
# 6 0.0000 0.0000 0.0000 0.0000 0.0000 38.3604
#
#
#
# Elastic Compliance Matrix: (Units=1/GPa)
#
#
# Indices 1 2 3 4 5 6 
#
# 1 0.013568 -0.004383 -0.005733 0.000000 0.000000 0.000000
# 2 -0.004383 0.028434 -0.019345 0.000000 0.000000 0.000000
# 3 -0.005733 -0.019345 0.029857 0.000000 0.000000 0.000000
# 4 0.000000 0.000000 0.000000 0.038717 0.000000 0.000000
# 5 0.000000 0.000000 0.000000 0.000000 0.042103 0.000000
# 6 0.000000 0.000000 0.000000 0.000000 0.000000 0.026069
#
#
# Mechanical properties :
#
#
# Convention : Reuss Voigt Hill
#
# Bulk Modulus (GPa) = 77.29976 77.64955 77.47465
# Shear Modulus (GPa) = 20.66278 24.93306 22.79792
#
# Velocity S-wave (km/s) = 3.24248 3.56181 3.40589
# Velocity P-wave (km/s) = 7.30411 7.51167 7.40862
#
# Compressibility (1/GPa) = 0.01293665
#
# Stress axis : x y z
#
# Youngs Moduli (GPa) = 73.70490 35.16907 33.49318
#
# Poissons Ratio (x) = 0.15413 0.19202
# Poissons Ratio (y) = 0.32302 0.64793
# Poissons Ratio (z) = 0.42256 0.68035
#
# Static dielectric constant tensor:
#      x y z
#    x 4.146620 0.000000 0.000000 
#    y 0.000000 3.614250 0.000000 
#    z 0.000000 0.000000 3.240600 
# 
# 
# High freq. dielectric constant tensor:
#      x y z
#    x 1.783410 0.000000 0.000000 
#    y 0.000000 1.761130 0.000000 
#    z 0.000000 0.000000 1.728230 
# 
# From -- ./inp_files/29584.got.cif
#   From: 2010.03.12/outbox.cif.g09.slc.cpg/sg68_15_cif.got.tgz:29584.got - 2010.04.10 23:14:56.
