data_PCOD8281592
_publ_section_title
;
Structure prediction by ZEFSAII (Michael W. Deem and Ramdas Pophale) SiO2 
 PCOD8281592
Probable space group: C M M A
;
_chemical_formula_sum "Si O2"
_cell_formula_units_Z 80
_cell_length_a 14.260966
_cell_length_b 10.332029
_cell_length_c 23.429362
_cell_angle_alpha 90.000000
_cell_angle_beta 90.000000
_cell_angle_gamma 90.000000
_cell_volume 3452.192650
_symmetry_space_group_name_H-M "C M M A"
_symmetry_group_IT_number 67
_symmetry_cell_setting 'orthorhombic'
loop_
_space_group_symop_operation_xyz
x,y,z
-x,1/2-y,z
x,-y,-z
-x,1/2+y,-z
-x,-y,-z
x,1/2+y,-z
-x,y,z
x,1/2-y,z
1/2+x,1/2+y,z
1/2-x,-y,z
1/2+x,1/2-y,-z
1/2-x,y,-z
1/2-x,1/2-y,-z
1/2+x,y,-z
1/2-x,1/2+y,z
1/2+x,-y,z
loop_
_atom_site_type_symbol
_atom_site_label
_atom_site_fract_x
_atom_site_fract_y
_atom_site_fract_z
Si Si1 0.110037 0.396239 0.658293
Si Si2 0.611666 0.750000 0.047011
Si Si3 0.349111 0.387951 0.467697
Si Si4 0.388193 0.750000 0.918568
Si Si5 0.111501 0.021991 0.127377
Si Si6 0.111607 0.395671 0.250804
O O1 0.128309 0.250000 0.681265
O O2 0.164115 0.420735 0.598948
O O3 0.150149 0.500517 0.703378
O O4 0.000000 0.418027 0.647252
O O5 0.500000 0.750000 0.045488
O O6 0.648574 0.622505 0.079812
O O7 0.652003 0.750000 0.982917
O O8 0.408591 0.500000 0.500000
O O9 0.401997 0.250000 0.473094
O O10 0.250000 0.379373 0.500000
O O11 0.500000 0.750000 0.919580
O O12 0.350541 0.621801 0.886569
O O13 0.151066 0.064630 0.188856
O O14 0.000000 0.023280 0.127756
O O15 0.145438 0.250000 0.266633
O O16 0.000000 0.401169 0.249522
#
# Coordination Sequence:
#
# PCOD8281592 Si02
#       6
#    16   8  16   8  16  16
#     4   9  18  30  45  66  90 115 147 188 228 267
#     4   9  14  22  30  40  62  92 130 180 230 274
#     4   9  18  33  51  70  93 120 147 178 217 268
#     4   9  16  20  28  44  62  90 132 180 230 276
#     4   9  15  22  31  44  64  94 133 179 229 275
#     4   9  16  26  38  53  76 107 142 182 231 280
#
# _framework density 23.173677000000001
#
# number of rings (size 3 to 8) (size 9 to 14) (size 15 to 20)
#    0.000    3.000    1.000    0.600    1.400    3.600 
#    0.000    0.000    0.000    0.000    0.000    0.000 
#    0.000    0.000    0.000    0.000    0.000    0.000 
#
# Total GULP energy -495680.156494 kJ/mol
# GULP energy per Si atom -12392.003912 kJ/mol
# Density = 2.312093 g / cm^3
# Si number density = 23.173677 Si / 1000 Ang^3
#
#
#
# Elastic Constant Matrix: (Units=GPa)
#
#
# Indices 1 2 3 4 5 6 
#
# 1 27.3082 -9.1337 4.2575 0.0000 0.0000 0.0000
# 2 -9.1337 256.9057 123.2013 0.0000 0.0000 0.0000
# 3 4.2575 123.2013 192.1560 0.0000 0.0000 0.0000
# 4 0.0000 0.0000 0.0000 54.3815 0.0000 0.0000
# 5 0.0000 0.0000 0.0000 0.0000 -15.4311 0.0000
# 6 0.0000 0.0000 0.0000 0.0000 0.0000 -10.2692
#
#
#
# Elastic Compliance Matrix: (Units=1/GPa)
#
#
# Indices 1 2 3 4 5 6 
#
# 1 0.037846 0.002524 -0.002457 0.000000 0.000000 0.000000
# 2 0.002524 0.005789 -0.003768 0.000000 0.000000 0.000000
# 3 -0.002457 -0.003768 0.007674 0.000000 0.000000 0.000000
# 4 0.000000 0.000000 0.000000 0.018389 0.000000 0.000000
# 5 0.000000 0.000000 0.000000 0.000000 -0.064804 0.000000
# 6 0.000000 0.000000 0.000000 0.000000 0.000000 -0.097379
#
#
# Mechanical properties :
#
#
# Convention : Reuss Voigt Hill
#
# Bulk Modulus (GPa) = 22.77483 79.22448 50.99965
# Shear Modulus (GPa) = -70.97408 29.60590 -20.68409
#
# Velocity S-wave (km/s) = -5.54017 3.57818 -2.99083
# Velocity P-wave (km/s) = 5.57454 7.16468 3.18255
#
# Compressibility (1/GPa) = 0.04390812
#
# Stress axis : x y z
#
# Youngs Moduli (GPa) = 26.42286 172.74330 130.30884
#
# Poissons Ratio (x) = -0.43593 0.32011
# Poissons Ratio (y) = -0.06668 0.49094
# Poissons Ratio (z) = 0.06491 0.65081
#
# Static dielectric constant tensor:
#      x y z
#    x 3.429100 0.000000 0.000000 
#    y 0.000000 6.190940 0.000000 
#    z 0.000000 0.000000 4.272080 
# 
# 
# High freq. dielectric constant tensor:
#      x y z
#    x 1.873600 0.000000 0.000000 
#    y 0.000000 1.936310 0.000000 
#    z 0.000000 0.000000 1.915270 
# 
# From -- ./inp_files/34818.got.cif
#   From: 2010.03.12/outbox.cif.g09.slc.cpg/sg67_18_cif.got.tgz:34818.got - 2010.04.10 22:41:39.
