data_PCOD8281329
_publ_section_title
;
Structure prediction by ZEFSAII (Michael W. Deem and Ramdas Pophale) SiO2 
 PCOD8281329
Probable space group: C M M A
;
_chemical_formula_sum "Si O2"
_cell_formula_units_Z 112
_cell_length_a 28.279070
_cell_length_b 18.046719
_cell_length_c 12.612644
_cell_angle_alpha 90.000000
_cell_angle_beta 90.000000
_cell_angle_gamma 90.000000
_cell_volume 6436.792611
_symmetry_space_group_name_H-M "C M M A"
_symmetry_group_IT_number 67
_symmetry_cell_setting 'orthorhombic'
loop_
_space_group_symop_operation_xyz
x,y,z
-x,1/2-y,z
x,-y,-z
-x,1/2+y,-z
-x,-y,-z
x,1/2+y,-z
-x,y,z
x,1/2-y,z
1/2+x,1/2+y,z
1/2-x,-y,z
1/2+x,1/2-y,-z
1/2-x,y,-z
1/2-x,1/2-y,-z
1/2+x,y,-z
1/2-x,1/2+y,z
1/2+x,-y,z
loop_
_atom_site_type_symbol
_atom_site_label
_atom_site_fract_x
_atom_site_fract_y
_atom_site_fract_z
Si Si1 0.198511 0.996417 0.326852
Si Si2 0.102969 0.071219 0.723162
Si Si3 0.444519 0.163845 0.098458
Si Si4 0.056008 0.168576 0.139917
Si Si5 0.300309 0.880572 0.483334
Si Si6 0.055673 0.575921 0.663714
Si Si7 0.397741 0.668137 0.521474
O O1 0.154927 0.965625 0.255823
O O2 0.200577 0.943198 0.427256
O O3 0.250000 0.000000 0.267110
O O4 0.189999 0.079698 0.369822
O O5 0.084944 0.105578 0.832597
O O6 0.100182 0.138205 0.640466
O O7 0.068502 0.009855 0.673118
O O8 0.500000 0.150898 0.118742
O O9 0.431805 0.250000 0.122220
O O10 0.429977 0.142856 0.978195
O O11 0.077128 0.250000 0.162581
O O12 0.076225 0.114392 0.229831
O O13 0.000000 0.172019 0.146719
O O14 0.250000 0.838724 0.500000
O O15 0.342346 0.822367 0.495083
O O16 0.077491 0.611749 0.558715
O O17 0.000000 0.585347 0.654218
O O18 0.421217 0.750000 0.515367
#
# Coordination Sequence:
#
# PCOD8281329 Si02
#       7
#    16  16  16  16  16  16  16
#     4   8  14  27  48  69  94 125 160 200 249 293
#     4  11  20  32  49  74 103 130 167 205 250 299
#     4   9  18  33  52  74 102 134 166 203 249 298
#     4   8  16  33  53  71  94 128 170 210 246 285
#     4   8  14  28  48  68  91 123 161 202 245 285
#     4  11  22  34  50  71  99 135 172 209 242 284
#     4  11  22  33  46  69 103 135 165 199 243 305
#
# _framework density 17.39997
#
# number of rings (size 3 to 8) (size 9 to 14) (size 15 to 20)
#    0.000    2.571    1.429    3.429    0.000    3.429 
#    0.000    2.143    0.000    0.000    0.000    2.000 
#    0.000    2.286    0.000    0.000    0.000    0.000 
#
# Total GULP energy -693778.407560 kJ/mol
# GULP energy per Si atom -12388.900135 kJ/mol
# Density = 1.736037 g / cm^3
# Si number density = 17.399970 Si / 1000 Ang^3
#
#
#
# Elastic Constant Matrix: (Units=GPa)
#
#
# Indices 1 2 3 4 5 6 
#
# 1 76.5624 15.6472 24.8197 0.0000 0.0000 0.0000
# 2 15.6472 61.3469 15.0161 0.0000 0.0000 0.0000
# 3 24.8197 15.0161 48.6940 0.0000 0.0000 0.0000
# 4 0.0000 0.0000 0.0000 18.2705 0.0000 0.0000
# 5 0.0000 0.0000 0.0000 0.0000 6.3037 0.0000
# 6 0.0000 0.0000 0.0000 0.0000 0.0000 17.8294
#
#
#
# Elastic Compliance Matrix: (Units=1/GPa)
#
#
# Indices 1 2 3 4 5 6 
#
# 1 0.015927 -0.002245 -0.007426 0.000000 0.000000 0.000000
# 2 -0.002245 0.017948 -0.004391 0.000000 0.000000 0.000000
# 3 -0.007426 -0.004391 0.025675 0.000000 0.000000 0.000000
# 4 0.000000 0.000000 0.000000 0.054733 0.000000 0.000000
# 5 0.000000 0.000000 0.000000 0.000000 0.158637 0.000000
# 6 0.000000 0.000000 0.000000 0.000000 0.000000 0.056087
#
#
# Mechanical properties :
#
#
# Convention : Reuss Voigt Hill
#
# Bulk Modulus (GPa) = 31.81870 33.06325 32.44097
# Shear Modulus (GPa) = 13.60150 17.22209 15.41179
#
# Velocity S-wave (km/s) = 2.79892 3.14949 2.97936
# Velocity P-wave (km/s) = 5.36391 5.68057 5.52451
#
# Compressibility (1/GPa) = 0.03142806
#
# Stress axis : x y z
#
# Youngs Moduli (GPa) = 62.78509 55.71654 38.94771
#
# Poissons Ratio (x) = 0.12507 0.28923
# Poissons Ratio (y) = 0.14094 0.17100
# Poissons Ratio (z) = 0.46625 0.24463
#
# Static dielectric constant tensor:
#      x y z
#    x 3.459130 0.000000 0.000000 
#    y 0.000000 3.188460 0.000000 
#    z 0.000000 0.000000 3.107860 
# 
# 
# High freq. dielectric constant tensor:
#      x y z
#    x 1.660850 0.000000 0.000000 
#    y 0.000000 1.670310 0.000000 
#    z 0.000000 0.000000 1.645110 
# 
# From -- ./inp_files/23130.got.cif
#   From: 2010.03.12/outbox.cif.g09.slc.cpg/sg67_12_cif.got.tgz:23130.got - 2010.04.10 22:41:39.
