data_PCOD8281972
_publ_section_title
;
Structure prediction by ZEFSAII (Michael W. Deem and Ramdas Pophale) SiO2 
 PCOD8281972
Probable space group: C C C A
;
_chemical_formula_sum "Si O2"
_cell_formula_units_Z 116
_cell_length_a 25.174200
_cell_length_b 8.628585
_cell_length_c 27.529822
_cell_angle_alpha 90.000000
_cell_angle_beta 90.000000
_cell_angle_gamma 90.000000
_cell_volume 5979.965291
_symmetry_space_group_name_H-M "C C C A"
_symmetry_group_IT_number 68
_space_group.IT_coordinate_system_code '2'
_symmetry_cell_setting 'orthorhombic'
loop_
_space_group_symop_operation_xyz
x,y,z
-x,1/2-y,z
x,1/2-y,1/2-z
-x,y,1/2-z
-x,-y,-z
x,1/2+y,-z
-x,1/2+y,1/2+z
x,-y,1/2+z
1/2+x,1/2+y,z
1/2-x,-y,z
1/2+x,-y,1/2-z
1/2-x,1/2+y,1/2-z
1/2-x,1/2-y,-z
1/2+x,y,-z
1/2-x,y,1/2+z
1/2+x,1/2-y,1/2+z
loop_
_atom_site_type_symbol
_atom_site_label
_atom_site_fract_x
_atom_site_fract_y
_atom_site_fract_z
Si Si1 0.915800 0.577760 0.805218
Si Si2 0.253744 0.682677 0.390007
Si Si3 0.868014 0.389088 0.718614
Si Si4 0.936984 0.219675 0.638795
Si Si5 0.677737 0.697069 0.196827
Si Si6 0.649969 0.273485 0.063795
Si Si7 0.194614 0.424406 0.479398
Si Si8 0.000000 0.750000 0.750000
O O1 0.896417 0.497252 0.756705
O O2 0.925038 0.460231 0.849584
O O3 0.876522 0.718199 0.819239
O O4 0.970862 0.646113 0.789184
O O5 0.250000 0.500000 0.385016
O O6 0.278921 0.756074 0.341827
O O7 0.195352 0.758641 0.395259
O O8 0.289228 0.707461 0.439179
O O9 0.840332 0.250000 0.750000
O O10 0.911654 0.325679 0.680983
O O11 0.826771 0.507562 0.692524
O O12 0.908235 0.254998 0.587504
O O13 0.000000 0.250000 0.634438
O O14 0.696960 0.750000 0.250000
O O15 0.656306 0.447304 0.044205
O O16 0.659067 0.151240 0.020975
O O17 0.250000 0.500000 0.498983
#
# Coordination Sequence:
#
# PCOD8281972 Si02
#       8
#    16  16  16  16  16  16  16   4
#     4  10  21  32  57  81 110 154 199 244 269 321
#     4   9  18  35  60  84 112 151 184 233 289 340
#     4   9  17  34  54  78 111 157 197 230 272 327
#     4  11  23  37  55  83 115 149 190 234 293 349
#     4  10  19  36  55  85 123 151 189 235 285 338
#     4  10  21  38  59  85 110 141 189 241 292 351
#     4   9  18  36  63  85 105 141 184 240 287 339
#     4  12  16  36  54  80 108 148 206 240 270 292
#
# _framework density 19.398105999999999
#
# number of rings (size 3 to 8) (size 9 to 14) (size 15 to 20)
#    0.000    2.483    2.069    4.138    0.000    4.138 
#    0.000    7.586    0.000    0.000    0.000    0.000 
#    0.000    0.000    0.000    0.000    0.000    0.000 
#
# Total GULP energy -718655.984964 kJ/mol
# GULP energy per Si atom -12390.620430 kJ/mol
# Density = 1.935396 g / cm^3
# Si number density = 19.398106 Si / 1000 Ang^3
#
#
#
# Elastic Constant Matrix: (Units=GPa)
#
#
# Indices 1 2 3 4 5 6 
#
# 1 82.7442 24.6521 55.2256 0.0000 0.0000 0.0000
# 2 24.6521 76.7882 23.6918 0.0000 0.0000 0.0000
# 3 55.2256 23.6918 75.8860 0.0000 0.0000 0.0000
# 4 0.0000 0.0000 0.0000 109.8736 0.0000 0.0000
# 5 0.0000 0.0000 0.0000 0.0000 21.5280 0.0000
# 6 0.0000 0.0000 0.0000 0.0000 0.0000 0.3136
#
#
#
# Elastic Compliance Matrix: (Units=1/GPa)
#
#
# Indices 1 2 3 4 5 6 
#
# 1 0.023945 -0.002557 -0.016627 0.000000 0.000000 0.000000
# 2 -0.002557 0.014684 -0.002723 0.000000 0.000000 0.000000
# 3 -0.016627 -0.002723 0.026128 0.000000 0.000000 0.000000
# 4 0.000000 0.000000 0.000000 0.009101 0.000000 0.000000
# 5 0.000000 0.000000 0.000000 0.000000 0.046451 0.000000
# 6 0.000000 0.000000 0.000000 0.000000 0.000000 3.189242
#
#
# Mechanical properties :
#
#
# Convention : Reuss Voigt Hill
#
# Bulk Modulus (GPa) = 47.75240 49.17306 48.46273
# Shear Modulus (GPa) = 1.48794 35.13295 18.31044
#
# Velocity S-wave (km/s) = 0.87677 4.26038 3.07568
# Velocity P-wave (km/s) = 5.06907 7.04312 6.13600
#
# Compressibility (1/GPa) = 0.02094136
#
# Stress axis : x y z
#
# Youngs Moduli (GPa) = 41.76259 68.10107 38.27244
#
# Poissons Ratio (x) = 0.17414 0.63637
# Poissons Ratio (y) = 0.10679 0.10423
# Poissons Ratio (z) = 0.69440 0.18547
#
# Static dielectric constant tensor:
#      x y z
#    x 3.321220 0.000000 0.000000 
#    y 0.000000 3.902270 0.000000 
#    z 0.000000 0.000000 4.121930 
# 
# 
# High freq. dielectric constant tensor:
#      x y z
#    x 1.729690 0.000000 0.000000 
#    y 0.000000 1.756910 0.000000 
#    z 0.000000 0.000000 1.748660 
# 
# From -- ./inp_files/52192.got.cif
#   From: 2010.03.12/outbox.cif.g09.slc.cpg/sg68_27_cif.got.tgz:52192.got - 2010.04.10 23:14:56.
