data_PCOD8281447
_publ_section_title
;
Structure prediction by ZEFSAII (Michael W. Deem and Ramdas Pophale) SiO2 
 PCOD8281447
Probable space group: C M M A
;
_chemical_formula_sum "Si O2"
_cell_formula_units_Z 88
_cell_length_a 19.805466
_cell_length_b 9.625801
_cell_length_c 23.257003
_cell_angle_alpha 90.000000
_cell_angle_beta 90.000000
_cell_angle_gamma 90.000000
_cell_volume 4433.795857
_symmetry_space_group_name_H-M "C M M A"
_symmetry_group_IT_number 67
_symmetry_cell_setting 'orthorhombic'
loop_
_space_group_symop_operation_xyz
x,y,z
-x,1/2-y,z
x,-y,-z
-x,1/2+y,-z
-x,-y,-z
x,1/2+y,-z
-x,y,z
x,1/2-y,z
1/2+x,1/2+y,z
1/2-x,-y,z
1/2+x,1/2-y,-z
1/2-x,y,-z
1/2-x,1/2-y,-z
1/2+x,y,-z
1/2-x,1/2+y,z
1/2+x,-y,z
loop_
_atom_site_type_symbol
_atom_site_label
_atom_site_fract_x
_atom_site_fract_y
_atom_site_fract_z
Si Si1 0.500000 0.095343 0.557518
Si Si2 0.373120 0.999907 0.381014
Si Si3 0.079658 0.407737 0.052009
Si Si4 0.181696 0.590013 0.262562
Si Si5 0.077773 0.410660 0.838120
Si Si6 0.305221 0.250000 0.577775
Si Si7 0.154300 0.750000 0.457519
O O1 0.500000 0.250000 0.531634
O O2 0.500000 0.000000 0.500000
O O3 0.441187 0.079948 0.605139
O O4 0.364211 0.068748 0.319109
O O5 0.376166 0.113087 0.430968
O O6 0.311821 0.889363 0.384879
O O7 0.109771 0.250000 0.052211
O O8 0.098250 0.487238 0.110402
O O9 0.000000 0.397572 0.044165
O O10 0.110504 0.500000 0.000000
O O11 0.204489 0.750000 0.259869
O O12 0.250000 0.500000 0.259521
O O13 0.130320 0.551179 0.211764
O O14 0.085636 0.250000 0.857578
O O15 0.000000 0.437394 0.818418
O O16 0.232978 0.250000 0.551297
O O17 0.360672 0.250000 0.525857
#
# Coordination Sequence:
#
# PCOD8281447 Si02
#       7
#     8  16  16  16  16   8   8
#     4  12  28  46  66  90 120 156 191 240 307 376
#     4  12  25  41  63  87 120 152 198 243 300 365
#     4   9  16  28  51  87 126 166 206 248 301 354
#     4  11  25  43  66  90 120 164 208 254 306 364
#     4   9  19  37  60  87 124 162 207 256 302 355
#     4  11  22  39  63  87 119 146 190 245 300 362
#     4  11  22  39  63  91 113 152 188 243 302 360
#
# _framework density 19.847553999999999
#
# number of rings (size 3 to 8) (size 9 to 14) (size 15 to 20)
#    0.000    1.455    1.818    3.818    3.818    4.364 
#    0.000    0.000    0.000    0.545    0.000    3.818 
#    0.000    0.000    0.000    0.000    0.000    0.000 
#
# Total GULP energy -545311.782248 kJ/mol
# GULP energy per Si atom -12393.449597 kJ/mol
# Density = 1.980238 g / cm^3
# Si number density = 19.847554 Si / 1000 Ang^3
#
#
#
# Elastic Constant Matrix: (Units=GPa)
#
#
# Indices 1 2 3 4 5 6 
#
# 1 73.6346 35.0849 43.7907 0.0000 0.0000 0.0000
# 2 35.0849 133.7033 54.7643 0.0000 0.0000 0.0000
# 3 43.7907 54.7643 121.7638 0.0000 0.0000 0.0000
# 4 0.0000 0.0000 0.0000 36.8057 0.0000 0.0000
# 5 0.0000 0.0000 0.0000 0.0000 20.6847 0.0000
# 6 0.0000 0.0000 0.0000 0.0000 0.0000 23.5554
#
#
#
# Elastic Compliance Matrix: (Units=1/GPa)
#
#
# Indices 1 2 3 4 5 6 
#
# 1 0.017949 -0.002532 -0.005316 0.000000 0.000000 0.000000
# 2 -0.002532 0.009526 -0.003373 0.000000 0.000000 0.000000
# 3 -0.005316 -0.003373 0.011642 0.000000 0.000000 0.000000
# 4 0.000000 0.000000 0.000000 0.027170 0.000000 0.000000
# 5 0.000000 0.000000 0.000000 0.000000 0.048345 0.000000
# 6 0.000000 0.000000 0.000000 0.000000 0.000000 0.042453
#
#
# Mechanical properties :
#
#
# Convention : Reuss Voigt Hill
#
# Bulk Modulus (GPa) = 59.98048 66.26463 63.12256
# Shear Modulus (GPa) = 27.01462 29.23992 28.12727
#
# Velocity S-wave (km/s) = 3.69332 3.84243 3.76861
# Velocity P-wave (km/s) = 6.96230 7.29006 7.12806
#
# Compressibility (1/GPa) = 0.01667209
#
# Stress axis : x y z
#
# Youngs Moduli (GPa) = 55.71440 104.98100 85.89832
#
# Poissons Ratio (x) = 0.26586 0.45664
# Poissons Ratio (y) = 0.14110 0.28977
# Poissons Ratio (z) = 0.29618 0.35414
#
# Static dielectric constant tensor:
#      x y z
#    x 3.400570 0.000000 0.000000 
#    y 0.000000 3.827120 0.000000 
#    z 0.000000 0.000000 3.646270 
# 
# 
# High freq. dielectric constant tensor:
#      x y z
#    x 1.756170 0.000000 0.000000 
#    y 0.000000 1.793210 0.000000 
#    z 0.000000 0.000000 1.767180 
# 
# From -- ./inp_files/42423.got.cif
#   From: 2010.03.12/outbox.cif.g09.slc.cpg/sg67_22_cif.got.tgz:42423.got - 2010.04.10 22:41:39.
