data_PCOD8281913
_publ_section_title
;
Structure prediction by ZEFSAII (Michael W. Deem and Ramdas Pophale) SiO2 
 PCOD8281913
Probable space group: C C C A
;
_chemical_formula_sum "Si O2"
_cell_formula_units_Z 112
_cell_length_a 22.946852
_cell_length_b 16.300840
_cell_length_c 16.217425
_cell_angle_alpha 90.000000
_cell_angle_beta 90.000000
_cell_angle_gamma 90.000000
_cell_volume 6066.175873
_symmetry_space_group_name_H-M "C C C A"
_symmetry_group_IT_number 68
_space_group.IT_coordinate_system_code '2'
_symmetry_cell_setting 'orthorhombic'
loop_
_space_group_symop_operation_xyz
x,y,z
-x,1/2-y,z
x,1/2-y,1/2-z
-x,y,1/2-z
-x,-y,-z
x,1/2+y,-z
-x,1/2+y,1/2+z
x,-y,1/2+z
1/2+x,1/2+y,z
1/2-x,-y,z
1/2+x,-y,1/2-z
1/2-x,1/2+y,1/2-z
1/2-x,1/2-y,-z
1/2+x,y,-z
1/2-x,y,1/2+z
1/2+x,1/2-y,1/2+z
loop_
_atom_site_type_symbol
_atom_site_label
_atom_site_fract_x
_atom_site_fract_y
_atom_site_fract_z
Si Si1 0.109380 0.001748 0.004141
Si Si2 0.060725 0.902777 0.351855
Si Si3 0.272722 0.738357 0.338836
Si Si4 0.778432 0.082931 0.435288
Si Si5 0.827134 0.842106 0.530027
Si Si6 0.070970 0.413550 0.832941
Si Si7 0.359848 0.245173 0.122781
O O1 0.068008 0.040968 0.933967
O O2 0.128462 0.916814 0.962427
O O3 0.162858 0.064138 0.014956
O O4 0.083543 0.983416 0.096554
O O5 0.075494 0.946883 0.262736
O O6 0.098479 0.820621 0.358081
O O7 0.993108 0.877767 0.350584
O O8 0.297523 0.750000 0.250000
O O9 0.288212 0.644698 0.360676
O O10 0.314085 0.802624 0.383698
O O11 0.204563 0.761492 0.342630
O O12 0.734890 0.128234 0.496513
O O13 0.750000 0.000000 0.399093
O O14 0.854816 0.769626 0.474853
O O15 0.116499 0.339051 0.837500
#
# Coordination Sequence:
#
# PCOD8281913 Si02
#       7
#    16  16  16  16  16  16  16
#     4  10  20  35  53  72 101 137 165 202 251 295
#     4  11  20  34  54  74  98 132 166 207 256 295
#     4  11  20  31  50  76 104 134 165 201 245 302
#     4   9  18  33  51  71  99 132 167 205 245 294
#     4   9  19  34  49  73 102 131 167 202 241 300
#     4  10  22  34  50  77 102 124 167 214 248 296
#     4  10  19  34  53  72  99 131 163 206 256 296
#
# _framework density 18.463031999999998
#
# number of rings (size 3 to 8) (size 9 to 14) (size 15 to 20)
#    0.000    2.000    0.000    6.429    0.000    2.286 
#    0.000    2.143    0.000    0.000    0.000    0.000 
#    0.000    9.143    0.000    0.000    0.000    0.000 
#
# Total GULP energy -693838.589128 kJ/mol
# GULP energy per Si atom -12389.974806 kJ/mol
# Density = 1.842101 g / cm^3
# Si number density = 18.463032 Si / 1000 Ang^3
#
#
#
# Elastic Constant Matrix: (Units=GPa)
#
#
# Indices 1 2 3 4 5 6 
#
# 1 55.5391 4.9878 15.3327 0.0000 0.0000 0.0000
# 2 4.9878 66.4220 39.9101 0.0000 0.0000 0.0000
# 3 15.3327 39.9101 123.6829 0.0000 0.0000 0.0000
# 4 0.0000 0.0000 0.0000 15.8513 0.0000 0.0000
# 5 0.0000 0.0000 0.0000 0.0000 0.3798 0.0000
# 6 0.0000 0.0000 0.0000 0.0000 0.0000 9.2995
#
#
#
# Elastic Compliance Matrix: (Units=1/GPa)
#
#
# Indices 1 2 3 4 5 6 
#
# 1 0.018643 -0.000014 -0.002307 0.000000 0.000000 0.000000
# 2 -0.000014 0.018676 -0.006025 0.000000 0.000000 0.000000
# 3 -0.002307 -0.006025 0.010315 0.000000 0.000000 0.000000
# 4 0.000000 0.000000 0.000000 0.063086 0.000000 0.000000
# 5 0.000000 0.000000 0.000000 0.000000 2.632987 0.000000
# 6 0.000000 0.000000 0.000000 0.000000 0.000000 0.107533
#
#
# Mechanical properties :
#
#
# Convention : Reuss Voigt Hill
#
# Bulk Modulus (GPa) = 32.31636 40.67835 36.49735
# Shear Modulus (GPa) = 1.73717 17.46701 9.60209
#
# Velocity S-wave (km/s) = 0.97105 3.07913 2.28298
# Velocity P-wave (km/s) = 4.33573 5.89250 5.17301
#
# Compressibility (1/GPa) = 0.03094408
#
# Stress axis : x y z
#
# Youngs Moduli (GPa) = 53.63835 53.54372 96.94418
#
# Poissons Ratio (x) = 0.00075 0.22362
# Poissons Ratio (y) = 0.00075 0.58406
# Poissons Ratio (z) = 0.12372 0.32259
#
# Static dielectric constant tensor:
#      x y z
#    x 3.430510 0.000000 0.000000 
#    y 0.000000 3.635590 0.000000 
#    z 0.000000 0.000000 3.568310 
# 
# 
# High freq. dielectric constant tensor:
#      x y z
#    x 1.711180 0.000000 0.000000 
#    y 0.000000 1.707110 0.000000 
#    z 0.000000 0.000000 1.717790 
# 
# From -- ./inp_files/25489.got.cif
#   From: 2010.03.12/outbox.cif.g09.slc.cpg/sg68_13_cif.got.tgz:25489.got - 2010.04.10 23:14:56.
