data_PCOD8281878
_publ_section_title
;
Structure prediction by ZEFSAII (Michael W. Deem and Ramdas Pophale) SiO2 
 PCOD8281878
Probable space group: C C C A
;
_chemical_formula_sum "Si O2"
_cell_formula_units_Z 120
_cell_length_a 16.045014
_cell_length_b 27.471190
_cell_length_c 14.186170
_cell_angle_alpha 90.000000
_cell_angle_beta 90.000000
_cell_angle_gamma 90.000000
_cell_volume 6252.917993
_symmetry_space_group_name_H-M "C C C A"
_symmetry_group_IT_number 68
_space_group.IT_coordinate_system_code '2'
_symmetry_cell_setting 'orthorhombic'
loop_
_space_group_symop_operation_xyz
x,y,z
-x,1/2-y,z
x,1/2-y,1/2-z
-x,y,1/2-z
-x,-y,-z
x,1/2+y,-z
-x,1/2+y,1/2+z
x,-y,1/2+z
1/2+x,1/2+y,z
1/2-x,-y,z
1/2+x,-y,1/2-z
1/2-x,1/2+y,1/2-z
1/2-x,1/2-y,-z
1/2+x,y,-z
1/2-x,y,1/2+z
1/2+x,1/2-y,1/2+z
loop_
_atom_site_type_symbol
_atom_site_label
_atom_site_fract_x
_atom_site_fract_y
_atom_site_fract_z
Si Si1 0.402064 0.306536 0.552772
Si Si2 0.000000 0.947397 0.453978
Si Si3 0.824874 0.806799 0.750000
Si Si4 0.000000 0.594538 0.250000
Si Si5 0.673063 0.126082 0.250000
Si Si6 0.333374 0.395412 0.454069
Si Si7 0.166626 0.895412 0.454069
Si Si8 0.597936 0.306536 0.552772
O O1 0.375602 0.323836 0.657737
O O2 0.349249 0.338103 0.477357
O O3 0.500000 0.316008 0.539849
O O4 0.380051 0.250000 0.535639
O O5 0.915334 0.922792 0.492237
O O6 0.000000 0.942091 0.339912
O O7 0.084666 0.922792 0.492237
O O8 0.000000 0.000000 0.500000
O O9 0.815224 0.750000 0.750000
O O10 0.730701 0.826638 0.750000
O O11 0.875602 0.823836 0.842263
O O12 0.926484 0.634763 0.249999
O O13 0.687700 0.095200 0.344532
O O14 0.687700 0.095200 0.155468
O O15 0.250000 0.416388 0.500000
O O16 0.150751 0.838103 0.477357
#
# Coordination Sequence:
#
# PCOD8281878 Si02
#       8
#    16  16  16   8  16  16  16  16
#     4  10  20  35  55  83 117 153 195 237 282 335
#     4  10  22  42  63  87 113 144 190 240 292 346
#     4  10  19  32  54  83 117 153 190 238 284 328
#     4   8  20  40  61  80 114 148 177 232 294 336
#     4  10  20  35  54  80 115 148 185 227 281 338
#     4  11  21  37  62  84 113 154 190 233 289 342
#     4  11  21  37  62  84 113 154 190 233 289 342
#     4  10  20  35  55  83 117 153 195 237 282 335
#
# _framework density 19.191040000000001
#
# number of rings (size 3 to 8) (size 9 to 14) (size 15 to 20)
#    0.000    1.867    4.000    0.400    0.000    3.733 
#    0.000    3.000    0.000    4.800    0.000    0.000 
#    0.000    0.000    0.000    0.000    0.000    0.000 
#
# Total GULP energy -743310.008921 kJ/mol
# GULP energy per Si atom -12388.500149 kJ/mol
# Density = 1.914736 g / cm^3
# Si number density = 19.191040 Si / 1000 Ang^3
#
#
#
# Elastic Constant Matrix: (Units=GPa)
#
#
# Indices 1 2 3 4 5 6 
#
# 1 151.5353 39.1975 52.1131 0.0000 0.0000 0.0000
# 2 39.1975 66.2289 31.0654 0.0000 0.0000 0.0000
# 3 52.1131 31.0654 97.9362 0.0000 0.0000 0.0000
# 4 0.0000 0.0000 0.0000 18.5696 0.0000 0.0000
# 5 0.0000 0.0000 0.0000 0.0000 27.0557 0.0000
# 6 0.0000 0.0000 0.0000 0.0000 0.0000 19.5854
#
#
#
# Elastic Compliance Matrix: (Units=1/GPa)
#
#
# Indices 1 2 3 4 5 6 
#
# 1 0.008719 -0.003506 -0.003527 0.000000 0.000000 0.000000
# 2 -0.003506 0.019148 -0.004208 0.000000 0.000000 0.000000
# 3 -0.003527 -0.004208 0.013423 0.000000 0.000000 0.000000
# 4 0.000000 0.000000 0.000000 0.053852 0.000000 0.000000
# 5 0.000000 0.000000 0.000000 0.000000 0.036961 0.000000
# 6 0.000000 0.000000 0.000000 0.000000 0.000000 0.051059
#
#
# Mechanical properties :
#
#
# Convention : Reuss Voigt Hill
#
# Bulk Modulus (GPa) = 53.17286 62.27248 57.72267
# Shear Modulus (GPa) = 23.59464 25.93041 24.76253
#
# Velocity S-wave (km/s) = 3.51017 3.67982 3.59600
# Velocity P-wave (km/s) = 6.64798 7.11153 6.88366
#
# Compressibility (1/GPa) = 0.01880659
#
# Stress axis : x y z
#
# Youngs Moduli (GPa) = 114.69117 52.22483 74.50115
#
# Poissons Ratio (x) = 0.18309 0.26280
# Poissons Ratio (y) = 0.40208 0.31352
# Poissons Ratio (z) = 0.40457 0.21978
#
# Static dielectric constant tensor:
#      x y z
#    x 3.814130 0.000000 0.000000 
#    y 0.000000 3.070710 0.000000 
#    z 0.000000 0.000000 3.871760 
# 
# 
# High freq. dielectric constant tensor:
#      x y z
#    x 1.771760 0.000000 0.000000 
#    y 0.000000 1.697210 0.000000 
#    z 0.000000 0.000000 1.754130 
# 
# From -- ./inp_files/22838.got.cif
#   From: 2010.03.12/outbox.cif.g09.slc.cpg/sg68_12_cif.got.tgz:22838.got - 2010.04.10 23:14:56.
