data_PCOD8281299
_publ_section_title
;
Structure prediction by ZEFSAII (Michael W. Deem and Ramdas Pophale) SiO2 
 PCOD8281299
Probable space group: C M M A
;
_chemical_formula_sum "Si O2"
_cell_formula_units_Z 72
_cell_length_a 25.844692
_cell_length_b 13.723511
_cell_length_c 9.750736
_cell_angle_alpha 90.000000
_cell_angle_beta 90.000000
_cell_angle_gamma 90.000000
_cell_volume 3458.390215
_symmetry_space_group_name_H-M "C M M A"
_symmetry_group_IT_number 67
_symmetry_cell_setting 'orthorhombic'
loop_
_space_group_symop_operation_xyz
x,y,z
-x,1/2-y,z
x,-y,-z
-x,1/2+y,-z
-x,-y,-z
x,1/2+y,-z
-x,y,z
x,1/2-y,z
1/2+x,1/2+y,z
1/2-x,-y,z
1/2+x,1/2-y,-z
1/2-x,y,-z
1/2-x,1/2-y,-z
1/2+x,y,-z
1/2-x,1/2+y,z
1/2+x,-y,z
loop_
_atom_site_type_symbol
_atom_site_label
_atom_site_fract_x
_atom_site_fract_y
_atom_site_fract_z
Si Si1 0.394082 0.250000 0.063192
Si Si2 0.363601 0.250000 0.742913
Si Si3 0.254603 0.750000 0.659590
Si Si4 0.000000 0.250000 0.784378
Si Si5 0.000000 0.463161 0.657626
Si Si6 0.250000 0.000000 0.000000
Si Si7 0.106079 0.542616 0.652500
Si Si8 0.323140 0.598029 0.799809
O O1 0.453566 0.250000 0.106691
O O2 0.370033 0.344386 0.133046
O O3 0.384155 0.250000 0.899446
O O4 0.300909 0.250000 0.737177
O O5 0.387227 0.341316 0.659472
O O6 0.250000 0.750000 0.500000
O O7 0.289142 0.656227 0.691169
O O8 0.000000 0.154506 0.683644
O O9 0.000000 0.500000 0.500000
O O10 0.051896 0.509692 0.723844
O O11 0.215445 0.073743 0.918585
O O12 0.107404 0.500000 0.500000
O O13 0.154815 0.499310 0.732483
#
# Coordination Sequence:
#
# PCOD8281299 Si02
#       8
#     8   8   8   4   8   4  16  16
#     4  11  24  41  68  96 133 182 220 278 329 423
#     4  12  26  43  63  98 139 170 228 275 338 401
#     4  11  23  40  66  96 129 175 223 286 335 404
#     4  12  22  48  72 106 138 182 230 272 354 408
#     4  10  24  43  72 103 131 173 223 279 335 405
#     4  12  24  38  62  90 136 186 220 284 320 414
#     4  11  24  43  68  99 132 173 221 286 341 403
#     4  11  22  40  64  94 131 175 230 265 347 394
#
# _framework density 20.818935
#
# number of rings (size 3 to 8) (size 9 to 14) (size 15 to 20)
#    0.000    0.889    2.222    5.333    0.000    7.556 
#    0.000    3.333    0.000    0.000    0.000    0.000 
#    0.000    0.000    0.000    0.000    0.000    0.000 
#
# Total GULP energy -446254.250311 kJ/mol
# GULP energy per Si atom -12395.951398 kJ/mol
# Density = 2.077155 g / cm^3
# Si number density = 20.818935 Si / 1000 Ang^3
#
#
#
# Elastic Constant Matrix: (Units=GPa)
#
#
# Indices 1 2 3 4 5 6 
#
# 1 166.3051 69.7924 53.5061 0.0000 0.0000 0.0000
# 2 69.7924 172.6885 53.7856 0.0000 0.0000 0.0000
# 3 53.5061 53.7856 126.5985 0.0000 0.0000 0.0000
# 4 0.0000 0.0000 0.0000 46.5483 0.0000 0.0000
# 5 0.0000 0.0000 0.0000 0.0000 30.9998 0.0000
# 6 0.0000 0.0000 0.0000 0.0000 0.0000 41.4435
#
#
#
# Elastic Compliance Matrix: (Units=1/GPa)
#
#
# Indices 1 2 3 4 5 6 
#
# 1 0.007757 -0.002436 -0.002243 0.000000 0.000000 0.000000
# 2 -0.002436 0.007439 -0.002131 0.000000 0.000000 0.000000
# 3 -0.002243 -0.002131 0.009752 0.000000 0.000000 0.000000
# 4 0.000000 0.000000 0.000000 0.021483 0.000000 0.000000
# 5 0.000000 0.000000 0.000000 0.000000 0.032258 0.000000
# 6 0.000000 0.000000 0.000000 0.000000 0.000000 0.024129
#
#
# Mechanical properties :
#
#
# Convention : Reuss Voigt Hill
#
# Bulk Modulus (GPa) = 88.28030 91.08449 89.68239
# Shear Modulus (GPa) = 41.59159 43.03218 42.31188
#
# Velocity S-wave (km/s) = 4.47450 4.55133 4.51308
# Velocity P-wave (km/s) = 8.31810 8.45371 8.38618
#
# Compressibility (1/GPa) = 0.01132756
#
# Stress axis : x y z
#
# Youngs Moduli (GPa) = 128.91055 134.42490 102.53832
#
# Poissons Ratio (x) = 0.32751 0.23004
# Poissons Ratio (y) = 0.31408 0.21849
# Poissons Ratio (z) = 0.28921 0.28643
#
# Static dielectric constant tensor:
#      x y z
#    x 4.258950 0.000000 0.000000 
#    y 0.000000 3.850010 0.000000 
#    z 0.000000 0.000000 3.604400 
# 
# 
# High freq. dielectric constant tensor:
#      x y z
#    x 1.841020 0.000000 0.000000 
#    y 0.000000 1.826970 0.000000 
#    z 0.000000 0.000000 1.807090 
# 
# From -- ./inp_files/13404.got.cif
#   From: 2010.03.12/outbox.cif.g09.slc.cpg/sg67_7_cif.got.tgz:13404.got - 2010.04.10 22:41:39.
