data_PCOD8281677
_publ_section_title
;
Structure prediction by ZEFSAII (Michael W. Deem and Ramdas Pophale) SiO2 
 PCOD8281677
Probable space group: C C C A
;
_chemical_formula_sum "Si O2"
_cell_formula_units_Z 104
_cell_length_a 17.910014
_cell_length_b 26.459732
_cell_length_c 14.120512
_cell_angle_alpha 90.000000
_cell_angle_beta 90.000000
_cell_angle_gamma 90.000000
_cell_volume 6691.628322
_symmetry_space_group_name_H-M "C C C A"
_symmetry_group_IT_number 68
_space_group.IT_coordinate_system_code '2'
_symmetry_cell_setting 'orthorhombic'
loop_
_space_group_symop_operation_xyz
x,y,z
-x,1/2-y,z
x,1/2-y,1/2-z
-x,y,1/2-z
-x,-y,-z
x,1/2+y,-z
-x,1/2+y,1/2+z
x,-y,1/2+z
1/2+x,1/2+y,z
1/2-x,-y,z
1/2+x,-y,1/2-z
1/2-x,1/2+y,1/2-z
1/2-x,1/2-y,-z
1/2+x,y,-z
1/2-x,y,1/2+z
1/2+x,1/2-y,1/2+z
loop_
_atom_site_type_symbol
_atom_site_label
_atom_site_fract_x
_atom_site_fract_y
_atom_site_fract_z
Si Si1 0.500000 0.534092 0.750000
Si Si2 0.582415 0.807165 0.644550
Si Si3 0.916090 0.803281 0.369251
Si Si4 0.569569 0.003751 0.430673
Si Si5 0.358812 0.591576 0.681252
Si Si6 0.831626 0.400676 0.602932
Si Si7 0.204977 0.449421 0.500987
O O1 0.541897 0.497471 0.676959
O O2 0.442266 0.569514 0.692989
O O3 0.615463 0.753259 0.608399
O O4 0.501018 0.811570 0.595539
O O5 0.578550 0.809565 0.757457
O O6 0.634323 0.855450 0.622145
O O7 0.863330 0.844728 0.418456
O O8 0.610561 0.058204 0.439352
O O9 0.500000 0.000000 0.500000
O O10 0.624573 0.956934 0.451537
O O11 0.319646 0.593556 0.783837
O O12 0.306123 0.558549 0.613310
O O13 0.751565 0.404995 0.550840
O O14 0.250000 0.500000 0.484962
#
# Coordination Sequence:
#
# PCOD8281677 Si02
#       7
#     8  16  16  16  16  16  16
#     4  10  18  28  50  69  88 120 149 196 230 260
#     4   8  13  22  43  71  84 112 145 190 220 269
#     4   8  13  24  42  65  95 108 142 184 234 263
#     4  10  18  31  46  68  87 116 157 188 220 265
#     4  10  17  29  48  65  89 117 153 181 231 271
#     4   9  19  31  43  64  93 122 143 181 233 278
#     4  10  21  32  43  64  94 122 151 186 225 271
#
# _framework density 15.541808
#
# number of rings (size 3 to 8) (size 9 to 14) (size 15 to 20)
#    0.000    2.769    1.538    3.692    0.000    3.077 
#    0.000    0.769    0.000    0.000    0.000    0.000 
#    0.000    0.000    0.000    3.385    0.000    0.308 
#
# Total GULP energy -644252.457542 kJ/mol
# GULP energy per Si atom -12389.470337 kJ/mol
# Density = 1.550643 g / cm^3
# Si number density = 15.541808 Si / 1000 Ang^3
#
#
#
# Elastic Constant Matrix: (Units=GPa)
#
#
# Indices 1 2 3 4 5 6 
#
# 1 87.4134 36.6558 39.0558 0.0000 0.0000 0.0000
# 2 36.6558 69.2442 27.2443 0.0000 0.0000 0.0000
# 3 39.0558 27.2443 60.2867 0.0000 0.0000 0.0000
# 4 0.0000 0.0000 0.0000 14.0261 0.0000 0.0000
# 5 0.0000 0.0000 0.0000 0.0000 27.9593 0.0000
# 6 0.0000 0.0000 0.0000 0.0000 0.0000 18.3293
#
#
#
# Elastic Compliance Matrix: (Units=1/GPa)
#
#
# Indices 1 2 3 4 5 6 
#
# 1 0.017932 -0.005986 -0.008912 0.000000 0.000000 0.000000
# 2 -0.005986 0.019563 -0.004963 0.000000 0.000000 0.000000
# 3 -0.008912 -0.004963 0.024603 0.000000 0.000000 0.000000
# 4 0.000000 0.000000 0.000000 0.071296 0.000000 0.000000
# 5 0.000000 0.000000 0.000000 0.000000 0.035766 0.000000
# 6 0.000000 0.000000 0.000000 0.000000 0.000000 0.054558
#
#
# Mechanical properties :
#
#
# Convention : Reuss Voigt Hill
#
# Bulk Modulus (GPa) = 44.68837 46.98401 45.83619
# Shear Modulus (GPa) = 18.45712 19.66216 19.05964
#
# Velocity S-wave (km/s) = 3.44987 3.56070 3.50572
# Velocity P-wave (km/s) = 6.68467 6.87031 6.77813
#
# Compressibility (1/GPa) = 0.02237719
#
# Stress axis : x y z
#
# Youngs Moduli (GPa) = 55.76680 51.11645 40.64483
#
# Poissons Ratio (x) = 0.30600 0.36221
# Poissons Ratio (y) = 0.33383 0.20171
# Poissons Ratio (z) = 0.49697 0.25368
#
# Static dielectric constant tensor:
#      x y z
#    x 3.048820 0.000000 0.000000 
#    y 0.000000 3.290390 0.000000 
#    z 0.000000 0.000000 2.708980 
# 
# 
# High freq. dielectric constant tensor:
#      x y z
#    x 1.584460 0.000000 0.000000 
#    y 0.000000 1.592010 0.000000 
#    z 0.000000 0.000000 1.561260 
# 
# From -- ./inp_files/23888.got.cif
#   From: 2010.03.12/outbox.cif.g09.slc.cpg/sg68_12_cif.got.tgz:23888.got - 2010.04.10 23:14:56.
