data_PCOD8281333
_publ_section_title
;
Structure prediction by ZEFSAII (Michael W. Deem and Ramdas Pophale) SiO2 
 PCOD8281333
Probable space group: C M M A
;
_chemical_formula_sum "Si O2"
_cell_formula_units_Z 96
_cell_length_a 8.620205
_cell_length_b 28.789903
_cell_length_c 20.632349
_cell_angle_alpha 90.000000
_cell_angle_beta 90.000000
_cell_angle_gamma 90.000000
_cell_volume 5120.430444
_symmetry_space_group_name_H-M "C M M A"
_symmetry_group_IT_number 67
_symmetry_cell_setting 'orthorhombic'
loop_
_space_group_symop_operation_xyz
x,y,z
-x,1/2-y,z
x,-y,-z
-x,1/2+y,-z
-x,-y,-z
x,1/2+y,-z
-x,y,z
x,1/2-y,z
1/2+x,1/2+y,z
1/2-x,-y,z
1/2+x,1/2-y,-z
1/2-x,y,-z
1/2-x,1/2-y,-z
1/2+x,y,-z
1/2-x,1/2+y,z
1/2+x,-y,z
loop_
_atom_site_type_symbol
_atom_site_label
_atom_site_fract_x
_atom_site_fract_y
_atom_site_fract_z
Si Si1 0.184358 0.396367 0.313744
Si Si2 0.319227 0.197711 0.886660
Si Si3 0.683591 0.950482 0.569587
Si Si4 0.315026 0.948985 0.809343
Si Si5 0.819151 0.607621 0.065887
Si Si6 0.683883 0.699681 0.259590
O O1 0.264935 0.411682 0.379822
O O2 0.241066 0.427900 0.255005
O O3 0.240537 0.343048 0.303657
O O4 0.000000 0.400622 0.319843
O O5 0.500000 0.185051 0.890349
O O6 0.288846 0.250000 0.911959
O O7 0.225588 0.161879 0.930850
O O8 0.255136 0.192665 0.813420
O O9 0.500000 0.953977 0.565571
O O10 0.750000 0.936069 0.500000
O O11 0.750000 0.000000 0.592410
O O12 0.500000 0.949316 0.802475
O O13 0.256123 0.919378 0.871037
O O14 0.250000 0.000000 0.819340
O O15 0.000000 0.601683 0.061546
O O16 0.750000 0.585780 0.000000
O O17 0.500000 0.700425 0.256555
O O18 0.743387 0.750000 0.286562
#
# Coordination Sequence:
#
# PCOD8281333 Si02
#       6
#    16  16  16  16  16  16
#     4  11  20  34  60  88 116 149 183 225 274 323
#     4   9  17  33  57  82 108 140 179 223 273 329
#     4  11  22  38  58  84 119 153 191 230 273 327
#     4  11  24  40  57  80 107 139 182 231 278 329
#     4  11  24  39  56  77 106 141 182 228 281 336
#     4   8  15  29  53  84 113 143 180 221 268 323
#
# _framework density 18.748424
#
# number of rings (size 3 to 8) (size 9 to 14) (size 15 to 20)
#    0.000    1.833    1.667    5.000    0.000    3.000 
#    0.000    1.667    0.000    2.500    0.000    0.000 
#    0.000    0.000    0.000    0.000    0.000    0.000 
#
# Total GULP energy -595184.118959 kJ/mol
# GULP energy per Si atom -12399.669145 kJ/mol
# Density = 1.870575 g / cm^3
# Si number density = 18.748424 Si / 1000 Ang^3
#
#
#
# Elastic Constant Matrix: (Units=GPa)
#
#
# Indices 1 2 3 4 5 6 
#
# 1 77.7825 27.1957 30.6672 0.0000 0.0000 0.0000
# 2 27.1957 112.1535 51.0034 0.0000 0.0000 0.0000
# 3 30.6672 51.0034 105.0750 0.0000 0.0000 0.0000
# 4 0.0000 0.0000 0.0000 26.7935 0.0000 0.0000
# 5 0.0000 0.0000 0.0000 0.0000 28.0822 0.0000
# 6 0.0000 0.0000 0.0000 0.0000 0.0000 22.0044
#
#
#
# Elastic Compliance Matrix: (Units=1/GPa)
#
#
# Indices 1 2 3 4 5 6 
#
# 1 0.014904 -0.002099 -0.003331 0.000000 0.000000 0.000000
# 2 -0.002099 0.011738 -0.005085 0.000000 0.000000 0.000000
# 3 -0.003331 -0.005085 0.012957 0.000000 0.000000 0.000000
# 4 0.000000 0.000000 0.000000 0.037323 0.000000 0.000000
# 5 0.000000 0.000000 0.000000 0.000000 0.035610 0.000000
# 6 0.000000 0.000000 0.000000 0.000000 0.000000 0.045445
#
#
# Mechanical properties :
#
#
# Convention : Reuss Voigt Hill
#
# Bulk Modulus (GPa) = 53.85325 56.97151 55.41238
# Shear Modulus (GPa) = 26.99845 27.78564 27.39205
#
# Velocity S-wave (km/s) = 3.79890 3.85389 3.82649
# Velocity P-wave (km/s) = 6.93027 7.08919 7.01018
#
# Compressibility (1/GPa) = 0.01856898
#
# Stress axis : x y z
#
# Youngs Moduli (GPa) = 67.09809 85.19486 77.17636
#
# Poissons Ratio (x) = 0.17884 0.25706
# Poissons Ratio (y) = 0.14085 0.39243
# Poissons Ratio (z) = 0.22349 0.43320
#
# Static dielectric constant tensor:
#      x y z
#    x 3.326510 0.000000 0.000000 
#    y 0.000000 3.764870 0.000000 
#    z 0.000000 0.000000 3.465220 
# 
# 
# High freq. dielectric constant tensor:
#      x y z
#    x 1.721690 0.000000 0.000000 
#    y 0.000000 1.733110 0.000000 
#    z 0.000000 0.000000 1.718390 
# 
# From -- ./inp_files/37132.got.cif
#   From: 2010.03.12/outbox.cif.g09.slc.cpg/sg67_19_cif.got.tgz:37132.got - 2010.04.10 22:41:39.
