data_PCOD8281041
_publ_section_title
;
Structure prediction by ZEFSAII (Michael W. Deem and Ramdas Pophale) SiO2 
 PCOD8281041
Probable space group: C M M A
;
_chemical_formula_sum "Si O2"
_cell_formula_units_Z 96
_cell_length_a 15.732818
_cell_length_b 17.031672
_cell_length_c 16.997333
_cell_angle_alpha 90.000000
_cell_angle_beta 90.000000
_cell_angle_gamma 90.000000
_cell_volume 4554.540690
_symmetry_space_group_name_H-M "C M M A"
_symmetry_group_IT_number 67
_symmetry_cell_setting 'orthorhombic'
loop_
_space_group_symop_operation_xyz
x,y,z
-x,1/2-y,z
x,-y,-z
-x,1/2+y,-z
-x,-y,-z
x,1/2+y,-z
-x,y,z
x,1/2-y,z
1/2+x,1/2+y,z
1/2-x,-y,z
1/2+x,1/2-y,-z
1/2-x,y,-z
1/2-x,1/2-y,-z
1/2+x,y,-z
1/2-x,1/2+y,z
1/2+x,-y,z
loop_
_atom_site_type_symbol
_atom_site_label
_atom_site_fract_x
_atom_site_fract_y
_atom_site_fract_z
Si Si1 0.801627 0.917052 0.336624
Si Si2 0.138390 0.661743 0.652315
Si Si3 0.248621 0.842241 0.087525
Si Si4 0.401579 0.841457 0.796421
Si Si5 0.409194 0.911019 0.510761
Si Si6 0.091789 0.156957 0.182080
O O1 0.736859 0.845486 0.323015
O O2 0.875257 0.903358 0.271975
O O3 0.839596 0.900398 0.422440
O O4 0.750000 0.000000 0.330205
O O5 0.111268 0.750000 0.634838
O O6 0.124991 0.614171 0.573539
O O7 0.087896 0.626573 0.727346
O O8 0.263971 0.750000 0.081574
O O9 0.158534 0.860725 0.128825
O O10 0.328981 0.880508 0.134539
O O11 0.250000 0.879109 0.000000
O O12 0.500000 0.857922 0.818949
O O13 0.390478 0.750000 0.770777
O O14 0.500000 0.868481 0.530798
O O15 0.430682 0.000000 0.500000
O O16 0.105595 0.250000 0.186132
O O17 0.000000 0.135816 0.142944
#
# Coordination Sequence:
#
# PCOD8281041 Si02
#       6
#    16  16  16  16  16  16
#     4  12  23  39  61  86 117 161 204 248 302 364
#     4  11  22  38  61  86 114 152 200 251 304 356
#     4   9  17  31  54  87 123 156 194 245 303 359
#     4  10  21  39  63  92 126 163 205 254 307 368
#     4  11  24  40  56  81 116 153 195 245 299 358
#     4   9  17  31  52  81 116 149 186 238 298 354
#
# _framework density 21.077866
#
# number of rings (size 3 to 8) (size 9 to 14) (size 15 to 20)
#    0.000    1.667    3.333    2.000    0.000    3.667 
#    0.000    3.333    0.000    0.500    0.000    1.167 
#    0.000    0.000    0.000    0.000    0.000    0.000 
#
# Total GULP energy -594639.585422 kJ/mol
# GULP energy per Si atom -12388.324696 kJ/mol
# Density = 2.102989 g / cm^3
# Si number density = 21.077866 Si / 1000 Ang^3
#
#
#
# Elastic Constant Matrix: (Units=GPa)
#
#
# Indices 1 2 3 4 5 6 
#
# 1 176.0853 20.8095 74.0139 0.0000 0.0000 0.0000
# 2 20.8095 32.7734 31.1444 0.0000 0.0000 0.0000
# 3 74.0139 31.1444 160.9841 0.0000 0.0000 0.0000
# 4 0.0000 0.0000 0.0000 10.6998 0.0000 0.0000
# 5 0.0000 0.0000 0.0000 0.0000 29.0508 0.0000
# 6 0.0000 0.0000 0.0000 0.0000 0.0000 17.9745
#
#
#
# Elastic Compliance Matrix: (Units=1/GPa)
#
#
# Indices 1 2 3 4 5 6 
#
# 1 0.007118 -0.001727 -0.002939 0.000000 0.000000 0.000000
# 2 -0.001727 0.037805 -0.006520 0.000000 0.000000 0.000000
# 3 -0.002939 -0.006520 0.008824 0.000000 0.000000 0.000000
# 4 0.000000 0.000000 0.000000 0.093460 0.000000 0.000000
# 5 0.000000 0.000000 0.000000 0.000000 0.034422 0.000000
# 6 0.000000 0.000000 0.000000 0.000000 0.000000 0.055634
#
#
# Mechanical properties :
#
#
# Convention : Reuss Voigt Hill
#
# Bulk Modulus (GPa) = 31.87114 69.08648 50.47881
# Shear Modulus (GPa) = 18.51209 27.80336 23.15773
#
# Velocity S-wave (km/s) = 2.96678 3.63585 3.31822
# Velocity P-wave (km/s) = 5.18548 7.10449 6.21945
#
# Compressibility (1/GPa) = 0.03137635
#
# Stress axis : x y z
#
# Youngs Moduli (GPa) = 140.48185 26.45152 113.32540
#
# Poissons Ratio (x) = 0.04569 0.33301
# Poissons Ratio (y) = 0.24265 0.73885
# Poissons Ratio (z) = 0.41281 0.17246
#
# Static dielectric constant tensor:
#      x y z
#    x 4.152800 0.000000 0.000000 
#    y 0.000000 3.347930 0.000000 
#    z 0.000000 0.000000 3.215770 
# 
# 
# High freq. dielectric constant tensor:
#      x y z
#    x 1.850160 0.000000 0.000000 
#    y 0.000000 1.777380 0.000000 
#    z 0.000000 0.000000 1.821730 
# 
# From -- ./inp_files/27153.got.cif
#   From: 2010.03.12/outbox.cif.g09.slc.cpg/sg67_14_cif.got.tgz:27153.got - 2010.04.10 22:41:39.
