data_PCOD8281397
_publ_section_title
;
Structure prediction by ZEFSAII (Michael W. Deem and Ramdas Pophale) SiO2 
 PCOD8281397
Probable space group: C M M A
;
_chemical_formula_sum "Si O2"
_cell_formula_units_Z 80
_cell_length_a 9.824060
_cell_length_b 18.172247
_cell_length_c 24.303785
_cell_angle_alpha 90.000000
_cell_angle_beta 90.000000
_cell_angle_gamma 90.000000
_cell_volume 4338.839168
_symmetry_space_group_name_H-M "C M M A"
_symmetry_group_IT_number 67
_symmetry_cell_setting 'orthorhombic'
loop_
_space_group_symop_operation_xyz
x,y,z
-x,1/2-y,z
x,-y,-z
-x,1/2+y,-z
-x,-y,-z
x,1/2+y,-z
-x,y,z
x,1/2-y,z
1/2+x,1/2+y,z
1/2-x,-y,z
1/2+x,1/2-y,-z
1/2-x,y,-z
1/2-x,1/2-y,-z
1/2+x,y,-z
1/2-x,1/2+y,z
1/2+x,-y,z
loop_
_atom_site_type_symbol
_atom_site_label
_atom_site_fract_x
_atom_site_fract_y
_atom_site_fract_z
Si Si1 0.336187 0.425349 0.251298
Si Si2 0.236301 0.912833 0.371399
Si Si3 0.650618 0.162521 0.954279
Si Si4 0.344814 0.337077 0.830635
Si Si5 0.000000 0.586759 0.446668
Si Si6 0.500000 0.411422 0.570240
O O1 0.500000 0.437764 0.243217
O O2 0.250000 0.500000 0.246349
O O3 0.307844 0.387603 0.310498
O O4 0.274229 0.370954 0.206303
O O5 0.130778 0.882096 0.415732
O O6 0.377741 0.880415 0.392794
O O7 0.250000 0.000000 0.371675
O O8 0.500000 0.135447 0.969770
O O9 0.658315 0.250000 0.955814
O O10 0.687606 0.136128 0.892756
O O11 0.750000 0.127326 0.000000
O O12 0.500000 0.361417 0.814207
O O13 0.333840 0.250000 0.825810
O O14 0.000000 0.619652 0.508208
O O15 0.000000 0.498703 0.439983
#
# Coordination Sequence:
#
# PCOD8281397 Si02
#       6
#    16  16  16  16   8   8
#     4  11  22  34  51  72 101 139 175 212 252 302
#     4   9  17  26  39  61  89 124 161 199 244 300
#     4   8  14  26  46  73 102 131 161 198 246 295
#     4   9  19  35  54  77 106 136 169 210 252 297
#     4   9  14  26  36  58  89 119 156 197 246 296
#     4   9  16  22  40  58  85 123 156 195 248 298
#
# _framework density 18.438110999999999
#
# number of rings (size 3 to 8) (size 9 to 14) (size 15 to 20)
#    0.000    2.800    1.000    2.400    5.600    3.600 
#    0.000    2.000    0.000    0.600    0.000    4.200 
#    0.000    4.800    0.000    0.000    0.000    0.000 
#
# Total GULP energy -495528.651569 kJ/mol
# GULP energy per Si atom -12388.216289 kJ/mol
# Density = 1.839615 g / cm^3
# Si number density = 18.438111 Si / 1000 Ang^3
#
#
#
# Elastic Constant Matrix: (Units=GPa)
#
#
# Indices 1 2 3 4 5 6 
#
# 1 183.1941 21.6696 99.6698 0.0000 0.0000 0.0000
# 2 21.6696 15.2713 20.3205 0.0000 0.0000 0.0000
# 3 99.6698 20.3205 148.2583 0.0000 0.0000 0.0000
# 4 0.0000 0.0000 0.0000 35.5747 0.0000 0.0000
# 5 0.0000 0.0000 0.0000 0.0000 43.0268 0.0000
# 6 0.0000 0.0000 0.0000 0.0000 0.0000 17.1180
#
#
#
# Elastic Compliance Matrix: (Units=1/GPa)
#
#
# Indices 1 2 3 4 5 6 
#
# 1 0.009005 -0.005776 -0.005262 0.000000 0.000000 0.000000
# 2 -0.005776 0.083793 -0.007602 0.000000 0.000000 0.000000
# 3 -0.005262 -0.007602 0.011324 0.000000 0.000000 0.000000
# 4 0.000000 0.000000 0.000000 0.028110 0.000000 0.000000
# 5 0.000000 0.000000 0.000000 0.000000 0.023241 0.000000
# 6 0.000000 0.000000 0.000000 0.000000 0.000000 0.058418
#
#
# Mechanical properties :
#
#
# Convention : Reuss Voigt Hill
#
# Bulk Modulus (GPa) = 14.96045 70.00483 42.48264
# Shear Modulus (GPa) = 18.28475 32.81482 25.54978
#
# Velocity S-wave (km/s) = 3.15251 4.22326 3.72654
# Velocity P-wave (km/s) = 4.62413 7.86328 6.45034
#
# Compressibility (1/GPa) = 0.06684289
#
# Stress axis : x y z
#
# Youngs Moduli (GPa) = 111.05218 11.93416 88.30471
#
# Poissons Ratio (x) = 0.06893 0.46466
# Poissons Ratio (y) = 0.64140 0.67129
# Poissons Ratio (z) = 0.58436 0.09072
#
# Static dielectric constant tensor:
#      x y z
#    x 3.809650 0.000000 0.000000 
#    y 0.000000 2.634160 0.000000 
#    z 0.000000 0.000000 3.733140 
# 
# 
# High freq. dielectric constant tensor:
#      x y z
#    x 1.731030 0.000000 0.000000 
#    y 0.000000 1.634010 0.000000 
#    z 0.000000 0.000000 1.731440 
# 
# From -- ./inp_files/43363.got.cif
#   From: 2010.03.12/outbox.cif.g09.slc.cpg/sg67_22_cif.got.tgz:43363.got - 2010.04.10 22:41:39.
