data_PCOD8281006
_publ_section_title
;
Structure prediction by ZEFSAII (Michael W. Deem and Ramdas Pophale) SiO2 
 PCOD8281006
Probable space group: C M M A
;
_chemical_formula_sum "Si O2"
_cell_formula_units_Z 96
_cell_length_a 21.653574
_cell_length_b 13.810680
_cell_length_c 15.992567
_cell_angle_alpha 90.000000
_cell_angle_beta 90.000000
_cell_angle_gamma 90.000000
_cell_volume 4782.586459
_symmetry_space_group_name_H-M "C M M A"
_symmetry_group_IT_number 67
_symmetry_cell_setting 'orthorhombic'
loop_
_space_group_symop_operation_xyz
x,y,z
-x,1/2-y,z
x,-y,-z
-x,1/2+y,-z
-x,-y,-z
x,1/2+y,-z
-x,y,z
x,1/2-y,z
1/2+x,1/2+y,z
1/2-x,-y,z
1/2+x,1/2-y,-z
1/2-x,y,-z
1/2-x,1/2-y,-z
1/2+x,y,-z
1/2-x,1/2+y,z
1/2+x,-y,z
loop_
_atom_site_type_symbol
_atom_site_label
_atom_site_fract_x
_atom_site_fract_y
_atom_site_fract_z
Si Si1 0.179018 0.493112 0.635303
Si Si2 0.158618 0.862295 0.073105
Si Si3 0.200826 0.638470 0.893332
Si Si4 0.000000 0.136625 0.438046
Si Si5 0.000000 0.368006 0.246515
Si Si6 0.883597 0.511056 0.800290
Si Si7 0.867199 0.636390 0.510843
O O1 0.250000 0.500000 0.663167
O O2 0.133288 0.463741 0.711078
O O3 0.169089 0.410594 0.565882
O O4 0.160532 0.597797 0.598012
O O5 0.143123 0.750000 0.090659
O O6 0.228168 0.890441 0.097516
O O7 0.111290 0.927569 0.127872
O O8 0.157250 0.885184 0.974086
O O9 0.196403 0.750000 0.872144
O O10 0.174918 0.579411 0.816312
O O11 0.000000 0.097392 0.342985
O O12 0.060376 0.105010 0.490501
O O13 0.000000 0.250000 0.426531
O O14 0.942511 0.418945 0.200878
O O15 0.000000 0.250000 0.234361
O O16 0.857367 0.750000 0.507140
#
# Coordination Sequence:
#
# PCOD8281006 Si02
#       7
#    16  16  16   8   8  16  16
#     4  11  24  36  54  89 117 142 188 235 292 361
#     4   9  19  36  59  89 123 157 194 232 285 356
#     4   9  18  35  61  90 119 155 197 240 283 341
#     4   9  18  38  64  82  99 144 200 235 274 330
#     4  11  24  41  59  87 114 144 202 255 291 343
#     4  12  22  37  59  85 117 156 192 246 298 340
#     4  10  21  39  59  79 112 152 188 234 284 335
#
# _framework density 20.072821000000001
#
# number of rings (size 3 to 8) (size 9 to 14) (size 15 to 20)
#    0.000    1.833    1.667    4.500    0.000    6.000 
#    0.000    2.083    0.000    2.000    0.000    0.000 
#    0.000    0.000    0.000    0.000    0.000    0.000 
#
# Total GULP energy -594921.524474 kJ/mol
# GULP energy per Si atom -12394.198427 kJ/mol
# Density = 2.002713 g / cm^3
# Si number density = 20.072821 Si / 1000 Ang^3
#
#
#
# Elastic Constant Matrix: (Units=GPa)
#
#
# Indices 1 2 3 4 5 6 
#
# 1 72.7076 41.4154 11.9813 0.0000 0.0000 0.0000
# 2 41.4154 85.1044 25.9306 0.0000 0.0000 0.0000
# 3 11.9813 25.9306 62.0429 0.0000 0.0000 0.0000
# 4 0.0000 0.0000 0.0000 21.7291 0.0000 0.0000
# 5 0.0000 0.0000 0.0000 0.0000 -6.6399 0.0000
# 6 0.0000 0.0000 0.0000 0.0000 0.0000 34.5749
#
#
#
# Elastic Compliance Matrix: (Units=1/GPa)
#
#
# Indices 1 2 3 4 5 6 
#
# 1 0.019031 -0.009330 0.000224 0.000000 0.000000 0.000000
# 2 -0.009330 0.018039 -0.005738 0.000000 0.000000 0.000000
# 3 0.000224 -0.005738 0.018473 0.000000 0.000000 0.000000
# 4 0.000000 0.000000 0.000000 0.046021 0.000000 0.000000
# 5 0.000000 0.000000 0.000000 0.000000 -0.150604 0.000000
# 6 0.000000 0.000000 0.000000 0.000000 0.000000 0.028923
#
#
# Mechanical properties :
#
#
# Convention : Reuss Voigt Hill
#
# Bulk Modulus (GPa) = 38.67530 42.05661 40.36596
# Shear Modulus (GPa) = 274.91800 19.30132 147.10966
#
# Velocity S-wave (km/s) = 11.71570 3.10427 8.57013
# Velocity P-wave (km/s) = 14.22391 5.81775 10.86659
#
# Compressibility (1/GPa) = 0.02585629
#
# Stress axis : x y z
#
# Youngs Moduli (GPa) = 52.54555 55.43648 54.13427
#
# Poissons Ratio (x) = 0.51720 -0.01213
# Poissons Ratio (y) = 0.49023 0.31060
# Poissons Ratio (z) = -0.01178 0.31807
#
# Static dielectric constant tensor:
#      x y z
#    x 3.994960 0.000000 0.000000 
#    y 0.000000 3.663380 0.000000 
#    z 0.000000 0.000000 3.680930 
# 
# 
# High freq. dielectric constant tensor:
#      x y z
#    x 1.765350 0.000000 0.000000 
#    y 0.000000 1.789660 0.000000 
#    z 0.000000 0.000000 1.780650 
# 
# From -- ./inp_files/29361.got.cif
#   From: 2010.03.12/outbox.cif.g09.slc.cpg/sg67_15_cif.got.tgz:29361.got - 2010.04.10 22:41:39.
