data_PCOD8281957
_publ_section_title
;
Structure prediction by ZEFSAII (Michael W. Deem and Ramdas Pophale) SiO2 
 PCOD8281957
Probable space group: C C C A
;
_chemical_formula_sum "Si O2"
_cell_formula_units_Z 80
_cell_length_a 14.795584
_cell_length_b 16.836380
_cell_length_c 17.742801
_cell_angle_alpha 90.000000
_cell_angle_beta 90.000000
_cell_angle_gamma 90.000000
_cell_volume 4419.804023
_symmetry_space_group_name_H-M "C C C A"
_symmetry_group_IT_number 68
_space_group.IT_coordinate_system_code '2'
_symmetry_cell_setting 'orthorhombic'
loop_
_space_group_symop_operation_xyz
x,y,z
-x,1/2-y,z
x,1/2-y,1/2-z
-x,y,1/2-z
-x,-y,-z
x,1/2+y,-z
-x,1/2+y,1/2+z
x,-y,1/2+z
1/2+x,1/2+y,z
1/2-x,-y,z
1/2+x,-y,1/2-z
1/2-x,1/2+y,1/2-z
1/2-x,1/2-y,-z
1/2+x,y,-z
1/2-x,y,1/2+z
1/2+x,1/2-y,1/2+z
loop_
_atom_site_type_symbol
_atom_site_label
_atom_site_fract_x
_atom_site_fract_y
_atom_site_fract_z
Si Si1 0.963192 0.412758 0.506800
Si Si2 0.141377 0.177198 0.971291
Si Si3 0.227479 0.589192 0.423179
Si Si4 0.236114 0.743428 0.333839
Si Si5 0.590459 0.292055 0.897444
O O1 0.878922 0.407772 0.562068
O O2 0.934898 0.381322 0.423317
O O3 0.000000 0.500000 0.500000
O O4 0.042224 0.358397 0.540807
O O5 0.170756 0.210615 0.890837
O O6 0.212435 0.111778 0.003041
O O7 0.136231 0.250135 0.029479
O O8 0.250000 0.500000 0.396622
O O9 0.248978 0.650906 0.356080
O O10 0.195517 0.750000 0.250000
O O11 0.333976 0.788097 0.332710
O O12 0.500000 0.250000 0.867897
#
# Coordination Sequence:
#
# PCOD8281957 Si02
#       5
#    16  16  16  16  16
#     4  11  19  31  59  92 108 140 191 255 297 320
#     4  10  19  35  59  84 109 148 196 242 281 334
#     4  11  20  37  58  86 116 142 196 251 289 332
#     4  11  22  38  58  82 120 162 190 227 291 362
#     4   9  18  34  58  83 108 143 199 245 275 333
#
# _framework density 18.100349999999999
#
# number of rings (size 3 to 8) (size 9 to 14) (size 15 to 20)
#    0.000    1.600    6.000    1.200    0.000    0.400 
#    0.000    5.000    0.000    0.000    0.000    0.000 
#    0.000    0.000    0.000    0.000    0.000    0.000 
#
# Total GULP energy -495944.642677 kJ/mol
# GULP energy per Si atom -12398.616067 kJ/mol
# Density = 1.805915 g / cm^3
# Si number density = 18.100350 Si / 1000 Ang^3
#
#
#
# Elastic Constant Matrix: (Units=GPa)
#
#
# Indices 1 2 3 4 5 6 
#
# 1 109.0574 23.9784 23.9826 0.0000 0.0000 0.0000
# 2 23.9784 118.9923 26.0612 0.0000 0.0000 0.0000
# 3 23.9826 26.0612 81.5222 0.0000 0.0000 0.0000
# 4 0.0000 0.0000 0.0000 14.6393 0.0000 0.0000
# 5 0.0000 0.0000 0.0000 0.0000 17.9796 0.0000
# 6 0.0000 0.0000 0.0000 0.0000 0.0000 27.2317
#
#
#
# Elastic Compliance Matrix: (Units=1/GPa)
#
#
# Indices 1 2 3 4 5 6 
#
# 1 0.010040 -0.001480 -0.002481 0.000000 0.000000 0.000000
# 2 -0.001480 0.009255 -0.002523 0.000000 0.000000 0.000000
# 3 -0.002481 -0.002523 0.013803 0.000000 0.000000 0.000000
# 4 0.000000 0.000000 0.000000 0.068309 0.000000 0.000000
# 5 0.000000 0.000000 0.000000 0.000000 0.055619 0.000000
# 6 0.000000 0.000000 0.000000 0.000000 0.000000 0.036722
#
#
# Mechanical properties :
#
#
# Convention : Reuss Voigt Hill
#
# Bulk Modulus (GPa) = 49.67569 50.84626 50.26097
# Shear Modulus (GPa) = 23.42737 27.67344 25.55041
#
# Velocity S-wave (km/s) = 3.60155 3.91434 3.76120
# Velocity P-wave (km/s) = 6.69321 6.97006 6.83304
#
# Compressibility (1/GPa) = 0.02013057
#
# Stress axis : x y z
#
# Youngs Moduli (GPa) = 99.59777 108.05261 72.44817
#
# Poissons Ratio (x) = 0.15991 0.17972
# Poissons Ratio (y) = 0.14740 0.18280
# Poissons Ratio (z) = 0.24706 0.27264
#
# Static dielectric constant tensor:
#      x y z
#    x 3.810690 0.000000 0.000000 
#    y 0.000000 3.550270 0.000000 
#    z 0.000000 0.000000 2.880860 
# 
# 
# High freq. dielectric constant tensor:
#      x y z
#    x 1.727440 0.000000 0.000000 
#    y 0.000000 1.703560 0.000000 
#    z 0.000000 0.000000 1.644100 
# 
# From -- ./inp_files/30785.got.cif
#   From: 2010.03.12/outbox.cif.g09.slc.cpg/sg68_16_cif.got.tgz:30785.got - 2010.04.10 23:14:56.
