data_PCOD8281938
_publ_section_title
;
Structure prediction by ZEFSAII (Michael W. Deem and Ramdas Pophale) SiO2 
 PCOD8281938
Probable space group: C C C A
;
_chemical_formula_sum "Si O2"
_cell_formula_units_Z 104
_cell_length_a 21.388449
_cell_length_b 13.544005
_cell_length_c 18.283755
_cell_angle_alpha 90.000000
_cell_angle_beta 90.000000
_cell_angle_gamma 90.000000
_cell_volume 5296.534325
_symmetry_space_group_name_H-M "C C C A"
_symmetry_group_IT_number 68
_space_group.IT_coordinate_system_code '2'
_symmetry_cell_setting 'orthorhombic'
loop_
_space_group_symop_operation_xyz
x,y,z
-x,1/2-y,z
x,1/2-y,1/2-z
-x,y,1/2-z
-x,-y,-z
x,1/2+y,-z
-x,1/2+y,1/2+z
x,-y,1/2+z
1/2+x,1/2+y,z
1/2-x,-y,z
1/2+x,-y,1/2-z
1/2-x,1/2+y,1/2-z
1/2-x,1/2-y,-z
1/2+x,y,-z
1/2-x,y,1/2+z
1/2+x,1/2-y,1/2+z
loop_
_atom_site_type_symbol
_atom_site_label
_atom_site_fract_x
_atom_site_fract_y
_atom_site_fract_z
Si Si1 0.307859 0.174791 0.496992
Si Si2 0.022117 0.137519 0.094866
Si Si3 0.250000 0.000000 0.909919
Si Si4 0.953061 0.021208 0.682602
Si Si5 0.839586 0.106596 0.196691
Si Si6 0.557307 0.174411 0.058298
Si Si7 0.147003 0.678526 0.846099
O O1 0.250000 0.250000 0.500000
O O2 0.372134 0.218764 0.459205
O O3 0.316368 0.150149 0.581588
O O4 0.293485 0.069978 0.458964
O O5 0.079277 0.127185 0.151546
O O6 0.000000 0.250000 0.091978
O O7 0.971553 0.062683 0.124706
O O8 0.042098 0.105731 0.012254
O O9 0.286241 0.073792 0.857648
O O10 0.887327 0.982550 0.712400
O O11 0.000000 0.041208 0.750000
O O12 0.941816 0.119694 0.635995
O O13 0.868167 0.204703 0.160033
O O14 0.813735 0.137045 0.277056
O O15 0.500000 0.250000 0.065695
#
# Coordination Sequence:
#
# PCOD8281938 Si02
#       7
#    16  16   8  16  16  16  16
#     4  11  23  44  69  98 127 179 230 279 334 403
#     4  10  19  34  60  94 124 156 200 261 321 388
#     4  12  24  42  70  92 132 172 230 280 332 396
#     4  12  22  37  63  94 128 167 211 262 331 398
#     4  11  22  38  63  93 130 167 210 279 329 394
#     4  10  24  43  63  90 131 174 220 271 329 397
#     4  10  21  38  61  93 130 163 212 265 338 393
#
# _framework density 19.635480999999999
#
# number of rings (size 3 to 8) (size 9 to 14) (size 15 to 20)
#    0.000    1.231    6.154    0.462    0.000    1.231 
#    5.538    1.538    3.385    0.000    0.000    0.000 
#    0.000    0.000    0.000    0.000    0.000    0.000 
#
# Total GULP energy -644180.204395 kJ/mol
# GULP energy per Si atom -12388.080854 kJ/mol
# Density = 1.959079 g / cm^3
# Si number density = 19.635481 Si / 1000 Ang^3
#
#
#
# Elastic Constant Matrix: (Units=GPa)
#
#
# Indices 1 2 3 4 5 6 
#
# 1 101.1201 36.5618 42.0669 0.0000 0.0000 0.0000
# 2 36.5618 69.9937 45.1621 0.0000 0.0000 0.0000
# 3 42.0669 45.1621 139.2659 0.0000 0.0000 0.0000
# 4 0.0000 0.0000 0.0000 -91.7189 0.0000 0.0000
# 5 0.0000 0.0000 0.0000 0.0000 37.5667 0.0000
# 6 0.0000 0.0000 0.0000 0.0000 0.0000 25.1302
#
#
#
# Elastic Compliance Matrix: (Units=1/GPa)
#
#
# Indices 1 2 3 4 5 6 
#
# 1 0.012671 -0.005247 -0.002126 0.000000 0.000000 0.000000
# 2 -0.005247 0.020240 -0.004979 0.000000 0.000000 0.000000
# 3 -0.002126 -0.004979 0.009437 0.000000 0.000000 0.000000
# 4 0.000000 0.000000 0.000000 -0.010903 0.000000 0.000000
# 5 0.000000 0.000000 0.000000 0.000000 0.026619 0.000000
# 6 0.000000 0.000000 0.000000 0.000000 0.000000 0.039793
#
#
# Mechanical properties :
#
#
# Convention : Reuss Voigt Hill
#
# Bulk Modulus (GPa) = 56.67313 61.99572 59.33443
# Shear Modulus (GPa) = 38.92801 6.63485 22.78143
#
# Velocity S-wave (km/s) = 4.45740 1.84020 3.40989
# Velocity P-wave (km/s) = 7.44422 6.01307 6.76659
#
# Compressibility (1/GPa) = 0.01764505
#
# Stress axis : x y z
#
# Youngs Moduli (GPa) = 78.92197 49.40648 105.96404
#
# Poissons Ratio (x) = 0.25924 0.22526
# Poissons Ratio (y) = 0.41411 0.52757
# Poissons Ratio (z) = 0.16777 0.24598
#
# Static dielectric constant tensor:
#      x y z
#    x 3.728600 0.000000 0.000000 
#    y 0.000000 3.275660 0.000000 
#    z 0.000000 0.000000 3.767280 
# 
# 
# High freq. dielectric constant tensor:
#      x y z
#    x 1.760810 0.000000 0.000000 
#    y 0.000000 1.741250 0.000000 
#    z 0.000000 0.000000 1.783270 
# 
# From -- ./inp_files/33015.got.cif
#   From: 2010.03.12/outbox.cif.g09.slc.cpg/sg68_17_cif.got.tgz:33015.got - 2010.04.10 23:14:56.
