data_PCOD8281666
_publ_section_title
;
Structure prediction by ZEFSAII (Michael W. Deem and Ramdas Pophale) SiO2 
 PCOD8281666
Probable space group: C C C A
;
_chemical_formula_sum "Si O2"
_cell_formula_units_Z 96
_cell_length_a 17.849262
_cell_length_b 8.824413
_cell_length_c 27.429135
_cell_angle_alpha 90.000000
_cell_angle_beta 90.000000
_cell_angle_gamma 90.000000
_cell_volume 4320.342746
_symmetry_space_group_name_H-M "C C C A"
_symmetry_group_IT_number 68
_space_group.IT_coordinate_system_code '2'
_symmetry_cell_setting 'orthorhombic'
loop_
_space_group_symop_operation_xyz
x,y,z
-x,1/2-y,z
x,1/2-y,1/2-z
-x,y,1/2-z
-x,-y,-z
x,1/2+y,-z
-x,1/2+y,1/2+z
x,-y,1/2+z
1/2+x,1/2+y,z
1/2-x,-y,z
1/2+x,-y,1/2-z
1/2-x,1/2+y,1/2-z
1/2-x,1/2-y,-z
1/2+x,y,-z
1/2-x,y,1/2+z
1/2+x,1/2-y,1/2+z
loop_
_atom_site_type_symbol
_atom_site_label
_atom_site_fract_x
_atom_site_fract_y
_atom_site_fract_z
Si Si1 0.674241 0.924470 0.761991
Si Si2 0.134529 0.960927 0.933107
Si Si3 0.615372 0.269296 0.488733
Si Si4 0.395619 0.597686 0.172822
Si Si5 0.067483 0.062521 0.165639
Si Si6 0.041669 0.995351 0.559751
O O1 0.687725 0.750000 0.750000
O O2 0.750000 0.000000 0.782327
O O3 0.650878 0.015931 0.714176
O O4 0.611405 0.934860 0.804089
O O5 0.045557 0.981494 0.931636
O O6 0.160257 0.825823 0.969972
O O7 0.153801 0.927075 0.876883
O O8 0.168425 0.120189 0.954837
O O9 0.558032 0.382387 0.515490
O O10 0.568779 0.163605 0.452532
O O11 0.479307 0.529340 0.172205
O O12 0.404706 0.775000 0.184943
O O13 0.086231 0.055264 0.108221
#
# Coordination Sequence:
#
# PCOD8281666 Si02
#       6
#    16  16  16  16  16  16
#     4  12  27  46  67  87 111 151 201 252 307 366
#     4  10  17  27  46  78 121 163 196 232 284 340
#     4  10  17  26  44  76 121 164 199 234 277 338
#     4  10  21  38  61  92 128 161 194 242 301 353
#     4  10  21  38  61  92 128 161 194 242 301 353
#     4  10  17  27  46  78 121 163 196 232 284 340
#
# _framework density 22.220458000000001
#
# number of rings (size 3 to 8) (size 9 to 14) (size 15 to 20)
#    0.000    1.667    1.667    6.000    2.333    2.667 
#    0.000    0.000    0.000    0.000    0.000    7.000 
#    0.000    0.000    0.000    0.000    0.000    0.000 
#
# Total GULP energy -594923.974573 kJ/mol
# GULP energy per Si atom -12394.249470 kJ/mol
# Density = 2.216988 g / cm^3
# Si number density = 22.220458 Si / 1000 Ang^3
#
#
#
# Elastic Constant Matrix: (Units=GPa)
#
#
# Indices 1 2 3 4 5 6 
#
# 1 37.9405 13.9823 13.2875 0.0000 0.0000 0.0000
# 2 13.9823 113.6033 13.6452 0.0000 0.0000 0.0000
# 3 13.2875 13.6452 100.9574 0.0000 0.0000 0.0000
# 4 0.0000 0.0000 0.0000 37.2706 0.0000 0.0000
# 5 0.0000 0.0000 0.0000 0.0000 -5.5827 0.0000
# 6 0.0000 0.0000 0.0000 0.0000 0.0000 18.5704
#
#
#
# Elastic Compliance Matrix: (Units=1/GPa)
#
#
# Indices 1 2 3 4 5 6 
#
# 1 0.028684 -0.003128 -0.003352 0.000000 0.000000 0.000000
# 2 -0.003128 0.009289 -0.000844 0.000000 0.000000 0.000000
# 3 -0.003352 -0.000844 0.010460 0.000000 0.000000 0.000000
# 4 0.000000 0.000000 0.000000 0.026831 0.000000 0.000000
# 5 0.000000 0.000000 0.000000 0.000000 -0.179125 0.000000
# 6 0.000000 0.000000 0.000000 0.000000 0.000000 0.053849
#
#
# Mechanical properties :
#
#
# Convention : Reuss Voigt Hill
#
# Bulk Modulus (GPa) = 29.59882 37.14792 33.37337
# Shear Modulus (GPa) = -207.44849 24.15741 -91.64554
#
# Velocity S-wave (km/s) = -9.67274 3.30080 -6.42910
# Velocity P-wave (km/s) = 10.55461 5.59296 6.32924
#
# Compressibility (1/GPa) = 0.03378513
#
# Stress axis : x y z
#
# Youngs Moduli (GPa) = 34.86279 107.65567 95.59819
#
# Poissons Ratio (x) = 0.33672 0.32049
# Poissons Ratio (y) = 0.10904 0.08067
# Poissons Ratio (z) = 0.11688 0.09084
#
# Static dielectric constant tensor:
#      x y z
#    x 3.401540 0.000000 0.000000 
#    y 0.000000 4.479930 0.000000 
#    z 0.000000 0.000000 4.312130 
# 
# 
# High freq. dielectric constant tensor:
#      x y z
#    x 1.821890 0.000000 0.000000 
#    y 0.000000 1.884560 0.000000 
#    z 0.000000 0.000000 1.892580 
# 
# From -- ./inp_files/51754.got.cif
#   From: 2010.03.12/outbox.cif.g09.slc.cpg/sg68_26_cif.got.tgz:51754.got - 2010.04.10 23:14:56.
