data_PCOD8281287
_publ_section_title
;
Structure prediction by ZEFSAII (Michael W. Deem and Ramdas Pophale) SiO2 
 PCOD8281287
Probable space group: C M M A
;
_chemical_formula_sum "Si O2"
_cell_formula_units_Z 104
_cell_length_a 21.869634
_cell_length_b 26.051057
_cell_length_c 9.039781
_cell_angle_alpha 90.000000
_cell_angle_beta 90.000000
_cell_angle_gamma 90.000000
_cell_volume 5150.208050
_symmetry_space_group_name_H-M "C M M A"
_symmetry_group_IT_number 67
_symmetry_cell_setting 'orthorhombic'
loop_
_space_group_symop_operation_xyz
x,y,z
-x,1/2-y,z
x,-y,-z
-x,1/2+y,-z
-x,-y,-z
x,1/2+y,-z
-x,y,z
x,1/2-y,z
1/2+x,1/2+y,z
1/2-x,-y,z
1/2+x,1/2-y,-z
1/2-x,y,-z
1/2-x,1/2-y,-z
1/2+x,y,-z
1/2-x,1/2+y,z
1/2+x,-y,z
loop_
_atom_site_type_symbol
_atom_site_label
_atom_site_fract_x
_atom_site_fract_y
_atom_site_fract_z
Si Si1 0.933668 0.940843 0.026621
Si Si2 0.651101 0.250000 0.442875
Si Si3 0.357740 0.500000 0.500000
Si Si4 0.229295 0.250000 0.264100
Si Si5 0.265555 0.862405 0.167037
Si Si6 0.429493 0.347241 0.468157
Si Si7 0.152619 0.915437 0.284699
Si Si8 0.112770 0.588478 0.719390
O O1 0.874067 0.931701 0.126654
O O2 0.000000 0.921726 0.090678
O O3 0.925288 0.914595 0.868489
O O4 0.937568 0.000000 0.000000
O O5 0.700661 0.250000 0.313581
O O6 0.683161 0.250000 0.600635
O O7 0.608201 0.201873 0.421711
O O8 0.320799 0.537453 0.613391
O O9 0.394605 0.462652 0.615363
O O10 0.217174 0.198094 0.170252
O O11 0.205930 0.873640 0.267203
O O12 0.317143 0.898678 0.238174
O O13 0.250000 0.879039 0.000000
O O14 0.500000 0.336126 0.439684
O O15 0.406555 0.393480 0.366381
O O16 0.416531 0.362596 0.637298
#
# Coordination Sequence:
#
# PCOD8281287 Si02
#       8
#    16   8   8   8  16  16  16  16
#     4  11  22  41  63  87 126 171 214 255 295 365
#     4  11  21  38  68  90 121 161 210 250 324 367
#     4  10  24  39  59  90 132 152 205 257 298 374
#     4  11  23  42  62  94 121 159 204 268 304 386
#     4  12  24  41  69  87 124 163 207 264 316 366
#     4  11  23  40  63  93 129 164 206 258 308 373
#     4  11  23  41  62  94 123 168 209 252 314 363
#     4  11  23  41  62  94 123 168 209 252 314 363
#
# _framework density 20.193359000000001
#
# number of rings (size 3 to 8) (size 9 to 14) (size 15 to 20)
#    0.000    0.923    6.154    1.385    0.000    3.692 
#    0.000    3.846    0.000    0.000    0.000    6.462 
#    0.000    0.000    0.000    0.000    0.000    0.000 
#
# Total GULP energy -644357.037064 kJ/mol
# GULP energy per Si atom -12391.481482 kJ/mol
# Density = 2.014740 g / cm^3
# Si number density = 20.193359 Si / 1000 Ang^3
#
#
#
# Elastic Constant Matrix: (Units=GPa)
#
#
# Indices 1 2 3 4 5 6 
#
# 1 110.4341 25.9963 16.8743 0.0000 0.0000 0.0000
# 2 25.9963 87.9799 23.6837 0.0000 0.0000 0.0000
# 3 16.8743 23.6837 86.3531 0.0000 0.0000 0.0000
# 4 0.0000 0.0000 0.0000 27.2741 0.0000 0.0000
# 5 0.0000 0.0000 0.0000 0.0000 27.4493 0.0000
# 6 0.0000 0.0000 0.0000 0.0000 0.0000 53.7436
#
#
#
# Elastic Compliance Matrix: (Units=1/GPa)
#
#
# Indices 1 2 3 4 5 6 
#
# 1 0.009849 -0.002583 -0.001216 0.000000 0.000000 0.000000
# 2 -0.002583 0.012950 -0.003047 0.000000 0.000000 0.000000
# 3 -0.001216 -0.003047 0.012654 0.000000 0.000000 0.000000
# 4 0.000000 0.000000 0.000000 0.036665 0.000000 0.000000
# 5 0.000000 0.000000 0.000000 0.000000 0.036431 0.000000
# 6 0.000000 0.000000 0.000000 0.000000 0.000000 0.018607
#
#
# Mechanical properties :
#
#
# Convention : Reuss Voigt Hill
#
# Bulk Modulus (GPa) = 45.95499 46.43063 46.19281
# Shear Modulus (GPa) = 33.76094 36.24092 35.00093
#
# Velocity S-wave (km/s) = 4.09330 4.24098 4.16780
# Velocity P-wave (km/s) = 6.71916 6.85742 6.78864
#
# Compressibility (1/GPa) = 0.02176042
#
# Stress axis : x y z
#
# Youngs Moduli (GPa) = 101.53317 77.22239 79.02832
#
# Poissons Ratio (x) = 0.19945 0.09612
# Poissons Ratio (y) = 0.26224 0.24079
# Poissons Ratio (z) = 0.12349 0.23529
#
# Static dielectric constant tensor:
#      x y z
#    x 3.711580 0.000000 0.000000 
#    y 0.000000 3.768350 0.000000 
#    z 0.000000 0.000000 3.680320 
# 
# 
# High freq. dielectric constant tensor:
#      x y z
#    x 1.778780 0.000000 0.000000 
#    y 0.000000 1.789720 0.000000 
#    z 0.000000 0.000000 1.796060 
# 
# From -- ./inp_files/11611.got.cif
#   From: 2010.03.12/outbox.cif.g09.slc.cpg/sg67_6_cif.got.tgz:11611.got - 2010.04.10 22:41:39.
