data_PCOD8281648
_publ_section_title
;
Structure prediction by ZEFSAII (Michael W. Deem and Ramdas Pophale) SiO2 
 PCOD8281648
Probable space group: C C C A
;
_chemical_formula_sum "Si O2"
_cell_formula_units_Z 88
_cell_length_a 19.880168
_cell_length_b 9.245681
_cell_length_c 22.746572
_cell_angle_alpha 90.000000
_cell_angle_beta 90.000000
_cell_angle_gamma 90.000000
_cell_volume 4180.949397
_symmetry_space_group_name_H-M "C C C A"
_symmetry_group_IT_number 68
_space_group.IT_coordinate_system_code '2'
_symmetry_cell_setting 'orthorhombic'
loop_
_space_group_symop_operation_xyz
x,y,z
-x,1/2-y,z
x,1/2-y,1/2-z
-x,y,1/2-z
-x,-y,-z
x,1/2+y,-z
-x,1/2+y,1/2+z
x,-y,1/2+z
1/2+x,1/2+y,z
1/2-x,-y,z
1/2+x,-y,1/2-z
1/2-x,1/2+y,1/2-z
1/2-x,1/2-y,-z
1/2+x,y,-z
1/2-x,y,1/2+z
1/2+x,1/2-y,1/2+z
loop_
_atom_site_type_symbol
_atom_site_label
_atom_site_fract_x
_atom_site_fract_y
_atom_site_fract_z
Si Si1 0.344605 0.788590 0.926240
Si Si2 0.171295 0.483052 0.471143
Si Si3 0.571638 0.177914 0.191189
Si Si4 0.750000 0.500000 0.712924
Si Si5 0.791391 0.227982 0.376657
Si Si6 0.371794 0.392448 0.714119
O O1 0.363004 0.635947 0.956808
O O2 0.381926 0.798060 0.864722
O O3 0.264049 0.804390 0.917406
O O4 0.365321 0.915528 0.971539
O O5 0.250000 0.500000 0.482785
O O6 0.161670 0.378939 0.414582
O O7 0.500000 0.250000 0.178156
O O8 0.602655 0.250000 0.250000
O O9 0.566494 0.003162 0.202259
O O10 0.748021 0.642701 0.672602
O O11 0.683513 0.489127 0.752249
O O12 0.840111 0.346137 0.348068
O O13 0.395467 0.250000 0.750000
#
# Coordination Sequence:
#
# PCOD8281648 Si02
#       6
#    16  16  16   8  16  16
#     4  11  22  38  63  89 133 171 211 259 315 388
#     4  10  21  35  59  93 131 168 204 251 321 393
#     4  11  26  46  66  86 121 169 221 275 337 374
#     4  10  16  32  52 102 134 162 190 262 326 404
#     4  10  18  33  59  94 133 158 204 251 332 393
#     4  10  22  35  64  94 130 165 217 263 330 396
#
# _framework density 21.047851000000001
#
# number of rings (size 3 to 8) (size 9 to 14) (size 15 to 20)
#    0.000    1.636    2.727    4.364    7.636    1.455 
#    0.000    2.727    0.000    0.000    0.000    0.000 
#    0.000    0.000    0.000    0.000    0.000    0.000 
#
# Total GULP energy -545412.346529 kJ/mol
# GULP energy per Si atom -12395.735148 kJ/mol
# Density = 2.099995 g / cm^3
# Si number density = 21.047851 Si / 1000 Ang^3
#
#
#
# Elastic Constant Matrix: (Units=GPa)
#
#
# Indices 1 2 3 4 5 6 
#
# 1 38.1362 38.6401 16.2213 0.0000 0.0000 0.0000
# 2 38.6401 144.1610 59.5271 0.0000 0.0000 0.0000
# 3 16.2213 59.5271 139.4779 0.0000 0.0000 0.0000
# 4 0.0000 0.0000 0.0000 35.5894 0.0000 0.0000
# 5 0.0000 0.0000 0.0000 0.0000 15.4405 0.0000
# 6 0.0000 0.0000 0.0000 0.0000 0.0000 29.1390
#
#
#
# Elastic Compliance Matrix: (Units=1/GPa)
#
#
# Indices 1 2 3 4 5 6 
#
# 1 0.035999 -0.009614 -0.000083 0.000000 0.000000 0.000000
# 2 -0.009614 0.010988 -0.003572 0.000000 0.000000 0.000000
# 3 -0.000083 -0.003572 0.008704 0.000000 0.000000 0.000000
# 4 0.000000 0.000000 0.000000 0.028098 0.000000 0.000000
# 5 0.000000 0.000000 0.000000 0.000000 0.064765 0.000000
# 6 0.000000 0.000000 0.000000 0.000000 0.000000 0.034318
#
#
# Mechanical properties :
#
#
# Convention : Reuss Voigt Hill
#
# Bulk Modulus (GPa) = 34.30287 61.17245 47.73766
# Shear Modulus (GPa) = 22.81768 29.85956 26.33862
#
# Velocity S-wave (km/s) = 3.29612 3.77058 3.54131
# Velocity P-wave (km/s) = 5.55147 6.93419 6.28100
#
# Compressibility (1/GPa) = 0.02915208
#
# Stress axis : x y z
#
# Youngs Moduli (GPa) = 27.77870 91.00450 114.89538
#
# Poissons Ratio (x) = 0.87496 0.00958
# Poissons Ratio (y) = 0.26708 0.41035
# Poissons Ratio (z) = 0.00232 0.32503
#
# Static dielectric constant tensor:
#      x y z
#    x 3.113810 0.000000 0.000000 
#    y 0.000000 4.130450 0.000000 
#    z 0.000000 0.000000 4.072170 
# 
# 
# High freq. dielectric constant tensor:
#      x y z
#    x 1.746470 0.000000 0.000000 
#    y 0.000000 1.843890 0.000000 
#    z 0.000000 0.000000 1.846010 
# 
# From -- ./inp_files/40757.got.cif
#   From: 2010.03.12/outbox.cif.g09.slc.cpg/sg68_21_cif.got.tgz:40757.got - 2010.04.10 23:14:56.
