data_PCOD8281019
_publ_section_title
;
Structure prediction by ZEFSAII (Michael W. Deem and Ramdas Pophale) SiO2 
 PCOD8281019
Probable space group: C M M A
;
_chemical_formula_sum "Si O2"
_cell_formula_units_Z 72
_cell_length_a 8.750012
_cell_length_b 15.990094
_cell_length_c 24.319230
_cell_angle_alpha 90.000000
_cell_angle_beta 90.000000
_cell_angle_gamma 90.000000
_cell_volume 3402.588936
_symmetry_space_group_name_H-M "C M M A"
_symmetry_group_IT_number 67
_symmetry_cell_setting 'orthorhombic'
loop_
_space_group_symop_operation_xyz
x,y,z
-x,1/2-y,z
x,-y,-z
-x,1/2+y,-z
-x,-y,-z
x,1/2+y,-z
-x,y,z
x,1/2-y,z
1/2+x,1/2+y,z
1/2-x,-y,z
1/2+x,1/2-y,-z
1/2-x,y,-z
1/2-x,1/2-y,-z
1/2+x,y,-z
1/2-x,1/2+y,z
1/2+x,-y,z
loop_
_atom_site_type_symbol
_atom_site_label
_atom_site_fract_x
_atom_site_fract_y
_atom_site_fract_z
Si Si1 0.825598 0.155469 0.769511
Si Si2 0.180791 0.087686 0.333469
Si Si3 0.819231 0.913735 0.874324
Si Si4 0.318738 0.750000 0.060000
Si Si5 0.175436 0.651263 0.443330
O O1 0.816948 0.250000 0.791459
O O2 0.745916 0.154299 0.709870
O O3 0.737066 0.096089 0.811789
O O4 0.000000 0.124761 0.764415
O O5 0.232358 0.108531 0.394752
O O6 0.000000 0.086367 0.331144
O O7 0.250000 0.000000 0.314679
O O8 0.760856 0.834076 0.909427
O O9 0.000000 0.920275 0.875344
O O10 0.750000 0.000000 0.898858
O O11 0.500000 0.750000 0.056897
O O12 0.250000 0.750000 0.000000
O O13 0.190850 0.750000 0.437260
O O14 0.250000 0.620144 0.500000
O O15 0.000000 0.622193 0.441288
#
# Coordination Sequence:
#
# PCOD8281019 Si02
#       5
#    16  16  16   8  16
#     4  11  23  40  64  93 125 164 208 258 316 379
#     4  12  25  40  59  85 120 159 202 253 310 372
#     4  11  23  42  66  97 133 173 219 269 324 383
#     4  10  24  44  68  96 134 176 221 270 321 380
#     4  10  21  39  62  87 116 151 196 248 304 371
#
# _framework density 21.160357999999999
#
# number of rings (size 3 to 8) (size 9 to 14) (size 15 to 20)
#    0.000    1.111    1.111    5.333    0.000    8.000 
#    0.000    4.444    0.000    0.000    0.000    0.000 
#    0.000    0.000    0.000    0.000    0.000    0.000 
#
# Total GULP energy -446606.153095 kJ/mol
# GULP energy per Si atom -12405.726475 kJ/mol
# Density = 2.111220 g / cm^3
# Si number density = 21.160358 Si / 1000 Ang^3
#
#
#
# Elastic Constant Matrix: (Units=GPa)
#
#
# Indices 1 2 3 4 5 6 
#
# 1 142.1742 51.6960 44.5898 0.0000 0.0000 0.0000
# 2 51.6960 116.2767 51.1875 0.0000 0.0000 0.0000
# 3 44.5898 51.1875 125.1618 0.0000 0.0000 0.0000
# 4 0.0000 0.0000 0.0000 12.7350 0.0000 0.0000
# 5 0.0000 0.0000 0.0000 0.0000 41.5643 0.0000
# 6 0.0000 0.0000 0.0000 0.0000 0.0000 34.3049
#
#
#
# Elastic Compliance Matrix: (Units=1/GPa)
#
#
# Indices 1 2 3 4 5 6 
#
# 1 0.008730 -0.003064 -0.001857 0.000000 0.000000 0.000000
# 2 -0.003064 0.011564 -0.003638 0.000000 0.000000 0.000000
# 3 -0.001857 -0.003638 0.010139 0.000000 0.000000 0.000000
# 4 0.000000 0.000000 0.000000 0.078524 0.000000 0.000000
# 5 0.000000 0.000000 0.000000 0.000000 0.024059 0.000000
# 6 0.000000 0.000000 0.000000 0.000000 0.000000 0.029150
#
#
# Mechanical properties :
#
#
# Convention : Reuss Voigt Hill
#
# Bulk Modulus (GPa) = 75.10057 75.39548 75.24802
# Shear Modulus (GPa) = 27.21505 33.46348 30.33926
#
# Velocity S-wave (km/s) = 3.59016 3.98103 3.79063
# Velocity P-wave (km/s) = 7.26319 7.53918 7.40247
#
# Compressibility (1/GPa) = 0.01331548
#
# Stress axis : x y z
#
# Youngs Moduli (GPa) = 114.54615 86.47737 98.62905
#
# Poissons Ratio (x) = 0.26495 0.18317
# Poissons Ratio (y) = 0.35095 0.35878
# Poissons Ratio (z) = 0.21273 0.31458
#
# Static dielectric constant tensor:
#      x y z
#    x 3.859330 0.000000 0.000000 
#    y 0.000000 3.977980 0.000000 
#    z 0.000000 0.000000 3.794420 
# 
# 
# High freq. dielectric constant tensor:
#      x y z
#    x 1.839720 0.000000 0.000000 
#    y 0.000000 1.837120 0.000000 
#    z 0.000000 0.000000 1.830120 
# 
# From -- ./inp_files/43092.got.cif
#   From: 2010.03.12/outbox.cif.g09.slc.cpg/sg67_22_cif.got.tgz:43092.got - 2010.04.10 22:41:39.
