data_PCOD8281641
_publ_section_title
;
Structure prediction by ZEFSAII (Michael W. Deem and Ramdas Pophale) SiO2 
 PCOD8281641
Probable space group: C C C A
;
_chemical_formula_sum "Si O2"
_cell_formula_units_Z 68
_cell_length_a 11.736028
_cell_length_b 17.096612
_cell_length_c 18.267851
_cell_angle_alpha 90.000000
_cell_angle_beta 90.000000
_cell_angle_gamma 90.000000
_cell_volume 3665.377025
_symmetry_space_group_name_H-M "C C C A"
_symmetry_group_IT_number 68
_space_group.IT_coordinate_system_code '2'
_symmetry_cell_setting 'orthorhombic'
loop_
_space_group_symop_operation_xyz
x,y,z
-x,1/2-y,z
x,1/2-y,1/2-z
-x,y,1/2-z
-x,-y,-z
x,1/2+y,-z
-x,1/2+y,1/2+z
x,-y,1/2+z
1/2+x,1/2+y,z
1/2-x,-y,z
1/2+x,-y,1/2-z
1/2-x,1/2+y,1/2-z
1/2-x,1/2-y,-z
1/2+x,y,-z
1/2-x,y,1/2+z
1/2+x,1/2-y,1/2+z
loop_
_atom_site_type_symbol
_atom_site_label
_atom_site_fract_x
_atom_site_fract_y
_atom_site_fract_z
Si Si1 0.104124 0.853536 0.871593
Si Si2 0.250000 0.000000 0.547902
Si Si3 0.660905 0.370172 0.435210
Si Si4 0.500000 0.750000 0.006509
Si Si5 0.009829 0.008318 0.587196
Si Si6 0.500000 0.750000 0.250000
O O1 0.240371 0.854168 0.876795
O O2 0.079197 0.804123 0.799557
O O3 0.053849 0.817819 0.945410
O O4 0.045361 0.938198 0.866263
O O5 0.217005 0.924069 0.499244
O O6 0.355413 0.980996 0.602552
O O7 0.604848 0.288629 0.461817
O O8 0.561111 0.414953 0.391163
O O9 0.000000 0.000000 0.500000
#
# Coordination Sequence:
#
# PCOD8281641 Si02
#       6
#    16   8  16   8  16   4
#     4  11  20  38  56  81 121 157 205 233 290 373
#     4  10  16  30  54  94 122 142 178 236 324 366
#     4  11  18  32  57  88 120 148 186 254 317 350
#     4  11  20  29  54  97 118 145 180 254 334 343
#     4  10  17  31  58  89 115 146 190 246 309 350
#     4  10  28  40  56  78 120 180 196 230 274 362
#
# _framework density 18.55198
#
# number of rings (size 3 to 8) (size 9 to 14) (size 15 to 20)
#    0.000    1.412    9.412    0.706    0.000    0.000 
#    0.000    0.000    5.176    0.706    0.000    0.000 
#    0.000    0.000    0.000    0.000    0.000    0.000 
#
# Total GULP energy -421371.538164 kJ/mol
# GULP energy per Si atom -12393.280534 kJ/mol
# Density = 1.850975 g / cm^3
# Si number density = 18.551980 Si / 1000 Ang^3
#
#
#
# Elastic Constant Matrix: (Units=GPa)
#
#
# Indices 1 2 3 4 5 6 
#
# 1 173.3856 28.0127 43.1250 0.0000 0.0000 0.0000
# 2 28.0127 63.4933 30.5373 0.0000 0.0000 0.0000
# 3 43.1250 30.5373 55.8588 0.0000 0.0000 0.0000
# 4 0.0000 0.0000 0.0000 15.4098 0.0000 0.0000
# 5 0.0000 0.0000 0.0000 0.0000 13.3017 0.0000
# 6 0.0000 0.0000 0.0000 0.0000 0.0000 44.1567
#
#
#
# Elastic Compliance Matrix: (Units=1/GPa)
#
#
# Indices 1 2 3 4 5 6 
#
# 1 0.007160 -0.000679 -0.005156 0.000000 0.000000 0.000000
# 2 -0.000679 0.021432 -0.011193 0.000000 0.000000 0.000000
# 3 -0.005156 -0.011193 0.028002 0.000000 0.000000 0.000000
# 4 0.000000 0.000000 0.000000 0.064894 0.000000 0.000000
# 5 0.000000 0.000000 0.000000 0.000000 0.075178 0.000000
# 6 0.000000 0.000000 0.000000 0.000000 0.000000 0.022647
#
#
# Mechanical properties :
#
#
# Convention : Reuss Voigt Hill
#
# Bulk Modulus (GPa) = 44.36902 55.12086 49.74494
# Shear Modulus (GPa) = 19.16579 27.31115 23.23847
#
# Velocity S-wave (km/s) = 3.21765 3.84101 3.54307
# Velocity P-wave (km/s) = 6.14592 7.03187 6.60377
#
# Compressibility (1/GPa) = 0.02253825
#
# Stress axis : x y z
#
# Youngs Moduli (GPa) = 139.67087 46.65850 35.71152
#
# Poissons Ratio (x) = 0.03167 0.18415
# Poissons Ratio (y) = 0.09481 0.39971
# Poissons Ratio (z) = 0.72021 0.52224
#
# Static dielectric constant tensor:
#      x y z
#    x 4.847740 0.000000 0.000000 
#    y 0.000000 3.610980 0.000000 
#    z 0.000000 0.000000 2.778090 
# 
# 
# High freq. dielectric constant tensor:
#      x y z
#    x 1.747340 0.000000 0.000000 
#    y 0.000000 1.729710 0.000000 
#    z 0.000000 0.000000 1.642210 
# 
# From -- ./inp_files/29450.got.cif
#   From: 2010.03.12/outbox.cif.g09.slc.cpg/sg68_15_cif.got.tgz:29450.got - 2010.04.10 23:14:56.
