data_PCOD8281028
_publ_section_title
;
Structure prediction by ZEFSAII (Michael W. Deem and Ramdas Pophale) SiO2 
 PCOD8281028
Probable space group: C M M A
;
_chemical_formula_sum "Si O2"
_cell_formula_units_Z 112
_cell_length_a 27.992740
_cell_length_b 14.722973
_cell_length_c 12.384416
_cell_angle_alpha 90.000000
_cell_angle_beta 90.000000
_cell_angle_gamma 90.000000
_cell_volume 5104.068072
_symmetry_space_group_name_H-M "C M M A"
_symmetry_group_IT_number 67
_symmetry_cell_setting 'orthorhombic'
loop_
_space_group_symop_operation_xyz
x,y,z
-x,1/2-y,z
x,-y,-z
-x,1/2+y,-z
-x,-y,-z
x,1/2+y,-z
-x,y,z
x,1/2-y,z
1/2+x,1/2+y,z
1/2-x,-y,z
1/2+x,1/2-y,-z
1/2-x,y,-z
1/2-x,1/2-y,-z
1/2+x,y,-z
1/2-x,1/2+y,z
1/2+x,-y,z
loop_
_atom_site_type_symbol
_atom_site_label
_atom_site_fract_x
_atom_site_fract_y
_atom_site_fract_z
Si Si1 0.945146 0.474184 0.689856
Si Si2 0.116201 0.355545 0.333124
Si Si3 0.198896 0.144525 0.759844
Si Si4 0.199066 0.851459 0.813409
Si Si5 0.851049 0.396163 0.977886
Si Si6 0.553191 0.647434 0.897118
Si Si7 0.870978 0.854349 0.421623
O O1 0.929202 0.579766 0.687312
O O2 0.936960 0.427728 0.805950
O O3 0.916737 0.416193 0.601555
O O4 0.000000 0.470675 0.655591
O O5 0.102037 0.250000 0.308717
O O6 0.156231 0.397688 0.252988
O O7 0.139263 0.364087 0.451806
O O8 0.208661 0.250000 0.750458
O O9 0.250373 0.098109 0.788242
O O10 0.162257 0.125919 0.855668
O O11 0.174791 0.110049 0.647997
O O12 0.202866 0.750000 0.768568
O O13 0.185038 0.846863 0.939906
O O14 0.906709 0.365800 0.990841
O O15 0.844340 0.500000 0.000000
O O16 0.500000 0.632757 0.946878
O O17 0.557093 0.750000 0.849527
O O18 0.882380 0.750000 0.390216
#
# Coordination Sequence:
#
# PCOD8281028 Si02
#       7
#    16  16  16  16  16  16  16
#     4  11  22  39  64  94 124 159 209 265 318 370
#     4  10  23  42  60  88 129 169 209 254 313 383
#     4  10  21  39  63  90 118 159 214 263 309 364
#     4  10  22  39  60  86 122 165 205 250 312 380
#     4  12  23  37  59  90 128 161 202 259 313 376
#     4  10  21  39  66  96 125 164 217 270 317 370
#     4  10  21  39  65  93 124 162 208 264 316 367
#
# _framework density 21.943280999999999
#
# number of rings (size 3 to 8) (size 9 to 14) (size 15 to 20)
#    0.000    1.571    1.429    3.429    0.000    5.429 
#    0.000    5.000    0.000    2.571    0.000    0.000 
#    0.000    0.000    0.000    0.000    0.000    0.000 
#
# Total GULP energy -694151.321904 kJ/mol
# GULP energy per Si atom -12395.559320 kJ/mol
# Density = 2.189334 g / cm^3
# Si number density = 21.943281 Si / 1000 Ang^3
#
#
#
# Elastic Constant Matrix: (Units=GPa)
#
#
# Indices 1 2 3 4 5 6 
#
# 1 139.3773 42.6416 40.8353 0.0000 0.0000 0.0000
# 2 42.6416 76.7185 24.9121 0.0000 0.0000 0.0000
# 3 40.8353 24.9121 76.1071 0.0000 0.0000 0.0000
# 4 0.0000 0.0000 0.0000 -27.0768 0.0000 0.0000
# 5 0.0000 0.0000 0.0000 0.0000 27.4621 0.0000
# 6 0.0000 0.0000 0.0000 0.0000 0.0000 17.1185
#
#
#
# Elastic Compliance Matrix: (Units=1/GPa)
#
#
# Indices 1 2 3 4 5 6 
#
# 1 0.009527 -0.004068 -0.003780 0.000000 0.000000 0.000000
# 2 -0.004068 0.016322 -0.003160 0.000000 0.000000 0.000000
# 3 -0.003780 -0.003160 0.016202 0.000000 0.000000 0.000000
# 4 0.000000 0.000000 0.000000 -0.036932 0.000000 0.000000
# 5 0.000000 0.000000 0.000000 0.000000 0.036414 0.000000
# 6 0.000000 0.000000 0.000000 0.000000 0.000000 0.058416
#
#
# Mechanical properties :
#
#
# Convention : Reuss Voigt Hill
#
# Bulk Modulus (GPa) = 49.91332 56.55344 53.23338
# Shear Modulus (GPa) = 38.86734 15.75501 27.31118
#
# Velocity S-wave (km/s) = 4.21320 2.68244 3.53175
# Velocity P-wave (km/s) = 6.81645 5.95168 6.39869
#
# Compressibility (1/GPa) = 0.02003473
#
# Stress axis : x y z
#
# Youngs Moduli (GPa) = 104.96739 61.26811 61.72082
#
# Poissons Ratio (x) = 0.24922 0.23331
# Poissons Ratio (y) = 0.42697 0.19504
# Poissons Ratio (z) = 0.39679 0.19361
#
# Static dielectric constant tensor:
#      x y z
#    x 4.374760 0.000000 0.000000 
#    y 0.000000 3.925020 0.000000 
#    z 0.000000 0.000000 3.740580 
# 
# 
# High freq. dielectric constant tensor:
#      x y z
#    x 1.868050 0.000000 0.000000 
#    y 0.000000 1.866330 0.000000 
#    z 0.000000 0.000000 1.846790 
# 
# From -- ./inp_files/23798.got.cif
#   From: 2010.03.12/outbox.cif.g09.slc.cpg/sg67_12_cif.got.tgz:23798.got - 2010.04.10 22:41:39.
