data_PCOD8281172
_publ_section_title
;
Structure prediction by ZEFSAII (Michael W. Deem and Ramdas Pophale) SiO2 
 PCOD8281172
Probable space group: C M M A
;
_chemical_formula_sum "Si O2"
_cell_formula_units_Z 88
_cell_length_a 22.807784
_cell_length_b 22.819217
_cell_length_c 7.520169
_cell_angle_alpha 90.000000
_cell_angle_beta 90.000000
_cell_angle_gamma 90.000000
_cell_volume 3913.915365
_symmetry_space_group_name_H-M "C M M A"
_symmetry_group_IT_number 67
_symmetry_cell_setting 'orthorhombic'
loop_
_space_group_symop_operation_xyz
x,y,z
-x,1/2-y,z
x,-y,-z
-x,1/2+y,-z
-x,-y,-z
x,1/2+y,-z
-x,y,z
x,1/2-y,z
1/2+x,1/2+y,z
1/2-x,-y,z
1/2+x,1/2-y,-z
1/2-x,y,-z
1/2-x,1/2-y,-z
1/2+x,y,-z
1/2-x,1/2+y,z
1/2+x,-y,z
loop_
_atom_site_type_symbol
_atom_site_label
_atom_site_fract_x
_atom_site_fract_y
_atom_site_fract_z
Si Si1 0.886928 0.126754 0.399412
Si Si2 0.873617 0.569451 0.975323
Si Si3 0.753426 0.250000 0.288719
Si Si4 0.837250 0.844560 0.251959
Si Si5 0.388471 0.750000 0.236575
Si Si6 0.000000 0.432971 0.447178
Si Si7 0.000000 0.432661 0.033908
Si Si8 0.069801 0.250000 0.841982
O O1 0.864719 0.087908 0.231256
O O2 0.835093 0.130500 0.545568
O O3 0.906869 0.191841 0.342140
O O4 0.940053 0.096968 0.511803
O O5 0.938741 0.591471 0.042300
O O6 0.864383 0.500000 0.000000
O O7 0.830769 0.603778 0.106649
O O8 0.750000 0.250000 0.500000
O O9 0.720490 0.193106 0.214865
O O10 0.818324 0.250000 0.208095
O O11 0.897349 0.807099 0.235373
O O12 0.423156 0.750000 0.053758
O O13 0.000000 0.500000 0.500000
O O14 0.000000 0.420669 0.240132
O O15 0.000000 0.500000 0.000000
O O16 0.000000 0.250000 0.794541
#
# Coordination Sequence:
#
# PCOD8281172 Si02
#       8
#    16  16   8  16   8   8   8   8
#     4  11  24  39  65 100 136 183 233 290 354 413
#     4  10  22  39  61  99 136 181 235 280 343 429
#     4  11  23  48  70 105 132 171 254 303 355 425
#     4  11  24  41  69  99 130 190 222 293 355 412
#     4  12  23  47  71  97 138 181 232 300 363 414
#     4  10  24  37  57  99 138 190 229 264 341 440
#     4   8  18  34  55  79 132 175 219 276 313 391
#     4  11  26  42  65 104 146 174 221 285 364 441
#
# _framework density 22.483878000000001
#
# number of rings (size 3 to 8) (size 9 to 14) (size 15 to 20)
#    0.000    1.455    3.636    0.545   11.455    1.455 
#    0.000    0.000    0.000    2.182    4.727    0.000 
#    0.000    0.000    0.000    0.000    0.000    0.000 
#
# Total GULP energy -545258.495210 kJ/mol
# GULP energy per Si atom -12392.238528 kJ/mol
# Density = 2.243270 g / cm^3
# Si number density = 22.483878 Si / 1000 Ang^3
#
#
#
# Elastic Constant Matrix: (Units=GPa)
#
#
# Indices 1 2 3 4 5 6 
#
# 1 84.1500 38.5496 2.0026 0.0000 0.0000 0.0000
# 2 38.5496 155.1278 42.1964 0.0000 0.0000 0.0000
# 3 2.0026 42.1964 94.3301 0.0000 0.0000 0.0000
# 4 0.0000 0.0000 0.0000 44.7627 0.0000 0.0000
# 5 0.0000 0.0000 0.0000 0.0000 22.8552 0.0000
# 6 0.0000 0.0000 0.0000 0.0000 0.0000 19.7976
#
#
#
# Elastic Compliance Matrix: (Units=1/GPa)
#
#
# Indices 1 2 3 4 5 6 
#
# 1 0.013568 -0.003750 0.001389 0.000000 0.000000 0.000000
# 2 -0.003750 0.008376 -0.003667 0.000000 0.000000 0.000000
# 3 0.001389 -0.003667 0.012212 0.000000 0.000000 0.000000
# 4 0.000000 0.000000 0.000000 0.022340 0.000000 0.000000
# 5 0.000000 0.000000 0.000000 0.000000 0.043754 0.000000
# 6 0.000000 0.000000 0.000000 0.000000 0.000000 0.050511
#
#
# Mechanical properties :
#
#
# Convention : Reuss Voigt Hill
#
# Bulk Modulus (GPa) = 45.24693 55.45611 50.35152
# Shear Modulus (GPa) = 29.38025 34.20705 31.79365
#
# Velocity S-wave (km/s) = 3.61879 3.90475 3.76448
# Velocity P-wave (km/s) = 6.13422 6.71177 6.42948
#
# Compressibility (1/GPa) = 0.02210095
#
# Stress axis : x y z
#
# Youngs Moduli (GPa) = 73.70174 119.39513 81.88713
#
# Poissons Ratio (x) = 0.44769 -0.11376
# Poissons Ratio (y) = 0.27635 0.30028
# Poissons Ratio (z) = -0.10239 0.43782
#
# Static dielectric constant tensor:
#      x y z
#    x 4.283920 0.000000 0.000000 
#    y 0.000000 4.079540 0.000000 
#    z 0.000000 0.000000 4.113340 
# 
# 
# High freq. dielectric constant tensor:
#      x y z
#    x 1.862400 0.000000 0.000000 
#    y 0.000000 1.889590 0.000000 
#    z 0.000000 0.000000 1.893260 
# 
# From -- ./inp_files/12521.got.cif
#   From: 2010.03.12/outbox.cif.g09.slc.cpg/sg67_7_cif.got.tgz:12521.got - 2010.04.10 22:41:39.
