data_PCOD8281186
_publ_section_title
;
Structure prediction by ZEFSAII (Michael W. Deem and Ramdas Pophale) SiO2 
 PCOD8281186
Probable space group: C M M A
;
_chemical_formula_sum "Si O2"
_cell_formula_units_Z 60
_cell_length_a 11.963516
_cell_length_b 21.958779
_cell_length_c 11.504993
_cell_angle_alpha 90.000000
_cell_angle_beta 90.000000
_cell_angle_gamma 90.000000
_cell_volume 3022.410027
_symmetry_space_group_name_H-M "C M M A"
_symmetry_group_IT_number 67
_symmetry_cell_setting 'orthorhombic'
loop_
_space_group_symop_operation_xyz
x,y,z
-x,1/2-y,z
x,-y,-z
-x,1/2+y,-z
-x,-y,-z
x,1/2+y,-z
-x,y,z
x,1/2-y,z
1/2+x,1/2+y,z
1/2-x,-y,z
1/2+x,1/2-y,-z
1/2-x,y,-z
1/2-x,1/2-y,-z
1/2+x,y,-z
1/2-x,1/2+y,z
1/2+x,-y,z
loop_
_atom_site_type_symbol
_atom_site_label
_atom_site_fract_x
_atom_site_fract_y
_atom_site_fract_z
Si Si1 0.500000 0.885764 0.228480
Si Si2 0.000000 0.250000 0.267792
Si Si3 0.500000 0.426773 0.504008
Si Si4 0.238493 0.750000 0.633952
Si Si5 0.876884 0.134275 0.689548
Si Si6 0.768271 0.429515 0.126579
O O1 0.500000 0.813414 0.196168
O O2 0.500000 0.898988 0.366959
O O3 0.391500 0.915699 0.172969
O O4 0.892630 0.250000 0.348262
O O5 0.500000 0.500000 0.500000
O O6 0.390020 0.401362 0.434675
O O7 0.250000 0.750000 0.500000
O O8 0.293498 0.690558 0.687451
O O9 0.827922 0.089647 0.784959
O O10 0.000000 0.156789 0.729677
O O11 0.750000 0.500000 0.111340
O O12 0.750000 0.398032 0.000000
#
# Coordination Sequence:
#
# PCOD8281186 Si02
#       6
#     8   4   8   8  16  16
#     4  12  24  44  68 100 136 178 232 277 352 412
#     4  12  24  42  64  96 138 178 224 278 342 402
#     4  10  22  39  68 101 138 174 215 282 344 410
#     4  12  23  42  65  98 137 184 227 276 343 414
#     4  10  24  41  66  97 137 173 225 273 344 397
#     4  11  26  44  70  97 133 182 231 286 336 408
#
# _framework density 19.851707000000001
#
# number of rings (size 3 to 8) (size 9 to 14) (size 15 to 20)
#    0.800    0.267    2.667    3.600    5.600    1.067 
#    0.000    5.333    0.000    0.000    0.000    0.000 
#    0.000    0.000    0.000    0.000    0.000    0.000 
#
# Total GULP energy -371830.661767 kJ/mol
# GULP energy per Si atom -12394.355392 kJ/mol
# Density = 1.980652 g / cm^3
# Si number density = 19.851707 Si / 1000 Ang^3
#
#
#
# Elastic Constant Matrix: (Units=GPa)
#
#
# Indices 1 2 3 4 5 6 
#
# 1 167.9085 39.6556 60.7800 0.0000 0.0000 0.0000
# 2 39.6556 118.5274 33.0602 0.0000 0.0000 0.0000
# 3 60.7800 33.0602 148.4649 0.0000 0.0000 0.0000
# 4 0.0000 0.0000 0.0000 11.3906 0.0000 0.0000
# 5 0.0000 0.0000 0.0000 0.0000 20.1522 0.0000
# 6 0.0000 0.0000 0.0000 0.0000 0.0000 38.7058
#
#
#
# Elastic Compliance Matrix: (Units=1/GPa)
#
#
# Indices 1 2 3 4 5 6 
#
# 1 0.007305 -0.001717 -0.002608 0.000000 0.000000 0.000000
# 2 -0.001717 0.009399 -0.001390 0.000000 0.000000 0.000000
# 3 -0.002608 -0.001390 0.008113 0.000000 0.000000 0.000000
# 4 0.000000 0.000000 0.000000 0.087791 0.000000 0.000000
# 5 0.000000 0.000000 0.000000 0.000000 0.049622 0.000000
# 6 0.000000 0.000000 0.000000 0.000000 0.000000 0.025836
#
#
# Mechanical properties :
#
#
# Convention : Reuss Voigt Hill
#
# Bulk Modulus (GPa) = 74.70048 77.98802 76.34425
# Shear Modulus (GPa) = 24.51467 34.14341 29.32904
#
# Velocity S-wave (km/s) = 3.51791 4.15169 3.84787
# Velocity P-wave (km/s) = 7.36287 7.89637 7.63428
#
# Compressibility (1/GPa) = 0.01338680
#
# Stress axis : x y z
#
# Youngs Moduli (GPa) = 136.88799 106.39499 123.25828
#
# Poissons Ratio (x) = 0.18263 0.32151
# Poissons Ratio (y) = 0.23497 0.17136
# Poissons Ratio (z) = 0.35707 0.14791
#
# Static dielectric constant tensor:
#      x y z
#    x 3.631520 0.000000 0.000000 
#    y 0.000000 3.684750 0.000000 
#    z 0.000000 0.000000 3.703480 
# 
# 
# High freq. dielectric constant tensor:
#      x y z
#    x 1.789210 0.000000 0.000000 
#    y 0.000000 1.782390 0.000000 
#    z 0.000000 0.000000 1.768220 
# 
# From -- ./inp_files/16373.got.cif
#   From: 2010.03.12/outbox.cif.g09.slc.cpg/sg67_9_cif.got.tgz:16373.got - 2010.04.10 22:41:39.
