data_PCOD8281818
_publ_section_title
;
Structure prediction by ZEFSAII (Michael W. Deem and Ramdas Pophale) SiO2 
 PCOD8281818
Probable space group: C C C A
;
_chemical_formula_sum "Si O2"
_cell_formula_units_Z 68
_cell_length_a 8.535526
_cell_length_b 15.182293
_cell_length_c 25.592681
_cell_angle_alpha 90.000000
_cell_angle_beta 90.000000
_cell_angle_gamma 90.000000
_cell_volume 3316.526269
_symmetry_space_group_name_H-M "C C C A"
_symmetry_group_IT_number 68
_space_group.IT_coordinate_system_code '2'
_symmetry_cell_setting 'orthorhombic'
loop_
_space_group_symop_operation_xyz
x,y,z
-x,1/2-y,z
x,1/2-y,1/2-z
-x,y,1/2-z
-x,-y,-z
x,1/2+y,-z
-x,1/2+y,1/2+z
x,-y,1/2+z
1/2+x,1/2+y,z
1/2-x,-y,z
1/2+x,-y,1/2-z
1/2-x,1/2+y,1/2-z
1/2-x,1/2-y,-z
1/2+x,y,-z
1/2-x,y,1/2+z
1/2+x,1/2-y,1/2+z
loop_
_atom_site_type_symbol
_atom_site_label
_atom_site_fract_x
_atom_site_fract_y
_atom_site_fract_z
Si Si1 0.535010 0.387035 0.191913
Si Si2 0.213918 0.677156 0.930206
Si Si3 0.250000 0.000000 0.125319
Si Si4 0.750023 0.223106 0.670660
Si Si5 0.000000 0.750000 0.750000
Si Si6 0.000000 0.750000 0.483605
O O1 0.500000 0.419684 0.250000
O O2 0.603702 0.469308 0.160416
O O3 0.661761 0.308435 0.194423
O O4 0.373715 0.356055 0.164231
O O5 0.185837 0.579140 0.909853
O O6 0.177613 0.750827 0.885765
O O7 0.395560 0.687918 0.946652
O O8 0.105733 0.687703 0.980458
O O9 0.611706 0.193621 0.710803
#
# Coordination Sequence:
#
# PCOD8281818 Si02
#       6
#    16  16   8  16   4   8
#     4  10  18  38  55  83 122 175 194 242 298 370
#     4  10  21  39  59  92 113 158 198 262 299 364
#     4  10  22  36  60  88 128 152 206 250 316 358
#     4  10  19  34  62  88 123 153 213 245 297 352
#     4  12  18  30  60 100 112 158 206 266 264 372
#     4  10  21  40  66  80 116 154 215 252 306 352
#
# _framework density 20.50338
#
# number of rings (size 3 to 8) (size 9 to 14) (size 15 to 20)
#    0.000    1.882    2.353    4.235    0.000    0.941 
#    8.471    0.000    0.000   11.294    0.000    0.000 
#    0.000    0.000    0.000    0.000    0.000    0.000 
#
# Total GULP energy -421557.288143 kJ/mol
# GULP energy per Si atom -12398.743769 kJ/mol
# Density = 2.045671 g / cm^3
# Si number density = 20.503380 Si / 1000 Ang^3
#
#
#
# Elastic Constant Matrix: (Units=GPa)
#
#
# Indices 1 2 3 4 5 6 
#
# 1 108.3043 39.9064 36.9767 0.0000 0.0000 0.0000
# 2 39.9064 100.7517 41.3404 0.0000 0.0000 0.0000
# 3 36.9767 41.3404 101.7713 0.0000 0.0000 0.0000
# 4 0.0000 0.0000 0.0000 25.8172 0.0000 0.0000
# 5 0.0000 0.0000 0.0000 0.0000 47.8375 0.0000
# 6 0.0000 0.0000 0.0000 0.0000 0.0000 25.3860
#
#
#
# Elastic Compliance Matrix: (Units=1/GPa)
#
#
# Indices 1 2 3 4 5 6 
#
# 1 0.011429 -0.003388 -0.002777 0.000000 0.000000 0.000000
# 2 -0.003388 0.012915 -0.004015 0.000000 0.000000 0.000000
# 3 -0.002777 -0.004015 0.012466 0.000000 0.000000 0.000000
# 4 0.000000 0.000000 0.000000 0.038734 0.000000 0.000000
# 5 0.000000 0.000000 0.000000 0.000000 0.020904 0.000000
# 6 0.000000 0.000000 0.000000 0.000000 0.000000 0.039392
#
#
# Mechanical properties :
#
#
# Convention : Reuss Voigt Hill
#
# Bulk Modulus (GPa) = 60.78679 60.80827 60.79753
# Shear Modulus (GPa) = 30.92481 32.64839 31.78660
#
# Velocity S-wave (km/s) = 3.88787 3.99474 3.94167
# Velocity P-wave (km/s) = 7.06156 7.14139 7.10158
#
# Compressibility (1/GPa) = 0.01645094
#
# Stress axis : x y z
#
# Youngs Moduli (GPa) = 87.49301 77.43075 80.21976
#
# Poissons Ratio (x) = 0.26232 0.22273
# Poissons Ratio (y) = 0.29641 0.32210
# Poissons Ratio (z) = 0.24293 0.31090
#
# Static dielectric constant tensor:
#      x y z
#    x 3.906810 0.000000 0.000000 
#    y 0.000000 3.278520 0.000000 
#    z 0.000000 0.000000 3.954450 
# 
# 
# High freq. dielectric constant tensor:
#      x y z
#    x 1.811560 0.000000 0.000000 
#    y 0.000000 1.751230 0.000000 
#    z 0.000000 0.000000 1.820580 
# 
# From -- ./inp_files/48899.got.cif
#   From: 2010.03.12/outbox.cif.g09.slc.cpg/sg68_25_cif.got.tgz:48899.got - 2010.04.10 23:14:56.
