data_PCOD8281668
_publ_section_title
;
Structure prediction by ZEFSAII (Michael W. Deem and Ramdas Pophale) SiO2 
 PCOD8281668
Probable space group: C C C A
;
_chemical_formula_sum "Si O2"
_cell_formula_units_Z 128
_cell_length_a 25.030105
_cell_length_b 12.765229
_cell_length_c 24.334233
_cell_angle_alpha 90.000000
_cell_angle_beta 90.000000
_cell_angle_gamma 90.000000
_cell_volume 7775.152998
_symmetry_space_group_name_H-M "C C C A"
_symmetry_group_IT_number 68
_space_group.IT_coordinate_system_code '2'
_symmetry_cell_setting 'orthorhombic'
loop_
_space_group_symop_operation_xyz
x,y,z
-x,1/2-y,z
x,1/2-y,1/2-z
-x,y,1/2-z
-x,-y,-z
x,1/2+y,-z
-x,1/2+y,1/2+z
x,-y,1/2+z
1/2+x,1/2+y,z
1/2-x,-y,z
1/2+x,-y,1/2-z
1/2-x,1/2+y,1/2-z
1/2-x,1/2-y,-z
1/2+x,y,-z
1/2-x,y,1/2+z
1/2+x,1/2-y,1/2+z
loop_
_atom_site_type_symbol
_atom_site_label
_atom_site_fract_x
_atom_site_fract_y
_atom_site_fract_z
Si Si1 0.189542 0.482337 0.712053
Si Si2 0.189716 0.958990 0.902140
Si Si3 0.689580 0.960170 0.831152
Si Si4 0.438772 0.248508 0.400434
Si Si5 0.626552 0.560356 0.565168
Si Si6 0.308773 0.291501 0.509513
Si Si7 0.148792 0.736928 0.189015
Si Si8 0.380486 0.395143 0.022709
O O1 0.250000 0.500000 0.727833
O O2 0.170189 0.556928 0.661738
O O3 0.162963 0.499506 0.772644
O O4 0.185392 0.365480 0.687703
O O5 0.185691 0.846776 0.931284
O O6 0.250000 0.000000 0.902271
O O7 0.154141 0.046502 0.931404
O O8 0.651387 0.997389 0.881087
O O9 0.686601 0.832808 0.830504
O O10 0.750000 0.000000 0.841432
O O11 0.500000 0.250000 0.382278
O O12 0.422397 0.363665 0.420923
O O13 0.402502 0.219053 0.348798
O O14 0.430667 0.161159 0.448080
O O15 0.675384 0.624682 0.537409
O O16 0.600740 0.475827 0.523992
O O17 0.250000 0.250000 0.500000
O O18 0.346841 0.192327 0.508802
O O19 0.125499 0.750000 0.250000
#
# Coordination Sequence:
#
# PCOD8281668 Si02
#       8
#    16  16  16  16  16  16  16  16
#     4   9  17  29  46  68  97 133 159 194 235 289
#     4  10  17  27  46  68  97 130 160 193 239 284
#     4   9  18  30  46  68  98 134 162 186 237 294
#     4  10  20  35  52  70  94 125 166 211 255 294
#     4   9  21  32  47  70  96 128 161 199 246 287
#     4  10  19  28  45  71  96 130 161 196 234 284
#     4   9  17  32  51  72 100 129 161 203 241 287
#     4  10  19  33  46  70 100 122 162 200 239 292
#
# _framework density 16.462698
#
# number of rings (size 3 to 8) (size 9 to 14) (size 15 to 20)
#    0.000    2.500    2.500    0.000    1.750    0.750 
#    0.000    0.000    0.000    0.000    0.000    0.000 
#    0.000    0.000    0.000    0.250    0.000    0.000 
#
# Total GULP energy -792996.792229 kJ/mol
# GULP energy per Si atom -12390.574879 kJ/mol
# Density = 1.642523 g / cm^3
# Si number density = 16.462698 Si / 1000 Ang^3
#
#
#
# Elastic Constant Matrix: (Units=GPa)
#
#
# Indices 1 2 3 4 5 6 
#
# 1 77.6871 34.1321 27.2400 0.0000 0.0000 0.0000
# 2 34.1321 61.4375 35.6839 0.0000 0.0000 0.0000
# 3 27.2400 35.6839 117.5530 0.0000 0.0000 0.0000
# 4 0.0000 0.0000 0.0000 24.4348 0.0000 0.0000
# 5 0.0000 0.0000 0.0000 0.0000 -15.4137 0.0000
# 6 0.0000 0.0000 0.0000 0.0000 0.0000 11.5465
#
#
#
# Elastic Compliance Matrix: (Units=1/GPa)
#
#
# Indices 1 2 3 4 5 6 
#
# 1 0.017195 -0.008788 -0.001317 0.000000 0.000000 0.000000
# 2 -0.008788 0.024252 -0.005325 0.000000 0.000000 0.000000
# 3 -0.001317 -0.005325 0.010429 0.000000 0.000000 0.000000
# 4 0.000000 0.000000 0.000000 0.040925 0.000000 0.000000
# 5 0.000000 0.000000 0.000000 0.000000 -0.064877 0.000000
# 6 0.000000 0.000000 0.000000 0.000000 0.000000 0.086606
#
#
# Mechanical properties :
#
#
# Convention : Reuss Voigt Hill
#
# Bulk Modulus (GPa) = 47.58514 50.08772 48.83643
# Shear Modulus (GPa) = 32.80940 14.75495 23.78218
#
# Velocity S-wave (km/s) = 4.46909 2.99702 3.80493
# Velocity P-wave (km/s) = 7.45641 6.51668 7.00233
#
# Compressibility (1/GPa) = 0.02101497
#
# Stress axis : x y z
#
# Youngs Moduli (GPa) = 58.15677 41.23367 95.89079
#
# Poissons Ratio (x) = 0.36236 0.12628
# Poissons Ratio (y) = 0.51108 0.51066
# Poissons Ratio (z) = 0.07658 0.21959
#
# Static dielectric constant tensor:
#      x y z
#    x 2.530880 0.000000 0.000000 
#    y 0.000000 3.202960 0.000000 
#    z 0.000000 0.000000 3.515330 
# 
# 
# High freq. dielectric constant tensor:
#      x y z
#    x 1.586230 0.000000 0.000000 
#    y 0.000000 1.627740 0.000000 
#    z 0.000000 0.000000 1.656070 
# 
# From -- ./inp_files/47354.got.cif
#   From: 2010.03.12/outbox.cif.g09.slc.cpg/sg68_24_cif.got.tgz:47354.got - 2010.04.10 23:14:56.
