data_PCOD8281484
_publ_section_title
;
Structure prediction by ZEFSAII (Michael W. Deem and Ramdas Pophale) SiO2 
 PCOD8281484
Probable space group: C M M A
;
_chemical_formula_sum "Si O2"
_cell_formula_units_Z 96
_cell_length_a 23.796899
_cell_length_b 17.301831
_cell_length_c 11.578365
_cell_angle_alpha 90.000000
_cell_angle_beta 90.000000
_cell_angle_gamma 90.000000
_cell_volume 4767.159351
_symmetry_space_group_name_H-M "C M M A"
_symmetry_group_IT_number 67
_symmetry_cell_setting 'orthorhombic'
loop_
_space_group_symop_operation_xyz
x,y,z
-x,1/2-y,z
x,-y,-z
-x,1/2+y,-z
-x,-y,-z
x,1/2+y,-z
-x,y,z
x,1/2-y,z
1/2+x,1/2+y,z
1/2-x,-y,z
1/2+x,1/2-y,-z
1/2-x,y,-z
1/2-x,1/2-y,-z
1/2+x,y,-z
1/2-x,1/2+y,z
1/2+x,-y,z
loop_
_atom_site_type_symbol
_atom_site_label
_atom_site_fract_x
_atom_site_fract_y
_atom_site_fract_z
Si Si1 0.500000 0.160095 0.954477
Si Si2 0.500000 0.844056 0.310520
Si Si3 0.620101 0.837791 0.000380
Si Si4 0.806135 0.160174 0.564554
Si Si5 0.608108 0.423743 0.579403
Si Si6 0.323710 0.931421 0.191577
Si Si7 0.700235 0.897874 0.811733
O O1 0.500000 0.250000 0.935321
O O2 0.500000 0.127610 0.822944
O O3 0.555554 0.136842 0.029086
O O4 0.500000 0.750000 0.324993
O O5 0.447628 0.884082 0.373417
O O6 0.621558 0.750000 0.043843
O O7 0.632501 0.890518 0.109582
O O8 0.663114 0.843804 0.894348
O O9 0.799804 0.250000 0.593338
O O10 0.750000 0.129590 0.500000
O O11 0.861196 0.144130 0.490400
O O12 0.817962 0.113406 0.680841
O O13 0.596588 0.500000 0.500000
O O14 0.650928 0.444161 0.682105
O O15 0.266918 0.879529 0.185098
O O16 0.310445 0.016028 0.143157
#
# Coordination Sequence:
#
# PCOD8281484 Si02
#       7
#     8   8  16  16  16  16  16
#     4   9  20  39  64  88 120 169 216 267 331 384
#     4  11  23  43  67  95 133 170 220 285 331 383
#     4  11  23  41  64  93 126 167 223 277 330 391
#     4  11  23  38  62  96 131 170 217 264 327 397
#     4  12  23  41  67  96 130 175 222 270 328 395
#     4  11  23  39  65  91 129 169 216 264 333 399
#     4  11  23  41  61  93 133 172 207 267 335 403
#
# _framework density 20.137778999999998
#
# number of rings (size 3 to 8) (size 9 to 14) (size 15 to 20)
#    0.000    1.000    5.000    2.250    0.000    4.333 
#    0.000    3.333    0.000    1.000    0.000    0.000 
#    0.000    0.000    0.000    0.000    0.000    0.000 
#
# Total GULP energy -594905.776034 kJ/mol
# GULP energy per Si atom -12393.870334 kJ/mol
# Density = 2.009194 g / cm^3
# Si number density = 20.137779 Si / 1000 Ang^3
#
#
#
# Elastic Constant Matrix: (Units=GPa)
#
#
# Indices 1 2 3 4 5 6 
#
# 1 148.3991 40.3181 42.6237 0.0000 0.0000 0.0000
# 2 40.3181 72.8198 26.1574 0.0000 0.0000 0.0000
# 3 42.6237 26.1574 91.1938 0.0000 0.0000 0.0000
# 4 0.0000 0.0000 0.0000 26.7291 0.0000 0.0000
# 5 0.0000 0.0000 0.0000 0.0000 39.3993 0.0000
# 6 0.0000 0.0000 0.0000 0.0000 0.0000 39.1173
#
#
#
# Elastic Compliance Matrix: (Units=1/GPa)
#
#
# Indices 1 2 3 4 5 6 
#
# 1 0.008591 -0.003695 -0.002956 0.000000 0.000000 0.000000
# 2 -0.003695 0.016899 -0.003120 0.000000 0.000000 0.000000
# 3 -0.002956 -0.003120 0.013242 0.000000 0.000000 0.000000
# 4 0.000000 0.000000 0.000000 0.037412 0.000000 0.000000
# 5 0.000000 0.000000 0.000000 0.000000 0.025381 0.000000
# 6 0.000000 0.000000 0.000000 0.000000 0.000000 0.025564
#
#
# Mechanical properties :
#
#
# Convention : Reuss Voigt Hill
#
# Bulk Modulus (GPa) = 52.10846 58.95680 55.53263
# Shear Modulus (GPa) = 32.67347 34.60339 33.63843
#
# Velocity S-wave (km/s) = 4.03239 4.14977 4.09150
# Velocity P-wave (km/s) = 6.90017 7.23195 7.06801
#
# Compressibility (1/GPa) = 0.01919074
#
# Stress axis : x y z
#
# Youngs Moduli (GPa) = 116.39474 59.17446 75.51649
#
# Poissons Ratio (x) = 0.21866 0.22321
# Poissons Ratio (y) = 0.43009 0.23562
# Poissons Ratio (z) = 0.34403 0.18463
#
# Static dielectric constant tensor:
#      x y z
#    x 4.056400 0.000000 0.000000 
#    y 0.000000 3.524660 0.000000 
#    z 0.000000 0.000000 3.582540 
# 
# 
# High freq. dielectric constant tensor:
#      x y z
#    x 1.799320 0.000000 0.000000 
#    y 0.000000 1.781790 0.000000 
#    z 0.000000 0.000000 1.783970 
# 
# From -- ./inp_files/21986.got.cif
#   From: 2010.03.12/outbox.cif.g09.slc.cpg/sg67_11_cif.got.tgz:21986.got - 2010.04.10 22:41:39.
