data_PCOD8281922
_publ_section_title
;
Structure prediction by ZEFSAII (Michael W. Deem and Ramdas Pophale) SiO2 
 PCOD8281922
Probable space group: C C C A
;
_chemical_formula_sum "Si O2"
_cell_formula_units_Z 64
_cell_length_a 26.630564
_cell_length_b 5.156331
_cell_length_c 24.806346
_cell_angle_alpha 90.000000
_cell_angle_beta 90.000000
_cell_angle_gamma 90.000000
_cell_volume 3406.308274
_symmetry_space_group_name_H-M "C C C A"
_symmetry_group_IT_number 68
_space_group.IT_coordinate_system_code '2'
_symmetry_cell_setting 'orthorhombic'
loop_
_space_group_symop_operation_xyz
x,y,z
-x,1/2-y,z
x,1/2-y,1/2-z
-x,y,1/2-z
-x,-y,-z
x,1/2+y,-z
-x,1/2+y,1/2+z
x,-y,1/2+z
1/2+x,1/2+y,z
1/2-x,-y,z
1/2+x,-y,1/2-z
1/2-x,1/2+y,1/2-z
1/2-x,1/2-y,-z
1/2+x,y,-z
1/2-x,y,1/2+z
1/2+x,1/2-y,1/2+z
loop_
_atom_site_type_symbol
_atom_site_label
_atom_site_fract_x
_atom_site_fract_y
_atom_site_fract_z
Si Si1 0.055768 0.803228 0.855729
Si Si2 0.721137 0.750183 0.814233
Si Si3 0.444312 0.073926 0.978502
Si Si4 0.392160 0.297736 0.313279
O O1 0.056488 0.795400 0.920133
O O2 0.092248 0.590060 0.829102
O O3 0.000000 0.750000 0.833791
O O4 0.070690 0.093177 0.839977
O O5 0.721813 0.750000 0.750000
O O6 0.750000 0.500000 0.837225
O O7 0.664064 0.751626 0.835199
O O8 0.750000 0.000000 0.837066
O O9 0.417170 0.292696 0.016839
O O10 0.500000 0.000000 0.000000
O O11 0.394578 0.250000 0.250000
#
# Coordination Sequence:
#
# PCOD8281922 Si02
#       4
#    16  16  16  16
#     4  12  23  35  55  77 112 157 184 218 266 322
#     4   9  17  33  56  75  98 137 181 232 279 300
#     4  10  19  34  56  76  98 136 179 245 280 298
#     4  11  24  37  51  80 117 149 189 220 251 332
#
# _framework density 18.788668999999999
#
# number of rings (size 3 to 8) (size 9 to 14) (size 15 to 20)
#    0.000    1.500    2.500    4.500    3.500    7.000 
#    0.000    0.000    0.000    0.000    0.000    0.000 
#    0.000   70.000    0.000    0.000    0.000    0.000 
#
# Total GULP energy -396561.958535 kJ/mol
# GULP energy per Si atom -12392.561204 kJ/mol
# Density = 1.874591 g / cm^3
# Si number density = 18.788669 Si / 1000 Ang^3
#
#
#
# Elastic Constant Matrix: (Units=GPa)
#
#
# Indices 1 2 3 4 5 6 
#
# 1 96.0814 27.1495 14.8300 0.0000 0.0000 0.0000
# 2 27.1495 146.8251 19.3075 0.0000 0.0000 0.0000
# 3 14.8300 19.3075 63.7275 0.0000 0.0000 0.0000
# 4 0.0000 0.0000 0.0000 30.9445 0.0000 0.0000
# 5 0.0000 0.0000 0.0000 0.0000 -6.7840 0.0000
# 6 0.0000 0.0000 0.0000 0.0000 0.0000 33.7679
#
#
#
# Elastic Compliance Matrix: (Units=1/GPa)
#
#
# Indices 1 2 3 4 5 6 
#
# 1 0.011237 -0.001806 -0.002068 0.000000 0.000000 0.000000
# 2 -0.001806 0.007384 -0.001817 0.000000 0.000000 0.000000
# 3 -0.002068 -0.001817 0.016723 0.000000 0.000000 0.000000
# 4 0.000000 0.000000 0.000000 0.032316 0.000000 0.000000
# 5 0.000000 0.000000 0.000000 0.000000 -0.147407 0.000000
# 6 0.000000 0.000000 0.000000 0.000000 0.000000 0.029614
#
#
# Mechanical properties :
#
#
# Convention : Reuss Voigt Hill
#
# Bulk Modulus (GPa) = 41.73062 47.68978 44.71020
# Shear Modulus (GPa) = -162.53174 27.94215 -67.29480
#
# Velocity S-wave (km/s) = -9.31091 3.86058 -5.99120
# Velocity P-wave (km/s) = 9.66084 6.73123 4.90013
#
# Compressibility (1/GPa) = 0.02396322
#
# Stress axis : x y z
#
# Youngs Moduli (GPa) = 88.98918 135.43393 59.79629
#
# Poissons Ratio (x) = 0.24459 0.12365
# Poissons Ratio (y) = 0.16071 0.10864
# Poissons Ratio (z) = 0.18402 0.24605
#
# Static dielectric constant tensor:
#      x y z
#    x 3.412350 0.000000 0.000000 
#    y 0.000000 8.994260 0.000000 
#    z 0.000000 0.000000 3.277260 
# 
# 
# High freq. dielectric constant tensor:
#      x y z
#    x 1.700460 0.000000 0.000000 
#    y 0.000000 1.767590 0.000000 
#    z 0.000000 0.000000 1.696860 
# 
# From -- ./inp_files/40562.got.cif
#   From: 2010.03.12/outbox.cif.g09.slc.cpg/sg68_21_cif.got.tgz:40562.got - 2010.04.10 23:14:56.
