data_PCOD8281102
_publ_section_title
;
Structure prediction by ZEFSAII (Michael W. Deem and Ramdas Pophale) SiO2 
 PCOD8281102
Probable space group: C M M A
;
_chemical_formula_sum "Si O2"
_cell_formula_units_Z 60
_cell_length_a 21.341673
_cell_length_b 15.501150
_cell_length_c 8.407113
_cell_angle_alpha 90.000000
_cell_angle_beta 90.000000
_cell_angle_gamma 90.000000
_cell_volume 2781.245111
_symmetry_space_group_name_H-M "C M M A"
_symmetry_group_IT_number 67
_symmetry_cell_setting 'orthorhombic'
loop_
_space_group_symop_operation_xyz
x,y,z
-x,1/2-y,z
x,-y,-z
-x,1/2+y,-z
-x,-y,-z
x,1/2+y,-z
-x,y,z
x,1/2-y,z
1/2+x,1/2+y,z
1/2-x,-y,z
1/2+x,1/2-y,-z
1/2-x,y,-z
1/2-x,1/2-y,-z
1/2+x,y,-z
1/2-x,1/2+y,z
1/2+x,-y,z
loop_
_atom_site_type_symbol
_atom_site_label
_atom_site_fract_x
_atom_site_fract_y
_atom_site_fract_z
Si Si1 0.181884 0.250000 0.428314
Si Si2 0.131338 0.413179 0.597201
Si Si3 0.819760 0.091018 0.936835
Si Si4 0.000000 0.653626 0.398686
Si Si5 0.000000 0.250000 0.294496
Si Si6 0.127760 0.250000 0.104442
O O1 0.250000 0.250000 0.500000
O O2 0.144180 0.333624 0.481752
O O3 0.183012 0.250000 0.236975
O O4 0.142373 0.500000 0.500000
O O5 0.179261 0.411277 0.745165
O O6 0.059822 0.402451 0.656919
O O7 0.750000 0.108197 0.000000
O O8 0.865702 0.165911 0.995345
O O9 0.845696 0.000000 0.000000
O O10 0.000000 0.665059 0.591753
O O11 0.000000 0.750000 0.318834
O O12 0.060187 0.250000 0.183308
#
# Coordination Sequence:
#
# PCOD8281102 Si02
#       6
#     8  16  16   8   4   8
#     4  12  23  40  68  99 130 181 237 269 334 409
#     4  12  24  44  73  99 134 186 235 278 333 408
#     4  11  26  45  65 100 143 174 222 284 344 403
#     4  10  21  44  70  97 138 170 238 287 327 396
#     4  10  22  40  72  96 140 170 232 280 336 400
#     4  12  22  43  67  97 139 179 212 287 347 385
#
# _framework density 21.573072
#
# number of rings (size 3 to 8) (size 9 to 14) (size 15 to 20)
#    0.400    0.267    4.000    4.800    0.000    3.733 
#    0.000    1.333    0.000    0.000    0.000    0.000 
#    0.000    0.000    0.000    0.000    0.000    0.000 
#
# Total GULP energy -372121.532447 kJ/mol
# GULP energy per Si atom -12404.051082 kJ/mol
# Density = 2.152397 g / cm^3
# Si number density = 21.573072 Si / 1000 Ang^3
#
#
#
# Elastic Constant Matrix: (Units=GPa)
#
#
# Indices 1 2 3 4 5 6 
#
# 1 116.3084 23.8772 27.3339 0.0000 0.0000 0.0000
# 2 23.8772 157.1993 47.7008 0.0000 0.0000 0.0000
# 3 27.3339 47.7008 117.4093 0.0000 0.0000 0.0000
# 4 0.0000 0.0000 0.0000 27.7470 0.0000 0.0000
# 5 0.0000 0.0000 0.0000 0.0000 36.1590 0.0000
# 6 0.0000 0.0000 0.0000 0.0000 0.0000 15.3854
#
#
#
# Elastic Compliance Matrix: (Units=1/GPa)
#
#
# Indices 1 2 3 4 5 6 
#
# 1 0.009194 -0.000852 -0.001794 0.000000 0.000000 0.000000
# 2 -0.000852 0.007335 -0.002782 0.000000 0.000000 0.000000
# 3 -0.001794 -0.002782 0.010065 0.000000 0.000000 0.000000
# 4 0.000000 0.000000 0.000000 0.036040 0.000000 0.000000
# 5 0.000000 0.000000 0.000000 0.000000 0.027656 0.000000
# 6 0.000000 0.000000 0.000000 0.000000 0.000000 0.064997
#
#
# Mechanical properties :
#
#
# Convention : Reuss Voigt Hill
#
# Bulk Modulus (GPa) = 63.53949 65.41565 64.47757
# Shear Modulus (GPa) = 29.17345 35.32529 32.24937
#
# Velocity S-wave (km/s) = 3.68136 4.05096 3.87058
# Velocity P-wave (km/s) = 6.89833 7.22973 7.06598
#
# Compressibility (1/GPa) = 0.01573824
#
# Stress axis : x y z
#
# Youngs Moduli (GPa) = 108.76116 136.33587 99.35360
#
# Poissons Ratio (x) = 0.11617 0.17828
# Poissons Ratio (y) = 0.09267 0.27636
# Poissons Ratio (z) = 0.19516 0.37923
#
# Static dielectric constant tensor:
#      x y z
#    x 3.883980 0.000000 0.000000 
#    y 0.000000 3.958930 0.000000 
#    z 0.000000 0.000000 3.859380 
# 
# 
# High freq. dielectric constant tensor:
#      x y z
#    x 1.847270 0.000000 0.000000 
#    y 0.000000 1.855510 0.000000 
#    z 0.000000 0.000000 1.841750 
# 
# From -- ./inp_files/12053.got.cif
#   From: 2010.03.12/outbox.cif.g09.slc.cpg/sg67_7_cif.got.tgz:12053.got - 2010.04.10 22:41:39.
