data_PCOD8281088
_publ_section_title
;
Structure prediction by ZEFSAII (Michael W. Deem and Ramdas Pophale) SiO2 
 PCOD8281088
Probable space group: C M M A
;
_chemical_formula_sum "Si O2"
_cell_formula_units_Z 96
_cell_length_a 14.657630
_cell_length_b 17.075750
_cell_length_c 18.744184
_cell_angle_alpha 90.000000
_cell_angle_beta 90.000000
_cell_angle_gamma 90.000000
_cell_volume 4691.482291
_symmetry_space_group_name_H-M "C M M A"
_symmetry_group_IT_number 67
_symmetry_cell_setting 'orthorhombic'
loop_
_space_group_symop_operation_xyz
x,y,z
-x,1/2-y,z
x,-y,-z
-x,1/2+y,-z
-x,-y,-z
x,1/2+y,-z
-x,y,z
x,1/2-y,z
1/2+x,1/2+y,z
1/2-x,-y,z
1/2+x,1/2-y,-z
1/2-x,y,-z
1/2-x,1/2-y,-z
1/2+x,y,-z
1/2-x,1/2+y,z
1/2+x,-y,z
loop_
_atom_site_type_symbol
_atom_site_label
_atom_site_fract_x
_atom_site_fract_y
_atom_site_fract_z
Si Si1 0.242403 0.160036 0.755576
Si Si2 0.744313 0.908736 0.603108
Si Si3 0.602438 0.904127 0.152101
Si Si4 0.142631 0.839352 0.000280
Si Si5 0.104938 0.342715 0.493833
Si Si6 0.397711 0.080930 0.143449
O O1 0.233442 0.250000 0.732638
O O2 0.233199 0.105980 0.686593
O O3 0.338958 0.146814 0.793327
O O4 0.163230 0.139710 0.811058
O O5 0.837964 0.869142 0.575606
O O6 0.654430 0.876167 0.563932
O O7 0.750000 0.000000 0.587214
O O8 0.500000 0.903599 0.181882
O O9 0.602340 0.866109 0.074495
O O10 0.641043 0.992669 0.148626
O O11 0.113920 0.750000 0.014850
O O12 0.250000 0.849664 0.000000
O O13 0.100752 0.893620 0.061250
O O14 0.106391 0.250000 0.498323
O O15 0.000000 0.373203 0.489508
O O16 0.500000 0.084632 0.173923
#
# Coordination Sequence:
#
# PCOD8281088 Si02
#       6
#    16  16  16  16  16  16
#     4  12  25  42  63  88 122 162 202 248 303 360
#     4  11  23  40  64  93 127 164 201 247 296 350
#     4  11  24  41  62  88 118 156 202 253 308 363
#     4  11  22  37  60  89 118 155 200 251 307 361
#     4  10  21  40  67  97 128 162 201 245 292 347
#     4  11  24  41  62  88 118 156 202 253 308 363
#
# _framework density 20.462616000000001
#
# number of rings (size 3 to 8) (size 9 to 14) (size 15 to 20)
#    0.000    1.000    1.667    6.500    0.000    8.000 
#    0.000    0.000    0.000    0.000    0.000    0.000 
#    0.000    0.000    0.000    0.000    0.000    0.000 
#
# Total GULP energy -595461.511088 kJ/mol
# GULP energy per Si atom -12405.448148 kJ/mol
# Density = 2.041604 g / cm^3
# Si number density = 20.462616 Si / 1000 Ang^3
#
#
#
# Elastic Constant Matrix: (Units=GPa)
#
#
# Indices 1 2 3 4 5 6 
#
# 1 113.7979 31.9167 8.1565 0.0000 0.0000 0.0000
# 2 31.9167 92.1671 2.0510 0.0000 0.0000 0.0000
# 3 8.1565 2.0510 75.9550 0.0000 0.0000 0.0000
# 4 0.0000 0.0000 0.0000 31.6344 0.0000 0.0000
# 5 0.0000 0.0000 0.0000 0.0000 5245.9607 0.0000
# 6 0.0000 0.0000 0.0000 0.0000 0.0000 29.9498
#
#
#
# Elastic Compliance Matrix: (Units=1/GPa)
#
#
# Indices 1 2 3 4 5 6 
#
# 1 0.009802 -0.003373 -0.000962 0.000000 0.000000 0.000000
# 2 -0.003373 0.012017 0.000038 0.000000 0.000000 0.000000
# 3 -0.000962 0.000038 0.013268 0.000000 0.000000 0.000000
# 4 0.000000 0.000000 0.000000 0.031611 0.000000 0.000000
# 5 0.000000 0.000000 0.000000 0.000000 0.000191 0.000000
# 6 0.000000 0.000000 0.000000 0.000000 0.000000 0.033389
#
#
# Mechanical properties :
#
#
# Convention : Reuss Voigt Hill
#
# Bulk Modulus (GPa) = 37.74497 40.68538 39.21518
# Shear Modulus (GPa) = 42.47958 1077.49537 559.98747
#
# Velocity S-wave (km/s) = 4.56121 22.97196 16.56073
# Velocity P-wave (km/s) = 6.79893 26.89871 19.61843
#
# Compressibility (1/GPa) = 0.02649360
#
# Stress axis : x y z
#
# Youngs Moduli (GPa) = 102.01502 83.21471 75.36974
#
# Poissons Ratio (x) = 0.28069 0.07247
# Poissons Ratio (y) = 0.34411 -0.00284
# Poissons Ratio (z) = 0.09809 -0.00314
#
# Static dielectric constant tensor:
#      x y z
#    x 4.208110 0.000000 0.000000 
#    y 0.000000 3.832670 0.000000 
#    z 0.000000 0.000000 3.588620 
# 
# 
# High freq. dielectric constant tensor:
#      x y z
#    x 1.810790 0.000000 0.000000 
#    y 0.000000 1.815630 0.000000 
#    z 0.000000 0.000000 1.792940 
# 
# From -- ./inp_files/38389.got.cif
#   From: 2010.03.12/outbox.cif.g09.slc.cpg/sg67_20_cif.got.tgz:38389.got - 2010.04.10 22:41:39.
