data_PCOD8281855
_publ_section_title
;
Structure prediction by ZEFSAII (Michael W. Deem and Ramdas Pophale) SiO2 
 PCOD8281855
Probable space group: C C C A
;
_chemical_formula_sum "Si O2"
_cell_formula_units_Z 80
_cell_length_a 14.161876
_cell_length_b 12.631581
_cell_length_c 23.436259
_cell_angle_alpha 90.000000
_cell_angle_beta 90.000000
_cell_angle_gamma 90.000000
_cell_volume 4192.439341
_symmetry_space_group_name_H-M "C C C A"
_symmetry_group_IT_number 68
_space_group.IT_coordinate_system_code '2'
_symmetry_cell_setting 'orthorhombic'
loop_
_space_group_symop_operation_xyz
x,y,z
-x,1/2-y,z
x,1/2-y,1/2-z
-x,y,1/2-z
-x,-y,-z
x,1/2+y,-z
-x,1/2+y,1/2+z
x,-y,1/2+z
1/2+x,1/2+y,z
1/2-x,-y,z
1/2+x,-y,1/2-z
1/2-x,1/2+y,1/2-z
1/2-x,1/2-y,-z
1/2+x,y,-z
1/2-x,y,1/2+z
1/2+x,1/2-y,1/2+z
loop_
_atom_site_type_symbol
_atom_site_label
_atom_site_fract_x
_atom_site_fract_y
_atom_site_fract_z
Si Si1 0.724857 0.295928 0.881044
Si Si2 0.588055 0.516307 0.366174
Si Si3 0.821476 0.087213 0.525815
Si Si4 0.931548 0.654316 0.583562
Si Si5 0.092213 0.199116 0.812313
O O1 0.669816 0.397166 0.854024
O O2 0.758322 0.317728 0.946698
O O3 0.656751 0.194869 0.879554
O O4 0.813166 0.263686 0.843047
O O5 0.614809 0.453938 0.422792
O O6 0.485805 0.568653 0.377518
O O7 0.583079 0.430167 0.314588
O O8 0.894539 0.113418 0.476613
O O9 0.750000 0.000000 0.501092
O O10 0.000000 0.750000 0.567649
O O11 0.096709 0.250000 0.750000
O O12 0.000000 0.250000 0.843219
#
# Coordination Sequence:
#
# PCOD8281855 Si02
#       5
#    16  16  16  16  16
#     4   9  19  36  55  78 109 143 177 217 264 317
#     4   9  19  36  54  76 112 145 173 218 269 317
#     4   9  17  29  48  77 115 153 180 208 251 305
#     4  10  19  31  52  82 114 147 179 209 255 321
#     4  10  21  38  57  77  97 129 177 227 278 322
#
# _framework density 19.081969000000001
#
# number of rings (size 3 to 8) (size 9 to 14) (size 15 to 20)
#    0.000    2.600    0.000    3.000    0.000    4.800 
#    0.000    8.000    0.000    4.200    0.000    0.000 
#    0.000    0.000    0.000    0.000    0.000    0.000 
#
# Total GULP energy -495669.417510 kJ/mol
# GULP energy per Si atom -12391.735438 kJ/mol
# Density = 1.903854 g / cm^3
# Si number density = 19.081969 Si / 1000 Ang^3
#
#
#
# Elastic Constant Matrix: (Units=GPa)
#
#
# Indices 1 2 3 4 5 6 
#
# 1 153.6945 50.6485 51.1354 0.0000 0.0000 0.0000
# 2 50.6485 78.5571 48.4707 0.0000 0.0000 0.0000
# 3 51.1354 48.4707 78.2509 0.0000 0.0000 0.0000
# 4 0.0000 0.0000 0.0000 7.1348 0.0000 0.0000
# 5 0.0000 0.0000 0.0000 0.0000 18.8822 0.0000
# 6 0.0000 0.0000 0.0000 0.0000 0.0000 33.5918
#
#
#
# Elastic Compliance Matrix: (Units=1/GPa)
#
#
# Indices 1 2 3 4 5 6 
#
# 1 0.008860 -0.003464 -0.003644 0.000000 0.000000 0.000000
# 2 -0.003464 0.021959 -0.011338 0.000000 0.000000 0.000000
# 3 -0.003644 -0.011338 0.022184 0.000000 0.000000 0.000000
# 4 0.000000 0.000000 0.000000 0.140158 0.000000 0.000000
# 5 0.000000 0.000000 0.000000 0.000000 0.052960 0.000000
# 6 0.000000 0.000000 0.000000 0.000000 0.000000 0.029769
#
#
# Mechanical properties :
#
#
# Convention : Reuss Voigt Hill
#
# Bulk Modulus (GPa) = 62.07278 67.89018 64.98148
# Shear Modulus (GPa) = 15.71568 22.60496 19.16032
#
# Velocity S-wave (km/s) = 2.87294 3.44557 3.17220
# Velocity P-wave (km/s) = 6.60342 7.17528 6.89528
#
# Compressibility (1/GPa) = 0.01611012
#
# Stress axis : x y z
#
# Youngs Moduli (GPa) = 112.86078 45.53995 45.07716
#
# Poissons Ratio (x) = 0.15775 0.16428
# Poissons Ratio (y) = 0.39095 0.51109
# Poissons Ratio (z) = 0.41132 0.51634
#
# Static dielectric constant tensor:
#      x y z
#    x 3.983900 0.000000 0.000000 
#    y 0.000000 3.736420 0.000000 
#    z 0.000000 0.000000 3.053860 
# 
# 
# High freq. dielectric constant tensor:
#      x y z
#    x 1.767530 0.000000 0.000000 
#    y 0.000000 1.739480 0.000000 
#    z 0.000000 0.000000 1.698650 
# 
# From -- ./inp_files/44097.got.cif
#   From: 2010.03.12/outbox.cif.g09.slc.cpg/sg68_23_cif.got.tgz:44097.got - 2010.04.10 23:14:56.
