data_PCOD8281215
_publ_section_title
;
Structure prediction by ZEFSAII (Michael W. Deem and Ramdas Pophale) SiO2 
 PCOD8281215
Probable space group: C M M A
;
_chemical_formula_sum "Si O2"
_cell_formula_units_Z 112
_cell_length_a 16.623290
_cell_length_b 25.580490
_cell_length_c 14.743955
_cell_angle_alpha 90.000000
_cell_angle_beta 90.000000
_cell_angle_gamma 90.000000
_cell_volume 6269.600051
_symmetry_space_group_name_H-M "C M M A"
_symmetry_group_IT_number 67
_symmetry_cell_setting 'orthorhombic'
loop_
_space_group_symop_operation_xyz
x,y,z
-x,1/2-y,z
x,-y,-z
-x,1/2+y,-z
-x,-y,-z
x,1/2+y,-z
-x,y,z
x,1/2-y,z
1/2+x,1/2+y,z
1/2-x,-y,z
1/2+x,1/2-y,-z
1/2-x,y,-z
1/2-x,1/2-y,-z
1/2+x,y,-z
1/2-x,1/2+y,z
1/2+x,-y,z
loop_
_atom_site_type_symbol
_atom_site_label
_atom_site_fract_x
_atom_site_fract_y
_atom_site_fract_z
Si Si1 0.654742 0.390919 0.244592
Si Si2 0.830386 0.071791 0.200058
Si Si3 0.654988 0.891683 0.014214
Si Si4 0.409372 0.471789 0.121411
Si Si5 0.594493 0.949537 0.383834
Si Si6 0.095076 0.567650 0.417661
Si Si7 0.593941 0.190760 0.121380
O O1 0.736881 0.417609 0.213118
O O2 0.585765 0.425063 0.195279
O O3 0.641728 0.391400 0.353211
O O4 0.645013 0.332056 0.206651
O O5 0.864266 0.110724 0.122044
O O6 0.870750 0.081319 0.297820
O O7 0.847247 0.014117 0.161220
O O8 0.750000 0.889840 0.000000
O O9 0.620907 0.946796 0.973960
O O10 0.612563 0.841903 0.969430
O O11 0.500000 0.494567 0.110720
O O12 0.500000 0.946483 0.377800
O O13 0.623516 0.923225 0.478425
O O14 0.621273 0.009987 0.384095
O O15 0.000000 0.575393 0.410203
O O16 0.500000 0.188246 0.144063
O O17 0.622584 0.250000 0.105577
#
# Coordination Sequence:
#
# PCOD8281215 Si02
#       7
#    16  16  16  16  16  16  16
#     4  11  20  33  54  81 106 138 174 228 279 314
#     4  12  22  32  49  77 111 150 182 219 255 321
#     4  11  22  36  52  78 109 142 179 223 273 320
#     4  11  22  34  50  72 107 152 188 218 249 303
#     4   9  19  31  47  74 108 150 189 218 249 304
#     4   9  17  32  51  72 106 147 184 221 261 305
#     4  10  22  41  62  82 101 129 179 233 280 332
#
# _framework density 17.863977999999999
#
# number of rings (size 3 to 8) (size 9 to 14) (size 15 to 20)
#    0.000    1.571    4.286    4.714    0.000    4.286 
#    0.000    1.429    0.000    0.000    0.000    3.000 
#    0.000    4.571    0.000    0.000    0.000    0.000 
#
# Total GULP energy -694072.469792 kJ/mol
# GULP energy per Si atom -12394.151246 kJ/mol
# Density = 1.782332 g / cm^3
# Si number density = 17.863978 Si / 1000 Ang^3
#
#
#
# Elastic Constant Matrix: (Units=GPa)
#
#
# Indices 1 2 3 4 5 6 
#
# 1 70.0710 37.0654 32.4643 0.0000 0.0000 0.0000
# 2 37.0654 83.8171 48.0038 0.0000 0.0000 0.0000
# 3 32.4643 48.0038 181.9483 0.0000 0.0000 0.0000
# 4 0.0000 0.0000 0.0000 15.9380 0.0000 0.0000
# 5 0.0000 0.0000 0.0000 0.0000 25.7484 0.0000
# 6 0.0000 0.0000 0.0000 0.0000 0.0000 19.7456
#
#
#
# Elastic Compliance Matrix: (Units=1/GPa)
#
#
# Indices 1 2 3 4 5 6 
#
# 1 0.018917 -0.007577 -0.001376 0.000000 0.000000 0.000000
# 2 -0.007577 0.017089 -0.003157 0.000000 0.000000 0.000000
# 3 -0.001376 -0.003157 0.006574 0.000000 0.000000 0.000000
# 4 0.000000 0.000000 0.000000 0.062743 0.000000 0.000000
# 5 0.000000 0.000000 0.000000 0.000000 0.038837 0.000000
# 6 0.000000 0.000000 0.000000 0.000000 0.000000 0.050644
#
#
# Mechanical properties :
#
#
# Convention : Reuss Voigt Hill
#
# Bulk Modulus (GPa) = 54.46466 63.43372 58.94919
# Shear Modulus (GPa) = 22.20780 26.83993 24.52387
#
# Velocity S-wave (km/s) = 3.52967 3.88036 3.70917
# Velocity P-wave (km/s) = 6.86776 7.46074 7.17039
#
# Compressibility (1/GPa) = 0.01836053
#
# Stress axis : x y z
#
# Youngs Moduli (GPa) = 52.86264 58.51548 152.10360
#
# Poissons Ratio (x) = 0.44339 0.20932
# Poissons Ratio (y) = 0.40055 0.48016
# Poissons Ratio (z) = 0.07275 0.18472
#
# Static dielectric constant tensor:
#      x y z
#    x 3.191770 0.000000 0.000000 
#    y 0.000000 3.002180 0.000000 
#    z 0.000000 0.000000 4.492800 
# 
# 
# High freq. dielectric constant tensor:
#      x y z
#    x 1.691930 0.000000 0.000000 
#    y 0.000000 1.631040 0.000000 
#    z 0.000000 0.000000 1.706700 
# 
# From -- ./inp_files/27720.got.cif
#   From: 2010.03.12/outbox.cif.g09.slc.cpg/sg67_14_cif.got.tgz:27720.got - 2010.04.10 22:41:39.
