data_PCOD8281986
_publ_section_title
;
Structure prediction by ZEFSAII (Michael W. Deem and Ramdas Pophale) SiO2 
 PCOD8281986
Probable space group: C C C A
;
_chemical_formula_sum "Si O2"
_cell_formula_units_Z 60
_cell_length_a 13.122855
_cell_length_b 24.812223
_cell_length_c 8.137045
_cell_angle_alpha 90.000000
_cell_angle_beta 90.000000
_cell_angle_gamma 90.000000
_cell_volume 2649.480477
_symmetry_space_group_name_H-M "C C C A"
_symmetry_group_IT_number 68
_space_group.IT_coordinate_system_code '2'
_symmetry_cell_setting 'orthorhombic'
loop_
_space_group_symop_operation_xyz
x,y,z
-x,1/2-y,z
x,1/2-y,1/2-z
-x,y,1/2-z
-x,-y,-z
x,1/2+y,-z
-x,1/2+y,1/2+z
x,-y,1/2+z
1/2+x,1/2+y,z
1/2-x,-y,z
1/2+x,-y,1/2-z
1/2-x,1/2+y,1/2-z
1/2-x,1/2-y,-z
1/2+x,y,-z
1/2-x,y,1/2+z
1/2+x,1/2-y,1/2+z
loop_
_atom_site_type_symbol
_atom_site_label
_atom_site_fract_x
_atom_site_fract_y
_atom_site_fract_z
Si Si1 0.000000 0.250000 0.250000
Si Si2 0.621607 0.660895 0.433392
Si Si3 0.673177 0.048555 0.970102
Si Si4 0.000000 0.070360 0.250000
Si Si5 0.193952 0.876407 0.251679
O O1 0.066834 0.214416 0.372491
O O2 0.565762 0.606991 0.371757
O O3 0.737319 0.662935 0.364376
O O4 0.619178 0.658653 0.633991
O O5 0.574078 0.032018 0.860784
O O6 0.732776 0.093712 0.873934
O O7 0.750000 0.000000 0.013425
O O8 0.636599 0.078100 0.138416
#
# Coordination Sequence:
#
# PCOD8281986 Si02
#       5
#     4  16  16   8  16
#     4  10  20  36  64  94 120 152 212 260 312 400
#     4   9  19  37  60  87 120 159 198 256 317 374
#     4  10  19  36  59  87 122 165 210 249 299 374
#     4   9  20  37  60  88 124 160 200 261 316 353
#     4   9  19  36  57  82 123 163 198 250 317 363
#
# _framework density 22.645948000000001
#
# number of rings (size 3 to 8) (size 9 to 14) (size 15 to 20)
#    0.000    2.667    0.000    0.800    0.000    2.133 
#    0.000   22.667    0.000   25.600    0.000    0.000 
#    0.000    0.000    0.000    0.000    0.000    0.000 
#
# Total GULP energy -371676.348209 kJ/mol
# GULP energy per Si atom -12389.211607 kJ/mol
# Density = 2.259440 g / cm^3
# Si number density = 22.645948 Si / 1000 Ang^3
#
#
#
# Elastic Constant Matrix: (Units=GPa)
#
#
# Indices 1 2 3 4 5 6 
#
# 1 90.9141 45.3578 66.4916 0.0000 0.0000 0.0000
# 2 45.3578 97.0316 59.3950 0.0000 0.0000 0.0000
# 3 66.4916 59.3950 168.4140 0.0000 0.0000 0.0000
# 4 0.0000 0.0000 0.0000 2.0884 0.0000 0.0000
# 5 0.0000 0.0000 0.0000 0.0000 3.0550 0.0000
# 6 0.0000 0.0000 0.0000 0.0000 0.0000 17.0246
#
#
#
# Elastic Compliance Matrix: (Units=1/GPa)
#
#
# Indices 1 2 3 4 5 6 
#
# 1 0.017137 -0.004934 -0.005026 0.000000 0.000000 0.000000
# 2 -0.004934 0.014564 -0.003188 0.000000 0.000000 0.000000
# 3 -0.005026 -0.003188 0.009046 0.000000 0.000000 0.000000
# 4 0.000000 0.000000 0.000000 0.478843 0.000000 0.000000
# 5 0.000000 0.000000 0.000000 0.000000 0.327331 0.000000
# 6 0.000000 0.000000 0.000000 0.000000 0.000000 0.058738
#
#
# Mechanical properties :
#
#
# Convention : Reuss Voigt Hill
#
# Bulk Modulus (GPa) = 69.20025 77.64983 73.42504
# Shear Modulus (GPa) = 5.33747 16.77463 11.05605
#
# Velocity S-wave (km/s) = 1.53689 2.72460 2.21195
# Velocity P-wave (km/s) = 5.81147 6.65289 6.24636
#
# Compressibility (1/GPa) = 0.01445082
#
# Stress axis : x y z
#
# Youngs Moduli (GPa) = 58.35429 68.66210 110.54278
#
# Poissons Ratio (x) = 0.33881 0.55554
# Poissons Ratio (y) = 0.28794 0.35243
# Poissons Ratio (z) = 0.29326 0.21891
#
# Static dielectric constant tensor:
#      x y z
#    x 4.483520 0.000000 0.000000 
#    y 0.000000 3.625460 0.000000 
#    z 0.000000 0.000000 4.814530 
# 
# 
# High freq. dielectric constant tensor:
#      x y z
#    x 1.878860 0.000000 0.000000 
#    y 0.000000 1.852770 0.000000 
#    z 0.000000 0.000000 1.913830 
# 
# From -- ./inp_files/3942.got.cif
#   From: 2010.03.12/outbox.cif.g09.slc.cpg/sg68_2_cif.got.tgz:3942.got - 2010.04.10 23:14:56.
