data_PCOD8281881
_publ_section_title
;
Structure prediction by ZEFSAII (Michael W. Deem and Ramdas Pophale) SiO2 
 PCOD8281881
Probable space group: C C C A
;
_chemical_formula_sum "Si O2"
_cell_formula_units_Z 96
_cell_length_a 9.932472
_cell_length_b 25.524956
_cell_length_c 18.882617
_cell_angle_alpha 90.000000
_cell_angle_beta 90.000000
_cell_angle_gamma 90.000000
_cell_volume 4787.232673
_symmetry_space_group_name_H-M "C C C A"
_symmetry_group_IT_number 68
_space_group.IT_coordinate_system_code '2'
_symmetry_cell_setting 'orthorhombic'
loop_
_space_group_symop_operation_xyz
x,y,z
-x,1/2-y,z
x,1/2-y,1/2-z
-x,y,1/2-z
-x,-y,-z
x,1/2+y,-z
-x,1/2+y,1/2+z
x,-y,1/2+z
1/2+x,1/2+y,z
1/2-x,-y,z
1/2+x,-y,1/2-z
1/2-x,1/2+y,1/2-z
1/2-x,1/2-y,-z
1/2+x,y,-z
1/2-x,y,1/2+z
1/2+x,1/2-y,1/2+z
loop_
_atom_site_type_symbol
_atom_site_label
_atom_site_fract_x
_atom_site_fract_y
_atom_site_fract_z
Si Si1 0.268819 0.559349 0.918952
Si Si2 0.909284 0.795464 0.512555
Si Si3 0.741960 0.739152 0.616025
Si Si4 0.607916 0.659283 0.842789
Si Si5 0.454420 0.101849 0.477340
Si Si6 0.299791 0.143725 0.194760
O O1 0.250000 0.500000 0.894161
O O2 0.245734 0.593475 0.847691
O O3 0.150720 0.569995 0.975560
O O4 0.418807 0.566864 0.951428
O O5 0.861482 0.777629 0.590591
O O6 0.793750 0.798310 0.452296
O O7 0.985446 0.849968 0.522389
O O8 0.000000 0.750000 0.479318
O O9 0.631298 0.778937 0.646536
O O10 0.785093 0.696584 0.675468
O O11 0.450541 0.656195 0.828855
O O12 0.700070 0.635149 0.779509
O O13 0.635702 0.624670 0.912625
#
# Coordination Sequence:
#
# PCOD8281881 Si02
#       6
#    16  16  16  16  16  16
#     4  11  23  40  62  85 114 153 203 256 305 348
#     4  11  19  29  52  84 117 150 182 226 291 351
#     4  11  18  30  51  83 119 149 181 225 285 352
#     4  10  19  32  55  85 116 147 190 232 291 351
#     4  11  21  38  60  89 119 150 201 254 303 355
#     4  10  20  34  54  83 117 150 189 246 286 343
#
# _framework density 20.053339999999999
#
# number of rings (size 3 to 8) (size 9 to 14) (size 15 to 20)
#    0.000    1.333    5.000    3.500    0.000    1.333 
#    0.000    0.833    0.000   20.000    0.000    0.000 
#    0.000    0.000    0.000    0.000    0.000    0.000 
#
# Total GULP energy -594792.812540 kJ/mol
# GULP energy per Si atom -12391.516928 kJ/mol
# Density = 2.000770 g / cm^3
# Si number density = 20.053340 Si / 1000 Ang^3
#
#
#
# Elastic Constant Matrix: (Units=GPa)
#
#
# Indices 1 2 3 4 5 6 
#
# 1 45.2707 31.0005 32.4278 0.0000 0.0000 0.0000
# 2 31.0005 138.1952 49.9091 0.0000 0.0000 0.0000
# 3 32.4278 49.9091 108.6054 0.0000 0.0000 0.0000
# 4 0.0000 0.0000 0.0000 18.7696 0.0000 0.0000
# 5 0.0000 0.0000 0.0000 0.0000 21.8524 0.0000
# 6 0.0000 0.0000 0.0000 0.0000 0.0000 22.3340
#
#
#
# Elastic Compliance Matrix: (Units=1/GPa)
#
#
# Indices 1 2 3 4 5 6 
#
# 1 0.029994 -0.004189 -0.007031 0.000000 0.000000 0.000000
# 2 -0.004189 0.009261 -0.003005 0.000000 0.000000 0.000000
# 3 -0.007031 -0.003005 0.012688 0.000000 0.000000 0.000000
# 4 0.000000 0.000000 0.000000 0.053278 0.000000 0.000000
# 5 0.000000 0.000000 0.000000 0.000000 0.045762 0.000000
# 6 0.000000 0.000000 0.000000 0.000000 0.000000 0.044775
#
#
# Mechanical properties :
#
#
# Convention : Reuss Voigt Hill
#
# Bulk Modulus (GPa) = 42.56542 57.63843 50.10193
# Shear Modulus (GPa) = 21.54815 24.50678 23.02747
#
# Velocity S-wave (km/s) = 3.28158 3.49962 3.39235
# Velocity P-wave (km/s) = 5.96913 6.71824 6.35473
#
# Compressibility (1/GPa) = 0.02349325
#
# Stress axis : x y z
#
# Youngs Moduli (GPa) = 33.33977 107.97752 78.81570
#
# Poissons Ratio (x) = 0.45235 0.55412
# Poissons Ratio (y) = 0.13967 0.23685
# Poissons Ratio (z) = 0.23440 0.32448
#
# Static dielectric constant tensor:
#      x y z
#    x 3.524420 0.000000 0.000000 
#    y 0.000000 3.545150 0.000000 
#    z 0.000000 0.000000 3.925540 
# 
# 
# High freq. dielectric constant tensor:
#      x y z
#    x 1.759800 0.000000 0.000000 
#    y 0.000000 1.767210 0.000000 
#    z 0.000000 0.000000 1.774700 
# 
# From -- ./inp_files/29794.got.cif
#   From: 2010.03.12/outbox.cif.g09.slc.cpg/sg68_15_cif.got.tgz:29794.got - 2010.04.10 23:14:56.
