data_PCOD8281293
_publ_section_title
;
Structure prediction by ZEFSAII (Michael W. Deem and Ramdas Pophale) SiO2 
 PCOD8281293
Probable space group: C M M A
;
_chemical_formula_sum "Si O2"
_cell_formula_units_Z 52
_cell_length_a 9.757642
_cell_length_b 14.628413
_cell_length_c 17.864897
_cell_angle_alpha 90.000000
_cell_angle_beta 90.000000
_cell_angle_gamma 90.000000
_cell_volume 2550.014265
_symmetry_space_group_name_H-M "C M M A"
_symmetry_group_IT_number 67
_symmetry_cell_setting 'orthorhombic'
loop_
_space_group_symop_operation_xyz
x,y,z
-x,1/2-y,z
x,-y,-z
-x,1/2+y,-z
-x,-y,-z
x,1/2+y,-z
-x,y,z
x,1/2-y,z
1/2+x,1/2+y,z
1/2-x,-y,z
1/2+x,1/2-y,-z
1/2-x,y,-z
1/2-x,1/2-y,-z
1/2+x,y,-z
1/2-x,1/2+y,z
1/2+x,-y,z
loop_
_atom_site_type_symbol
_atom_site_label
_atom_site_fract_x
_atom_site_fract_y
_atom_site_fract_z
Si Si1 0.771092 0.395419 0.688787
Si Si2 0.500000 0.357748 0.192062
Si Si3 0.000000 0.026270 0.097022
Si Si4 0.000000 0.847622 0.763567
Si Si5 0.651824 0.750000 0.569910
Si Si6 0.250000 0.000000 0.000000
O O1 0.750000 0.500000 0.665243
O O2 0.866914 0.385484 0.761099
O O3 0.627201 0.351880 0.708620
O O4 0.831966 0.341185 0.618973
O O5 0.500000 0.250000 0.172046
O O6 0.500000 0.416641 0.114526
O O7 0.140256 0.055417 0.052459
O O8 0.000000 0.072608 0.176797
O O9 0.000000 0.750000 0.805863
O O10 0.500000 0.750000 0.536520
O O11 0.750000 0.750000 0.500000
#
# Coordination Sequence:
#
# PCOD8281293 Si02
#       6
#    16   8   8   8   8   4
#     4  12  22  41  67  99 130 166 223 279 324 383
#     4  12  21  41  69  99 127 169 223 282 328 373
#     4  11  22  42  64  96 133 176 216 264 339 388
#     4  12  23  37  69 105 127 161 225 284 324 371
#     4  12  28  48  66  94 142 181 212 264 342 399
#     4  10  24  42  62  90 144 180 202 262 334 422
#
# _framework density 20.392043000000001
#
# number of rings (size 3 to 8) (size 9 to 14) (size 15 to 20)
#    0.000    0.308    7.692    1.846    2.154    0.615 
#    0.000    6.154    0.000    0.000    0.000    0.000 
#    0.000    0.000    0.000    0.000    0.000    0.000 
#
# Total GULP energy -322297.386752 kJ/mol
# GULP energy per Si atom -12396.053337 kJ/mol
# Density = 2.034563 g / cm^3
# Si number density = 20.392043 Si / 1000 Ang^3
#
#
#
# Elastic Constant Matrix: (Units=GPa)
#
#
# Indices 1 2 3 4 5 6 
#
# 1 178.4254 20.5921 41.3573 0.0000 0.0000 0.0000
# 2 20.5921 153.7799 29.1516 0.0000 0.0000 0.0000
# 3 41.3573 29.1516 89.7806 0.0000 0.0000 0.0000
# 4 0.0000 0.0000 0.0000 6.1574 0.0000 0.0000
# 5 0.0000 0.0000 0.0000 0.0000 41.6742 0.0000
# 6 0.0000 0.0000 0.0000 0.0000 0.0000 22.1553
#
#
#
# Elastic Compliance Matrix: (Units=1/GPa)
#
#
# Indices 1 2 3 4 5 6 
#
# 1 0.006289 -0.000312 -0.002795 0.000000 0.000000 0.000000
# 2 -0.000312 0.006945 -0.002111 0.000000 0.000000 0.000000
# 3 -0.002795 -0.002111 0.013111 0.000000 0.000000 0.000000
# 4 0.000000 0.000000 0.000000 0.162405 0.000000 0.000000
# 5 0.000000 0.000000 0.000000 0.000000 0.023996 0.000000
# 6 0.000000 0.000000 0.000000 0.000000 0.000000 0.045136
#
#
# Mechanical properties :
#
#
# Convention : Reuss Voigt Hill
#
# Bulk Modulus (GPa) = 62.86429 67.13199 64.99814
# Shear Modulus (GPa) = 18.27341 36.05638 27.16490
#
# Velocity S-wave (km/s) = 2.99675 4.20951 3.65380
# Velocity P-wave (km/s) = 6.54743 7.52455 7.05293
#
# Compressibility (1/GPa) = 0.01590728
#
# Stress axis : x y z
#
# Youngs Moduli (GPa) = 159.01861 143.99241 76.26897
#
# Poissons Ratio (x) = 0.04495 0.21321
# Poissons Ratio (y) = 0.04964 0.16102
# Poissons Ratio (z) = 0.44453 0.30399
#
# Static dielectric constant tensor:
#      x y z
#    x 4.124140 0.000000 0.000000 
#    y 0.000000 4.015090 0.000000 
#    z 0.000000 0.000000 3.602750 
# 
# 
# High freq. dielectric constant tensor:
#      x y z
#    x 1.827450 0.000000 0.000000 
#    y 0.000000 1.791400 0.000000 
#    z 0.000000 0.000000 1.781490 
# 
# From -- ./inp_files/36504.got.cif
#   From: 2010.03.12/outbox.cif.g09.slc.cpg/sg67_19_cif.got.tgz:36504.got - 2010.04.10 22:41:39.
