data_PCOD8281776
_publ_section_title
;
Structure prediction by ZEFSAII (Michael W. Deem and Ramdas Pophale) SiO2 
 PCOD8281776
Probable space group: C C C A
;
_chemical_formula_sum "Si O2"
_cell_formula_units_Z 92
_cell_length_a 8.954141
_cell_length_b 18.223186
_cell_length_c 29.362703
_cell_angle_alpha 90.000000
_cell_angle_beta 90.000000
_cell_angle_gamma 90.000000
_cell_volume 4791.199659
_symmetry_space_group_name_H-M "C C C A"
_symmetry_group_IT_number 68
_space_group.IT_coordinate_system_code '2'
_symmetry_cell_setting 'orthorhombic'
loop_
_space_group_symop_operation_xyz
x,y,z
-x,1/2-y,z
x,1/2-y,1/2-z
-x,y,1/2-z
-x,-y,-z
x,1/2+y,-z
-x,1/2+y,1/2+z
x,-y,1/2+z
1/2+x,1/2+y,z
1/2-x,-y,z
1/2+x,-y,1/2-z
1/2-x,1/2+y,1/2-z
1/2-x,1/2-y,-z
1/2+x,y,-z
1/2-x,y,1/2+z
1/2+x,1/2-y,1/2+z
loop_
_atom_site_type_symbol
_atom_site_label
_atom_site_fract_x
_atom_site_fract_y
_atom_site_fract_z
Si Si1 0.700500 0.321204 0.527025
Si Si2 0.011225 0.161457 0.945075
Si Si3 0.857635 0.564905 0.364255
Si Si4 0.395538 0.648573 0.177354
Si Si5 0.926304 0.487117 0.201246
Si Si6 0.000000 0.750000 0.600622
Si Si7 0.500000 0.250000 0.750000
O O1 0.750000 0.250000 0.500000
O O2 0.842650 0.367248 0.545311
O O3 0.600961 0.364447 0.490257
O O4 0.608248 0.299206 0.570935
O O5 0.000000 0.250000 0.936945
O O6 0.088161 0.120847 0.902967
O O7 0.750000 0.500000 0.384536
O O8 0.758619 0.604512 0.325493
O O9 0.004645 0.537347 0.338494
O O10 0.538634 0.596567 0.186688
O O11 0.407894 0.692796 0.130521
O O12 0.385583 0.703674 0.219483
O O13 0.750000 0.500000 0.203807
O O14 0.000000 0.505094 0.250000
#
# Coordination Sequence:
#
# PCOD8281776 Si02
#       7
#    16  16  16  16  16   8   4
#     4  10  18  33  56  86 120 163 197 247 301 366
#     4  10  20  36  60  88 122 156 209 248 308 353
#     4  10  23  42  61  88 124 164 201 255 301 368
#     4  10  21  37  63  87 125 154 200 248 301 361
#     4  11  23  42  65  85 116 163 206 241 299 368
#     4  11  20  33  62  94 122 160 197 248 313 354
#     4  10  20  36  64  94 120 152 196 240 314 356
#
# _framework density 19.201871000000001
#
# number of rings (size 3 to 8) (size 9 to 14) (size 15 to 20)
#    0.000    1.739    3.478    3.652    2.435    0.000 
#    0.000    0.870    0.000    1.043    0.000    0.000 
#    0.000    0.000    0.000    0.000    0.000    0.000 
#
# Total GULP energy -570092.586969 kJ/mol
# GULP energy per Si atom -12393.317108 kJ/mol
# Density = 1.915817 g / cm^3
# Si number density = 19.201871 Si / 1000 Ang^3
#
#
#
# Elastic Constant Matrix: (Units=GPa)
#
#
# Indices 1 2 3 4 5 6 
#
# 1 153.1615 41.2200 59.0622 0.0000 0.0000 0.0000
# 2 41.2200 81.5768 50.2725 0.0000 0.0000 0.0000
# 3 59.0622 50.2725 133.1643 0.0000 0.0000 0.0000
# 4 0.0000 0.0000 0.0000 -6.8788 0.0000 0.0000
# 5 0.0000 0.0000 0.0000 0.0000 23.4378 0.0000
# 6 0.0000 0.0000 0.0000 0.0000 0.0000 19.3202
#
#
#
# Elastic Compliance Matrix: (Units=1/GPa)
#
#
# Indices 1 2 3 4 5 6 
#
# 1 0.008248 -0.002493 -0.002717 0.000000 0.000000 0.000000
# 2 -0.002493 0.016729 -0.005210 0.000000 0.000000 0.000000
# 3 -0.002717 -0.005210 0.010681 0.000000 0.000000 0.000000
# 4 0.000000 0.000000 0.000000 -0.145375 0.000000 0.000000
# 5 0.000000 0.000000 0.000000 0.000000 0.042666 0.000000
# 6 0.000000 0.000000 0.000000 0.000000 0.000000 0.051759
#
#
# Mechanical properties :
#
#
# Convention : Reuss Voigt Hill
#
# Bulk Modulus (GPa) = 67.48426 74.33465 70.90946
# Shear Modulus (GPa) = 476.79126 21.66572 249.22849
#
# Velocity S-wave (km/s) = 15.77478 3.36268 11.40507
# Velocity P-wave (km/s) = 19.15757 7.33983 14.50664
#
# Compressibility (1/GPa) = 0.01481827
#
# Stress axis : x y z
#
# Youngs Moduli (GPa) = 121.24559 59.77760 93.62174
#
# Poissons Ratio (x) = 0.14904 0.25436
# Poissons Ratio (y) = 0.30229 0.48774
# Poissons Ratio (z) = 0.32941 0.31142
#
# Static dielectric constant tensor:
#      x y z
#    x 3.882620 0.000000 0.000000 
#    y 0.000000 3.620190 0.000000 
#    z 0.000000 0.000000 3.580220 
# 
# 
# High freq. dielectric constant tensor:
#      x y z
#    x 1.752680 0.000000 0.000000 
#    y 0.000000 1.722990 0.000000 
#    z 0.000000 0.000000 1.759340 
# 
# From -- ./inp_files/49375.got.cif
#   From: 2010.03.12/outbox.cif.g09.slc.cpg/sg68_25_cif.got.tgz:49375.got - 2010.04.10 23:14:56.
