data_PCOD8281674
_publ_section_title
;
Structure prediction by ZEFSAII (Michael W. Deem and Ramdas Pophale) SiO2 
 PCOD8281674
Probable space group: C C C A
;
_chemical_formula_sum "Si O2"
_cell_formula_units_Z 128
_cell_length_a 18.870281
_cell_length_b 19.602141
_cell_length_c 20.893578
_cell_angle_alpha 90.000000
_cell_angle_beta 90.000000
_cell_angle_gamma 90.000000
_cell_volume 7728.490811
_symmetry_space_group_name_H-M "C C C A"
_symmetry_group_IT_number 68
_space_group.IT_coordinate_system_code '2'
_symmetry_cell_setting 'orthorhombic'
loop_
_space_group_symop_operation_xyz
x,y,z
-x,1/2-y,z
x,1/2-y,1/2-z
-x,y,1/2-z
-x,-y,-z
x,1/2+y,-z
-x,1/2+y,1/2+z
x,-y,1/2+z
1/2+x,1/2+y,z
1/2-x,-y,z
1/2+x,-y,1/2-z
1/2-x,1/2+y,1/2-z
1/2-x,1/2-y,-z
1/2+x,y,-z
1/2-x,y,1/2+z
1/2+x,1/2-y,1/2+z
loop_
_atom_site_type_symbol
_atom_site_label
_atom_site_fract_x
_atom_site_fract_y
_atom_site_fract_z
Si Si1 0.493868 0.826916 0.541476
Si Si2 0.375443 0.150362 0.368787
Si Si3 0.137666 0.014256 0.141578
Si Si4 0.947729 0.553633 0.527861
Si Si5 0.581945 0.911452 0.760215
Si Si6 0.371131 0.691235 0.864235
Si Si7 0.241627 0.096881 0.599266
Si Si8 0.701271 0.064949 0.033439
O O1 0.500000 0.750000 0.517058
O O2 0.549891 0.850743 0.594831
O O3 0.511277 0.873891 0.480016
O O4 0.415988 0.831552 0.572962
O O5 0.379752 0.102764 0.306592
O O6 0.363525 0.229008 0.350503
O O7 0.309253 0.119383 0.408962
O O8 0.068131 0.039864 0.102979
O O9 0.193501 0.077006 0.147577
O O10 0.116230 0.979962 0.208759
O O11 0.179501 0.959515 0.098087
O O12 0.876929 0.542356 0.486884
O O13 0.000000 0.500000 0.500000
O O14 0.500000 0.926035 0.750000
O O15 0.592084 0.844789 0.803907
O O16 0.290431 0.667045 0.874531
O O17 0.266094 0.106012 0.526311
O O18 0.750000 0.000000 0.053733
#
# Coordination Sequence:
#
# PCOD8281674 Si02
#       8
#    16  16  16  16  16  16  16  16
#     4   9  18  30  46  78 109 131 163 213 265 312
#     4  10  21  32  47  75 106 138 164 210 262 313
#     4   9  18  31  50  73  97 132 179 208 249 298
#     4  10  17  28  53  74  98 134 176 213 253 305
#     4  11  20  32  51  72 104 135 171 212 262 311
#     4  10  19  32  52  72 102 141 175 201 254 318
#     4   9  16  33  52  69  95 132 172 207 246 307
#     4  10  19  34  49  71 109 132 162 215 270 300
#
# _framework density 16.562094999999999
#
# number of rings (size 3 to 8) (size 9 to 14) (size 15 to 20)
#    0.000    2.250    3.750    1.875    1.750    1.000 
#    4.500    0.000    0.000    0.000    0.000    0.000 
#    0.000    0.000    0.000    0.000    0.000    0.000 
#
# Total GULP energy -793010.405477 kJ/mol
# GULP energy per Si atom -12390.787586 kJ/mol
# Density = 1.652440 g / cm^3
# Si number density = 16.562095 Si / 1000 Ang^3
#
#
#
# Elastic Constant Matrix: (Units=GPa)
#
#
# Indices 1 2 3 4 5 6 
#
# 1 81.7341 43.3528 37.6932 0.0000 0.0000 0.0000
# 2 43.3528 83.5518 46.0726 0.0000 0.0000 0.0000
# 3 37.6932 46.0726 82.0000 0.0000 0.0000 0.0000
# 4 0.0000 0.0000 0.0000 24.9792 0.0000 0.0000
# 5 0.0000 0.0000 0.0000 0.0000 23.0849 0.0000
# 6 0.0000 0.0000 0.0000 0.0000 0.0000 26.3064
#
#
#
# Elastic Compliance Matrix: (Units=1/GPa)
#
#
# Indices 1 2 3 4 5 6 
#
# 1 0.017895 -0.006881 -0.004360 0.000000 0.000000 0.000000
# 2 -0.006881 0.019988 -0.008067 0.000000 0.000000 0.000000
# 3 -0.004360 -0.008067 0.018732 0.000000 0.000000 0.000000
# 4 0.000000 0.000000 0.000000 0.040033 0.000000 0.000000
# 5 0.000000 0.000000 0.000000 0.000000 0.043318 0.000000
# 6 0.000000 0.000000 0.000000 0.000000 0.000000 0.038014
#
#
# Mechanical properties :
#
#
# Convention : Reuss Voigt Hill
#
# Bulk Modulus (GPa) = 55.56033 55.72480 55.64256
# Shear Modulus (GPa) = 22.46231 22.88527 22.67379
#
# Velocity S-wave (km/s) = 3.68672 3.72127 3.70404
# Velocity P-wave (km/s) = 7.19320 7.22377 7.20850
#
# Compressibility (1/GPa) = 0.01799845
#
# Stress axis : x y z
#
# Youngs Moduli (GPa) = 55.88063 50.03120 53.38557
#
# Poissons Ratio (x) = 0.34428 0.23274
# Poissons Ratio (y) = 0.38454 0.43066
# Poissons Ratio (z) = 0.24362 0.40360
#
# Static dielectric constant tensor:
#      x y z
#    x 3.192170 0.000000 0.000000 
#    y 0.000000 2.715200 0.000000 
#    z 0.000000 0.000000 2.952550 
# 
# 
# High freq. dielectric constant tensor:
#      x y z
#    x 1.637050 0.000000 0.000000 
#    y 0.000000 1.628750 0.000000 
#    z 0.000000 0.000000 1.612910 
# 
# From -- ./inp_files/39866.got.cif
#   From: 2010.03.12/outbox.cif.g09.slc.cpg/sg68_20_cif.got.tgz:39866.got - 2010.04.10 23:14:56.
