data_PCOD8281205
_publ_section_title
;
Structure prediction by ZEFSAII (Michael W. Deem and Ramdas Pophale) SiO2 
 PCOD8281205
Probable space group: C M M A
;
_chemical_formula_sum "Si O2"
_cell_formula_units_Z 112
_cell_length_a 21.522428
_cell_length_b 22.229723
_cell_length_c 11.934277
_cell_angle_alpha 90.000000
_cell_angle_beta 90.000000
_cell_angle_gamma 90.000000
_cell_volume 5709.806998
_symmetry_space_group_name_H-M "C M M A"
_symmetry_group_IT_number 67
_symmetry_cell_setting 'orthorhombic'
loop_
_space_group_symop_operation_xyz
x,y,z
-x,1/2-y,z
x,-y,-z
-x,1/2+y,-z
-x,-y,-z
x,1/2+y,-z
-x,y,z
x,1/2-y,z
1/2+x,1/2+y,z
1/2-x,-y,z
1/2+x,1/2-y,-z
1/2-x,y,-z
1/2-x,1/2-y,-z
1/2+x,y,-z
1/2-x,1/2+y,z
1/2+x,-y,z
loop_
_atom_site_type_symbol
_atom_site_label
_atom_site_fract_x
_atom_site_fract_y
_atom_site_fract_z
Si Si1 0.321461 0.820490 0.466824
Si Si2 0.737957 0.817602 0.878585
Si Si3 0.352543 0.865511 0.232136
Si Si4 0.877971 0.615926 0.162951
Si Si5 0.069166 0.681049 0.360631
Si Si6 0.428205 0.181709 0.951725
Si Si7 0.820900 0.993702 0.867002
O O1 0.323509 0.750000 0.435537
O O2 0.250000 0.838345 0.500000
O O3 0.348333 0.861498 0.366046
O O4 0.372209 0.835680 0.561876
O O5 0.713953 0.750000 0.894235
O O6 0.800612 0.819277 0.809793
O O7 0.688084 0.854296 0.807318
O O8 0.750000 0.848215 0.000000
O O9 0.415570 0.839354 0.176590
O O10 0.345116 0.932472 0.186065
O O11 0.928947 0.639155 0.250550
O O12 0.868132 0.544774 0.177790
O O13 0.893888 0.636332 0.036465
O O14 0.075572 0.750000 0.321991
O O15 0.000000 0.670967 0.415540
O O16 0.500000 0.177031 0.976251
O O17 0.404567 0.250000 0.971042
O O18 0.750000 0.000000 0.825459
O O19 0.823662 0.000000 0.000000
#
# Coordination Sequence:
#
# PCOD8281205 Si02
#       7
#    16  16  16  16  16  16  16
#     4  10  22  40  64  95 127 161 212 275 326 376
#     4  11  19  29  53  88 120 148 188 248 316 377
#     4  12  22  39  60  88 123 163 205 247 315 374
#     4  12  21  37  60  88 125 165 205 254 310 375
#     4  10  22  41  66  94 126 167 211 261 325 386
#     4  11  23  37  57  89 124 158 202 257 314 379
#     4  11  22  39  59  90 128 167 202 250 309 374
#
# _framework density 19.615373999999999
#
# number of rings (size 3 to 8) (size 9 to 14) (size 15 to 20)
#    0.000    1.000    4.286    3.857    0.000    2.857 
#    0.000    4.286    0.000    0.857    0.000    0.000 
#    0.000    0.000    0.000    0.000    0.000    0.000 
#
# Total GULP energy -694086.643353 kJ/mol
# GULP energy per Si atom -12394.404346 kJ/mol
# Density = 1.957073 g / cm^3
# Si number density = 19.615374 Si / 1000 Ang^3
#
#
#
# Elastic Constant Matrix: (Units=GPa)
#
#
# Indices 1 2 3 4 5 6 
#
# 1 95.3898 39.6019 34.5213 0.0000 0.0000 0.0000
# 2 39.6019 101.3319 36.4277 0.0000 0.0000 0.0000
# 3 34.5213 36.4277 96.7070 0.0000 0.0000 0.0000
# 4 0.0000 0.0000 0.0000 17.4305 0.0000 0.0000
# 5 0.0000 0.0000 0.0000 0.0000 28.2559 0.0000
# 6 0.0000 0.0000 0.0000 0.0000 0.0000 16.5477
#
#
#
# Elastic Compliance Matrix: (Units=1/GPa)
#
#
# Indices 1 2 3 4 5 6 
#
# 1 0.013335 -0.004048 -0.003235 0.000000 0.000000 0.000000
# 2 -0.004048 0.012643 -0.003317 0.000000 0.000000 0.000000
# 3 -0.003235 -0.003317 0.012745 0.000000 0.000000 0.000000
# 4 0.000000 0.000000 0.000000 0.057371 0.000000 0.000000
# 5 0.000000 0.000000 0.000000 0.000000 0.035391 0.000000
# 6 0.000000 0.000000 0.000000 0.000000 0.000000 0.060431
#
#
# Mechanical properties :
#
#
# Convention : Reuss Voigt Hill
#
# Bulk Modulus (GPa) = 57.07357 57.17005 57.12181
# Shear Modulus (GPa) = 22.83541 24.63867 23.73704
#
# Velocity S-wave (km/s) = 3.41568 3.54798 3.48246
# Velocity P-wave (km/s) = 6.68695 6.78182 6.73455
#
# Compressibility (1/GPa) = 0.01752125
#
# Stress axis : x y z
#
# Youngs Moduli (GPa) = 74.99153 79.09335 78.46262
#
# Poissons Ratio (x) = 0.32021 0.25384
# Poissons Ratio (y) = 0.30360 0.26029
# Poissons Ratio (z) = 0.24261 0.26238
#
# Static dielectric constant tensor:
#      x y z
#    x 3.696900 0.000000 0.000000 
#    y 0.000000 3.457110 0.000000 
#    z 0.000000 0.000000 3.713330 
# 
# 
# High freq. dielectric constant tensor:
#      x y z
#    x 1.767990 0.000000 0.000000 
#    y 0.000000 1.751090 0.000000 
#    z 0.000000 0.000000 1.745640 
# 
# From -- ./inp_files/22170.got.cif
#   From: 2010.03.12/outbox.cif.g09.slc.cpg/sg67_12_cif.got.tgz:22170.got - 2010.04.10 22:41:39.
