data_PCOD8281790
_publ_section_title
;
Structure prediction by ZEFSAII (Michael W. Deem and Ramdas Pophale) SiO2 
 PCOD8281790
Probable space group: C C C A
;
_chemical_formula_sum "Si O2"
_cell_formula_units_Z 72
_cell_length_a 17.350447
_cell_length_b 14.347298
_cell_length_c 15.292660
_cell_angle_alpha 90.000000
_cell_angle_beta 90.000000
_cell_angle_gamma 90.000000
_cell_volume 3806.832952
_symmetry_space_group_name_H-M "C C C A"
_symmetry_group_IT_number 68
_space_group.IT_coordinate_system_code '2'
_symmetry_cell_setting 'orthorhombic'
loop_
_space_group_symop_operation_xyz
x,y,z
-x,1/2-y,z
x,1/2-y,1/2-z
-x,y,1/2-z
-x,-y,-z
x,1/2+y,-z
-x,1/2+y,1/2+z
x,-y,1/2+z
1/2+x,1/2+y,z
1/2-x,-y,z
1/2+x,-y,1/2-z
1/2-x,1/2+y,1/2-z
1/2-x,1/2-y,-z
1/2+x,y,-z
1/2-x,y,1/2+z
1/2+x,1/2-y,1/2+z
loop_
_atom_site_type_symbol
_atom_site_label
_atom_site_fract_x
_atom_site_fract_y
_atom_site_fract_z
Si Si1 0.944696 0.470285 0.826920
Si Si2 0.155589 0.651054 0.276584
Si Si3 0.802922 0.250000 0.250000
Si Si4 0.456751 0.156292 0.072902
Si Si5 0.931381 0.319474 0.371854
O O1 0.862221 0.426760 0.798384
O O2 0.943583 0.580989 0.827617
O O3 0.000000 0.433753 0.750000
O O4 0.979179 0.426555 0.916805
O O5 0.117887 0.750000 0.250000
O O6 0.248879 0.662590 0.279852
O O7 0.119179 0.628418 0.371335
O O8 0.853094 0.275610 0.334781
O O9 0.500000 0.250000 0.103124
O O10 0.425723 0.166334 0.975026
O O11 0.000000 0.250000 0.345320
#
# Coordination Sequence:
#
# PCOD8281790 Si02
#       5
#    16  16   8  16  16
#     4  10  19  34  61  83 111 147 193 235 281 339
#     4   9  19  35  58  83 106 145 192 237 283 329
#     4  10  21  38  53  76 118 154 184 224 285 350
#     4  10  18  34  59  87 111 140 193 251 278 330
#     4  11  23  36  55  82 119 154 187 228 292 345
#
# _framework density 18.913360000000001
#
# number of rings (size 3 to 8) (size 9 to 14) (size 15 to 20)
#    0.667    1.333    2.222    2.333    0.000    1.778 
#    0.000    0.000    0.000    8.000    0.000    0.000 
#    0.000    0.000    0.000    0.000    0.000    0.000 
#
# Total GULP energy -446075.125248 kJ/mol
# GULP energy per Si atom -12390.975701 kJ/mol
# Density = 1.887031 g / cm^3
# Si number density = 18.913360 Si / 1000 Ang^3
#
#
#
# Elastic Constant Matrix: (Units=GPa)
#
#
# Indices 1 2 3 4 5 6 
#
# 1 136.9899 50.6661 65.4913 0.0000 0.0000 0.0000
# 2 50.6661 125.4244 34.1615 0.0000 0.0000 0.0000
# 3 65.4913 34.1615 109.2650 0.0000 0.0000 0.0000
# 4 0.0000 0.0000 0.0000 25.7703 0.0000 0.0000
# 5 0.0000 0.0000 0.0000 0.0000 24.4855 0.0000
# 6 0.0000 0.0000 0.0000 0.0000 0.0000 22.1462
#
#
#
# Elastic Compliance Matrix: (Units=1/GPa)
#
#
# Indices 1 2 3 4 5 6 
#
# 1 0.011137 -0.002930 -0.005759 0.000000 0.000000 0.000000
# 2 -0.002930 0.009486 -0.001209 0.000000 0.000000 0.000000
# 3 -0.005759 -0.001209 0.012982 0.000000 0.000000 0.000000
# 4 0.000000 0.000000 0.000000 0.038804 0.000000 0.000000
# 5 0.000000 0.000000 0.000000 0.000000 0.040841 0.000000
# 6 0.000000 0.000000 0.000000 0.000000 0.000000 0.045155
#
#
# Mechanical properties :
#
#
# Convention : Reuss Voigt Hill
#
# Bulk Modulus (GPa) = 72.42487 74.70189 73.56338
# Shear Modulus (GPa) = 27.35165 29.23775 28.29470
#
# Velocity S-wave (km/s) = 3.80696 3.93603 3.87203
# Velocity P-wave (km/s) = 7.59605 7.76138 7.67916
#
# Compressibility (1/GPa) = 0.01380741
#
# Stress axis : x y z
#
# Youngs Moduli (GPa) = 89.79226 105.41815 77.02933
#
# Poissons Ratio (x) = 0.30890 0.44362
# Poissons Ratio (y) = 0.26311 0.09316
# Poissons Ratio (z) = 0.51712 0.12750
#
# Static dielectric constant tensor:
#      x y z
#    x 3.290890 0.000000 0.000000 
#    y 0.000000 3.404120 0.000000 
#    z 0.000000 0.000000 3.292440 
# 
# 
# High freq. dielectric constant tensor:
#      x y z
#    x 1.718490 0.000000 0.000000 
#    y 0.000000 1.735240 0.000000 
#    z 0.000000 0.000000 1.728200 
# 
# From -- ./inp_files/23363.got.cif
#   From: 2010.03.12/outbox.cif.g09.slc.cpg/sg68_12_cif.got.tgz:23363.got - 2010.04.10 23:14:56.
