data_PCOD8281132
_publ_section_title
;
Structure prediction by ZEFSAII (Michael W. Deem and Ramdas Pophale) SiO2 
 PCOD8281132
Probable space group: C M M A
;
_chemical_formula_sum "Si O2"
_cell_formula_units_Z 72
_cell_length_a 27.305637
_cell_length_b 9.858644
_cell_length_c 13.426757
_cell_angle_alpha 90.000000
_cell_angle_beta 90.000000
_cell_angle_gamma 90.000000
_cell_volume 3614.436721
_symmetry_space_group_name_H-M "C M M A"
_symmetry_group_IT_number 67
_symmetry_cell_setting 'orthorhombic'
loop_
_space_group_symop_operation_xyz
x,y,z
-x,1/2-y,z
x,-y,-z
-x,1/2+y,-z
-x,-y,-z
x,1/2+y,-z
-x,y,z
x,1/2-y,z
1/2+x,1/2+y,z
1/2-x,-y,z
1/2+x,1/2-y,-z
1/2-x,y,-z
1/2-x,1/2-y,-z
1/2+x,y,-z
1/2-x,1/2+y,z
1/2+x,-y,z
loop_
_atom_site_type_symbol
_atom_site_label
_atom_site_fract_x
_atom_site_fract_y
_atom_site_fract_z
Si Si1 0.500000 0.600233 0.589103
Si Si2 0.795831 0.750000 0.864024
Si Si3 0.393229 0.406390 0.402876
Si Si4 0.817409 0.250000 0.907882
Si Si5 0.145170 0.494972 0.205199
Si Si6 0.055034 0.404428 0.091342
O O1 0.500000 0.750000 0.542028
O O2 0.500000 0.500000 0.500000
O O3 0.448244 0.579877 0.646457
O O4 0.737768 0.750000 0.868872
O O5 0.812266 0.616254 0.804971
O O6 0.820351 0.750000 0.972933
O O7 0.386886 0.500000 0.500000
O O8 0.382426 0.250000 0.432289
O O9 0.355022 0.453774 0.319004
O O10 0.844969 0.117714 0.869719
O O11 0.092619 0.429373 0.180858
O O12 0.059307 0.250000 0.053815
O O13 0.000000 0.435467 0.130311
O O14 0.068993 0.500000 0.000000
#
# Coordination Sequence:
#
# PCOD8281132 Si02
#       6
#     8   8  16   8  16  16
#     4   8  16  34  56  84 117 157 206 254 301 349
#     4  11  24  42  68  94 123 164 206 268 319 371
#     4  10  22  39  62  89 124 165 212 263 309 368
#     4  11  24  44  66  94 125 158 214 264 319 375
#     4  12  23  39  64  95 124 165 208 259 316 379
#     4  10  22  38  57  87 128 172 212 249 300 375
#
# _framework density 19.920114999999999
#
# number of rings (size 3 to 8) (size 9 to 14) (size 15 to 20)
#    0.000    1.556    2.222    2.667    4.667    1.778 
#    0.000    0.000    0.000    4.000    0.000    0.000 
#    0.000    0.000    0.000    0.000    0.000    0.000 
#
# Total GULP energy -446307.820135 kJ/mol
# GULP energy per Si atom -12397.439448 kJ/mol
# Density = 1.987478 g / cm^3
# Si number density = 19.920115 Si / 1000 Ang^3
#
#
#
# Elastic Constant Matrix: (Units=GPa)
#
#
# Indices 1 2 3 4 5 6 
#
# 1 69.4493 32.3098 34.6618 0.0000 0.0000 0.0000
# 2 32.3098 136.5587 44.5808 0.0000 0.0000 0.0000
# 3 34.6618 44.5808 86.2986 0.0000 0.0000 0.0000
# 4 0.0000 0.0000 0.0000 38.0218 0.0000 0.0000
# 5 0.0000 0.0000 0.0000 0.0000 23.5901 0.0000
# 6 0.0000 0.0000 0.0000 0.0000 0.0000 35.0588
#
#
#
# Elastic Compliance Matrix: (Units=1/GPa)
#
#
# Indices 1 2 3 4 5 6 
#
# 1 0.018622 -0.002363 -0.006259 0.000000 0.000000 0.000000
# 2 -0.002363 0.009108 -0.003756 0.000000 0.000000 0.000000
# 3 -0.006259 -0.003756 0.016042 0.000000 0.000000 0.000000
# 4 0.000000 0.000000 0.000000 0.026301 0.000000 0.000000
# 5 0.000000 0.000000 0.000000 0.000000 0.042391 0.000000
# 6 0.000000 0.000000 0.000000 0.000000 0.000000 0.028523
#
#
# Mechanical properties :
#
#
# Convention : Reuss Voigt Hill
#
# Bulk Modulus (GPa) = 52.58608 57.26792 54.92700
# Shear Modulus (GPa) = 29.05602 31.38442 30.22022
#
# Velocity S-wave (km/s) = 3.82334 3.97358 3.89918
# Velocity P-wave (km/s) = 6.77837 7.06142 6.92134
#
# Compressibility (1/GPa) = 0.01901644
#
# Stress axis : x y z
#
# Youngs Moduli (GPa) = 53.69989 109.79236 62.33638
#
# Poissons Ratio (x) = 0.25940 0.39016
# Poissons Ratio (y) = 0.12687 0.23415
# Poissons Ratio (z) = 0.33611 0.41240
#
# Static dielectric constant tensor:
#      x y z
#    x 3.909980 0.000000 0.000000 
#    y 0.000000 3.719510 0.000000 
#    z 0.000000 0.000000 3.240150 
# 
# 
# High freq. dielectric constant tensor:
#      x y z
#    x 1.778380 0.000000 0.000000 
#    y 0.000000 1.800310 0.000000 
#    z 0.000000 0.000000 1.741780 
# 
# From -- ./inp_files/25112.got.cif
#   From: 2010.03.12/outbox.cif.g09.slc.cpg/sg67_13_cif.got.tgz:25112.got - 2010.04.10 22:41:39.
