data_PCOD8281495
_publ_section_title
;
Structure prediction by ZEFSAII (Michael W. Deem and Ramdas Pophale) SiO2 
 PCOD8281495
Probable space group: C M M A
;
_chemical_formula_sum "Si O2"
_cell_formula_units_Z 112
_cell_length_a 15.337255
_cell_length_b 15.729342
_cell_length_c 23.178605
_cell_angle_alpha 90.000000
_cell_angle_beta 90.000000
_cell_angle_gamma 90.000000
_cell_volume 5591.720923
_symmetry_space_group_name_H-M "C M M A"
_symmetry_group_IT_number 67
_symmetry_cell_setting 'orthorhombic'
loop_
_space_group_symop_operation_xyz
x,y,z
-x,1/2-y,z
x,-y,-z
-x,1/2+y,-z
-x,-y,-z
x,1/2+y,-z
-x,y,z
x,1/2-y,z
1/2+x,1/2+y,z
1/2-x,-y,z
1/2+x,1/2-y,-z
1/2-x,y,-z
1/2-x,1/2-y,-z
1/2+x,y,-z
1/2-x,1/2+y,z
1/2+x,-y,z
loop_
_atom_site_type_symbol
_atom_site_label
_atom_site_fract_x
_atom_site_fract_y
_atom_site_fract_z
Si Si1 0.900146 0.151433 0.062355
Si Si2 0.249087 0.898674 0.726587
Si Si3 0.901913 0.654200 0.643736
Si Si4 0.647927 0.499742 0.433175
Si Si5 0.247560 0.096689 0.145916
Si Si6 0.901713 0.346015 0.645266
Si Si7 0.903812 0.649644 0.065571
O O1 0.877837 0.250000 0.063177
O O2 0.839446 0.108900 0.109415
O O3 0.000000 0.133412 0.079325
O O4 0.880200 0.114145 0.998358
O O5 0.163199 0.864254 0.695735
O O6 0.245643 0.859052 0.791375
O O7 0.336809 0.863970 0.697719
O O8 0.250000 0.000000 0.722758
O O9 0.884776 0.750000 0.619718
O O10 0.891220 0.586027 0.592819
O O11 0.000000 0.646883 0.668314
O O12 0.623650 0.500000 0.500000
O O13 0.750000 0.500000 0.421071
O O14 0.609707 0.413695 0.406031
O O15 0.333269 0.122933 0.111693
O O16 0.250000 0.000000 0.162160
O O17 0.885113 0.250000 0.621498
O O18 0.000000 0.354162 0.669507
O O19 0.907386 0.750000 0.060596
O O20 0.000000 0.615528 0.083844
#
# Coordination Sequence:
#
# PCOD8281495 Si02
#       7
#    16  16  16  16  16  16  16
#     4   9  19  37  59  82 112 152 196 242 295 355
#     4  11  23  42  60  81 119 162 202 249 305 360
#     4  11  23  40  65  92 120 161 207 249 300 359
#     4  11  23  41  67  96 129 165 198 245 302 352
#     4  11  24  36  55  86 118 152 193 242 298 357
#     4  11  23  40  65  92 120 161 207 249 300 359
#     4   9  19  37  59  82 112 152 196 242 295 355
#
# _framework density 20.029613000000001
#
# number of rings (size 3 to 8) (size 9 to 14) (size 15 to 20)
#    0.000    1.571    2.857    2.571    0.000    8.000 
#    0.000   10.000    0.000    0.000    0.000    0.000 
#    0.000    0.000    0.000    0.000    0.000    0.000 
#
# Total GULP energy -694247.768831 kJ/mol
# GULP energy per Si atom -12397.281586 kJ/mol
# Density = 1.998402 g / cm^3
# Si number density = 20.029613 Si / 1000 Ang^3
#
#
#
# Elastic Constant Matrix: (Units=GPa)
#
#
# Indices 1 2 3 4 5 6 
#
# 1 119.6056 36.6678 66.3142 0.0000 0.0000 0.0000
# 2 36.6678 113.2970 49.7342 0.0000 0.0000 0.0000
# 3 66.3142 49.7342 138.9395 0.0000 0.0000 0.0000
# 4 0.0000 0.0000 0.0000 1.0697 0.0000 0.0000
# 5 0.0000 0.0000 0.0000 0.0000 -0.9758 0.0000
# 6 0.0000 0.0000 0.0000 0.0000 0.0000 65.3568
#
#
#
# Elastic Compliance Matrix: (Units=1/GPa)
#
#
# Indices 1 2 3 4 5 6 
#
# 1 0.011600 -0.001571 -0.004974 0.000000 0.000000 0.000000
# 2 -0.001571 0.010685 -0.003075 0.000000 0.000000 0.000000
# 3 -0.004974 -0.003075 0.010672 0.000000 0.000000 0.000000
# 4 0.000000 0.000000 0.000000 0.934842 0.000000 0.000000
# 5 0.000000 0.000000 0.000000 0.000000 -1.024790 0.000000
# 6 0.000000 0.000000 0.000000 0.000000 0.000000 0.015301
#
#
# Mechanical properties :
#
#
# Convention : Reuss Voigt Hill
#
# Bulk Modulus (GPa) = 72.90213 75.25271 74.07742
# Shear Modulus (GPa) = -279.67413 27.69852 -125.98781
#
# Velocity S-wave (km/s) = -11.82935 3.72274 -7.93960
# Velocity P-wave (km/s) = 12.25160 7.49204 6.85460
#
# Compressibility (1/GPa) = 0.01371702
#
# Stress axis : x y z
#
# Youngs Moduli (GPa) = 86.20373 93.59346 93.70031
#
# Poissons Ratio (x) = 0.14701 0.46611
# Poissons Ratio (y) = 0.13540 0.28812
# Poissons Ratio (z) = 0.42882 0.28779
#
# Static dielectric constant tensor:
#      x y z
#    x 3.756750 0.000000 0.000000 
#    y 0.000000 3.783910 0.000000 
#    z 0.000000 0.000000 3.820570 
# 
# 
# High freq. dielectric constant tensor:
#      x y z
#    x 1.798480 0.000000 0.000000 
#    y 0.000000 1.788020 0.000000 
#    z 0.000000 0.000000 1.771910 
# 
# From -- ./inp_files/41971.got.cif
#   From: 2010.03.12/outbox.cif.g09.slc.cpg/sg67_21_cif.got.tgz:41971.got - 2010.04.10 22:41:39.
