data_PCOD8281204
_publ_section_title
;
Structure prediction by ZEFSAII (Michael W. Deem and Ramdas Pophale) SiO2 
 PCOD8281204
Probable space group: C M M A
;
_chemical_formula_sum "Si O2"
_cell_formula_units_Z 88
_cell_length_a 14.885569
_cell_length_b 14.065447
_cell_length_c 21.871215
_cell_angle_alpha 90.000000
_cell_angle_beta 90.000000
_cell_angle_gamma 90.000000
_cell_volume 4579.224004
_symmetry_space_group_name_H-M "C M M A"
_symmetry_group_IT_number 67
_symmetry_cell_setting 'orthorhombic'
loop_
_space_group_symop_operation_xyz
x,y,z
-x,1/2-y,z
x,-y,-z
-x,1/2+y,-z
-x,-y,-z
x,1/2+y,-z
-x,y,z
x,1/2-y,z
1/2+x,1/2+y,z
1/2-x,-y,z
1/2+x,1/2-y,-z
1/2-x,y,-z
1/2-x,1/2-y,-z
1/2+x,y,-z
1/2-x,1/2+y,z
1/2+x,-y,z
loop_
_atom_site_type_symbol
_atom_site_label
_atom_site_fract_x
_atom_site_fract_y
_atom_site_fract_z
Si Si1 0.395034 1.000000 0.572379
Si Si2 0.644789 0.358487 0.066949
Si Si3 0.750001 0.135037 0.373300
Si Si4 0.595442 0.500001 0.833027
Si Si5 0.144790 0.358487 0.066951
Si Si6 0.750000 0.500000 0.263829
O O1 0.500000 0.999999 0.595400
O O2 0.340916 0.094006 0.595026
O O3 0.393968 0.000000 0.500000
O O4 0.340915 0.905995 0.595027
O O5 0.617171 0.250000 0.072257
O O6 0.598622 0.409412 0.123133
O O7 0.749999 0.374481 0.073666
O O8 0.614046 0.397002 0.999999
O O9 0.750000 0.250000 0.375446
O O10 0.750003 0.096342 0.303865
O O11 0.500000 0.500001 0.799226
O O12 0.598625 0.409412 0.876865
O O13 0.664412 0.500004 0.778651
O O14 0.117172 0.250000 0.072259
#
# Coordination Sequence:
#
# PCOD8281204 Si02
#       6
#    16  16  16  16  16   8
#     4   9  19  37  63  99 137 162 188 236 291 342
#     4   9  18  34  56  79 105 136 170 219 287 358
#     4  10  22  40  63  87 118 167 212 244 283 337
#     4  12  23  36  57  79 102 141 184 230 289 346
#     4   9  18  34  56  79 105 136 170 219 287 358
#     4  10  24  42  54  76 112 152 198 256 284 324
#
# _framework density 19.217229
#
# number of rings (size 3 to 8) (size 9 to 14) (size 15 to 20)
#    0.000    2.364    1.818    2.727    0.000   10.182 
#    0.000    3.636    0.000    0.000    0.000    0.000 
#    0.000    0.000    0.000    0.000    0.000    0.000 
#
# Total GULP energy -545146.914099 kJ/mol
# GULP energy per Si atom -12389.702593 kJ/mol
# Density = 1.917349 g / cm^3
# Si number density = 19.217229 Si / 1000 Ang^3
#
#
#
# Elastic Constant Matrix: (Units=GPa)
#
#
# Indices 1 2 3 4 5 6 
#
# 1 157.4199 51.3151 68.4107 0.0000 0.0000 0.0000
# 2 51.3151 142.5467 46.2724 0.0000 0.0000 0.0000
# 3 68.4107 46.2724 127.0238 0.0000 0.0000 0.0000
# 4 0.0000 0.0000 0.0000 20.3791 0.0000 0.0000
# 5 0.0000 0.0000 0.0000 0.0000 65.4141 0.0000
# 6 0.0000 0.0000 0.0000 0.0000 0.0000 19.8003
#
#
#
# Elastic Compliance Matrix: (Units=1/GPa)
#
#
# Indices 1 2 3 4 5 6 
#
# 1 0.008693 -0.001826 -0.004017 0.000000 0.000000 0.000000
# 2 -0.001826 0.008339 -0.002055 0.000000 0.000000 0.000000
# 3 -0.004017 -0.002055 0.010784 0.000000 0.000000 0.000000
# 4 0.000000 0.000000 0.000000 0.049070 0.000000 0.000000
# 5 0.000000 0.000000 0.000000 0.000000 0.015287 0.000000
# 6 0.000000 0.000000 0.000000 0.000000 0.000000 0.050504
#
#
# Mechanical properties :
#
#
# Convention : Reuss Voigt Hill
#
# Bulk Modulus (GPa) = 83.17555 84.33185 83.75370
# Shear Modulus (GPa) = 30.77303 38.51819 34.64561
#
# Velocity S-wave (km/s) = 4.00600 4.48186 4.25059
# Velocity P-wave (km/s) = 8.04817 8.41199 8.23209
#
# Compressibility (1/GPa) = 0.01202276
#
# Stress axis : x y z
#
# Youngs Moduli (GPa) = 115.03362 119.91273 92.72690
#
# Poissons Ratio (x) = 0.21890 0.37247
# Poissons Ratio (y) = 0.20999 0.19053
# Poissons Ratio (z) = 0.46207 0.24639
#
# Static dielectric constant tensor:
#      x y z
#    x 3.713320 0.000000 0.000000 
#    y 0.000000 3.613020 0.000000 
#    z 0.000000 0.000000 3.466570 
# 
# 
# High freq. dielectric constant tensor:
#      x y z
#    x 1.755650 0.000000 0.000000 
#    y 0.000000 1.742370 0.000000 
#    z 0.000000 0.000000 1.743280 
# 
# From -- ./inp_files/38319.got.cif
#   From: 2010.03.12/outbox.cif.g09.slc.cpg/sg67_20_cif.got.tgz:38319.got - 2010.04.10 22:41:39.
