data_PCOD8281935
_publ_section_title
;
Structure prediction by ZEFSAII (Michael W. Deem and Ramdas Pophale) SiO2 
 PCOD8281935
Probable space group: C C C A
;
_chemical_formula_sum "Si O2"
_cell_formula_units_Z 72
_cell_length_a 10.544557
_cell_length_b 15.891838
_cell_length_c 18.789212
_cell_angle_alpha 90.000000
_cell_angle_beta 90.000000
_cell_angle_gamma 90.000000
_cell_volume 3148.553192
_symmetry_space_group_name_H-M "C C C A"
_symmetry_group_IT_number 68
_space_group.IT_coordinate_system_code '2'
_symmetry_cell_setting 'orthorhombic'
loop_
_space_group_symop_operation_xyz
x,y,z
-x,1/2-y,z
x,1/2-y,1/2-z
-x,y,1/2-z
-x,-y,-z
x,1/2+y,-z
-x,1/2+y,1/2+z
x,-y,1/2+z
1/2+x,1/2+y,z
1/2-x,-y,z
1/2+x,-y,1/2-z
1/2-x,1/2+y,1/2-z
1/2-x,1/2-y,-z
1/2+x,y,-z
1/2-x,y,1/2+z
1/2+x,1/2-y,1/2+z
loop_
_atom_site_type_symbol
_atom_site_label
_atom_site_fract_x
_atom_site_fract_y
_atom_site_fract_z
Si Si1 0.000000 0.410563 0.750000
Si Si2 0.266206 0.840953 0.276010
Si Si3 0.878482 0.541756 0.661254
Si Si4 0.483363 0.904576 0.020043
Si Si5 0.745987 0.101563 0.566003
O O1 0.118924 0.350605 0.741195
O O2 0.019773 0.468783 0.820145
O O3 0.312567 0.750000 0.250000
O O4 0.350227 0.909235 0.234473
O O5 0.283077 0.854330 0.359469
O O6 0.750000 0.500000 0.630636
O O7 0.933715 0.602946 0.601276
O O8 0.626518 0.867049 0.016524
O O9 0.378089 0.863090 0.967739
O O10 0.500000 0.000000 0.000000
O O11 0.750000 0.000000 0.573441
#
# Coordination Sequence:
#
# PCOD8281935 Si02
#       5
#     8  16  16  16  16
#     4  10  19  36  61  88 120 166 220 262 303 370
#     4  11  23  38  59  92 131 167 207 261 320 378
#     4  10  19  34  59  88 118 161 213 259 308 373
#     4  10  19  34  60  92 121 157 210 268 314 368
#     4  10  20  37  62  93 125 163 212 265 318 380
#
# _framework density 22.867646000000001
#
# number of rings (size 3 to 8) (size 9 to 14) (size 15 to 20)
#    0.000    1.778    0.000    8.333    0.000    1.778 
#    0.000    6.111    0.000    5.333    0.000    1.556 
#    0.000    0.000    0.000    0.000    0.000    0.000 
#
# Total GULP energy -446181.541905 kJ/mol
# GULP energy per Si atom -12393.931720 kJ/mol
# Density = 2.281560 g / cm^3
# Si number density = 22.867646 Si / 1000 Ang^3
#
#
#
# Elastic Constant Matrix: (Units=GPa)
#
#
# Indices 1 2 3 4 5 6 
#
# 1 129.0653 21.7120 44.1204 0.0000 0.0000 0.0000
# 2 21.7120 47.4082 12.5435 0.0000 0.0000 0.0000
# 3 44.1204 12.5435 117.7493 0.0000 0.0000 0.0000
# 4 0.0000 0.0000 0.0000 20.4248 0.0000 0.0000
# 5 0.0000 0.0000 0.0000 0.0000 26.4723 0.0000
# 6 0.0000 0.0000 0.0000 0.0000 0.0000 13.4570
#
#
#
# Elastic Compliance Matrix: (Units=1/GPa)
#
#
# Indices 1 2 3 4 5 6 
#
# 1 0.009412 -0.003475 -0.003156 0.000000 0.000000 0.000000
# 2 -0.003475 0.022988 -0.001147 0.000000 0.000000 0.000000
# 3 -0.003156 -0.001147 0.009797 0.000000 0.000000 0.000000
# 4 0.000000 0.000000 0.000000 0.048960 0.000000 0.000000
# 5 0.000000 0.000000 0.000000 0.000000 0.037775 0.000000
# 6 0.000000 0.000000 0.000000 0.000000 0.000000 0.074311
#
#
# Mechanical properties :
#
#
# Convention : Reuss Voigt Hill
#
# Bulk Modulus (GPa) = 37.53623 50.10830 43.82227
# Shear Modulus (GPa) = 21.96062 26.46062 24.21062
#
# Velocity S-wave (km/s) = 3.10229 3.40534 3.25734
# Velocity P-wave (km/s) = 5.41133 6.11732 5.77512
#
# Compressibility (1/GPa) = 0.02664093
#
# Stress axis : x y z
#
# Youngs Moduli (GPa) = 106.25180 43.50024 102.06751
#
# Poissons Ratio (x) = 0.15117 0.32216
# Poissons Ratio (y) = 0.36925 0.11704
# Poissons Ratio (z) = 0.33536 0.04988
#
# Static dielectric constant tensor:
#      x y z
#    x 4.630730 0.000000 0.000000 
#    y 0.000000 3.445440 0.000000 
#    z 0.000000 0.000000 4.233530 
# 
# 
# High freq. dielectric constant tensor:
#      x y z
#    x 1.931670 0.000000 0.000000 
#    y 0.000000 1.838320 0.000000 
#    z 0.000000 0.000000 1.903740 
# 
# From -- ./inp_files/29419.got.cif
#   From: 2010.03.12/outbox.cif.g09.slc.cpg/sg68_15_cif.got.tgz:29419.got - 2010.04.10 23:14:56.
