data_PCOD8281169
_publ_section_title
;
Structure prediction by ZEFSAII (Michael W. Deem and Ramdas Pophale) SiO2 
 PCOD8281169
Probable space group: C M M A
;
_chemical_formula_sum "Si O2"
_cell_formula_units_Z 112
_cell_length_a 15.157444
_cell_length_b 27.714598
_cell_length_c 12.822470
_cell_angle_alpha 90.000000
_cell_angle_beta 90.000000
_cell_angle_gamma 90.000000
_cell_volume 5386.494833
_symmetry_space_group_name_H-M "C M M A"
_symmetry_group_IT_number 67
_symmetry_cell_setting 'orthorhombic'
loop_
_space_group_symop_operation_xyz
x,y,z
-x,1/2-y,z
x,-y,-z
-x,1/2+y,-z
-x,-y,-z
x,1/2+y,-z
-x,y,z
x,1/2-y,z
1/2+x,1/2+y,z
1/2-x,-y,z
1/2+x,1/2-y,-z
1/2-x,y,-z
1/2-x,1/2-y,-z
1/2+x,y,-z
1/2-x,1/2+y,z
1/2+x,-y,z
loop_
_atom_site_type_symbol
_atom_site_label
_atom_site_fract_x
_atom_site_fract_y
_atom_site_fract_z
Si Si1 0.100860 0.195470 0.230344
Si Si2 0.096583 0.627596 0.316511
Si Si3 0.101537 0.490823 0.229375
Si Si4 0.745419 0.694482 0.616064
Si Si5 0.649693 0.101718 0.883230
Si Si6 0.660045 0.537550 0.569536
Si Si7 0.646299 0.577758 0.889829
O O1 0.117761 0.250000 0.187290
O O2 0.159854 0.185639 0.332003
O O3 0.125811 0.157051 0.141782
O O4 0.000000 0.189183 0.265602
O O5 0.169798 0.668769 0.317292
O O6 0.116396 0.588860 0.408165
O O7 0.093397 0.604049 0.202371
O O8 0.000000 0.649636 0.339317
O O9 0.109759 0.433968 0.204390
O O10 0.168491 0.508883 0.319982
O O11 0.132279 0.520366 0.126087
O O12 0.000000 0.502536 0.259653
O O13 0.718374 0.750000 0.612765
O O14 0.750000 0.672824 0.500000
O O15 0.753324 0.094122 0.883373
O O16 0.607843 0.091392 0.996857
O O17 0.601095 0.500000 0.500000
O O18 0.750000 0.544943 0.500000
#
# Coordination Sequence:
#
# PCOD8281169 Si02
#       7
#    16  16  16  16  16  16  16
#     4  10  22  41  65  94 126 159 206 263 312 368
#     4  11  23  40  63  90 125 161 203 254 307 368
#     4  11  24  38  58  91 127 162 210 259 306 370
#     4  10  22  42  66  90 122 162 202 253 315 366
#     4  11  22  39  65  92 119 168 210 251 311 378
#     4  10  23  37  59  84 116 167 203 248 301 363
#     4  10  22  39  61  91 126 164 204 252 308 371
#
# _framework density 20.792743000000002
#
# number of rings (size 3 to 8) (size 9 to 14) (size 15 to 20)
#    0.000    1.571    1.429    3.429    8.000    7.143 
#    0.000    3.571    0.000    0.000    0.000    0.000 
#    0.000    0.000    0.000    0.000    0.000    0.000 
#
# Total GULP energy -693979.533523 kJ/mol
# GULP energy per Si atom -12392.491670 kJ/mol
# Density = 2.074542 g / cm^3
# Si number density = 20.792743 Si / 1000 Ang^3
#
#
#
# Elastic Constant Matrix: (Units=GPa)
#
#
# Indices 1 2 3 4 5 6 
#
# 1 122.5416 39.7816 32.7584 0.0000 0.0000 0.0000
# 2 39.7816 110.4593 46.9574 0.0000 0.0000 0.0000
# 3 32.7584 46.9574 112.5858 0.0000 0.0000 0.0000
# 4 0.0000 0.0000 0.0000 30.6106 0.0000 0.0000
# 5 0.0000 0.0000 0.0000 0.0000 9.0511 0.0000
# 6 0.0000 0.0000 0.0000 0.0000 0.0000 22.2104
#
#
#
# Elastic Compliance Matrix: (Units=1/GPa)
#
#
# Indices 1 2 3 4 5 6 
#
# 1 0.009478 -0.002724 -0.001622 0.000000 0.000000 0.000000
# 2 -0.002724 0.011787 -0.004124 0.000000 0.000000 0.000000
# 3 -0.001622 -0.004124 0.011074 0.000000 0.000000 0.000000
# 4 0.000000 0.000000 0.000000 0.032668 0.000000 0.000000
# 5 0.000000 0.000000 0.000000 0.000000 0.110484 0.000000
# 6 0.000000 0.000000 0.000000 0.000000 0.000000 0.045024
#
#
# Mechanical properties :
#
#
# Convention : Reuss Voigt Hill
#
# Bulk Modulus (GPa) = 64.93286 64.95349 64.94317
# Shear Modulus (GPa) = 20.61111 27.44705 24.02908
#
# Velocity S-wave (km/s) = 3.15185 3.63716 3.40317
# Velocity P-wave (km/s) = 6.67398 6.99607 6.83692
#
# Compressibility (1/GPa) = 0.01540052
#
# Stress axis : x y z
#
# Youngs Moduli (GPa) = 105.50323 84.83778 90.30311
#
# Poissons Ratio (x) = 0.23112 0.14644
# Poissons Ratio (y) = 0.28742 0.37237
# Poissons Ratio (z) = 0.17109 0.34983
#
# Static dielectric constant tensor:
#      x y z
#    x 3.687240 0.000000 0.000000 
#    y 0.000000 3.827920 0.000000 
#    z 0.000000 0.000000 3.958560 
# 
# 
# High freq. dielectric constant tensor:
#      x y z
#    x 1.815710 0.000000 0.000000 
#    y 0.000000 1.809780 0.000000 
#    z 0.000000 0.000000 1.810010 
# 
# From -- ./inp_files/18576.got.cif
#   From: 2010.03.12/outbox.cif.g09.slc.cpg/sg67_10_cif.got.tgz:18576.got - 2010.04.10 22:41:39.
