data_PCOD8281580
_publ_section_title
;
Structure prediction by ZEFSAII (Michael W. Deem and Ramdas Pophale) SiO2 
 PCOD8281580
Probable space group: C M M A
;
_chemical_formula_sum "Si O2"
_cell_formula_units_Z 128
_cell_length_a 19.142457
_cell_length_b 19.533917
_cell_length_c 20.393595
_cell_angle_alpha 90.000000
_cell_angle_beta 90.000000
_cell_angle_gamma 90.000000
_cell_volume 7625.719187
_symmetry_space_group_name_H-M "C M M A"
_symmetry_group_IT_number 67
_symmetry_cell_setting 'orthorhombic'
loop_
_space_group_symop_operation_xyz
x,y,z
-x,1/2-y,z
x,-y,-z
-x,1/2+y,-z
-x,-y,-z
x,1/2+y,-z
-x,y,z
x,1/2-y,z
1/2+x,1/2+y,z
1/2-x,-y,z
1/2+x,1/2-y,-z
1/2-x,y,-z
1/2-x,1/2-y,-z
1/2+x,y,-z
1/2-x,1/2+y,z
1/2+x,-y,z
loop_
_atom_site_type_symbol
_atom_site_label
_atom_site_fract_x
_atom_site_fract_y
_atom_site_fract_z
Si Si1 0.180631 0.331206 0.318222
Si Si2 0.082768 0.924659 0.917961
Si Si3 0.918951 0.670692 0.177137
Si Si4 0.078034 0.168620 0.575643
Si Si5 0.417099 0.076729 0.063063
Si Si6 0.320016 0.831260 0.464999
Si Si7 0.917996 0.830047 0.799297
Si Si8 0.836259 0.668483 0.301228
O O1 0.179012 0.250000 0.320798
O O2 0.167545 0.360619 0.391607
O O3 0.122653 0.356040 0.265888
O O4 0.256947 0.357798 0.296590
O O5 0.111415 0.874269 0.860992
O O6 0.000000 0.918874 0.915698
O O7 0.108063 0.003145 0.908867
O O8 0.111161 0.903909 0.990438
O O9 0.904257 0.750000 0.167108
O O10 0.889962 0.634414 0.112228
O O11 0.877180 0.640285 0.238406
O O12 0.000000 0.655095 0.189602
O O13 0.074826 0.250000 0.581030
O O14 0.112889 0.146254 0.507194
O O15 0.125229 0.138860 0.634517
O O16 0.000000 0.137699 0.579297
O O17 0.500000 0.074767 0.058642
O O18 0.312259 0.750000 0.461248
O O19 0.250000 0.860636 0.500000
O O20 0.903009 0.750000 0.813971
O O21 0.000000 0.842637 0.786838
O O22 0.838831 0.750000 0.303636
#
# Coordination Sequence:
#
# PCOD8281580 Si02
#       8
#    16  16  16  16  16  16  16  16
#     4   9  16  25  38  53  76 112 146 173 207 256
#     4   8  14  26  43  61  83 110 141 176 212 256
#     4   9  16  24  37  61  89 110 133 171 212 248
#     4   9  15  21  32  51  74 104 141 177 211 246
#     4   8  14  25  42  63  84 110 141 171 211 257
#     4   9  14  22  34  49  72 106 145 175 202 248
#     4   9  17  27  40  61  85 108 139 182 225 255
#     4   9  15  24  36  51  77 112 141 164 201 255
#
# _framework density 16.785302999999999
#
# number of rings (size 3 to 8) (size 9 to 14) (size 15 to 20)
#    0.000    3.250    1.250    1.125    0.000    2.500 
#    0.000    5.000    0.000    1.500    0.000    5.250 
#    0.000    1.000    0.750    7.500    0.250    7.750 
#
# Total GULP energy -793027.670279 kJ/mol
# GULP energy per Si atom -12391.057348 kJ/mol
# Density = 1.674710 g / cm^3
# Si number density = 16.785303 Si / 1000 Ang^3
#
#
#
# Elastic Constant Matrix: (Units=GPa)
#
#
# Indices 1 2 3 4 5 6 
#
# 1 79.4971 21.1108 60.4107 0.0000 0.0000 0.0000
# 2 21.1108 27.6136 46.2338 0.0000 0.0000 0.0000
# 3 60.4107 46.2338 174.9054 0.0000 0.0000 0.0000
# 4 0.0000 0.0000 0.0000 4.2428 0.0000 0.0000
# 5 0.0000 0.0000 0.0000 0.0000 17.2169 0.0000
# 6 0.0000 0.0000 0.0000 0.0000 0.0000 5.1173
#
#
#
# Elastic Compliance Matrix: (Units=1/GPa)
#
#
# Indices 1 2 3 4 5 6 
#
# 1 0.017570 -0.005870 -0.004517 0.000000 0.000000 0.000000
# 2 -0.005870 0.066928 -0.015664 0.000000 0.000000 0.000000
# 3 -0.004517 -0.015664 0.011418 0.000000 0.000000 0.000000
# 4 0.000000 0.000000 0.000000 0.235691 0.000000 0.000000
# 5 0.000000 0.000000 0.000000 0.000000 0.058082 0.000000
# 6 0.000000 0.000000 0.000000 0.000000 0.000000 0.195416
#
#
# Mechanical properties :
#
#
# Convention : Reuss Voigt Hill
#
# Bulk Modulus (GPa) = 22.82327 59.72520 41.27423
# Shear Modulus (GPa) = 7.67091 15.59946 11.63518
#
# Velocity S-wave (km/s) = 2.14008 3.05183 2.63568
# Velocity P-wave (km/s) = 4.44221 6.93378 5.82283
#
# Compressibility (1/GPa) = 0.04381494
#
# Stress axis : x y z
#
# Youngs Moduli (GPa) = 56.91406 14.94134 87.57961
#
# Poissons Ratio (x) = 0.08770 0.39560
# Poissons Ratio (y) = 0.33406 1.37187
# Poissons Ratio (z) = 0.25709 0.23405
#
# Static dielectric constant tensor:
#      x y z
#    x 3.030680 0.000000 0.000000 
#    y 0.000000 2.685170 0.000000 
#    z 0.000000 0.000000 3.581150 
# 
# 
# High freq. dielectric constant tensor:
#      x y z
#    x 1.624090 0.000000 0.000000 
#    y 0.000000 1.582030 0.000000 
#    z 0.000000 0.000000 1.664050 
# 
# From -- ./inp_files/39120.got.cif
#   From: 2010.03.12/outbox.cif.g09.slc.cpg/sg67_20_cif.got.tgz:39120.got - 2010.04.10 22:41:39.
