data_PCOD8281243
_publ_section_title
;
Structure prediction by ZEFSAII (Michael W. Deem and Ramdas Pophale) SiO2 
 PCOD8281243
Probable space group: C M M A
;
_chemical_formula_sum "Si O2"
_cell_formula_units_Z 84
_cell_length_a 14.820243
_cell_length_b 24.323522
_cell_length_c 11.574637
_cell_angle_alpha 90.000000
_cell_angle_beta 90.000000
_cell_angle_gamma 90.000000
_cell_volume 4172.431010
_symmetry_space_group_name_H-M "C M M A"
_symmetry_group_IT_number 67
_symmetry_cell_setting 'orthorhombic'
loop_
_space_group_symop_operation_xyz
x,y,z
-x,1/2-y,z
x,-y,-z
-x,1/2+y,-z
-x,-y,-z
x,1/2+y,-z
-x,y,z
x,1/2-y,z
1/2+x,1/2+y,z
1/2-x,-y,z
1/2+x,1/2-y,-z
1/2-x,y,-z
1/2-x,1/2-y,-z
1/2+x,y,-z
1/2-x,1/2+y,z
1/2+x,-y,z
loop_
_atom_site_type_symbol
_atom_site_label
_atom_site_fract_x
_atom_site_fract_y
_atom_site_fract_z
Si Si1 0.258795 0.131804 0.636788
Si Si2 0.000000 0.689804 0.913683
Si Si3 0.894733 0.053459 0.243337
Si Si4 0.601592 0.071815 0.239241
Si Si5 0.500000 0.250000 0.688257
Si Si6 0.696409 0.750000 0.381266
Si Si7 0.647664 0.606445 0.012293
O O1 0.250000 0.131906 0.500000
O O2 0.341215 0.092054 0.668492
O O3 0.166025 0.112926 0.693516
O O4 0.276666 0.193731 0.685137
O O5 0.000000 0.696346 0.773405
O O6 0.089588 0.659348 0.954673
O O7 0.000000 0.750000 0.972947
O O8 0.858696 0.061580 0.113635
O O9 0.000000 0.068669 0.249847
O O10 0.876089 0.990433 0.276836
O O11 0.500000 0.086982 0.275308
O O12 0.611533 0.077581 0.102274
O O13 0.587387 0.250000 0.604858
O O14 0.750000 0.750000 0.500000
O O15 0.750000 0.626710 0.000000
#
# Coordination Sequence:
#
# PCOD8281243 Si02
#       7
#    16   8  16  16   4   8  16
#     4  11  25  45  66  95 131 170 229 278 333 390
#     4  10  24  40  61  96 133 180 216 265 334 402
#     4  11  23  40  67  98 128 177 222 269 333 398
#     4  11  24  41  64  96 137 174 215 273 335 399
#     4  10  22  42  74  94 136 176 226 272 332 396
#     4  10  24  46  69  99 124 173 230 279 322 388
#     4  12  22  38  64  96 133 168 218 268 330 402
#
# _framework density 20.132148999999998
#
# number of rings (size 3 to 8) (size 9 to 14) (size 15 to 20)
#    0.286    0.762    3.810    2.286    1.333    4.952 
#    6.857    1.905    0.000    0.000    0.000    0.000 
#    0.000    0.000    0.000    0.000    0.000    0.000 
#
# Total GULP energy -520800.350426 kJ/mol
# GULP energy per Si atom -12400.008343 kJ/mol
# Density = 2.008633 g / cm^3
# Si number density = 20.132149 Si / 1000 Ang^3
#
#
#
# Elastic Constant Matrix: (Units=GPa)
#
#
# Indices 1 2 3 4 5 6 
#
# 1 185.1972 83.6965 39.5277 0.0000 0.0000 0.0000
# 2 83.6965 131.5959 36.9313 0.0000 0.0000 0.0000
# 3 39.5277 36.9313 83.4898 0.0000 0.0000 0.0000
# 4 0.0000 0.0000 0.0000 26.2703 0.0000 0.0000
# 5 0.0000 0.0000 0.0000 0.0000 33.6001 0.0000
# 6 0.0000 0.0000 0.0000 0.0000 0.0000 35.5496
#
#
#
# Elastic Compliance Matrix: (Units=1/GPa)
#
#
# Indices 1 2 3 4 5 6 
#
# 1 0.007785 -0.004472 -0.001708 0.000000 0.000000 0.000000
# 2 -0.004472 0.011245 -0.002857 0.000000 0.000000 0.000000
# 3 -0.001708 -0.002857 0.014050 0.000000 0.000000 0.000000
# 4 0.000000 0.000000 0.000000 0.038066 0.000000 0.000000
# 5 0.000000 0.000000 0.000000 0.000000 0.029762 0.000000
# 6 0.000000 0.000000 0.000000 0.000000 0.000000 0.028130
#
#
# Mechanical properties :
#
#
# Convention : Reuss Voigt Hill
#
# Bulk Modulus (GPa) = 66.63722 80.06600 73.35161
# Shear Modulus (GPa) = 32.87022 35.09248 33.98135
#
# Velocity S-wave (km/s) = 4.04508 4.17958 4.11288
# Velocity P-wave (km/s) = 7.41543 7.94660 7.68561
#
# Compressibility (1/GPa) = 0.01500663
#
# Stress axis : x y z
#
# Youngs Moduli (GPa) = 128.44733 88.92660 71.17602
#
# Poissons Ratio (x) = 0.39771 0.12154
# Poissons Ratio (y) = 0.57446 0.20334
# Poissons Ratio (z) = 0.21934 0.25405
#
# Static dielectric constant tensor:
#      x y z
#    x 3.870560 0.000000 0.000000 
#    y 0.000000 3.943320 0.000000 
#    z 0.000000 0.000000 3.493320 
# 
# 
# High freq. dielectric constant tensor:
#      x y z
#    x 1.805890 0.000000 0.000000 
#    y 0.000000 1.795820 0.000000 
#    z 0.000000 0.000000 1.766460 
# 
# From -- ./inp_files/18138.got.cif
#   From: 2010.03.12/outbox.cif.g09.slc.cpg/sg67_10_cif.got.tgz:18138.got - 2010.04.10 22:41:39.
