data_PCOD8281524
_publ_section_title
;
Structure prediction by ZEFSAII (Michael W. Deem and Ramdas Pophale) SiO2 
 PCOD8281524
Probable space group: C M M A
;
_chemical_formula_sum "Si O2"
_cell_formula_units_Z 56
_cell_length_a 33.934700
_cell_length_b 14.412441
_cell_length_c 5.036817
_cell_angle_alpha 90.000000
_cell_angle_beta 90.000000
_cell_angle_gamma 90.000000
_cell_volume 2463.415835
_symmetry_space_group_name_H-M "C M M A"
_symmetry_group_IT_number 67
_symmetry_cell_setting 'orthorhombic'
loop_
_space_group_symop_operation_xyz
x,y,z
-x,1/2-y,z
x,-y,-z
-x,1/2+y,-z
-x,-y,-z
x,1/2+y,-z
-x,y,z
x,1/2-y,z
1/2+x,1/2+y,z
1/2-x,-y,z
1/2+x,1/2-y,-z
1/2-x,y,-z
1/2-x,1/2-y,-z
1/2+x,y,-z
1/2-x,1/2+y,z
1/2+x,-y,z
loop_
_atom_site_type_symbol
_atom_site_label
_atom_site_fract_x
_atom_site_fract_y
_atom_site_fract_z
Si Si1 0.092032 0.647731 0.120849
Si Si2 0.455930 0.103083 0.606346
Si Si3 0.777705 0.750000 0.251503
Si Si4 0.673844 0.438777 0.238679
O O1 0.107085 0.750000 0.033448
O O2 0.066444 0.663050 0.386078
O O3 0.128129 0.579921 0.181441
O O4 0.066303 0.604115 0.886175
O O5 0.500000 0.142728 0.649049
O O6 0.457541 0.000000 0.500000
O O7 0.750000 0.750000 0.500000
O O8 0.804326 0.658693 0.262486
O O9 0.750000 0.750000 0.000000
O O10 0.678920 0.500000 0.500000
O O11 0.691942 0.500000 0.000000
#
# Coordination Sequence:
#
# PCOD8281524 Si02
#       4
#    16  16   8  16
#     4  12  24  42  67  98 137 181 239 293 343 413
#     4  11  24  41  63  94 135 183 237 294 352 412
#     4  12  28  50  76 112 149 178 231 288 344 426
#     4  12  26  47  76 106 144 190 234 283 351 416
#
# _framework density 22.732662000000001
#
# number of rings (size 3 to 8) (size 9 to 14) (size 15 to 20)
#    0.000    0.286    1.429    8.571    0.000    9.143 
#    0.000    0.000    0.000    0.000    0.000    0.000 
#    0.000    0.000    0.000    0.000    0.000    0.000 
#
# Total GULP energy -347294.589181 kJ/mol
# GULP energy per Si atom -12403.378185 kJ/mol
# Density = 2.268092 g / cm^3
# Si number density = 22.732662 Si / 1000 Ang^3
#
#
#
# Elastic Constant Matrix: (Units=GPa)
#
#
# Indices 1 2 3 4 5 6 
#
# 1 136.2627 60.3915 82.3823 0.0000 0.0000 0.0000
# 2 60.3915 163.4869 58.5678 0.0000 0.0000 0.0000
# 3 82.3823 58.5678 194.4200 0.0000 0.0000 0.0000
# 4 0.0000 0.0000 0.0000 31.2146 0.0000 0.0000
# 5 0.0000 0.0000 0.0000 0.0000 25.8006 0.0000
# 6 0.0000 0.0000 0.0000 0.0000 0.0000 30.6583
#
#
#
# Elastic Compliance Matrix: (Units=1/GPa)
#
#
# Indices 1 2 3 4 5 6 
#
# 1 0.010790 -0.002632 -0.003779 0.000000 0.000000 0.000000
# 2 -0.002632 0.007499 -0.001144 0.000000 0.000000 0.000000
# 3 -0.003779 -0.001144 0.007089 0.000000 0.000000 0.000000
# 4 0.000000 0.000000 0.000000 0.032036 0.000000 0.000000
# 5 0.000000 0.000000 0.000000 0.000000 0.038759 0.000000
# 6 0.000000 0.000000 0.000000 0.000000 0.000000 0.032618
#
#
# Mechanical properties :
#
#
# Convention : Reuss Voigt Hill
#
# Bulk Modulus (GPa) = 97.38608 99.65031 98.51819
# Shear Modulus (GPa) = 33.93891 37.05656 35.49774
#
# Velocity S-wave (km/s) = 3.86807 4.04183 3.95591
# Velocity P-wave (km/s) = 7.92982 8.10634 8.01857
#
# Compressibility (1/GPa) = 0.01026841
#
# Stress axis : x y z
#
# Youngs Moduli (GPa) = 92.67718 133.35750 141.05478
#
# Poissons Ratio (x) = 0.35099 0.53309
# Poissons Ratio (y) = 0.24392 0.16132
# Poissons Ratio (z) = 0.35025 0.15252
#
# Static dielectric constant tensor:
#      x y z
#    x 4.265930 0.000000 0.000000 
#    y 0.000000 4.124180 0.000000 
#    z 0.000000 0.000000 4.261230 
# 
# 
# High freq. dielectric constant tensor:
#      x y z
#    x 1.896380 0.000000 0.000000 
#    y 0.000000 1.923070 0.000000 
#    z 0.000000 0.000000 1.911730 
# 
# From -- ./inp_files/4459.got.cif
#   From: 2010.03.12/outbox.cif.g09.slc.cpg/sg67_3_cif.got.tgz:4459.got - 2010.04.10 22:41:39.
