data_PCOD8281030
_publ_section_title
;
Structure prediction by ZEFSAII (Michael W. Deem and Ramdas Pophale) SiO2 
 PCOD8281030
Probable space group: C M M A
;
_chemical_formula_sum "Si O2"
_cell_formula_units_Z 100
_cell_length_a 25.276913
_cell_length_b 9.716877
_cell_length_c 20.507352
_cell_angle_alpha 90.000000
_cell_angle_beta 90.000000
_cell_angle_gamma 90.000000
_cell_volume 5036.865163
_symmetry_space_group_name_H-M "C M M A"
_symmetry_group_IT_number 67
_symmetry_cell_setting 'orthorhombic'
loop_
_space_group_symop_operation_xyz
x,y,z
-x,1/2-y,z
x,-y,-z
-x,1/2+y,-z
-x,-y,-z
x,1/2+y,-z
-x,y,z
x,1/2-y,z
1/2+x,1/2+y,z
1/2-x,-y,z
1/2+x,1/2-y,-z
1/2-x,y,-z
1/2-x,1/2-y,-z
1/2+x,y,-z
1/2-x,1/2+y,z
1/2+x,-y,z
loop_
_atom_site_type_symbol
_atom_site_label
_atom_site_fract_x
_atom_site_fract_y
_atom_site_fract_z
Si Si1 0.441321 0.905259 0.555951
Si Si2 0.299614 0.084005 0.231798
Si Si3 0.557899 0.405858 0.938013
Si Si4 0.325322 0.750000 0.429432
Si Si5 0.702323 0.250000 0.432062
Si Si6 0.327045 0.906006 0.110443
Si Si7 0.352130 0.024067 0.357465
Si Si8 0.750000 0.500000 0.000000
O O1 0.500000 0.961182 0.570901
O O2 0.443204 0.750000 0.530347
O O3 0.409353 0.917409 0.623201
O O4 0.414659 0.000000 0.500000
O O5 0.291250 0.250000 0.228665
O O6 0.347930 0.040093 0.279171
O O7 0.250000 0.000000 0.261895
O O8 0.307897 0.023841 0.159677
O O9 0.500000 0.427323 0.901843
O O10 0.562333 0.250000 0.962867
O O11 0.610339 0.439377 0.896626
O O12 0.559266 0.500000 0.000000
O O13 0.340923 0.750000 0.507052
O O14 0.263748 0.750000 0.446208
O O15 0.346049 0.626780 0.385968
O O16 0.693601 0.384764 0.389275
O O17 0.320440 0.750000 0.138080
O O18 0.290710 0.912800 0.045237
#
# Coordination Sequence:
#
# PCOD8281030 Si02
#       8
#    16  16  16   8   8  16  16   4
#     4  10  21  39  63  90 120 158 209 268 323 373
#     4  12  26  43  63  89 126 172 213 250 306 386
#     4   9  18  35  60  91 126 163 204 253 310 366
#     4  11  24  34  61  89 119 161 200 255 297 363
#     4  11  20  40  57  87 123 155 206 245 303 357
#     4  11  24  40  64  95 131 168 212 262 317 373
#     4  12  24  39  60  88 124 164 203 253 312 368
#     4  12  22  40  66  98 130 164 200 278 318 376
#
# _framework density 19.853618999999998
#
# number of rings (size 3 to 8) (size 9 to 14) (size 15 to 20)
#    0.000    1.120    3.200    3.600    3.360    2.560 
#    0.000    0.800    0.000    0.960    0.000    0.000 
#    0.000    0.000    0.000    0.000    0.000    0.000 
#
# Total GULP energy -619422.988601 kJ/mol
# GULP energy per Si atom -12388.459772 kJ/mol
# Density = 1.980843 g / cm^3
# Si number density = 19.853619 Si / 1000 Ang^3
#
#
#
# Elastic Constant Matrix: (Units=GPa)
#
#
# Indices 1 2 3 4 5 6 
#
# 1 100.0485 18.4545 28.1413 0.0000 0.0000 0.0000
# 2 18.4545 121.4573 36.1574 0.0000 0.0000 0.0000
# 3 28.1413 36.1574 98.4820 0.0000 0.0000 0.0000
# 4 0.0000 0.0000 0.0000 29.3961 0.0000 0.0000
# 5 0.0000 0.0000 0.0000 0.0000 23.1061 0.0000
# 6 0.0000 0.0000 0.0000 0.0000 0.0000 24.4392
#
#
#
# Elastic Compliance Matrix: (Units=1/GPa)
#
#
# Indices 1 2 3 4 5 6 
#
# 1 0.010941 -0.000821 -0.002825 0.000000 0.000000 0.000000
# 2 -0.000821 0.009305 -0.003182 0.000000 0.000000 0.000000
# 3 -0.002825 -0.003182 0.012129 0.000000 0.000000 0.000000
# 4 0.000000 0.000000 0.000000 0.034018 0.000000 0.000000
# 5 0.000000 0.000000 0.000000 0.000000 0.043279 0.000000
# 6 0.000000 0.000000 0.000000 0.000000 0.000000 0.040918
#
#
# Mechanical properties :
#
#
# Convention : Reuss Voigt Hill
#
# Bulk Modulus (GPa) = 53.41879 53.94380 53.68129
# Shear Modulus (GPa) = 29.32782 31.20395 30.26589
#
# Velocity S-wave (km/s) = 3.84761 3.96877 3.90866
# Velocity P-wave (km/s) = 6.83400 6.94487 6.88966
#
# Compressibility (1/GPa) = 0.01872001
#
# Stress axis : x y z
#
# Youngs Moduli (GPa) = 91.39724 107.46513 82.44366
#
# Poissons Ratio (x) = 0.08828 0.23289
# Poissons Ratio (y) = 0.07508 0.26231
# Poissons Ratio (z) = 0.25819 0.34192
#
# Static dielectric constant tensor:
#      x y z
#    x 4.100270 0.000000 0.000000 
#    y 0.000000 5.042550 0.000000 
#    z 0.000000 0.000000 3.417680 
# 
# 
# High freq. dielectric constant tensor:
#      x y z
#    x 1.785940 0.000000 0.000000 
#    y 0.000000 1.788290 0.000000 
#    z 0.000000 0.000000 1.745720 
# 
# From -- ./inp_files/40020.got.cif
#   From: 2010.03.12/outbox.cif.g09.slc.cpg/sg67_21_cif.got.tgz:40020.got - 2010.04.10 22:41:39.
