data_PCOD8281085
_publ_section_title
;
Structure prediction by ZEFSAII (Michael W. Deem and Ramdas Pophale) SiO2 
 PCOD8281085
Probable space group: C M M A
;
_chemical_formula_sum "Si O2"
_cell_formula_units_Z 96
_cell_length_a 19.913380
_cell_length_b 25.812248
_cell_length_c 9.305924
_cell_angle_alpha 90.000000
_cell_angle_beta 90.000000
_cell_angle_gamma 90.000000
_cell_volume 4783.329649
_symmetry_space_group_name_H-M "C M M A"
_symmetry_group_IT_number 67
_symmetry_cell_setting 'orthorhombic'
loop_
_space_group_symop_operation_xyz
x,y,z
-x,1/2-y,z
x,-y,-z
-x,1/2+y,-z
-x,-y,-z
x,1/2+y,-z
-x,y,z
x,1/2-y,z
1/2+x,1/2+y,z
1/2-x,-y,z
1/2+x,1/2-y,-z
1/2-x,y,-z
1/2-x,1/2-y,-z
1/2+x,y,-z
1/2-x,1/2+y,z
1/2+x,-y,z
loop_
_atom_site_type_symbol
_atom_site_label
_atom_site_fract_x
_atom_site_fract_y
_atom_site_fract_z
Si Si1 0.816477 0.689758 0.584562
Si Si2 0.574429 0.522597 0.657058
Si Si3 0.577607 0.190189 0.089119
Si Si4 0.421461 0.138811 0.387200
Si Si5 0.189458 0.146087 0.102603
Si Si6 0.816465 0.525579 0.847581
O O1 0.831019 0.750000 0.560553
O O2 0.750000 0.671919 0.500000
O O3 0.880038 0.657997 0.524803
O O4 0.806772 0.679059 0.752457
O O5 0.572023 0.500000 0.500000
O O6 0.500000 0.522257 0.725797
O O7 0.602293 0.581109 0.655020
O O8 0.620307 0.484705 0.748421
O O9 0.500000 0.178636 0.056292
O O10 0.595890 0.250000 0.066759
O O11 0.594827 0.175678 0.252900
O O12 0.619406 0.155946 0.977803
O O13 0.500000 0.139548 0.429567
O O14 0.196004 0.086125 0.139137
O O15 0.250000 0.164334 0.000000
O O16 0.750000 0.500000 0.777902
O O17 0.831137 0.500000 0.000000
#
# Coordination Sequence:
#
# PCOD8281085 Si02
#       6
#    16  16  16  16  16  16
#     4  11  25  40  59  89 122 161 208 256 309 368
#     4  10  22  40  62  92 125 159 204 252 305 370
#     4  10  22  40  64  93 123 161 209 255 309 376
#     4  10  21  40  66  92 124 164 203 252 311 371
#     4  12  24  41  63  88 125 165 206 262 313 370
#     4  11  23  40  61  91 125 160 209 255 304 369
#
# _framework density 20.069701999999999
#
# number of rings (size 3 to 8) (size 9 to 14) (size 15 to 20)
#    0.000    1.333    1.667    4.000    2.333    5.667 
#    0.000    0.000    0.000    0.000    0.000    0.000 
#    0.000    0.000    0.000    0.000    0.000    0.000 
#
# Total GULP energy -595499.529766 kJ/mol
# GULP energy per Si atom -12406.240203 kJ/mol
# Density = 2.002402 g / cm^3
# Si number density = 20.069702 Si / 1000 Ang^3
#
#
#
# Elastic Constant Matrix: (Units=GPa)
#
#
# Indices 1 2 3 4 5 6 
#
# 1 103.8673 36.9035 57.4340 0.0000 0.0000 0.0000
# 2 36.9035 71.8807 11.3313 0.0000 0.0000 0.0000
# 3 57.4340 11.3313 91.8508 0.0000 0.0000 0.0000
# 4 0.0000 0.0000 0.0000 29.0008 0.0000 0.0000
# 5 0.0000 0.0000 0.0000 0.0000 44.5498 0.0000
# 6 0.0000 0.0000 0.0000 0.0000 0.0000 29.3911
#
#
#
# Elastic Compliance Matrix: (Units=1/GPa)
#
#
# Indices 1 2 3 4 5 6 
#
# 1 0.018070 -0.007645 -0.010356 0.000000 0.000000 0.000000
# 2 -0.007645 0.017422 0.002631 0.000000 0.000000 0.000000
# 3 -0.010356 0.002631 0.017038 0.000000 0.000000 0.000000
# 4 0.000000 0.000000 0.000000 0.034482 0.000000 0.000000
# 5 0.000000 0.000000 0.000000 0.000000 0.022447 0.000000
# 6 0.000000 0.000000 0.000000 0.000000 0.000000 0.034024
#
#
# Mechanical properties :
#
#
# Convention : Reuss Voigt Hill
#
# Bulk Modulus (GPa) = 45.89119 53.21515 49.55317
# Shear Modulus (GPa) = 27.55021 31.38368 29.46694
#
# Velocity S-wave (km/s) = 3.70905 3.95870 3.83591
# Velocity P-wave (km/s) = 6.42326 6.88969 6.66056
#
# Compressibility (1/GPa) = 0.02179068
#
# Stress axis : x y z
#
# Youngs Moduli (GPa) = 55.33928 57.39868 58.69104
#
# Poissons Ratio (x) = 0.43880 0.60782
# Poissons Ratio (y) = 0.42306 -0.15441
# Poissons Ratio (z) = 0.57311 -0.15101
#
# Static dielectric constant tensor:
#      x y z
#    x 3.820720 0.000000 0.000000 
#    y 0.000000 3.828930 0.000000 
#    z 0.000000 0.000000 3.558830 
# 
# 
# High freq. dielectric constant tensor:
#      x y z
#    x 1.792060 0.000000 0.000000 
#    y 0.000000 1.796990 0.000000 
#    z 0.000000 0.000000 1.780390 
# 
# From -- ./inp_files/11448.got.cif
#   From: 2010.03.12/outbox.cif.g09.slc.cpg/sg67_6_cif.got.tgz:11448.got - 2010.04.10 22:41:39.
