data_PCOD8281659
_publ_section_title
;
Structure prediction by ZEFSAII (Michael W. Deem and Ramdas Pophale) SiO2 
 PCOD8281659
Probable space group: C C C A
;
_chemical_formula_sum "Si O2"
_cell_formula_units_Z 60
_cell_length_a 31.911978
_cell_length_b 16.251671
_cell_length_c 5.334027
_cell_angle_alpha 90.000000
_cell_angle_beta 90.000000
_cell_angle_gamma 90.000000
_cell_volume 2766.348911
_symmetry_space_group_name_H-M "C C C A"
_symmetry_group_IT_number 68
_space_group.IT_coordinate_system_code '2'
_symmetry_cell_setting 'orthorhombic'
loop_
_space_group_symop_operation_xyz
x,y,z
-x,1/2-y,z
x,1/2-y,1/2-z
-x,y,1/2-z
-x,-y,-z
x,1/2+y,-z
-x,1/2+y,1/2+z
x,-y,1/2+z
1/2+x,1/2+y,z
1/2-x,-y,z
1/2+x,-y,1/2-z
1/2-x,1/2+y,1/2-z
1/2-x,1/2-y,-z
1/2+x,y,-z
1/2-x,y,1/2+z
1/2+x,1/2-y,1/2+z
loop_
_atom_site_type_symbol
_atom_site_label
_atom_site_fract_x
_atom_site_fract_y
_atom_site_fract_z
Si Si1 0.934158 0.669814 0.101408
Si Si2 0.363038 0.053014 0.954373
Si Si3 0.000000 0.552505 0.250000
Si Si4 0.500000 0.250000 0.750000
Si Si5 0.767604 0.091997 0.057983
O O1 0.917985 0.750000 0.250000
O O2 0.895050 0.629083 0.959984
O O3 0.957197 0.605316 0.284029
O O4 0.970721 0.690928 0.908903
O O5 0.317351 0.092909 0.962474
O O6 0.369967 0.995600 0.196148
O O7 0.000000 0.500000 0.500000
O O8 0.747524 0.137180 0.814376
O O9 0.750000 0.000000 0.080769
#
# Coordination Sequence:
#
# PCOD8281659 Si02
#       5
#    16  16   8   4  16
#     4  12  27  45  68  93 135 186 218 276 343 410
#     4  12  24  40  67 108 133 165 231 284 322 391
#     4  12  24  44  69  97 124 162 224 286 332 384
#     4  12  24  52  68  84 132 198 230 254 346 422
#     4  10  16  34  61  95 133 172 201 269 341 389
#
# _framework density 21.689236000000001
#
# number of rings (size 3 to 8) (size 9 to 14) (size 15 to 20)
#    0.000    0.533    8.000    2.400    3.733    0.000 
#    0.000    0.000    0.000    1.600    0.000    0.000 
#    0.000    0.000    0.000    0.000    0.000    0.000 
#
# Total GULP energy -371963.844669 kJ/mol
# GULP energy per Si atom -12398.794822 kJ/mol
# Density = 2.163987 g / cm^3
# Si number density = 21.689236 Si / 1000 Ang^3
#
#
#
# Elastic Constant Matrix: (Units=GPa)
#
#
# Indices 1 2 3 4 5 6 
#
# 1 151.3337 39.6504 22.6755 0.0000 0.0000 0.0000
# 2 39.6504 71.9820 34.5075 0.0000 0.0000 0.0000
# 3 22.6755 34.5075 159.5384 0.0000 0.0000 0.0000
# 4 0.0000 0.0000 0.0000 6.4155 0.0000 0.0000
# 5 0.0000 0.0000 0.0000 0.0000 120.6234 0.0000
# 6 0.0000 0.0000 0.0000 0.0000 0.0000 21.9483
#
#
#
# Elastic Compliance Matrix: (Units=1/GPa)
#
#
# Indices 1 2 3 4 5 6 
#
# 1 0.007728 -0.004162 -0.000198 0.000000 0.000000 0.000000
# 2 -0.004162 0.017741 -0.003246 0.000000 0.000000 0.000000
# 3 -0.000198 -0.003246 0.006998 0.000000 0.000000 0.000000
# 4 0.000000 0.000000 0.000000 0.155872 0.000000 0.000000
# 5 0.000000 0.000000 0.000000 0.000000 0.008290 0.000000
# 6 0.000000 0.000000 0.000000 0.000000 0.000000 0.045562
#
#
# Mechanical properties :
#
#
# Convention : Reuss Voigt Hill
#
# Bulk Modulus (GPa) = 57.95239 64.05790 61.00514
# Shear Modulus (GPa) = 19.00026 48.86550 33.93288
#
# Velocity S-wave (km/s) = 2.96298 4.75171 3.95967
# Velocity P-wave (km/s) = 6.20347 7.72681 7.00666
#
# Compressibility (1/GPa) = 0.01725554
#
# Stress axis : x y z
#
# Youngs Moduli (GPa) = 129.39872 56.36705 142.89194
#
# Poissons Ratio (x) = 0.23459 0.02832
# Poissons Ratio (y) = 0.53854 0.46379
# Poissons Ratio (z) = 0.02565 0.18295
#
# Static dielectric constant tensor:
#      x y z
#    x 4.043610 0.000000 0.000000 
#    y 0.000000 3.731200 0.000000 
#    z 0.000000 0.000000 5.216360 
# 
# 
# High freq. dielectric constant tensor:
#      x y z
#    x 1.863580 0.000000 0.000000 
#    y 0.000000 1.815400 0.000000 
#    z 0.000000 0.000000 1.876680 
# 
# From -- ./inp_files/1007.got.cif
#   From: 2010.03.12/outbox.cif.g09.slc.cpg/sg68_1_cif.got.tgz:1007.got - 2010.04.10 23:14:56.
