data_PCOD8281118
_publ_section_title
;
Structure prediction by ZEFSAII (Michael W. Deem and Ramdas Pophale) SiO2 
 PCOD8281118
Probable space group: C M M A
;
_chemical_formula_sum "Si O2"
_cell_formula_units_Z 112
_cell_length_a 14.411405
_cell_length_b 18.259575
_cell_length_c 23.556633
_cell_angle_alpha 90.000000
_cell_angle_beta 90.000000
_cell_angle_gamma 90.000000
_cell_volume 6198.836820
_symmetry_space_group_name_H-M "C M M A"
_symmetry_group_IT_number 67
_symmetry_cell_setting 'orthorhombic'
loop_
_space_group_symop_operation_xyz
x,y,z
-x,1/2-y,z
x,-y,-z
-x,1/2+y,-z
-x,-y,-z
x,1/2+y,-z
-x,y,z
x,1/2-y,z
1/2+x,1/2+y,z
1/2-x,-y,z
1/2+x,1/2-y,-z
1/2-x,y,-z
1/2-x,1/2-y,-z
1/2+x,y,-z
1/2-x,1/2+y,z
1/2+x,-y,z
loop_
_atom_site_type_symbol
_atom_site_label
_atom_site_fract_x
_atom_site_fract_y
_atom_site_fract_z
Si Si1 0.107822 0.907842 0.940582
Si Si2 0.247004 0.335797 0.267941
Si Si3 0.392320 0.075287 0.068357
Si Si4 0.393415 0.586569 0.345704
Si Si5 0.392613 0.913661 0.656835
Si Si6 0.750865 0.086102 0.562523
Si Si7 0.752883 0.665899 0.136361
O O1 0.161983 0.853093 0.899860
O O2 0.000000 0.894390 0.929715
O O3 0.136630 0.990758 0.926538
O O4 0.133324 0.892953 0.006299
O O5 0.252242 0.250000 0.281635
O O6 0.154334 0.369928 0.294697
O O7 0.340720 0.373596 0.291402
O O8 0.236484 0.352219 0.201766
O O9 0.500000 0.084458 0.080157
O O10 0.340338 0.119552 0.116452
O O11 0.500000 0.610475 0.350641
O O12 0.382870 0.500364 0.333679
O O13 0.341975 0.609625 0.403934
O O14 0.500000 0.889155 0.654606
O O15 0.342575 0.890238 0.597842
O O16 0.750000 0.123536 0.500000
O O17 0.750000 0.000000 0.554657
O O18 0.777362 0.750000 0.126987
#
# Coordination Sequence:
#
# PCOD8281118 Si02
#       7
#    16  16  16  16  16  16  16
#     4   9  19  36  56  77 101 130 164 201 244 298
#     4  10  22  37  50  69 100 135 171 210 250 296
#     4   9  19  36  56  77 101 130 164 201 244 298
#     4   9  18  33  53  76 101 131 169 210 249 291
#     4   9  18  33  53  76 101 131 169 210 249 291
#     4   8  14  26  47  78 111 134 156 196 250 302
#     4  11  23  35  50  75 103 131 165 207 254 299
#
# _framework density 18.067906000000001
#
# number of rings (size 3 to 8) (size 9 to 14) (size 15 to 20)
#    0.000    2.714    0.000    3.000    0.000    7.429 
#    0.000   10.000    0.000    6.857    0.000    8.000 
#    0.000    0.000    0.000    0.000    0.000    0.000 
#
# Total GULP energy -694324.099575 kJ/mol
# GULP energy per Si atom -12398.644635 kJ/mol
# Density = 1.802678 g / cm^3
# Si number density = 18.067906 Si / 1000 Ang^3
#
#
#
# Elastic Constant Matrix: (Units=GPa)
#
#
# Indices 1 2 3 4 5 6 
#
# 1 123.7417 28.8606 41.6932 0.0000 0.0000 0.0000
# 2 28.8606 47.2316 37.3840 0.0000 0.0000 0.0000
# 3 41.6932 37.3840 97.4393 0.0000 0.0000 0.0000
# 4 0.0000 0.0000 0.0000 7.3941 0.0000 0.0000
# 5 0.0000 0.0000 0.0000 0.0000 -6.9920 0.0000
# 6 0.0000 0.0000 0.0000 0.0000 0.0000-4046.5115
#
#
#
# Elastic Compliance Matrix: (Units=1/GPa)
#
#
# Indices 1 2 3 4 5 6 
#
# 1 0.009914 -0.003878 -0.002754 0.000000 0.000000 0.000000
# 2 -0.003878 0.031922 -0.010588 0.000000 0.000000 0.000000
# 3 -0.002754 -0.010588 0.015504 0.000000 0.000000 0.000000
# 4 0.000000 0.000000 0.000000 0.135242 0.000000 0.000000
# 5 0.000000 0.000000 0.000000 0.000000 -0.143020 0.000000
# 6 0.000000 0.000000 0.000000 0.000000 0.000000 -0.000247
#
#
# Mechanical properties :
#
#
# Convention : Reuss Voigt Hill
#
# Bulk Modulus (GPa) = 43.66944 53.80981 48.73963
# Shear Modulus (GPa) = 54.71140 -798.52355 -371.90608
#
# Velocity S-wave (km/s) = 5.50879 -21.04558 -14.36262
# Velocity P-wave (km/s) = 8.04266 23.67928 15.74840
#
# Compressibility (1/GPa) = 0.02289931
#
# Stress axis : x y z
#
# Youngs Moduli (GPa) = 100.86974 31.32601 64.50099
#
# Poissons Ratio (x) = 0.12147 0.17765
# Poissons Ratio (y) = 0.39115 0.68295
# Poissons Ratio (z) = 0.27782 0.33169
#
# Static dielectric constant tensor:
#      x y z
#    x 3.410390 0.000000 0.000000 
#    y 0.000000 3.148410 0.000000 
#    z 0.000000 0.000000 3.465150 
# 
# 
# High freq. dielectric constant tensor:
#      x y z
#    x 1.708480 0.000000 0.000000 
#    y 0.000000 1.679620 0.000000 
#    z 0.000000 0.000000 1.700290 
# 
# From -- ./inp_files/41935.got.cif
#   From: 2010.03.12/outbox.cif.g09.slc.cpg/sg67_21_cif.got.tgz:41935.got - 2010.04.10 22:41:39.
