data_PCOD8281294
_publ_section_title
;
Structure prediction by ZEFSAII (Michael W. Deem and Ramdas Pophale) SiO2 
 PCOD8281294
Probable space group: C M M A
;
_chemical_formula_sum "Si O2"
_cell_formula_units_Z 64
_cell_length_a 16.296175
_cell_length_b 10.025460
_cell_length_c 18.535894
_cell_angle_alpha 90.000000
_cell_angle_beta 90.000000
_cell_angle_gamma 90.000000
_cell_volume 3028.332278
_symmetry_space_group_name_H-M "C M M A"
_symmetry_group_IT_number 67
_symmetry_cell_setting 'orthorhombic'
loop_
_space_group_symop_operation_xyz
x,y,z
-x,1/2-y,z
x,-y,-z
-x,1/2+y,-z
-x,-y,-z
x,1/2+y,-z
-x,y,z
x,1/2-y,z
1/2+x,1/2+y,z
1/2-x,-y,z
1/2+x,1/2-y,-z
1/2-x,y,-z
1/2-x,1/2-y,-z
1/2+x,y,-z
1/2-x,1/2+y,z
1/2+x,-y,z
loop_
_atom_site_type_symbol
_atom_site_label
_atom_site_fract_x
_atom_site_fract_y
_atom_site_fract_z
Si Si1 0.403500 0.463835 0.854497
Si Si2 0.837871 0.250000 0.039582
Si Si3 0.092150 0.750000 0.109015
Si Si4 0.677610 0.900972 0.288098
Si Si5 0.096096 0.902702 0.562250
O O1 0.500000 0.454194 0.874379
O O2 0.349952 0.379856 0.911109
O O3 0.367558 0.614832 0.859677
O O4 0.391367 0.409912 0.773765
O O5 0.750000 0.250000 0.000000
O O6 0.906179 0.250000 0.977580
O O7 0.000000 0.750000 0.136894
O O8 0.710874 0.750000 0.293005
O O9 0.638833 0.945395 0.363726
O O10 0.750000 0.000000 0.267233
O O11 0.116010 0.750000 0.540976
O O12 0.000000 0.924255 0.573232
O O13 0.130384 0.000000 0.500000
#
# Coordination Sequence:
#
# PCOD8281294 Si02
#       5
#    16   8   8  16  16
#     4  11  24  44  68  92 128 172 218 265 324 394
#     4  12  26  40  66  96 125 167 214 274 329 387
#     4  10  24  42  62  92 125 161 213 269 323 386
#     4  11  25  41  64  93 131 172 216 265 325 388
#     4   9  19  39  66  96 127 166 217 264 315 383
#
# _framework density 21.133744
#
# number of rings (size 3 to 8) (size 9 to 14) (size 15 to 20)
#    0.000    1.500    1.250    2.625    5.250    5.500 
#    0.000    2.500    0.000    0.000    0.000    0.000 
#    0.000    0.000    0.000    0.000    0.000    0.000 
#
# Total GULP energy -396844.934794 kJ/mol
# GULP energy per Si atom -12401.404212 kJ/mol
# Density = 2.108564 g / cm^3
# Si number density = 21.133744 Si / 1000 Ang^3
#
#
#
# Elastic Constant Matrix: (Units=GPa)
#
#
# Indices 1 2 3 4 5 6 
#
# 1 72.5511 43.6703 37.1664 0.0000 0.0000 0.0000
# 2 43.6703 151.3689 62.2042 0.0000 0.0000 0.0000
# 3 37.1664 62.2042 145.0482 0.0000 0.0000 0.0000
# 4 0.0000 0.0000 0.0000 37.5627 0.0000 0.0000
# 5 0.0000 0.0000 0.0000 0.0000 33.8847 0.0000
# 6 0.0000 0.0000 0.0000 0.0000 0.0000 18.4432
#
#
#
# Elastic Compliance Matrix: (Units=1/GPa)
#
#
# Indices 1 2 3 4 5 6 
#
# 1 0.017587 -0.003911 -0.002829 0.000000 0.000000 0.000000
# 2 -0.003911 0.008890 -0.002810 0.000000 0.000000 0.000000
# 3 -0.002829 -0.002810 0.008824 0.000000 0.000000 0.000000
# 4 0.000000 0.000000 0.000000 0.026622 0.000000 0.000000
# 5 0.000000 0.000000 0.000000 0.000000 0.029512 0.000000
# 6 0.000000 0.000000 0.000000 0.000000 0.000000 0.054221
#
#
# Mechanical properties :
#
#
# Convention : Reuss Voigt Hill
#
# Bulk Modulus (GPa) = 61.72858 72.78333 67.25596
# Shear Modulus (GPa) = 29.38477 33.03994 31.21236
#
# Velocity S-wave (km/s) = 3.73288 3.95824 3.84721
# Velocity P-wave (km/s) = 6.91745 7.44341 7.18525
#
# Compressibility (1/GPa) = 0.01619995
#
# Stress axis : x y z
#
# Youngs Moduli (GPa) = 56.86036 112.49108 113.32372
#
# Poissons Ratio (x) = 0.43999 0.32060
# Poissons Ratio (y) = 0.22240 0.31845
# Poissons Ratio (z) = 0.16086 0.31611
#
# Static dielectric constant tensor:
#      x y z
#    x 3.560820 0.000000 0.000000 
#    y 0.000000 4.166080 0.000000 
#    z 0.000000 0.000000 3.846250 
# 
# 
# High freq. dielectric constant tensor:
#      x y z
#    x 1.813810 0.000000 0.000000 
#    y 0.000000 1.844370 0.000000 
#    z 0.000000 0.000000 1.833870 
# 
# From -- ./inp_files/33446.got.cif
#   From: 2010.03.12/outbox.cif.g09.slc.cpg/sg67_17_cif.got.tgz:33446.got - 2010.04.10 22:41:39.
