data_PCOD8281809
_publ_section_title
;
Structure prediction by ZEFSAII (Michael W. Deem and Ramdas Pophale) SiO2 
 PCOD8281809
Probable space group: C C C A
;
_chemical_formula_sum "Si O2"
_cell_formula_units_Z 72
_cell_length_a 9.157042
_cell_length_b 17.117657
_cell_length_c 23.142019
_cell_angle_alpha 90.000000
_cell_angle_beta 90.000000
_cell_angle_gamma 90.000000
_cell_volume 3627.444461
_symmetry_space_group_name_H-M "C C C A"
_symmetry_group_IT_number 68
_space_group.IT_coordinate_system_code '2'
_symmetry_cell_setting 'orthorhombic'
loop_
_space_group_symop_operation_xyz
x,y,z
-x,1/2-y,z
x,1/2-y,1/2-z
-x,y,1/2-z
-x,-y,-z
x,1/2+y,-z
-x,1/2+y,1/2+z
x,-y,1/2+z
1/2+x,1/2+y,z
1/2-x,-y,z
1/2+x,-y,1/2-z
1/2-x,1/2+y,1/2-z
1/2-x,1/2-y,-z
1/2+x,y,-z
1/2-x,y,1/2+z
1/2+x,1/2-y,1/2+z
loop_
_atom_site_type_symbol
_atom_site_label
_atom_site_fract_x
_atom_site_fract_y
_atom_site_fract_z
Si Si1 0.551500 0.434228 0.370059
Si Si2 0.120742 0.055522 0.525158
Si Si3 0.747440 0.750000 0.250000
Si Si4 0.000000 0.372472 0.750000
Si Si5 0.860234 0.107549 0.097066
Si Si6 0.500000 0.250000 0.657300
O O1 0.439451 0.399048 0.418191
O O2 0.482571 0.426121 0.306567
O O3 0.701354 0.385058 0.373750
O O4 0.572153 0.525346 0.383335
O O5 0.164001 0.113462 0.472561
O O6 0.250000 0.000000 0.546016
O O7 0.000000 0.000000 0.500000
O O8 0.852184 0.676213 0.258424
O O9 0.644120 0.765651 0.304889
O O10 0.969675 0.175316 0.117011
#
# Coordination Sequence:
#
# PCOD8281809 Si02
#       6
#    16  16   8   8  16   8
#     4  10  21  39  65  92 125 162 217 265 315 378
#     4  10  18  36  63  90 124 159 202 265 329 368
#     4  10  24  40  60  86 132 166 200 254 334 382
#     4  11  22  42  62  91 122 162 212 267 310 382
#     4  10  20  40  63  93 124 164 211 265 318 387
#     4  11  22  42  62  88 126 173 202 254 330 385
#
# _framework density 19.848685
#
# number of rings (size 3 to 8) (size 9 to 14) (size 15 to 20)
#    0.000    1.778    6.667    0.000    0.000    5.333 
#    4.000    3.333    0.000    0.000    0.000    0.000 
#    0.000    0.000    0.000    0.000    0.000    0.000 
#
# Total GULP energy -446187.461292 kJ/mol
# GULP energy per Si atom -12394.096147 kJ/mol
# Density = 1.980351 g / cm^3
# Si number density = 19.848685 Si / 1000 Ang^3
#
#
#
# Elastic Constant Matrix: (Units=GPa)
#
#
# Indices 1 2 3 4 5 6 
#
# 1 109.6570 35.6644 48.7626 0.0000 0.0000 0.0000
# 2 35.6644 77.2342 47.6134 0.0000 0.0000 0.0000
# 3 48.7626 47.6134 184.7493 0.0000 0.0000 0.0000
# 4 0.0000 0.0000 0.0000 18.4010 0.0000 0.0000
# 5 0.0000 0.0000 0.0000 0.0000 35.0122 0.0000
# 6 0.0000 0.0000 0.0000 0.0000 0.0000 25.7821
#
#
#
# Elastic Compliance Matrix: (Units=1/GPa)
#
#
# Indices 1 2 3 4 5 6 
#
# 1 0.011290 -0.004014 -0.001945 0.000000 0.000000 0.000000
# 2 -0.004014 0.016820 -0.003275 0.000000 0.000000 0.000000
# 3 -0.001945 -0.003275 0.006770 0.000000 0.000000 0.000000
# 4 0.000000 0.000000 0.000000 0.054345 0.000000 0.000000
# 5 0.000000 0.000000 0.000000 0.000000 0.028562 0.000000
# 6 0.000000 0.000000 0.000000 0.000000 0.000000 0.038787
#
#
# Mechanical properties :
#
#
# Convention : Reuss Voigt Hill
#
# Bulk Modulus (GPa) = 60.93496 70.63571 65.78534
# Shear Modulus (GPa) = 27.69869 31.81238 29.75554
#
# Velocity S-wave (km/s) = 3.73968 4.00777 3.87605
# Velocity P-wave (km/s) = 7.02946 7.55518 7.29706
#
# Compressibility (1/GPa) = 0.01641094
#
# Stress axis : x y z
#
# Youngs Moduli (GPa) = 88.57451 59.45127 147.70281
#
# Poissons Ratio (x) = 0.23864 0.28733
# Poissons Ratio (y) = 0.35554 0.48380
# Poissons Ratio (z) = 0.17231 0.19473
#
# Static dielectric constant tensor:
#      x y z
#    x 3.881950 0.000000 0.000000 
#    y 0.000000 3.181170 0.000000 
#    z 0.000000 0.000000 4.557870 
# 
# 
# High freq. dielectric constant tensor:
#      x y z
#    x 1.787040 0.000000 0.000000 
#    y 0.000000 1.730070 0.000000 
#    z 0.000000 0.000000 1.790120 
# 
# From -- ./inp_files/36086.got.cif
#   From: 2010.03.12/outbox.cif.g09.slc.cpg/sg68_19_cif.got.tgz:36086.got - 2010.04.10 23:14:56.
