data_PCOD8281416
_publ_section_title
;
Structure prediction by ZEFSAII (Michael W. Deem and Ramdas Pophale) SiO2 
 PCOD8281416
Probable space group: C M M A
;
_chemical_formula_sum "Si O2"
_cell_formula_units_Z 96
_cell_length_a 20.126313
_cell_length_b 8.784001
_cell_length_c 29.987061
_cell_angle_alpha 90.000000
_cell_angle_beta 90.000000
_cell_angle_gamma 90.000000
_cell_volume 5301.399126
_symmetry_space_group_name_H-M "C M M A"
_symmetry_group_IT_number 67
_symmetry_cell_setting 'orthorhombic'
loop_
_space_group_symop_operation_xyz
x,y,z
-x,1/2-y,z
x,-y,-z
-x,1/2+y,-z
-x,-y,-z
x,1/2+y,-z
-x,y,z
x,1/2-y,z
1/2+x,1/2+y,z
1/2-x,-y,z
1/2+x,1/2-y,-z
1/2-x,y,-z
1/2-x,1/2-y,-z
1/2+x,y,-z
1/2-x,1/2+y,z
1/2+x,-y,z
loop_
_atom_site_type_symbol
_atom_site_label
_atom_site_fract_x
_atom_site_fract_y
_atom_site_fract_z
Si Si1 0.819109 0.069671 0.281491
Si Si2 0.924847 0.070003 0.453732
Si Si3 0.319062 0.070140 0.047768
Si Si4 0.819156 0.570252 0.617557
Si Si5 0.077465 0.926263 0.887720
Si Si6 0.073100 0.069536 0.213044
O O1 0.814527 0.250000 0.277722
O O2 0.835529 0.018094 0.331992
O O3 0.875497 0.001873 0.248944
O O4 0.750000 0.000000 0.265277
O O5 0.920998 0.250000 0.457769
O O6 0.878082 0.009433 0.414002
O O7 0.000000 0.015823 0.443427
O O8 0.899189 0.000000 0.500000
O O9 0.311054 0.250000 0.043203
O O10 0.250000 0.000000 0.065981
O O11 0.378815 0.032531 0.080943
O O12 0.336869 0.000000 0.000000
O O13 0.812597 0.750000 0.614549
O O14 0.750000 0.500000 0.600940
O O15 0.095373 0.750000 0.896102
O O16 0.094470 0.974422 0.837029
O O17 0.000000 0.955261 0.897929
O O18 0.070126 0.250000 0.217095
O O19 0.000000 0.002330 0.223666
#
# Coordination Sequence:
#
# PCOD8281416 Si02
#       6
#    16  16  16  16  16  16
#     4   9  17  30  48  70  96 125 158 195 236 281
#     4   9  18  32  48  67  91 119 153 193 236 281
#     4  11  22  37  56  77 103 133 168 208 250 296
#     4   9  18  31  47  68  94 123 155 194 236 280
#     4   9  18  34  54  76 104 135 167 204 245 291
#     4   8  15  29  50  74  98 126 161 199 237 279
#
# _framework density 18.108426999999999
#
# number of rings (size 3 to 8) (size 9 to 14) (size 15 to 20)
#    0.000    2.833    0.000    3.000    0.000    3.000 
#    0.000    7.500    0.000    1.500    0.000    4.667 
#    0.000    0.000    0.000    0.000    0.000    0.000 
#
# Total GULP energy -595148.663391 kJ/mol
# GULP energy per Si atom -12398.930487 kJ/mol
# Density = 1.806721 g / cm^3
# Si number density = 18.108427 Si / 1000 Ang^3
#
#
#
# Elastic Constant Matrix: (Units=GPa)
#
#
# Indices 1 2 3 4 5 6 
#
# 1 131.4962 35.9484 96.6004 0.0000 0.0000 0.0000
# 2 35.9484 49.4257 33.7577 0.0000 0.0000 0.0000
# 3 96.6004 33.7577 121.3603 0.0000 0.0000 0.0000
# 4 0.0000 0.0000 0.0000 21.0372 0.0000 0.0000
# 5 0.0000 0.0000 0.0000 0.0000 39.8611 0.0000
# 6 0.0000 0.0000 0.0000 0.0000 0.0000 27.4945
#
#
#
# Elastic Compliance Matrix: (Units=1/GPa)
#
#
# Indices 1 2 3 4 5 6 
#
# 1 0.019031 -0.004315 -0.013948 0.000000 0.000000 0.000000
# 2 -0.004315 0.025956 -0.003785 0.000000 0.000000 0.000000
# 3 -0.013948 -0.003785 0.020395 0.000000 0.000000 0.000000
# 4 0.000000 0.000000 0.000000 0.047535 0.000000 0.000000
# 5 0.000000 0.000000 0.000000 0.000000 0.025087 0.000000
# 6 0.000000 0.000000 0.000000 0.000000 0.000000 0.036371
#
#
# Mechanical properties :
#
#
# Convention : Reuss Voigt Hill
#
# Bulk Modulus (GPa) = 46.98010 70.54389 58.76199
# Shear Modulus (GPa) = 22.16634 26.74361 24.45497
#
# Velocity S-wave (km/s) = 3.50249 3.84716 3.67887
# Velocity P-wave (km/s) = 6.50820 7.66650 7.11097
#
# Compressibility (1/GPa) = 0.02128561
#
# Stress axis : x y z
#
# Youngs Moduli (GPa) = 52.54574 38.52644 49.03127
#
# Poissons Ratio (x) = 0.16625 0.68389
# Poissons Ratio (y) = 0.22675 0.18559
# Poissons Ratio (z) = 0.73291 0.14583
#
# Static dielectric constant tensor:
#      x y z
#    x 3.582470 0.000000 0.000000 
#    y 0.000000 3.068250 0.000000 
#    z 0.000000 0.000000 3.499070 
# 
# 
# High freq. dielectric constant tensor:
#      x y z
#    x 1.706150 0.000000 0.000000 
#    y 0.000000 1.677960 0.000000 
#    z 0.000000 0.000000 1.704100 
# 
# From -- ./inp_files/43488.got.cif
#   From: 2010.03.12/outbox.cif.g09.slc.cpg/sg67_22_cif.got.tgz:43488.got - 2010.04.10 22:41:39.
