data_PCOD8281135
_publ_section_title
;
Structure prediction by ZEFSAII (Michael W. Deem and Ramdas Pophale) SiO2 
 PCOD8281135
Probable space group: C M M A
;
_chemical_formula_sum "Si O2"
_cell_formula_units_Z 96
_cell_length_a 19.668184
_cell_length_b 17.419769
_cell_length_c 14.651073
_cell_angle_alpha 90.000000
_cell_angle_beta 90.000000
_cell_angle_gamma 90.000000
_cell_volume 5019.680627
_symmetry_space_group_name_H-M "C M M A"
_symmetry_group_IT_number 67
_symmetry_cell_setting 'orthorhombic'
loop_
_space_group_symop_operation_xyz
x,y,z
-x,1/2-y,z
x,-y,-z
-x,1/2+y,-z
-x,-y,-z
x,1/2+y,-z
-x,y,z
x,1/2-y,z
1/2+x,1/2+y,z
1/2-x,-y,z
1/2+x,1/2-y,-z
1/2-x,y,-z
1/2-x,1/2-y,-z
1/2+x,y,-z
1/2-x,1/2+y,z
1/2+x,-y,z
loop_
_atom_site_type_symbol
_atom_site_label
_atom_site_fract_x
_atom_site_fract_y
_atom_site_fract_z
Si Si1 0.925219 0.340272 0.928613
Si Si2 0.186136 0.337338 0.065227
Si Si3 0.184378 0.336571 0.387457
Si Si4 0.683196 0.050360 0.767700
Si Si5 0.656395 0.336544 0.408922
Si Si6 0.920189 0.922562 0.253011
O O1 0.921955 0.250000 0.935486
O O2 0.905329 0.359940 0.824925
O O3 0.000000 0.372920 0.950951
O O4 0.875290 0.373174 0.005727
O O5 0.171961 0.250000 0.100645
O O6 0.200107 0.394685 0.147808
O O7 0.250000 0.336183 0.000000
O O8 0.160656 0.250000 0.364027
O O9 0.157390 0.397338 0.315457
O O10 0.265490 0.340458 0.380987
O O11 0.153025 0.360864 0.484994
O O12 0.750000 0.000000 0.744624
O O13 0.617699 0.997800 0.784566
O O14 0.628551 0.250000 0.395786
O O15 0.611321 0.393938 0.348609
O O16 0.000000 0.939056 0.266923
#
# Coordination Sequence:
#
# PCOD8281135 Si02
#       6
#    16  16  16  16  16  16
#     4   9  19  37  59  81 109 149 194 236 284 343
#     4  10  22  38  58  83 111 147 196 250 294 333
#     4   9  19  37  61  85 109 145 194 238 280 334
#     4  12  23  37  56  84 118 157 190 234 291 354
#     4   9  18  36  61  86 111 145 191 239 281 335
#     4  11  23  37  56  88 123 154 187 236 295 347
#
# _framework density 19.124721999999998
#
# number of rings (size 3 to 8) (size 9 to 14) (size 15 to 20)
#    0.000    2.000    1.667    3.000    0.000    4.667 
#    0.000    3.333    0.000    2.500    0.000    0.000 
#    0.000    0.000    0.000    0.000    0.000    0.000 
#
# Total GULP energy -595043.890392 kJ/mol
# GULP energy per Si atom -12396.747716 kJ/mol
# Density = 1.908119 g / cm^3
# Si number density = 19.124722 Si / 1000 Ang^3
#
#
#
# Elastic Constant Matrix: (Units=GPa)
#
#
# Indices 1 2 3 4 5 6 
#
# 1 64.6050 30.3689 18.9777 0.0000 0.0000 0.0000
# 2 30.3689 65.1278 39.2303 0.0000 0.0000 0.0000
# 3 18.9777 39.2303 83.3771 0.0000 0.0000 0.0000
# 4 0.0000 0.0000 0.0000 12.5281 0.0000 0.0000
# 5 0.0000 0.0000 0.0000 0.0000 30.5295 0.0000
# 6 0.0000 0.0000 0.0000 0.0000 0.0000 -18.1915
#
#
#
# Elastic Compliance Matrix: (Units=1/GPa)
#
#
# Indices 1 2 3 4 5 6 
#
# 1 0.019827 -0.009108 -0.000227 0.000000 0.000000 0.000000
# 2 -0.009108 0.025612 -0.009978 0.000000 0.000000 0.000000
# 3 -0.000227 -0.009978 0.016740 0.000000 0.000000 0.000000
# 4 0.000000 0.000000 0.000000 0.079820 0.000000 0.000000
# 5 0.000000 0.000000 0.000000 0.000000 0.032755 0.000000
# 6 0.000000 0.000000 0.000000 0.000000 0.000000 -0.054971
#
#
# Mechanical properties :
#
#
# Convention : Reuss Voigt Hill
#
# Bulk Modulus (GPa) = 42.45854 43.36265 42.91059
# Shear Modulus (GPa) = 30.07321 13.27541 21.67431
#
# Velocity S-wave (km/s) = 3.96975 2.63753 3.37012
# Velocity P-wave (km/s) = 6.57731 5.65670 6.13430
#
# Compressibility (1/GPa) = 0.02355239
#
# Stress axis : x y z
#
# Youngs Moduli (GPa) = 50.43613 39.04457 59.73703
#
# Poissons Ratio (x) = 0.35564 0.01357
# Poissons Ratio (y) = 0.45939 0.59603
# Poissons Ratio (z) = 0.01146 0.38957
#
# Static dielectric constant tensor:
#      x y z
#    x 3.791040 0.000000 0.000000 
#    y 0.000000 3.621090 0.000000 
#    z 0.000000 0.000000 3.599160 
# 
# 
# High freq. dielectric constant tensor:
#      x y z
#    x 1.727410 0.000000 0.000000 
#    y 0.000000 1.743240 0.000000 
#    z 0.000000 0.000000 1.748170 
# 
# From -- ./inp_files/27219.got.cif
#   From: 2010.03.12/outbox.cif.g09.slc.cpg/sg67_14_cif.got.tgz:27219.got - 2010.04.10 22:41:39.
