data_PCOD8281634
_publ_section_title
;
Structure prediction by ZEFSAII (Michael W. Deem and Ramdas Pophale) SiO2 
 PCOD8281634
Probable space group: C C C A
;
_chemical_formula_sum "Si O2"
_cell_formula_units_Z 128
_cell_length_a 18.778276
_cell_length_b 23.927810
_cell_length_c 17.303765
_cell_angle_alpha 90.000000
_cell_angle_beta 90.000000
_cell_angle_gamma 90.000000
_cell_volume 7774.979952
_symmetry_space_group_name_H-M "C C C A"
_symmetry_group_IT_number 68
_space_group.IT_coordinate_system_code '2'
_symmetry_cell_setting 'orthorhombic'
loop_
_space_group_symop_operation_xyz
x,y,z
-x,1/2-y,z
x,1/2-y,1/2-z
-x,y,1/2-z
-x,-y,-z
x,1/2+y,-z
-x,1/2+y,1/2+z
x,-y,1/2+z
1/2+x,1/2+y,z
1/2-x,-y,z
1/2+x,-y,1/2-z
1/2-x,1/2+y,1/2-z
1/2-x,1/2-y,-z
1/2+x,y,-z
1/2-x,y,1/2+z
1/2+x,1/2-y,1/2+z
loop_
_atom_site_type_symbol
_atom_site_label
_atom_site_fract_x
_atom_site_fract_y
_atom_site_fract_z
Si Si1 0.598245 0.853509 0.595704
Si Si2 0.172274 0.025532 0.325108
Si Si3 0.346875 0.450949 0.510198
Si Si4 0.416347 0.241549 0.163632
Si Si5 0.733054 0.565565 0.182970
Si Si6 0.313960 0.073931 0.521680
Si Si7 0.938100 0.877300 0.394700
Si Si8 0.879062 0.582206 0.250155
O O1 0.612739 0.787148 0.601772
O O2 0.648024 0.879453 0.529903
O O3 0.517181 0.867916 0.573389
O O4 0.614634 0.873571 0.682028
O O5 0.132691 0.051854 0.398853
O O6 0.183982 0.072151 0.259169
O O7 0.250000 0.000000 0.348776
O O8 0.121377 0.978421 0.289108
O O9 0.355991 0.515166 0.483253
O O10 0.266165 0.431176 0.506819
O O11 0.396655 0.410333 0.461493
O O12 0.500000 0.250000 0.171896
O O13 0.382961 0.250000 0.250000
O O14 0.399022 0.181004 0.127194
O O15 0.750000 0.500000 0.165071
O O16 0.690451 0.592742 0.111495
O O17 0.807968 0.595477 0.199415
O O18 0.941887 0.912533 0.313904
#
# Coordination Sequence:
#
# PCOD8281634 Si02
#       8
#    16  16  16  16  16  16  16  16
#     4  11  21  32  52  75 100 131 165 212 254 298
#     4   9  16  28  47  70  96 136 176 193 233 300
#     4  11  18  32  49  74 103 136 164 201 245 309
#     4   9  18  34  51  70  99 136 172 205 250 307
#     4   9  16  28  49  69  94 136 173 198 232 298
#     4  11  18  32  49  73 104 134 168 201 249 302
#     4  11  21  32  52  74 103 132 167 209 257 295
#     4  10  16  29  47  73  97 128 165 198 246 295
#
# _framework density 16.463065
#
# number of rings (size 3 to 8) (size 9 to 14) (size 15 to 20)
#    0.000    2.125    6.250    1.875    0.000    0.500 
#    0.000    0.625    0.000    0.000    0.000    0.000 
#    0.000    3.000    0.000    0.000    0.000    0.000 
#
# Total GULP energy -793029.400597 kJ/mol
# GULP energy per Si atom -12391.084384 kJ/mol
# Density = 1.642559 g / cm^3
# Si number density = 16.463065 Si / 1000 Ang^3
#
#
#
# Elastic Constant Matrix: (Units=GPa)
#
#
# Indices 1 2 3 4 5 6 
#
# 1 35.2262 30.9968 26.6030 0.0000 0.0000 0.0000
# 2 30.9968 78.7799 40.1485 0.0000 0.0000 0.0000
# 3 26.6030 40.1485 143.5623 0.0000 0.0000 0.0000
# 4 0.0000 0.0000 0.0000 20.7106 0.0000 0.0000
# 5 0.0000 0.0000 0.0000 0.0000 7.6930 0.0000
# 6 0.0000 0.0000 0.0000 0.0000 0.0000 16.4867
#
#
#
# Elastic Compliance Matrix: (Units=1/GPa)
#
#
# Indices 1 2 3 4 5 6 
#
# 1 0.045287 -0.015793 -0.003975 0.000000 0.000000 0.000000
# 2 -0.015793 0.020311 -0.002754 0.000000 0.000000 0.000000
# 3 -0.003975 -0.002754 0.008472 0.000000 0.000000 0.000000
# 4 0.000000 0.000000 0.000000 0.048284 0.000000 0.000000
# 5 0.000000 0.000000 0.000000 0.000000 0.129989 0.000000
# 6 0.000000 0.000000 0.000000 0.000000 0.000000 0.060655
#
#
# Mechanical properties :
#
#
# Convention : Reuss Voigt Hill
#
# Bulk Modulus (GPa) = 34.45118 50.34056 42.39587
# Shear Modulus (GPa) = 13.59744 19.63273 16.61509
#
# Velocity S-wave (km/s) = 2.87703 3.45705 3.18029
# Velocity P-wave (km/s) = 5.65758 6.82490 6.26847
#
# Compressibility (1/GPa) = 0.02902658
#
# Stress axis : x y z
#
# Youngs Moduli (GPa) = 22.08159 49.23524 118.03109
#
# Poissons Ratio (x) = 0.77755 0.46922
# Poissons Ratio (y) = 0.34872 0.32501
# Poissons Ratio (z) = 0.08778 0.13557
#
# Static dielectric constant tensor:
#      x y z
#    x 2.899170 0.000000 0.000000 
#    y 0.000000 3.065540 0.000000 
#    z 0.000000 0.000000 3.385160 
# 
# 
# High freq. dielectric constant tensor:
#      x y z
#    x 1.601760 0.000000 0.000000 
#    y 0.000000 1.601910 0.000000 
#    z 0.000000 0.000000 1.647530 
# 
# From -- ./inp_files/32395.got.cif
#   From: 2010.03.12/outbox.cif.g09.slc.cpg/sg68_17_cif.got.tgz:32395.got - 2010.04.10 23:14:56.
