data_PCOD8281134
_publ_section_title
;
Structure prediction by ZEFSAII (Michael W. Deem and Ramdas Pophale) SiO2 
 PCOD8281134
Probable space group: C M M A
;
_chemical_formula_sum "Si O2"
_cell_formula_units_Z 80
_cell_length_a 18.513070
_cell_length_b 24.792979
_cell_length_c 8.848967
_cell_angle_alpha 90.000000
_cell_angle_beta 90.000000
_cell_angle_gamma 90.000000
_cell_volume 4061.624137
_symmetry_space_group_name_H-M "C M M A"
_symmetry_group_IT_number 67
_symmetry_cell_setting 'orthorhombic'
loop_
_space_group_symop_operation_xyz
x,y,z
-x,1/2-y,z
x,-y,-z
-x,1/2+y,-z
-x,-y,-z
x,1/2+y,-z
-x,y,z
x,1/2-y,z
1/2+x,1/2+y,z
1/2-x,-y,z
1/2+x,1/2-y,-z
1/2-x,y,-z
1/2-x,1/2-y,-z
1/2+x,y,-z
1/2-x,1/2+y,z
1/2+x,-y,z
loop_
_atom_site_type_symbol
_atom_site_label
_atom_site_fract_x
_atom_site_fract_y
_atom_site_fract_z
Si Si1 0.418155 0.059297 0.045332
Si Si2 0.778988 0.688372 0.330116
Si Si3 0.323953 0.558856 0.436711
Si Si4 0.302384 0.896276 0.132116
Si Si5 0.916928 0.880948 0.348329
O O1 0.500000 0.062407 0.992753
O O2 0.409267 0.071642 0.223623
O O3 0.379266 0.107836 0.952672
O O4 0.387120 0.000000 0.000000
O O5 0.779116 0.750000 0.277440
O O6 0.750000 0.682871 0.500000
O O7 0.724901 0.658058 0.213342
O O8 0.861392 0.667394 0.311987
O O9 0.333183 0.500000 0.500000
O O10 0.250000 0.586175 0.500000
O O11 0.314939 0.557245 0.257068
O O12 0.392814 0.593677 0.491010
O O13 0.250000 0.917327 0.000000
O O14 0.000000 0.859995 0.358428
#
# Coordination Sequence:
#
# PCOD8281134 Si02
#       5
#    16  16  16  16  16
#     4  10  22  38  57  89 132 168 199 242 305 375
#     4  11  23  44  65  85 116 156 209 269 318 367
#     4  11  21  36  58  89 125 158 204 249 289 367
#     4  12  21  38  63  92 120 162 205 252 313 359
#     4  11  21  40  61  85 122 162 206 250 306 375
#
# _framework density 19.696553999999999
#
# number of rings (size 3 to 8) (size 9 to 14) (size 15 to 20)
#    0.000    1.000    6.000    1.200    0.000    4.000 
#    0.000    0.000    0.000    0.600    0.000    0.000 
#    0.000    0.000    0.000    0.000    0.000    0.000 
#
# Total GULP energy -495625.214911 kJ/mol
# GULP energy per Si atom -12390.630373 kJ/mol
# Density = 1.965172 g / cm^3
# Si number density = 19.696554 Si / 1000 Ang^3
#
#
#
# Elastic Constant Matrix: (Units=GPa)
#
#
# Indices 1 2 3 4 5 6 
#
# 1 129.4621 54.2386 46.4227 0.0000 0.0000 0.0000
# 2 54.2386 113.8802 41.2633 0.0000 0.0000 0.0000
# 3 46.4227 41.2633 129.2260 0.0000 0.0000 0.0000
# 4 0.0000 0.0000 0.0000 27.6689 0.0000 0.0000
# 5 0.0000 0.0000 0.0000 0.0000 33.6175 0.0000
# 6 0.0000 0.0000 0.0000 0.0000 0.0000 15.0800
#
#
#
# Elastic Compliance Matrix: (Units=1/GPa)
#
#
# Indices 1 2 3 4 5 6 
#
# 1 0.010271 -0.004020 -0.002406 0.000000 0.000000 0.000000
# 2 -0.004020 0.011504 -0.002229 0.000000 0.000000 0.000000
# 3 -0.002406 -0.002229 0.009315 0.000000 0.000000 0.000000
# 4 0.000000 0.000000 0.000000 0.036142 0.000000 0.000000
# 5 0.000000 0.000000 0.000000 0.000000 0.029746 0.000000
# 6 0.000000 0.000000 0.000000 0.000000 0.000000 0.066313
#
#
# Mechanical properties :
#
#
# Convention : Reuss Voigt Hill
#
# Bulk Modulus (GPa) = 72.57574 72.93527 72.75550
# Shear Modulus (GPa) = 26.99869 30.64952 28.82411
#
# Velocity S-wave (km/s) = 3.70636 3.94900 3.82960
# Velocity P-wave (km/s) = 7.43256 7.60938 7.52149
#
# Compressibility (1/GPa) = 0.01377871
#
# Stress axis : x y z
#
# Youngs Moduli (GPa) = 97.35833 86.92987 107.35936
#
# Poissons Ratio (x) = 0.34947 0.25832
# Poissons Ratio (y) = 0.39140 0.23931
# Poissons Ratio (z) = 0.23426 0.19377
#
# Static dielectric constant tensor:
#      x y z
#    x 3.794740 0.000000 0.000000 
#    y 0.000000 3.478530 0.000000 
#    z 0.000000 0.000000 3.808790 
# 
# 
# High freq. dielectric constant tensor:
#      x y z
#    x 1.770080 0.000000 0.000000 
#    y 0.000000 1.740950 0.000000 
#    z 0.000000 0.000000 1.779060 
# 
# From -- ./inp_files/9951.got.cif
#   From: 2010.03.12/outbox.cif.g09.slc.cpg/sg67_5_cif.got.tgz:9951.got - 2010.04.10 22:41:39.
