data_PCOD8281234
_publ_section_title
;
Structure prediction by ZEFSAII (Michael W. Deem and Ramdas Pophale) SiO2 
 PCOD8281234
Probable space group: C M M A
;
_chemical_formula_sum "Si O2"
_cell_formula_units_Z 64
_cell_length_a 23.326733
_cell_length_b 18.522202
_cell_length_c 7.020862
_cell_angle_alpha 90.000000
_cell_angle_beta 90.000000
_cell_angle_gamma 90.000000
_cell_volume 3033.450911
_symmetry_space_group_name_H-M "C M M A"
_symmetry_group_IT_number 67
_symmetry_cell_setting 'orthorhombic'
loop_
_space_group_symop_operation_xyz
x,y,z
-x,1/2-y,z
x,-y,-z
-x,1/2+y,-z
-x,-y,-z
x,1/2+y,-z
-x,y,z
x,1/2-y,z
1/2+x,1/2+y,z
1/2-x,-y,z
1/2+x,1/2-y,-z
1/2-x,y,-z
1/2-x,1/2-y,-z
1/2+x,y,-z
1/2-x,1/2+y,z
1/2+x,-y,z
loop_
_atom_site_type_symbol
_atom_site_label
_atom_site_fract_x
_atom_site_fract_y
_atom_site_fract_z
Si Si1 0.732099 0.171075 0.282131
Si Si2 0.135898 0.578377 0.425146
Si Si3 0.857178 0.834168 0.798709
Si Si4 0.434254 0.578686 0.924204
O O1 0.708460 0.250000 0.212126
O O2 0.750000 0.179444 0.500000
O O3 0.684243 0.108780 0.277835
O O4 0.789262 0.150106 0.160334
O O5 0.155140 0.500000 0.500000
O O6 0.123158 0.629512 0.602480
O O7 0.077823 0.576325 0.301986
O O8 0.868344 0.750000 0.773874
O O9 0.894561 0.862836 0.972545
O O10 0.500000 0.599655 0.960008
O O11 0.418953 0.500000 0.000000
#
# Coordination Sequence:
#
# PCOD8281234 Si02
#       4
#    16  16  16  16
#     4   8  17  35  60  90 128 162 191 245 317 382
#     4  11  21  38  65  97 123 167 210 257 315 381
#     4  10  22  42  65  94 130 166 204 258 324 379
#     4  11  25  44  62  87 124 168 218 265 312 366
#
# _framework density 21.098082000000002
#
# number of rings (size 3 to 8) (size 9 to 14) (size 15 to 20)
#    0.000    2.000    2.500    2.250    0.000    9.500 
#    0.000    3.750    0.000    0.000    0.000    0.000 
#    0.000    0.000    0.000    0.000    0.000    0.000 
#
# Total GULP energy -396736.839259 kJ/mol
# GULP energy per Si atom -12398.026227 kJ/mol
# Density = 2.105006 g / cm^3
# Si number density = 21.098082 Si / 1000 Ang^3
#
#
#
# Elastic Constant Matrix: (Units=GPa)
#
#
# Indices 1 2 3 4 5 6 
#
# 1 83.0935 59.0698 43.2307 0.0000 0.0000 0.0000
# 2 59.0698 141.4269 48.6810 0.0000 0.0000 0.0000
# 3 43.2307 48.6810 67.9527 0.0000 0.0000 0.0000
# 4 0.0000 0.0000 0.0000 28.0046 0.0000 0.0000
# 5 0.0000 0.0000 0.0000 0.0000 37.1681 0.0000
# 6 0.0000 0.0000 0.0000 0.0000 0.0000 12.8219
#
#
#
# Elastic Compliance Matrix: (Units=1/GPa)
#
#
# Indices 1 2 3 4 5 6 
#
# 1 0.020755 -0.005474 -0.009283 0.000000 0.000000 0.000000
# 2 -0.005474 0.010829 -0.004275 0.000000 0.000000 0.000000
# 3 -0.009283 -0.004275 0.023685 0.000000 0.000000 0.000000
# 4 0.000000 0.000000 0.000000 0.035708 0.000000 0.000000
# 5 0.000000 0.000000 0.000000 0.000000 0.026905 0.000000
# 6 0.000000 0.000000 0.000000 0.000000 0.000000 0.077992
#
#
# Mechanical properties :
#
#
# Convention : Reuss Voigt Hill
#
# Bulk Modulus (GPa) = 58.12355 66.04846 62.08601
# Shear Modulus (GPa) = 20.86182 25.03169 22.94675
#
# Velocity S-wave (km/s) = 3.14793 3.44822 3.30149
# Velocity P-wave (km/s) = 6.38918 6.87219 6.63508
#
# Compressibility (1/GPa) = 0.01720473
#
# Stress axis : x y z
#
# Youngs Moduli (GPa) = 48.18028 92.34845 42.22128
#
# Poissons Ratio (x) = 0.50547 0.39194
# Poissons Ratio (y) = 0.26372 0.18051
# Poissons Ratio (z) = 0.44726 0.39482
#
# Static dielectric constant tensor:
#      x y z
#    x 3.863790 0.000000 0.000000 
#    y 0.000000 3.926960 0.000000 
#    z 0.000000 0.000000 3.896530 
# 
# 
# High freq. dielectric constant tensor:
#      x y z
#    x 1.808480 0.000000 0.000000 
#    y 0.000000 1.830460 0.000000 
#    z 0.000000 0.000000 1.837560 
# 
# From -- ./inp_files/9357.got.cif
#   From: 2010.03.12/outbox.cif.g09.slc.cpg/sg67_5_cif.got.tgz:9357.got - 2010.04.10 22:41:39.
