data_PCOD8281712
_publ_section_title
;
Structure prediction by ZEFSAII (Michael W. Deem and Ramdas Pophale) SiO2 
 PCOD8281712
Probable space group: C C C A
;
_chemical_formula_sum "Si O2"
_cell_formula_units_Z 104
_cell_length_a 25.225855
_cell_length_b 20.493588
_cell_length_c 10.155281
_cell_angle_alpha 90.000000
_cell_angle_beta 90.000000
_cell_angle_gamma 90.000000
_cell_volume 5249.958145
_symmetry_space_group_name_H-M "C C C A"
_symmetry_group_IT_number 68
_space_group.IT_coordinate_system_code '2'
_symmetry_cell_setting 'orthorhombic'
loop_
_space_group_symop_operation_xyz
x,y,z
-x,1/2-y,z
x,1/2-y,1/2-z
-x,y,1/2-z
-x,-y,-z
x,1/2+y,-z
-x,1/2+y,1/2+z
x,-y,1/2+z
1/2+x,1/2+y,z
1/2-x,-y,z
1/2+x,-y,1/2-z
1/2-x,1/2+y,1/2-z
1/2-x,1/2-y,-z
1/2+x,y,-z
1/2-x,y,1/2+z
1/2+x,1/2-y,1/2+z
loop_
_atom_site_type_symbol
_atom_site_label
_atom_site_fract_x
_atom_site_fract_y
_atom_site_fract_z
Si Si1 0.903212 0.181596 0.518906
Si Si2 0.162028 0.559196 0.019150
Si Si3 0.185809 0.744901 0.607608
Si Si4 0.000000 0.750000 0.020561
Si Si5 0.554967 0.147238 0.296083
Si Si6 0.738080 0.857669 0.953018
Si Si7 0.150775 0.060696 0.676588
O O1 0.882659 0.110938 0.471339
O O2 0.856956 0.234384 0.501047
O O3 0.957948 0.203834 0.441671
O O4 0.915179 0.179845 0.673408
O O5 0.152657 0.537770 0.170841
O O6 0.220522 0.589471 0.006789
O O7 0.157288 0.498855 0.922447
O O8 0.157969 0.750000 0.750000
O O9 0.235116 0.794991 0.614664
O O10 0.204599 0.671145 0.576618
O O11 0.039755 0.795135 0.104760
O O12 0.500000 0.112276 0.250000
O O13 0.594395 0.094057 0.359206
O O14 0.699051 0.889528 0.846481
#
# Coordination Sequence:
#
# PCOD8281712 Si02
#       7
#    16  16  16   8  16  16  16
#     4   9  18  33  53  80 108 137 176 226 276 328
#     4  10  23  38  55  80 113 148 192 235 272 329
#     4  10  20  34  53  82 117 146 177 228 288 341
#     4  10  17  34  63  84 103 134 180 234 281 336
#     4   9  18  34  59  86 108 138 186 235 277 329
#     4  10  21  35  56  81 109 149 192 229 272 336
#     4  11  22  38  58  82 112 153 193 232 281 332
#
# _framework density 19.809681000000001
#
# number of rings (size 3 to 8) (size 9 to 14) (size 15 to 20)
#    0.000    2.154    0.000    4.385    0.000    7.385 
#    0.000    7.308    0.000    1.846    0.000    0.000 
#    0.000    0.000    0.000    0.000    0.000    0.000 
#
# Total GULP energy -644387.970492 kJ/mol
# GULP energy per Si atom -12392.076356 kJ/mol
# Density = 1.976459 g / cm^3
# Si number density = 19.809681 Si / 1000 Ang^3
#
#
#
# Elastic Constant Matrix: (Units=GPa)
#
#
# Indices 1 2 3 4 5 6 
#
# 1 143.1702 68.3520 42.4963 0.0000 0.0000 0.0000
# 2 68.3520 117.3086 45.5938 0.0000 0.0000 0.0000
# 3 42.4963 45.5938 78.4191 0.0000 0.0000 0.0000
# 4 0.0000 0.0000 0.0000 16.8675 0.0000 0.0000
# 5 0.0000 0.0000 0.0000 0.0000 26.9714 0.0000
# 6 0.0000 0.0000 0.0000 0.0000 0.0000 31.2916
#
#
#
# Elastic Compliance Matrix: (Units=1/GPa)
#
#
# Indices 1 2 3 4 5 6 
#
# 1 0.010084 -0.004847 -0.002647 0.000000 0.000000 0.000000
# 2 -0.004847 0.013343 -0.005131 0.000000 0.000000 0.000000
# 3 -0.002647 -0.005131 0.017170 0.000000 0.000000 0.000000
# 4 0.000000 0.000000 0.000000 0.059286 0.000000 0.000000
# 5 0.000000 0.000000 0.000000 0.000000 0.037076 0.000000
# 6 0.000000 0.000000 0.000000 0.000000 0.000000 0.031957
#
#
# Mechanical properties :
#
#
# Convention : Reuss Voigt Hill
#
# Bulk Modulus (GPa) = 65.15859 72.42025 68.78942
# Shear Modulus (GPa) = 25.09005 27.18980 26.13993
#
# Velocity S-wave (km/s) = 3.56273 3.70882 3.63651
# Velocity P-wave (km/s) = 7.06313 7.41470 7.24105
#
# Compressibility (1/GPa) = 0.01534717
#
# Stress axis : x y z
#
# Youngs Moduli (GPa) = 99.16276 74.94497 58.24273
#
# Poissons Ratio (x) = 0.36327 0.15415
# Poissons Ratio (y) = 0.48066 0.29885
# Poissons Ratio (z) = 0.26245 0.38455
#
# Static dielectric constant tensor:
#      x y z
#    x 4.138070 0.000000 0.000000 
#    y 0.000000 3.623910 0.000000 
#    z 0.000000 0.000000 3.311130 
# 
# 
# High freq. dielectric constant tensor:
#      x y z
#    x 1.787650 0.000000 0.000000 
#    y 0.000000 1.766290 0.000000 
#    z 0.000000 0.000000 1.741160 
# 
# From -- ./inp_files/9016.got.cif
#   From: 2010.03.12/outbox.cif.g09.slc.cpg/sg68_5_cif.got.tgz:9016.got - 2010.04.10 23:14:56.
