data_PCOD8281906
_publ_section_title
;
Structure prediction by ZEFSAII (Michael W. Deem and Ramdas Pophale) SiO2 
 PCOD8281906
Probable space group: C C C A
;
_chemical_formula_sum "Si O2"
_cell_formula_units_Z 96
_cell_length_a 23.395485
_cell_length_b 17.038905
_cell_length_c 12.711079
_cell_angle_alpha 90.000000
_cell_angle_beta 90.000000
_cell_angle_gamma 90.000000
_cell_volume 5067.061229
_symmetry_space_group_name_H-M "C C C A"
_symmetry_group_IT_number 68
_space_group.IT_coordinate_system_code '2'
_symmetry_cell_setting 'orthorhombic'
loop_
_space_group_symop_operation_xyz
x,y,z
-x,1/2-y,z
x,1/2-y,1/2-z
-x,y,1/2-z
-x,-y,-z
x,1/2+y,-z
-x,1/2+y,1/2+z
x,-y,1/2+z
1/2+x,1/2+y,z
1/2-x,-y,z
1/2+x,-y,1/2-z
1/2-x,1/2+y,1/2-z
1/2-x,1/2-y,-z
1/2+x,y,-z
1/2-x,y,1/2+z
1/2+x,1/2-y,1/2+z
loop_
_atom_site_type_symbol
_atom_site_label
_atom_site_fract_x
_atom_site_fract_y
_atom_site_fract_z
Si Si1 0.119043 0.115189 0.128538
Si Si2 0.499225 0.160948 0.875586
Si Si3 0.616862 0.582137 0.361899
Si Si4 0.191673 0.549719 0.054144
Si Si5 0.299805 0.717060 0.638362
Si Si6 0.674089 0.764463 0.082324
O O1 0.054908 0.114579 0.079529
O O2 0.116340 0.068576 0.237209
O O3 0.133118 0.207392 0.150248
O O4 0.170830 0.081490 0.058811
O O5 0.500000 0.250000 0.921055
O O6 0.500000 0.164392 0.750000
O O7 0.443507 0.111328 0.910522
O O8 0.637218 0.500204 0.408876
O O9 0.664094 0.645477 0.392798
O O10 0.250000 0.500000 0.042389
O O11 0.201568 0.621761 0.135153
O O12 0.323387 0.750000 0.750000
O O13 0.338502 0.748082 0.541760
O O14 0.238201 0.755383 0.617533
#
# Coordination Sequence:
#
# PCOD8281906 Si02
#       6
#    16  16  16  16  16  16
#     4  10  21  36  56  81 114 144 182 241 281 332
#     4   9  17  32  58  85 104 138 190 236 286 329
#     4  11  20  35  57  83 115 141 187 239 286 324
#     4  11  24  37  50  86 118 150 191 224 287 353
#     4  10  21  37  55  76 117 155 189 223 269 339
#     4  10  19  33  56  84 104 145 191 227 273 340
#
# _framework density 18.945893000000002
#
# number of rings (size 3 to 8) (size 9 to 14) (size 15 to 20)
#    0.000    1.833    3.333    1.500    0.000    2.667 
#    0.000    0.000    0.000    0.000    0.000    8.167 
#    0.000    0.000    0.000    0.000    0.000    0.000 
#
# Total GULP energy -594918.523022 kJ/mol
# GULP energy per Si atom -12394.135896 kJ/mol
# Density = 1.890277 g / cm^3
# Si number density = 18.945893 Si / 1000 Ang^3
#
#
#
# Elastic Constant Matrix: (Units=GPa)
#
#
# Indices 1 2 3 4 5 6 
#
# 1 98.7573 38.0194 15.3596 0.0000 0.0000 0.0000
# 2 38.0194 91.9085 29.5182 0.0000 0.0000 0.0000
# 3 15.3596 29.5182 50.6858 0.0000 0.0000 0.0000
# 4 0.0000 0.0000 0.0000 20.5784 0.0000 0.0000
# 5 0.0000 0.0000 0.0000 0.0000 19.1531 0.0000
# 6 0.0000 0.0000 0.0000 0.0000 0.0000 30.3142
#
#
#
# Elastic Compliance Matrix: (Units=1/GPa)
#
#
# Indices 1 2 3 4 5 6 
#
# 1 0.012079 -0.004700 -0.000923 0.000000 0.000000 0.000000
# 2 -0.004700 0.015213 -0.007435 0.000000 0.000000 0.000000
# 3 -0.000923 -0.007435 0.024339 0.000000 0.000000 0.000000
# 4 0.000000 0.000000 0.000000 0.048595 0.000000 0.000000
# 5 0.000000 0.000000 0.000000 0.000000 0.052211 0.000000
# 6 0.000000 0.000000 0.000000 0.000000 0.000000 0.032988
#
#
# Mechanical properties :
#
#
# Convention : Reuss Voigt Hill
#
# Bulk Modulus (GPa) = 39.19429 45.23842 42.21635
# Shear Modulus (GPa) = 22.72259 24.57277 23.64768
#
# Velocity S-wave (km/s) = 3.46691 3.60529 3.53678
# Velocity P-wave (km/s) = 6.06286 6.42342 6.24575
#
# Compressibility (1/GPa) = 0.02551392
#
# Stress axis : x y z
#
# Youngs Moduli (GPa) = 82.78931 65.73483 41.08598
#
# Poissons Ratio (x) = 0.30896 0.03792
# Poissons Ratio (y) = 0.38912 0.30548
# Poissons Ratio (z) = 0.07642 0.48875
#
# Static dielectric constant tensor:
#      x y z
#    x 3.541280 0.000000 0.000000 
#    y 0.000000 3.472970 0.000000 
#    z 0.000000 0.000000 3.264600 
# 
# 
# High freq. dielectric constant tensor:
#      x y z
#    x 1.737710 0.000000 0.000000 
#    y 0.000000 1.731640 0.000000 
#    z 0.000000 0.000000 1.706640 
# 
# From -- ./inp_files/16420.got.cif
#   From: 2010.03.12/outbox.cif.g09.slc.cpg/sg68_9_cif.got.tgz:16420.got - 2010.04.10 23:14:56.
