data_PCOD8281344
_publ_section_title
;
Structure prediction by ZEFSAII (Michael W. Deem and Ramdas Pophale) SiO2 
 PCOD8281344
Probable space group: C M M A
;
_chemical_formula_sum "Si O2"
_cell_formula_units_Z 64
_cell_length_a 7.685914
_cell_length_b 17.924986
_cell_length_c 24.399263
_cell_angle_alpha 90.000000
_cell_angle_beta 90.000000
_cell_angle_gamma 90.000000
_cell_volume 3361.484044
_symmetry_space_group_name_H-M "C M M A"
_symmetry_group_IT_number 67
_symmetry_cell_setting 'orthorhombic'
loop_
_space_group_symop_operation_xyz
x,y,z
-x,1/2-y,z
x,-y,-z
-x,1/2+y,-z
-x,-y,-z
x,1/2+y,-z
-x,y,z
x,1/2-y,z
1/2+x,1/2+y,z
1/2-x,-y,z
1/2+x,1/2-y,-z
1/2-x,y,-z
1/2-x,1/2-y,-z
1/2+x,y,-z
1/2-x,1/2+y,z
1/2+x,-y,z
loop_
_atom_site_type_symbol
_atom_site_label
_atom_site_fract_x
_atom_site_fract_y
_atom_site_fract_z
Si Si1 0.000000 0.838280 0.870620
Si Si2 0.796210 0.914391 0.061707
Si Si3 0.808326 0.338194 0.672593
Si Si4 0.202685 0.833954 0.557560
Si Si5 0.500000 0.339000 0.746952
O O1 0.822401 0.865333 0.898661
O O2 0.000000 0.869636 0.808690
O O3 0.000000 0.750000 0.872200
O O4 0.000000 0.899531 0.073672
O O5 0.750000 0.000000 0.071812
O O6 0.750000 0.891005 0.000000
O O7 0.777111 0.250000 0.667651
O O8 0.786960 0.372926 0.611251
O O9 0.669541 0.371099 0.715523
O O10 0.000000 0.357584 0.695011
O O11 0.278276 0.750000 0.553110
O O12 0.250000 0.875565 0.500000
O O13 0.000000 0.833975 0.568009
O O14 0.500000 0.250000 0.747685
#
# Coordination Sequence:
#
# PCOD8281344 Si02
#       5
#     8  16  16  16   8
#     4  11  24  37  55  89 120 147 191 243 280 327
#     4  11  20  39  65  87 114 154 192 228 281 346
#     4   9  15  24  38  51  72 115 160 200 253 313
#     4   9  14  19  28  46  69  95 142 207 255 294
#     4   9  18  32  43  59  95 132 167 209 261 320
#
# _framework density 19.039210000000001
#
# number of rings (size 3 to 8) (size 9 to 14) (size 15 to 20)
#    0.000    2.250    3.750    1.500    0.000    5.000 
#    0.000    2.500    0.000    0.000    0.000    0.000 
#    0.000    0.000    0.000    0.000    0.000    3.750 
#
# Total GULP energy -396601.374225 kJ/mol
# GULP energy per Si atom -12393.792945 kJ/mol
# Density = 1.899588 g / cm^3
# Si number density = 19.039210 Si / 1000 Ang^3
#
#
#
# Elastic Constant Matrix: (Units=GPa)
#
#
# Indices 1 2 3 4 5 6 
#
# 1 177.7430 21.0527 87.1702 0.0000 0.0000 0.0000
# 2 21.0527 18.7178 33.9414 0.0000 0.0000 0.0000
# 3 87.1702 33.9414 173.5391 0.0000 0.0000 0.0000
# 4 0.0000 0.0000 0.0000 -2.5921 0.0000 0.0000
# 5 0.0000 0.0000 0.0000 0.0000 314.9370 0.0000
# 6 0.0000 0.0000 0.0000 0.0000 0.0000 12.4845
#
#
#
# Elastic Compliance Matrix: (Units=1/GPa)
#
#
# Indices 1 2 3 4 5 6 
#
# 1 0.007540 -0.002499 -0.003299 0.000000 0.000000 0.000000
# 2 -0.002499 0.083614 -0.015098 0.000000 0.000000 0.000000
# 3 -0.003299 -0.015098 0.010372 0.000000 0.000000 0.000000
# 4 0.000000 0.000000 0.000000 -0.385791 0.000000 0.000000
# 5 0.000000 0.000000 0.000000 0.000000 0.003175 0.000000
# 6 0.000000 0.000000 0.000000 0.000000 0.000000 0.080100
#
#
# Mechanical properties :
#
#
# Convention : Reuss Voigt Hill
#
# Bulk Modulus (GPa) = 16.74080 72.70315 44.72198
# Shear Modulus (GPa) = -35.89697 80.15492 22.12898
#
# Velocity S-wave (km/s) = -4.34686 6.49548 3.41293
# Velocity P-wave (km/s) = 4.04743 9.72235 6.25069
#
# Compressibility (1/GPa) = 0.05973429
#
# Stress axis : x y z
#
# Youngs Moduli (GPa) = 132.62966 11.95976 96.41127
#
# Poissons Ratio (x) = 0.02989 0.31802
# Poissons Ratio (y) = 0.33144 1.45564
# Poissons Ratio (z) = 0.43748 0.18057
#
# Static dielectric constant tensor:
#      x y z
#    x 3.475790 0.000000 0.000000 
#    y 0.000000 2.734300 0.000000 
#    z 0.000000 0.000000 3.789330 
# 
# 
# High freq. dielectric constant tensor:
#      x y z
#    x 1.759770 0.000000 0.000000 
#    y 0.000000 1.650570 0.000000 
#    z 0.000000 0.000000 1.752690 
# 
# From -- ./inp_files/40561.got.cif
#   From: 2010.03.12/outbox.cif.g09.slc.cpg/sg67_21_cif.got.tgz:40561.got - 2010.04.10 22:41:39.
