data_PCOD8281976
_publ_section_title
;
Structure prediction by ZEFSAII (Michael W. Deem and Ramdas Pophale) SiO2 
 PCOD8281976
Probable space group: C C C A
;
_chemical_formula_sum "Si O2"
_cell_formula_units_Z 96
_cell_length_a 16.468104
_cell_length_b 10.985941
_cell_length_c 28.833969
_cell_angle_alpha 90.000000
_cell_angle_beta 90.000000
_cell_angle_gamma 90.000000
_cell_volume 5216.573016
_symmetry_space_group_name_H-M "C C C A"
_symmetry_group_IT_number 68
_space_group.IT_coordinate_system_code '2'
_symmetry_cell_setting 'orthorhombic'
loop_
_space_group_symop_operation_xyz
x,y,z
-x,1/2-y,z
x,1/2-y,1/2-z
-x,y,1/2-z
-x,-y,-z
x,1/2+y,-z
-x,1/2+y,1/2+z
x,-y,1/2+z
1/2+x,1/2+y,z
1/2-x,-y,z
1/2+x,-y,1/2-z
1/2-x,1/2+y,1/2-z
1/2-x,1/2-y,-z
1/2+x,y,-z
1/2-x,y,1/2+z
1/2+x,1/2-y,1/2+z
loop_
_atom_site_type_symbol
_atom_site_label
_atom_site_fract_x
_atom_site_fract_y
_atom_site_fract_z
Si Si1 0.235596 0.135140 0.868490
Si Si2 0.453496 0.637108 0.631091
Si Si3 0.532719 0.879140 0.525625
Si Si4 0.639915 0.742946 0.198706
Si Si5 0.995445 0.933347 0.800847
Si Si6 0.277191 0.629329 0.525818
O O1 0.141382 0.168800 0.864989
O O2 0.291381 0.229102 0.839673
O O3 0.260638 0.138777 0.922515
O O4 0.250000 0.000000 0.848178
O O5 0.500000 0.750000 0.653586
O O6 0.488820 0.612418 0.579775
O O7 0.477795 0.520385 0.658936
O O8 0.500000 0.750000 0.504613
O O9 0.627797 0.874627 0.522273
O O10 0.500000 0.000000 0.500000
O O11 0.680885 0.750000 0.250000
O O12 0.597278 0.612037 0.189183
O O13 0.562758 0.829620 0.198086
O O14 0.000000 0.995827 0.750000
O O15 0.250000 0.500000 0.503211
O O16 0.250000 0.750000 0.500000
#
# Coordination Sequence:
#
# PCOD8281976 Si02
#       6
#    16  16  16  16  16  16
#     4  10  19  36  58  79 109 149 186 223 278 339
#     4  10  21  37  54  80 116 147 178 228 283 332
#     4  10  21  38  57  81 114 148 188 233 279 332
#     4   9  18  35  57  82 107 137 186 235 268 316
#     4   9  18  35  57  80 108 141 181 229 273 325
#     4  10  21  36  57  83 112 147 188 232 282 334
#
# _framework density 18.402885999999999
#
# number of rings (size 3 to 8) (size 9 to 14) (size 15 to 20)
#    0.000    2.333    1.667    2.000    0.000    1.667 
#    6.000    0.833    0.000    0.000    0.000    0.000 
#    0.000    0.000    0.000    0.000    0.000    0.000 
#
# Total GULP energy -594766.237240 kJ/mol
# GULP energy per Si atom -12390.963276 kJ/mol
# Density = 1.836100 g / cm^3
# Si number density = 18.402886 Si / 1000 Ang^3
#
#
#
# Elastic Constant Matrix: (Units=GPa)
#
#
# Indices 1 2 3 4 5 6 
#
# 1 67.3429 24.7727 33.5822 0.0000 0.0000 0.0000
# 2 24.7727 96.9286 42.6840 0.0000 0.0000 0.0000
# 3 33.5822 42.6840 78.7897 0.0000 0.0000 0.0000
# 4 0.0000 0.0000 0.0000 403.3837 0.0000 0.0000
# 5 0.0000 0.0000 0.0000 0.0000 75.3782 0.0000
# 6 0.0000 0.0000 0.0000 0.0000 0.0000 25.8333
#
#
#
# Elastic Compliance Matrix: (Units=1/GPa)
#
#
# Indices 1 2 3 4 5 6 
#
# 1 0.019068 -0.001700 -0.007206 0.000000 0.000000 0.000000
# 2 -0.001700 0.013701 -0.006698 0.000000 0.000000 0.000000
# 3 -0.007206 -0.006698 0.019392 0.000000 0.000000 0.000000
# 4 0.000000 0.000000 0.000000 0.002479 0.000000 0.000000
# 5 0.000000 0.000000 0.000000 0.000000 0.013266 0.000000
# 6 0.000000 0.000000 0.000000 0.000000 0.000000 0.038710
#
#
# Mechanical properties :
#
#
# Convention : Reuss Voigt Hill
#
# Bulk Modulus (GPa) = 47.72623 49.45988 48.59306
# Shear Modulus (GPa) = 34.52816 110.38718 72.45767
#
# Velocity S-wave (km/s) = 4.33625 7.75331 6.28160
# Velocity P-wave (km/s) = 7.14571 10.34825 8.89234
#
# Compressibility (1/GPa) = 0.02095284
#
# Stress axis : x y z
#
# Youngs Moduli (GPa) = 52.44275 72.98832 51.56735
#
# Poissons Ratio (x) = 0.12408 0.37162
# Poissons Ratio (y) = 0.08915 0.34539
# Poissons Ratio (z) = 0.37793 0.48886
#
# Static dielectric constant tensor:
#      x y z
#    x 3.365960 0.000000 0.000000 
#    y 0.000000 3.273320 0.000000 
#    z 0.000000 0.000000 3.656780 
# 
# 
# High freq. dielectric constant tensor:
#      x y z
#    x 1.716960 0.000000 0.000000 
#    y 0.000000 1.709570 0.000000 
#    z 0.000000 0.000000 1.706010 
# 
# From -- ./inp_files/51385.got.cif
#   From: 2010.03.12/outbox.cif.g09.slc.cpg/sg68_26_cif.got.tgz:51385.got - 2010.04.10 23:14:56.
