data_PCOD8281856
_publ_section_title
;
Structure prediction by ZEFSAII (Michael W. Deem and Ramdas Pophale) SiO2 
 PCOD8281856
Probable space group: C C C A
;
_chemical_formula_sum "Si O2"
_cell_formula_units_Z 68
_cell_length_a 22.771962
_cell_length_b 5.202457
_cell_length_c 28.913864
_cell_angle_alpha 90.000000
_cell_angle_beta 90.000000
_cell_angle_gamma 90.000000
_cell_volume 3425.429895
_symmetry_space_group_name_H-M "C C C A"
_symmetry_group_IT_number 68
_space_group.IT_coordinate_system_code '2'
_symmetry_cell_setting 'orthorhombic'
loop_
_space_group_symop_operation_xyz
x,y,z
-x,1/2-y,z
x,1/2-y,1/2-z
-x,y,1/2-z
-x,-y,-z
x,1/2+y,-z
-x,1/2+y,1/2+z
x,-y,1/2+z
1/2+x,1/2+y,z
1/2-x,-y,z
1/2+x,-y,1/2-z
1/2-x,1/2+y,1/2-z
1/2-x,1/2-y,-z
1/2+x,y,-z
1/2-x,y,1/2+z
1/2+x,1/2-y,1/2+z
loop_
_atom_site_type_symbol
_atom_site_label
_atom_site_fract_x
_atom_site_fract_y
_atom_site_fract_z
Si Si1 0.000000 0.250000 0.250000
Si Si2 0.434061 0.545105 0.519151
Si Si3 0.277887 0.252015 0.802609
Si Si4 0.908532 0.371756 0.177112
Si Si5 0.937080 0.143979 0.626126
O O1 0.956316 0.421634 0.218011
O O2 0.500000 0.500000 0.500000
O O3 0.402371 0.270703 0.510948
O O4 0.429265 0.637156 0.571443
O O5 0.255137 0.250000 0.750000
O O6 0.250000 0.500000 0.828038
O O7 0.347994 0.261622 0.803161
O O8 0.250000 0.000000 0.827418
O O9 0.895167 0.640175 0.149996
O O10 0.931881 0.145967 0.143885
O O11 0.000000 0.250000 0.639853
#
# Coordination Sequence:
#
# PCOD8281856 Si02
#       5
#     4  16  16  16  16
#     4  12  24  38  52  82 124 166 180 220 284 358
#     4  10  19  31  53  74 109 159 184 224 267 341
#     4  10  21  40  62  80 102 148 210 259 281 313
#     4  12  25  38  55  83 122 155 197 229 287 350
#     4  12  22  35  52  83 120 158 180 229 282 349
#
# _framework density 19.851523
#
# number of rings (size 3 to 8) (size 9 to 14) (size 15 to 20)
#    0.000    0.941    5.882    2.824    3.294    1.882 
#    0.000    0.000    0.000    0.000    0.000    0.000 
#    0.000   65.882    0.000    0.000    0.000    0.000 
#
# Total GULP energy -421203.356556 kJ/mol
# GULP energy per Si atom -12388.334016 kJ/mol
# Density = 1.980634 g / cm^3
# Si number density = 19.851523 Si / 1000 Ang^3
#
#
#
# Elastic Constant Matrix: (Units=GPa)
#
#
# Indices 1 2 3 4 5 6 
#
# 1 80.0510 20.7648 17.5614 0.0000 0.0000 0.0000
# 2 20.7648 172.0426 49.8042 0.0000 0.0000 0.0000
# 3 17.5614 49.8042 97.6621 0.0000 0.0000 0.0000
# 4 0.0000 0.0000 0.0000 18.9143 0.0000 0.0000
# 5 0.0000 0.0000 0.0000 0.0000 8.2823 0.0000
# 6 0.0000 0.0000 0.0000 0.0000 0.0000 26.0233
#
#
#
# Elastic Compliance Matrix: (Units=1/GPa)
#
#
# Indices 1 2 3 4 5 6 
#
# 1 0.013168 -0.001060 -0.001827 0.000000 0.000000 0.000000
# 2 -0.001060 0.006905 -0.003330 0.000000 0.000000 0.000000
# 3 -0.001827 -0.003330 0.012266 0.000000 0.000000 0.000000
# 4 0.000000 0.000000 0.000000 0.052870 0.000000 0.000000
# 5 0.000000 0.000000 0.000000 0.000000 0.120740 0.000000
# 6 0.000000 0.000000 0.000000 0.000000 0.000000 0.038427
#
#
# Mechanical properties :
#
#
# Convention : Reuss Voigt Hill
#
# Bulk Modulus (GPa) = 50.24349 58.44627 54.34488
# Shear Modulus (GPa) = 18.97922 28.08566 23.53244
#
# Velocity S-wave (km/s) = 3.09537 3.76544 3.44673
# Velocity P-wave (km/s) = 6.17574 6.95776 6.57838
#
# Compressibility (1/GPa) = 0.01990308
#
# Stress axis : x y z
#
# Youngs Moduli (GPa) = 75.94215 144.83063 81.52403
#
# Poissons Ratio (x) = 0.15358 0.14895
# Poissons Ratio (y) = 0.08053 0.27151
# Poissons Ratio (z) = 0.13875 0.48235
#
# Static dielectric constant tensor:
#      x y z
#    x 3.214160 0.000000 0.000000 
#    y 0.000000 -2.496810 0.000000 
#    z 0.000000 0.000000 3.487880 
# 
# 
# High freq. dielectric constant tensor:
#      x y z
#    x 1.722530 0.000000 0.000000 
#    y 0.000000 1.807810 0.000000 
#    z 0.000000 0.000000 1.754240 
# 
# From -- ./inp_files/48183.got.cif
#   From: 2010.03.12/outbox.cif.g09.slc.cpg/sg68_25_cif.got.tgz:48183.got - 2010.04.10 23:14:56.
