data_PCOD8281873
_publ_section_title
;
Structure prediction by ZEFSAII (Michael W. Deem and Ramdas Pophale) SiO2 
 PCOD8281873
Probable space group: C C C A
;
_chemical_formula_sum "Si O2"
_cell_formula_units_Z 112
_cell_length_a 33.778794
_cell_length_b 33.624096
_cell_length_c 5.112187
_cell_angle_alpha 90.000000
_cell_angle_beta 90.000000
_cell_angle_gamma 90.000000
_cell_volume 5806.326970
_symmetry_space_group_name_H-M "C C C A"
_symmetry_group_IT_number 68
_space_group.IT_coordinate_system_code '2'
_symmetry_cell_setting 'orthorhombic'
loop_
_space_group_symop_operation_xyz
x,y,z
-x,1/2-y,z
x,1/2-y,1/2-z
-x,y,1/2-z
-x,-y,-z
x,1/2+y,-z
-x,1/2+y,1/2+z
x,-y,1/2+z
1/2+x,1/2+y,z
1/2-x,-y,z
1/2+x,-y,1/2-z
1/2-x,1/2+y,1/2-z
1/2-x,1/2-y,-z
1/2+x,y,-z
1/2-x,y,1/2+z
1/2+x,1/2-y,1/2+z
loop_
_atom_site_type_symbol
_atom_site_label
_atom_site_fract_x
_atom_site_fract_y
_atom_site_fract_z
Si Si1 0.910436 0.101777 0.790114
Si Si2 0.905646 0.706120 0.698729
Si Si3 0.725303 0.659456 0.702150
Si Si4 0.637492 0.320558 0.203111
Si Si5 0.546172 0.871096 0.295155
Si Si6 0.358763 0.474380 0.302668
Si Si7 0.774835 0.433855 0.696314
O O1 0.875521 0.133825 0.756644
O O2 0.943749 0.108741 0.571091
O O3 0.892089 0.058519 0.754341
O O4 0.930368 0.105215 0.072752
O O5 0.923088 0.750000 0.750000
O O6 0.883811 0.706494 0.419665
O O7 0.942128 0.675469 0.704835
O O8 0.873496 0.694551 0.916038
O O9 0.745187 0.672206 0.431387
O O10 0.684475 0.683049 0.735667
O O11 0.716158 0.612758 0.708714
O O12 0.500000 0.874598 0.250000
O O13 0.364712 0.490635 0.594337
O O14 0.315417 0.456664 0.263515
O O15 0.755660 0.446518 0.422125
#
# Coordination Sequence:
#
# PCOD8281873 Si02
#       7
#    16  16  16  16  16  16  16
#     4  10  21  39  58  84 113 144 195 226 266 339
#     4  10  21  35  58  89 118 145 174 218 278 341
#     4  10  19  32  54  79 105 143 195 244 275 310
#     4  10  19  36  58  78 111 153 191 228 270 324
#     4  10  21  38  65  89 112 145 176 223 277 331
#     4  12  24  37  57  81 115 155 189 236 286 327
#     4  10  21  35  52  78 113 148 187 236 288 331
#
# _framework density 19.289304000000001
#
# number of rings (size 3 to 8) (size 9 to 14) (size 15 to 20)
#    0.000    1.714    1.429    3.429    0.000    2.000 
#    0.000    0.000    0.000   22.286    0.000    0.000 
#    0.000    0.000    0.000    0.000    0.000    0.000 
#
# Total GULP energy -694695.162343 kJ/mol
# GULP energy per Si atom -12405.270756 kJ/mol
# Density = 1.924540 g / cm^3
# Si number density = 19.289304 Si / 1000 Ang^3
#
#
#
# Elastic Constant Matrix: (Units=GPa)
#
#
# Indices 1 2 3 4 5 6 
#
# 1 80.8046 22.3658 -3.0624 0.0000 0.0000 0.0000
# 2 22.3658 54.3840 1.6204 0.0000 0.0000 0.0000
# 3 -3.0624 1.6204 83.7978 0.0000 0.0000 0.0000
# 4 0.0000 0.0000 0.0000 18.7006 0.0000 0.0000
# 5 0.0000 0.0000 0.0000 0.0000 16.9079 0.0000
# 6 0.0000 0.0000 0.0000 0.0000 0.0000 16.7714
#
#
#
# Elastic Compliance Matrix: (Units=1/GPa)
#
#
# Indices 1 2 3 4 5 6 
#
# 1 0.013998 -0.005775 0.000623 0.000000 0.000000 0.000000
# 2 -0.005775 0.020781 -0.000613 0.000000 0.000000 0.000000
# 3 0.000623 -0.000613 0.011968 0.000000 0.000000 0.000000
# 4 0.000000 0.000000 0.000000 0.053474 0.000000 0.000000
# 5 0.000000 0.000000 0.000000 0.000000 0.059144 0.000000
# 6 0.000000 0.000000 0.000000 0.000000 0.000000 0.059625
#
#
# Mechanical properties :
#
#
# Convention : Reuss Voigt Hill
#
# Bulk Modulus (GPa) = 28.39529 28.98157 28.68843
# Shear Modulus (GPa) = 20.63908 23.68017 22.15963
#
# Velocity S-wave (km/s) = 3.27460 3.50756 3.39308
# Velocity P-wave (km/s) = 5.38981 5.60903 5.50051
#
# Compressibility (1/GPa) = 0.03521711
#
# Stress axis : x y z
#
# Youngs Moduli (GPa) = 71.44049 48.12064 83.55534
#
# Poissons Ratio (x) = 0.27791 -0.05207
# Poissons Ratio (y) = 0.41258 0.05121
# Poissons Ratio (z) = -0.04452 0.02949
#
# Static dielectric constant tensor:
#      x y z
#    x 3.287270 0.000000 0.000000 
#    y 0.000000 3.413840 0.000000 
#    z 0.000000 0.000000 3.755900 
# 
# 
# High freq. dielectric constant tensor:
#      x y z
#    x 1.740110 0.000000 0.000000 
#    y 0.000000 1.736840 0.000000 
#    z 0.000000 0.000000 1.771290 
# 
# From -- ./inp_files/2943.got.cif
#   From: 2010.03.12/outbox.cif.g09.slc.cpg/sg68_2_cif.got.tgz:2943.got - 2010.04.10 23:14:56.
