data_PCOD8281339
_publ_section_title
;
Structure prediction by ZEFSAII (Michael W. Deem and Ramdas Pophale) SiO2 
 PCOD8281339
Probable space group: C M M A
;
_chemical_formula_sum "Si O2"
_cell_formula_units_Z 96
_cell_length_a 8.634015
_cell_length_b 23.829496
_cell_length_c 26.099360
_cell_angle_alpha 90.000000
_cell_angle_beta 90.000000
_cell_angle_gamma 90.000000
_cell_volume 5369.792620
_symmetry_space_group_name_H-M "C M M A"
_symmetry_group_IT_number 67
_symmetry_cell_setting 'orthorhombic'
loop_
_space_group_symop_operation_xyz
x,y,z
-x,1/2-y,z
x,-y,-z
-x,1/2+y,-z
-x,-y,-z
x,1/2+y,-z
-x,y,z
x,1/2-y,z
1/2+x,1/2+y,z
1/2-x,-y,z
1/2+x,1/2-y,-z
1/2-x,y,-z
1/2-x,1/2-y,-z
1/2+x,y,-z
1/2-x,1/2+y,z
1/2+x,-y,z
loop_
_atom_site_type_symbol
_atom_site_label
_atom_site_fract_x
_atom_site_fract_y
_atom_site_fract_z
Si Si1 0.315793 0.438316 0.144444
Si Si2 0.184438 0.750000 0.209670
Si Si3 0.319076 0.561644 0.549715
Si Si4 0.183806 0.631194 0.243422
Si Si5 0.317405 0.938442 0.661804
Si Si6 0.815600 0.250000 0.907146
Si Si7 0.183915 0.865403 0.946026
O O1 0.500000 0.438854 0.138315
O O2 0.250000 0.500000 0.150634
O O3 0.262179 0.404244 0.194504
O O4 0.240149 0.409778 0.095534
O O5 0.248718 0.694660 0.238417
O O6 0.243444 0.750000 0.151318
O O7 0.000000 0.750000 0.209332
O O8 0.500000 0.558390 0.542033
O O9 0.250000 0.500000 0.549629
O O10 0.250000 0.595100 0.500000
O O11 0.276288 0.587646 0.605479
O O12 0.251696 0.603311 0.295229
O O13 0.000000 0.632719 0.246015
O O14 0.500000 0.944469 0.668042
O O15 0.250000 0.000000 0.670010
O O16 0.750823 0.304124 0.935331
O O17 0.000000 0.250000 0.910482
O O18 0.000000 0.863165 0.947253
O O19 0.250000 0.886803 0.000000
#
# Coordination Sequence:
#
# PCOD8281339 Si02
#       7
#    16   8  16  16  16   8  16
#     4  11  22  38  58  81 108 140 174 210 257 314
#     4   9  16  30  56  81 100 129 163 204 252 299
#     4   9  15  23  37  59  90 127 165 204 244 289
#     4   9  17  31  52  77 103 131 167 208 253 304
#     4   9  17  28  44  69 100 132 167 205 246 297
#     4  11  20  38  63  87 110 137 171 212 262 310
#     4  12  25  41  60  84 110 139 174 215 258 307
#
# _framework density 17.877784999999999
#
# number of rings (size 3 to 8) (size 9 to 14) (size 15 to 20)
#    0.000    2.000    1.667    4.000    0.000    1.000 
#    0.000    2.500    0.000    0.000    0.000    0.583 
#    0.000    0.000    0.000    0.000    0.000    0.000 
#
# Total GULP energy -594971.515649 kJ/mol
# GULP energy per Si atom -12395.239909 kJ/mol
# Density = 1.783709 g / cm^3
# Si number density = 17.877785 Si / 1000 Ang^3
#
#
#
# Elastic Constant Matrix: (Units=GPa)
#
#
# Indices 1 2 3 4 5 6 
#
# 1 69.5547 27.8354 44.5057 0.0000 0.0000 0.0000
# 2 27.8354 120.5214 72.6157 0.0000 0.0000 0.0000
# 3 44.5057 72.6157 188.5658 0.0000 0.0000 0.0000
# 4 0.0000 0.0000 0.0000 1.7634 0.0000 0.0000
# 5 0.0000 0.0000 0.0000 0.0000 -0.2083 0.0000
# 6 0.0000 0.0000 0.0000 0.0000 0.0000 47.3076
#
#
#
# Elastic Compliance Matrix: (Units=1/GPa)
#
#
# Indices 1 2 3 4 5 6 
#
# 1 0.017297 -0.001999 -0.003313 0.000000 0.000000 0.000000
# 2 -0.001999 0.011035 -0.003778 0.000000 0.000000 0.000000
# 3 -0.003313 -0.003778 0.007540 0.000000 0.000000 0.000000
# 4 0.000000 0.000000 0.000000 0.567087 0.000000 0.000000
# 5 0.000000 0.000000 0.000000 0.000000 -4.801412 0.000000
# 6 0.000000 0.000000 0.000000 0.000000 0.000000 0.021138
#
#
# Mechanical properties :
#
#
# Convention : Reuss Voigt Hill
#
# Bulk Modulus (GPa) = 56.51936 74.28395 65.40165
# Shear Modulus (GPa) = -1.20388 25.35155 12.07383
#
# Velocity S-wave (km/s) = -0.82150 3.76978 2.60158
# Velocity P-wave (km/s) = 5.54825 7.78393 6.75917
#
# Compressibility (1/GPa) = 0.01769305
#
# Stress axis : x y z
#
# Youngs Moduli (GPa) = 57.81414 90.61993 132.62866
#
# Poissons Ratio (x) = 0.18114 0.43935
# Poissons Ratio (y) = 0.11557 0.50104
# Poissons Ratio (z) = 0.19152 0.34234
#
# Static dielectric constant tensor:
#      x y z
#    x 3.220960 0.000000 0.000000 
#    y 0.000000 3.292340 0.000000 
#    z 0.000000 0.000000 4.221930 
# 
# 
# High freq. dielectric constant tensor:
#      x y z
#    x 1.680770 0.000000 0.000000 
#    y 0.000000 1.664840 0.000000 
#    z 0.000000 0.000000 1.711680 
# 
# From -- ./inp_files/43695.got.cif
#   From: 2010.03.12/outbox.cif.g09.slc.cpg/sg67_22_cif.got.tgz:43695.got - 2010.04.10 22:41:39.
