data_PCOD8281961
_publ_section_title
;
Structure prediction by ZEFSAII (Michael W. Deem and Ramdas Pophale) SiO2 
 PCOD8281961
Probable space group: C C C A
;
_chemical_formula_sum "Si O2"
_cell_formula_units_Z 72
_cell_length_a 24.865608
_cell_length_b 15.696136
_cell_length_c 8.725334
_cell_angle_alpha 90.000000
_cell_angle_beta 90.000000
_cell_angle_gamma 90.000000
_cell_volume 3405.445202
_symmetry_space_group_name_H-M "C C C A"
_symmetry_group_IT_number 68
_space_group.IT_coordinate_system_code '2'
_symmetry_cell_setting 'orthorhombic'
loop_
_space_group_symop_operation_xyz
x,y,z
-x,1/2-y,z
x,1/2-y,1/2-z
-x,y,1/2-z
-x,-y,-z
x,1/2+y,-z
-x,1/2+y,1/2+z
x,-y,1/2+z
1/2+x,1/2+y,z
1/2-x,-y,z
1/2+x,-y,1/2-z
1/2-x,1/2+y,1/2-z
1/2-x,1/2-y,-z
1/2+x,y,-z
1/2-x,y,1/2+z
1/2+x,1/2-y,1/2+z
loop_
_atom_site_type_symbol
_atom_site_label
_atom_site_fract_x
_atom_site_fract_y
_atom_site_fract_z
Si Si1 0.250000 0.000000 0.767942
Si Si2 0.007569 0.127053 0.414062
Si Si3 0.578558 0.460085 0.401016
Si Si4 0.592352 0.328801 0.139683
Si Si5 0.323809 0.936182 0.509223
O O1 0.205356 0.047306 0.669459
O O2 0.279370 0.070756 0.875207
O O3 0.040323 0.188087 0.532074
O O4 0.000000 0.173597 0.250000
O O5 0.949272 0.107187 0.484694
O O6 0.041338 0.041920 0.379838
O O7 0.583533 0.416145 0.234562
O O8 0.636509 0.485037 0.468580
O O9 0.603630 0.250000 0.250000
O O10 0.643639 0.347286 0.029230
#
# Coordination Sequence:
#
# PCOD8281961 Si02
#       5
#     8  16  16  16  16
#     4  10  20  36  66  92 110 156 218 270 300 362
#     4  10  20  34  61  87 115 160 213 249 293 367
#     4  10  19  35  59  88 120 159 202 251 299 371
#     4  11  23  39  58  89 132 166 196 251 323 379
#     4  10  20  37  63  89 119 155 211 259 311 365
#
# _framework density 21.142610000000001
#
# number of rings (size 3 to 8) (size 9 to 14) (size 15 to 20)
#    0.000    1.778    2.222    4.667    3.111    1.778 
#    0.000    3.333    0.000    0.000    0.000    0.000 
#    0.000    0.000    0.000    0.000    0.000    0.000 
#
# Total GULP energy -446365.045162 kJ/mol
# GULP energy per Si atom -12399.029032 kJ/mol
# Density = 2.109449 g / cm^3
# Si number density = 21.142610 Si / 1000 Ang^3
#
#
#
# Elastic Constant Matrix: (Units=GPa)
#
#
# Indices 1 2 3 4 5 6 
#
# 1 124.0714 19.2566 61.4606 0.0000 0.0000 0.0000
# 2 19.2566 50.9251 17.7385 0.0000 0.0000 0.0000
# 3 61.4606 17.7385 142.1886 0.0000 0.0000 0.0000
# 4 0.0000 0.0000 0.0000 5.1190 0.0000 0.0000
# 5 0.0000 0.0000 0.0000 0.0000 45.9368 0.0000
# 6 0.0000 0.0000 0.0000 0.0000 0.0000 11.9720
#
#
#
# Elastic Compliance Matrix: (Units=1/GPa)
#
#
# Indices 1 2 3 4 5 6 
#
# 1 0.010554 -0.002511 -0.004249 0.000000 0.000000 0.000000
# 2 -0.002511 0.021126 -0.001550 0.000000 0.000000 0.000000
# 3 -0.004249 -0.001550 0.009063 0.000000 0.000000 0.000000
# 4 0.000000 0.000000 0.000000 0.195351 0.000000 0.000000
# 5 0.000000 0.000000 0.000000 0.000000 0.021769 0.000000
# 6 0.000000 0.000000 0.000000 0.000000 0.000000 0.083528
#
#
# Mechanical properties :
#
#
# Convention : Reuss Voigt Hill
#
# Bulk Modulus (GPa) = 41.45368 57.12183 49.28775
# Shear Modulus (GPa) = 13.65925 27.18751 20.42338
#
# Velocity S-wave (km/s) = 2.54451 3.58985 3.11140
# Velocity P-wave (km/s) = 5.31808 6.65273 6.02249
#
# Compressibility (1/GPa) = 0.02412331
#
# Stress axis : x y z
#
# Youngs Moduli (GPa) = 94.74797 47.33470 110.34061
#
# Poissons Ratio (x) = 0.11886 0.46882
# Poissons Ratio (y) = 0.23791 0.17105
# Poissons Ratio (z) = 0.40257 0.07338
#
# Static dielectric constant tensor:
#      x y z
#    x 4.108300 0.000000 0.000000 
#    y 0.000000 3.284580 0.000000 
#    z 0.000000 0.000000 4.113960 
# 
# 
# High freq. dielectric constant tensor:
#      x y z
#    x 1.836830 0.000000 0.000000 
#    y 0.000000 1.778870 0.000000 
#    z 0.000000 0.000000 1.851790 
# 
# From -- ./inp_files/6096.got.cif
#   From: 2010.03.12/outbox.cif.g09.slc.cpg/sg68_4_cif.got.tgz:6096.got - 2010.04.10 23:14:56.
