data_PCOD8281255
_publ_section_title
;
Structure prediction by ZEFSAII (Michael W. Deem and Ramdas Pophale) SiO2 
 PCOD8281255
Probable space group: C M M A
;
_chemical_formula_sum "Si O2"
_cell_formula_units_Z 96
_cell_length_a 8.763163
_cell_length_b 28.511245
_cell_length_c 20.495220
_cell_angle_alpha 90.000000
_cell_angle_beta 90.000000
_cell_angle_gamma 90.000000
_cell_volume 5120.703812
_symmetry_space_group_name_H-M "C M M A"
_symmetry_group_IT_number 67
_symmetry_cell_setting 'orthorhombic'
loop_
_space_group_symop_operation_xyz
x,y,z
-x,1/2-y,z
x,-y,-z
-x,1/2+y,-z
-x,-y,-z
x,1/2+y,-z
-x,y,z
x,1/2-y,z
1/2+x,1/2+y,z
1/2-x,-y,z
1/2+x,1/2-y,-z
1/2-x,y,-z
1/2-x,1/2-y,-z
1/2+x,y,-z
1/2-x,1/2+y,z
1/2+x,-y,z
loop_
_atom_site_type_symbol
_atom_site_label
_atom_site_fract_x
_atom_site_fract_y
_atom_site_fract_z
Si Si1 0.680232 0.550954 0.808285
Si Si2 0.819195 0.450754 0.430368
Si Si3 0.676471 0.303040 0.731312
Si Si4 0.678455 0.391945 0.319097
Si Si5 0.820734 0.607285 0.066679
Si Si6 0.177033 0.697197 0.882139
O O1 0.500000 0.546564 0.811336
O O2 0.750000 0.500000 0.802626
O O3 0.731757 0.580826 0.745763
O O4 0.743523 0.576705 0.873012
O O5 0.750000 0.500000 0.405750
O O6 0.750000 0.436771 0.500000
O O7 0.774887 0.410737 0.379629
O O8 0.000000 0.455477 0.436189
O O9 0.500000 0.316434 0.721366
O O10 0.707033 0.250000 0.707507
O O11 0.782365 0.337171 0.688873
O O12 0.722529 0.308092 0.806714
O O13 0.500000 0.398422 0.333003
O O14 0.776459 0.661665 0.075308
O O15 0.000000 0.602954 0.061897
O O16 0.750000 0.587153 0.000000
O O17 0.213405 0.750000 0.905763
O O18 0.000000 0.685374 0.892454
#
# Coordination Sequence:
#
# PCOD8281255 Si02
#       6
#    16  16  16  16  16  16
#     4  10  23  39  56  79 107 139 182 230 278 330
#     4  11  22  38  59  87 121 158 194 233 279 331
#     4   9  18  33  55  84 115 147 185 229 279 333
#     4  11  21  36  58  87 118 150 189 232 277 331
#     4  11  23  39  55  77 105 141 183 229 282 338
#     4   9  18  34  56  81 108 140 179 224 277 334
#
# _framework density 18.747423000000001
#
# number of rings (size 3 to 8) (size 9 to 14) (size 15 to 20)
#    0.000    1.833    1.667    4.500    0.000    5.333 
#    0.000    3.333    0.000    0.500    0.000    0.000 
#    0.000    0.000    0.000    0.000    0.000    0.000 
#
# Total GULP energy -595382.401426 kJ/mol
# GULP energy per Si atom -12403.800030 kJ/mol
# Density = 1.870475 g / cm^3
# Si number density = 18.747423 Si / 1000 Ang^3
#
#
#
# Elastic Constant Matrix: (Units=GPa)
#
#
# Indices 1 2 3 4 5 6 
#
# 1 78.8422 32.7416 39.9674 0.0000 0.0000 0.0000
# 2 32.7416 104.1559 46.5474 0.0000 0.0000 0.0000
# 3 39.9674 46.5474 96.1726 0.0000 0.0000 0.0000
# 4 0.0000 0.0000 0.0000 30.1117 0.0000 0.0000
# 5 0.0000 0.0000 0.0000 0.0000 27.7014 0.0000
# 6 0.0000 0.0000 0.0000 0.0000 0.0000 35.0623
#
#
#
# Elastic Compliance Matrix: (Units=1/GPa)
#
#
# Indices 1 2 3 4 5 6 
#
# 1 0.016657 -0.002734 -0.005599 0.000000 0.000000 0.000000
# 2 -0.002734 0.012700 -0.005010 0.000000 0.000000 0.000000
# 3 -0.005599 -0.005010 0.015150 0.000000 0.000000 0.000000
# 4 0.000000 0.000000 0.000000 0.033210 0.000000 0.000000
# 5 0.000000 0.000000 0.000000 0.000000 0.036099 0.000000
# 6 0.000000 0.000000 0.000000 0.000000 0.000000 0.028521
#
#
# Mechanical properties :
#
#
# Convention : Reuss Voigt Hill
#
# Bulk Modulus (GPa) = 56.11778 57.52039 56.81909
# Shear Modulus (GPa) = 28.57740 29.23603 28.90672
#
# Velocity S-wave (km/s) = 3.90851 3.95330 3.93097
# Velocity P-wave (km/s) = 7.09699 7.18237 7.13981
#
# Compressibility (1/GPa) = 0.01781966
#
# Stress axis : x y z
#
# Youngs Moduli (GPa) = 60.03368 78.74287 66.00705
#
# Poissons Ratio (x) = 0.21528 0.36959
# Poissons Ratio (y) = 0.16413 0.33072
# Poissons Ratio (z) = 0.33614 0.39453
#
# Static dielectric constant tensor:
#      x y z
#    x 3.356870 0.000000 0.000000 
#    y 0.000000 3.506860 0.000000 
#    z 0.000000 0.000000 3.419920 
# 
# 
# High freq. dielectric constant tensor:
#      x y z
#    x 1.728610 0.000000 0.000000 
#    y 0.000000 1.728600 0.000000 
#    z 0.000000 0.000000 1.718000 
# 
# From -- ./inp_files/37179.got.cif
#   From: 2010.03.12/outbox.cif.g09.slc.cpg/sg67_19_cif.got.tgz:37179.got - 2010.04.10 22:41:39.
