data_PCOD8281812
_publ_section_title
;
Structure prediction by ZEFSAII (Michael W. Deem and Ramdas Pophale) SiO2 
 PCOD8281812
Probable space group: C C C A
;
_chemical_formula_sum "Si O2"
_cell_formula_units_Z 116
_cell_length_a 17.414073
_cell_length_b 25.787382
_cell_length_c 12.170691
_cell_angle_alpha 90.000000
_cell_angle_beta 90.000000
_cell_angle_gamma 90.000000
_cell_volume 5465.411304
_symmetry_space_group_name_H-M "C C C A"
_symmetry_group_IT_number 68
_space_group.IT_coordinate_system_code '2'
_symmetry_cell_setting 'orthorhombic'
loop_
_space_group_symop_operation_xyz
x,y,z
-x,1/2-y,z
x,1/2-y,1/2-z
-x,y,1/2-z
-x,-y,-z
x,1/2+y,-z
-x,1/2+y,1/2+z
x,-y,1/2+z
1/2+x,1/2+y,z
1/2-x,-y,z
1/2+x,-y,1/2-z
1/2-x,1/2+y,1/2-z
1/2-x,1/2-y,-z
1/2+x,y,-z
1/2-x,y,1/2+z
1/2+x,1/2-y,1/2+z
loop_
_atom_site_type_symbol
_atom_site_label
_atom_site_fract_x
_atom_site_fract_y
_atom_site_fract_z
Si Si1 0.638631 0.793612 0.867442
Si Si2 0.500000 0.250000 0.250000
Si Si3 0.587827 0.570845 0.209668
Si Si4 0.934806 0.401899 0.963324
Si Si5 0.174738 0.181832 0.872803
Si Si6 0.386975 0.600348 0.942301
Si Si7 0.643601 0.041529 0.222916
Si Si8 0.789699 0.905144 0.635500
O O1 0.551156 0.785081 0.829354
O O2 0.674430 0.740750 0.920557
O O3 0.682291 0.812507 0.758243
O O4 0.639158 0.839526 0.955125
O O5 0.500000 0.573676 0.250000
O O6 0.626732 0.515286 0.233032
O O7 0.642843 0.609934 0.277816
O O8 0.599122 0.585244 0.082981
O O9 0.902250 0.347362 0.916386
O O10 0.912100 0.447796 0.879949
O O11 0.025380 0.403371 0.977286
O O12 0.247001 0.146834 0.906468
O O13 0.375330 0.581854 0.818914
O O14 0.333014 0.569705 0.029137
O O15 0.731302 0.051952 0.184449
#
# Coordination Sequence:
#
# PCOD8281812 Si02
#       8
#    16   4  16  16  16  16  16  16
#     4  10  18  36  67 100 135 170 222 285 338 404
#     4   8  16  28  60 100 132 154 218 276 336 392
#     4  12  26  47  67  96 138 181 224 278 343 416
#     4  11  23  42  71 100 137 173 225 290 340 404
#     4   9  21  39  65 102 132 174 224 276 341 401
#     4  12  22  40  70  99 137 171 225 284 339 410
#     4  11  27  43  69  97 135 179 235 278 342 402
#     4  11  25  44  61  99 136 180 219 278 344 400
#
# _framework density 21.224385999999999
#
# number of rings (size 3 to 8) (size 9 to 14) (size 15 to 20)
#    0.000    1.379    4.138    3.310    5.793    1.655 
#    0.000    1.379    0.000    0.000    0.000    0.000 
#    0.000    0.000    0.000    0.000    0.000    0.000 
#
# Total GULP energy -718687.049184 kJ/mol
# GULP energy per Si atom -12391.156020 kJ/mol
# Density = 2.117608 g / cm^3
# Si number density = 21.224386 Si / 1000 Ang^3
#
#
#
# Elastic Constant Matrix: (Units=GPa)
#
#
# Indices 1 2 3 4 5 6 
#
# 1 141.5519 30.5410 40.6001 0.0000 0.0000 0.0000
# 2 30.5410 73.7250 17.5850 0.0000 0.0000 0.0000
# 3 40.6001 17.5850 101.7568 0.0000 0.0000 0.0000
# 4 0.0000 0.0000 0.0000 21.5567 0.0000 0.0000
# 5 0.0000 0.0000 0.0000 0.0000 38.0610 0.0000
# 6 0.0000 0.0000 0.0000 0.0000 0.0000 23.1767
#
#
#
# Elastic Compliance Matrix: (Units=1/GPa)
#
#
# Indices 1 2 3 4 5 6 
#
# 1 0.008509 -0.002832 -0.002906 0.000000 0.000000 0.000000
# 2 -0.002832 0.015090 -0.001478 0.000000 0.000000 0.000000
# 3 -0.002906 -0.001478 0.011242 0.000000 0.000000 0.000000
# 4 0.000000 0.000000 0.000000 0.046389 0.000000 0.000000
# 5 0.000000 0.000000 0.000000 0.000000 0.026274 0.000000
# 6 0.000000 0.000000 0.000000 0.000000 0.000000 0.043147
#
#
# Mechanical properties :
#
#
# Convention : Reuss Voigt Hill
#
# Bulk Modulus (GPa) = 48.99554 54.94287 51.96921
# Shear Modulus (GPa) = 29.08941 31.77940 30.43440
#
# Velocity S-wave (km/s) = 3.70613 3.87370 3.79084
# Velocity P-wave (km/s) = 6.43805 6.77866 6.61055
#
# Compressibility (1/GPa) = 0.02041002
#
# Stress axis : x y z
#
# Youngs Moduli (GPa) = 117.52368 66.27117 88.95173
#
# Poissons Ratio (x) = 0.18767 0.25846
# Poissons Ratio (y) = 0.33281 0.13145
# Poissons Ratio (z) = 0.34148 0.09794
#
# Static dielectric constant tensor:
#      x y z
#    x 3.950320 0.000000 0.000000 
#    y 0.000000 4.011100 0.000000 
#    z 0.000000 0.000000 3.782780 
# 
# 
# High freq. dielectric constant tensor:
#      x y z
#    x 1.842720 0.000000 0.000000 
#    y 0.000000 1.824970 0.000000 
#    z 0.000000 0.000000 1.826160 
# 
# From -- ./inp_files/14928.got.cif
#   From: 2010.03.12/outbox.cif.g09.slc.cpg/sg68_8_cif.got.tgz:14928.got - 2010.04.10 23:14:56.
