data_PCOD8281048
_publ_section_title
;
Structure prediction by ZEFSAII (Michael W. Deem and Ramdas Pophale) SiO2 
 PCOD8281048
Probable space group: C M M A
;
_chemical_formula_sum "Si O2"
_cell_formula_units_Z 72
_cell_length_a 10.007776
_cell_length_b 15.674716
_cell_length_c 23.059817
_cell_angle_alpha 90.000000
_cell_angle_beta 90.000000
_cell_angle_gamma 90.000000
_cell_volume 3617.371507
_symmetry_space_group_name_H-M "C M M A"
_symmetry_group_IT_number 67
_symmetry_cell_setting 'orthorhombic'
loop_
_space_group_symop_operation_xyz
x,y,z
-x,1/2-y,z
x,-y,-z
-x,1/2+y,-z
-x,-y,-z
x,1/2+y,-z
-x,y,z
x,1/2-y,z
1/2+x,1/2+y,z
1/2-x,-y,z
1/2+x,1/2-y,-z
1/2-x,y,-z
1/2-x,1/2-y,-z
1/2+x,y,-z
1/2-x,1/2+y,z
1/2+x,-y,z
loop_
_atom_site_type_symbol
_atom_site_label
_atom_site_fract_x
_atom_site_fract_y
_atom_site_fract_z
Si Si1 0.000000 0.084408 0.061406
Si Si2 0.655401 0.077179 0.624351
Si Si3 0.345001 0.250000 0.554847
Si Si4 0.000000 0.113620 0.936382
Si Si5 0.845614 0.847369 0.745806
Si Si6 0.263185 0.846382 0.131565
O O1 0.867059 0.097086 0.097558
O O2 0.000000 0.985003 0.050544
O O3 0.000000 0.145289 0.003709
O O4 0.500000 0.051625 0.615616
O O5 0.687674 0.164714 0.590961
O O6 0.688996 0.092233 0.691877
O O7 0.750000 0.000000 0.601634
O O8 0.500000 0.250000 0.535727
O O9 0.250000 0.250000 0.500000
O O10 0.122985 0.147664 0.899934
O O11 0.815010 0.750000 0.727432
O O12 0.755737 0.876179 0.801044
O O13 0.000000 0.857036 0.763905
O O14 0.316432 0.750000 0.131275
#
# Coordination Sequence:
#
# PCOD8281048 Si02
#       6
#     8  16   8   8  16  16
#     4  11  23  41  57  79 109 159 195 234 303 378
#     4  10  21  39  64  94 126 168 211 256 307 359
#     4  10  22  42  68  94 132 176 211 255 302 352
#     4  11  25  39  55  79 121 147 187 252 309 358
#     4   9  17  36  62  84 115 155 201 247 301 366
#     4  11  22  38  61  85 109 148 197 248 301 358
#
# _framework density 19.903956000000001
#
# number of rings (size 3 to 8) (size 9 to 14) (size 15 to 20)
#    0.000    1.778    2.222    2.000    0.000    7.556 
#    2.000    2.222    0.000    0.000    0.000    0.000 
#    0.000    0.000    0.000    0.000    0.000    0.000 
#
# Total GULP energy -446271.017722 kJ/mol
# GULP energy per Si atom -12396.417159 kJ/mol
# Density = 1.985865 g / cm^3
# Si number density = 19.903956 Si / 1000 Ang^3
#
#
#
# Elastic Constant Matrix: (Units=GPa)
#
#
# Indices 1 2 3 4 5 6 
#
# 1 90.5932 38.3912 46.2314 0.0000 0.0000 0.0000
# 2 38.3912 96.7805 41.8995 0.0000 0.0000 0.0000
# 3 46.2314 41.8995 116.0810 0.0000 0.0000 0.0000
# 4 0.0000 0.0000 0.0000 16.9431 0.0000 0.0000
# 5 0.0000 0.0000 0.0000 0.0000 35.3883 0.0000
# 6 0.0000 0.0000 0.0000 0.0000 0.0000 35.5764
#
#
#
# Elastic Compliance Matrix: (Units=1/GPa)
#
#
# Indices 1 2 3 4 5 6 
#
# 1 0.015058 -0.004002 -0.004552 0.000000 0.000000 0.000000
# 2 -0.004002 0.013310 -0.003210 0.000000 0.000000 0.000000
# 3 -0.004552 -0.003210 0.011586 0.000000 0.000000 0.000000
# 4 0.000000 0.000000 0.000000 0.059021 0.000000 0.000000
# 5 0.000000 0.000000 0.000000 0.000000 0.028258 0.000000
# 6 0.000000 0.000000 0.000000 0.000000 0.000000 0.028108
#
#
# Mechanical properties :
#
#
# Convention : Reuss Voigt Hill
#
# Bulk Modulus (GPa) = 60.88511 61.83322 61.35916
# Shear Modulus (GPa) = 27.12287 29.37707 28.24997
#
# Velocity S-wave (km/s) = 3.69546 3.84597 3.77147
# Velocity P-wave (km/s) = 6.99031 7.13128 7.06115
#
# Compressibility (1/GPa) = 0.01642438
#
# Stress axis : x y z
#
# Youngs Moduli (GPa) = 66.41189 75.13076 86.30735
#
# Poissons Ratio (x) = 0.30069 0.39290
# Poissons Ratio (y) = 0.26579 0.27708
# Poissons Ratio (z) = 0.30233 0.24119
#
# Static dielectric constant tensor:
#      x y z
#    x 3.087260 0.000000 0.000000 
#    y 0.000000 3.578760 0.000000 
#    z 0.000000 0.000000 3.751250 
# 
# 
# High freq. dielectric constant tensor:
#      x y z
#    x 1.762500 0.000000 0.000000 
#    y 0.000000 1.777060 0.000000 
#    z 0.000000 0.000000 1.784220 
# 
# From -- ./inp_files/43145.got.cif
#   From: 2010.03.12/outbox.cif.g09.slc.cpg/sg67_22_cif.got.tgz:43145.got - 2010.04.10 22:41:39.
