data_PCOD8281934
_publ_section_title
;
Structure prediction by ZEFSAII (Michael W. Deem and Ramdas Pophale) SiO2 
 PCOD8281934
Probable space group: C C C A
;
_chemical_formula_sum "Si O2"
_cell_formula_units_Z 80
_cell_length_a 16.150087
_cell_length_b 7.848883
_cell_length_c 28.932757
_cell_angle_alpha 90.000000
_cell_angle_beta 90.000000
_cell_angle_gamma 90.000000
_cell_volume 3667.520423
_symmetry_space_group_name_H-M "C C C A"
_symmetry_group_IT_number 68
_space_group.IT_coordinate_system_code '2'
_symmetry_cell_setting 'orthorhombic'
loop_
_space_group_symop_operation_xyz
x,y,z
-x,1/2-y,z
x,1/2-y,1/2-z
-x,y,1/2-z
-x,-y,-z
x,1/2+y,-z
-x,1/2+y,1/2+z
x,-y,1/2+z
1/2+x,1/2+y,z
1/2-x,-y,z
1/2+x,-y,1/2-z
1/2-x,1/2+y,1/2-z
1/2-x,1/2-y,-z
1/2+x,y,-z
1/2-x,y,1/2+z
1/2+x,1/2-y,1/2+z
loop_
_atom_site_type_symbol
_atom_site_label
_atom_site_fract_x
_atom_site_fract_y
_atom_site_fract_z
Si Si1 0.400960 0.761843 0.697889
Si Si2 0.080404 0.370928 0.541831
Si Si3 0.894446 0.421243 0.140924
Si Si4 0.088349 0.546158 0.636716
Si Si5 0.341404 0.461947 0.458576
O O1 0.500000 0.750000 0.696713
O O2 0.367447 0.750000 0.750000
O O3 0.369114 0.602249 0.667184
O O4 0.361586 0.936767 0.677112
O O5 0.094674 0.507758 0.582171
O O6 0.085771 0.470508 0.493095
O O7 0.156960 0.241583 0.544133
O O8 0.000000 0.250000 0.548769
O O9 0.868140 0.225322 0.151166
O O10 0.858960 0.457358 0.090711
O O11 0.991862 0.438622 0.145881
O O12 0.250000 0.500000 0.477080
#
# Coordination Sequence:
#
# PCOD8281934 Si02
#       5
#    16  16  16  16  16
#     4   9  17  33  56  87 122 150 190 256 310 349
#     4  12  22  39  60  84 123 166 212 250 298 366
#     4  10  20  35  56  86 119 153 201 247 299 362
#     4  10  19  34  59  87 116 155 201 249 296 357
#     4  12  25  38  56  88 125 161 204 257 307 357
#
# _framework density 21.813103000000002
#
# number of rings (size 3 to 8) (size 9 to 14) (size 15 to 20)
#    0.000    1.400    4.000    3.000    2.800    0.800 
#    0.000    4.000    0.000    0.000    5.200    0.000 
#    0.000    0.000    0.000    0.000    0.000    0.000 
#
# Total GULP energy -495706.897394 kJ/mol
# GULP energy per Si atom -12392.672435 kJ/mol
# Density = 2.176346 g / cm^3
# Si number density = 21.813103 Si / 1000 Ang^3
#
#
#
# Elastic Constant Matrix: (Units=GPa)
#
#
# Indices 1 2 3 4 5 6 
#
# 1 17.0650 20.4699 11.6530 0.0000 0.0000 0.0000
# 2 20.4699 190.4412 78.0095 0.0000 0.0000 0.0000
# 3 11.6530 78.0095 166.9532 0.0000 0.0000 0.0000
# 4 0.0000 0.0000 0.0000 33.7079 0.0000 0.0000
# 5 0.0000 0.0000 0.0000 0.0000 1.7852 0.0000
# 6 0.0000 0.0000 0.0000 0.0000 0.0000 15.9426
#
#
#
# Elastic Compliance Matrix: (Units=1/GPa)
#
#
# Indices 1 2 3 4 5 6 
#
# 1 0.067633 -0.006599 -0.001637 0.000000 0.000000 0.000000
# 2 -0.006599 0.007138 -0.002875 0.000000 0.000000 0.000000
# 3 -0.001637 -0.002875 0.007447 0.000000 0.000000 0.000000
# 4 0.000000 0.000000 0.000000 0.029667 0.000000 0.000000
# 5 0.000000 0.000000 0.000000 0.000000 0.560165 0.000000
# 6 0.000000 0.000000 0.000000 0.000000 0.000000 0.062725
#
#
# Mechanical properties :
#
#
# Convention : Reuss Voigt Hill
#
# Bulk Modulus (GPa) = 16.66763 66.08045 41.37404
# Shear Modulus (GPa) = 6.43505 27.90892 17.17198
#
# Velocity S-wave (km/s) = 1.71944 3.58083 2.80881
# Velocity P-wave (km/s) = 3.40583 6.88884 5.43396
#
# Compressibility (1/GPa) = 0.05999653
#
# Stress axis : x y z
#
# Youngs Moduli (GPa) = 14.78562 140.09997 134.28005
#
# Poissons Ratio (x) = 0.92452 0.21985
# Poissons Ratio (y) = 0.09757 0.38599
# Poissons Ratio (z) = 0.02421 0.40272
#
# Static dielectric constant tensor:
#      x y z
#    x 3.480320 0.000000 0.000000 
#    y 0.000000 4.681650 0.000000 
#    z 0.000000 0.000000 3.919620 
# 
# 
# High freq. dielectric constant tensor:
#      x y z
#    x 1.807790 0.000000 0.000000 
#    y 0.000000 1.882250 0.000000 
#    z 0.000000 0.000000 1.847560 
# 
# From -- ./inp_files/49150.got.cif
#   From: 2010.03.12/outbox.cif.g09.slc.cpg/sg68_25_cif.got.tgz:49150.got - 2010.04.10 23:14:56.
