data_PCOD8281069
_publ_section_title
;
Structure prediction by ZEFSAII (Michael W. Deem and Ramdas Pophale) SiO2 
 PCOD8281069
Probable space group: C M M A
;
_chemical_formula_sum "Si O2"
_cell_formula_units_Z 72
_cell_length_a 8.821610
_cell_length_b 15.817545
_cell_length_c 25.230257
_cell_angle_alpha 90.000000
_cell_angle_beta 90.000000
_cell_angle_gamma 90.000000
_cell_volume 3520.534519
_symmetry_space_group_name_H-M "C M M A"
_symmetry_group_IT_number 67
_symmetry_cell_setting 'orthorhombic'
loop_
_space_group_symop_operation_xyz
x,y,z
-x,1/2-y,z
x,-y,-z
-x,1/2+y,-z
-x,-y,-z
x,1/2+y,-z
-x,y,z
x,1/2-y,z
1/2+x,1/2+y,z
1/2-x,-y,z
1/2+x,1/2-y,-z
1/2-x,y,-z
1/2-x,1/2-y,-z
1/2+x,y,-z
1/2-x,1/2+y,z
1/2+x,-y,z
loop_
_atom_site_type_symbol
_atom_site_label
_atom_site_fract_x
_atom_site_fract_y
_atom_site_fract_z
Si Si1 0.322304 0.911642 0.262386
Si Si2 0.821765 0.654523 0.051236
Si Si3 0.834203 0.847383 0.164869
Si Si4 0.678754 0.250000 0.442677
Si Si5 0.180302 0.408659 0.627605
O O1 0.500000 0.917818 0.273456
O O2 0.288092 0.853685 0.211881
O O3 0.241808 0.877827 0.315516
O O4 0.250000 0.000000 0.246430
O O5 0.757616 0.750000 0.050824
O O6 0.777783 0.612007 0.108639
O O7 0.000000 0.651732 0.044837
O O8 0.750000 0.606251 0.000000
O O9 0.858621 0.750000 0.151965
O O10 0.000000 0.885441 0.181677
O O11 0.500000 0.250000 0.447836
O O12 0.750000 0.250000 0.500000
O O13 0.731957 0.164303 0.413112
O O14 0.250000 0.500000 0.611361
O O15 0.000000 0.418058 0.629988
#
# Coordination Sequence:
#
# PCOD8281069 Si02
#       5
#    16  16  16   8  16
#     4  11  22  36  55  80 108 143 183 227 278 333
#     4   8  14  25  42  65  95 132 171 213 266 323
#     4   9  18  32  50  74 105 140 176 220 275 332
#     4  10  24  42  64  92 124 160 199 238 289 340
#     4  10  21  40  62  88 119 159 199 240 292 347
#
# _framework density 20.451439000000001
#
# number of rings (size 3 to 8) (size 9 to 14) (size 15 to 20)
#    0.000    2.444    0.000    5.333    1.556    3.556 
#    0.000    4.444    0.000    0.667    0.000    4.667 
#    0.000    0.000    0.000    0.000    0.000    0.000 
#
# Total GULP energy -446014.031664 kJ/mol
# GULP energy per Si atom -12389.278657 kJ/mol
# Density = 2.040489 g / cm^3
# Si number density = 20.451439 Si / 1000 Ang^3
#
#
#
# Elastic Constant Matrix: (Units=GPa)
#
#
# Indices 1 2 3 4 5 6 
#
# 1 86.1955 32.7963 56.6024 0.0000 0.0000 0.0000
# 2 32.7963 67.8958 66.2534 0.0000 0.0000 0.0000
# 3 56.6024 66.2534 187.6406 0.0000 0.0000 0.0000
# 4 0.0000 0.0000 0.0000 -2.2141 0.0000 0.0000
# 5 0.0000 0.0000 0.0000 0.0000 38.2238 0.0000
# 6 0.0000 0.0000 0.0000 0.0000 0.0000 24.8515
#
#
#
# Elastic Compliance Matrix: (Units=1/GPa)
#
#
# Indices 1 2 3 4 5 6 
#
# 1 0.015283 -0.004399 -0.003057 0.000000 0.000000 0.000000
# 2 -0.004399 0.023737 -0.007054 0.000000 0.000000 0.000000
# 3 -0.003057 -0.007054 0.008742 0.000000 0.000000 0.000000
# 4 0.000000 0.000000 0.000000 -0.451654 0.000000 0.000000
# 5 0.000000 0.000000 0.000000 0.000000 0.026162 0.000000
# 6 0.000000 0.000000 0.000000 0.000000 0.000000 0.040239
#
#
# Mechanical properties :
#
#
# Convention : Reuss Voigt Hill
#
# Bulk Modulus (GPa) = 53.35781 72.55958 62.95870
# Shear Modulus (GPa) = -16.54405 24.57756 4.01675
#
# Velocity S-wave (km/s) = -2.84728 3.47039 1.40296
# Velocity P-wave (km/s) = 3.91629 7.18430 5.78582
#
# Compressibility (1/GPa) = 0.01874140
#
# Stress axis : x y z
#
# Youngs Moduli (GPa) = 65.43344 42.12826 114.38849
#
# Poissons Ratio (x) = 0.18534 0.34965
# Poissons Ratio (y) = 0.28787 0.80691
# Poissons Ratio (z) = 0.20001 0.29718
#
# Static dielectric constant tensor:
#      x y z
#    x 3.792520 0.000000 0.000000 
#    y 0.000000 3.421390 0.000000 
#    z 0.000000 0.000000 -3.441170 
# 
# 
# High freq. dielectric constant tensor:
#      x y z
#    x 1.793600 0.000000 0.000000 
#    y 0.000000 1.765460 0.000000 
#    z 0.000000 0.000000 1.816670 
# 
# From -- ./inp_files/40500.got.cif
#   From: 2010.03.12/outbox.cif.g09.slc.cpg/sg67_21_cif.got.tgz:40500.got - 2010.04.10 22:41:39.
