data_PCOD8281147
_publ_section_title
;
Structure prediction by ZEFSAII (Michael W. Deem and Ramdas Pophale) SiO2 
 PCOD8281147
Probable space group: C M M A
;
_chemical_formula_sum "Si O2"
_cell_formula_units_Z 120
_cell_length_a 21.458537
_cell_length_b 22.186206
_cell_length_c 12.109854
_cell_angle_alpha 90.000000
_cell_angle_beta 90.000000
_cell_angle_gamma 90.000000
_cell_volume 5765.301947
_symmetry_space_group_name_H-M "C M M A"
_symmetry_group_IT_number 67
_symmetry_cell_setting 'orthorhombic'
loop_
_space_group_symop_operation_xyz
x,y,z
-x,1/2-y,z
x,-y,-z
-x,1/2+y,-z
-x,-y,-z
x,1/2+y,-z
-x,y,z
x,1/2-y,z
1/2+x,1/2+y,z
1/2-x,-y,z
1/2+x,1/2-y,-z
1/2-x,y,-z
1/2-x,1/2-y,-z
1/2+x,y,-z
1/2-x,1/2+y,z
1/2+x,-y,z
loop_
_atom_site_type_symbol
_atom_site_label
_atom_site_fract_x
_atom_site_fract_y
_atom_site_fract_z
Si Si1 0.396740 0.607838 0.838500
Si Si2 0.139224 0.500000 0.500000
Si Si3 0.679656 0.629820 0.474414
Si Si4 0.071362 0.182802 0.048179
Si Si5 0.569580 0.991676 0.278392
Si Si6 0.929298 0.679032 0.370886
Si Si7 0.354570 0.874235 0.233589
Si Si8 0.740672 0.567655 0.870142
O O1 0.432047 0.545653 0.810855
O O2 0.418364 0.659596 0.754973
O O3 0.324380 0.593379 0.829708
O O4 0.412018 0.630998 0.960671
O O5 0.182765 0.557192 0.525351
O O6 0.096737 0.515645 0.394216
O O7 0.750000 0.654047 0.500000
O O8 0.626104 0.650931 0.557487
O O9 0.656200 0.652816 0.355360
O O10 0.085466 0.250000 0.001378
O O11 0.110354 0.174927 0.160189
O O12 0.000000 0.176139 0.081817
O O13 0.500000 0.968618 0.299461
O O14 0.607870 0.936438 0.229995
O O15 0.923610 0.750000 0.378170
O O16 0.000000 0.658987 0.407801
O O17 0.287525 0.885628 0.182697
O O18 0.750000 0.500000 0.823087
O O19 0.750000 0.567491 0.000000
#
# Coordination Sequence:
#
# PCOD8281147 Si02
#       8
#    16   8  16  16  16  16  16  16
#     4  12  22  41  69  98 128 172 222 277 330 389
#     4  10  22  38  62  96 137 175 218 266 339 404
#     4  11  24  42  68  98 135 176 221 278 337 405
#     4  11  25  45  66  91 130 177 224 274 329 394
#     4  11  22  36  62  98 135 169 214 276 334 398
#     4  11  25  45  68  96 131 177 230 279 332 393
#     4  11  24  41  63  98 131 172 217 263 337 403
#     4  11  22  41  64  92 134 173 210 258 329 396
#
# _framework density 20.814174999999999
#
# number of rings (size 3 to 8) (size 9 to 14) (size 15 to 20)
#    0.000    0.933    4.000    3.200    0.000    5.067 
#    0.000    6.000    0.000    0.000    0.000    0.000 
#    0.000    0.000    0.000    0.000    0.000    0.000 
#
# Total GULP energy -744068.823839 kJ/mol
# GULP energy per Si atom -12401.147064 kJ/mol
# Density = 2.076680 g / cm^3
# Si number density = 20.814175 Si / 1000 Ang^3
#
#
#
# Elastic Constant Matrix: (Units=GPa)
#
#
# Indices 1 2 3 4 5 6 
#
# 1 153.0798 34.9657 34.9626 0.0000 0.0000 0.0000
# 2 34.9657 68.5739 24.1201 0.0000 0.0000 0.0000
# 3 34.9626 24.1201 96.6637 0.0000 0.0000 0.0000
# 4 0.0000 0.0000 0.0000 28.4545 0.0000 0.0000
# 5 0.0000 0.0000 0.0000 0.0000 22.5922 0.0000
# 6 0.0000 0.0000 0.0000 0.0000 0.0000 22.3234
#
#
#
# Elastic Compliance Matrix: (Units=1/GPa)
#
#
# Indices 1 2 3 4 5 6 
#
# 1 0.007726 -0.003241 -0.001986 0.000000 0.000000 0.000000
# 2 -0.003241 0.017346 -0.003156 0.000000 0.000000 0.000000
# 3 -0.001986 -0.003156 0.011851 0.000000 0.000000 0.000000
# 4 0.000000 0.000000 0.000000 0.035144 0.000000 0.000000
# 5 0.000000 0.000000 0.000000 0.000000 0.044263 0.000000
# 6 0.000000 0.000000 0.000000 0.000000 0.000000 0.044796
#
#
# Mechanical properties :
#
#
# Convention : Reuss Voigt Hill
#
# Bulk Modulus (GPa) = 49.61038 56.26826 52.93932
# Shear Modulus (GPa) = 27.08404 29.62529 28.35466
#
# Velocity S-wave (km/s) = 3.61117 3.77679 3.69491
# Velocity P-wave (km/s) = 6.42449 6.79052 6.61004
#
# Compressibility (1/GPa) = 0.02015707
#
# Stress axis : x y z
#
# Youngs Moduli (GPa) = 129.42590 57.65179 84.38197
#
# Poissons Ratio (x) = 0.18686 0.16757
# Poissons Ratio (y) = 0.41949 0.26630
# Poissons Ratio (z) = 0.25702 0.18194
#
# Static dielectric constant tensor:
#      x y z
#    x 3.910640 0.000000 0.000000 
#    y 0.000000 4.505040 0.000000 
#    z 0.000000 0.000000 3.793130 
# 
# 
# High freq. dielectric constant tensor:
#      x y z
#    x 1.831490 0.000000 0.000000 
#    y 0.000000 1.803880 0.000000 
#    z 0.000000 0.000000 1.817770 
# 
# From -- ./inp_files/21148.got.cif
#   From: 2010.03.12/outbox.cif.g09.slc.cpg/sg67_11_cif.got.tgz:21148.got - 2010.04.10 22:41:39.
