data_PCOD8281670
_publ_section_title
;
Structure prediction by ZEFSAII (Michael W. Deem and Ramdas Pophale) SiO2 
 PCOD8281670
Probable space group: C C C A
;
_chemical_formula_sum "Si O2"
_cell_formula_units_Z 68
_cell_length_a 36.752279
_cell_length_b 5.341027
_cell_length_c 12.778002
_cell_angle_alpha 90.000000
_cell_angle_beta 90.000000
_cell_angle_gamma 90.000000
_cell_volume 2508.256809
_symmetry_space_group_name_H-M "C C C A"
_symmetry_group_IT_number 68
_space_group.IT_coordinate_system_code '2'
_symmetry_cell_setting 'orthorhombic'
loop_
_space_group_symop_operation_xyz
x,y,z
-x,1/2-y,z
x,1/2-y,1/2-z
-x,y,1/2-z
-x,-y,-z
x,1/2+y,-z
-x,1/2+y,1/2+z
x,-y,1/2+z
1/2+x,1/2+y,z
1/2-x,-y,z
1/2+x,-y,1/2-z
1/2-x,1/2+y,1/2-z
1/2-x,1/2-y,-z
1/2+x,y,-z
1/2-x,y,1/2+z
1/2+x,1/2-y,1/2+z
loop_
_atom_site_type_symbol
_atom_site_label
_atom_site_fract_x
_atom_site_fract_y
_atom_site_fract_z
Si Si1 0.319997 0.094612 0.388884
Si Si2 0.903339 0.983434 0.127065
Si Si3 0.209152 0.090188 0.121250
Si Si4 0.066580 0.519130 0.852547
Si Si5 0.500000 0.250000 0.750000
O O1 0.361909 0.033947 0.408340
O O2 0.316119 0.365987 0.330899
O O3 0.300241 0.146429 0.499756
O O4 0.299536 0.865391 0.326582
O O5 0.927371 0.743354 0.086801
O O6 0.919511 0.243411 0.078545
O O7 0.907274 0.002101 0.251701
O O8 0.250000 0.000000 0.137051
O O9 0.024646 0.565593 0.820500
#
# Coordination Sequence:
#
# PCOD8281670 Si02
#       5
#    16  16  16  16   4
#     4  10  17  28  45  63  92 115 140 181 235 257
#     4   9  17  28  42  66  91 119 140 177 216 268
#     4  10  19  30  45  69  87 109 150 192 226 269
#     4   9  18  29  45  68  93 111 150 172 214 264
#     4   8  16  30  48  66  96 122 132 194 224 242
#
# _framework density 27.110464
#
# number of rings (size 3 to 8) (size 9 to 14) (size 15 to 20)
#    0.000    2.824    0.000    4.941    0.000    7.529 
#    0.000    0.000    0.000    0.000    0.000  112.000 
#    0.000  399.059    0.000    0.000    0.000    0.000 
#
# Total GULP energy -421235.924296 kJ/mol
# GULP energy per Si atom -12389.291891 kJ/mol
# Density = 2.704876 g / cm^3
# Si number density = 27.110464 Si / 1000 Ang^3
#
#
#
# Elastic Constant Matrix: (Units=GPa)
#
#
# Indices 1 2 3 4 5 6 
#
# 1 187.8711 89.0334 -8.5182 0.0000 0.0000 0.0000
# 2 89.0334 344.5345 -8.1717 0.0000 0.0000 0.0000
# 3 -8.5182 -8.1717 40.9046 0.0000 0.0000 0.0000
# 4 0.0000 0.0000 0.0000 -93.6857 0.0000 0.0000
# 5 0.0000 0.0000 0.0000 0.0000 14.7462 0.0000
# 6 0.0000 0.0000 0.0000 0.0000 0.0000 51.6066
#
#
#
# Elastic Compliance Matrix: (Units=1/GPa)
#
#
# Indices 1 2 3 4 5 6 
#
# 1 0.006103 -0.001554 0.000960 0.000000 0.000000 0.000000
# 2 -0.001554 0.003312 0.000338 0.000000 0.000000 0.000000
# 3 0.000960 0.000338 0.024715 0.000000 0.000000 0.000000
# 4 0.000000 0.000000 0.000000 -0.010674 0.000000 0.000000
# 5 0.000000 0.000000 0.000000 0.000000 0.067814 0.000000
# 6 0.000000 0.000000 0.000000 0.000000 0.000000 0.019377
#
#
# Mechanical properties :
#
#
# Convention : Reuss Voigt Hill
#
# Bulk Modulus (GPa) = 29.74609 79.77748 54.76178
# Shear Modulus (GPa) = 40.86135 27.93121 34.39628
#
# Velocity S-wave (km/s) = 3.88650 3.21327 3.56581
# Velocity P-wave (km/s) = 5.57995 6.57704 6.09891
#
# Compressibility (1/GPa) = 0.03361786
#
# Stress axis : x y z
#
# Youngs Moduli (GPa) = 163.85525 301.91899 40.46188
#
# Poissons Ratio (x) = 0.46928 -0.03886
# Poissons Ratio (y) = 0.25468 -0.01368
# Poissons Ratio (z) = -0.15737 -0.10205
#
# Static dielectric constant tensor:
#      x y z
#    x 4.315930 0.000000 0.000000 
#    y 0.000000 8.681050 0.000000 
#    z 0.000000 0.000000 4.515070 
# 
# 
# High freq. dielectric constant tensor:
#      x y z
#    x 2.056480 0.000000 0.000000 
#    y 0.000000 2.143280 0.000000 
#    z 0.000000 0.000000 2.094470 
# 
# From -- ./inp_files/41492.got.cif
#   From: 2010.03.12/outbox.cif.g09.slc.cpg/sg68_21_cif.got.tgz:41492.got - 2010.04.10 23:14:56.
