data_PCOD8281588
_publ_section_title
;
Structure prediction by ZEFSAII (Michael W. Deem and Ramdas Pophale) SiO2 
 PCOD8281588
Probable space group: C M M A
;
_chemical_formula_sum "Si O2"
_cell_formula_units_Z 52
_cell_length_a 21.106637
_cell_length_b 9.461145
_cell_length_c 15.500289
_cell_angle_alpha 90.000000
_cell_angle_beta 90.000000
_cell_angle_gamma 90.000000
_cell_volume 3095.298485
_symmetry_space_group_name_H-M "C M M A"
_symmetry_group_IT_number 67
_symmetry_cell_setting 'orthorhombic'
loop_
_space_group_symop_operation_xyz
x,y,z
-x,1/2-y,z
x,-y,-z
-x,1/2+y,-z
-x,-y,-z
x,1/2+y,-z
-x,y,z
x,1/2-y,z
1/2+x,1/2+y,z
1/2-x,-y,z
1/2+x,1/2-y,-z
1/2-x,y,-z
1/2-x,1/2-y,-z
1/2+x,y,-z
1/2-x,1/2+y,z
1/2+x,-y,z
loop_
_atom_site_type_symbol
_atom_site_label
_atom_site_fract_x
_atom_site_fract_y
_atom_site_fract_z
Si Si1 0.925685 0.413138 0.744785
Si Si2 0.750000 0.500000 0.000000
Si Si3 0.871942 0.407323 0.924135
Si Si4 0.575421 0.410654 0.580806
O O1 0.909511 0.250000 0.723098
O O2 0.889402 0.467512 0.830159
O O3 0.901069 0.511413 0.667278
O O4 0.000000 0.432653 0.760263
O O5 0.795464 0.593555 0.062117
O O6 0.899473 0.250000 0.931750
O O7 0.904584 0.500000 0.000000
O O8 0.602167 0.500000 0.500000
O O9 0.500000 0.408716 0.577460
O O10 0.601762 0.250000 0.578097
#
# Coordination Sequence:
#
# PCOD8281588 Si02
#       4
#    16   4  16  16
#     4   9  17  29  43  63  91 120 148 179 218 262
#     4   8  18  32  48  64  84 112 150 190 222 260
#     4   9  18  30  46  64  86 115 148 185 222 259
#     4   9  16  26  41  62  88 119 150 179 211 253
#
# _framework density 16.799672000000001
#
# number of rings (size 3 to 8) (size 9 to 14) (size 15 to 20)
#    0.923    2.154    0.000    1.385    0.000    5.538 
#    0.000    0.000    0.000    0.000    0.000    1.077 
#    0.000    7.385    0.000    0.000    0.000    0.000 
#
# Total GULP energy -322167.784920 kJ/mol
# GULP energy per Si atom -12391.068651 kJ/mol
# Density = 1.676144 g / cm^3
# Si number density = 16.799672 Si / 1000 Ang^3
#
#
#
# Elastic Constant Matrix: (Units=GPa)
#
#
# Indices 1 2 3 4 5 6 
#
# 1 25.7803 12.7207 32.7267 0.0000 0.0000 0.0000
# 2 12.7207 115.4080 89.4754 0.0000 0.0000 0.0000
# 3 32.7267 89.4754 184.6504 0.0000 0.0000 0.0000
# 4 0.0000 0.0000 0.0000 36.9629 0.0000 0.0000
# 5 0.0000 0.0000 0.0000 0.0000 3.6959 0.0000
# 6 0.0000 0.0000 0.0000 0.0000 0.0000 10.3237
#
#
#
# Elastic Compliance Matrix: (Units=1/GPa)
#
#
# Indices 1 2 3 4 5 6 
#
# 1 0.050395 0.002195 -0.009995 0.000000 0.000000 0.000000
# 2 0.002195 0.013975 -0.007161 0.000000 0.000000 0.000000
# 3 -0.009995 -0.007161 0.010657 0.000000 0.000000 0.000000
# 4 0.000000 0.000000 0.000000 0.027054 0.000000 0.000000
# 5 0.000000 0.000000 0.000000 0.000000 0.270570 0.000000
# 6 0.000000 0.000000 0.000000 0.000000 0.000000 0.096865
#
#
# Mechanical properties :
#
#
# Convention : Reuss Voigt Hill
#
# Bulk Modulus (GPa) = 22.17108 66.18716 44.17912
# Shear Modulus (GPa) = 9.71870 22.92424 16.32147
#
# Velocity S-wave (km/s) = 2.40782 3.69801 3.12033
# Velocity P-wave (km/s) = 4.57779 7.59718 6.27189
#
# Compressibility (1/GPa) = 0.04510380
#
# Stress axis : x y z
#
# Youngs Moduli (GPa) = 19.84336 71.55848 93.83582
#
# Poissons Ratio (x) = -0.15704 0.93790
# Poissons Ratio (y) = -0.04355 0.67192
# Poissons Ratio (z) = 0.19834 0.51240
#
# Static dielectric constant tensor:
#      x y z
#    x 2.605240 0.000000 0.000000 
#    y 0.000000 3.184020 0.000000 
#    z 0.000000 0.000000 3.264830 
# 
# 
# High freq. dielectric constant tensor:
#      x y z
#    x 1.584080 0.000000 0.000000 
#    y 0.000000 1.651770 0.000000 
#    z 0.000000 0.000000 1.656870 
# 
# From -- ./inp_files/22505.got.cif
#   From: 2010.03.12/outbox.cif.g09.slc.cpg/sg67_12_cif.got.tgz:22505.got - 2010.04.10 22:41:39.
