data_PCOD8281745
_publ_section_title
;
Structure prediction by ZEFSAII (Michael W. Deem and Ramdas Pophale) SiO2 
 PCOD8281745
Probable space group: C C C A
;
_chemical_formula_sum "Si O2"
_cell_formula_units_Z 80
_cell_length_a 20.461284
_cell_length_b 21.131043
_cell_length_c 9.004168
_cell_angle_alpha 90.000000
_cell_angle_beta 90.000000
_cell_angle_gamma 90.000000
_cell_volume 3893.116559
_symmetry_space_group_name_H-M "C C C A"
_symmetry_group_IT_number 68
_space_group.IT_coordinate_system_code '2'
_symmetry_cell_setting 'orthorhombic'
loop_
_space_group_symop_operation_xyz
x,y,z
-x,1/2-y,z
x,1/2-y,1/2-z
-x,y,1/2-z
-x,-y,-z
x,1/2+y,-z
-x,1/2+y,1/2+z
x,-y,1/2+z
1/2+x,1/2+y,z
1/2-x,-y,z
1/2+x,-y,1/2-z
1/2-x,1/2+y,1/2-z
1/2-x,1/2-y,-z
1/2+x,y,-z
1/2-x,y,1/2+z
1/2+x,1/2-y,1/2+z
loop_
_atom_site_type_symbol
_atom_site_label
_atom_site_fract_x
_atom_site_fract_y
_atom_site_fract_z
Si Si1 0.056213 0.580140 0.493576
Si Si2 0.500000 0.250000 0.750000
Si Si3 0.000000 0.995680 0.750000
Si Si4 0.059957 0.170135 0.000825
Si Si5 0.500000 0.250000 0.250000
Si Si6 0.807609 0.322156 0.913391
Si Si7 0.822787 0.826573 0.427130
O O1 0.052096 0.534672 0.350736
O O2 0.114045 0.633038 0.483184
O O3 0.053075 0.543551 0.650935
O O4 0.986290 0.611709 0.491450
O O5 0.451544 0.291098 0.849231
O O6 0.133397 0.142163 0.997706
O O7 0.049693 0.210940 0.851195
O O8 0.807213 0.341261 0.742384
O O9 0.827539 0.248929 0.948281
O O10 0.739517 0.347424 0.976296
#
# Coordination Sequence:
#
# PCOD8281745 Si02
#       7
#    16   4   8  16   4  16  16
#     4  11  22  40  62  84 113 153 202 258 302 334
#     4  10  22  30  52  98 128 150 194 236 300 392
#     4  10  24  40  62  86 108 152 222 266 286 330
#     4  11  20  34  57  85 120 154 188 243 303 362
#     4  10  18  30  56  90 120 154 194 220 288 396
#     4  10  21  35  57  91 123 154 188 223 294 392
#     4  10  21  37  58  86 124 160 188 233 297 363
#
# _framework density 20.54909
#
# number of rings (size 3 to 8) (size 9 to 14) (size 15 to 20)
#    0.000    1.600    0.000    7.200    0.000    6.400 
#    0.000    0.000    0.000   20.400    0.000    0.000 
#    0.000    0.000    0.000    0.000    0.000    0.000 
#
# Total GULP energy -495580.288558 kJ/mol
# GULP energy per Si atom -12389.507214 kJ/mol
# Density = 2.050232 g / cm^3
# Si number density = 20.549090 Si / 1000 Ang^3
#
#
#
# Elastic Constant Matrix: (Units=GPa)
#
#
# Indices 1 2 3 4 5 6 
#
# 1 145.1618 34.5622 47.4541 0.0000 0.0000 0.0000
# 2 34.5622 72.5628 36.6279 0.0000 0.0000 0.0000
# 3 47.4541 36.6279 135.7723 0.0000 0.0000 0.0000
# 4 0.0000 0.0000 0.0000 16.9741 0.0000 0.0000
# 5 0.0000 0.0000 0.0000 0.0000 29.6722 0.0000
# 6 0.0000 0.0000 0.0000 0.0000 0.0000 19.9006
#
#
#
# Elastic Compliance Matrix: (Units=1/GPa)
#
#
# Indices 1 2 3 4 5 6 
#
# 1 0.008263 -0.002869 -0.002114 0.000000 0.000000 0.000000
# 2 -0.002869 0.016949 -0.003570 0.000000 0.000000 0.000000
# 3 -0.002114 -0.003570 0.009067 0.000000 0.000000 0.000000
# 4 0.000000 0.000000 0.000000 0.058913 0.000000 0.000000
# 5 0.000000 0.000000 0.000000 0.000000 0.033702 0.000000
# 6 0.000000 0.000000 0.000000 0.000000 0.000000 0.050250
#
#
# Mechanical properties :
#
#
# Convention : Reuss Voigt Hill
#
# Bulk Modulus (GPa) = 58.22600 65.64280 61.93440
# Shear Modulus (GPa) = 25.00319 28.96622 26.98471
#
# Velocity S-wave (km/s) = 3.49198 3.75855 3.62772
# Velocity P-wave (km/s) = 6.68245 7.13087 6.91030
#
# Compressibility (1/GPa) = 0.01717446
#
# Stress axis : x y z
#
# Youngs Moduli (GPa) = 121.02179 58.99882 110.28675
#
# Poissons Ratio (x) = 0.16924 0.23316
# Poissons Ratio (y) = 0.34716 0.39372
# Poissons Ratio (z) = 0.25586 0.21062
#
# Static dielectric constant tensor:
#      x y z
#    x 3.792880 0.000000 0.000000 
#    y 0.000000 3.653320 0.000000 
#    z 0.000000 0.000000 4.058500 
# 
# 
# High freq. dielectric constant tensor:
#      x y z
#    x 1.801510 0.000000 0.000000 
#    y 0.000000 1.773330 0.000000 
#    z 0.000000 0.000000 1.826210 
# 
# From -- ./inp_files/7098.got.cif
#   From: 2010.03.12/outbox.cif.g09.slc.cpg/sg68_4_cif.got.tgz:7098.got - 2010.04.10 23:14:56.
