data_PCOD8281798
_publ_section_title
;
Structure prediction by ZEFSAII (Michael W. Deem and Ramdas Pophale) SiO2 
 PCOD8281798
Probable space group: C C C A
;
_chemical_formula_sum "Si O2"
_cell_formula_units_Z 96
_cell_length_a 14.003924
_cell_length_b 21.041977
_cell_length_c 16.656183
_cell_angle_alpha 90.000000
_cell_angle_beta 90.000000
_cell_angle_gamma 90.000000
_cell_volume 4908.081554
_symmetry_space_group_name_H-M "C C C A"
_symmetry_group_IT_number 68
_space_group.IT_coordinate_system_code '2'
_symmetry_cell_setting 'orthorhombic'
loop_
_space_group_symop_operation_xyz
x,y,z
-x,1/2-y,z
x,1/2-y,1/2-z
-x,y,1/2-z
-x,-y,-z
x,1/2+y,-z
-x,1/2+y,1/2+z
x,-y,1/2+z
1/2+x,1/2+y,z
1/2-x,-y,z
1/2+x,-y,1/2-z
1/2-x,1/2+y,1/2-z
1/2-x,1/2-y,-z
1/2+x,y,-z
1/2-x,y,1/2+z
1/2+x,1/2-y,1/2+z
loop_
_atom_site_type_symbol
_atom_site_label
_atom_site_fract_x
_atom_site_fract_y
_atom_site_fract_z
Si Si1 0.890750 0.737359 0.430815
Si Si2 0.302217 0.317667 0.219620
Si Si3 0.169318 0.131480 0.613423
Si Si4 0.153311 0.121027 0.021709
Si Si5 0.454364 0.432770 0.512029
Si Si6 0.271258 0.930302 0.380493
O O1 0.883410 0.702244 0.343900
O O2 0.835000 0.803049 0.435612
O O3 0.839850 0.694761 0.497697
O O4 0.000000 0.750000 0.450200
O O5 0.253293 0.250000 0.250000
O O6 0.351695 0.355587 0.293217
O O7 0.230737 0.370206 0.180912
O O8 0.278242 0.106923 0.598442
O O9 0.090007 0.085365 0.575078
O O10 0.042108 0.110857 0.040423
O O11 0.190132 0.076749 0.948764
O O12 0.500000 0.500000 0.500000
O O13 0.376065 0.429191 0.581348
O O14 0.250000 0.000000 0.340138
#
# Coordination Sequence:
#
# PCOD8281798 Si02
#       6
#    16  16  16  16  16  16
#     4  10  18  35  59  88 114 149 198 250 295 346
#     4   9  21  39  58  85 123 158 192 242 304 353
#     4  10  21  36  58  84 116 154 192 243 301 351
#     4  10  20  36  58  84 118 149 198 241 295 345
#     4  11  21  37  60  87 115 153 200 245 290 349
#     4  10  20  38  60  84 120 159 193 248 298 350
#
# _framework density 19.559577999999998
#
# number of rings (size 3 to 8) (size 9 to 14) (size 15 to 20)
#    0.000    2.000    3.333    0.500    0.000    4.333 
#    3.000    0.833    0.000    3.000    0.000    0.000 
#    0.000    0.000    0.000    0.000    0.000    0.000 
#
# Total GULP energy -594635.649946 kJ/mol
# GULP energy per Si atom -12388.242707 kJ/mol
# Density = 1.951506 g / cm^3
# Si number density = 19.559578 Si / 1000 Ang^3
#
#
#
# Elastic Constant Matrix: (Units=GPa)
#
#
# Indices 1 2 3 4 5 6 
#
# 1 115.2647 26.5354 19.5503 0.0000 0.0000 0.0000
# 2 26.5354 114.4429 30.3817 0.0000 0.0000 0.0000
# 3 19.5503 30.3817 45.1767 0.0000 0.0000 0.0000
# 4 0.0000 0.0000 0.0000 26.5939 0.0000 0.0000
# 5 0.0000 0.0000 0.0000 0.0000 16.6690 0.0000
# 6 0.0000 0.0000 0.0000 0.0000 0.0000 31.0429
#
#
#
# Elastic Compliance Matrix: (Units=1/GPa)
#
#
# Indices 1 2 3 4 5 6 
#
# 1 0.009533 -0.001358 -0.003212 0.000000 0.000000 0.000000
# 2 -0.001358 0.010830 -0.006696 0.000000 0.000000 0.000000
# 3 -0.003212 -0.006696 0.028029 0.000000 0.000000 0.000000
# 4 0.000000 0.000000 0.000000 0.037603 0.000000 0.000000
# 5 0.000000 0.000000 0.000000 0.000000 0.059992 0.000000
# 6 0.000000 0.000000 0.000000 0.000000 0.000000 0.032214
#
#
# Mechanical properties :
#
#
# Convention : Reuss Voigt Hill
#
# Bulk Modulus (GPa) = 38.66986 47.53547 43.10267
# Shear Modulus (GPa) = 23.88322 28.08894 25.98608
#
# Velocity S-wave (km/s) = 3.49814 3.79366 3.64890
# Velocity P-wave (km/s) = 6.01076 6.59885 6.31166
#
# Compressibility (1/GPa) = 0.02585993
#
# Stress axis : x y z
#
# Youngs Moduli (GPa) = 104.89782 92.33285 35.67780
#
# Poissons Ratio (x) = 0.12535 0.11461
# Poissons Ratio (y) = 0.14241 0.23890
# Poissons Ratio (z) = 0.33698 0.61826
#
# Static dielectric constant tensor:
#      x y z
#    x 6.085910 0.000000 0.000000 
#    y 0.000000 4.215090 0.000000 
#    z 0.000000 0.000000 3.337980 
# 
# 
# High freq. dielectric constant tensor:
#      x y z
#    x 1.751870 0.000000 0.000000 
#    y 0.000000 1.779530 0.000000 
#    z 0.000000 0.000000 1.729020 
# 
# From -- ./inp_files/22395.got.cif
#   From: 2010.03.12/outbox.cif.g09.slc.cpg/sg68_12_cif.got.tgz:22395.got - 2010.04.10 23:14:56.
