data_PCOD8281720
_publ_section_title
;
Structure prediction by ZEFSAII (Michael W. Deem and Ramdas Pophale) SiO2 
 PCOD8281720
Probable space group: C C C A
;
_chemical_formula_sum "Si O2"
_cell_formula_units_Z 80
_cell_length_a 23.404639
_cell_length_b 14.190024
_cell_length_c 14.932167
_cell_angle_alpha 90.000000
_cell_angle_beta 90.000000
_cell_angle_gamma 90.000000
_cell_volume 4959.157657
_symmetry_space_group_name_H-M "C C C A"
_symmetry_group_IT_number 68
_space_group.IT_coordinate_system_code '2'
_symmetry_cell_setting 'orthorhombic'
loop_
_space_group_symop_operation_xyz
x,y,z
-x,1/2-y,z
x,1/2-y,1/2-z
-x,y,1/2-z
-x,-y,-z
x,1/2+y,-z
-x,1/2+y,1/2+z
x,-y,1/2+z
1/2+x,1/2+y,z
1/2-x,-y,z
1/2+x,-y,1/2-z
1/2-x,1/2+y,1/2-z
1/2-x,1/2-y,-z
1/2+x,y,-z
1/2-x,y,1/2+z
1/2+x,1/2-y,1/2+z
loop_
_atom_site_type_symbol
_atom_site_label
_atom_site_fract_x
_atom_site_fract_y
_atom_site_fract_z
Si Si1 0.345221 0.129270 0.609100
Si Si2 0.694918 0.563481 0.931708
Si Si3 0.742627 0.223887 0.656071
Si Si4 0.641894 0.078464 0.694072
Si Si5 0.563246 0.727887 0.353659
O O1 0.342146 0.061542 0.522727
O O2 0.283096 0.180633 0.613408
O O3 0.361256 0.067712 0.697595
O O4 0.394530 0.205806 0.590156
O O5 0.750000 0.500000 0.947738
O O6 0.711905 0.671341 0.907504
O O7 0.657323 0.521391 0.850219
O O8 0.773291 0.250000 0.750000
O O9 0.690042 0.155751 0.677111
O O10 0.583891 0.117996 0.645085
O O11 0.500000 0.750000 0.390608
O O12 0.569019 0.750000 0.250000
#
# Coordination Sequence:
#
# PCOD8281720 Si02
#       5
#    16  16  16  16  16
#     4   9  16  27  42  61  83 108 139 170 200 247
#     4  10  18  26  39  61  88 115 135 163 206 245
#     4   8  15  27  41  57  82 114 142 166 196 243
#     4   8  16  28  40  61  86 103 136 179 205 235
#     4   8  14  28  48  61  73 101 137 175 214 245
#
# _framework density 16.131772000000002
#
# number of rings (size 3 to 8) (size 9 to 14) (size 15 to 20)
#    0.000    3.400    0.000    3.000    0.000    4.000 
#    0.000    1.000    0.000    0.000    0.000    0.000 
#    0.000    1.600    0.000    0.000    0.000    0.000 
#
# Total GULP energy -495532.266680 kJ/mol
# GULP energy per Si atom -12388.306667 kJ/mol
# Density = 1.609506 g / cm^3
# Si number density = 16.131772 Si / 1000 Ang^3
#
#
#
# Elastic Constant Matrix: (Units=GPa)
#
#
# Indices 1 2 3 4 5 6 
#
# 1 70.6743 26.1286 32.0525 0.0000 0.0000 0.0000
# 2 26.1286 52.6981 35.7142 0.0000 0.0000 0.0000
# 3 32.0525 35.7142 95.2746 0.0000 0.0000 0.0000
# 4 0.0000 0.0000 0.0000 22.2130 0.0000 0.0000
# 5 0.0000 0.0000 0.0000 0.0000 12.2011 0.0000
# 6 0.0000 0.0000 0.0000 0.0000 0.0000 11.1121
#
#
#
# Elastic Compliance Matrix: (Units=1/GPa)
#
#
# Indices 1 2 3 4 5 6 
#
# 1 0.018240 -0.006549 -0.003682 0.000000 0.000000 0.000000
# 2 -0.006549 0.027790 -0.008214 0.000000 0.000000 0.000000
# 3 -0.003682 -0.008214 0.014814 0.000000 0.000000 0.000000
# 4 0.000000 0.000000 0.000000 0.045019 0.000000 0.000000
# 5 0.000000 0.000000 0.000000 0.000000 0.081960 0.000000
# 6 0.000000 0.000000 0.000000 0.000000 0.000000 0.089992
#
#
# Mechanical properties :
#
#
# Convention : Reuss Voigt Hill
#
# Bulk Modulus (GPa) = 41.74510 45.15973 43.45242
# Shear Modulus (GPa) = 15.49483 17.42200 16.45841
#
# Velocity S-wave (km/s) = 3.10258 3.28987 3.19760
# Velocity P-wave (km/s) = 6.22643 6.51813 6.37395
#
# Compressibility (1/GPa) = 0.02395491
#
# Stress axis : x y z
#
# Youngs Moduli (GPa) = 54.82395 35.98453 67.50551
#
# Poissons Ratio (x) = 0.23565 0.24853
# Poissons Ratio (y) = 0.35903 0.55449
# Poissons Ratio (z) = 0.20184 0.29558
#
# Static dielectric constant tensor:
#      x y z
#    x 3.034690 0.000000 0.000000 
#    y 0.000000 3.003390 0.000000 
#    z 0.000000 0.000000 2.973650 
# 
# 
# High freq. dielectric constant tensor:
#      x y z
#    x 1.584040 0.000000 0.000000 
#    y 0.000000 1.597630 0.000000 
#    z 0.000000 0.000000 1.610480 
# 
# From -- ./inp_files/17034.got.cif
#   From: 2010.03.12/outbox.cif.g09.slc.cpg/sg68_9_cif.got.tgz:17034.got - 2010.04.10 23:14:56.
