data_PCOD8281725
_publ_section_title
;
Structure prediction by ZEFSAII (Michael W. Deem and Ramdas Pophale) SiO2 
 PCOD8281725
Probable space group: C C C A
;
_chemical_formula_sum "Si O2"
_cell_formula_units_Z 96
_cell_length_a 22.792649
_cell_length_b 11.926239
_cell_length_c 19.880364
_cell_angle_alpha 90.000000
_cell_angle_beta 90.000000
_cell_angle_gamma 90.000000
_cell_volume 5404.090865
_symmetry_space_group_name_H-M "C C C A"
_symmetry_group_IT_number 68
_space_group.IT_coordinate_system_code '2'
_symmetry_cell_setting 'orthorhombic'
loop_
_space_group_symop_operation_xyz
x,y,z
-x,1/2-y,z
x,1/2-y,1/2-z
-x,y,1/2-z
-x,-y,-z
x,1/2+y,-z
-x,1/2+y,1/2+z
x,-y,1/2+z
1/2+x,1/2+y,z
1/2-x,-y,z
1/2+x,-y,1/2-z
1/2-x,1/2+y,1/2-z
1/2-x,1/2-y,-z
1/2+x,y,-z
1/2-x,y,1/2+z
1/2+x,1/2-y,1/2+z
loop_
_atom_site_type_symbol
_atom_site_label
_atom_site_fract_x
_atom_site_fract_y
_atom_site_fract_z
Si Si1 0.341505 0.444880 0.331000
Si Si2 0.304066 0.073217 0.540892
Si Si3 0.150465 0.401089 0.599028
Si Si4 0.251401 0.737989 0.360337
Si Si5 0.190308 0.566096 0.701097
Si Si6 0.068867 0.238218 0.673240
O O1 0.335454 0.508332 0.399948
O O2 0.285769 0.358758 0.320843
O O3 0.344112 0.536000 0.270583
O O4 0.403517 0.382695 0.343052
O O5 0.351873 0.086844 0.481678
O O6 0.282670 0.190751 0.572679
O O7 0.250000 0.000000 0.512081
O O8 0.209394 0.334414 0.614068
O O9 0.152477 0.520216 0.637611
O O10 0.094409 0.333825 0.625195
O O11 0.298125 0.800089 0.310291
O O12 0.250000 0.500000 0.706526
O O13 0.088932 0.250000 0.750000
O O14 0.000000 0.250000 0.663673
#
# Coordination Sequence:
#
# PCOD8281725 Si02
#       6
#    16  16  16  16  16  16
#     4  10  20  33  49  76 107 133 174 214 256 300
#     4  10  19  32  48  76 113 149 164 196 251 318
#     4  10  19  31  51  76 104 134 176 206 250 299
#     4   9  19  30  47  73 112 145 168 193 248 311
#     4  10  18  28  46  72 105 136 168 204 239 300
#     4  10  20  37  58  75  94 126 178 233 270 292
#
# _framework density 17.764320999999999
#
# number of rings (size 3 to 8) (size 9 to 14) (size 15 to 20)
#    0.000    2.167    1.667    3.500    0.000    6.000 
#    0.000    0.833    0.000    0.000    0.000    0.000 
#    0.000    0.000    0.000    0.000    0.000    0.000 
#
# Total GULP energy -594793.155052 kJ/mol
# GULP energy per Si atom -12391.524064 kJ/mol
# Density = 1.772389 g / cm^3
# Si number density = 17.764321 Si / 1000 Ang^3
#
#
#
# Elastic Constant Matrix: (Units=GPa)
#
#
# Indices 1 2 3 4 5 6 
#
# 1 61.0175 26.0205 41.8396 0.0000 0.0000 0.0000
# 2 26.0205 81.1151 53.0429 0.0000 0.0000 0.0000
# 3 41.8396 53.0429 132.9686 0.0000 0.0000 0.0000
# 4 0.0000 0.0000 0.0000 22.6165 0.0000 0.0000
# 5 0.0000 0.0000 0.0000 0.0000 12.5334 0.0000
# 6 0.0000 0.0000 0.0000 0.0000 0.0000 -3.6850
#
#
#
# Elastic Compliance Matrix: (Units=1/GPa)
#
#
# Indices 1 2 3 4 5 6 
#
# 1 0.021552 -0.003354 -0.005443 0.000000 0.000000 0.000000
# 2 -0.003354 0.017201 -0.005806 0.000000 0.000000 0.000000
# 3 -0.005443 -0.005806 0.011550 0.000000 0.000000 0.000000
# 4 0.000000 0.000000 0.000000 0.044216 0.000000 0.000000
# 5 0.000000 0.000000 0.000000 0.000000 0.079787 0.000000
# 6 0.000000 0.000000 0.000000 0.000000 0.000000 -0.271369
#
#
# Mechanical properties :
#
#
# Convention : Reuss Voigt Hill
#
# Bulk Modulus (GPa) = 47.40504 57.43413 52.41958
# Shear Modulus (GPa) = -82.20171 16.57285 -32.81443
#
# Velocity S-wave (km/s) = -6.80984 3.05770 -4.30258
# Velocity P-wave (km/s) = 5.92355 6.69831 2.21122
#
# Compressibility (1/GPa) = 0.02109480
#
# Stress axis : x y z
#
# Youngs Moduli (GPa) = 46.40039 58.13638 86.58269
#
# Poissons Ratio (x) = 0.19498 0.47131
# Poissons Ratio (y) = 0.15562 0.50273
# Poissons Ratio (z) = 0.25258 0.33756
#
# Static dielectric constant tensor:
#      x y z
#    x 2.858230 0.000000 0.000000 
#    y 0.000000 3.693020 0.000000 
#    z 0.000000 0.000000 3.524450 
# 
# 
# High freq. dielectric constant tensor:
#      x y z
#    x 1.624930 0.000000 0.000000 
#    y 0.000000 1.690750 0.000000 
#    z 0.000000 0.000000 1.701110 
# 
# From -- ./inp_files/29816.got.cif
#   From: 2010.03.12/outbox.cif.g09.slc.cpg/sg68_15_cif.got.tgz:29816.got - 2010.04.10 23:14:56.
