data_PCOD8281392
_publ_section_title
;
Structure prediction by ZEFSAII (Michael W. Deem and Ramdas Pophale) SiO2 
 PCOD8281392
Probable space group: C M M A
;
_chemical_formula_sum "Si O2"
_cell_formula_units_Z 72
_cell_length_a 9.884519
_cell_length_b 14.387582
_cell_length_c 26.568357
_cell_angle_alpha 90.000000
_cell_angle_beta 90.000000
_cell_angle_gamma 90.000000
_cell_volume 3778.401027
_symmetry_space_group_name_H-M "C M M A"
_symmetry_group_IT_number 67
_symmetry_cell_setting 'orthorhombic'
loop_
_space_group_symop_operation_xyz
x,y,z
-x,1/2-y,z
x,-y,-z
-x,1/2+y,-z
-x,-y,-z
x,1/2+y,-z
-x,y,z
x,1/2-y,z
1/2+x,1/2+y,z
1/2-x,-y,z
1/2+x,1/2-y,-z
1/2-x,y,-z
1/2-x,1/2-y,-z
1/2+x,y,-z
1/2-x,1/2+y,z
1/2+x,-y,z
loop_
_atom_site_type_symbol
_atom_site_label
_atom_site_fract_x
_atom_site_fract_y
_atom_site_fract_z
Si Si1 0.000000 0.861326 0.955750
Si Si2 0.151343 0.750000 0.801208
Si Si3 0.842633 0.592082 0.372378
Si Si4 0.656102 0.750000 0.548089
Si Si5 0.842859 0.250000 0.706369
Si Si6 0.229805 0.101252 0.119402
Si Si7 0.000000 0.148019 0.934383
O O1 0.868810 0.902349 0.928429
O O2 0.000000 0.750000 0.950312
O O3 0.000000 0.906206 0.012214
O O4 0.257379 0.750000 0.756671
O O5 0.169507 0.839609 0.835613
O O6 0.000000 0.750000 0.778698
O O7 0.750000 0.500000 0.372955
O O8 0.812719 0.656136 0.420833
O O9 0.808145 0.656135 0.324252
O O10 0.000000 0.561487 0.371497
O O11 0.500000 0.750000 0.531289
O O12 0.750000 0.750000 0.500000
O O13 0.000000 0.250000 0.720881
O O14 0.372730 0.137128 0.101078
O O15 0.250000 0.000000 0.142510
O O16 0.000000 0.250000 0.956942
#
# Coordination Sequence:
#
# PCOD8281392 Si02
#       7
#     8   8  16   8   8  16   8
#     4  11  21  43  61  82 119 149 178 227 277 332
#     4  12  25  45  60  83 118 148 182 237 296 349
#     4   9  19  38  61  89 122 159 206 257 300 350
#     4   9  19  35  55  86 132 177 214 252 300 348
#     4   9  22  42  65  84 112 151 194 246 301 355
#     4  12  24  40  60  85 115 146 183 228 279 341
#     4  11  23  37  65  88 109 149 188 221 273 338
#
# _framework density 19.055681
#
# number of rings (size 3 to 8) (size 9 to 14) (size 15 to 20)
#    0.000    1.556    3.333    2.667    1.556    7.556 
#    0.000    6.667    0.000    0.000    0.000    0.000 
#    0.000    0.000    0.000    0.000    0.000    0.000 
#
# Total GULP energy -446287.609628 kJ/mol
# GULP energy per Si atom -12396.878045 kJ/mol
# Density = 1.901231 g / cm^3
# Si number density = 19.055681 Si / 1000 Ang^3
#
#
#
# Elastic Constant Matrix: (Units=GPa)
#
#
# Indices 1 2 3 4 5 6 
#
# 1 127.5647 42.8325 53.2636 0.0000 0.0000 0.0000
# 2 42.8325 135.2866 34.9192 0.0000 0.0000 0.0000
# 3 53.2636 34.9192 112.6622 0.0000 0.0000 0.0000
# 4 0.0000 0.0000 0.0000 38.2702 0.0000 0.0000
# 5 0.0000 0.0000 0.0000 0.0000 44.3799 0.0000
# 6 0.0000 0.0000 0.0000 0.0000 0.0000 37.3453
#
#
#
# Elastic Compliance Matrix: (Units=1/GPa)
#
#
# Indices 1 2 3 4 5 6 
#
# 1 0.010329 -0.002185 -0.004206 0.000000 0.000000 0.000000
# 2 -0.002185 0.008497 -0.001601 0.000000 0.000000 0.000000
# 3 -0.004206 -0.001601 0.011361 0.000000 0.000000 0.000000
# 4 0.000000 0.000000 0.000000 0.026130 0.000000 0.000000
# 5 0.000000 0.000000 0.000000 0.000000 0.022533 0.000000
# 6 0.000000 0.000000 0.000000 0.000000 0.000000 0.026777
#
#
# Mechanical properties :
#
#
# Convention : Reuss Voigt Hill
#
# Bulk Modulus (GPa) = 70.40523 70.83823 70.62173
# Shear Modulus (GPa) = 39.57475 40.29895 39.93685
#
# Velocity S-wave (km/s) = 4.56213 4.60368 4.58295
# Velocity P-wave (km/s) = 8.04848 8.09405 8.07130
#
# Compressibility (1/GPa) = 0.01420349
#
# Stress axis : x y z
#
# Youngs Moduli (GPa) = 96.81574 117.69546 88.02225
#
# Poissons Ratio (x) = 0.25711 0.37023
# Poissons Ratio (y) = 0.21150 0.14089
# Poissons Ratio (z) = 0.40722 0.18839
#
# Static dielectric constant tensor:
#      x y z
#    x 3.484480 0.000000 0.000000 
#    y 0.000000 3.728690 0.000000 
#    z 0.000000 0.000000 3.326330 
# 
# 
# High freq. dielectric constant tensor:
#      x y z
#    x 1.752070 0.000000 0.000000 
#    y 0.000000 1.751870 0.000000 
#    z 0.000000 0.000000 1.728890 
# 
# From -- ./inp_files/43167.got.cif
#   From: 2010.03.12/outbox.cif.g09.slc.cpg/sg67_22_cif.got.tgz:43167.got - 2010.04.10 22:41:39.
