data_PCOD8281796
_publ_section_title
;
Structure prediction by ZEFSAII (Michael W. Deem and Ramdas Pophale) SiO2 
 PCOD8281796
Probable space group: C C C A
;
_chemical_formula_sum "Si O2"
_cell_formula_units_Z 72
_cell_length_a 11.069747
_cell_length_b 13.852969
_cell_length_c 24.694015
_cell_angle_alpha 90.000000
_cell_angle_beta 90.000000
_cell_angle_gamma 90.000000
_cell_volume 3786.799099
_symmetry_space_group_name_H-M "C C C A"
_symmetry_group_IT_number 68
_space_group.IT_coordinate_system_code '2'
_symmetry_cell_setting 'orthorhombic'
loop_
_space_group_symop_operation_xyz
x,y,z
-x,1/2-y,z
x,1/2-y,1/2-z
-x,y,1/2-z
-x,-y,-z
x,1/2+y,-z
-x,1/2+y,1/2+z
x,-y,1/2+z
1/2+x,1/2+y,z
1/2-x,-y,z
1/2+x,-y,1/2-z
1/2-x,1/2+y,1/2-z
1/2-x,1/2-y,-z
1/2+x,y,-z
1/2-x,y,1/2+z
1/2+x,1/2-y,1/2+z
loop_
_atom_site_type_symbol
_atom_site_label
_atom_site_fract_x
_atom_site_fract_y
_atom_site_fract_z
Si Si1 0.888249 0.907294 0.913108
Si Si2 0.110299 0.120596 0.578014
Si Si3 0.500000 0.750000 0.833698
Si Si4 0.297068 0.250000 0.250000
Si Si5 0.072957 0.849234 0.703554
Si Si6 0.000000 0.250000 0.490145
O O1 0.748236 0.886573 0.905725
O O2 0.939499 0.905365 0.852403
O O3 0.933549 0.825259 0.952542
O O4 0.928282 0.010961 0.937237
O O5 0.094864 0.191518 0.526959
O O6 0.034390 0.158796 0.629055
O O7 0.614138 0.713343 0.797980
O O8 0.211125 0.332795 0.275946
O O9 0.000000 0.750000 0.695406
O O10 0.000000 0.909161 0.750000
#
# Coordination Sequence:
#
# PCOD8281796 Si02
#       6
#    16  16   8   8  16   8
#     4  11  20  39  58  83 116 149 190 241 289 335
#     4  10  23  36  56  87 112 148 191 241 289 342
#     4  10  18  35  56  82 119 148 184 232 290 340
#     4   9  17  32  60  80 111 157 184 224 280 343
#     4   9  18  34  58  85 112 152 191 220 279 345
#     4  11  22  39  61  77 109 156 197 240 286 338
#
# _framework density 19.01342
#
# number of rings (size 3 to 8) (size 9 to 14) (size 15 to 20)
#    0.000    2.222    3.333    1.333    0.000    0.000 
#    4.000    0.000    0.000   10.667    0.000    0.000 
#    0.000    0.000    0.000    0.000    0.000    0.000 
#
# Total GULP energy -446037.119896 kJ/mol
# GULP energy per Si atom -12389.919997 kJ/mol
# Density = 1.897014 g / cm^3
# Si number density = 19.013420 Si / 1000 Ang^3
#
#
#
# Elastic Constant Matrix: (Units=GPa)
#
#
# Indices 1 2 3 4 5 6 
#
# 1 94.4235 43.1146 45.4539 0.0000 0.0000 0.0000
# 2 43.1146 107.8243 57.8987 0.0000 0.0000 0.0000
# 3 45.4539 57.8987 141.7419 0.0000 0.0000 0.0000
# 4 0.0000 0.0000 0.0000 -8.6677 0.0000 0.0000
# 5 0.0000 0.0000 0.0000 0.0000 31.0079 0.0000
# 6 0.0000 0.0000 0.0000 0.0000 0.0000 21.4581
#
#
#
# Elastic Compliance Matrix: (Units=1/GPa)
#
#
# Indices 1 2 3 4 5 6 
#
# 1 0.013757 -0.004012 -0.002773 0.000000 0.000000 0.000000
# 2 -0.004012 0.013050 -0.004044 0.000000 0.000000 0.000000
# 3 -0.002773 -0.004044 0.009596 0.000000 0.000000 0.000000
# 4 0.000000 0.000000 0.000000 -0.115371 0.000000 0.000000
# 5 0.000000 0.000000 0.000000 0.000000 0.032250 0.000000
# 6 0.000000 0.000000 0.000000 0.000000 0.000000 0.046603
#
#
# Mechanical properties :
#
#
# Convention : Reuss Voigt Hill
#
# Bulk Modulus (GPa) = 67.81672 70.76934 69.29303
# Shear Modulus (GPa) = 188.97739 21.92782 105.45261
#
# Velocity S-wave (km/s) = 9.98035 3.39968 7.45537
# Velocity P-wave (km/s) = 12.98288 7.26030 10.51825
#
# Compressibility (1/GPa) = 0.01474563
#
# Stress axis : x y z
#
# Youngs Moduli (GPa) = 72.68851 76.62713 104.20743
#
# Poissons Ratio (x) = 0.30743 0.28895
# Poissons Ratio (y) = 0.29163 0.42143
# Poissons Ratio (z) = 0.20156 0.30989
#
# Static dielectric constant tensor:
#      x y z
#    x 3.576350 0.000000 0.000000 
#    y 0.000000 3.408860 0.000000 
#    z 0.000000 0.000000 3.906470 
# 
# 
# High freq. dielectric constant tensor:
#      x y z
#    x 1.740140 0.000000 0.000000 
#    y 0.000000 1.715300 0.000000 
#    z 0.000000 0.000000 1.758240 
# 
# From -- ./inp_files/50037.got.cif
#   From: 2010.03.12/outbox.cif.g09.slc.cpg/sg68_26_cif.got.tgz:50037.got - 2010.04.10 23:14:56.
