data_PCOD8281008
_publ_section_title
;
Structure prediction by ZEFSAII (Michael W. Deem and Ramdas Pophale) SiO2 
 PCOD8281008
Probable space group: C M M A
;
_chemical_formula_sum "Si O2"
_cell_formula_units_Z 64
_cell_length_a 13.065355
_cell_length_b 22.298752
_cell_length_c 9.307646
_cell_angle_alpha 90.000000
_cell_angle_beta 90.000000
_cell_angle_gamma 90.000000
_cell_volume 2711.699926
_symmetry_space_group_name_H-M "C M M A"
_symmetry_group_IT_number 67
_symmetry_cell_setting 'orthorhombic'
loop_
_space_group_symop_operation_xyz
x,y,z
-x,1/2-y,z
x,-y,-z
-x,1/2+y,-z
-x,-y,-z
x,1/2+y,-z
-x,y,z
x,1/2-y,z
1/2+x,1/2+y,z
1/2-x,-y,z
1/2+x,1/2-y,-z
1/2-x,y,-z
1/2-x,1/2-y,-z
1/2+x,y,-z
1/2-x,1/2+y,z
1/2+x,-y,z
loop_
_atom_site_type_symbol
_atom_site_label
_atom_site_fract_x
_atom_site_fract_y
_atom_site_fract_z
Si Si1 0.879880 0.535974 0.794838
Si Si2 0.813072 0.317766 0.702024
Si Si3 0.621711 0.587410 0.908023
Si Si4 0.884753 0.638011 0.590015
O O1 0.835283 0.467832 0.806121
O O2 0.857160 0.570242 0.644749
O O3 0.000000 0.527862 0.819109
O O4 0.839323 0.576683 0.928517
O O5 0.855293 0.250000 0.707403
O O6 0.832574 0.349870 0.853193
O O7 0.872457 0.357113 0.581363
O O8 0.692185 0.315405 0.665761
O O9 0.500000 0.591684 0.901237
O O10 0.000000 0.654724 0.636042
#
# Coordination Sequence:
#
# PCOD8281008 Si02
#       4
#    16  16  16  16
#     4   8  17  36  62  89 114 147 188 233 291 338
#     4  11  24  38  56  84 114 153 197 230 280 346
#     4   9  18  36  61  89 121 149 184 236 282 333
#     4  10  21  39  60  81 111 149 191 240 287 336
#
# _framework density 23.601429
#
# number of rings (size 3 to 8) (size 9 to 14) (size 15 to 20)
#    0.000    2.500    0.000    3.750    0.000    6.500 
#    0.000   12.500    0.000    9.000    0.000    0.000 
#    0.000    0.000    0.000    0.000    0.000    0.000 
#
# Total GULP energy -396684.830946 kJ/mol
# GULP energy per Si atom -12396.400967 kJ/mol
# Density = 2.354771 g / cm^3
# Si number density = 23.601429 Si / 1000 Ang^3
#
#
#
# Elastic Constant Matrix: (Units=GPa)
#
#
# Indices 1 2 3 4 5 6 
#
# 1 55.4569 30.0349 22.4500 0.0000 0.0000 0.0000
# 2 30.0349 151.8656 80.0327 0.0000 0.0000 0.0000
# 3 22.4500 80.0327 93.4928 0.0000 0.0000 0.0000
# 4 0.0000 0.0000 0.0000 35.0766 0.0000 0.0000
# 5 0.0000 0.0000 0.0000 0.0000 26.6041 0.0000
# 6 0.0000 0.0000 0.0000 0.0000 0.0000 20.4538
#
#
#
# Elastic Compliance Matrix: (Units=1/GPa)
#
#
# Indices 1 2 3 4 5 6 
#
# 1 0.020550 -0.002667 -0.002652 0.000000 0.000000 0.000000
# 2 -0.002667 0.012343 -0.009926 0.000000 0.000000 0.000000
# 3 -0.002652 -0.009926 0.019829 0.000000 0.000000 0.000000
# 4 0.000000 0.000000 0.000000 0.028509 0.000000 0.000000
# 5 0.000000 0.000000 0.000000 0.000000 0.037588 0.000000
# 6 0.000000 0.000000 0.000000 0.000000 0.000000 0.048891
#
#
# Mechanical properties :
#
#
# Convention : Reuss Voigt Hill
#
# Bulk Modulus (GPa) = 44.97619 62.87228 53.92423
# Shear Modulus (GPa) = 24.31797 27.64675 25.98236
#
# Velocity S-wave (km/s) = 3.21340 3.42629 3.32155
# Velocity P-wave (km/s) = 5.73288 6.50766 6.13252
#
# Compressibility (1/GPa) = 0.02223399
#
# Stress axis : x y z
#
# Youngs Moduli (GPa) = 48.66238 81.01813 50.43031
#
# Poissons Ratio (x) = 0.21605 0.13373
# Poissons Ratio (y) = 0.12977 0.50055
# Poissons Ratio (z) = 0.12904 0.80415
#
# Static dielectric constant tensor:
#      x y z
#    x 4.428300 0.000000 0.000000 
#    y 0.000000 4.016310 0.000000 
#    z 0.000000 0.000000 4.066370 
# 
# 
# High freq. dielectric constant tensor:
#      x y z
#    x 1.963290 0.000000 0.000000 
#    y 0.000000 1.909510 0.000000 
#    z 0.000000 0.000000 1.910590 
# 
# From -- ./inp_files/7983.got.cif
#   From: 2010.03.12/outbox.cif.g09.slc.cpg/sg67_4_cif.got.tgz:7983.got - 2010.04.10 22:41:39.
