data_PCOD8281731
_publ_section_title
;
Structure prediction by ZEFSAII (Michael W. Deem and Ramdas Pophale) SiO2 
 PCOD8281731
Probable space group: C C C A
;
_chemical_formula_sum "Si O2"
_cell_formula_units_Z 80
_cell_length_a 21.020231
_cell_length_b 8.706891
_cell_length_c 25.384233
_cell_angle_alpha 90.000000
_cell_angle_beta 90.000000
_cell_angle_gamma 90.000000
_cell_volume 4645.844157
_symmetry_space_group_name_H-M "C C C A"
_symmetry_group_IT_number 68
_space_group.IT_coordinate_system_code '2'
_symmetry_cell_setting 'orthorhombic'
loop_
_space_group_symop_operation_xyz
x,y,z
-x,1/2-y,z
x,1/2-y,1/2-z
-x,y,1/2-z
-x,-y,-z
x,1/2+y,-z
-x,1/2+y,1/2+z
x,-y,1/2+z
1/2+x,1/2+y,z
1/2-x,-y,z
1/2+x,-y,1/2-z
1/2-x,1/2+y,1/2-z
1/2-x,1/2-y,-z
1/2+x,y,-z
1/2-x,y,1/2+z
1/2+x,1/2-y,1/2+z
loop_
_atom_site_type_symbol
_atom_site_label
_atom_site_fract_x
_atom_site_fract_y
_atom_site_fract_z
Si Si1 0.000000 0.750000 0.351151
Si Si2 0.060941 0.961679 0.433326
Si Si3 0.321063 0.557095 0.634724
Si Si4 0.681023 0.071215 0.742738
Si Si5 0.500000 0.750000 0.483485
Si Si6 0.631807 0.177697 0.305101
O O1 0.018543 0.897856 0.385598
O O2 0.057421 0.696975 0.314693
O O3 0.134966 0.971565 0.416395
O O4 0.051617 0.844801 0.482166
O O5 0.038890 0.132867 0.447173
O O6 0.250000 0.500000 0.620788
O O7 0.351148 0.468868 0.685856
O O8 0.325574 0.740886 0.649032
O O9 0.683278 0.250000 0.750000
O O10 0.750000 0.000000 0.738070
O O11 0.646561 0.002626 0.795228
O O12 0.653164 0.250000 0.250000
#
# Coordination Sequence:
#
# PCOD8281731 Si02
#       6
#     8  16  16  16   8  16
#     4   9  17  30  49  70  92 122 157 192 233 277
#     4   9  18  32  51  69  89 119 152 194 241 287
#     4   9  17  31  48  68  94 124 157 191 229 275
#     4  10  18  29  46  70 100 133 164 192 226 270
#     4   9  18  34  51  68  88 114 153 194 244 297
#     4   9  17  29  46  67  95 130 159 187 225 270
#
# _framework density 17.21969
#
# number of rings (size 3 to 8) (size 9 to 14) (size 15 to 20)
#    0.000    2.800    0.000    3.300    0.000    1.600 
#    0.000    1.000    0.000   10.800    0.000    0.000 
#    0.000    0.000    0.000    0.000    0.000    0.000 
#
# Total GULP energy -495628.469478 kJ/mol
# GULP energy per Si atom -12390.711737 kJ/mol
# Density = 1.718050 g / cm^3
# Si number density = 17.219690 Si / 1000 Ang^3
#
#
#
# Elastic Constant Matrix: (Units=GPa)
#
#
# Indices 1 2 3 4 5 6 
#
# 1 115.4237 52.2750 46.1790 0.0000 0.0000 0.0000
# 2 52.2750 142.4058 46.1798 0.0000 0.0000 0.0000
# 3 46.1790 46.1798 70.4662 0.0000 0.0000 0.0000
# 4 0.0000 0.0000 0.0000 25.1815 0.0000 0.0000
# 5 0.0000 0.0000 0.0000 0.0000 18.7232 0.0000
# 6 0.0000 0.0000 0.0000 0.0000 0.0000 20.5377
#
#
#
# Elastic Compliance Matrix: (Units=1/GPa)
#
#
# Indices 1 2 3 4 5 6 
#
# 1 0.012370 -0.002428 -0.006515 0.000000 0.000000 0.000000
# 2 -0.002428 0.009394 -0.004565 0.000000 0.000000 0.000000
# 3 -0.006515 -0.004565 0.021453 0.000000 0.000000 0.000000
# 4 0.000000 0.000000 0.000000 0.039712 0.000000 0.000000
# 5 0.000000 0.000000 0.000000 0.000000 0.053410 0.000000
# 6 0.000000 0.000000 0.000000 0.000000 0.000000 0.048691
#
#
# Mechanical properties :
#
#
# Convention : Reuss Voigt Hill
#
# Bulk Modulus (GPa) = 61.72960 68.61815 65.17388
# Shear Modulus (GPa) = 22.99426 25.13260 24.06343
#
# Velocity S-wave (km/s) = 3.65820 3.82452 3.74229
# Velocity P-wave (km/s) = 7.33276 7.70959 7.52353
#
# Compressibility (1/GPa) = 0.01619968
#
# Stress axis : x y z
#
# Youngs Moduli (GPa) = 80.84039 106.45252 46.61437
#
# Poissons Ratio (x) = 0.25847 0.30371
# Poissons Ratio (y) = 0.19628 0.21280
# Poissons Ratio (z) = 0.52670 0.48596
#
# Static dielectric constant tensor:
#      x y z
#    x 3.075720 0.000000 0.000000 
#    y 0.000000 3.491280 0.000000 
#    z 0.000000 0.000000 3.269310 
# 
# 
# High freq. dielectric constant tensor:
#      x y z
#    x 1.652080 0.000000 0.000000 
#    y 0.000000 1.666220 0.000000 
#    z 0.000000 0.000000 1.648840 
# 
# From -- ./inp_files/46429.got.cif
#   From: 2010.03.12/outbox.cif.g09.slc.cpg/sg68_24_cif.got.tgz:46429.got - 2010.04.10 23:14:56.
