data_PCOD8281312
_publ_section_title
;
Structure prediction by ZEFSAII (Michael W. Deem and Ramdas Pophale) SiO2 
 PCOD8281312
Probable space group: C M M A
;
_chemical_formula_sum "Si O2"
_cell_formula_units_Z 64
_cell_length_a 18.424322
_cell_length_b 14.642869
_cell_length_c 10.960403
_cell_angle_alpha 90.000000
_cell_angle_beta 90.000000
_cell_angle_gamma 90.000000
_cell_volume 2956.951594
_symmetry_space_group_name_H-M "C M M A"
_symmetry_group_IT_number 67
_symmetry_cell_setting 'orthorhombic'
loop_
_space_group_symop_operation_xyz
x,y,z
-x,1/2-y,z
x,-y,-z
-x,1/2+y,-z
-x,-y,-z
x,1/2+y,-z
-x,y,z
x,1/2-y,z
1/2+x,1/2+y,z
1/2-x,-y,z
1/2+x,1/2-y,-z
1/2-x,y,-z
1/2-x,1/2-y,-z
1/2+x,y,-z
1/2-x,1/2+y,z
1/2+x,-y,z
loop_
_atom_site_type_symbol
_atom_site_label
_atom_site_fract_x
_atom_site_fract_y
_atom_site_fract_z
Si Si1 0.303888 0.250000 0.887117
Si Si2 0.916190 0.250000 0.920257
Si Si3 0.413930 0.415912 0.249521
Si Si4 0.317896 0.932619 0.260770
Si Si5 0.663195 0.852880 0.506949
O O1 0.291625 0.158747 0.808033
O O2 0.250000 0.250000 0.000000
O O3 0.383734 0.250000 0.944248
O O4 0.891093 0.162711 0.843608
O O5 0.000000 0.250000 0.943862
O O6 0.500000 0.420017 0.270696
O O7 0.381425 0.509813 0.191587
O O8 0.371363 0.401965 0.376601
O O9 0.359726 0.905273 0.385043
O O10 0.250000 0.000000 0.281885
O O11 0.633157 0.750000 0.506082
O O12 0.750000 0.854688 0.500000
#
# Coordination Sequence:
#
# PCOD8281312 Si02
#       5
#     8   8  16  16  16
#     4  12  28  45  67  98 133 177 232 288 327 391
#     4  10  24  47  69  93 131 177 226 277 333 386
#     4  11  24  43  70 101 134 177 224 273 336 410
#     4  12  25  43  66 101 135 176 220 278 338 398
#     4  11  22  39  69  99 136 175 212 266 340 410
#
# _framework density 21.643910999999999
#
# number of rings (size 3 to 8) (size 9 to 14) (size 15 to 20)
#    0.000    0.750    5.000    2.250    0.000    6.500 
#    0.000    2.500    0.000    0.000    0.000    0.000 
#    0.000    0.000    0.000    0.000    0.000    0.000 
#
# Total GULP energy -396622.124130 kJ/mol
# GULP energy per Si atom -12394.441379 kJ/mol
# Density = 2.159465 g / cm^3
# Si number density = 21.643911 Si / 1000 Ang^3
#
#
#
# Elastic Constant Matrix: (Units=GPa)
#
#
# Indices 1 2 3 4 5 6 
#
# 1 62.8270 32.8144 7.8912 0.0000 0.0000 0.0000
# 2 32.8144 159.4081 24.4943 0.0000 0.0000 0.0000
# 3 7.8912 24.4943 68.5714 0.0000 0.0000 0.0000
# 4 0.0000 0.0000 0.0000 16.9589 0.0000 0.0000
# 5 0.0000 0.0000 0.0000 0.0000 35.4138 0.0000
# 6 0.0000 0.0000 0.0000 0.0000 0.0000 33.7010
#
#
#
# Elastic Compliance Matrix: (Units=1/GPa)
#
#
# Indices 1 2 3 4 5 6 
#
# 1 0.017874 -0.003559 -0.000786 0.000000 0.000000 0.000000
# 2 -0.003559 0.007346 -0.002215 0.000000 0.000000 0.000000
# 3 -0.000786 -0.002215 0.015465 0.000000 0.000000 0.000000
# 4 0.000000 0.000000 0.000000 0.058966 0.000000 0.000000
# 5 0.000000 0.000000 0.000000 0.000000 0.028238 0.000000
# 6 0.000000 0.000000 0.000000 0.000000 0.000000 0.029673
#
#
# Mechanical properties :
#
#
# Convention : Reuss Voigt Hill
#
# Bulk Modulus (GPa) = 36.27521 46.80068 41.53794
# Shear Modulus (GPa) = 27.79814 32.25519 30.02666
#
# Velocity S-wave (km/s) = 3.58766 3.86458 3.72869
# Velocity P-wave (km/s) = 5.82736 6.44851 6.14579
#
# Compressibility (1/GPa) = 0.02756704
#
# Stress axis : x y z
#
# Youngs Moduli (GPa) = 55.94690 136.12764 64.66287
#
# Poissons Ratio (x) = 0.48443 0.05081
# Poissons Ratio (y) = 0.19910 0.14320
# Poissons Ratio (z) = 0.04396 0.30146
#
# Static dielectric constant tensor:
#      x y z
#    x 3.940880 0.000000 0.000000 
#    y 0.000000 4.306730 0.000000 
#    z 0.000000 0.000000 4.135280 
# 
# 
# High freq. dielectric constant tensor:
#      x y z
#    x 1.841530 0.000000 0.000000 
#    y 0.000000 1.879900 0.000000 
#    z 0.000000 0.000000 1.838850 
# 
# From -- ./inp_files/18997.got.cif
#   From: 2010.03.12/outbox.cif.g09.slc.cpg/sg67_10_cif.got.tgz:18997.got - 2010.04.10 22:41:39.
