data_PCOD8281995
_publ_section_title
;
Structure prediction by ZEFSAII (Michael W. Deem and Ramdas Pophale) SiO2 
 PCOD8281995
Probable space group: C C C A
;
_chemical_formula_sum "Si O2"
_cell_formula_units_Z 120
_cell_length_a 29.816346
_cell_length_b 13.851650
_cell_length_c 14.537152
_cell_angle_alpha 90.000000
_cell_angle_beta 90.000000
_cell_angle_gamma 90.000000
_cell_volume 6003.925025
_symmetry_space_group_name_H-M "C C C A"
_symmetry_group_IT_number 68
_space_group.IT_coordinate_system_code '2'
_symmetry_cell_setting 'orthorhombic'
loop_
_space_group_symop_operation_xyz
x,y,z
-x,1/2-y,z
x,1/2-y,1/2-z
-x,y,1/2-z
-x,-y,-z
x,1/2+y,-z
-x,1/2+y,1/2+z
x,-y,1/2+z
1/2+x,1/2+y,z
1/2-x,-y,z
1/2+x,-y,1/2-z
1/2-x,1/2+y,1/2-z
1/2-x,1/2-y,-z
1/2+x,y,-z
1/2-x,y,1/2+z
1/2+x,1/2-y,1/2+z
loop_
_atom_site_type_symbol
_atom_site_label
_atom_site_fract_x
_atom_site_fract_y
_atom_site_fract_z
Si Si1 0.936139 0.969070 0.676661
Si Si2 0.500000 0.250000 0.970687
Si Si3 0.845549 0.951066 0.211269
Si Si4 0.967230 0.940796 0.872206
Si Si5 0.927073 0.112371 0.985637
Si Si6 0.332478 0.112142 0.086962
Si Si7 0.220087 0.287799 0.651317
Si Si8 0.710421 0.927767 0.094164
O O1 0.939470 0.921766 0.778388
O O2 0.920052 0.895852 0.596246
O O3 0.986508 0.000898 0.647247
O O4 0.899044 0.054609 0.688009
O O5 0.476631 0.333580 0.909765
O O6 0.536563 0.303740 0.034800
O O7 0.835217 0.948980 0.319819
O O8 0.820378 0.864765 0.159444
O O9 0.826936 0.053525 0.173112
O O10 0.940409 0.007211 0.944643
O O11 0.881776 0.149146 0.939183
O O12 0.299598 0.202372 0.091149
O O13 0.311857 0.048687 0.004510
O O14 0.234852 0.250000 0.750000
O O15 0.266217 0.323226 0.603457
O O16 0.750000 0.000000 0.115211
#
# Coordination Sequence:
#
# PCOD8281995 Si02
#       8
#    16   8  16  16  16  16  16  16
#     4  10  19  36  62  83 117 156 199 244 295 351
#     4  10  22  39  58  85 124 162 202 249 300 351
#     4  10  20  38  61  84 117 154 199 244 297 365
#     4  10  22  38  61  86 120 161 199 249 296 357
#     4  11  22  38  60  90 121 158 205 244 301 354
#     4  11  21  37  61  88 120 152 199 249 297 363
#     4   9  21  37  58  85 118 157 190 248 303 355
#     4  10  21  39  61  86 113 153 196 241 306 364
#
# _framework density 19.986926
#
# number of rings (size 3 to 8) (size 9 to 14) (size 15 to 20)
#    0.000    1.867    2.667    2.000    0.000    9.067 
#    0.000    1.333    0.000    0.800    0.000    0.000 
#    0.000    0.000    0.000    0.000    0.000    0.000 
#
# Total GULP energy -743343.716035 kJ/mol
# GULP energy per Si atom -12389.061934 kJ/mol
# Density = 1.994143 g / cm^3
# Si number density = 19.986926 Si / 1000 Ang^3
#
#
#
# Elastic Constant Matrix: (Units=GPa)
#
#
# Indices 1 2 3 4 5 6 
#
# 1 78.8360 28.2586 48.5113 0.0000 0.0000 0.0000
# 2 28.2586 70.7617 38.0694 0.0000 0.0000 0.0000
# 3 48.5113 38.0694 119.2869 0.0000 0.0000 0.0000
# 4 0.0000 0.0000 0.0000 20.9324 0.0000 0.0000
# 5 0.0000 0.0000 0.0000 0.0000 28.0826 0.0000
# 6 0.0000 0.0000 0.0000 0.0000 0.0000 28.4966
#
#
#
# Elastic Compliance Matrix: (Units=1/GPa)
#
#
# Indices 1 2 3 4 5 6 
#
# 1 0.017755 -0.003870 -0.005985 0.000000 0.000000 0.000000
# 2 -0.003870 0.017905 -0.004140 0.000000 0.000000 0.000000
# 3 -0.005985 -0.004140 0.012139 0.000000 0.000000 0.000000
# 4 0.000000 0.000000 0.000000 0.047773 0.000000 0.000000
# 5 0.000000 0.000000 0.000000 0.000000 0.035609 0.000000
# 6 0.000000 0.000000 0.000000 0.000000 0.000000 0.035092
#
#
# Mechanical properties :
#
#
# Convention : Reuss Voigt Hill
#
# Bulk Modulus (GPa) = 50.48810 55.39590 52.94200
# Shear Modulus (GPa) = 24.89216 25.77201 25.33208
#
# Velocity S-wave (km/s) = 3.53288 3.59478 3.56396
# Velocity P-wave (km/s) = 6.47743 6.70866 6.59406
#
# Compressibility (1/GPa) = 0.01980665
#
# Stress axis : x y z
#
# Youngs Moduli (GPa) = 56.32252 55.85040 82.38194
#
# Poissons Ratio (x) = 0.21616 0.49308
# Poissons Ratio (y) = 0.21799 0.34108
# Poissons Ratio (z) = 0.33711 0.23124
#
# Static dielectric constant tensor:
#      x y z
#    x 3.967810 0.000000 0.000000 
#    y 0.000000 3.504180 0.000000 
#    z 0.000000 0.000000 3.724400 
# 
# 
# High freq. dielectric constant tensor:
#      x y z
#    x 1.793480 0.000000 0.000000 
#    y 0.000000 1.741530 0.000000 
#    z 0.000000 0.000000 1.788940 
# 
# From -- ./inp_files/26520.got.cif
#   From: 2010.03.12/outbox.cif.g09.slc.cpg/sg68_14_cif.got.tgz:26520.got - 2010.04.10 23:14:56.
