data_PCOD8281448
_publ_section_title
;
Structure prediction by ZEFSAII (Michael W. Deem and Ramdas Pophale) SiO2 
 PCOD8281448
Probable space group: C M M A
;
_chemical_formula_sum "Si O2"
_cell_formula_units_Z 80
_cell_length_a 18.203806
_cell_length_b 8.743161
_cell_length_c 25.791348
_cell_angle_alpha 90.000000
_cell_angle_beta 90.000000
_cell_angle_gamma 90.000000
_cell_volume 4104.920170
_symmetry_space_group_name_H-M "C M M A"
_symmetry_group_IT_number 67
_symmetry_cell_setting 'orthorhombic'
loop_
_space_group_symop_operation_xyz
x,y,z
-x,1/2-y,z
x,-y,-z
-x,1/2+y,-z
-x,-y,-z
x,1/2+y,-z
-x,y,z
x,1/2-y,z
1/2+x,1/2+y,z
1/2-x,-y,z
1/2+x,1/2-y,-z
1/2-x,y,-z
1/2-x,1/2-y,-z
1/2+x,y,-z
1/2-x,1/2+y,z
1/2+x,-y,z
loop_
_atom_site_type_symbol
_atom_site_label
_atom_site_fract_x
_atom_site_fract_y
_atom_site_fract_z
Si Si1 0.087456 0.422201 0.948396
Si Si2 0.416991 0.430416 0.843428
Si Si3 0.413453 0.425762 0.353396
Si Si4 0.169702 0.568263 0.742460
Si Si5 0.327811 0.068005 0.555465
O O1 0.115969 0.250000 0.947377
O O2 0.116971 0.504235 0.896648
O O3 0.000000 0.433077 0.949689
O O4 0.120462 0.500000 0.000000
O O5 0.500000 0.491494 0.834367
O O6 0.417277 0.250000 0.847999
O O7 0.366747 0.486549 0.796162
O O8 0.500000 0.439108 0.348029
O O9 0.387710 0.250000 0.357773
O O10 0.378723 0.503248 0.303538
O O11 0.389607 0.518246 0.404196
O O12 0.172795 0.750000 0.737929
O O13 0.250000 0.500000 0.738733
O O14 0.322320 0.250000 0.551842
O O15 0.350187 0.000000 0.500000
O O16 0.250000 0.000000 0.574129
#
# Coordination Sequence:
#
# PCOD8281448 Si02
#       5
#    16  16  16  16  16
#     4   9  16  26  44  72 105 139 175 217 266 321
#     4   9  18  33  53  77 106 140 179 224 273 325
#     4  11  24  41  61  86 116 149 188 234 282 332
#     4  11  23  39  59  82 111 147 187 230 279 335
#     4  11  22  39  63  89 120 155 193 233 276 329
#
# _framework density 19.488807999999999
#
# number of rings (size 3 to 8) (size 9 to 14) (size 15 to 20)
#    0.000    1.800    0.000    5.400    0.000    6.800 
#    0.000    2.000    0.000    0.600    0.000    4.200 
#    0.000    0.000    0.000    0.000    0.000    0.000 
#
# Total GULP energy -496120.692208 kJ/mol
# GULP energy per Si atom -12403.017305 kJ/mol
# Density = 1.944445 g / cm^3
# Si number density = 19.488808 Si / 1000 Ang^3
#
#
#
# Elastic Constant Matrix: (Units=GPa)
#
#
# Indices 1 2 3 4 5 6 
#
# 1 63.7727 36.8508 54.9864 0.0000 0.0000 0.0000
# 2 36.8508 110.6735 62.7149 0.0000 0.0000 0.0000
# 3 54.9864 62.7149 162.6953 0.0000 0.0000 0.0000
# 4 0.0000 0.0000 0.0000 39.2951 0.0000 0.0000
# 5 0.0000 0.0000 0.0000 0.0000 -20.9468 0.0000
# 6 0.0000 0.0000 0.0000 0.0000 0.0000-3788.2765
#
#
#
# Elastic Compliance Matrix: (Units=1/GPa)
#
#
# Indices 1 2 3 4 5 6 
#
# 1 0.023610 -0.004273 -0.006332 0.000000 0.000000 0.000000
# 2 -0.004273 0.012334 -0.003310 0.000000 0.000000 0.000000
# 3 -0.006332 -0.003310 0.009563 0.000000 0.000000 0.000000
# 4 0.000000 0.000000 0.000000 0.025448 0.000000 0.000000
# 5 0.000000 0.000000 0.000000 0.000000 -0.047740 0.000000
# 6 0.000000 0.000000 0.000000 0.000000 0.000000 -0.000264
#
#
# Mechanical properties :
#
#
# Convention : Reuss Voigt Hill
#
# Bulk Modulus (GPa) = 56.57624 71.80507 64.19066
# Shear Modulus (GPa) = 88.22397 -741.81299 -326.79451
#
# Velocity S-wave (km/s) = 6.73553 -19.53104 -12.96330
# Velocity P-wave (km/s) = 9.46482 21.71846 13.82224
#
# Compressibility (1/GPa) = 0.01767526
#
# Stress axis : x y z
#
# Youngs Moduli (GPa) = 42.35557 81.07516 104.57356
#
# Poissons Ratio (x) = 0.34643 0.66219
# Poissons Ratio (y) = 0.18099 0.34618
# Poissons Ratio (z) = 0.26821 0.26839
#
# Static dielectric constant tensor:
#      x y z
#    x 3.350460 0.000000 0.000000 
#    y 0.000000 3.700440 0.000000 
#    z 0.000000 0.000000 3.837130 
# 
# 
# High freq. dielectric constant tensor:
#      x y z
#    x 1.732670 0.000000 0.000000 
#    y 0.000000 1.771500 0.000000 
#    z 0.000000 0.000000 1.779260 
# 
# From -- ./inp_files/44418.got.cif
#   From: 2010.03.12/outbox.cif.g09.slc.cpg/sg67_23_cif.got.tgz:44418.got - 2010.04.10 22:41:39.
