data_PCOD8281573
_publ_section_title
;
Structure prediction by ZEFSAII (Michael W. Deem and Ramdas Pophale) SiO2 
 PCOD8281573
Probable space group: C M M A
;
_chemical_formula_sum "Si O2"
_cell_formula_units_Z 96
_cell_length_a 20.023511
_cell_length_b 9.409247
_cell_length_c 30.435254
_cell_angle_alpha 90.000000
_cell_angle_beta 90.000000
_cell_angle_gamma 90.000000
_cell_volume 5734.189359
_symmetry_space_group_name_H-M "C M M A"
_symmetry_group_IT_number 67
_symmetry_cell_setting 'orthorhombic'
loop_
_space_group_symop_operation_xyz
x,y,z
-x,1/2-y,z
x,-y,-z
-x,1/2+y,-z
-x,-y,-z
x,1/2+y,-z
-x,y,z
x,1/2-y,z
1/2+x,1/2+y,z
1/2-x,-y,z
1/2+x,1/2-y,-z
1/2-x,y,-z
1/2-x,1/2-y,-z
1/2+x,y,-z
1/2-x,1/2+y,z
1/2+x,-y,z
loop_
_atom_site_type_symbol
_atom_site_label
_atom_site_fract_x
_atom_site_fract_y
_atom_site_fract_z
Si Si1 0.920641 0.589093 0.541045
Si Si2 0.815457 0.916742 0.202988
Si Si3 0.920547 0.407285 0.960537
Si Si4 0.423209 0.585329 0.625669
Si Si5 0.074035 0.580617 0.135783
Si Si6 0.814681 0.085619 0.696590
O O1 0.891371 0.500000 0.500000
O O2 0.892100 0.750000 0.540290
O O3 0.897888 0.510635 0.585400
O O4 0.000000 0.592501 0.538093
O O5 0.803082 0.750000 0.196077
O O6 0.875968 0.974481 0.173192
O O7 0.833248 0.952855 0.253356
O O8 0.750000 0.000000 0.187741
O O9 0.890211 0.250000 0.965696
O O10 0.901741 0.471831 0.912568
O O11 0.000000 0.401071 0.964161
O O12 0.889504 0.500000 0.000000
O O13 0.500000 0.552092 0.637811
O O14 0.414777 0.750000 0.612226
O O15 0.378750 0.544514 0.667610
O O16 0.071231 0.750000 0.134948
O O17 0.000000 0.520693 0.146493
O O18 0.796431 0.250000 0.691634
O O19 0.750000 0.000000 0.680294
#
# Coordination Sequence:
#
# PCOD8281573 Si02
#       6
#    16  16  16  16  16  16
#     4   9  16  26  42  65  92 121 150 179 215 259
#     4   9  17  30  47  65  86 114 147 180 216 261
#     4   8  13  22  37  58  83 109 137 171 212 256
#     4   9  17  29  45  67  93 117 145 183 221 255
#     4   8  14  25  43  66  88 111 143 182 219 255
#     4   9  18  31  47  66  88 117 149 180 217 261
#
# _framework density 16.741686999999999
#
# number of rings (size 3 to 8) (size 9 to 14) (size 15 to 20)
#    0.000    3.333    0.000    1.500    0.000    3.333 
#    0.000    4.167    0.000    2.500    0.000   11.667 
#    0.000    0.000    0.000    0.000    0.000    0.000 
#
# Total GULP energy -594989.874444 kJ/mol
# GULP energy per Si atom -12395.622384 kJ/mol
# Density = 1.670358 g / cm^3
# Si number density = 16.741687 Si / 1000 Ang^3
#
#
#
# Elastic Constant Matrix: (Units=GPa)
#
#
# Indices 1 2 3 4 5 6 
#
# 1 79.0795 36.5170 72.0684 0.0000 0.0000 0.0000
# 2 36.5170 63.3418 54.1781 0.0000 0.0000 0.0000
# 3 72.0684 54.1781 133.2439 0.0000 0.0000 0.0000
# 4 0.0000 0.0000 0.0000 25.9475 0.0000 0.0000
# 5 0.0000 0.0000 0.0000 0.0000 7.0513 0.0000
# 6 0.0000 0.0000 0.0000 0.0000 0.0000 19.3030
#
#
#
# Elastic Compliance Matrix: (Units=1/GPa)
#
#
# Indices 1 2 3 4 5 6 
#
# 1 0.025747 -0.004495 -0.012098 0.000000 0.000000 0.000000
# 2 -0.004495 0.024991 -0.007730 0.000000 0.000000 0.000000
# 3 -0.012098 -0.007730 0.017192 0.000000 0.000000 0.000000
# 4 0.000000 0.000000 0.000000 0.038539 0.000000 0.000000
# 5 0.000000 0.000000 0.000000 0.000000 0.141818 0.000000
# 6 0.000000 0.000000 0.000000 0.000000 0.000000 0.051806
#
#
# Mechanical properties :
#
#
# Convention : Reuss Voigt Hill
#
# Bulk Modulus (GPa) = 51.86088 66.79914 59.33001
# Shear Modulus (GPa) = 14.07792 17.98712 16.03252
#
# Velocity S-wave (km/s) = 2.90296 3.28135 3.09793
# Velocity P-wave (km/s) = 6.50235 7.37176 6.95066
#
# Compressibility (1/GPa) = 0.01928236
#
# Stress axis : x y z
#
# Youngs Moduli (GPa) = 38.83996 40.01492 58.16819
#
# Poissons Ratio (x) = 0.17989 0.70371
# Poissons Ratio (y) = 0.17460 0.44964
# Poissons Ratio (z) = 0.46988 0.30931
#
# Static dielectric constant tensor:
#      x y z
#    x 2.908820 0.000000 0.000000 
#    y 0.000000 3.124110 0.000000 
#    z 0.000000 0.000000 3.363150 
# 
# 
# High freq. dielectric constant tensor:
#      x y z
#    x 1.604770 0.000000 0.000000 
#    y 0.000000 1.629410 0.000000 
#    z 0.000000 0.000000 1.655170 
# 
# From -- ./inp_files/44591.got.cif
#   From: 2010.03.12/outbox.cif.g09.slc.cpg/sg67_23_cif.got.tgz:44591.got - 2010.04.10 22:41:39.
