data_PCOD8281027
_publ_section_title
;
Structure prediction by ZEFSAII (Michael W. Deem and Ramdas Pophale) SiO2 
 PCOD8281027
Probable space group: C M M A
;
_chemical_formula_sum "Si O2"
_cell_formula_units_Z 80
_cell_length_a 18.869387
_cell_length_b 8.756951
_cell_length_c 25.205597
_cell_angle_alpha 90.000000
_cell_angle_beta 90.000000
_cell_angle_gamma 90.000000
_cell_volume 4164.929932
_symmetry_space_group_name_H-M "C M M A"
_symmetry_group_IT_number 67
_symmetry_cell_setting 'orthorhombic'
loop_
_space_group_symop_operation_xyz
x,y,z
-x,1/2-y,z
x,-y,-z
-x,1/2+y,-z
-x,-y,-z
x,1/2+y,-z
-x,y,z
x,1/2-y,z
1/2+x,1/2+y,z
1/2-x,-y,z
1/2+x,1/2-y,-z
1/2-x,y,-z
1/2-x,1/2-y,-z
1/2+x,y,-z
1/2-x,1/2+y,z
1/2+x,-y,z
loop_
_atom_site_type_symbol
_atom_site_label
_atom_site_fract_x
_atom_site_fract_y
_atom_site_fract_z
Si Si1 0.082758 0.577515 0.140115
Si Si2 0.674650 0.071686 0.945737
Si Si3 0.327379 0.070457 0.649325
Si Si4 0.581600 0.570768 0.556027
Si Si5 0.081745 0.426807 0.738277
O O1 0.106191 0.750000 0.126048
O O2 0.122062 0.458654 0.102625
O O3 0.101975 0.541130 0.200860
O O4 0.000000 0.557141 0.130680
O O5 0.683775 0.250000 0.954320
O O6 0.750000 0.000000 0.931466
O O7 0.643777 0.000000 0.000000
O O8 0.320907 0.250000 0.642262
O O9 0.250000 0.000000 0.652022
O O10 0.369505 0.002376 0.600164
O O11 0.368618 0.033516 0.703329
O O12 0.603738 0.500000 0.500000
O O13 0.500000 0.532648 0.569505
O O14 0.595170 0.750000 0.553971
O O15 0.094881 0.250000 0.723618
O O16 0.000000 0.468885 0.727530
#
# Coordination Sequence:
#
# PCOD8281027 Si02
#       5
#    16  16  16  16  16
#     4   9  19  37  60  85 113 145 183 228 278 331
#     4  11  22  37  57  80 110 147 187 230 277 332
#     4  12  25  39  57  83 116 152 191 234 280 331
#     4  10  21  39  63  89 117 149 187 230 277 332
#     4   9  19  38  62  85 112 147 185 228 279 333
#
# _framework density 19.208005
#
# number of rings (size 3 to 8) (size 9 to 14) (size 15 to 20)
#    0.000    1.800    0.000    6.600    0.000    6.800 
#    0.000    4.000    0.000    0.000    0.000    0.000 
#    0.000    0.000    0.000    0.000    0.000    0.000 
#
# Total GULP energy -496160.486991 kJ/mol
# GULP energy per Si atom -12404.012175 kJ/mol
# Density = 1.916429 g / cm^3
# Si number density = 19.208005 Si / 1000 Ang^3
#
#
#
# Elastic Constant Matrix: (Units=GPa)
#
#
# Indices 1 2 3 4 5 6 
#
# 1 93.3505 52.1659 72.6658 0.0000 0.0000 0.0000
# 2 52.1659 121.5518 59.5770 0.0000 0.0000 0.0000
# 3 72.6658 59.5770 126.8704 0.0000 0.0000 0.0000
# 4 0.0000 0.0000 0.0000 38.5591 0.0000 0.0000
# 5 0.0000 0.0000 0.0000 0.0000 160.2374 0.0000
# 6 0.0000 0.0000 0.0000 0.0000 0.0000 31.1433
#
#
#
# Elastic Compliance Matrix: (Units=1/GPa)
#
#
# Indices 1 2 3 4 5 6 
#
# 1 0.020725 -0.003996 -0.009994 0.000000 0.000000 0.000000
# 2 -0.003996 0.011457 -0.003091 0.000000 0.000000 0.000000
# 3 -0.009994 -0.003091 0.015058 0.000000 0.000000 0.000000
# 4 0.000000 0.000000 0.000000 0.025934 0.000000 0.000000
# 5 0.000000 0.000000 0.000000 0.000000 0.006241 0.000000
# 6 0.000000 0.000000 0.000000 0.000000 0.000000 0.032110
#
#
# Mechanical properties :
#
#
# Convention : Reuss Voigt Hill
#
# Bulk Modulus (GPa) = 76.46869 78.95442 77.71156
# Shear Modulus (GPa) = 33.32328 56.47890 44.90109
#
# Velocity S-wave (km/s) = 4.16969 5.42841 4.84014
# Velocity P-wave (km/s) = 7.94223 8.97131 8.47241
#
# Compressibility (1/GPa) = 0.01307725
#
# Stress axis : x y z
#
# Youngs Moduli (GPa) = 48.25176 87.28204 66.41139
#
# Poissons Ratio (x) = 0.34878 0.66369
# Poissons Ratio (y) = 0.19282 0.20530
# Poissons Ratio (z) = 0.48221 0.26982
#
# Static dielectric constant tensor:
#      x y z
#    x 3.470650 0.000000 0.000000 
#    y 0.000000 3.553540 0.000000 
#    z 0.000000 0.000000 3.437280 
# 
# 
# High freq. dielectric constant tensor:
#      x y z
#    x 1.744620 0.000000 0.000000 
#    y 0.000000 1.753080 0.000000 
#    z 0.000000 0.000000 1.760390 
# 
# From -- ./inp_files/44447.got.cif
#   From: 2010.03.12/outbox.cif.g09.slc.cpg/sg67_23_cif.got.tgz:44447.got - 2010.04.10 22:41:39.
