data_PCOD8281199
_publ_section_title
;
Structure prediction by ZEFSAII (Michael W. Deem and Ramdas Pophale) SiO2 
 PCOD8281199
Probable space group: C M M A
;
_chemical_formula_sum "Si O2"
_cell_formula_units_Z 64
_cell_length_a 17.024917
_cell_length_b 23.705227
_cell_length_c 7.274512
_cell_angle_alpha 90.000000
_cell_angle_beta 90.000000
_cell_angle_gamma 90.000000
_cell_volume 2935.844077
_symmetry_space_group_name_H-M "C M M A"
_symmetry_group_IT_number 67
_symmetry_cell_setting 'orthorhombic'
loop_
_space_group_symop_operation_xyz
x,y,z
-x,1/2-y,z
x,-y,-z
-x,1/2+y,-z
-x,-y,-z
x,1/2+y,-z
-x,y,z
x,1/2-y,z
1/2+x,1/2+y,z
1/2-x,-y,z
1/2+x,1/2-y,-z
1/2-x,y,-z
1/2-x,1/2-y,-z
1/2+x,y,-z
1/2-x,1/2+y,z
1/2+x,-y,z
loop_
_atom_site_type_symbol
_atom_site_label
_atom_site_fract_x
_atom_site_fract_y
_atom_site_fract_z
Si Si1 0.408081 0.813842 0.107293
Si Si2 0.337103 0.624336 0.420725
Si Si3 0.913082 0.482458 0.291045
Si Si4 0.908488 0.897358 0.201933
O O1 0.500000 0.825457 0.147576
O O2 0.395273 0.750000 0.038893
O O3 0.357480 0.822125 0.293794
O O4 0.372612 0.855684 0.951262
O O5 0.250000 0.624113 0.500000
O O6 0.353390 0.570202 0.286686
O O7 0.393395 0.626441 0.595574
O O8 0.923619 0.500000 0.500000
O O9 0.878536 0.537258 0.180524
O O10 0.000000 0.464862 0.214551
O O11 0.000000 0.898392 0.172887
#
# Coordination Sequence:
#
# PCOD8281199 Si02
#       4
#    16  16  16  16
#     4  10  22  40  62  87 113 151 209 257 288 343
#     4  11  22  35  56  87 123 159 190 235 301 366
#     4   8  15  31  56  83 111 146 190 237 289 352
#     4   9  19  37  60  85 115 153 198 252 305 347
#
# _framework density 21.799520999999999
#
# number of rings (size 3 to 8) (size 9 to 14) (size 15 to 20)
#    0.000    2.500    0.000    3.750    0.000    8.000 
#    0.000    7.500    0.000    9.000    0.000    0.000 
#    0.000    0.000    0.000    0.000    0.000    0.000 
#
# Total GULP energy -396502.244718 kJ/mol
# GULP energy per Si atom -12390.695147 kJ/mol
# Density = 2.174990 g / cm^3
# Si number density = 21.799521 Si / 1000 Ang^3
#
#
#
# Elastic Constant Matrix: (Units=GPa)
#
#
# Indices 1 2 3 4 5 6 
#
# 1 49.5923 51.6602 23.5142 0.0000 0.0000 0.0000
# 2 51.6602 133.3385 72.9589 0.0000 0.0000 0.0000
# 3 23.5142 72.9589 94.3205 0.0000 0.0000 0.0000
# 4 0.0000 0.0000 0.0000 41.0296 0.0000 0.0000
# 5 0.0000 0.0000 0.0000 0.0000 40.4054 0.0000
# 6 0.0000 0.0000 0.0000 0.0000 0.0000 -7.3583
#
#
#
# Elastic Compliance Matrix: (Units=1/GPa)
#
#
# Indices 1 2 3 4 5 6 
#
# 1 0.034291 -0.014925 0.002996 0.000000 0.000000 0.000000
# 2 -0.014925 0.019499 -0.011362 0.000000 0.000000 0.000000
# 3 0.002996 -0.011362 0.018644 0.000000 0.000000 0.000000
# 4 0.000000 0.000000 0.000000 0.024373 0.000000 0.000000
# 5 0.000000 0.000000 0.000000 0.000000 0.024749 0.000000
# 6 0.000000 0.000000 0.000000 0.000000 0.000000 -0.135900
#
#
# Mechanical properties :
#
#
# Convention : Reuss Voigt Hill
#
# Bulk Modulus (GPa) = 38.68168 63.72421 51.20295
# Shear Modulus (GPa) = 122.38012 23.42319 72.90165
#
# Velocity S-wave (km/s) = 7.50072 3.28148 5.78917
# Velocity P-wave (km/s) = 9.63313 6.60704 8.25985
#
# Compressibility (1/GPa) = 0.02585203
#
# Stress axis : x y z
#
# Youngs Moduli (GPa) = 29.16206 51.28403 53.63593
#
# Poissons Ratio (x) = 0.76541 -0.16069
# Poissons Ratio (y) = 0.43524 0.60943
# Poissons Ratio (z) = -0.08737 0.58270
#
# Static dielectric constant tensor:
#      x y z
#    x 3.552940 0.000000 0.000000 
#    y 0.000000 4.403990 0.000000 
#    z 0.000000 0.000000 4.530430 
# 
# 
# High freq. dielectric constant tensor:
#      x y z
#    x 1.815160 0.000000 0.000000 
#    y 0.000000 1.855160 0.000000 
#    z 0.000000 0.000000 1.858610 
# 
# From -- ./inp_files/7981.got.cif
#   From: 2010.03.12/outbox.cif.g09.slc.cpg/sg67_4_cif.got.tgz:7981.got - 2010.04.10 22:41:39.
