data_PCOD8281564
_publ_section_title
;
Structure prediction by ZEFSAII (Michael W. Deem and Ramdas Pophale) SiO2 
 PCOD8281564
Probable space group: C M M A
;
_chemical_formula_sum "Si O2"
_cell_formula_units_Z 112
_cell_length_a 9.892781
_cell_length_b 30.564705
_cell_length_c 25.393716
_cell_angle_alpha 90.000000
_cell_angle_beta 90.000000
_cell_angle_gamma 90.000000
_cell_volume 7678.296203
_symmetry_space_group_name_H-M "C M M A"
_symmetry_group_IT_number 67
_symmetry_cell_setting 'orthorhombic'
loop_
_space_group_symop_operation_xyz
x,y,z
-x,1/2-y,z
x,-y,-z
-x,1/2+y,-z
-x,-y,-z
x,1/2+y,-z
-x,y,z
x,1/2-y,z
1/2+x,1/2+y,z
1/2-x,-y,z
1/2+x,1/2-y,-z
1/2-x,y,-z
1/2-x,1/2-y,-z
1/2+x,y,-z
1/2-x,1/2+y,z
1/2+x,-y,z
loop_
_atom_site_type_symbol
_atom_site_label
_atom_site_fract_x
_atom_site_fract_y
_atom_site_fract_z
Si Si1 0.338881 0.701246 0.160621
Si Si2 0.650364 0.697964 0.044042
Si Si3 0.660339 0.133282 0.637908
Si Si4 0.349941 0.036356 0.757602
Si Si5 0.838944 0.366561 0.245229
Si Si6 0.349418 0.963288 0.367568
Si Si7 0.656631 0.699611 0.450857
O O1 0.500000 0.702125 0.163079
O O2 0.282565 0.750000 0.172293
O O3 0.295253 0.685229 0.102256
O O4 0.277478 0.668329 0.204103
O O5 0.500000 0.678768 0.034540
O O6 0.644628 0.750000 0.039858
O O7 0.750000 0.677912 0.000000
O O8 0.500000 0.132545 0.642131
O O9 0.719037 0.143669 0.696218
O O10 0.707004 0.085151 0.617915
O O11 0.709488 0.170431 0.597683
O O12 0.500000 0.028321 0.780803
O O13 0.296184 0.084666 0.772973
O O14 0.355787 0.032633 0.694978
O O15 0.250000 0.000000 0.781915
O O16 0.000000 0.363627 0.246297
O O17 0.500000 0.970620 0.390999
O O18 0.250000 0.000000 0.391868
O O19 0.500000 0.689673 0.464788
O O20 0.675520 0.750000 0.434445
O O21 0.750000 0.687369 0.500000
#
# Coordination Sequence:
#
# PCOD8281564 Si02
#       7
#    16  16  16  16  16  16  16
#     4   8  13  20  31  50  76 101 123 150 182 214
#     4   8  13  21  33  49  68  92 123 154 180 207
#     4   8  14  24  38  56  77  99 121 148 183 220
#     4   8  13  21  34  51  71  95 120 146 177 212
#     4   8  13  21  34  54  78 100 121 147 182 221
#     4   8  13  22  36  54  75  96 118 144 174 211
#     4   9  17  29  44  60  76  95 122 155 187 217
#
# _framework density 14.586569000000001
#
# number of rings (size 3 to 8) (size 9 to 14) (size 15 to 20)
#    0.000    3.857    0.000    2.571    0.000    0.571 
#    0.000    3.571    0.000    2.143    0.000    3.000 
#    0.000    5.143    0.000    7.143    0.000    0.571 
#
# Total GULP energy -693854.655584 kJ/mol
# GULP energy per Si atom -12390.261707 kJ/mol
# Density = 1.455337 g / cm^3
# Si number density = 14.586569 Si / 1000 Ang^3
#
#
#
# Elastic Constant Matrix: (Units=GPa)
#
#
# Indices 1 2 3 4 5 6 
#
# 1 40.3454 35.8891 32.4041 0.0000 0.0000 0.0000
# 2 35.8891 101.7507 64.6341 0.0000 0.0000 0.0000
# 3 32.4041 64.6341 86.0238 0.0000 0.0000 0.0000
# 4 0.0000 0.0000 0.0000 3.2208 0.0000 0.0000
# 5 0.0000 0.0000 0.0000 0.0000 13.8468 0.0000
# 6 0.0000 0.0000 0.0000 0.0000 0.0000 16.5988
#
#
#
# Elastic Compliance Matrix: (Units=1/GPa)
#
#
# Indices 1 2 3 4 5 6 
#
# 1 0.039010 -0.008465 -0.008334 0.000000 0.000000 0.000000
# 2 -0.008465 0.020638 -0.012318 0.000000 0.000000 0.000000
# 3 -0.008334 -0.012318 0.024019 0.000000 0.000000 0.000000
# 4 0.000000 0.000000 0.000000 0.310481 0.000000 0.000000
# 5 0.000000 0.000000 0.000000 0.000000 0.072219 0.000000
# 6 0.000000 0.000000 0.000000 0.000000 0.000000 0.060245
#
#
# Mechanical properties :
#
#
# Convention : Reuss Voigt Hill
#
# Bulk Modulus (GPa) = 39.31942 54.88605 47.10274
# Shear Modulus (GPa) = 8.42709 13.07945 10.75327
#
# Velocity S-wave (km/s) = 2.40621 2.99771 2.71809
# Velocity P-wave (km/s) = 5.89357 7.04919 6.49713
#
# Compressibility (1/GPa) = 0.02543272
#
# Stress axis : x y z
#
# Youngs Moduli (GPa) = 25.63444 48.45336 41.63359
#
# Poissons Ratio (x) = 0.41018 0.34698
# Poissons Ratio (y) = 0.21701 0.51284
# Poissons Ratio (z) = 0.21364 0.59684
#
# Static dielectric constant tensor:
#      x y z
#    x 2.721790 0.000000 0.000000 
#    y 0.000000 3.011500 0.000000 
#    z 0.000000 0.000000 2.857270 
# 
# 
# High freq. dielectric constant tensor:
#      x y z
#    x 1.519970 0.000000 0.000000 
#    y 0.000000 1.548700 0.000000 
#    z 0.000000 0.000000 1.529210 
# 
# From -- ./inp_files/41654.got.cif
#   From: 2010.03.12/outbox.cif.g09.slc.cpg/sg67_21_cif.got.tgz:41654.got - 2010.04.10 22:41:39.
