data_PCOD8281876
_publ_section_title
;
Structure prediction by ZEFSAII (Michael W. Deem and Ramdas Pophale) SiO2 
 PCOD8281876
Probable space group: C C C A
;
_chemical_formula_sum "Si O2"
_cell_formula_units_Z 68
_cell_length_a 9.613078
_cell_length_b 17.556524
_cell_length_c 22.510996
_cell_angle_alpha 90.000000
_cell_angle_beta 90.000000
_cell_angle_gamma 90.000000
_cell_volume 3799.231098
_symmetry_space_group_name_H-M "C C C A"
_symmetry_group_IT_number 68
_space_group.IT_coordinate_system_code '2'
_symmetry_cell_setting 'orthorhombic'
loop_
_space_group_symop_operation_xyz
x,y,z
-x,1/2-y,z
x,1/2-y,1/2-z
-x,y,1/2-z
-x,-y,-z
x,1/2+y,-z
-x,1/2+y,1/2+z
x,-y,1/2+z
1/2+x,1/2+y,z
1/2-x,-y,z
1/2+x,-y,1/2-z
1/2-x,1/2+y,1/2-z
1/2-x,1/2-y,-z
1/2+x,y,-z
1/2-x,y,1/2+z
1/2+x,1/2-y,1/2+z
loop_
_atom_site_type_symbol
_atom_site_label
_atom_site_fract_x
_atom_site_fract_y
_atom_site_fract_z
Si Si1 0.861707 0.062032 0.055517
Si Si2 0.886395 0.692980 0.136196
Si Si3 0.609563 0.535660 0.581642
Si Si4 0.335761 0.266583 0.559677
Si Si5 0.000000 0.750000 0.250000
O O1 0.818694 0.145172 0.078630
O O2 0.750000 0.000000 0.074841
O O3 0.877379 0.067332 0.984882
O O4 0.002927 0.034188 0.086040
O O5 0.931547 0.607141 0.121690
O O6 0.732465 0.714746 0.111710
O O7 0.897130 0.700086 0.207973
O O8 0.000000 0.750000 0.106135
O O9 0.750000 0.500000 0.606377
O O10 0.500000 0.250000 0.551614
O O11 0.250000 0.250000 0.500000
#
# Coordination Sequence:
#
# PCOD8281876 Si02
#       5
#    16  16  16  16   4
#     4  10  21  31  50  87 122 150 180 227 301 360
#     4  10  20  40  63  79 109 157 206 241 280 347
#     4  10  19  32  54  81 119 149 181 234 293 353
#     4  12  23  34  57  93 123 154 189 238 300 360
#     4   8  24  40  70  76 108 160 224 234 284 332
#
# _framework density 17.898358000000002
#
# number of rings (size 3 to 8) (size 9 to 14) (size 15 to 20)
#    0.706    0.941    2.353    3.529    6.588    0.000 
#    0.000    0.588    5.176    0.000    0.000    0.000 
#    0.000    0.000    0.000    0.000    0.000    0.000 
#
# Total GULP energy -421419.261945 kJ/mol
# GULP energy per Si atom -12394.684175 kJ/mol
# Density = 1.785762 g / cm^3
# Si number density = 17.898358 Si / 1000 Ang^3
#
#
#
# Elastic Constant Matrix: (Units=GPa)
#
#
# Indices 1 2 3 4 5 6 
#
# 1 113.6143 26.1896 29.5381 0.0000 0.0000 0.0000
# 2 26.1896 117.5560 15.5279 0.0000 0.0000 0.0000
# 3 29.5381 15.5279 67.2183 0.0000 0.0000 0.0000
# 4 0.0000 0.0000 0.0000 22.4802 0.0000 0.0000
# 5 0.0000 0.0000 0.0000 0.0000 18.4400 0.0000
# 6 0.0000 0.0000 0.0000 0.0000 0.0000 24.3010
#
#
#
# Elastic Compliance Matrix: (Units=1/GPa)
#
#
# Indices 1 2 3 4 5 6 
#
# 1 0.010273 -0.001746 -0.004111 0.000000 0.000000 0.000000
# 2 -0.001746 0.009071 -0.001328 0.000000 0.000000 0.000000
# 3 -0.004111 -0.001328 0.016990 0.000000 0.000000 0.000000
# 4 0.000000 0.000000 0.000000 0.044484 0.000000 0.000000
# 5 0.000000 0.000000 0.000000 0.000000 0.054230 0.000000
# 6 0.000000 0.000000 0.000000 0.000000 0.000000 0.041151
#
#
# Mechanical properties :
#
#
# Convention : Reuss Voigt Hill
#
# Bulk Modulus (GPa) = 45.52880 48.98886 47.25883
# Shear Modulus (GPa) = 25.26660 28.18644 26.72652
#
# Velocity S-wave (km/s) = 3.76130 3.97269 3.86844
# Velocity P-wave (km/s) = 6.66001 6.96226 6.81281
#
# Compressibility (1/GPa) = 0.02196412
#
# Stress axis : x y z
#
# Youngs Moduli (GPa) = 97.34348 110.24210 58.85713
#
# Poissons Ratio (x) = 0.19244 0.24196
# Poissons Ratio (y) = 0.16992 0.07818
# Poissons Ratio (z) = 0.40018 0.14644
#
# Static dielectric constant tensor:
#      x y z
#    x 2.044610 0.000000 0.000000 
#    y 0.000000 4.119450 0.000000 
#    z 0.000000 0.000000 2.869260 
# 
# 
# High freq. dielectric constant tensor:
#      x y z
#    x 1.701600 0.000000 0.000000 
#    y 0.000000 1.707910 0.000000 
#    z 0.000000 0.000000 1.633730 
# 
# From -- ./inp_files/49058.got.cif
#   From: 2010.03.12/outbox.cif.g09.slc.cpg/sg68_25_cif.got.tgz:49058.got - 2010.04.10 23:14:56.
