data_PCOD8281130
_publ_section_title
;
Structure prediction by ZEFSAII (Michael W. Deem and Ramdas Pophale) SiO2 
 PCOD8281130
Probable space group: C M M A
;
_chemical_formula_sum "Si O2"
_cell_formula_units_Z 88
_cell_length_a 26.572986
_cell_length_b 9.338466
_cell_length_c 19.581328
_cell_angle_alpha 90.000000
_cell_angle_beta 90.000000
_cell_angle_gamma 90.000000
_cell_volume 4859.124681
_symmetry_space_group_name_H-M "C M M A"
_symmetry_group_IT_number 67
_symmetry_cell_setting 'orthorhombic'
loop_
_space_group_symop_operation_xyz
x,y,z
-x,1/2-y,z
x,-y,-z
-x,1/2+y,-z
-x,-y,-z
x,1/2+y,-z
-x,y,z
x,1/2-y,z
1/2+x,1/2+y,z
1/2-x,-y,z
1/2+x,1/2-y,-z
1/2-x,y,-z
1/2-x,1/2-y,-z
1/2+x,y,-z
1/2-x,1/2+y,z
1/2+x,-y,z
loop_
_atom_site_type_symbol
_atom_site_label
_atom_site_fract_x
_atom_site_fract_y
_atom_site_fract_z
Si Si1 0.000000 0.581532 0.929459
Si Si2 0.201416 0.086802 0.859596
Si Si3 0.204156 0.090028 0.697559
Si Si4 0.558629 0.906086 0.440122
Si Si5 0.600946 0.917893 0.149915
Si Si6 0.391606 0.583855 0.305181
O O1 0.949673 0.535637 0.889041
O O2 0.000000 0.750000 0.942860
O O3 0.000000 0.500000 0.000000
O O4 0.200626 0.250000 0.889025
O O5 0.206622 0.092664 0.778911
O O6 0.250000 0.000000 0.889499
O O7 0.149123 0.005957 0.878834
O O8 0.205751 0.250000 0.667791
O O9 0.250000 0.000000 0.666936
O O10 0.154805 0.011718 0.671949
O O11 0.500000 0.900171 0.453400
O O12 0.583203 0.750000 0.448222
O O13 0.566849 0.957518 0.361940
O O14 0.584185 0.000000 0.500000
O O15 0.612930 0.750000 0.140211
O O16 0.589766 0.955429 0.229181
O O17 0.376020 0.750000 0.306569
#
# Coordination Sequence:
#
# PCOD8281130 Si02
#       6
#     8  16  16  16  16  16
#     4  10  22  38  56  76 103 140 174 206 247 298
#     4   9  16  27  46  73 104 134 164 204 253 301
#     4   9  16  26  42  66  97 128 159 195 242 293
#     4   9  18  31  47  67  93 127 162 198 242 291
#     4   9  18  32  51  76 102 132 172 212 250 294
#     4   9  17  29  48  72  97 125 162 205 243 282
#
# _framework density 18.110257000000001
#
# number of rings (size 3 to 8) (size 9 to 14) (size 15 to 20)
#    0.000    2.909    0.000    1.091    1.273    5.818 
#    0.000    0.000    0.000    1.091    0.000    7.636 
#    0.000    0.000    0.000    0.000    0.000    0.000 
#
# Total GULP energy -545249.998012 kJ/mol
# GULP energy per Si atom -12392.045409 kJ/mol
# Density = 1.806904 g / cm^3
# Si number density = 18.110257 Si / 1000 Ang^3
#
#
#
# Elastic Constant Matrix: (Units=GPa)
#
#
# Indices 1 2 3 4 5 6 
#
# 1 111.5845 59.3047 48.1185 0.0000 0.0000 0.0000
# 2 59.3047 91.2604 40.2806 0.0000 0.0000 0.0000
# 3 48.1185 40.2806 79.9799 0.0000 0.0000 0.0000
# 4 0.0000 0.0000 0.0000 21.3153 0.0000 0.0000
# 5 0.0000 0.0000 0.0000 0.0000 5.5800 0.0000
# 6 0.0000 0.0000 0.0000 0.0000 0.0000 29.6183
#
#
#
# Elastic Compliance Matrix: (Units=1/GPa)
#
#
# Indices 1 2 3 4 5 6 
#
# 1 0.015313 -0.007567 -0.005402 0.000000 0.000000 0.000000
# 2 -0.007567 0.017829 -0.004427 0.000000 0.000000 0.000000
# 3 -0.005402 -0.004427 0.017983 0.000000 0.000000 0.000000
# 4 0.000000 0.000000 0.000000 0.046915 0.000000 0.000000
# 5 0.000000 0.000000 0.000000 0.000000 0.179213 0.000000
# 6 0.000000 0.000000 0.000000 0.000000 0.000000 0.033763
#
#
# Mechanical properties :
#
#
# Convention : Reuss Voigt Hill
#
# Bulk Modulus (GPa) = 61.22403 64.24805 62.73604
# Shear Modulus (GPa) = 14.23491 20.31079 17.27285
#
# Velocity S-wave (km/s) = 2.80663 3.35252 3.09165
# Velocity P-wave (km/s) = 6.66203 7.10908 6.88918
#
# Compressibility (1/GPa) = 0.01633346
#
# Stress axis : x y z
#
# Youngs Moduli (GPa) = 65.30532 56.08965 55.60939
#
# Poissons Ratio (x) = 0.42440 0.30039
# Poissons Ratio (y) = 0.49413 0.24617
# Poissons Ratio (z) = 0.35277 0.24830
#
# Static dielectric constant tensor:
#      x y z
#    x 3.358910 0.000000 0.000000 
#    y 0.000000 3.682380 0.000000 
#    z 0.000000 0.000000 3.050570 
# 
# 
# High freq. dielectric constant tensor:
#      x y z
#    x 1.696700 0.000000 0.000000 
#    y 0.000000 1.705640 0.000000 
#    z 0.000000 0.000000 1.664390 
# 
# From -- ./inp_files/36142.got.cif
#   From: 2010.03.12/outbox.cif.g09.slc.cpg/sg67_19_cif.got.tgz:36142.got - 2010.04.10 22:41:39.
