data_PCOD8281478
_publ_section_title
;
Structure prediction by ZEFSAII (Michael W. Deem and Ramdas Pophale) SiO2 
 PCOD8281478
Probable space group: C M M A
;
_chemical_formula_sum "Si O2"
_cell_formula_units_Z 80
_cell_length_a 9.274382
_cell_length_b 18.368977
_cell_length_c 25.699411
_cell_angle_alpha 90.000000
_cell_angle_beta 90.000000
_cell_angle_gamma 90.000000
_cell_volume 4378.175035
_symmetry_space_group_name_H-M "C M M A"
_symmetry_group_IT_number 67
_symmetry_cell_setting 'orthorhombic'
loop_
_space_group_symop_operation_xyz
x,y,z
-x,1/2-y,z
x,-y,-z
-x,1/2+y,-z
-x,-y,-z
x,1/2+y,-z
-x,y,z
x,1/2-y,z
1/2+x,1/2+y,z
1/2-x,-y,z
1/2+x,1/2-y,-z
1/2-x,y,-z
1/2-x,1/2-y,-z
1/2+x,y,-z
1/2-x,1/2+y,z
1/2+x,-y,z
loop_
_atom_site_type_symbol
_atom_site_label
_atom_site_fract_x
_atom_site_fract_y
_atom_site_fract_z
Si Si1 0.832073 0.333257 0.550614
Si Si2 0.159512 0.836463 0.854154
Si Si3 0.338275 0.663104 0.950582
Si Si4 0.167265 0.664936 0.737343
Si Si5 0.329073 0.423768 0.348409
O O1 0.787555 0.250000 0.562122
O O2 0.750000 0.363434 0.500000
O O3 0.785136 0.380401 0.599869
O O4 0.000000 0.340430 0.539024
O O5 0.154919 0.750000 0.856979
O O6 0.268764 0.867775 0.897287
O O7 0.206600 0.859635 0.796133
O O8 0.000000 0.866992 0.866536
O O9 0.500000 0.632821 0.954358
O O10 0.337031 0.750000 0.950315
O O11 0.250000 0.633320 0.000000
O O12 0.197637 0.750000 0.729234
O O13 0.273962 0.620739 0.700900
O O14 0.000000 0.647239 0.725099
O O15 0.500000 0.434638 0.343649
O O16 0.250000 0.500000 0.350690
#
# Coordination Sequence:
#
# PCOD8281478 Si02
#       5
#    16  16  16  16  16
#     4   9  19  36  57  80 104 132 167 206 248 295
#     4   8  14  25  40  59  85 117 154 196 241 292
#     4   9  15  21  31  50  79 116 155 194 239 291
#     4   9  18  33  53  75  99 130 168 209 255 306
#     4  11  23  37  53  75 105 137 171 211 253 299
#
# _framework density 18.272452999999999
#
# number of rings (size 3 to 8) (size 9 to 14) (size 15 to 20)
#    0.000    2.800    0.000    3.000    0.000    6.400 
#    0.000    6.000    0.000    0.000    0.000    0.000 
#    0.000    0.800    0.000    8.400    0.000   11.600 
#
# Total GULP energy -495928.864708 kJ/mol
# GULP energy per Si atom -12398.221618 kJ/mol
# Density = 1.823086 g / cm^3
# Si number density = 18.272453 Si / 1000 Ang^3
#
#
#
# Elastic Constant Matrix: (Units=GPa)
#
#
# Indices 1 2 3 4 5 6 
#
# 1 120.2291 41.8740 96.0344 0.0000 0.0000 0.0000
# 2 41.8740 52.1028 50.3826 0.0000 0.0000 0.0000
# 3 96.0344 50.3826 175.1415 0.0000 0.0000 0.0000
# 4 0.0000 0.0000 0.0000 -2.4099 0.0000 0.0000
# 5 0.0000 0.0000 0.0000 0.0000 39.8458 0.0000
# 6 0.0000 0.0000 0.0000 0.0000 0.0000 19.3967
#
#
#
# Elastic Compliance Matrix: (Units=1/GPa)
#
#
# Indices 1 2 3 4 5 6 
#
# 1 0.016084 -0.006093 -0.007066 0.000000 0.000000 0.000000
# 2 -0.006093 0.028898 -0.004972 0.000000 0.000000 0.000000
# 3 -0.007066 -0.004972 0.011015 0.000000 0.000000 0.000000
# 4 0.000000 0.000000 0.000000 -0.414956 0.000000 0.000000
# 5 0.000000 0.000000 0.000000 0.000000 0.025097 0.000000
# 6 0.000000 0.000000 0.000000 0.000000 0.000000 0.051555
#
#
# Mechanical properties :
#
#
# Convention : Reuss Voigt Hill
#
# Bulk Modulus (GPa) = 50.67622 80.45061 65.56341
# Shear Modulus (GPa) = -20.87966 21.97869 0.54951
#
# Velocity S-wave (km/s) = -3.38403 3.47195 0.54899
# Velocity P-wave (km/s) = 3.53907 7.75864 6.02999
#
# Compressibility (1/GPa) = 0.01973312
#
# Stress axis : x y z
#
# Youngs Moduli (GPa) = 62.17335 34.60504 90.78862
#
# Poissons Ratio (x) = 0.21086 0.64155
# Poissons Ratio (y) = 0.37884 0.45138
# Poissons Ratio (z) = 0.43934 0.17205
#
# Static dielectric constant tensor:
#      x y z
#    x 3.483430 0.000000 0.000000 
#    y 0.000000 2.928170 0.000000 
#    z 0.000000 0.000000 3.613400 
# 
# 
# High freq. dielectric constant tensor:
#      x y z
#    x 1.712900 0.000000 0.000000 
#    y 0.000000 1.655870 0.000000 
#    z 0.000000 0.000000 1.725000 
# 
# From -- ./inp_files/43229.got.cif
#   From: 2010.03.12/outbox.cif.g09.slc.cpg/sg67_22_cif.got.tgz:43229.got - 2010.04.10 22:41:39.
