data_PCOD8281119
_publ_section_title
;
Structure prediction by ZEFSAII (Michael W. Deem and Ramdas Pophale) SiO2 
 PCOD8281119
Probable space group: C M M A
;
_chemical_formula_sum "Si O2"
_cell_formula_units_Z 88
_cell_length_a 9.276116
_cell_length_b 20.761370
_cell_length_c 25.126804
_cell_angle_alpha 90.000000
_cell_angle_beta 90.000000
_cell_angle_gamma 90.000000
_cell_volume 4839.042444
_symmetry_space_group_name_H-M "C M M A"
_symmetry_group_IT_number 67
_symmetry_cell_setting 'orthorhombic'
loop_
_space_group_symop_operation_xyz
x,y,z
-x,1/2-y,z
x,-y,-z
-x,1/2+y,-z
-x,-y,-z
x,1/2+y,-z
-x,y,z
x,1/2-y,z
1/2+x,1/2+y,z
1/2-x,-y,z
1/2+x,1/2-y,-z
1/2-x,y,-z
1/2-x,1/2-y,-z
1/2+x,y,-z
1/2-x,1/2+y,z
1/2+x,-y,z
loop_
_atom_site_type_symbol
_atom_site_label
_atom_site_fract_x
_atom_site_fract_y
_atom_site_fract_z
Si Si1 0.831811 0.323771 0.242165
Si Si2 0.162343 0.826223 0.347401
Si Si3 0.663690 0.673197 0.448580
Si Si4 0.662501 0.750000 0.052272
Si Si5 0.831115 0.438422 0.165532
Si Si6 0.833030 0.110550 0.054950
O O1 0.795210 0.250000 0.224930
O O2 0.741170 0.345943 0.293167
O O3 0.787470 0.372394 0.195142
O O4 0.000000 0.329273 0.256638
O O5 0.155417 0.750000 0.352567
O O6 0.253923 0.854270 0.396747
O O7 0.000000 0.854832 0.348116
O O8 0.500000 0.646528 0.449667
O O9 0.660888 0.750000 0.447708
O O10 0.750000 0.647893 0.500000
O O11 0.500000 0.750000 0.033144
O O12 0.695739 0.817836 0.080970
O O13 0.750000 0.750000 0.000000
O O14 0.750000 0.500000 0.190654
O O15 0.784633 0.435089 0.103215
O O16 0.000000 0.450172 0.171274
O O17 0.000000 0.100926 0.041044
O O18 0.750000 0.095983 0.000000
#
# Coordination Sequence:
#
# PCOD8281119 Si02
#       6
#    16  16  16   8  16  16
#     4   9  18  33  53  73  93 124 167 209 248 293
#     4   9  16  26  41  63  92 124 160 203 250 297
#     4   9  15  22  34  55  87 127 167 204 245 294
#     4   8  14  26  46  70  96 120 150 190 231 276
#     4  10  22  37  53  74 100 130 162 201 248 298
#     4   9  18  32  51  74  98 126 158 195 241 292
#
# _framework density 18.185414999999999
#
# number of rings (size 3 to 8) (size 9 to 14) (size 15 to 20)
#    0.000    2.909    0.000    1.091    1.273    6.182 
#    0.000    1.818    0.000    0.000    0.000    0.000 
#    0.000    0.727    0.000    7.636    0.000   11.455 
#
# Total GULP energy -545143.662064 kJ/mol
# GULP energy per Si atom -12389.628683 kJ/mol
# Density = 1.814402 g / cm^3
# Si number density = 18.185415 Si / 1000 Ang^3
#
#
#
# Elastic Constant Matrix: (Units=GPa)
#
#
# Indices 1 2 3 4 5 6 
#
# 1 98.9716 34.8471 67.4863 0.0000 0.0000 0.0000
# 2 34.8471 67.5693 43.1408 0.0000 0.0000 0.0000
# 3 67.4863 43.1408 129.6472 0.0000 0.0000 0.0000
# 4 0.0000 0.0000 0.0000 5.6475 0.0000 0.0000
# 5 0.0000 0.0000 0.0000 0.0000 30.9217 0.0000
# 6 0.0000 0.0000 0.0000 0.0000 0.0000 19.3996
#
#
#
# Elastic Compliance Matrix: (Units=1/GPa)
#
#
# Indices 1 2 3 4 5 6 
#
# 1 0.016405 -0.003820 -0.007268 0.000000 0.000000 0.000000
# 2 -0.003820 0.019681 -0.004561 0.000000 0.000000 0.000000
# 3 -0.007268 -0.004561 0.013014 0.000000 0.000000 0.000000
# 4 0.000000 0.000000 0.000000 0.177070 0.000000 0.000000
# 5 0.000000 0.000000 0.000000 0.000000 0.032340 0.000000
# 6 0.000000 0.000000 0.000000 0.000000 0.000000 0.051547
#
#
# Mechanical properties :
#
#
# Convention : Reuss Voigt Hill
#
# Bulk Modulus (GPa) = 56.17061 65.23740 60.70400
# Shear Modulus (GPa) = 14.39720 21.24137 17.81928
#
# Velocity S-wave (km/s) = 2.81675 3.42137 3.13368
# Velocity P-wave (km/s) = 6.44465 7.18047 6.82249
#
# Compressibility (1/GPa) = 0.01780290
#
# Stress axis : x y z
#
# Youngs Moduli (GPa) = 60.95732 50.80920 76.83852
#
# Poissons Ratio (x) = 0.19408 0.55849
# Poissons Ratio (y) = 0.23284 0.35044
# Poissons Ratio (z) = 0.44306 0.23173
#
# Static dielectric constant tensor:
#      x y z
#    x 3.442630 0.000000 0.000000 
#    y 0.000000 3.008310 0.000000 
#    z 0.000000 0.000000 3.313190 
# 
# 
# High freq. dielectric constant tensor:
#      x y z
#    x 1.707950 0.000000 0.000000 
#    y 0.000000 1.657970 0.000000 
#    z 0.000000 0.000000 1.701320 
# 
# From -- ./inp_files/40674.got.cif
#   From: 2010.03.12/outbox.cif.g09.slc.cpg/sg67_21_cif.got.tgz:40674.got - 2010.04.10 22:41:39.
