data_PCOD8281543
_publ_section_title
;
Structure prediction by ZEFSAII (Michael W. Deem and Ramdas Pophale) SiO2 
 PCOD8281543
Probable space group: C M M A
;
_chemical_formula_sum "Si O2"
_cell_formula_units_Z 56
_cell_length_a 20.911361
_cell_length_b 10.418689
_cell_length_c 14.898631
_cell_angle_alpha 90.000000
_cell_angle_beta 90.000000
_cell_angle_gamma 90.000000
_cell_volume 3245.949343
_symmetry_space_group_name_H-M "C M M A"
_symmetry_group_IT_number 67
_symmetry_cell_setting 'orthorhombic'
loop_
_space_group_symop_operation_xyz
x,y,z
-x,1/2-y,z
x,-y,-z
-x,1/2+y,-z
-x,-y,-z
x,1/2+y,-z
-x,y,z
x,1/2-y,z
1/2+x,1/2+y,z
1/2-x,-y,z
1/2+x,1/2-y,-z
1/2-x,y,-z
1/2-x,1/2-y,-z
1/2+x,y,-z
1/2-x,1/2+y,z
1/2+x,-y,z
loop_
_atom_site_type_symbol
_atom_site_label
_atom_site_fract_x
_atom_site_fract_y
_atom_site_fract_z
Si Si1 0.500000 0.399099 0.719273
Si Si2 0.166225 0.750000 0.332622
Si Si3 0.000000 0.536911 0.102420
Si Si4 0.612719 0.488690 0.598091
Si Si5 0.207089 0.750000 0.589698
Si Si6 0.931205 0.750000 0.180676
O O1 0.500000 0.250000 0.695913
O O2 0.500000 0.418629 0.827034
O O3 0.561859 0.464955 0.676190
O O4 0.145850 0.624523 0.386644
O O5 0.243354 0.750000 0.325930
O O6 0.134129 0.750000 0.234956
O O7 0.935587 0.622010 0.119197
O O8 0.000000 0.500000 0.000000
O O9 0.579519 0.500000 0.500000
O O10 0.664927 0.376836 0.597285
O O11 0.250000 0.750000 0.500000
O O12 0.000000 0.750000 0.238533
#
# Coordination Sequence:
#
# PCOD8281543 Si02
#       6
#     8   8   8  16   8   8
#     4  12  24  38  56  88 121 143 192 245 304 352
#     4  12  22  36  61  78 119 159 201 240 278 344
#     4   9  19  37  60  86 111 141 182 237 307 354
#     4  12  23  40  57  82 119 163 199 242 284 337
#     4  12  24  39  55  82 117 163 210 242 273 330
#     4   8  18  36  56  85 112 142 188 232 297 343
#
# _framework density 17.252272000000001
#
# number of rings (size 3 to 8) (size 9 to 14) (size 15 to 20)
#    0.857    0.000    7.143    1.286    2.000    0.000 
#    0.000    0.000    0.000    0.000    0.000    6.000 
#    0.000    0.000    0.000    0.000    0.000    0.000 
#
# Total GULP energy -346900.751265 kJ/mol
# GULP energy per Si atom -12389.312545 kJ/mol
# Density = 1.721301 g / cm^3
# Si number density = 17.252272 Si / 1000 Ang^3
#
#
#
# Elastic Constant Matrix: (Units=GPa)
#
#
# Indices 1 2 3 4 5 6 
#
# 1 95.0687 36.3807 50.0670 0.0000 0.0000 0.0000
# 2 36.3807 129.2930 32.0692 0.0000 0.0000 0.0000
# 3 50.0670 32.0692 127.0038 0.0000 0.0000 0.0000
# 4 0.0000 0.0000 0.0000 4.4101 0.0000 0.0000
# 5 0.0000 0.0000 0.0000 0.0000 16.2483 0.0000
# 6 0.0000 0.0000 0.0000 0.0000 0.0000 39.5786
#
#
#
# Elastic Compliance Matrix: (Units=1/GPa)
#
#
# Indices 1 2 3 4 5 6 
#
# 1 0.014148 -0.002771 -0.004878 0.000000 0.000000 0.000000
# 2 -0.002771 0.008794 -0.001128 0.000000 0.000000 0.000000
# 3 -0.004878 -0.001128 0.010081 0.000000 0.000000 0.000000
# 4 0.000000 0.000000 0.000000 0.226754 0.000000 0.000000
# 5 0.000000 0.000000 0.000000 0.000000 0.061545 0.000000
# 6 0.000000 0.000000 0.000000 0.000000 0.000000 0.025266
#
#
# Mechanical properties :
#
#
# Convention : Reuss Voigt Hill
#
# Bulk Modulus (GPa) = 64.64283 65.37768 65.01025
# Shear Modulus (GPa) = 13.53919 27.57063 20.55491
#
# Velocity S-wave (km/s) = 2.80443 4.00194 3.45546
# Velocity P-wave (km/s) = 6.93087 7.70269 7.32695
#
# Compressibility (1/GPa) = 0.01546962
#
# Stress axis : x y z
#
# Youngs Moduli (GPa) = 70.68181 113.71483 99.19194
#
# Poissons Ratio (x) = 0.31512 0.48382
# Poissons Ratio (y) = 0.19587 0.11190
# Poissons Ratio (z) = 0.34476 0.12828
#
# Static dielectric constant tensor:
#      x y z
#    x 3.258250 0.000000 0.000000 
#    y 0.000000 3.834280 0.000000 
#    z 0.000000 0.000000 2.926630 
# 
# 
# High freq. dielectric constant tensor:
#      x y z
#    x 1.647730 0.000000 0.000000 
#    y 0.000000 1.694390 0.000000 
#    z 0.000000 0.000000 1.637050 
# 
# From -- ./inp_files/28955.got.cif
#   From: 2010.03.12/outbox.cif.g09.slc.cpg/sg67_15_cif.got.tgz:28955.got - 2010.04.10 22:41:39.
