data_PCOD8281145
_publ_section_title
;
Structure prediction by ZEFSAII (Michael W. Deem and Ramdas Pophale) SiO2 
 PCOD8281145
Probable space group: C M M A
;
_chemical_formula_sum "Si O2"
_cell_formula_units_Z 64
_cell_length_a 9.854765
_cell_length_b 18.217162
_cell_length_c 18.767001
_cell_angle_alpha 90.000000
_cell_angle_beta 90.000000
_cell_angle_gamma 90.000000
_cell_volume 3369.161815
_symmetry_space_group_name_H-M "C M M A"
_symmetry_group_IT_number 67
_symmetry_cell_setting 'orthorhombic'
loop_
_space_group_symop_operation_xyz
x,y,z
-x,1/2-y,z
x,-y,-z
-x,1/2+y,-z
-x,-y,-z
x,1/2+y,-z
-x,y,z
x,1/2-y,z
1/2+x,1/2+y,z
1/2-x,-y,z
1/2+x,1/2-y,-z
1/2-x,y,-z
1/2-x,1/2-y,-z
1/2+x,y,-z
1/2-x,1/2+y,z
1/2+x,-y,z
loop_
_atom_site_type_symbol
_atom_site_label
_atom_site_fract_x
_atom_site_fract_y
_atom_site_fract_z
Si Si1 0.155832 0.164831 0.063067
Si Si2 0.771277 0.914240 0.650733
Si Si3 0.846520 0.930821 0.802691
Si Si4 0.500000 0.418666 0.536439
Si Si5 0.000000 0.163236 0.605487
O O1 0.185750 0.250000 0.075071
O O2 0.195853 0.126132 0.136531
O O3 0.000000 0.150251 0.041884
O O4 0.250000 0.133080 0.000000
O O5 0.834802 0.889458 0.726216
O O6 0.868129 0.902109 0.583409
O O7 0.631799 0.871054 0.642030
O O8 0.750000 0.000000 0.656380
O O9 0.000000 0.958424 0.813145
O O10 0.750000 0.000000 0.808647
O O11 0.500000 0.500000 0.500000
O O12 0.500000 0.356230 0.477356
O O13 0.000000 0.250000 0.616027
#
# Coordination Sequence:
#
# PCOD8281145 Si02
#       5
#    16  16  16   8   8
#     4   9  19  38  61  86 117 159 206 246 300 372
#     4  11  22  41  65  90 123 168 213 249 313 391
#     4  10  22  38  61  92 124 158 203 256 302 365
#     4  12  22  40  68  94 117 171 218 253 312 391
#     4  12  28  42  60  98 131 153 207 279 320 360
#
# _framework density 18.995822
#
# number of rings (size 3 to 8) (size 9 to 14) (size 15 to 20)
#    0.000    1.500    3.750    0.750    5.250    4.500 
#    0.000    2.500    0.000    0.000    0.000    0.000 
#    0.000    0.000    0.000    0.000    0.000    0.000 
#
# Total GULP energy -396780.552321 kJ/mol
# GULP energy per Si atom -12399.392260 kJ/mol
# Density = 1.895259 g / cm^3
# Si number density = 18.995822 Si / 1000 Ang^3
#
#
#
# Elastic Constant Matrix: (Units=GPa)
#
#
# Indices 1 2 3 4 5 6 
#
# 1 121.7357 55.2945 63.1279 0.0000 0.0000 0.0000
# 2 55.2945 95.1779 52.2763 0.0000 0.0000 0.0000
# 3 63.1279 52.2763 154.9826 0.0000 0.0000 0.0000
# 4 0.0000 0.0000 0.0000 38.6124 0.0000 0.0000
# 5 0.0000 0.0000 0.0000 0.0000 39.2800 0.0000
# 6 0.0000 0.0000 0.0000 0.0000 0.0000 24.9497
#
#
#
# Elastic Compliance Matrix: (Units=1/GPa)
#
#
# Indices 1 2 3 4 5 6 
#
# 1 0.012328 -0.005406 -0.003198 0.000000 0.000000 0.000000
# 2 -0.005406 0.015266 -0.002947 0.000000 0.000000 0.000000
# 3 -0.003198 -0.002947 0.008749 0.000000 0.000000 0.000000
# 4 0.000000 0.000000 0.000000 0.025898 0.000000 0.000000
# 5 0.000000 0.000000 0.000000 0.000000 0.025458 0.000000
# 6 0.000000 0.000000 0.000000 0.000000 0.000000 0.040081
#
#
# Mechanical properties :
#
#
# Convention : Reuss Voigt Hill
#
# Bulk Modulus (GPa) = 75.52365 79.25485 77.38925
# Shear Modulus (GPa) = 32.19631 33.98158 33.08894
#
# Velocity S-wave (km/s) = 4.12140 4.23412 4.17814
# Velocity P-wave (km/s) = 7.90521 8.10658 8.00652
#
# Compressibility (1/GPa) = 0.01324089
#
# Stress axis : x y z
#
# Youngs Moduli (GPa) = 81.11369 65.50511 114.29545
#
# Poissons Ratio (x) = 0.35410 0.36555
# Poissons Ratio (y) = 0.43847 0.33688
# Poissons Ratio (z) = 0.25942 0.19307
#
# Static dielectric constant tensor:
#      x y z
#    x 3.651800 0.000000 0.000000 
#    y 0.000000 3.241230 0.000000 
#    z 0.000000 0.000000 4.106060 
# 
# 
# High freq. dielectric constant tensor:
#      x y z
#    x 1.752630 0.000000 0.000000 
#    y 0.000000 1.715140 0.000000 
#    z 0.000000 0.000000 1.756400 
# 
# From -- ./inp_files/31789.got.cif
#   From: 2010.03.12/outbox.cif.g09.slc.cpg/sg67_16_cif.got.tgz:31789.got - 2010.04.10 22:41:39.
