data_PCOD8281644
_publ_section_title
;
Structure prediction by ZEFSAII (Michael W. Deem and Ramdas Pophale) SiO2 
 PCOD8281644
Probable space group: C C C A
;
_chemical_formula_sum "Si O2"
_cell_formula_units_Z 128
_cell_length_a 17.051897
_cell_length_b 18.763141
_cell_length_c 23.399314
_cell_angle_alpha 90.000000
_cell_angle_beta 90.000000
_cell_angle_gamma 90.000000
_cell_volume 7486.543773
_symmetry_space_group_name_H-M "C C C A"
_symmetry_group_IT_number 68
_space_group.IT_coordinate_system_code '2'
_symmetry_cell_setting 'orthorhombic'
loop_
_space_group_symop_operation_xyz
x,y,z
-x,1/2-y,z
x,1/2-y,1/2-z
-x,y,1/2-z
-x,-y,-z
x,1/2+y,-z
-x,1/2+y,1/2+z
x,-y,1/2+z
1/2+x,1/2+y,z
1/2-x,-y,z
1/2+x,-y,1/2-z
1/2-x,1/2+y,1/2-z
1/2-x,1/2-y,-z
1/2+x,y,-z
1/2-x,y,1/2+z
1/2+x,1/2-y,1/2+z
loop_
_atom_site_type_symbol
_atom_site_label
_atom_site_fract_x
_atom_site_fract_y
_atom_site_fract_z
Si Si1 0.776963 0.899012 0.191085
Si Si2 0.714731 0.075770 0.529339
Si Si3 0.011252 0.469815 0.814451
Si Si4 0.861303 0.531946 0.857657
Si Si5 0.508818 0.827903 0.627782
Si Si6 0.341337 0.344871 0.419781
Si Si7 0.314157 0.060230 0.182736
Si Si8 0.677247 0.685093 0.908273
O O1 0.683353 0.917660 0.189533
O O2 0.811482 0.901846 0.254922
O O3 0.794030 0.824598 0.158414
O O4 0.821058 0.954651 0.148698
O O5 0.651582 0.064238 0.579676
O O6 0.671168 0.107723 0.475201
O O7 0.780829 0.131691 0.548356
O O8 0.750000 0.000000 0.510951
O O9 0.102568 0.478072 0.829938
O O10 0.000000 0.491569 0.750000
O O11 0.955132 0.524766 0.849037
O O12 0.983902 0.388023 0.823541
O O13 0.500000 0.750000 0.657528
O O14 0.434650 0.843117 0.587859
O O15 0.584452 0.829425 0.587059
O O16 0.299009 0.379922 0.364692
O O17 0.304480 0.266245 0.426473
O O18 0.250000 0.000000 0.178644
#
# Coordination Sequence:
#
# PCOD8281644 Si02
#       8
#    16  16  16  16  16  16  16  16
#     4  10  16  31  55  73  98 129 168 204 250 296
#     4  11  19  35  55  71  96 131 178 213 240 295
#     4  11  17  28  49  74  99 127 168 206 250 294
#     4  10  17  31  52  77  90 131 174 211 238 289
#     4   9  18  31  44  67 101 132 157 194 252 307
#     4  10  23  32  47  76 106 133 162 205 263 308
#     4  11  20  33  48  73 113 137 160 208 259 306
#     4  10  18  35  55  72  96 132 173 210 249 295
#
# _framework density 17.097342999999999
#
# number of rings (size 3 to 8) (size 9 to 14) (size 15 to 20)
#    0.000    1.750    6.250    0.750    0.000    0.750 
#    0.000   10.625    0.000    0.000    0.000    2.625 
#    0.000    8.000    0.000    0.000    0.000    0.000 
#
# Total GULP energy -793211.044593 kJ/mol
# GULP energy per Si atom -12393.922572 kJ/mol
# Density = 1.705843 g / cm^3
# Si number density = 17.097343 Si / 1000 Ang^3
#
#
#
# Elastic Constant Matrix: (Units=GPa)
#
#
# Indices 1 2 3 4 5 6 
#
# 1 85.9406 42.3389 34.1302 0.0000 0.0000 0.0000
# 2 42.3389 89.6158 48.8470 0.0000 0.0000 0.0000
# 3 34.1302 48.8470 101.0511 0.0000 0.0000 0.0000
# 4 0.0000 0.0000 0.0000 17.5122 0.0000 0.0000
# 5 0.0000 0.0000 0.0000 0.0000 17.5550 0.0000
# 6 0.0000 0.0000 0.0000 0.0000 0.0000 22.9178
#
#
#
# Elastic Compliance Matrix: (Units=1/GPa)
#
#
# Indices 1 2 3 4 5 6 
#
# 1 0.015553 -0.006089 -0.002310 0.000000 0.000000 0.000000
# 2 -0.006089 0.017535 -0.006419 0.000000 0.000000 0.000000
# 3 -0.002310 -0.006419 0.013779 0.000000 0.000000 0.000000
# 4 0.000000 0.000000 0.000000 0.057103 0.000000 0.000000
# 5 0.000000 0.000000 0.000000 0.000000 0.056964 0.000000
# 6 0.000000 0.000000 0.000000 0.000000 0.000000 0.043634
#
#
# Mechanical properties :
#
#
# Convention : Reuss Voigt Hill
#
# Bulk Modulus (GPa) = 58.03694 58.58219 58.30957
# Shear Modulus (GPa) = 20.83788 21.68309 21.26049
#
# Velocity S-wave (km/s) = 3.49489 3.56506 3.53015
# Velocity P-wave (km/s) = 7.09256 7.16132 7.12702
#
# Compressibility (1/GPa) = 0.01723040
#
# Stress axis : x y z
#
# Youngs Moduli (GPa) = 64.29633 57.03020 72.57338
#
# Poissons Ratio (x) = 0.34726 0.16762
# Poissons Ratio (y) = 0.39150 0.46588
# Poissons Ratio (z) = 0.14850 0.36610
#
# Static dielectric constant tensor:
#      x y z
#    x 3.365810 0.000000 0.000000 
#    y 0.000000 3.230980 0.000000 
#    z 0.000000 0.000000 3.081410 
# 
# 
# High freq. dielectric constant tensor:
#      x y z
#    x 1.658360 0.000000 0.000000 
#    y 0.000000 1.646600 0.000000 
#    z 0.000000 0.000000 1.646130 
# 
# From -- ./inp_files/46198.got.cif
#   From: 2010.03.12/outbox.cif.g09.slc.cpg/sg68_24_cif.got.tgz:46198.got - 2010.04.10 23:14:56.
