data_PCOD8281250
_publ_section_title
;
Structure prediction by ZEFSAII (Michael W. Deem and Ramdas Pophale) SiO2 
 PCOD8281250
Probable space group: C M M A
;
_chemical_formula_sum "Si O2"
_cell_formula_units_Z 48
_cell_length_a 19.647129
_cell_length_b 15.865070
_cell_length_c 6.852826
_cell_angle_alpha 90.000000
_cell_angle_beta 90.000000
_cell_angle_gamma 90.000000
_cell_volume 2136.046950
_symmetry_space_group_name_H-M "C M M A"
_symmetry_group_IT_number 67
_symmetry_cell_setting 'orthorhombic'
loop_
_space_group_symop_operation_xyz
x,y,z
-x,1/2-y,z
x,-y,-z
-x,1/2+y,-z
-x,-y,-z
x,1/2+y,-z
-x,y,z
x,1/2-y,z
1/2+x,1/2+y,z
1/2-x,-y,z
1/2+x,1/2-y,-z
1/2-x,y,-z
1/2-x,1/2-y,-z
1/2+x,y,-z
1/2-x,1/2+y,z
1/2+x,-y,z
loop_
_atom_site_type_symbol
_atom_site_label
_atom_site_fract_x
_atom_site_fract_y
_atom_site_fract_z
Si Si1 0.645207 0.750000 0.008558
Si Si2 0.000000 0.250000 0.002530
Si Si3 0.861929 0.610424 0.671780
Si Si4 0.500000 0.066392 0.821013
Si Si5 0.250000 0.000000 0.500000
Si Si6 0.823858 0.750000 0.407100
O O1 0.652326 0.666624 0.136893
O O2 0.571687 0.750000 0.890306
O O3 0.695100 0.750000 0.823665
O O4 0.000000 0.334202 0.133206
O O5 0.796734 0.551606 0.648951
O O6 0.866516 0.668293 0.477328
O O7 0.930601 0.553909 0.695260
O O8 0.500000 0.000000 0.000000
O O9 0.750000 0.750000 0.500000
#
# Coordination Sequence:
#
# PCOD8281250 Si02
#       6
#     8   4  16   8   4   8
#     4   9  21  42  72  95 127 183 224 295 352 430
#     4   8  18  40  68 100 126 172 244 272 360 430
#     4  10  24  44  67  98 142 175 239 292 352 440
#     4  10  22  46  70 106 138 189 243 302 362 440
#     4  12  24  44  62 108 142 188 232 286 372 436
#     4  11  22  45  67 102 133 175 239 291 365 437
#
# _framework density 22.471418
#
# number of rings (size 3 to 8) (size 9 to 14) (size 15 to 20)
#    0.000    2.000    1.667    1.000    0.000   10.000 
#    6.000    1.667    0.000    0.000    0.000    0.000 
#    0.000    0.000    0.000    0.000    0.000    0.000 
#
# Total GULP energy -297324.721034 kJ/mol
# GULP energy per Si atom -12388.530043 kJ/mol
# Density = 2.242027 g / cm^3
# Si number density = 22.471418 Si / 1000 Ang^3
#
#
#
# Elastic Constant Matrix: (Units=GPa)
#
#
# Indices 1 2 3 4 5 6 
#
# 1 174.8917 63.0871 54.2652 0.0000 0.0000 0.0000
# 2 63.0871 118.2985 51.0972 0.0000 0.0000 0.0000
# 3 54.2652 51.0972 151.1355 0.0000 0.0000 0.0000
# 4 0.0000 0.0000 0.0000 24.0043 0.0000 0.0000
# 5 0.0000 0.0000 0.0000 0.0000 38.4567 0.0000
# 6 0.0000 0.0000 0.0000 0.0000 0.0000 34.9953
#
#
#
# Elastic Compliance Matrix: (Units=1/GPa)
#
#
# Indices 1 2 3 4 5 6 
#
# 1 0.007375 -0.003266 -0.001544 0.000000 0.000000 0.000000
# 2 -0.003266 0.011345 -0.002663 0.000000 0.000000 0.000000
# 3 -0.001544 -0.002663 0.008071 0.000000 0.000000 0.000000
# 4 0.000000 0.000000 0.000000 0.041659 0.000000 0.000000
# 5 0.000000 0.000000 0.000000 0.000000 0.026003 0.000000
# 6 0.000000 0.000000 0.000000 0.000000 0.000000 0.028575
#
#
# Mechanical properties :
#
#
# Convention : Reuss Voigt Hill
#
# Bulk Modulus (GPa) = 84.41940 86.80274 85.61107
# Shear Modulus (GPa) = 35.23027 37.88303 36.55665
#
# Velocity S-wave (km/s) = 3.96382 4.11034 4.03774
# Velocity P-wave (km/s) = 7.65494 7.82550 7.74069
#
# Compressibility (1/GPa) = 0.01184562
#
# Stress axis : x y z
#
# Youngs Moduli (GPa) = 135.59331 88.14269 123.89775
#
# Poissons Ratio (x) = 0.28789 0.19126
# Poissons Ratio (y) = 0.44287 0.32994
# Poissons Ratio (z) = 0.20932 0.23472
#
# Static dielectric constant tensor:
#      x y z
#    x 4.753290 0.000000 0.000000 
#    y 0.000000 4.232510 0.000000 
#    z 0.000000 0.000000 3.909060 
# 
# 
# High freq. dielectric constant tensor:
#      x y z
#    x 1.909370 0.000000 0.000000 
#    y 0.000000 1.885800 0.000000 
#    z 0.000000 0.000000 1.857570 
# 
# From -- ./inp_files/3232.got.cif
#   From: 2010.03.12/outbox.cif.g09.slc.cpg/sg67_2_cif.got.tgz:3232.got - 2010.04.10 22:41:39.
