data_PCOD8281646
_publ_section_title
;
Structure prediction by ZEFSAII (Michael W. Deem and Ramdas Pophale) SiO2 
 PCOD8281646
Probable space group: C C C A
;
_chemical_formula_sum "Si O2"
_cell_formula_units_Z 80
_cell_length_a 22.323596
_cell_length_b 9.503012
_cell_length_c 17.735004
_cell_angle_alpha 90.000000
_cell_angle_beta 90.000000
_cell_angle_gamma 90.000000
_cell_volume 3762.328589
_symmetry_space_group_name_H-M "C C C A"
_symmetry_group_IT_number 68
_space_group.IT_coordinate_system_code '2'
_symmetry_cell_setting 'orthorhombic'
loop_
_space_group_symop_operation_xyz
x,y,z
-x,1/2-y,z
x,1/2-y,1/2-z
-x,y,1/2-z
-x,-y,-z
x,1/2+y,-z
-x,1/2+y,1/2+z
x,-y,1/2+z
1/2+x,1/2+y,z
1/2-x,-y,z
1/2+x,-y,1/2-z
1/2-x,1/2+y,1/2-z
1/2-x,1/2-y,-z
1/2+x,y,-z
1/2-x,y,1/2+z
1/2+x,1/2-y,1/2+z
loop_
_atom_site_type_symbol
_atom_site_label
_atom_site_fract_x
_atom_site_fract_y
_atom_site_fract_z
Si Si1 0.000000 0.250000 0.869980
Si Si2 0.356944 0.438550 0.912652
Si Si3 0.053295 0.022146 0.208767
Si Si4 0.250000 0.000000 0.688539
Si Si5 0.652862 0.382034 0.289156
Si Si6 0.624698 0.234387 0.059537
O O1 0.979532 0.120479 0.818596
O O2 0.945186 0.294309 0.924622
O O3 0.416079 0.402564 0.862950
O O4 0.296686 0.414905 0.863979
O O5 0.359139 0.600749 0.939693
O O6 0.355515 0.329103 0.980275
O O7 0.106145 0.006424 0.271489
O O8 0.000000 0.111058 0.250000
O O9 0.215445 0.104144 0.744944
O O10 0.619363 0.250000 0.250000
O O11 0.663058 0.350718 0.377286
#
# Coordination Sequence:
#
# PCOD8281646 Si02
#       6
#     8  16  16   8  16  16
#     4  10  17  30  64  92 119 146 206 250 303 360
#     4  10  24  39  59  92 127 164 205 259 313 376
#     4  10  16  31  61  91 115 153 206 256 297 364
#     4  10  22  40  60  86 122 156 222 264 298 366
#     4  11  18  37  62  88 113 158 213 261 298 360
#     4  11  22  39  61  95 127 160 202 254 321 370
#
# _framework density 21.263425999999999
#
# number of rings (size 3 to 8) (size 9 to 14) (size 15 to 20)
#    0.000    1.600    8.000    0.300    0.000    4.800 
#    3.600    0.000    0.000    0.000    5.200    0.000 
#    0.000    0.000    0.000    0.000    0.000    0.000 
#
# Total GULP energy -495543.819899 kJ/mol
# GULP energy per Si atom -12388.595497 kJ/mol
# Density = 2.121503 g / cm^3
# Si number density = 21.263426 Si / 1000 Ang^3
#
#
#
# Elastic Constant Matrix: (Units=GPa)
#
#
# Indices 1 2 3 4 5 6 
#
# 1 141.5654 23.0685 68.9829 0.0000 0.0000 0.0000
# 2 23.0685 38.7546 33.2887 0.0000 0.0000 0.0000
# 3 68.9829 33.2887 143.5132 0.0000 0.0000 0.0000
# 4 0.0000 0.0000 0.0000 19.5750 0.0000 0.0000
# 5 0.0000 0.0000 0.0000 0.0000 37.5172 0.0000
# 6 0.0000 0.0000 0.0000 0.0000 0.0000 12.4791
#
#
#
# Elastic Compliance Matrix: (Units=1/GPa)
#
#
# Indices 1 2 3 4 5 6 
#
# 1 0.009364 -0.002132 -0.004006 0.000000 0.000000 0.000000
# 2 -0.002132 0.032709 -0.006562 0.000000 0.000000 0.000000
# 3 -0.004006 -0.006562 0.010416 0.000000 0.000000 0.000000
# 4 0.000000 0.000000 0.000000 0.051086 0.000000 0.000000
# 5 0.000000 0.000000 0.000000 0.000000 0.026654 0.000000
# 6 0.000000 0.000000 0.000000 0.000000 0.000000 0.080134
#
#
# Mechanical properties :
#
#
# Convention : Reuss Voigt Hill
#
# Bulk Modulus (GPa) = 36.91787 63.83482 50.37634
# Shear Modulus (GPa) = 20.42543 27.14713 23.78628
#
# Velocity S-wave (km/s) = 3.10270 3.57698 3.34825
# Velocity P-wave (km/s) = 5.49868 6.86628 6.22018
#
# Compressibility (1/GPa) = 0.02708716
#
# Stress axis : x y z
#
# Youngs Moduli (GPa) = 106.79762 30.57238 96.00836
#
# Poissons Ratio (x) = 0.06519 0.38462
# Poissons Ratio (y) = 0.22774 0.63002
# Poissons Ratio (z) = 0.42785 0.20062
#
# Static dielectric constant tensor:
#      x y z
#    x 4.182340 0.000000 0.000000 
#    y 0.000000 3.419220 0.000000 
#    z 0.000000 0.000000 3.874500 
# 
# 
# High freq. dielectric constant tensor:
#      x y z
#    x 1.847690 0.000000 0.000000 
#    y 0.000000 1.787120 0.000000 
#    z 0.000000 0.000000 1.835500 
# 
# From -- ./inp_files/32727.got.cif
#   From: 2010.03.12/outbox.cif.g09.slc.cpg/sg68_17_cif.got.tgz:32727.got - 2010.04.10 23:14:56.
