data_PCOD8281442
_publ_section_title
;
Structure prediction by ZEFSAII (Michael W. Deem and Ramdas Pophale) SiO2 
 PCOD8281442
Probable space group: C M M A
;
_chemical_formula_sum "Si O2"
_cell_formula_units_Z 104
_cell_length_a 8.807860
_cell_length_b 25.151959
_cell_length_c 30.280739
_cell_angle_alpha 90.000000
_cell_angle_beta 90.000000
_cell_angle_gamma 90.000000
_cell_volume 6708.241504
_symmetry_space_group_name_H-M "C M M A"
_symmetry_group_IT_number 67
_symmetry_cell_setting 'orthorhombic'
loop_
_space_group_symop_operation_xyz
x,y,z
-x,1/2-y,z
x,-y,-z
-x,1/2+y,-z
-x,-y,-z
x,1/2+y,-z
-x,y,z
x,1/2-y,z
1/2+x,1/2+y,z
1/2-x,-y,z
1/2+x,1/2-y,-z
1/2-x,y,-z
1/2-x,1/2-y,-z
1/2+x,y,-z
1/2-x,1/2+y,z
1/2+x,-y,z
loop_
_atom_site_type_symbol
_atom_site_label
_atom_site_fract_x
_atom_site_fract_y
_atom_site_fract_z
Si Si1 0.169441 0.313385 0.869025
Si Si2 0.317938 0.250000 0.548488
Si Si3 0.822596 0.687793 0.685132
Si Si4 0.317303 0.942457 0.453505
Si Si5 0.180228 0.150786 0.599502
Si Si6 0.831492 0.813228 0.782908
Si Si7 0.329733 0.686666 0.043709
O O1 0.179814 0.250000 0.868236
O O2 0.231753 0.336816 0.822807
O O3 0.257938 0.336291 0.911338
O O4 0.000000 0.333965 0.874055
O O5 0.500000 0.250000 0.547102
O O6 0.250000 0.250000 0.500000
O O7 0.259506 0.198289 0.573418
O O8 0.793705 0.750000 0.677833
O O9 0.717132 0.655742 0.651343
O O10 0.770671 0.670026 0.734458
O O11 0.000000 0.674762 0.677604
O O12 0.500000 0.943865 0.455249
O O13 0.250000 0.921911 0.500000
O O14 0.256473 0.903803 0.415785
O O15 0.250000 0.000000 0.442542
O O16 0.000000 0.150948 0.591383
O O17 0.835083 0.750000 0.785073
O O18 0.000000 0.835893 0.789625
O O19 0.500000 0.666204 0.042220
O O20 0.318139 0.750000 0.043830
O O21 0.250000 0.663511 0.000000
#
# Coordination Sequence:
#
# PCOD8281442 Si02
#       7
#    16   8  16  16  16  16  16
#     4   9  15  21  29  42  59  80 109 146 187 233
#     4  12  24  38  52  70  96 124 152 182 217 258
#     4   9  17  30  46  63  86 115 144 174 212 255
#     4  11  22  39  59  78  98 121 149 183 217 256
#     4  12  23  35  51  74  98 123 151 181 218 262
#     4   8  14  24  37  51  68  94 125 157 194 239
#     4   9  15  21  28  37  51  72 100 138 185 236
#
# _framework density 15.503318
#
# number of rings (size 3 to 8) (size 9 to 14) (size 15 to 20)
#    0.000    2.154    0.769    6.231    0.000    4.308 
#    0.000    1.538    0.000    0.000    0.000    0.000 
#    0.000    0.000    0.000    0.000    0.000    0.000 
#
# Total GULP energy -644598.353156 kJ/mol
# GULP energy per Si atom -12396.122176 kJ/mol
# Density = 1.546803 g / cm^3
# Si number density = 15.503318 Si / 1000 Ang^3
#
#
#
# Elastic Constant Matrix: (Units=GPa)
#
#
# Indices 1 2 3 4 5 6 
#
# 1 140.2881 26.7114 73.0336 0.0000 0.0000 0.0000
# 2 26.7114 32.5821 29.9086 0.0000 0.0000 0.0000
# 3 73.0336 29.9086 150.3935 0.0000 0.0000 0.0000
# 4 0.0000 0.0000 0.0000 6.2088 0.0000 0.0000
# 5 0.0000 0.0000 0.0000 0.0000 33.9593 0.0000
# 6 0.0000 0.0000 0.0000 0.0000 0.0000 14.4036
#
#
#
# Elastic Compliance Matrix: (Units=1/GPa)
#
#
# Indices 1 2 3 4 5 6 
#
# 1 0.010076 -0.004611 -0.003976 0.000000 0.000000 0.000000
# 2 -0.004611 0.039655 -0.005647 0.000000 0.000000 0.000000
# 3 -0.003976 -0.005647 0.009703 0.000000 0.000000 0.000000
# 4 0.000000 0.000000 0.000000 0.161062 0.000000 0.000000
# 5 0.000000 0.000000 0.000000 0.000000 0.029447 0.000000
# 6 0.000000 0.000000 0.000000 0.000000 0.000000 0.069427
#
#
# Mechanical properties :
#
#
# Convention : Reuss Voigt Hill
#
# Bulk Modulus (GPa) = 32.29287 64.73013 48.51150
# Shear Modulus (GPa) = 13.96019 23.82168 18.89094
#
# Velocity S-wave (km/s) = 3.00403 3.92414 3.49450
# Velocity P-wave (km/s) = 5.73647 7.89778 6.90225
#
# Compressibility (1/GPa) = 0.03096659
#
# Stress axis : x y z
#
# Youngs Moduli (GPa) = 99.24508 25.21720 103.05881
#
# Poissons Ratio (x) = 0.11627 0.40978
# Poissons Ratio (y) = 0.45758 0.58200
# Poissons Ratio (z) = 0.39462 0.14241
#
# Static dielectric constant tensor:
#      x y z
#    x 3.135600 0.000000 0.000000 
#    y 0.000000 2.392370 0.000000 
#    z 0.000000 0.000000 3.241670 
# 
# 
# High freq. dielectric constant tensor:
#      x y z
#    x 1.610500 0.000000 0.000000 
#    y 0.000000 1.511680 0.000000 
#    z 0.000000 0.000000 1.612670 
# 
# From -- ./inp_files/45401.got.cif
#   From: 2010.03.12/outbox.cif.g09.slc.cpg/sg67_23_cif.got.tgz:45401.got - 2010.04.10 22:41:39.
