data_PCOD8281811
_publ_section_title
;
Structure prediction by ZEFSAII (Michael W. Deem and Ramdas Pophale) SiO2 
 PCOD8281811
Probable space group: C C C A
;
_chemical_formula_sum "Si O2"
_cell_formula_units_Z 88
_cell_length_a 22.279229
_cell_length_b 12.854893
_cell_length_c 14.193891
_cell_angle_alpha 90.000000
_cell_angle_beta 90.000000
_cell_angle_gamma 90.000000
_cell_volume 4065.089290
_symmetry_space_group_name_H-M "C C C A"
_symmetry_group_IT_number 68
_space_group.IT_coordinate_system_code '2'
_symmetry_cell_setting 'orthorhombic'
loop_
_space_group_symop_operation_xyz
x,y,z
-x,1/2-y,z
x,1/2-y,1/2-z
-x,y,1/2-z
-x,-y,-z
x,1/2+y,-z
-x,1/2+y,1/2+z
x,-y,1/2+z
1/2+x,1/2+y,z
1/2-x,-y,z
1/2+x,-y,1/2-z
1/2-x,1/2+y,1/2-z
1/2-x,1/2-y,-z
1/2+x,y,-z
1/2-x,y,1/2+z
1/2+x,1/2-y,1/2+z
loop_
_atom_site_type_symbol
_atom_site_label
_atom_site_fract_x
_atom_site_fract_y
_atom_site_fract_z
Si Si1 0.942135 0.130214 0.943684
Si Si2 0.842070 0.963098 0.546433
Si Si3 0.924667 0.640020 0.402789
Si Si4 0.750000 0.500000 0.612075
Si Si5 0.319836 0.627918 0.239451
Si Si6 0.436277 0.994527 0.230031
O O1 0.916101 0.236367 0.898249
O O2 0.013680 0.126757 0.964583
O O3 0.926871 0.035857 0.874395
O O4 0.903138 0.106455 0.037452
O O5 0.801073 0.950725 0.454328
O O6 0.803821 0.919295 0.635656
O O7 0.865679 0.082826 0.554713
O O8 0.933110 0.594936 0.298497
O O9 0.724936 0.411811 0.680559
O O10 0.315009 0.750000 0.250000
O O11 0.387754 0.593622 0.255056
O O12 0.500000 0.939835 0.250000
#
# Coordination Sequence:
#
# PCOD8281811 Si02
#       6
#    16  16  16   8  16  16
#     4  10  18  36  65  96 131 176 210 270 327 387
#     4  11  24  42  67  94 129 174 222 270 332 392
#     4   9  20  35  62  99 132 167 222 265 324 392
#     4  12  26  50  66  88 132 174 226 272 322 406
#     4  11  26  47  66  99 132 168 223 278 333 393
#     4   9  18  38  65  96 135 170 211 271 326 392
#
# _framework density 21.647741
#
# number of rings (size 3 to 8) (size 9 to 14) (size 15 to 20)
#    0.000    1.818    1.818    1.636    2.545    3.273 
#    6.545    0.000    0.000    0.000    0.000    0.000 
#    0.000    0.000    0.000    0.000    0.000    0.000 
#
# Total GULP energy -545280.502085 kJ/mol
# GULP energy per Si atom -12392.738684 kJ/mol
# Density = 2.159847 g / cm^3
# Si number density = 21.647741 Si / 1000 Ang^3
#
#
#
# Elastic Constant Matrix: (Units=GPa)
#
#
# Indices 1 2 3 4 5 6 
#
# 1 96.8205 46.1023 50.1832 0.0000 0.0000 0.0000
# 2 46.1023 121.9389 38.8230 0.0000 0.0000 0.0000
# 3 50.1832 38.8230 113.0281 0.0000 0.0000 0.0000
# 4 0.0000 0.0000 0.0000 16.7626 0.0000 0.0000
# 5 0.0000 0.0000 0.0000 0.0000 35.3539 0.0000
# 6 0.0000 0.0000 0.0000 0.0000 0.0000 15.1425
#
#
#
# Elastic Compliance Matrix: (Units=1/GPa)
#
#
# Indices 1 2 3 4 5 6 
#
# 1 0.014955 -0.003975 -0.005275 0.000000 0.000000 0.000000
# 2 -0.003975 0.010264 -0.001761 0.000000 0.000000 0.000000
# 3 -0.005275 -0.001761 0.011794 0.000000 0.000000 0.000000
# 4 0.000000 0.000000 0.000000 0.059657 0.000000 0.000000
# 5 0.000000 0.000000 0.000000 0.000000 0.028285 0.000000
# 6 0.000000 0.000000 0.000000 0.000000 0.000000 0.066039
#
#
# Mechanical properties :
#
#
# Convention : Reuss Voigt Hill
#
# Bulk Modulus (GPa) = 66.69850 66.88939 66.79394
# Shear Modulus (GPa) = 22.93447 26.56373 24.74910
#
# Velocity S-wave (km/s) = 3.25843 3.50678 3.38489
# Velocity P-wave (km/s) = 6.71076 6.88206 6.79695
#
# Compressibility (1/GPa) = 0.01499284
#
# Stress axis : x y z
#
# Youngs Moduli (GPa) = 66.86772 97.42587 84.78893
#
# Poissons Ratio (x) = 0.38725 0.44722
# Poissons Ratio (y) = 0.26579 0.14930
# Poissons Ratio (z) = 0.35270 0.17155
#
# Static dielectric constant tensor:
#      x y z
#    x 4.139030 0.000000 0.000000 
#    y 0.000000 3.657830 0.000000 
#    z 0.000000 0.000000 4.038220 
# 
# 
# High freq. dielectric constant tensor:
#      x y z
#    x 1.852460 0.000000 0.000000 
#    y 0.000000 1.833380 0.000000 
#    z 0.000000 0.000000 1.851890 
# 
# From -- ./inp_files/25264.got.cif
#   From: 2010.03.12/outbox.cif.g09.slc.cpg/sg68_13_cif.got.tgz:25264.got - 2010.04.10 23:14:56.
