data_PCOD8281328
_publ_section_title
;
Structure prediction by ZEFSAII (Michael W. Deem and Ramdas Pophale) SiO2 
 PCOD8281328
Probable space group: C M M A
;
_chemical_formula_sum "Si O2"
_cell_formula_units_Z 112
_cell_length_a 17.552539
_cell_length_b 24.134782
_cell_length_c 15.061123
_cell_angle_alpha 90.000000
_cell_angle_beta 90.000000
_cell_angle_gamma 90.000000
_cell_volume 6380.293870
_symmetry_space_group_name_H-M "C M M A"
_symmetry_group_IT_number 67
_symmetry_cell_setting 'orthorhombic'
loop_
_space_group_symop_operation_xyz
x,y,z
-x,1/2-y,z
x,-y,-z
-x,1/2+y,-z
-x,-y,-z
x,1/2+y,-z
-x,y,z
x,1/2-y,z
1/2+x,1/2+y,z
1/2-x,-y,z
1/2+x,1/2-y,-z
1/2-x,y,-z
1/2-x,1/2-y,-z
1/2+x,y,-z
1/2-x,1/2+y,z
1/2+x,-y,z
loop_
_atom_site_type_symbol
_atom_site_label
_atom_site_fract_x
_atom_site_fract_y
_atom_site_fract_z
Si Si1 0.845606 0.811675 0.138504
Si Si2 0.689624 0.688128 0.236231
Si Si3 0.087205 0.408501 0.165089
Si Si4 0.662026 0.587251 0.978361
Si Si5 0.412133 0.969448 0.816376
Si Si6 0.214670 0.185929 0.592511
Si Si7 0.412711 0.631574 0.698312
O O1 0.864741 0.750000 0.106391
O O2 0.758290 0.817707 0.167467
O O3 0.857793 0.851131 0.055110
O O4 0.900869 0.825828 0.220504
O O5 0.653658 0.750000 0.228614
O O6 0.629431 0.640971 0.214504
O O7 0.719453 0.678024 0.335239
O O8 0.101186 0.467222 0.215195
O O9 0.000000 0.391080 0.166262
O O10 0.111945 0.420177 0.064981
O O11 0.639381 0.543237 0.902584
O O12 0.750000 0.578222 0.000000
O O13 0.500000 0.959082 0.843339
O O14 0.390037 0.929710 0.733879
O O15 0.188149 0.250000 0.588006
O O16 0.250000 0.165517 0.500000
O O17 0.141246 0.148288 0.616006
O O18 0.500000 0.634052 0.665822
#
# Coordination Sequence:
#
# PCOD8281328 Si02
#       7
#    16  16  16  16  16  16  16
#     4   9  18  32  48  69 101 136 168 212 262 296
#     4   9  18  35  54  72  98 132 168 206 251 306
#     4  11  22  35  50  70 100 139 175 210 256 303
#     4  11  20  32  47  74  98 133 178 219 252 299
#     4   9  20  36  51  70 101 134 169 220 266 292
#     4   9  18  34  56  82 110 134 158 199 255 305
#     4   9  17  32  54  79 103 132 171 211 252 301
#
# _framework density 17.55405
#
# number of rings (size 3 to 8) (size 9 to 14) (size 15 to 20)
#    0.000    2.429    1.429    2.143    0.000    5.143 
#    0.000    0.714    0.000    4.286    0.000    3.000 
#    0.000    0.000    0.000    0.000    0.000    0.000 
#
# Total GULP energy -694341.668239 kJ/mol
# GULP energy per Si atom -12398.958361 kJ/mol
# Density = 1.751410 g / cm^3
# Si number density = 17.554050 Si / 1000 Ang^3
#
#
#
# Elastic Constant Matrix: (Units=GPa)
#
#
# Indices 1 2 3 4 5 6 
#
# 1 85.8779 57.3008 42.9820 0.0000 0.0000 0.0000
# 2 57.3008 124.2829 38.1510 0.0000 0.0000 0.0000
# 3 42.9820 38.1510 69.7011 0.0000 0.0000 0.0000
# 4 0.0000 0.0000 0.0000 15.4434 0.0000 0.0000
# 5 0.0000 0.0000 0.0000 0.0000 24.0043 0.0000
# 6 0.0000 0.0000 0.0000 0.0000 0.0000 27.1953
#
#
#
# Elastic Compliance Matrix: (Units=1/GPa)
#
#
# Indices 1 2 3 4 5 6 
#
# 1 0.020687 -0.006757 -0.009058 0.000000 0.000000 0.000000
# 2 -0.006757 0.011878 -0.002335 0.000000 0.000000 0.000000
# 3 -0.009058 -0.002335 0.021211 0.000000 0.000000 0.000000
# 4 0.000000 0.000000 0.000000 0.064752 0.000000 0.000000
# 5 0.000000 0.000000 0.000000 0.000000 0.041659 0.000000
# 6 0.000000 0.000000 0.000000 0.000000 0.000000 0.036771
#
#
# Mechanical properties :
#
#
# Convention : Reuss Voigt Hill
#
# Bulk Modulus (GPa) = 57.22249 61.85883 59.54066
# Shear Modulus (GPa) = 20.91321 22.75714 21.83517
#
# Velocity S-wave (km/s) = 3.45535 3.60447 3.53070
# Velocity P-wave (km/s) = 6.97051 7.25524 7.11430
#
# Compressibility (1/GPa) = 0.01747565
#
# Stress axis : x y z
#
# Youngs Moduli (GPa) = 48.34050 84.18790 47.14598
#
# Poissons Ratio (x) = 0.56886 0.42706
# Poissons Ratio (y) = 0.32664 0.11007
# Poissons Ratio (z) = 0.43788 0.19656
#
# Static dielectric constant tensor:
#      x y z
#    x 3.201930 0.000000 0.000000 
#    y 0.000000 3.462160 0.000000 
#    z 0.000000 0.000000 3.095750 
# 
# 
# High freq. dielectric constant tensor:
#      x y z
#    x 1.673350 0.000000 0.000000 
#    y 0.000000 1.689000 0.000000 
#    z 0.000000 0.000000 1.646680 
# 
# From -- ./inp_files/27685.got.cif
#   From: 2010.03.12/outbox.cif.g09.slc.cpg/sg67_14_cif.got.tgz:27685.got - 2010.04.10 22:41:39.
