data_PCOD8281461
_publ_section_title
;
Structure prediction by ZEFSAII (Michael W. Deem and Ramdas Pophale) SiO2 
 PCOD8281461
Probable space group: C M M A
;
_chemical_formula_sum "Si O2"
_cell_formula_units_Z 72
_cell_length_a 15.441909
_cell_length_b 8.941781
_cell_length_c 25.085063
_cell_angle_alpha 90.000000
_cell_angle_beta 90.000000
_cell_angle_gamma 90.000000
_cell_volume 3463.699556
_symmetry_space_group_name_H-M "C M M A"
_symmetry_group_IT_number 67
_symmetry_cell_setting 'orthorhombic'
loop_
_space_group_symop_operation_xyz
x,y,z
-x,1/2-y,z
x,-y,-z
-x,1/2+y,-z
-x,-y,-z
x,1/2+y,-z
-x,y,z
x,1/2-y,z
1/2+x,1/2+y,z
1/2-x,-y,z
1/2+x,1/2-y,-z
1/2-x,y,-z
1/2-x,1/2-y,-z
1/2+x,y,-z
1/2-x,1/2+y,z
1/2+x,-y,z
loop_
_atom_site_type_symbol
_atom_site_label
_atom_site_fract_x
_atom_site_fract_y
_atom_site_fract_z
Si Si1 0.896520 0.916951 0.655210
Si Si2 0.595703 0.073247 0.770123
Si Si3 0.396688 0.582668 0.552056
Si Si4 0.838410 0.928321 0.882499
Si Si5 0.000000 0.430036 0.941961
O O1 0.860565 0.750000 0.647263
O O2 0.866902 0.985127 0.712988
O O3 0.000000 0.916451 0.654470
O O4 0.858551 0.013456 0.606574
O O5 0.500000 0.005359 0.781069
O O6 0.586658 0.250000 0.764788
O O7 0.656561 0.030805 0.819634
O O8 0.359581 0.500000 0.500000
O O9 0.500000 0.572922 0.552734
O O10 0.362757 0.750000 0.548749
O O11 0.841775 0.750000 0.892612
O O12 0.750000 0.000000 0.904722
O O13 0.915754 0.009426 0.912401
O O14 0.000000 0.250000 0.943886
O O15 0.000000 0.500000 0.000000
#
# Coordination Sequence:
#
# PCOD8281461 Si02
#       5
#    16  16  16  16   8
#     4   8  13  22  38  59  83 120 172 221 272 336
#     4   8  14  28  52  77 105 146 190 234 288 350
#     4   9  15  21  29  45  75 116 162 215 275 334
#     4  11  22  40  65  95 130 167 207 253 302 358
#     4  12  26  46  70  98 128 166 209 252 303 356
#
# _framework density 20.787023999999999
#
# number of rings (size 3 to 8) (size 9 to 14) (size 15 to 20)
#    0.000    2.667    1.111    3.667    0.000    3.111 
#    0.000    4.444    0.000    0.000    0.000    0.000 
#    0.000    0.889    0.000   10.222    0.000   12.444 
#
# Total GULP energy -446128.467245 kJ/mol
# GULP energy per Si atom -12392.457423 kJ/mol
# Density = 2.073971 g / cm^3
# Si number density = 20.787024 Si / 1000 Ang^3
#
#
#
# Elastic Constant Matrix: (Units=GPa)
#
#
# Indices 1 2 3 4 5 6 
#
# 1 82.0975 41.8954 44.4451 0.0000 0.0000 0.0000
# 2 41.8954 138.0060 77.8664 0.0000 0.0000 0.0000
# 3 44.4451 77.8664 170.6841 0.0000 0.0000 0.0000
# 4 0.0000 0.0000 0.0000 33.5302 0.0000 0.0000
# 5 0.0000 0.0000 0.0000 0.0000 -11.7587 0.0000
# 6 0.0000 0.0000 0.0000 0.0000 0.0000 18.9402
#
#
#
# Elastic Compliance Matrix: (Units=1/GPa)
#
#
# Indices 1 2 3 4 5 6 
#
# 1 0.015160 -0.003198 -0.002489 0.000000 0.000000 0.000000
# 2 -0.003198 0.010432 -0.003926 0.000000 0.000000 0.000000
# 3 -0.002489 -0.003926 0.008298 0.000000 0.000000 0.000000
# 4 0.000000 0.000000 0.000000 0.029824 0.000000 0.000000
# 5 0.000000 0.000000 0.000000 0.000000 -0.085044 0.000000
# 6 0.000000 0.000000 0.000000 0.000000 0.000000 0.052798
#
#
# Mechanical properties :
#
#
# Convention : Reuss Voigt Hill
#
# Bulk Modulus (GPa) = 68.19414 79.91125 74.05269
# Shear Modulus (GPa) = 89.95607 23.24772 56.60190
#
# Velocity S-wave (km/s) = 6.58552 3.34784 5.22384
# Velocity P-wave (km/s) = 9.52380 7.31234 8.49038
#
# Compressibility (1/GPa) = 0.01466402
#
# Stress axis : x y z
#
# Youngs Moduli (GPa) = 65.96350 95.85570 120.51011
#
# Poissons Ratio (x) = 0.30655 0.29990
# Poissons Ratio (y) = 0.21096 0.47318
# Poissons Ratio (z) = 0.16416 0.37638
#
# Static dielectric constant tensor:
#      x y z
#    x 3.244330 0.000000 0.000000 
#    y 0.000000 3.621160 0.000000 
#    z 0.000000 0.000000 4.360510 
# 
# 
# High freq. dielectric constant tensor:
#      x y z
#    x 1.775110 0.000000 0.000000 
#    y 0.000000 1.792860 0.000000 
#    z 0.000000 0.000000 1.832200 
# 
# From -- ./inp_files/44258.got.cif
#   From: 2010.03.12/outbox.cif.g09.slc.cpg/sg67_23_cif.got.tgz:44258.got - 2010.04.10 22:41:39.
