data_PCOD8281177
_publ_section_title
;
Structure prediction by ZEFSAII (Michael W. Deem and Ramdas Pophale) SiO2 
 PCOD8281177
Probable space group: C M M A
;
_chemical_formula_sum "Si O2"
_cell_formula_units_Z 88
_cell_length_a 9.379969
_cell_length_b 20.481876
_cell_length_c 22.948976
_cell_angle_alpha 90.000000
_cell_angle_beta 90.000000
_cell_angle_gamma 90.000000
_cell_volume 4408.942626
_symmetry_space_group_name_H-M "C M M A"
_symmetry_group_IT_number 67
_symmetry_cell_setting 'orthorhombic'
loop_
_space_group_symop_operation_xyz
x,y,z
-x,1/2-y,z
x,-y,-z
-x,1/2+y,-z
-x,-y,-z
x,1/2+y,-z
-x,y,z
x,1/2-y,z
1/2+x,1/2+y,z
1/2-x,-y,z
1/2+x,1/2-y,-z
1/2-x,y,-z
1/2-x,1/2-y,-z
1/2+x,y,-z
1/2-x,1/2+y,z
1/2+x,-y,z
loop_
_atom_site_type_symbol
_atom_site_label
_atom_site_fract_x
_atom_site_fract_y
_atom_site_fract_z
Si Si1 0.000000 0.553446 0.087135
Si Si2 0.249798 0.367609 0.881230
Si Si3 0.662906 0.326398 0.755991
Si Si4 0.350422 0.250000 0.053977
Si Si5 0.834265 0.067581 0.551181
Si Si6 0.500000 0.408986 0.955464
Si Si7 0.833077 0.568897 0.318143
O O1 0.143027 0.570364 0.123687
O O2 0.000000 0.477596 0.077003
O O3 0.000000 0.589977 0.024894
O O4 0.331007 0.352569 0.821739
O O5 0.152512 0.308709 0.900632
O O6 0.359583 0.373044 0.934387
O O7 0.500000 0.334118 0.734198
O O8 0.709565 0.250000 0.751649
O O9 0.767430 0.372407 0.719216
O O10 0.500000 0.250000 0.021082
O O11 0.250000 0.250000 0.000000
O O12 0.750000 0.108808 0.500000
O O13 0.820570 0.096858 0.615861
O O14 0.000000 0.059074 0.533826
O O15 0.750000 0.000000 0.553893
O O16 0.750000 0.500000 0.308645
O O17 0.000000 0.557766 0.301914
#
# Coordination Sequence:
#
# PCOD8281177 Si02
#       7
#     8  16  16   8  16   8  16
#     4  11  24  41  63  93 119 154 192 233 300 373
#     4  12  24  42  63  87 117 153 197 242 299 364
#     4  11  25  45  63  85 122 166 211 259 315 372
#     4  12  26  40  64  92 116 148 193 246 301 362
#     4   9  16  28  51  87 127 165 203 248 301 354
#     4  11  24  43  63  87 125 154 186 239 300 367
#     4  10  22  39  63  95 129 166 211 259 307 363
#
# _framework density 19.959433000000001
#
# number of rings (size 3 to 8) (size 9 to 14) (size 15 to 20)
#    0.000    1.273    2.727    3.818    2.545    5.455 
#    0.000    0.000    0.000    0.545    0.000    0.000 
#    0.000    0.000    0.000    0.000    0.000    0.000 
#
# Total GULP energy -545172.812596 kJ/mol
# GULP energy per Si atom -12390.291195 kJ/mol
# Density = 1.991400 g / cm^3
# Si number density = 19.959433 Si / 1000 Ang^3
#
#
#
# Elastic Constant Matrix: (Units=GPa)
#
#
# Indices 1 2 3 4 5 6 
#
# 1 148.2029 41.9459 34.2058 0.0000 0.0000 0.0000
# 2 41.9459 81.9673 41.6026 0.0000 0.0000 0.0000
# 3 34.2058 41.6026 79.9052 0.0000 0.0000 0.0000
# 4 0.0000 0.0000 0.0000 33.6911 0.0000 0.0000
# 5 0.0000 0.0000 0.0000 0.0000 37.3058 0.0000
# 6 0.0000 0.0000 0.0000 0.0000 0.0000 36.9349
#
#
#
# Elastic Compliance Matrix: (Units=1/GPa)
#
#
# Indices 1 2 3 4 5 6 
#
# 1 0.008071 -0.003230 -0.001773 0.000000 0.000000 0.000000
# 2 -0.003230 0.017875 -0.007924 0.000000 0.000000 0.000000
# 3 -0.001773 -0.007924 0.017399 0.000000 0.000000 0.000000
# 4 0.000000 0.000000 0.000000 0.029681 0.000000 0.000000
# 5 0.000000 0.000000 0.000000 0.000000 0.026806 0.000000
# 6 0.000000 0.000000 0.000000 0.000000 0.000000 0.027075
#
#
# Mechanical properties :
#
#
# Convention : Reuss Voigt Hill
#
# Bulk Modulus (GPa) = 57.17280 60.62045 58.89663
# Shear Modulus (GPa) = 31.52759 34.40775 32.96767
#
# Velocity S-wave (km/s) = 3.97871 4.15647 4.06856
# Velocity P-wave (km/s) = 7.05787 7.31251 7.18632
#
# Compressibility (1/GPa) = 0.01749083
#
# Stress axis : x y z
#
# Youngs Moduli (GPa) = 123.89989 55.94500 57.47341
#
# Poissons Ratio (x) = 0.18072 0.10191
# Poissons Ratio (y) = 0.40023 0.45540
# Poissons Ratio (z) = 0.21970 0.44329
#
# Static dielectric constant tensor:
#      x y z
#    x 3.800040 0.000000 0.000000 
#    y 0.000000 3.500160 0.000000 
#    z 0.000000 0.000000 4.252230 
# 
# 
# High freq. dielectric constant tensor:
#      x y z
#    x 1.801590 0.000000 0.000000 
#    y 0.000000 1.756360 0.000000 
#    z 0.000000 0.000000 1.776510 
# 
# From -- ./inp_files/37012.got.cif
#   From: 2010.03.12/outbox.cif.g09.slc.cpg/sg67_19_cif.got.tgz:37012.got - 2010.04.10 22:41:39.
