data_PCOD8281421
_publ_section_title
;
Structure prediction by ZEFSAII (Michael W. Deem and Ramdas Pophale) SiO2 
 PCOD8281421
Probable space group: C M M A
;
_chemical_formula_sum "Si O2"
_cell_formula_units_Z 72
_cell_length_a 15.703374
_cell_length_b 8.597779
_cell_length_c 25.283392
_cell_angle_alpha 90.000000
_cell_angle_beta 90.000000
_cell_angle_gamma 90.000000
_cell_volume 3413.615407
_symmetry_space_group_name_H-M "C M M A"
_symmetry_group_IT_number 67
_symmetry_cell_setting 'orthorhombic'
loop_
_space_group_symop_operation_xyz
x,y,z
-x,1/2-y,z
x,-y,-z
-x,1/2+y,-z
-x,-y,-z
x,1/2+y,-z
-x,y,z
x,1/2-y,z
1/2+x,1/2+y,z
1/2-x,-y,z
1/2+x,1/2-y,-z
1/2-x,y,-z
1/2-x,1/2-y,-z
1/2+x,y,-z
1/2-x,1/2+y,z
1/2+x,-y,z
loop_
_atom_site_type_symbol
_atom_site_label
_atom_site_fract_x
_atom_site_fract_y
_atom_site_fract_z
Si Si1 0.402040 0.420069 0.164928
Si Si2 0.839851 0.430603 0.264709
Si Si3 0.500000 0.934962 0.441518
Si Si4 0.344755 0.934299 0.624862
Si Si5 0.595650 0.066599 0.052095
O O1 0.500000 0.395088 0.151478
O O2 0.363166 0.250000 0.181054
O O3 0.396385 0.542039 0.212929
O O4 0.361283 0.481543 0.109108
O O5 0.835063 0.250000 0.279343
O O6 0.750000 0.500000 0.248393
O O7 0.875141 0.520417 0.316083
O O8 0.500000 0.750000 0.441121
O O9 0.500000 0.000000 0.500000
O O10 0.413673 0.994859 0.414570
O O11 0.342877 0.750000 0.618296
O O12 0.250000 0.000000 0.613146
O O13 0.500000 0.997555 0.050643
O O14 0.596330 0.250000 0.048568
O O15 0.644902 0.000000 0.000000
#
# Coordination Sequence:
#
# PCOD8281421 Si02
#       5
#    16  16   8  16  16
#     4   9  18  32  50  75 107 142 182 229 286 347
#     4  11  22  37  57  82 113 150 192 239 291 352
#     4  12  26  46  70 102 136 172 217 262 309 366
#     4  11  23  43  68  96 130 172 214 261 316 371
#     4   8  14  25  42  65  96 134 174 221 276 338
#
# _framework density 21.092008
#
# number of rings (size 3 to 8) (size 9 to 14) (size 15 to 20)
#    0.000    2.000    0.000    7.667    1.556    1.778 
#    0.000    4.444    0.000    0.667    0.000    4.667 
#    0.000    0.000    0.000    0.000    0.000    0.000 
#
# Total GULP energy -446031.922123 kJ/mol
# GULP energy per Si atom -12389.775615 kJ/mol
# Density = 2.104400 g / cm^3
# Si number density = 21.092008 Si / 1000 Ang^3
#
#
#
# Elastic Constant Matrix: (Units=GPa)
#
#
# Indices 1 2 3 4 5 6 
#
# 1 63.6271 38.9974 63.8026 0.0000 0.0000 0.0000
# 2 38.9974 143.9889 65.9937 0.0000 0.0000 0.0000
# 3 63.8026 65.9937 198.3348 0.0000 0.0000 0.0000
# 4 0.0000 0.0000 0.0000 38.8368 0.0000 0.0000
# 5 0.0000 0.0000 0.0000 0.0000 -14.9387 0.0000
# 6 0.0000 0.0000 0.0000 0.0000 0.0000 26.6492
#
#
#
# Elastic Compliance Matrix: (Units=1/GPa)
#
#
# Indices 1 2 3 4 5 6 
#
# 1 0.024682 -0.003594 -0.006744 0.000000 0.000000 0.000000
# 2 -0.003594 0.008718 -0.001745 0.000000 0.000000 0.000000
# 3 -0.006744 -0.001745 0.007792 0.000000 0.000000 0.000000
# 4 0.000000 0.000000 0.000000 0.025749 0.000000 0.000000
# 5 0.000000 0.000000 0.000000 0.000000 -0.066940 0.000000
# 6 0.000000 0.000000 0.000000 0.000000 0.000000 0.037525
#
#
# Mechanical properties :
#
#
# Convention : Reuss Voigt Hill
#
# Bulk Modulus (GPa) = 58.73137 82.61532 70.67335
# Shear Modulus (GPa) = 74.22142 25.91995 50.07068
#
# Velocity S-wave (km/s) = 5.93850 3.50937 4.87757
# Velocity P-wave (km/s) = 8.65603 7.46156 8.08089
#
# Compressibility (1/GPa) = 0.01702668
#
# Stress axis : x y z
#
# Youngs Moduli (GPa) = 40.51538 114.70596 128.33564
#
# Poissons Ratio (x) = 0.41222 0.86552
# Poissons Ratio (y) = 0.14560 0.22391
# Poissons Ratio (z) = 0.27324 0.20013
#
# Static dielectric constant tensor:
#      x y z
#    x 3.555370 0.000000 0.000000 
#    y 0.000000 4.064560 0.000000 
#    z 0.000000 0.000000 4.118730 
# 
# 
# High freq. dielectric constant tensor:
#      x y z
#    x 1.791130 0.000000 0.000000 
#    y 0.000000 1.826580 0.000000 
#    z 0.000000 0.000000 1.848850 
# 
# From -- ./inp_files/44244.got.cif
#   From: 2010.03.12/outbox.cif.g09.slc.cpg/sg67_23_cif.got.tgz:44244.got - 2010.04.10 22:41:39.
