data_PCOD8281302
_publ_section_title
;
Structure prediction by ZEFSAII (Michael W. Deem and Ramdas Pophale) SiO2 
 PCOD8281302
Probable space group: C M M A
;
_chemical_formula_sum "Si O2"
_cell_formula_units_Z 64
_cell_length_a 16.144886
_cell_length_b 10.378642
_cell_length_c 17.813372
_cell_angle_alpha 90.000000
_cell_angle_beta 90.000000
_cell_angle_gamma 90.000000
_cell_volume 2984.844095
_symmetry_space_group_name_H-M "C M M A"
_symmetry_group_IT_number 67
_symmetry_cell_setting 'orthorhombic'
loop_
_space_group_symop_operation_xyz
x,y,z
-x,1/2-y,z
x,-y,-z
-x,1/2+y,-z
-x,-y,-z
x,1/2+y,-z
-x,y,z
x,1/2-y,z
1/2+x,1/2+y,z
1/2-x,-y,z
1/2+x,1/2-y,-z
1/2-x,y,-z
1/2-x,1/2-y,-z
1/2+x,y,-z
1/2-x,1/2+y,z
1/2+x,-y,z
loop_
_atom_site_type_symbol
_atom_site_label
_atom_site_fract_x
_atom_site_fract_y
_atom_site_fract_z
Si Si1 0.403401 0.469390 0.853069
Si Si2 0.838053 0.250000 0.042725
Si Si3 0.092379 0.750000 0.111211
Si Si4 0.684881 0.896202 0.285398
Si Si5 0.161273 0.888049 0.542014
O O1 0.500000 0.463159 0.876276
O O2 0.349136 0.378039 0.907200
O O3 0.366959 0.616023 0.859233
O O4 0.394958 0.417389 0.767637
O O5 0.750000 0.250000 0.000000
O O6 0.907987 0.250000 0.978997
O O7 0.000000 0.750000 0.142612
O O8 0.718813 0.750000 0.278545
O O9 0.665545 0.927689 0.371475
O O10 0.750000 0.000000 0.254855
O O11 0.116233 0.750000 0.534278
O O12 0.250000 0.880363 0.500000
O O13 0.108784 0.000000 0.500000
#
# Coordination Sequence:
#
# PCOD8281302 Si02
#       5
#    16   8   8  16  16
#     4  11  25  45  65  89 129 170 208 254 317 382
#     4  12  26  42  66  96 124 157 211 265 311 364
#     4  10  24  44  66  90 122 169 209 249 320 382
#     4  11  23  36  61  92 124 162 209 258 312 371
#     4   9  16  31  51  83 120 158 198 245 315 366
#
# _framework density 21.441655999999998
#
# number of rings (size 3 to 8) (size 9 to 14) (size 15 to 20)
#    0.000    1.500    3.750    1.875    5.250    3.000 
#    0.000    0.000    0.000    0.750    0.000    0.000 
#    0.000    0.000    0.000    0.000    0.000    0.000 
#
# Total GULP energy -396437.927444 kJ/mol
# GULP energy per Si atom -12388.685233 kJ/mol
# Density = 2.139285 g / cm^3
# Si number density = 21.441656 Si / 1000 Ang^3
#
#
#
# Elastic Constant Matrix: (Units=GPa)
#
#
# Indices 1 2 3 4 5 6 
#
# 1 54.7475 37.3926 28.4536 0.0000 0.0000 0.0000
# 2 37.3926 211.7642 71.1925 0.0000 0.0000 0.0000
# 3 28.4536 71.1925 155.9149 0.0000 0.0000 0.0000
# 4 0.0000 0.0000 0.0000 40.2994 0.0000 0.0000
# 5 0.0000 0.0000 0.0000 0.0000 19.9596 0.0000
# 6 0.0000 0.0000 0.0000 0.0000 0.0000 14.2636
#
#
#
# Elastic Compliance Matrix: (Units=1/GPa)
#
#
# Indices 1 2 3 4 5 6 
#
# 1 0.021629 -0.002944 -0.002603 0.000000 0.000000 0.000000
# 2 -0.002944 0.005979 -0.002193 0.000000 0.000000 0.000000
# 3 -0.002603 -0.002193 0.007890 0.000000 0.000000 0.000000
# 4 0.000000 0.000000 0.000000 0.024814 0.000000 0.000000
# 5 0.000000 0.000000 0.000000 0.000000 0.050101 0.000000
# 6 0.000000 0.000000 0.000000 0.000000 0.000000 0.070109
#
#
# Mechanical properties :
#
#
# Convention : Reuss Voigt Hill
#
# Bulk Modulus (GPa) = 49.95318 77.38934 63.67126
# Shear Modulus (GPa) = 24.66994 33.93037 29.30015
#
# Velocity S-wave (km/s) = 3.39567 3.98232 3.70064
# Velocity P-wave (km/s) = 6.22270 7.57077 6.92959
#
# Compressibility (1/GPa) = 0.02001875
#
# Stress axis : x y z
#
# Youngs Moduli (GPa) = 46.23354 167.24237 126.74124
#
# Poissons Ratio (x) = 0.49239 0.32989
# Poissons Ratio (y) = 0.13612 0.27794
# Poissons Ratio (z) = 0.12034 0.36675
#
# Static dielectric constant tensor:
#      x y z
#    x 3.348690 0.000000 0.000000 
#    y 0.000000 5.201970 0.000000 
#    z 0.000000 0.000000 3.948380 
# 
# 
# High freq. dielectric constant tensor:
#      x y z
#    x 1.780460 0.000000 0.000000 
#    y 0.000000 1.878980 0.000000 
#    z 0.000000 0.000000 1.851350 
# 
# From -- ./inp_files/33445.got.cif
#   From: 2010.03.12/outbox.cif.g09.slc.cpg/sg67_17_cif.got.tgz:33445.got - 2010.04.10 22:41:39.
