data_PCOD8281200
_publ_section_title
;
Structure prediction by ZEFSAII (Michael W. Deem and Ramdas Pophale) SiO2 
 PCOD8281200
Probable space group: C M M A
;
_chemical_formula_sum "Si O2"
_cell_formula_units_Z 116
_cell_length_a 18.309400
_cell_length_b 18.405409
_cell_length_c 16.698703
_cell_angle_alpha 90.000000
_cell_angle_beta 90.000000
_cell_angle_gamma 90.000000
_cell_volume 5627.329247
_symmetry_space_group_name_H-M "C M M A"
_symmetry_group_IT_number 67
_symmetry_cell_setting 'orthorhombic'
loop_
_space_group_symop_operation_xyz
x,y,z
-x,1/2-y,z
x,-y,-z
-x,1/2+y,-z
-x,-y,-z
x,1/2+y,-z
-x,y,z
x,1/2-y,z
1/2+x,1/2+y,z
1/2-x,-y,z
1/2+x,1/2-y,-z
1/2-x,y,-z
1/2-x,1/2-y,-z
1/2+x,y,-z
1/2-x,1/2+y,z
1/2+x,-y,z
loop_
_atom_site_type_symbol
_atom_site_label
_atom_site_fract_x
_atom_site_fract_y
_atom_site_fract_z
Si Si1 0.138805 0.593955 0.095148
Si Si2 0.693417 0.835705 0.744731
Si Si3 0.585657 0.169468 0.941000
Si Si4 0.310452 0.559670 0.313305
Si Si5 0.750000 0.500000 0.000000
Si Si6 0.416929 0.422764 0.541210
Si Si7 0.417421 0.958549 0.172766
Si Si8 0.081635 0.835704 0.388751
O O1 0.166273 0.642650 0.168007
O O2 0.080678 0.532335 0.120840
O O3 0.102921 0.648144 0.031890
O O4 0.206523 0.552337 0.058099
O O5 0.702386 0.750000 0.739935
O O6 0.771549 0.869773 0.723289
O O7 0.634545 0.865282 0.680258
O O8 0.500000 0.172987 0.930578
O O9 0.619101 0.250000 0.922753
O O10 0.615581 0.108617 0.879420
O O11 0.250000 0.500000 0.337578
O O12 0.358807 0.584352 0.388116
O O13 0.364668 0.526375 0.247304
O O14 0.411530 0.500000 0.500000
O O15 0.500000 0.408546 0.572220
O O16 0.392983 0.363814 0.475290
O O17 0.500000 0.941594 0.201255
O O18 0.082929 0.750000 0.391523
O O19 0.000000 0.865064 0.369723
#
# Coordination Sequence:
#
# PCOD8281200 Si02
#       8
#    16  16  16  16   4  16  16  16
#     4  12  22  41  63  90 123 163 211 259 315 375
#     4  11  25  41  62  95 129 167 211 257 316 381
#     4  10  22  40  62  90 121 155 204 264 319 370
#     4  12  24  42  61  91 129 168 207 260 313 375
#     4  12  24  40  64  88 124 166 208 260 316 372
#     4  10  22  40  65  95 123 160 212 260 310 370
#     4  11  23  41  66  91 122 167 215 262 317 375
#     4   9  20  41  65  92 128 164 202 255 314 371
#
# _framework density 20.613686999999999
#
# number of rings (size 3 to 8) (size 9 to 14) (size 15 to 20)
#    0.000    1.241    2.759    2.897    0.000    5.241 
#    0.000    3.448    0.000    4.138    0.000    0.000 
#    0.000    0.000    0.000    0.000    0.000    0.000 
#
# Total GULP energy -719300.924040 kJ/mol
# GULP energy per Si atom -12401.740070 kJ/mol
# Density = 2.056677 g / cm^3
# Si number density = 20.613687 Si / 1000 Ang^3
#
#
#
# Elastic Constant Matrix: (Units=GPa)
#
#
# Indices 1 2 3 4 5 6 
#
# 1 81.2762 16.6234 42.0930 0.0000 0.0000 0.0000
# 2 16.6234 60.5520 3.2731 0.0000 0.0000 0.0000
# 3 42.0930 3.2731 91.5904 0.0000 0.0000 0.0000
# 4 0.0000 0.0000 0.0000 38.4055 0.0000 0.0000
# 5 0.0000 0.0000 0.0000 0.0000 61.0757 0.0000
# 6 0.0000 0.0000 0.0000 0.0000 0.0000 100.5561
#
#
#
# Elastic Compliance Matrix: (Units=1/GPa)
#
#
# Indices 1 2 3 4 5 6 
#
# 1 0.017197 -0.004302 -0.007750 0.000000 0.000000 0.000000
# 2 -0.004302 0.017623 0.001347 0.000000 0.000000 0.000000
# 3 -0.007750 0.001347 0.014432 0.000000 0.000000 0.000000
# 4 0.000000 0.000000 0.000000 0.026038 0.000000 0.000000
# 5 0.000000 0.000000 0.000000 0.000000 0.016373 0.000000
# 6 0.000000 0.000000 0.000000 0.000000 0.000000 0.009945
#
#
# Mechanical properties :
#
#
# Convention : Reuss Voigt Hill
#
# Bulk Modulus (GPa) = 35.91599 39.71085 37.81342
# Shear Modulus (GPa) = 37.79355 51.43607 44.61481
#
# Velocity S-wave (km/s) = 4.28649 5.00066 4.65728
# Velocity P-wave (km/s) = 6.47764 7.25591 6.87779
#
# Compressibility (1/GPa) = 0.02784276
#
# Stress axis : x y z
#
# Youngs Moduli (GPa) = 58.14875 56.74407 69.29218
#
# Poissons Ratio (x) = 0.24413 0.53700
# Poissons Ratio (y) = 0.25017 -0.09337
# Poissons Ratio (z) = 0.45064 -0.07646
#
# Static dielectric constant tensor:
#      x y z
#    x 3.824030 0.000000 0.000000 
#    y 0.000000 3.818540 0.000000 
#    z 0.000000 0.000000 3.590390 
# 
# 
# High freq. dielectric constant tensor:
#      x y z
#    x 1.807690 0.000000 0.000000 
#    y 0.000000 1.813270 0.000000 
#    z 0.000000 0.000000 1.808790 
# 
# From -- ./inp_files/34367.got.cif
#   From: 2010.03.12/outbox.cif.g09.slc.cpg/sg67_18_cif.got.tgz:34367.got - 2010.04.10 22:41:39.
