data_PCOD8281656
_publ_section_title
;
Structure prediction by ZEFSAII (Michael W. Deem and Ramdas Pophale) SiO2 
 PCOD8281656
Probable space group: C C C A
;
_chemical_formula_sum "Si O2"
_cell_formula_units_Z 96
_cell_length_a 18.720592
_cell_length_b 18.758590
_cell_length_c 16.295424
_cell_angle_alpha 90.000000
_cell_angle_beta 90.000000
_cell_angle_gamma 90.000000
_cell_volume 5722.495168
_symmetry_space_group_name_H-M "C C C A"
_symmetry_group_IT_number 68
_space_group.IT_coordinate_system_code '2'
_symmetry_cell_setting 'orthorhombic'
loop_
_space_group_symop_operation_xyz
x,y,z
-x,1/2-y,z
x,1/2-y,1/2-z
-x,y,1/2-z
-x,-y,-z
x,1/2+y,-z
-x,1/2+y,1/2+z
x,-y,1/2+z
1/2+x,1/2+y,z
1/2-x,-y,z
1/2+x,-y,1/2-z
1/2-x,1/2+y,1/2-z
1/2-x,1/2-y,-z
1/2+x,y,-z
1/2-x,y,1/2+z
1/2+x,1/2-y,1/2+z
loop_
_atom_site_type_symbol
_atom_site_label
_atom_site_fract_x
_atom_site_fract_y
_atom_site_fract_z
Si Si1 0.278600 0.926982 0.527187
Si Si2 0.826757 0.467223 0.701691
Si Si3 0.708263 0.325053 0.263040
Si Si4 0.083863 0.399824 0.259200
Si Si5 0.826271 0.666278 0.885920
Si Si6 0.323971 0.674211 0.379960
O O1 0.326728 0.951178 0.604631
O O2 0.329610 0.885164 0.464582
O O3 0.211679 0.876388 0.551712
O O4 0.250000 0.000000 0.485412
O O5 0.750000 0.500000 0.727388
O O6 0.842226 0.392779 0.748424
O O7 0.888259 0.519500 0.731700
O O8 0.665542 0.250000 0.250000
O O9 0.745110 0.333919 0.351605
O O10 0.771556 0.322006 0.197098
O O11 0.116320 0.360651 0.179877
O O12 0.103287 0.359608 0.344070
O O13 0.000000 0.401479 0.250000
O O14 0.842869 0.747434 0.914602
#
# Coordination Sequence:
#
# PCOD8281656 Si02
#       6
#    16  16  16  16  16  16
#     4  10  18  30  52  75 104 135 166 217 263 298
#     4  10  16  33  51  68 107 139 164 213 269 297
#     4   8  15  27  48  74  99 125 169 224 254 286
#     4  11  21  34  53  80 106 140 173 213 262 317
#     4  10  19  28  51  80 100 131 181 210 249 313
#     4   9  17  33  48  74 108 136 163 214 267 304
#
# _framework density 16.775898999999999
#
# number of rings (size 3 to 8) (size 9 to 14) (size 15 to 20)
#    0.000    2.333    6.667    2.000    2.333    1.333 
#    0.000    0.833    0.000    0.500    0.000    0.000 
#    0.000    0.000    0.000    0.000    0.000    0.000 
#
# Total GULP energy -594848.223820 kJ/mol
# GULP energy per Si atom -12392.671330 kJ/mol
# Density = 1.673772 g / cm^3
# Si number density = 16.775899 Si / 1000 Ang^3
#
#
#
# Elastic Constant Matrix: (Units=GPa)
#
#
# Indices 1 2 3 4 5 6 
#
# 1 66.8403 41.1632 26.7390 0.0000 0.0000 0.0000
# 2 41.1632 168.2325 34.2792 0.0000 0.0000 0.0000
# 3 26.7390 34.2792 41.0768 0.0000 0.0000 0.0000
# 4 0.0000 0.0000 0.0000 30.6967 0.0000 0.0000
# 5 0.0000 0.0000 0.0000 0.0000 12.2498 0.0000
# 6 0.0000 0.0000 0.0000 0.0000 0.0000 15.6304
#
#
#
# Elastic Compliance Matrix: (Units=1/GPa)
#
#
# Indices 1 2 3 4 5 6 
#
# 1 0.021327 -0.002879 -0.011480 0.000000 0.000000 0.000000
# 2 -0.002879 0.007551 -0.004427 0.000000 0.000000 0.000000
# 3 -0.011480 -0.004427 0.035512 0.000000 0.000000 0.000000
# 4 0.000000 0.000000 0.000000 0.032577 0.000000 0.000000
# 5 0.000000 0.000000 0.000000 0.000000 0.081634 0.000000
# 6 0.000000 0.000000 0.000000 0.000000 0.000000 0.063978
#
#
# Mechanical properties :
#
#
# Convention : Reuss Voigt Hill
#
# Bulk Modulus (GPa) = 37.28958 53.39027 45.33993
# Shear Modulus (GPa) = 17.29573 23.31327 20.30450
#
# Velocity S-wave (km/s) = 3.21438 3.73190 3.48276
# Velocity P-wave (km/s) = 6.00439 7.10381 6.57711
#
# Compressibility (1/GPa) = 0.02681714
#
# Stress axis : x y z
#
# Youngs Moduli (GPa) = 46.88999 132.43895 28.15957
#
# Poissons Ratio (x) = 0.38130 0.32327
# Poissons Ratio (y) = 0.13500 0.12466
# Poissons Ratio (z) = 0.53829 0.58631
#
# Static dielectric constant tensor:
#      x y z
#    x 2.569820 0.000000 0.000000 
#    y 0.000000 3.938310 0.000000 
#    z 0.000000 0.000000 3.041570 
# 
# 
# High freq. dielectric constant tensor:
#      x y z
#    x 1.573600 0.000000 0.000000 
#    y 0.000000 1.680560 0.000000 
#    z 0.000000 0.000000 1.631290 
# 
# From -- ./inp_files/24713.got.cif
#   From: 2010.03.12/outbox.cif.g09.slc.cpg/sg68_13_cif.got.tgz:24713.got - 2010.04.10 23:14:56.
