data_PCOD8281801
_publ_section_title
;
Structure prediction by ZEFSAII (Michael W. Deem and Ramdas Pophale) SiO2 
 PCOD8281801
Probable space group: C C C A
;
_chemical_formula_sum "Si O2"
_cell_formula_units_Z 100
_cell_length_a 15.066256
_cell_length_b 29.803806
_cell_length_c 11.483604
_cell_angle_alpha 90.000000
_cell_angle_beta 90.000000
_cell_angle_gamma 90.000000
_cell_volume 5156.503041
_symmetry_space_group_name_H-M "C C C A"
_symmetry_group_IT_number 68
_space_group.IT_coordinate_system_code '2'
_symmetry_cell_setting 'orthorhombic'
loop_
_space_group_symop_operation_xyz
x,y,z
-x,1/2-y,z
x,1/2-y,1/2-z
-x,y,1/2-z
-x,-y,-z
x,1/2+y,-z
-x,1/2+y,1/2+z
x,-y,1/2+z
1/2+x,1/2+y,z
1/2-x,-y,z
1/2+x,-y,1/2-z
1/2-x,1/2+y,1/2-z
1/2-x,1/2-y,-z
1/2+x,y,-z
1/2-x,y,1/2+z
1/2+x,1/2-y,1/2+z
loop_
_atom_site_type_symbol
_atom_site_label
_atom_site_fract_x
_atom_site_fract_y
_atom_site_fract_z
Si Si1 0.433862 0.670323 0.879256
Si Si2 0.594042 0.081107 0.230125
Si Si3 0.244538 0.450067 0.886135
Si Si4 0.899830 0.100510 0.283524
Si Si5 0.500000 0.750000 0.750000
Si Si6 0.111497 0.361318 0.527309
Si Si7 0.803756 0.631721 0.947554
O O1 0.410808 0.630465 0.789907
O O2 0.429967 0.719146 0.821392
O O3 0.535340 0.669876 0.923010
O O4 0.367877 0.666165 0.987089
O O5 0.500000 0.055772 0.250000
O O6 0.673577 0.051483 0.280410
O O7 0.606785 0.089412 0.091468
O O8 0.250000 0.500000 0.939211
O O9 0.341667 0.440603 0.832289
O O10 0.212369 0.415234 0.984320
O O11 0.903898 0.136042 0.388804
O O12 0.847089 0.122577 0.176953
O O13 0.000000 0.085270 0.250000
O O14 0.209407 0.342621 0.560497
#
# Coordination Sequence:
#
# PCOD8281801 Si02
#       7
#    16  16  16  16   4  16  16
#     4  10  20  35  61  90 116 148 196 244 293 359
#     4   9  17  35  59  83 113 157 201 241 295 361
#     4  10  22  37  56  84 118 159 205 259 300 342
#     4  11  21  35  58  83 115 155 206 245 296 359
#     4  12  20  36  68  94 120 142 196 252 302 348
#     4  10  18  35  61  85 111 160 202 235 290 361
#     4  10  21  38  58  83 117 160 202 240 296 367
#
# _framework density 19.392986000000001
#
# number of rings (size 3 to 8) (size 9 to 14) (size 15 to 20)
#    0.000    1.920    5.600    0.000    0.000    1.280 
#    0.000    1.600    0.000    1.920    0.000    0.000 
#    0.000    0.000    0.000    0.000    0.000    0.000 
#
# Total GULP energy -619443.784359 kJ/mol
# GULP energy per Si atom -12388.875687 kJ/mol
# Density = 1.934885 g / cm^3
# Si number density = 19.392986 Si / 1000 Ang^3
#
#
#
# Elastic Constant Matrix: (Units=GPa)
#
#
# Indices 1 2 3 4 5 6 
#
# 1 130.0684 20.4685 33.9934 0.0000 0.0000 0.0000
# 2 20.4685 79.0395 20.6156 0.0000 0.0000 0.0000
# 3 33.9934 20.6156 115.0561 0.0000 0.0000 0.0000
# 4 0.0000 0.0000 0.0000 11.8830 0.0000 0.0000
# 5 0.0000 0.0000 0.0000 0.0000 35.2921 0.0000
# 6 0.0000 0.0000 0.0000 0.0000 0.0000 18.5657
#
#
#
# Elastic Compliance Matrix: (Units=1/GPa)
#
#
# Indices 1 2 3 4 5 6 
#
# 1 0.008526 -0.001627 -0.002228 0.000000 0.000000 0.000000
# 2 -0.001627 0.013583 -0.001953 0.000000 0.000000 0.000000
# 3 -0.002228 -0.001953 0.009699 0.000000 0.000000 0.000000
# 4 0.000000 0.000000 0.000000 0.084154 0.000000 0.000000
# 5 0.000000 0.000000 0.000000 0.000000 0.028335 0.000000
# 6 0.000000 0.000000 0.000000 0.000000 0.000000 0.053863
#
#
# Mechanical properties :
#
#
# Convention : Reuss Voigt Hill
#
# Bulk Modulus (GPa) = 49.52140 52.70210 51.11175
# Shear Modulus (GPa) = 23.09398 29.75394 26.42396
#
# Velocity S-wave (km/s) = 3.45460 3.92122 3.69528
# Velocity P-wave (km/s) = 6.44232 6.90913 6.67981
#
# Compressibility (1/GPa) = 0.02019329
#
# Stress axis : x y z
#
# Youngs Moduli (GPa) = 117.28147 73.62337 103.09811
#
# Poissons Ratio (x) = 0.11979 0.22966
# Poissons Ratio (y) = 0.19082 0.20135
# Poissons Ratio (z) = 0.26126 0.14379
#
# Static dielectric constant tensor:
#      x y z
#    x 4.027150 0.000000 0.000000 
#    y 0.000000 2.907460 0.000000 
#    z 0.000000 0.000000 3.807340 
# 
# 
# High freq. dielectric constant tensor:
#      x y z
#    x 1.779660 0.000000 0.000000 
#    y 0.000000 1.685210 0.000000 
#    z 0.000000 0.000000 1.770370 
# 
# From -- ./inp_files/13552.got.cif
#   From: 2010.03.12/outbox.cif.g09.slc.cpg/sg68_7_cif.got.tgz:13552.got - 2010.04.10 23:14:56.
