data_PCOD8281933
_publ_section_title
;
Structure prediction by ZEFSAII (Michael W. Deem and Ramdas Pophale) SiO2 
 PCOD8281933
Probable space group: C C C A
;
_chemical_formula_sum "Si O2"
_cell_formula_units_Z 100
_cell_length_a 16.347325
_cell_length_b 28.299321
_cell_length_c 10.903571
_cell_angle_alpha 90.000000
_cell_angle_beta 90.000000
_cell_angle_gamma 90.000000
_cell_volume 5044.190364
_symmetry_space_group_name_H-M "C C C A"
_symmetry_group_IT_number 68
_space_group.IT_coordinate_system_code '2'
_symmetry_cell_setting 'orthorhombic'
loop_
_space_group_symop_operation_xyz
x,y,z
-x,1/2-y,z
x,1/2-y,1/2-z
-x,y,1/2-z
-x,-y,-z
x,1/2+y,-z
-x,1/2+y,1/2+z
x,-y,1/2+z
1/2+x,1/2+y,z
1/2-x,-y,z
1/2+x,-y,1/2-z
1/2-x,1/2+y,1/2-z
1/2-x,1/2-y,-z
1/2+x,y,-z
1/2-x,y,1/2+z
1/2+x,1/2-y,1/2+z
loop_
_atom_site_type_symbol
_atom_site_label
_atom_site_fract_x
_atom_site_fract_y
_atom_site_fract_z
Si Si1 0.000000 0.610690 0.750000
Si Si2 0.773822 0.604201 0.241637
Si Si3 0.839413 0.980582 0.385358
Si Si4 0.500000 0.750000 0.750000
Si Si5 0.367696 0.044488 0.843599
Si Si6 0.279436 0.250000 0.750000
Si Si7 0.360032 0.335600 0.864336
Si Si8 0.853694 0.804862 0.133784
O O1 0.058516 0.581345 0.660126
O O2 0.051570 0.643740 0.838687
O O3 0.838187 0.572976 0.165107
O O4 0.721327 0.571122 0.337232
O O5 0.708613 0.623953 0.143843
O O6 0.825930 0.646258 0.301706
O O7 0.877786 0.982180 0.523914
O O8 0.750000 0.000000 0.403147
O O9 0.882548 0.011346 0.277285
O O10 0.558518 0.714537 0.824211
O O11 0.337850 0.294075 0.771267
O O12 0.216677 0.235180 0.858024
O O13 0.364991 0.313108 0.993987
#
# Coordination Sequence:
#
# PCOD8281933 Si02
#       8
#     8  16  16   4  16   8  16  16
#     4  10  24  37  49  80 116 148 183 221 274 336
#     4   9  19  35  59  85 106 139 190 234 276 324
#     4  10  19  34  59  84 107 141 186 233 278 327
#     4  10  24  36  50  80 116 150 182 218 272 342
#     4  10  21  37  56  82 114 146 184 230 278 331
#     4   9  20  36  58  85 100 136 192 235 280 326
#     4  10  20  36  58  79 111 145 182 233 278 328
#     4  10  20  37  56  80 113 145 182 230 279 329
#
# _framework density 19.824788000000002
#
# number of rings (size 3 to 8) (size 9 to 14) (size 15 to 20)
#    0.000    2.240    0.000    2.880    0.000    6.080 
#    0.000    4.000    0.000    0.000    0.000    0.000 
#    0.000    0.000    0.000    0.000    0.000    0.000 
#
# Total GULP energy -619471.894555 kJ/mol
# GULP energy per Si atom -12389.437891 kJ/mol
# Density = 1.977967 g / cm^3
# Si number density = 19.824788 Si / 1000 Ang^3
#
#
#
# Elastic Constant Matrix: (Units=GPa)
#
#
# Indices 1 2 3 4 5 6 
#
# 1 88.7965 35.2043 41.2555 0.0000 0.0000 0.0000
# 2 35.2043 90.4835 26.8326 0.0000 0.0000 0.0000
# 3 41.2555 26.8326 95.4317 0.0000 0.0000 0.0000
# 4 0.0000 0.0000 0.0000 44.1124 0.0000 0.0000
# 5 0.0000 0.0000 0.0000 0.0000 13.3654 0.0000
# 6 0.0000 0.0000 0.0000 0.0000 0.0000 28.1744
#
#
#
# Elastic Compliance Matrix: (Units=1/GPa)
#
#
# Indices 1 2 3 4 5 6 
#
# 1 0.015566 -0.004430 -0.005484 0.000000 0.000000 0.000000
# 2 -0.004430 0.013318 -0.001829 0.000000 0.000000 0.000000
# 3 -0.005484 -0.001829 0.013364 0.000000 0.000000 0.000000
# 4 0.000000 0.000000 0.000000 0.022669 0.000000 0.000000
# 5 0.000000 0.000000 0.000000 0.000000 0.074820 0.000000
# 6 0.000000 0.000000 0.000000 0.000000 0.000000 0.035493
#
#
# Mechanical properties :
#
#
# Convention : Reuss Voigt Hill
#
# Bulk Modulus (GPa) = 53.30159 53.47739 53.38949
# Shear Modulus (GPa) = 24.39389 28.55841 26.47615
#
# Velocity S-wave (km/s) = 3.51162 3.79956 3.65842
# Velocity P-wave (km/s) = 6.58685 6.80312 6.69586
#
# Compressibility (1/GPa) = 0.01876117
#
# Stress axis : x y z
#
# Youngs Moduli (GPa) = 64.24377 75.08727 74.82988
#
# Poissons Ratio (x) = 0.33264 0.41033
# Poissons Ratio (y) = 0.28460 0.13690
# Poissons Ratio (z) = 0.35228 0.13737
#
# Static dielectric constant tensor:
#      x y z
#    x 3.606080 0.000000 0.000000 
#    y 0.000000 4.262160 0.000000 
#    z 0.000000 0.000000 3.498820 
# 
# 
# High freq. dielectric constant tensor:
#      x y z
#    x 1.758940 0.000000 0.000000 
#    y 0.000000 1.788760 0.000000 
#    z 0.000000 0.000000 1.764120 
# 
# From -- ./inp_files/13563.got.cif
#   From: 2010.03.12/outbox.cif.g09.slc.cpg/sg68_7_cif.got.tgz:13563.got - 2010.04.10 23:14:56.
