data_PCOD8281390
_publ_section_title
;
Structure prediction by ZEFSAII (Michael W. Deem and Ramdas Pophale) SiO2 
 PCOD8281390
Probable space group: C M M A
;
_chemical_formula_sum "Si O2"
_cell_formula_units_Z 88
_cell_length_a 32.020943
_cell_length_b 25.619442
_cell_length_c 5.244097
_cell_angle_alpha 90.000000
_cell_angle_beta 90.000000
_cell_angle_gamma 90.000000
_cell_volume 4302.040556
_symmetry_space_group_name_H-M "C M M A"
_symmetry_group_IT_number 67
_symmetry_cell_setting 'orthorhombic'
loop_
_space_group_symop_operation_xyz
x,y,z
-x,1/2-y,z
x,-y,-z
-x,1/2+y,-z
-x,-y,-z
x,1/2+y,-z
-x,y,z
x,1/2-y,z
1/2+x,1/2+y,z
1/2-x,-y,z
1/2+x,1/2-y,-z
1/2-x,y,-z
1/2-x,1/2-y,-z
1/2+x,y,-z
1/2-x,1/2+y,z
1/2+x,-y,z
loop_
_atom_site_type_symbol
_atom_site_label
_atom_site_fract_x
_atom_site_fract_y
_atom_site_fract_z
Si Si1 0.611484 0.630987 0.382088
Si Si2 0.952642 0.948635 0.673126
Si Si3 0.365032 0.690225 0.864845
Si Si4 0.776632 0.146997 0.751267
Si Si5 0.888983 0.500000 0.000000
Si Si6 0.673062 0.052171 0.387730
O O1 0.565870 0.605002 0.439942
O O2 0.612041 0.673550 0.605781
O O3 0.648707 0.587649 0.404369
O O4 0.618623 0.656897 0.105688
O O5 0.000000 0.940119 0.767685
O O6 0.949755 0.000000 0.500000
O O7 0.920129 0.955628 0.901078
O O8 0.374717 0.750000 0.926893
O O9 0.316266 0.683716 0.796352
O O10 0.750000 0.163185 0.500000
O O11 0.790492 0.086330 0.736944
O O12 0.750000 0.154586 0.000000
O O13 0.861601 0.532448 0.194018
O O14 0.694353 0.000000 0.500000
#
# Coordination Sequence:
#
# PCOD8281390 Si02
#       6
#    16  16  16  16   8  16
#     4  11  21  42  65  94 129 161 214 258 306 381
#     4  11  22  35  59  99 136 169 200 247 308 365
#     4  11  25  44  71  91 114 164 218 271 326 373
#     4  11  25  42  59  91 125 159 207 264 320 375
#     4  12  19  38  59  86 132 176 220 242 283 364
#     4  11  23  37  61  86 126 178 208 245 303 374
#
# _framework density 20.455407999999998
#
# number of rings (size 3 to 8) (size 9 to 14) (size 15 to 20)
#    0.000    0.909    3.636    5.182    2.545    1.091 
#    0.000    0.000    0.000    3.273    0.000    0.000 
#    0.000    0.000    0.000    0.000    0.000    0.000 
#
# Total GULP energy -545198.656884 kJ/mol
# GULP energy per Si atom -12390.878566 kJ/mol
# Density = 2.040885 g / cm^3
# Si number density = 20.455408 Si / 1000 Ang^3
#
#
#
# Elastic Constant Matrix: (Units=GPa)
#
#
# Indices 1 2 3 4 5 6 
#
# 1 96.5382 20.0842 42.8857 0.0000 0.0000 0.0000
# 2 20.0842 110.1699 31.6233 0.0000 0.0000 0.0000
# 3 42.8857 31.6233 118.9967 0.0000 0.0000 0.0000
# 4 0.0000 0.0000 0.0000 32.4868 0.0000 0.0000
# 5 0.0000 0.0000 0.0000 0.0000 26.2059 0.0000
# 6 0.0000 0.0000 0.0000 0.0000 0.0000 19.7043
#
#
#
# Elastic Compliance Matrix: (Units=1/GPa)
#
#
# Indices 1 2 3 4 5 6 
#
# 1 0.012447 -0.001063 -0.004203 0.000000 0.000000 0.000000
# 2 -0.001063 0.009917 -0.002253 0.000000 0.000000 0.000000
# 3 -0.004203 -0.002253 0.010517 0.000000 0.000000 0.000000
# 4 0.000000 0.000000 0.000000 0.030782 0.000000 0.000000
# 5 0.000000 0.000000 0.000000 0.000000 0.038159 0.000000
# 6 0.000000 0.000000 0.000000 0.000000 0.000000 0.050750
#
#
# Mechanical properties :
#
#
# Convention : Reuss Voigt Hill
#
# Bulk Modulus (GPa) = 56.04072 57.21013 56.62542
# Shear Modulus (GPa) = 28.80885 31.08685 29.94785
#
# Velocity S-wave (km/s) = 3.75690 3.90261 3.83045
# Velocity P-wave (km/s) = 6.80258 6.95242 6.87791
#
# Compressibility (1/GPa) = 0.01784417
#
# Stress axis : x y z
#
# Youngs Moduli (GPa) = 80.34085 100.83529 95.08332
#
# Poissons Ratio (x) = 0.10714 0.39968
# Poissons Ratio (y) = 0.08537 0.21418
# Poissons Ratio (z) = 0.33771 0.22714
#
# Static dielectric constant tensor:
#      x y z
#    x 3.655740 0.000000 0.000000 
#    y 0.000000 4.194930 0.000000 
#    z 0.000000 0.000000 3.845770 
# 
# 
# High freq. dielectric constant tensor:
#      x y z
#    x 1.787330 0.000000 0.000000 
#    y 0.000000 1.795140 0.000000 
#    z 0.000000 0.000000 1.808820 
# 
# From -- ./inp_files/4762.got.cif
#   From: 2010.03.12/outbox.cif.g09.slc.cpg/sg67_3_cif.got.tgz:4762.got - 2010.04.10 22:41:39.
