data_PCOD8281209
_publ_section_title
;
Structure prediction by ZEFSAII (Michael W. Deem and Ramdas Pophale) SiO2 
 PCOD8281209
Probable space group: C M M A
;
_chemical_formula_sum "Si O2"
_cell_formula_units_Z 88
_cell_length_a 23.367366
_cell_length_b 13.009422
_cell_length_c 15.013468
_cell_angle_alpha 90.000000
_cell_angle_beta 90.000000
_cell_angle_gamma 90.000000
_cell_volume 4564.033097
_symmetry_space_group_name_H-M "C M M A"
_symmetry_group_IT_number 67
_symmetry_cell_setting 'orthorhombic'
loop_
_space_group_symop_operation_xyz
x,y,z
-x,1/2-y,z
x,-y,-z
-x,1/2+y,-z
-x,-y,-z
x,1/2+y,-z
-x,y,z
x,1/2-y,z
1/2+x,1/2+y,z
1/2-x,-y,z
1/2+x,1/2-y,-z
1/2-x,y,-z
1/2-x,1/2-y,-z
1/2+x,y,-z
1/2-x,1/2+y,z
1/2+x,-y,z
loop_
_atom_site_type_symbol
_atom_site_label
_atom_site_fract_x
_atom_site_fract_y
_atom_site_fract_z
Si Si1 0.843389 0.750000 0.190759
Si Si2 0.500000 0.366140 0.869497
Si Si3 0.399772 0.474886 0.399843
Si Si4 0.686099 0.537266 0.751675
Si Si5 0.434380 0.750000 0.664188
Si Si6 0.500000 0.128052 0.658729
Si Si7 0.123318 0.062160 0.086838
Si Si8 0.682350 0.250000 0.987664
O O1 0.806879 0.656462 0.227861
O O2 0.905413 0.750000 0.238218
O O3 0.849942 0.750000 0.083374
O O4 0.500000 0.250000 0.903643
O O5 0.500000 0.371540 0.764049
O O6 0.555742 0.419888 0.908845
O O7 0.382077 0.500000 0.500000
O O8 0.342067 0.488718 0.343043
O O9 0.420705 0.355701 0.389967
O O10 0.445491 0.562884 0.373853
O O11 0.750000 0.500000 0.755984
O O12 0.642772 0.494187 0.824716
O O13 0.500000 0.750000 0.687815
O O14 0.500000 0.250000 0.625571
O O15 0.163061 0.159861 0.076602
O O16 0.138160 0.000000 0.000000
O O17 0.750000 0.250000 0.000000
#
# Coordination Sequence:
#
# PCOD8281209 Si02
#       8
#     8   8  16  16   8   8  16   8
#     4  10  22  44  59  93 123 159 218 258 297 374
#     4  11  23  44  59  92 131 166 209 258 324 386
#     4  11  24  42  67  96 126 163 213 261 318 386
#     4  11  24  44  66  91 127 168 210 262 317 368
#     4  10  22  40  66  91 125 168 202 259 318 370
#     4  11  23  39  65  94 130 163 207 259 320 391
#     4  12  24  40  65  90 127 173 209 263 318 373
#     4  12  24  39  62  93 125 169 224 261 305 375
#
# _framework density 19.281192000000001
#
# number of rings (size 3 to 8) (size 9 to 14) (size 15 to 20)
#    0.000    0.909    5.455    1.636    1.273    0.364 
#    3.273    0.000    0.000    3.273    0.000    0.000 
#    0.000    0.000    0.000    0.000    0.000    0.000 
#
# Total GULP energy -545344.343969 kJ/mol
# GULP energy per Si atom -12394.189636 kJ/mol
# Density = 1.923731 g / cm^3
# Si number density = 19.281192 Si / 1000 Ang^3
#
#
#
# Elastic Constant Matrix: (Units=GPa)
#
#
# Indices 1 2 3 4 5 6 
#
# 1 130.5322 45.8951 22.8016 0.0000 0.0000 0.0000
# 2 45.8951 140.1208 34.4855 0.0000 0.0000 0.0000
# 3 22.8016 34.4855 96.5292 0.0000 0.0000 0.0000
# 4 0.0000 0.0000 0.0000 45.6434 0.0000 0.0000
# 5 0.0000 0.0000 0.0000 0.0000 21.1360 0.0000
# 6 0.0000 0.0000 0.0000 0.0000 0.0000 28.0747
#
#
#
# Elastic Compliance Matrix: (Units=1/GPa)
#
#
# Indices 1 2 3 4 5 6 
#
# 1 0.008772 -0.002591 -0.001146 0.000000 0.000000 0.000000
# 2 -0.002591 0.008590 -0.002457 0.000000 0.000000 0.000000
# 3 -0.001146 -0.002457 0.011508 0.000000 0.000000 0.000000
# 4 0.000000 0.000000 0.000000 0.021909 0.000000 0.000000
# 5 0.000000 0.000000 0.000000 0.000000 0.047313 0.000000
# 6 0.000000 0.000000 0.000000 0.000000 0.000000 0.035619
#
#
# Mechanical properties :
#
#
# Convention : Reuss Voigt Hill
#
# Bulk Modulus (GPa) = 60.67340 63.72740 62.20040
# Shear Modulus (GPa) = 32.98292 36.57084 34.77688
#
# Velocity S-wave (km/s) = 4.14046 4.35985 4.25157
# Velocity P-wave (km/s) = 7.37522 7.64642 7.51204
#
# Compressibility (1/GPa) = 0.01648169
#
# Stress axis : x y z
#
# Youngs Moduli (GPa) = 113.99594 116.41406 86.89566
#
# Poissons Ratio (x) = 0.30164 0.09962
# Poissons Ratio (y) = 0.29537 0.21348
# Poissons Ratio (z) = 0.13069 0.28600
#
# Static dielectric constant tensor:
#      x y z
#    x 3.415500 0.000000 0.000000 
#    y 0.000000 4.079030 0.000000 
#    z 0.000000 0.000000 3.550370 
# 
# 
# High freq. dielectric constant tensor:
#      x y z
#    x 1.749660 0.000000 0.000000 
#    y 0.000000 1.772850 0.000000 
#    z 0.000000 0.000000 1.753190 
# 
# From -- ./inp_files/26194.got.cif
#   From: 2010.03.12/outbox.cif.g09.slc.cpg/sg67_14_cif.got.tgz:26194.got - 2010.04.10 22:41:39.
