data_PCOD8281820
_publ_section_title
;
Structure prediction by ZEFSAII (Michael W. Deem and Ramdas Pophale) SiO2 
 PCOD8281820
Probable space group: C C C A
;
_chemical_formula_sum "Si O2"
_cell_formula_units_Z 120
_cell_length_a 20.424380
_cell_length_b 29.081035
_cell_length_c 10.062772
_cell_angle_alpha 90.000000
_cell_angle_beta 90.000000
_cell_angle_gamma 90.000000
_cell_volume 5976.905286
_symmetry_space_group_name_H-M "C C C A"
_symmetry_group_IT_number 68
_space_group.IT_coordinate_system_code '2'
_symmetry_cell_setting 'orthorhombic'
loop_
_space_group_symop_operation_xyz
x,y,z
-x,1/2-y,z
x,1/2-y,1/2-z
-x,y,1/2-z
-x,-y,-z
x,1/2+y,-z
-x,1/2+y,1/2+z
x,-y,1/2+z
1/2+x,1/2+y,z
1/2-x,-y,z
1/2+x,-y,1/2-z
1/2-x,1/2+y,1/2-z
1/2-x,1/2-y,-z
1/2+x,y,-z
1/2-x,y,1/2+z
1/2+x,1/2-y,1/2+z
loop_
_atom_site_type_symbol
_atom_site_label
_atom_site_fract_x
_atom_site_fract_y
_atom_site_fract_z
Si Si1 0.075875 0.959263 0.400704
Si Si2 0.773136 0.604025 0.119893
Si Si3 0.780904 0.803521 0.840394
Si Si4 0.824952 0.719076 0.947552
Si Si5 0.031815 0.440757 0.118334
Si Si6 0.093549 0.639802 0.462075
Si Si7 0.500000 0.887345 0.750000
Si Si8 0.223346 0.550202 0.116260
O O1 0.028118 0.951777 0.522637
O O2 0.150063 0.949359 0.441350
O O3 0.058693 0.921984 0.288314
O O4 0.070347 0.011864 0.348381
O O5 0.715006 0.641790 0.136007
O O6 0.843394 0.628575 0.127688
O O7 0.769395 0.565524 0.231899
O O8 0.766903 0.582861 0.974591
O O9 0.839469 0.773346 0.912056
O O10 0.780921 0.796895 0.680554
O O11 0.714933 0.784853 0.914373
O O12 0.891084 0.687848 0.959723
O O13 0.000000 0.419896 0.250000
O O14 0.081037 0.402371 0.062752
O O15 0.029504 0.644955 0.366794
O O16 0.250000 0.500000 0.105474
#
# Coordination Sequence:
#
# PCOD8281820 Si02
#       8
#    16  16  16  16  16  16   8  16
#     4  10  21  36  54  76 110 165 210 253 304 354
#     4  11  22  38  55  86 125 166 201 244 315 379
#     4   9  18  34  57  86 128 155 194 246 308 389
#     4   9  18  34  58  91 124 151 197 256 318 371
#     4  10  21  35  56  81 111 154 221 263 293 363
#     4  10  20  35  60  84 119 159 205 264 308 368
#     4  10  18  38  58  78 111 166 216 255 298 358
#     4  12  25  37  55  85 130 169 200 252 311 368
#
# _framework density 20.077279999999998
#
# number of rings (size 3 to 8) (size 9 to 14) (size 15 to 20)
#    0.000    1.867    2.000    2.800    0.000    4.267 
#    0.000    0.000    0.000    0.000    0.000   14.000 
#    0.000    0.000    0.000    0.000    0.000    0.000 
#
# Total GULP energy -743379.188991 kJ/mol
# GULP energy per Si atom -12389.653150 kJ/mol
# Density = 2.003158 g / cm^3
# Si number density = 20.077280 Si / 1000 Ang^3
#
#
#
# Elastic Constant Matrix: (Units=GPa)
#
#
# Indices 1 2 3 4 5 6 
#
# 1 71.8587 47.3837 22.2602 0.0000 0.0000 0.0000
# 2 47.3837 114.9487 26.1956 0.0000 0.0000 0.0000
# 3 22.2602 26.1956 86.6501 0.0000 0.0000 0.0000
# 4 0.0000 0.0000 0.0000 29.8482 0.0000 0.0000
# 5 0.0000 0.0000 0.0000 0.0000 20.2774 0.0000
# 6 0.0000 0.0000 0.0000 0.0000 0.0000 35.1910
#
#
#
# Elastic Compliance Matrix: (Units=1/GPa)
#
#
# Indices 1 2 3 4 5 6 
#
# 1 0.019725 -0.007492 -0.002802 0.000000 0.000000 0.000000
# 2 -0.007492 0.012189 -0.001760 0.000000 0.000000 0.000000
# 3 -0.002802 -0.001760 0.012793 0.000000 0.000000 0.000000
# 4 0.000000 0.000000 0.000000 0.033503 0.000000 0.000000
# 5 0.000000 0.000000 0.000000 0.000000 0.049316 0.000000
# 6 0.000000 0.000000 0.000000 0.000000 0.000000 0.028416
#
#
# Mechanical properties :
#
#
# Convention : Reuss Voigt Hill
#
# Bulk Modulus (GPa) = 48.55042 51.68183 50.11612
# Shear Modulus (GPa) = 26.74989 28.90452 27.82720
#
# Velocity S-wave (km/s) = 3.65409 3.79841 3.72695
# Velocity P-wave (km/s) = 6.48363 6.71078 6.59818
#
# Compressibility (1/GPa) = 0.02059715
#
# Stress axis : x y z
#
# Youngs Moduli (GPa) = 50.69804 82.04068 78.16975
#
# Poissons Ratio (x) = 0.61467 0.21905
# Poissons Ratio (y) = 0.37984 0.13759
# Poissons Ratio (z) = 0.14207 0.14441
#
# Static dielectric constant tensor:
#      x y z
#    x 3.292340 0.000000 0.000000 
#    y 0.000000 5.518120 0.000000 
#    z 0.000000 0.000000 3.679570 
# 
# 
# High freq. dielectric constant tensor:
#      x y z
#    x 1.750400 0.000000 0.000000 
#    y 0.000000 1.784910 0.000000 
#    z 0.000000 0.000000 1.788610 
# 
# From -- ./inp_files/15892.got.cif
#   From: 2010.03.12/outbox.cif.g09.slc.cpg/sg68_8_cif.got.tgz:15892.got - 2010.04.10 23:14:56.
