data_PCOD8281728
_publ_section_title
;
Structure prediction by ZEFSAII (Michael W. Deem and Ramdas Pophale) SiO2 
 PCOD8281728
Probable space group: C C C A
;
_chemical_formula_sum "Si O2"
_cell_formula_units_Z 88
_cell_length_a 23.197215
_cell_length_b 15.213984
_cell_length_c 15.997631
_cell_angle_alpha 90.000000
_cell_angle_beta 90.000000
_cell_angle_gamma 90.000000
_cell_volume 5645.916853
_symmetry_space_group_name_H-M "C C C A"
_symmetry_group_IT_number 68
_space_group.IT_coordinate_system_code '2'
_symmetry_cell_setting 'orthorhombic'
loop_
_space_group_symop_operation_xyz
x,y,z
-x,1/2-y,z
x,1/2-y,1/2-z
-x,y,1/2-z
-x,-y,-z
x,1/2+y,-z
-x,1/2+y,1/2+z
x,-y,1/2+z
1/2+x,1/2+y,z
1/2-x,-y,z
1/2+x,-y,1/2-z
1/2-x,1/2+y,1/2-z
1/2-x,1/2-y,-z
1/2+x,y,-z
1/2-x,y,1/2+z
1/2+x,1/2-y,1/2+z
loop_
_atom_site_type_symbol
_atom_site_label
_atom_site_fract_x
_atom_site_fract_y
_atom_site_fract_z
Si Si1 0.620982 0.852962 0.081379
Si Si2 0.309116 0.654975 0.248169
Si Si3 0.250000 0.500000 0.817631
Si Si4 0.185574 0.494882 0.975358
Si Si5 0.381387 0.652461 0.414774
Si Si6 0.499246 0.645849 0.155766
O O1 0.659772 0.864274 0.162255
O O2 0.620730 0.751981 0.048564
O O3 0.557042 0.885438 0.105183
O O4 0.647025 0.916457 0.010887
O O5 0.278497 0.750000 0.250000
O O6 0.259754 0.583040 0.258622
O O7 0.354999 0.652999 0.322463
O O8 0.194918 0.476748 0.876208
O O9 0.250000 0.500000 0.018032
O O10 0.152229 0.588976 0.980202
O O11 0.446274 0.616825 0.400731
O O12 0.500000 0.750000 0.165348
O O13 0.500000 0.605009 0.250000
#
# Coordination Sequence:
#
# PCOD8281728 Si02
#       6
#    16  16   8  16  16  16
#     4  10  18  28  49  70  88 115 150 183 222 264
#     4   9  16  29  47  66  84 116 150 184 221 253
#     4   8  18  32  40  58  98 120 144 182 214 258
#     4   9  20  32  41  65  95 123 145 175 222 264
#     4   9  17  32  46  65  95 115 141 187 226 258
#     4   9  15  26  47  71  89 109 144 187 226 260
#
# _framework density 15.586486000000001
#
# number of rings (size 3 to 8) (size 9 to 14) (size 15 to 20)
#    0.545    2.364    1.818    0.000    1.273    1.455 
#    0.000    0.000    0.000    0.000    0.000    0.000 
#    0.000    1.455    0.000    0.000    0.000    0.000 
#
# Total GULP energy -545123.120195 kJ/mol
# GULP energy per Si atom -12389.161823 kJ/mol
# Density = 1.555101 g / cm^3
# Si number density = 15.586486 Si / 1000 Ang^3
#
#
#
# Elastic Constant Matrix: (Units=GPa)
#
#
# Indices 1 2 3 4 5 6 
#
# 1 101.8712 63.9839 30.6392 0.0000 0.0000 0.0000
# 2 63.9839 110.7141 44.2514 0.0000 0.0000 0.0000
# 3 30.6392 44.2514 42.0513 0.0000 0.0000 0.0000
# 4 0.0000 0.0000 0.0000 18.8914 0.0000 0.0000
# 5 0.0000 0.0000 0.0000 0.0000 -1.4852 0.0000
# 6 0.0000 0.0000 0.0000 0.0000 0.0000 21.7838
#
#
#
# Elastic Compliance Matrix: (Units=1/GPa)
#
#
# Indices 1 2 3 4 5 6 
#
# 1 0.015664 -0.007751 -0.003257 0.000000 0.000000 0.000000
# 2 -0.007751 0.019424 -0.014793 0.000000 0.000000 0.000000
# 3 -0.003257 -0.014793 0.041721 0.000000 0.000000 0.000000
# 4 0.000000 0.000000 0.000000 0.052934 0.000000 0.000000
# 5 0.000000 0.000000 0.000000 0.000000 -0.673316 0.000000
# 6 0.000000 0.000000 0.000000 0.000000 0.000000 0.045906
#
#
# Mechanical properties :
#
#
# Convention : Reuss Voigt Hill
#
# Bulk Modulus (GPa) = 39.67083 59.15395 49.41239
# Shear Modulus (GPa) = -11.42431 15.55546 2.06558
#
# Velocity S-wave (km/s) = -2.71027 3.16256 1.15244
# Velocity P-wave (km/s) = 3.96400 7.16730 5.79152
#
# Compressibility (1/GPa) = 0.02520744
#
# Stress axis : x y z
#
# Youngs Moduli (GPa) = 63.84050 51.48152 23.96899
#
# Poissons Ratio (x) = 0.39903 0.07806
# Poissons Ratio (y) = 0.49482 0.35458
# Poissons Ratio (z) = 0.20790 0.76158
#
# Static dielectric constant tensor:
#      x y z
#    x 3.115660 0.000000 0.000000 
#    y 0.000000 2.975420 0.000000 
#    z 0.000000 0.000000 2.691640 
# 
# 
# High freq. dielectric constant tensor:
#      x y z
#    x 1.596320 0.000000 0.000000 
#    y 0.000000 1.582570 0.000000 
#    z 0.000000 0.000000 1.569690 
# 
# From -- ./inp_files/25356.got.cif
#   From: 2010.03.12/outbox.cif.g09.slc.cpg/sg68_13_cif.got.tgz:25356.got - 2010.04.10 23:14:56.
