data_PCOD8281462
_publ_section_title
;
Structure prediction by ZEFSAII (Michael W. Deem and Ramdas Pophale) SiO2 
 PCOD8281462
Probable space group: C M M A
;
_chemical_formula_sum "Si O2"
_cell_formula_units_Z 40
_cell_length_a 9.674813
_cell_length_b 16.244395
_cell_length_c 10.929256
_cell_angle_alpha 90.000000
_cell_angle_beta 90.000000
_cell_angle_gamma 90.000000
_cell_volume 1717.658091
_symmetry_space_group_name_H-M "C M M A"
_symmetry_group_IT_number 67
_symmetry_cell_setting 'orthorhombic'
loop_
_space_group_symop_operation_xyz
x,y,z
-x,1/2-y,z
x,-y,-z
-x,1/2+y,-z
-x,-y,-z
x,1/2+y,-z
-x,y,z
x,1/2-y,z
1/2+x,1/2+y,z
1/2-x,-y,z
1/2+x,1/2-y,-z
1/2-x,y,-z
1/2-x,1/2-y,-z
1/2+x,y,-z
1/2-x,1/2+y,z
1/2+x,-y,z
loop_
_atom_site_type_symbol
_atom_site_label
_atom_site_fract_x
_atom_site_fract_y
_atom_site_fract_z
Si Si1 0.000000 0.092126 0.552070
Si Si2 0.302159 0.343654 0.246835
Si Si3 0.500000 0.455493 0.128150
Si Si4 0.000000 0.613905 0.716218
O O1 0.138757 0.115895 0.627444
O O2 0.000000 0.141326 0.425193
O O3 0.000000 0.000000 0.500000
O O4 0.353620 0.250000 0.238901
O O5 0.365614 0.397140 0.135926
O O6 0.138098 0.346509 0.229052
O O7 0.500000 0.516727 0.246883
O O8 0.500000 0.500000 0.000000
#
# Coordination Sequence:
#
# PCOD8281462 Si02
#       4
#     8  16   8   8
#     4  11  22  40  70 102 142 188 230 272 337 414
#     4  11  25  45  70 103 143 181 226 288 347 406
#     4  11  25  47  72  96 131 188 239 286 346 413
#     4  12  24  40  71 105 140 185 231 275 345 419
#
# _framework density 23.287520000000001
#
# number of rings (size 3 to 8) (size 9 to 14) (size 15 to 20)
#    0.000    0.800    4.000    5.400    0.000    9.600 
#    0.000    6.000    0.000    0.000    0.000    0.000 
#    0.000    0.000    0.000    0.000    0.000    0.000 
#
# Total GULP energy -247852.619068 kJ/mol
# GULP energy per Si atom -12392.630953 kJ/mol
# Density = 2.323452 g / cm^3
# Si number density = 23.287520 Si / 1000 Ang^3
#
#
#
# Elastic Constant Matrix: (Units=GPa)
#
#
# Indices 1 2 3 4 5 6 
#
# 1 193.5210 49.4175 64.9007 0.0000 0.0000 0.0000
# 2 49.4175 175.3436 68.0908 0.0000 0.0000 0.0000
# 3 64.9007 68.0908 142.5784 0.0000 0.0000 0.0000
# 4 0.0000 0.0000 0.0000 30.3410 0.0000 0.0000
# 5 0.0000 0.0000 0.0000 0.0000 15.1616 0.0000
# 6 0.0000 0.0000 0.0000 0.0000 0.0000 17.2133
#
#
#
# Elastic Compliance Matrix: (Units=1/GPa)
#
#
# Indices 1 2 3 4 5 6 
#
# 1 0.006188 -0.000798 -0.002436 0.000000 0.000000 0.000000
# 2 -0.000798 0.007105 -0.003030 0.000000 0.000000 0.000000
# 3 -0.002436 -0.003030 0.009569 0.000000 0.000000 0.000000
# 4 0.000000 0.000000 0.000000 0.032959 0.000000 0.000000
# 5 0.000000 0.000000 0.000000 0.000000 0.065956 0.000000
# 6 0.000000 0.000000 0.000000 0.000000 0.000000 0.058095
#
#
# Mechanical properties :
#
#
# Convention : Reuss Voigt Hill
#
# Bulk Modulus (GPa) = 96.75780 97.36234 97.06007
# Shear Modulus (GPa) = 25.53068 34.47878 30.00473
#
# Velocity S-wave (km/s) = 3.31467 3.85199 3.59339
# Velocity P-wave (km/s) = 7.50259 7.85387 7.68024
#
# Compressibility (1/GPa) = 0.01033508
#
# Stress axis : x y z
#
# Youngs Moduli (GPa) = 161.60232 140.75584 104.50255
#
# Poissons Ratio (x) = 0.11235 0.25452
# Poissons Ratio (y) = 0.12899 0.31660
# Poissons Ratio (z) = 0.39359 0.42643
#
# Static dielectric constant tensor:
#      x y z
#    x 4.173410 0.000000 0.000000 
#    y 0.000000 4.269670 0.000000 
#    z 0.000000 0.000000 4.182890 
# 
# 
# High freq. dielectric constant tensor:
#      x y z
#    x 1.929390 0.000000 0.000000 
#    y 0.000000 1.930940 0.000000 
#    z 0.000000 0.000000 1.899400 
# 
# From -- ./inp_files/15238.got.cif
#   From: 2010.03.12/outbox.cif.g09.slc.cpg/sg67_8_cif.got.tgz:15238.got - 2010.04.10 22:41:39.
