data_PCOD8281171
_publ_section_title
;
Structure prediction by ZEFSAII (Michael W. Deem and Ramdas Pophale) SiO2 
 PCOD8281171
Probable space group: C M M A
;
_chemical_formula_sum "Si O2"
_cell_formula_units_Z 68
_cell_length_a 17.940645
_cell_length_b 24.400236
_cell_length_c 7.469853
_cell_angle_alpha 90.000000
_cell_angle_beta 90.000000
_cell_angle_gamma 90.000000
_cell_volume 3269.972761
_symmetry_space_group_name_H-M "C M M A"
_symmetry_group_IT_number 67
_symmetry_cell_setting 'orthorhombic'
loop_
_space_group_symop_operation_xyz
x,y,z
-x,1/2-y,z
x,-y,-z
-x,1/2+y,-z
-x,-y,-z
x,1/2+y,-z
-x,y,z
x,1/2-y,z
1/2+x,1/2+y,z
1/2-x,-y,z
1/2+x,1/2-y,-z
1/2-x,y,-z
1/2-x,1/2-y,-z
1/2+x,y,-z
1/2-x,1/2+y,z
1/2+x,-y,z
loop_
_atom_site_type_symbol
_atom_site_label
_atom_site_fract_x
_atom_site_fract_y
_atom_site_fract_z
Si Si1 0.750000 0.500000 0.000000
Si Si2 0.084925 0.439414 0.495128
Si Si3 0.771643 0.311548 0.703590
Si Si4 0.666431 0.400672 0.837764
Si Si5 0.584648 0.862739 0.819383
O O1 0.699015 0.460805 0.877845
O O2 0.119950 0.500000 0.500000
O O3 0.128545 0.401375 0.356020
O O4 0.092321 0.415730 0.693635
O O5 0.000000 0.442065 0.429034
O O6 0.746048 0.250000 0.754249
O O7 0.750000 0.324351 0.500000
O O8 0.732171 0.355642 0.832546
O O9 0.860357 0.316329 0.740156
O O10 0.605509 0.382097 0.982066
O O11 0.500000 0.839752 0.818937
#
# Coordination Sequence:
#
# PCOD8281171 Si02
#       5
#     4  16  16  16  16
#     4  12  24  36  66 104 124 166 222 262 322 388
#     4  10  22  39  61  91 132 175 212 266 328 383
#     4  11  24  45  70  95 128 175 222 269 323 383
#     4  12  23  41  65  97 132 169 216 267 320 395
#     4  11  23  42  66  96 128 168 219 268 323 387
#
# _framework density 20.795279000000001
#
# number of rings (size 3 to 8) (size 9 to 14) (size 15 to 20)
#    0.000    0.941    4.706    2.118    0.000    2.353 
#    0.000    4.706    0.000    2.118    0.000    0.000 
#    0.000    0.000    0.000    0.000    0.000    0.000 
#
# Total GULP energy -421691.190149 kJ/mol
# GULP energy per Si atom -12402.682063 kJ/mol
# Density = 2.074795 g / cm^3
# Si number density = 20.795279 Si / 1000 Ang^3
#
#
#
# Elastic Constant Matrix: (Units=GPa)
#
#
# Indices 1 2 3 4 5 6 
#
# 1 122.8355 42.6217 53.8844 0.0000 0.0000 0.0000
# 2 42.6217 118.0861 35.8873 0.0000 0.0000 0.0000
# 3 53.8844 35.8873 103.8622 0.0000 0.0000 0.0000
# 4 0.0000 0.0000 0.0000 23.2591 0.0000 0.0000
# 5 0.0000 0.0000 0.0000 0.0000 33.9638 0.0000
# 6 0.0000 0.0000 0.0000 0.0000 0.0000 23.6817
#
#
#
# Elastic Compliance Matrix: (Units=1/GPa)
#
#
# Indices 1 2 3 4 5 6 
#
# 1 0.011182 -0.002540 -0.004924 0.000000 0.000000 0.000000
# 2 -0.002540 0.010039 -0.002151 0.000000 0.000000 0.000000
# 3 -0.004924 -0.002151 0.012926 0.000000 0.000000 0.000000
# 4 0.000000 0.000000 0.000000 0.042994 0.000000 0.000000
# 5 0.000000 0.000000 0.000000 0.000000 0.029443 0.000000
# 6 0.000000 0.000000 0.000000 0.000000 0.000000 0.042227
#
#
# Mechanical properties :
#
#
# Convention : Reuss Voigt Hill
#
# Bulk Modulus (GPa) = 67.03461 67.73006 67.38234
# Shear Modulus (GPa) = 28.89966 30.34027 29.61997
#
# Velocity S-wave (km/s) = 3.73194 3.82383 3.77816
# Velocity P-wave (km/s) = 7.13269 7.22054 7.17675
#
# Compressibility (1/GPa) = 0.01491767
#
# Stress axis : x y z
#
# Youngs Moduli (GPa) = 89.42842 99.61361 77.36393
#
# Poissons Ratio (x) = 0.25298 0.38093
# Poissons Ratio (y) = 0.22712 0.16642
# Poissons Ratio (z) = 0.44033 0.21428
#
# Static dielectric constant tensor:
#      x y z
#    x 3.841170 0.000000 0.000000 
#    y 0.000000 3.595950 0.000000 
#    z 0.000000 0.000000 3.682430 
# 
# 
# High freq. dielectric constant tensor:
#      x y z
#    x 1.815300 0.000000 0.000000 
#    y 0.000000 1.802160 0.000000 
#    z 0.000000 0.000000 1.826940 
# 
# From -- ./inp_files/9509.got.cif
#   From: 2010.03.12/outbox.cif.g09.slc.cpg/sg67_5_cif.got.tgz:9509.got - 2010.04.10 22:41:39.
