data_PCOD8281277
_publ_section_title
;
Structure prediction by ZEFSAII (Michael W. Deem and Ramdas Pophale) SiO2 
 PCOD8281277
Probable space group: C M M A
;
_chemical_formula_sum "Si O2"
_cell_formula_units_Z 112
_cell_length_a 15.252514
_cell_length_b 22.066732
_cell_length_c 16.051886
_cell_angle_alpha 90.000000
_cell_angle_beta 90.000000
_cell_angle_gamma 90.000000
_cell_volume 5402.633654
_symmetry_space_group_name_H-M "C M M A"
_symmetry_group_IT_number 67
_symmetry_cell_setting 'orthorhombic'
loop_
_space_group_symop_operation_xyz
x,y,z
-x,1/2-y,z
x,-y,-z
-x,1/2+y,-z
-x,-y,-z
x,1/2+y,-z
-x,y,z
x,1/2-y,z
1/2+x,1/2+y,z
1/2-x,-y,z
1/2+x,1/2-y,-z
1/2-x,y,-z
1/2-x,1/2-y,-z
1/2+x,y,-z
1/2-x,1/2+y,z
1/2+x,-y,z
loop_
_atom_site_type_symbol
_atom_site_label
_atom_site_fract_x
_atom_site_fract_y
_atom_site_fract_z
Si Si1 0.398975 0.947593 0.436085
Si Si2 0.151532 0.485334 0.259941
Si Si3 0.758021 0.317811 0.256784
Si Si4 0.897374 0.065437 0.979112
Si Si5 0.669684 0.818079 0.438506
Si Si6 0.901658 0.394195 0.800222
Si Si7 0.599798 0.123821 0.851121
O O1 0.500000 0.958341 0.416383
O O2 0.344726 0.957534 0.351994
O O3 0.387433 0.877093 0.466850
O O4 0.366095 0.000000 0.500000
O O5 0.250000 0.500000 0.230790
O O6 0.092359 0.545054 0.254772
O O7 0.107218 0.439353 0.196349
O O8 0.727073 0.250000 0.250374
O O9 0.799397 0.333072 0.345628
O O10 0.667398 0.352460 0.246095
O O11 0.831212 0.329101 0.186400
O O12 0.861948 0.092096 0.892097
O O13 0.000000 0.055250 0.967386
O O14 0.876821 0.113413 0.051933
O O15 0.853915 0.000000 0.000000
O O16 0.623313 0.750000 0.440861
O O17 0.750000 0.814519 0.500000
O O18 0.000000 0.365498 0.803255
O O19 0.500000 0.148452 0.841572
#
# Coordination Sequence:
#
# PCOD8281277 Si02
#       7
#    16  16  16  16  16  16  16
#     4  11  25  39  60  96 129 160 202 258 318 375
#     4  12  22  37  60  93 128 161 199 249 312 378
#     4  11  25  44  63  89 119 162 219 257 302 366
#     4   9  18  33  57  90 125 161 199 249 315 377
#     4  10  23  44  66  87 121 167 210 255 309 373
#     4  11  22  39  62  90 126 165 206 256 312 372
#     4  11  21  38  62  91 125 157 203 260 311 367
#
# _framework density 20.730630000000001
#
# number of rings (size 3 to 8) (size 9 to 14) (size 15 to 20)
#    0.000    1.286    4.286    1.286    4.000    1.429 
#    0.000    4.286    0.000    5.143    0.000    0.000 
#    0.000    0.000    0.000    0.000    0.000    0.000 
#
# Total GULP energy -694084.698180 kJ/mol
# GULP energy per Si atom -12394.369610 kJ/mol
# Density = 2.068345 g / cm^3
# Si number density = 20.730630 Si / 1000 Ang^3
#
#
#
# Elastic Constant Matrix: (Units=GPa)
#
#
# Indices 1 2 3 4 5 6 
#
# 1 53.8274 10.3003 8.5356 0.0000 0.0000 0.0000
# 2 10.3003 119.7721 39.2506 0.0000 0.0000 0.0000
# 3 8.5356 39.2506 55.6957 0.0000 0.0000 0.0000
# 4 0.0000 0.0000 0.0000 32.9391 0.0000 0.0000
# 5 0.0000 0.0000 0.0000 0.0000 16.4621 0.0000
# 6 0.0000 0.0000 0.0000 0.0000 0.0000 25.8871
#
#
#
# Elastic Compliance Matrix: (Units=1/GPa)
#
#
# Indices 1 2 3 4 5 6 
#
# 1 0.019113 -0.000889 -0.002303 0.000000 0.000000 0.000000
# 2 -0.000889 0.010898 -0.007544 0.000000 0.000000 0.000000
# 3 -0.002303 -0.007544 0.023624 0.000000 0.000000 0.000000
# 4 0.000000 0.000000 0.000000 0.030359 0.000000 0.000000
# 5 0.000000 0.000000 0.000000 0.000000 0.060745 0.000000
# 6 0.000000 0.000000 0.000000 0.000000 0.000000 0.038629
#
#
# Mechanical properties :
#
#
# Convention : Reuss Voigt Hill
#
# Bulk Modulus (GPa) = 31.09073 38.38538 34.73805
# Shear Modulus (GPa) = 23.19528 26.47157 24.83343
#
# Velocity S-wave (km/s) = 3.34861 3.57729 3.46484
# Velocity P-wave (km/s) = 5.47549 5.96818 5.72713
#
# Compressibility (1/GPa) = 0.03216393
#
# Stress axis : x y z
#
# Youngs Moduli (GPa) = 52.31995 91.76127 42.32991
#
# Poissons Ratio (x) = 0.08159 0.09747
# Poissons Ratio (y) = 0.04652 0.31933
# Poissons Ratio (z) = 0.12047 0.69223
#
# Static dielectric constant tensor:
#      x y z
#    x 3.615450 0.000000 0.000000 
#    y 0.000000 3.965570 0.000000 
#    z 0.000000 0.000000 3.934030 
# 
# 
# High freq. dielectric constant tensor:
#      x y z
#    x 1.801020 0.000000 0.000000 
#    y 0.000000 1.803480 0.000000 
#    z 0.000000 0.000000 1.816750 
# 
# From -- ./inp_files/27559.got.cif
#   From: 2010.03.12/outbox.cif.g09.slc.cpg/sg67_14_cif.got.tgz:27559.got - 2010.04.10 22:41:39.
