data_PCOD8281336
_publ_section_title
;
Structure prediction by ZEFSAII (Michael W. Deem and Ramdas Pophale) SiO2 
 PCOD8281336
Probable space group: C M M A
;
_chemical_formula_sum "Si O2"
_cell_formula_units_Z 104
_cell_length_a 8.739444
_cell_length_b 30.096075
_cell_length_c 20.041682
_cell_angle_alpha 90.000000
_cell_angle_beta 90.000000
_cell_angle_gamma 90.000000
_cell_volume 5271.422565
_symmetry_space_group_name_H-M "C M M A"
_symmetry_group_IT_number 67
_symmetry_cell_setting 'orthorhombic'
loop_
_space_group_symop_operation_xyz
x,y,z
-x,1/2-y,z
x,-y,-z
-x,1/2+y,-z
-x,-y,-z
x,1/2+y,-z
-x,y,z
x,1/2-y,z
1/2+x,1/2+y,z
1/2-x,-y,z
1/2+x,1/2-y,-z
1/2-x,y,-z
1/2-x,1/2-y,-z
1/2+x,y,-z
1/2-x,1/2+y,z
1/2+x,-y,z
loop_
_atom_site_type_symbol
_atom_site_label
_atom_site_fract_x
_atom_site_fract_y
_atom_site_fract_z
Si Si1 0.171236 0.250000 0.068650
Si Si2 0.328577 0.670342 0.870520
Si Si3 0.672395 0.700507 0.722835
Si Si4 0.683412 0.891686 0.683598
Si Si5 0.182275 0.047106 0.428589
Si Si6 0.176849 0.954020 0.790210
Si Si7 0.677291 0.915888 0.069779
O O1 0.209655 0.292661 0.110406
O O2 0.000000 0.250000 0.048907
O O3 0.250000 0.250000 0.000000
O O4 0.500000 0.680125 0.896831
O O5 0.324720 0.672683 0.791279
O O6 0.272669 0.625660 0.904315
O O7 0.500000 0.711324 0.702897
O O8 0.756299 0.750000 0.721928
O O9 0.736568 0.660765 0.675729
O O10 0.500000 0.895818 0.679061
O O11 0.766782 0.915850 0.623291
O O12 0.737807 0.913322 0.753765
O O13 0.250000 0.060584 0.500000
O O14 0.000000 0.043897 0.432641
O O15 0.250000 0.000000 0.404930
O O16 0.193367 0.951693 0.870829
O O17 0.000000 0.952865 0.768636
O O18 0.250000 0.000000 0.765562
O O19 0.500000 0.903512 0.057789
O O20 0.750000 0.933533 0.000000
#
# Coordination Sequence:
#
# PCOD8281336 Si02
#       7
#     8  16  16  16  16  16  16
#     4  12  24  36  50  74 104 140 181 236 299 364
#     4  11  20  36  58  79 105 141 186 239 297 360
#     4   9  18  34  59  88 115 149 194 240 290 347
#     4  11  21  37  63  92 124 161 197 241 295 348
#     4  11  22  39  63  95 133 168 204 243 286 344
#     4  11  24  40  59  84 114 149 196 247 298 358
#     4  11  24  40  57  78 107 144 190 243 302 363
#
# _framework density 19.729019999999998
#
# number of rings (size 3 to 8) (size 9 to 14) (size 15 to 20)
#    0.000    1.231    2.308    5.308    0.000    2.154 
#    0.000    1.538    0.000    0.462    0.000    0.000 
#    0.000    0.000    0.000    0.000    0.000    0.000 
#
# Total GULP energy -644253.650092 kJ/mol
# GULP energy per Si atom -12389.493271 kJ/mol
# Density = 1.968412 g / cm^3
# Si number density = 19.729020 Si / 1000 Ang^3
#
#
#
# Elastic Constant Matrix: (Units=GPa)
#
#
# Indices 1 2 3 4 5 6 
#
# 1 132.7310 42.0753 35.9315 0.0000 0.0000 0.0000
# 2 42.0753 126.3591 41.3230 0.0000 0.0000 0.0000
# 3 35.9315 41.3230 87.4500 0.0000 0.0000 0.0000
# 4 0.0000 0.0000 0.0000 27.6796 0.0000 0.0000
# 5 0.0000 0.0000 0.0000 0.0000 27.9195 0.0000
# 6 0.0000 0.0000 0.0000 0.0000 0.0000 23.8196
#
#
#
# Elastic Compliance Matrix: (Units=1/GPa)
#
#
# Indices 1 2 3 4 5 6 
#
# 1 0.008923 -0.002096 -0.002676 0.000000 0.000000 0.000000
# 2 -0.002096 0.009853 -0.003795 0.000000 0.000000 0.000000
# 3 -0.002676 -0.003795 0.014328 0.000000 0.000000 0.000000
# 4 0.000000 0.000000 0.000000 0.036128 0.000000 0.000000
# 5 0.000000 0.000000 0.000000 0.000000 0.035817 0.000000
# 6 0.000000 0.000000 0.000000 0.000000 0.000000 0.041982
#
#
# Mechanical properties :
#
#
# Convention : Reuss Voigt Hill
#
# Bulk Modulus (GPa) = 62.61558 65.02219 63.81889
# Shear Modulus (GPa) = 29.50085 31.03110 30.26598
#
# Velocity S-wave (km/s) = 3.87111 3.97024 3.92099
# Velocity P-wave (km/s) = 7.19634 7.35162 7.27439
#
# Compressibility (1/GPa) = 0.01597047
#
# Stress axis : x y z
#
# Youngs Moduli (GPa) = 112.07195 101.49355 69.79559
#
# Poissons Ratio (x) = 0.21274 0.18675
# Poissons Ratio (y) = 0.23491 0.26484
# Poissons Ratio (z) = 0.29988 0.38512
#
# Static dielectric constant tensor:
#      x y z
#    x 3.615170 0.000000 0.000000 
#    y 0.000000 3.774030 0.000000 
#    z 0.000000 0.000000 3.597050 
# 
# 
# High freq. dielectric constant tensor:
#      x y z
#    x 1.769640 0.000000 0.000000 
#    y 0.000000 1.775220 0.000000 
#    z 0.000000 0.000000 1.754170 
# 
# From -- ./inp_files/37504.got.cif
#   From: 2010.03.12/outbox.cif.g09.slc.cpg/sg67_19_cif.got.tgz:37504.got - 2010.04.10 22:41:39.
