data_PCOD8281239
_publ_section_title
;
Structure prediction by ZEFSAII (Michael W. Deem and Ramdas Pophale) SiO2 
 PCOD8281239
Probable space group: C M M A
;
_chemical_formula_sum "Si O2"
_cell_formula_units_Z 96
_cell_length_a 19.212148
_cell_length_b 16.803803
_cell_length_c 13.931133
_cell_angle_alpha 90.000000
_cell_angle_beta 90.000000
_cell_angle_gamma 90.000000
_cell_volume 4497.487277
_symmetry_space_group_name_H-M "C M M A"
_symmetry_group_IT_number 67
_symmetry_cell_setting 'orthorhombic'
loop_
_space_group_symop_operation_xyz
x,y,z
-x,1/2-y,z
x,-y,-z
-x,1/2+y,-z
-x,-y,-z
x,1/2+y,-z
-x,y,z
x,1/2-y,z
1/2+x,1/2+y,z
1/2-x,-y,z
1/2+x,1/2-y,-z
1/2-x,y,-z
1/2-x,1/2-y,-z
1/2+x,y,-z
1/2-x,1/2+y,z
1/2+x,-y,z
loop_
_atom_site_type_symbol
_atom_site_label
_atom_site_fract_x
_atom_site_fract_y
_atom_site_fract_z
Si Si1 0.500000 0.840458 0.508529
Si Si2 0.805761 0.659788 0.075528
Si Si3 0.241146 0.157047 0.705633
Si Si4 0.423224 0.045115 0.095475
Si Si5 0.000000 0.662225 0.718712
Si Si6 0.624091 0.556581 0.258504
Si Si7 0.131041 0.438972 0.580978
O O1 0.500000 0.750000 0.548613
O O2 0.500000 0.840481 0.395008
O O3 0.569638 0.884044 0.541774
O O4 0.813884 0.750000 0.043726
O O5 0.784739 0.650931 0.186154
O O6 0.882731 0.624531 0.065747
O O7 0.750000 0.620542 0.000000
O O8 0.255962 0.250000 0.678326
O O9 0.308359 0.101235 0.702104
O O10 0.189495 0.119072 0.626588
O O11 0.500000 0.062721 0.143694
O O12 0.369262 0.994497 0.161319
O O13 0.440004 0.000000 0.000000
O O14 0.932933 0.622090 0.763635
O O15 0.000000 0.750000 0.759868
O O16 0.597808 0.494301 0.337690
O O17 0.161063 0.500000 0.500000
#
# Coordination Sequence:
#
# PCOD8281239 Si02
#       7
#     8  16  16  16   8  16  16
#     4  11  24  44  66  94 131 175 222 277 340 405
#     4  10  22  42  68  97 135 178 223 275 339 407
#     4  11  25  43  64  98 134 175 224 277 341 404
#     4  11  24  41  66  99 134 171 224 280 330 399
#     4  11  23  43  66  93 128 177 225 275 339 405
#     4  12  23  42  68  93 132 173 222 275 331 405
#     4  12  24  42  67  98 131 173 223 279 337 400
#
# _framework density 21.345251999999999
#
# number of rings (size 3 to 8) (size 9 to 14) (size 15 to 20)
#    0.000    0.833    4.167    3.250    0.000    3.333 
#    0.000    1.667    0.000    0.000    0.000    0.000 
#    0.000    0.000    0.000    0.000    0.000    0.000 
#
# Total GULP energy -594877.824008 kJ/mol
# GULP energy per Si atom -12393.288000 kJ/mol
# Density = 2.129667 g / cm^3
# Si number density = 21.345252 Si / 1000 Ang^3
#
#
#
# Elastic Constant Matrix: (Units=GPa)
#
#
# Indices 1 2 3 4 5 6 
#
# 1 123.5644 60.2052 19.7755 0.0000 0.0000 0.0000
# 2 60.2052 129.2160 34.1999 0.0000 0.0000 0.0000
# 3 19.7755 34.1999 88.2011 0.0000 0.0000 0.0000
# 4 0.0000 0.0000 0.0000 33.6531 0.0000 0.0000
# 5 0.0000 0.0000 0.0000 0.0000 35.4786 0.0000
# 6 0.0000 0.0000 0.0000 0.0000 0.0000 115.2568
#
#
#
# Elastic Compliance Matrix: (Units=1/GPa)
#
#
# Indices 1 2 3 4 5 6 
#
# 1 0.010490 -0.004753 -0.000509 0.000000 0.000000 0.000000
# 2 -0.004753 0.010778 -0.003113 0.000000 0.000000 0.000000
# 3 -0.000509 -0.003113 0.012659 0.000000 0.000000 0.000000
# 4 0.000000 0.000000 0.000000 0.029715 0.000000 0.000000
# 5 0.000000 0.000000 0.000000 0.000000 0.028186 0.000000
# 6 0.000000 0.000000 0.000000 0.000000 0.000000 0.008676
#
#
# Mechanical properties :
#
#
# Convention : Reuss Voigt Hill
#
# Bulk Modulus (GPa) = 58.22025 63.26029 60.74027
# Shear Modulus (GPa) = 40.65700 51.99775 46.32738
#
# Velocity S-wave (km/s) = 4.36906 4.94097 4.66379
# Velocity P-wave (km/s) = 7.26542 7.88999 7.58414
#
# Compressibility (1/GPa) = 0.01717615
#
# Stress axis : x y z
#
# Youngs Moduli (GPa) = 95.32676 92.78576 78.99494
#
# Poissons Ratio (x) = 0.44101 0.04021
# Poissons Ratio (y) = 0.45308 0.24594
# Poissons Ratio (z) = 0.04853 0.28887
#
# Static dielectric constant tensor:
#      x y z
#    x 8.361230 0.000000 0.000000 
#    y 0.000000 4.215700 0.000000 
#    z 0.000000 0.000000 3.995300 
# 
# 
# High freq. dielectric constant tensor:
#      x y z
#    x 1.838310 0.000000 0.000000 
#    y 0.000000 1.849540 0.000000 
#    z 0.000000 0.000000 1.842820 
# 
# From -- ./inp_files/29355.got.cif
#   From: 2010.03.12/outbox.cif.g09.slc.cpg/sg67_15_cif.got.tgz:29355.got - 2010.04.10 22:41:39.
