data_PCOD8281785
_publ_section_title
;
Structure prediction by ZEFSAII (Michael W. Deem and Ramdas Pophale) SiO2 
 PCOD8281785
Probable space group: C C C A
;
_chemical_formula_sum "Si O2"
_cell_formula_units_Z 112
_cell_length_a 14.180743
_cell_length_b 16.166197
_cell_length_c 24.461487
_cell_angle_alpha 90.000000
_cell_angle_beta 90.000000
_cell_angle_gamma 90.000000
_cell_volume 5607.763727
_symmetry_space_group_name_H-M "C C C A"
_symmetry_group_IT_number 68
_space_group.IT_coordinate_system_code '2'
_symmetry_cell_setting 'orthorhombic'
loop_
_space_group_symop_operation_xyz
x,y,z
-x,1/2-y,z
x,1/2-y,1/2-z
-x,y,1/2-z
-x,-y,-z
x,1/2+y,-z
-x,1/2+y,1/2+z
x,-y,1/2+z
1/2+x,1/2+y,z
1/2-x,-y,z
1/2+x,-y,1/2-z
1/2-x,1/2+y,1/2-z
1/2-x,1/2-y,-z
1/2+x,y,-z
1/2-x,y,1/2+z
1/2+x,1/2-y,1/2+z
loop_
_atom_site_type_symbol
_atom_site_label
_atom_site_fract_x
_atom_site_fract_y
_atom_site_fract_z
Si Si1 0.090080 0.871622 0.582399
Si Si2 0.302562 0.688648 0.916217
Si Si3 0.922884 0.141386 0.294084
Si Si4 0.575835 0.048923 0.292003
Si Si5 0.424857 0.812925 0.967696
Si Si6 0.785547 0.188372 0.794242
Si Si7 0.459090 0.559152 0.915138
O O1 0.201681 0.855498 0.580763
O O2 0.045231 0.847593 0.641804
O O3 0.053053 0.816035 0.532585
O O4 0.063605 0.965736 0.566796
O O5 0.321918 0.772077 0.953065
O O6 0.316785 0.719260 0.854007
O O7 0.373112 0.616444 0.935236
O O8 0.826696 0.190448 0.285819
O O9 0.000000 0.174912 0.250000
O O10 0.901399 0.046353 0.281183
O O11 0.500000 0.084524 0.250000
O O12 0.674461 0.096333 0.285171
O O13 0.528927 0.062649 0.350491
O O14 0.500000 0.750000 0.940692
O O15 0.443414 0.904088 0.941268
O O16 0.830904 0.250000 0.750000
#
# Coordination Sequence:
#
# PCOD8281785 Si02
#       7
#    16  16  16  16  16  16  16
#     4  10  18  34  56  76  97 142 187 214 261 328
#     4   9  19  34  51  76 107 137 173 219 273 320
#     4   9  19  37  54  75 102 143 185 221 256 309
#     4   9  18  32  55  78 105 138 174 217 271 321
#     4  10  20  33  50  77 110 137 169 225 279 314
#     4  10  20  32  51  82 108 138 173 217 267 327
#     4   9  18  32  54  77 102 133 179 224 260 323
#
# _framework density 19.97231
#
# number of rings (size 3 to 8) (size 9 to 14) (size 15 to 20)
#    0.000    2.571    0.000    1.714    2.000    4.000 
#    5.143    0.000    0.000    0.000    0.000    0.000 
#    0.000    0.000    0.000    0.000    0.000    0.000 
#
# Total GULP energy -693777.069661 kJ/mol
# GULP energy per Si atom -12388.876244 kJ/mol
# Density = 1.992685 g / cm^3
# Si number density = 19.972310 Si / 1000 Ang^3
#
#
#
# Elastic Constant Matrix: (Units=GPa)
#
#
# Indices 1 2 3 4 5 6 
#
# 1 52.8574 25.6573 22.7215 0.0000 0.0000 0.0000
# 2 25.6573 87.5408 45.4913 0.0000 0.0000 0.0000
# 3 22.7215 45.4913 99.9761 0.0000 0.0000 0.0000
# 4 0.0000 0.0000 0.0000 31.0061 0.0000 0.0000
# 5 0.0000 0.0000 0.0000 0.0000 27.2334 0.0000
# 6 0.0000 0.0000 0.0000 0.0000 0.0000 21.8278
#
#
#
# Elastic Compliance Matrix: (Units=1/GPa)
#
#
# Indices 1 2 3 4 5 6 
#
# 1 0.022633 -0.005187 -0.002784 0.000000 0.000000 0.000000
# 2 -0.005187 0.016150 -0.006170 0.000000 0.000000 0.000000
# 3 -0.002784 -0.006170 0.013442 0.000000 0.000000 0.000000
# 4 0.000000 0.000000 0.000000 0.032252 0.000000 0.000000
# 5 0.000000 0.000000 0.000000 0.000000 0.036720 0.000000
# 6 0.000000 0.000000 0.000000 0.000000 0.000000 0.045813
#
#
# Mechanical properties :
#
#
# Convention : Reuss Voigt Hill
#
# Bulk Modulus (GPa) = 41.76291 47.56826 44.66558
# Shear Modulus (GPa) = 24.59764 25.78041 25.18902
#
# Velocity S-wave (km/s) = 3.51320 3.59668 3.55519
# Velocity P-wave (km/s) = 6.11658 6.41225 6.26616
#
# Compressibility (1/GPa) = 0.02394469
#
# Stress axis : x y z
#
# Youngs Moduli (GPa) = 44.18284 61.92117 74.39206
#
# Poissons Ratio (x) = 0.32119 0.20708
# Poissons Ratio (y) = 0.22918 0.45897
# Poissons Ratio (z) = 0.12299 0.38203
#
# Static dielectric constant tensor:
#      x y z
#    x 3.501210 0.000000 0.000000 
#    y 0.000000 3.632750 0.000000 
#    z 0.000000 0.000000 3.807990 
# 
# 
# High freq. dielectric constant tensor:
#      x y z
#    x 1.754790 0.000000 0.000000 
#    y 0.000000 1.777830 0.000000 
#    z 0.000000 0.000000 1.785100 
# 
# From -- ./inp_files/50972.got.cif
#   From: 2010.03.12/outbox.cif.g09.slc.cpg/sg68_26_cif.got.tgz:50972.got - 2010.04.10 23:14:56.
