data_PCOD8281295
_publ_section_title
;
Structure prediction by ZEFSAII (Michael W. Deem and Ramdas Pophale) SiO2 
 PCOD8281295
Probable space group: C M M A
;
_chemical_formula_sum "Si O2"
_cell_formula_units_Z 56
_cell_length_a 24.042307
_cell_length_b 21.304679
_cell_length_c 5.059432
_cell_angle_alpha 90.000000
_cell_angle_beta 90.000000
_cell_angle_gamma 90.000000
_cell_volume 2591.510046
_symmetry_space_group_name_H-M "C M M A"
_symmetry_group_IT_number 67
_symmetry_cell_setting 'orthorhombic'
loop_
_space_group_symop_operation_xyz
x,y,z
-x,1/2-y,z
x,-y,-z
-x,1/2+y,-z
-x,-y,-z
x,1/2+y,-z
-x,y,z
x,1/2-y,z
1/2+x,1/2+y,z
1/2-x,-y,z
1/2+x,1/2-y,-z
1/2-x,y,-z
1/2-x,1/2-y,-z
1/2+x,y,-z
1/2-x,1/2+y,z
1/2+x,-y,z
loop_
_atom_site_type_symbol
_atom_site_label
_atom_site_fract_x
_atom_site_fract_y
_atom_site_fract_z
Si Si1 0.787685 0.399431 0.250291
Si Si2 0.936255 0.390224 0.658768
Si Si3 0.637234 0.000000 0.500000
Si Si4 0.892573 0.176730 0.160806
O O1 0.750000 0.381901 0.500000
O O2 0.824046 0.461464 0.300338
O O3 0.827762 0.340467 0.195767
O O4 0.750000 0.413843 0.000000
O O5 0.901008 0.454356 0.677091
O O6 0.930653 0.359910 0.370049
O O7 0.000000 0.406688 0.716638
O O8 0.912753 0.341111 0.869319
O O9 0.900505 0.250000 0.203822
#
# Coordination Sequence:
#
# PCOD8281295 Si02
#       4
#    16  16   8  16
#     4  11  24  41  64  91 124 165 205 254 312 366
#     4  11  24  42  66  93 125 165 204 255 314 365
#     4  10  24  42  64  94 128 158 208 258 306 374
#     4  11  25  43  63  93 127 162 211 257 301 368
#
# _framework density 21.609024000000002
#
# number of rings (size 3 to 8) (size 9 to 14) (size 15 to 20)
#    0.000    1.143    0.000    6.000    0.000   18.286 
#    0.000    7.143    0.000    0.000    0.000    0.000 
#    0.000    0.000    0.000    0.000    0.000    0.000 
#
# Total GULP energy -347417.084137 kJ/mol
# GULP energy per Si atom -12407.753005 kJ/mol
# Density = 2.155984 g / cm^3
# Si number density = 21.609024 Si / 1000 Ang^3
#
#
#
# Elastic Constant Matrix: (Units=GPa)
#
#
# Indices 1 2 3 4 5 6 
#
# 1 154.5903 24.7847 43.3611 0.0000 0.0000 0.0000
# 2 24.7847 71.2556 11.5777 0.0000 0.0000 0.0000
# 3 43.3611 11.5777 103.4522 0.0000 0.0000 0.0000
# 4 0.0000 0.0000 0.0000 33.7133 0.0000 0.0000
# 5 0.0000 0.0000 0.0000 0.0000 37.1678 0.0000
# 6 0.0000 0.0000 0.0000 0.0000 0.0000 12.0273
#
#
#
# Elastic Compliance Matrix: (Units=1/GPa)
#
#
# Indices 1 2 3 4 5 6 
#
# 1 0.007649 -0.002179 -0.002962 0.000000 0.000000 0.000000
# 2 -0.002179 0.014915 -0.000756 0.000000 0.000000 0.000000
# 3 -0.002962 -0.000756 0.010992 0.000000 0.000000 0.000000
# 4 0.000000 0.000000 0.000000 0.029662 0.000000 0.000000
# 5 0.000000 0.000000 0.000000 0.000000 0.026905 0.000000
# 6 0.000000 0.000000 0.000000 0.000000 0.000000 0.083144
#
#
# Mechanical properties :
#
#
# Convention : Reuss Voigt Hill
#
# Bulk Modulus (GPa) = 45.95177 54.30501 50.12839
# Shear Modulus (GPa) = 25.99894 33.21998 29.60946
#
# Velocity S-wave (km/s) = 3.47241 3.92512 3.70569
# Velocity P-wave (km/s) = 6.11458 6.76220 6.44653
#
# Compressibility (1/GPa) = 0.02176195
#
# Stress axis : x y z
#
# Youngs Moduli (GPa) = 130.73707 67.04763 90.97179
#
# Poissons Ratio (x) = 0.14611 0.26947
# Poissons Ratio (y) = 0.28491 0.06875
# Poissons Ratio (z) = 0.38726 0.05067
#
# Static dielectric constant tensor:
#      x y z
#    x 4.182880 0.000000 0.000000 
#    y 0.000000 3.843080 0.000000 
#    z 0.000000 0.000000 3.841330 
# 
# 
# High freq. dielectric constant tensor:
#      x y z
#    x 1.865270 0.000000 0.000000 
#    y 0.000000 1.843270 0.000000 
#    z 0.000000 0.000000 1.859480 
# 
# From -- ./inp_files/4005.got.cif
#   From: 2010.03.12/outbox.cif.g09.slc.cpg/sg67_3_cif.got.tgz:4005.got - 2010.04.10 22:41:39.
