data_PCOD8281346
_publ_section_title
;
Structure prediction by ZEFSAII (Michael W. Deem and Ramdas Pophale) SiO2 
 PCOD8281346
Probable space group: C M M A
;
_chemical_formula_sum "Si O2"
_cell_formula_units_Z 88
_cell_length_a 19.861882
_cell_length_b 9.691246
_cell_length_c 23.487215
_cell_angle_alpha 90.000000
_cell_angle_beta 90.000000
_cell_angle_gamma 90.000000
_cell_volume 4520.969097
_symmetry_space_group_name_H-M "C M M A"
_symmetry_group_IT_number 67
_symmetry_cell_setting 'orthorhombic'
loop_
_space_group_symop_operation_xyz
x,y,z
-x,1/2-y,z
x,-y,-z
-x,1/2+y,-z
-x,-y,-z
x,1/2+y,-z
-x,y,z
x,1/2-y,z
1/2+x,1/2+y,z
1/2-x,-y,z
1/2+x,1/2-y,-z
1/2-x,y,-z
1/2-x,1/2-y,-z
1/2+x,y,-z
1/2-x,1/2+y,z
1/2+x,-y,z
loop_
_atom_site_type_symbol
_atom_site_label
_atom_site_fract_x
_atom_site_fract_y
_atom_site_fract_z
Si Si1 0.500000 0.601306 0.554073
Si Si2 0.371768 0.025315 0.379628
Si Si3 0.079373 0.406788 0.051007
Si Si4 0.318685 0.412551 0.259603
Si Si5 0.077298 0.407735 0.841818
Si Si6 0.347740 0.250000 0.558138
Si Si7 0.193586 0.750000 0.442694
O O1 0.500000 0.750000 0.524517
O O2 0.500000 0.500000 0.500000
O O3 0.559896 0.591855 0.599322
O O4 0.361697 0.026747 0.312074
O O5 0.310580 0.112692 0.405144
O O6 0.372797 0.874180 0.404755
O O7 0.109482 0.250000 0.051014
O O8 0.097414 0.484767 0.109227
O O9 0.000000 0.396414 0.042768
O O10 0.110291 0.500000 0.000000
O O11 0.301242 0.250000 0.267864
O O12 0.250000 0.500000 0.251220
O O13 0.368994 0.435338 0.207410
O O14 0.083517 0.250000 0.864314
O O15 0.000000 0.433721 0.821121
O O16 0.270542 0.250000 0.539972
O O17 0.368237 0.250000 0.490785
#
# Coordination Sequence:
#
# PCOD8281346 Si02
#       7
#     8  16  16  16  16   8   8
#     4  12  26  44  66  88 120 154 191 238 301 376
#     4  12  25  40  63  86 117 152 195 242 299 360
#     4   9  16  28  51  86 126 165 203 244 294 346
#     4  11  24  42  64  87 117 159 204 249 300 360
#     4   9  19  36  60  87 121 158 203 251 296 350
#     4  11  24  37  63  87 117 144 188 245 298 360
#     4  11  20  41  61  89 113 148 188 239 300 360
#
# _framework density 19.464853999999999
#
# number of rings (size 3 to 8) (size 9 to 14) (size 15 to 20)
#    0.000    1.455    1.818    3.818    3.818    4.364 
#    0.000    0.000    0.000    0.545    0.000    3.818 
#    0.000    0.000    0.000    0.000    0.000    0.000 
#
# Total GULP energy -545142.519227 kJ/mol
# GULP energy per Si atom -12389.602710 kJ/mol
# Density = 1.942055 g / cm^3
# Si number density = 19.464854 Si / 1000 Ang^3
#
#
#
# Elastic Constant Matrix: (Units=GPa)
#
#
# Indices 1 2 3 4 5 6 
#
# 1 72.2238 23.5417 36.9633 0.0000 0.0000 0.0000
# 2 23.5417 144.1874 63.1934 0.0000 0.0000 0.0000
# 3 36.9633 63.1934 130.1952 0.0000 0.0000 0.0000
# 4 0.0000 0.0000 0.0000 40.7123 0.0000 0.0000
# 5 0.0000 0.0000 0.0000 0.0000 15.0411 0.0000
# 6 0.0000 0.0000 0.0000 0.0000 0.0000 20.0812
#
#
#
# Elastic Compliance Matrix: (Units=1/GPa)
#
#
# Indices 1 2 3 4 5 6 
#
# 1 0.016273 -0.000803 -0.004230 0.000000 0.000000 0.000000
# 2 -0.000803 0.008849 -0.004067 0.000000 0.000000 0.000000
# 3 -0.004230 -0.004067 0.010856 0.000000 0.000000 0.000000
# 4 0.000000 0.000000 0.000000 0.024563 0.000000 0.000000
# 5 0.000000 0.000000 0.000000 0.000000 0.066485 0.000000
# 6 0.000000 0.000000 0.000000 0.000000 0.000000 0.049798
#
#
# Mechanical properties :
#
#
# Convention : Reuss Voigt Hill
#
# Bulk Modulus (GPa) = 56.25253 66.00035 61.12644
# Shear Modulus (GPa) = 24.88200 30.02744 27.45472
#
# Velocity S-wave (km/s) = 3.57922 3.93192 3.75971
# Velocity P-wave (km/s) = 6.78552 7.38880 7.09358
#
# Compressibility (1/GPa) = 0.01777698
#
# Stress axis : x y z
#
# Youngs Moduli (GPa) = 61.45334 113.00687 92.11637
#
# Poissons Ratio (x) = 0.09073 0.38967
# Poissons Ratio (y) = 0.04934 0.37465
# Poissons Ratio (z) = 0.25996 0.45962
#
# Static dielectric constant tensor:
#      x y z
#    x 3.406920 0.000000 0.000000 
#    y 0.000000 3.741120 0.000000 
#    z 0.000000 0.000000 3.533480 
# 
# 
# High freq. dielectric constant tensor:
#      x y z
#    x 1.740090 0.000000 0.000000 
#    y 0.000000 1.773570 0.000000 
#    z 0.000000 0.000000 1.757760 
# 
# From -- ./inp_files/42425.got.cif
#   From: 2010.03.12/outbox.cif.g09.slc.cpg/sg67_22_cif.got.tgz:42425.got - 2010.04.10 22:41:39.
