data_PCOD8281168
_publ_section_title
;
Structure prediction by ZEFSAII (Michael W. Deem and Ramdas Pophale) SiO2 
 PCOD8281168
Probable space group: C M M A
;
_chemical_formula_sum "Si O2"
_cell_formula_units_Z 80
_cell_length_a 25.611193
_cell_length_b 16.496235
_cell_length_c 9.007679
_cell_angle_alpha 90.000000
_cell_angle_beta 90.000000
_cell_angle_gamma 90.000000
_cell_volume 3805.638613
_symmetry_space_group_name_H-M "C M M A"
_symmetry_group_IT_number 67
_symmetry_cell_setting 'orthorhombic'
loop_
_space_group_symop_operation_xyz
x,y,z
-x,1/2-y,z
x,-y,-z
-x,1/2+y,-z
-x,-y,-z
x,1/2+y,-z
-x,y,z
x,1/2-y,z
1/2+x,1/2+y,z
1/2-x,-y,z
1/2+x,1/2-y,-z
1/2-x,y,-z
1/2-x,1/2-y,-z
1/2+x,y,-z
1/2-x,1/2+y,z
1/2+x,-y,z
loop_
_atom_site_type_symbol
_atom_site_label
_atom_site_fract_x
_atom_site_fract_y
_atom_site_fract_z
Si Si1 0.857844 0.654651 0.195415
Si Si2 0.654727 0.345734 0.859446
Si Si3 0.059358 0.078935 0.596105
Si Si4 0.556229 0.842465 0.304152
Si Si5 0.752312 0.904947 0.327758
O O1 0.872713 0.750000 0.201584
O O2 0.903902 0.599071 0.263967
O O3 0.805435 0.637822 0.282917
O O4 0.846109 0.624286 0.028562
O O5 0.650892 0.250000 0.852926
O O6 0.603715 0.385965 0.781615
O O7 0.706042 0.369429 0.770616
O O8 0.064707 0.153353 0.481316
O O9 0.000000 0.068494 0.654601
O O10 0.077021 0.000000 0.500000
O O11 0.500000 0.884151 0.263970
O O12 0.553874 0.750000 0.255005
O O13 0.750000 0.883001 0.500000
O O14 0.750000 0.000000 0.299696
#
# Coordination Sequence:
#
# PCOD8281168 Si02
#       5
#    16  16  16  16  16
#     4  11  24  40  63  92 124 164 208 258 316 378
#     4  10  22  40  61  90 127 163 205 257 313 377
#     4  10  22  39  61  91 126 163 207 258 310 370
#     4   9  18  35  60  86 115 157 203 246 298 362
#     4  11  25  41  62  90 122 164 211 259 314 376
#
# _framework density 21.021439000000001
#
# number of rings (size 3 to 8) (size 9 to 14) (size 15 to 20)
#    0.000    1.800    0.000    3.000    5.600    8.400 
#    0.000    2.000    0.000    3.600    0.000    0.000 
#    0.000    0.000    0.000    0.000    0.000    0.000 
#
# Total GULP energy -495742.733023 kJ/mol
# GULP energy per Si atom -12393.568326 kJ/mol
# Density = 2.097359 g / cm^3
# Si number density = 21.021439 Si / 1000 Ang^3
#
#
#
# Elastic Constant Matrix: (Units=GPa)
#
#
# Indices 1 2 3 4 5 6 
#
# 1 152.5576 31.0050 71.3149 0.0000 0.0000 0.0000
# 2 31.0050 53.2823 34.2119 0.0000 0.0000 0.0000
# 3 71.3149 34.2119 132.1166 0.0000 0.0000 0.0000
# 4 0.0000 0.0000 0.0000 9.5302 0.0000 0.0000
# 5 0.0000 0.0000 0.0000 0.0000 5.6817 0.0000
# 6 0.0000 0.0000 0.0000 0.0000 0.0000 22.7088
#
#
#
# Elastic Compliance Matrix: (Units=1/GPa)
#
#
# Indices 1 2 3 4 5 6 
#
# 1 0.009048 -0.002554 -0.004223 0.000000 0.000000 0.000000
# 2 -0.002554 0.023232 -0.004637 0.000000 0.000000 0.000000
# 3 -0.004223 -0.004637 0.011049 0.000000 0.000000 0.000000
# 4 0.000000 0.000000 0.000000 0.104929 0.000000 0.000000
# 5 0.000000 0.000000 0.000000 0.000000 0.176003 0.000000
# 6 0.000000 0.000000 0.000000 0.000000 0.000000 0.044036
#
#
# Mechanical properties :
#
#
# Convention : Reuss Voigt Hill
#
# Bulk Modulus (GPa) = 48.77752 67.89110 58.33431
# Shear Modulus (GPa) = 12.56412 21.01246 16.78829
#
# Velocity S-wave (km/s) = 2.44740 3.16503 2.82907
# Velocity P-wave (km/s) = 5.58932 6.76186 6.20336
#
# Compressibility (1/GPa) = 0.02050125
#
# Stress axis : x y z
#
# Youngs Moduli (GPa) = 110.52404 43.04486 90.50375
#
# Poissons Ratio (x) = 0.10992 0.38216
# Poissons Ratio (y) = 0.28224 0.41971
# Poissons Ratio (z) = 0.46670 0.19962
#
# Static dielectric constant tensor:
#      x y z
#    x 4.214480 0.000000 0.000000 
#    y 0.000000 3.751300 0.000000 
#    z 0.000000 0.000000 3.967570 
# 
# 
# High freq. dielectric constant tensor:
#      x y z
#    x 1.840560 0.000000 0.000000 
#    y 0.000000 1.817150 0.000000 
#    z 0.000000 0.000000 1.821430 
# 
# From -- ./inp_files/13539.got.cif
#   From: 2010.03.12/outbox.cif.g09.slc.cpg/sg67_7_cif.got.tgz:13539.got - 2010.04.10 22:41:39.
