data_PCOD8281849
_publ_section_title
;
Structure prediction by ZEFSAII (Michael W. Deem and Ramdas Pophale) SiO2 
 PCOD8281849
Probable space group: C C C A
;
_chemical_formula_sum "Si O2"
_cell_formula_units_Z 72
_cell_length_a 5.232985
_cell_length_b 23.495883
_cell_length_c 30.308010
_cell_angle_alpha 90.000000
_cell_angle_beta 90.000000
_cell_angle_gamma 90.000000
_cell_volume 3726.479038
_symmetry_space_group_name_H-M "C C C A"
_symmetry_group_IT_number 68
_space_group.IT_coordinate_system_code '2'
_symmetry_cell_setting 'orthorhombic'
loop_
_space_group_symop_operation_xyz
x,y,z
-x,1/2-y,z
x,1/2-y,1/2-z
-x,y,1/2-z
-x,-y,-z
x,1/2+y,-z
-x,1/2+y,1/2+z
x,-y,1/2+z
1/2+x,1/2+y,z
1/2-x,-y,z
1/2+x,-y,1/2-z
1/2-x,1/2+y,1/2-z
1/2-x,1/2-y,-z
1/2+x,y,-z
1/2-x,y,1/2+z
1/2+x,1/2-y,1/2+z
loop_
_atom_site_type_symbol
_atom_site_label
_atom_site_fract_x
_atom_site_fract_y
_atom_site_fract_z
Si Si1 0.706948 0.397452 0.664643
Si Si2 0.938033 0.563372 0.482269
Si Si3 0.281678 0.564953 0.618644
Si Si4 0.250000 0.000000 0.724656
Si Si5 0.247939 0.774544 0.700056
O O1 0.472121 0.397644 0.629464
O O2 0.637926 0.448628 0.696617
O O3 0.729471 0.342238 0.695782
O O4 0.976804 0.405841 0.641245
O O5 0.714386 0.594011 0.511751
O O6 0.835216 0.564048 0.433026
O O7 0.000000 0.500000 0.500000
O O8 0.250000 0.500000 0.635531
O O9 0.500000 0.976948 0.750000
O O10 0.500000 0.750000 0.675928
O O11 0.248841 0.750000 0.750000
O O12 0.000000 0.750000 0.675060
#
# Coordination Sequence:
#
# PCOD8281849 Si02
#       5
#    16  16  16   8  16
#     4  12  25  40  58  87 120 160 203 252 317 359
#     4  10  19  30  53  83 123 176 199 217 264 360
#     4  12  21  37  56  88 133 168 186 236 297 367
#     4  12  26  36  56  80 120 154 196 240 302 394
#     4  10  23  42  64  82 105 149 213 274 306 347
#
# _framework density 19.321189
#
# number of rings (size 3 to 8) (size 9 to 14) (size 15 to 20)
#    0.000    0.889    4.444    4.000    9.333    0.000 
#    0.000    0.000    0.000    0.000    0.000    0.000 
#    0.000   62.222    0.000    0.000    0.000    0.000 
#
# Total GULP energy -445975.068658 kJ/mol
# GULP energy per Si atom -12388.196352 kJ/mol
# Density = 1.927721 g / cm^3
# Si number density = 19.321189 Si / 1000 Ang^3
#
#
#
# Elastic Constant Matrix: (Units=GPa)
#
#
# Indices 1 2 3 4 5 6 
#
# 1 209.1248 41.3479 45.8761 0.0000 0.0000 0.0000
# 2 41.3479 109.9523 43.7896 0.0000 0.0000 0.0000
# 3 45.8761 43.7896 93.1021 0.0000 0.0000 0.0000
# 4 0.0000 0.0000 0.0000 15.1384 0.0000 0.0000
# 5 0.0000 0.0000 0.0000 0.0000 32.2333 0.0000
# 6 0.0000 0.0000 0.0000 0.0000 0.0000 24.7629
#
#
#
# Elastic Compliance Matrix: (Units=1/GPa)
#
#
# Indices 1 2 3 4 5 6 
#
# 1 0.005490 -0.001215 -0.002134 0.000000 0.000000 0.000000
# 2 -0.001215 0.011460 -0.004791 0.000000 0.000000 0.000000
# 3 -0.002134 -0.004791 0.014046 0.000000 0.000000 0.000000
# 4 0.000000 0.000000 0.000000 0.066057 0.000000 0.000000
# 5 0.000000 0.000000 0.000000 0.000000 0.031024 0.000000
# 6 0.000000 0.000000 0.000000 0.000000 0.000000 0.040383
#
#
# Mechanical properties :
#
#
# Convention : Reuss Voigt Hill
#
# Bulk Modulus (GPa) = 67.95433 74.91184 71.43308
# Shear Modulus (GPa) = 26.36498 33.17131 29.76815
#
# Velocity S-wave (km/s) = 3.69801 4.14797 3.92943
# Velocity P-wave (km/s) = 7.31306 7.86110 7.59203
#
# Compressibility (1/GPa) = 0.01471577
#
# Stress axis : x y z
#
# Youngs Moduli (GPa) = 182.14501 87.26076 71.19456
#
# Poissons Ratio (x) = 0.10600 0.15192
# Poissons Ratio (y) = 0.22126 0.34113
# Poissons Ratio (z) = 0.38869 0.41811
#
# Static dielectric constant tensor:
#      x y z
#    x -1.755420 0.000000 0.000000 
#    y 0.000000 3.218390 0.000000 
#    z 0.000000 0.000000 3.455040 
# 
# 
# High freq. dielectric constant tensor:
#      x y z
#    x 1.802550 0.000000 0.000000 
#    y 0.000000 1.698870 0.000000 
#    z 0.000000 0.000000 1.731630 
# 
# From -- ./inp_files/48299.got.cif
#   From: 2010.03.12/outbox.cif.g09.slc.cpg/sg68_25_cif.got.tgz:48299.got - 2010.04.10 23:14:56.
