data_PCOD8281690
_publ_section_title
;
Structure prediction by ZEFSAII (Michael W. Deem and Ramdas Pophale) SiO2 
 PCOD8281690
Probable space group: C C C A
;
_chemical_formula_sum "Si O2"
_cell_formula_units_Z 96
_cell_length_a 18.132516
_cell_length_b 22.618118
_cell_length_c 12.786035
_cell_angle_alpha 90.000000
_cell_angle_beta 90.000000
_cell_angle_gamma 90.000000
_cell_volume 5243.851974
_symmetry_space_group_name_H-M "C C C A"
_symmetry_group_IT_number 68
_space_group.IT_coordinate_system_code '2'
_symmetry_cell_setting 'orthorhombic'
loop_
_space_group_symop_operation_xyz
x,y,z
-x,1/2-y,z
x,1/2-y,1/2-z
-x,y,1/2-z
-x,-y,-z
x,1/2+y,-z
-x,1/2+y,1/2+z
x,-y,1/2+z
1/2+x,1/2+y,z
1/2-x,-y,z
1/2+x,-y,1/2-z
1/2-x,1/2+y,1/2-z
1/2-x,1/2-y,-z
1/2+x,y,-z
1/2-x,y,1/2+z
1/2+x,1/2-y,1/2+z
loop_
_atom_site_type_symbol
_atom_site_label
_atom_site_fract_x
_atom_site_fract_y
_atom_site_fract_z
Si Si1 0.119299 0.336706 0.997934
Si Si2 0.560181 0.361693 0.335574
Si Si3 0.500000 0.387869 0.750000
Si Si4 0.194272 0.318516 0.782026
Si Si5 0.000000 0.250000 0.565859
Si Si6 0.648375 0.816955 0.221453
Si Si7 0.503693 0.068747 0.519863
O O1 0.168391 0.326553 0.099768
O O2 0.083188 0.402264 0.992353
O O3 0.170499 0.324693 0.900830
O O4 0.052975 0.289007 0.007008
O O5 0.500000 0.384643 0.250000
O O6 0.642603 0.361580 0.288074
O O7 0.545266 0.293077 0.358829
O O8 0.556555 0.400288 0.442472
O O9 0.574070 0.350245 0.750623
O O10 0.509960 0.425256 0.644061
O O11 0.190608 0.250000 0.750000
O O12 0.278545 0.341654 0.778872
O O13 0.633840 0.750000 0.250000
O O14 0.500000 0.000000 0.500000
#
# Coordination Sequence:
#
# PCOD8281690 Si02
#       7
#    16  16   8  16   8  16  16
#     4  10  21  35  55  84 119 151 190 243 286 351
#     4  11  18  32  59  89 112 147 185 240 290 335
#     4  10  23  42  56  80 116 155 200 234 288 360
#     4  11  20  34  56  89 122 144 192 241 290 354
#     4  10  17  30  57  82 120 141 184 232 293 346
#     4  10  24  35  54  84 121 159 184 228 292 369
#     4  10  23  37  62  85 109 156 200 244 277 339
#
# _framework density 18.307154000000001
#
# number of rings (size 3 to 8) (size 9 to 14) (size 15 to 20)
#    0.000    1.667    5.000    0.500    8.167    4.000 
#    0.000    0.000    0.000   13.000    0.000    0.000 
#    0.000    0.000    0.000    0.000    0.000    0.000 
#
# Total GULP energy -594840.013376 kJ/mol
# GULP energy per Si atom -12392.500279 kJ/mol
# Density = 1.826549 g / cm^3
# Si number density = 18.307154 Si / 1000 Ang^3
#
#
#
# Elastic Constant Matrix: (Units=GPa)
#
#
# Indices 1 2 3 4 5 6 
#
# 1 132.6787 45.4000 58.2754 0.0000 0.0000 0.0000
# 2 45.4000 108.8972 56.9418 0.0000 0.0000 0.0000
# 3 58.2754 56.9418 137.7291 0.0000 0.0000 0.0000
# 4 0.0000 0.0000 0.0000 19.5389 0.0000 0.0000
# 5 0.0000 0.0000 0.0000 0.0000 12.9489 0.0000
# 6 0.0000 0.0000 0.0000 0.0000 0.0000 23.2923
#
#
#
# Elastic Compliance Matrix: (Units=1/GPa)
#
#
# Indices 1 2 3 4 5 6 
#
# 1 0.009737 -0.002431 -0.003115 0.000000 0.000000 0.000000
# 2 -0.002431 0.012322 -0.004066 0.000000 0.000000 0.000000
# 3 -0.003115 -0.004066 0.010260 0.000000 0.000000 0.000000
# 4 0.000000 0.000000 0.000000 0.051180 0.000000 0.000000
# 5 0.000000 0.000000 0.000000 0.000000 0.077227 0.000000
# 6 0.000000 0.000000 0.000000 0.000000 0.000000 0.042933
#
#
# Mechanical properties :
#
#
# Convention : Reuss Voigt Hill
#
# Bulk Modulus (GPa) = 76.36067 77.83771 77.09919
# Shear Modulus (GPa) = 22.00249 25.73519 23.86884
#
# Velocity S-wave (km/s) = 3.47053 3.75339 3.61473
# Velocity P-wave (km/s) = 7.60663 7.83543 7.72188
#
# Compressibility (1/GPa) = 0.01309575
#
# Stress axis : x y z
#
# Youngs Moduli (GPa) = 102.70267 81.15284 97.46907
#
# Poissons Ratio (x) = 0.19725 0.30361
# Poissons Ratio (y) = 0.24963 0.39632
# Poissons Ratio (z) = 0.31991 0.32997
#
# Static dielectric constant tensor:
#      x y z
#    x 3.441730 0.000000 0.000000 
#    y 0.000000 3.126660 0.000000 
#    z 0.000000 0.000000 3.699570 
# 
# 
# High freq. dielectric constant tensor:
#      x y z
#    x 1.700390 0.000000 0.000000 
#    y 0.000000 1.675850 0.000000 
#    z 0.000000 0.000000 1.730760 
# 
# From -- ./inp_files/14655.got.cif
#   From: 2010.03.12/outbox.cif.g09.slc.cpg/sg68_8_cif.got.tgz:14655.got - 2010.04.10 23:14:56.
