data_PCOD8281114
_publ_section_title
;
Structure prediction by ZEFSAII (Michael W. Deem and Ramdas Pophale) SiO2 
 PCOD8281114
Probable space group: C M M A
;
_chemical_formula_sum "Si O2"
_cell_formula_units_Z 80
_cell_length_a 21.902389
_cell_length_b 17.482804
_cell_length_c 10.874770
_cell_angle_alpha 90.000000
_cell_angle_beta 90.000000
_cell_angle_gamma 90.000000
_cell_volume 4164.114447
_symmetry_space_group_name_H-M "C M M A"
_symmetry_group_IT_number 67
_symmetry_cell_setting 'orthorhombic'
loop_
_space_group_symop_operation_xyz
x,y,z
-x,1/2-y,z
x,-y,-z
-x,1/2+y,-z
-x,-y,-z
x,1/2+y,-z
-x,y,z
x,1/2-y,z
1/2+x,1/2+y,z
1/2-x,-y,z
1/2+x,1/2-y,-z
1/2-x,y,-z
1/2-x,1/2-y,-z
1/2+x,y,-z
1/2-x,1/2+y,z
1/2+x,-y,z
loop_
_atom_site_type_symbol
_atom_site_label
_atom_site_fract_x
_atom_site_fract_y
_atom_site_fract_z
Si Si1 0.620165 0.524438 0.137412
Si Si2 0.793318 0.431385 0.692945
Si Si3 0.500000 0.618616 0.530705
Si Si4 0.866789 0.665890 0.495093
Si Si5 0.000000 0.513386 0.706763
Si Si6 0.683183 0.662537 0.237460
O O1 0.664555 0.461755 0.197469
O O2 0.558231 0.530942 0.211714
O O3 0.652424 0.607759 0.135856
O O4 0.605051 0.500000 0.000000
O O5 0.750000 0.500000 0.644142
O O6 0.834748 0.401248 0.581473
O O7 0.753673 0.360809 0.743946
O O8 0.560815 0.669363 0.527625
O O9 0.500000 0.573676 0.660089
O O10 0.500000 0.564798 0.413196
O O11 0.840477 0.750000 0.460152
O O12 0.853697 0.648586 0.636895
O O13 0.679661 0.750000 0.192135
#
# Coordination Sequence:
#
# PCOD8281114 Si02
#       6
#    16  16   8  16   8  16
#     4  11  23  41  62  85 115 158 204 245 283 339
#     4  10  22  36  59  89 121 156 198 243 288 349
#     4  11  21  36  64  92 113 154 189 247 306 356
#     4  11  21  37  59  90 127 155 186 242 312 362
#     4  11  21  38  64  88 117 146 197 247 305 342
#     4  10  22  39  60  88 120 155 193 239 298 356
#
# _framework density 19.211769
#
# number of rings (size 3 to 8) (size 9 to 14) (size 15 to 20)
#    0.000    1.400    4.000    1.800    0.000   10.800 
#    0.000    3.500    0.000    0.000    0.000    0.000 
#    0.000    0.000    0.000    0.000    0.000    0.000 
#
# Total GULP energy -496049.633967 kJ/mol
# GULP energy per Si atom -12401.240849 kJ/mol
# Density = 1.916804 g / cm^3
# Si number density = 19.211769 Si / 1000 Ang^3
#
#
#
# Elastic Constant Matrix: (Units=GPa)
#
#
# Indices 1 2 3 4 5 6 
#
# 1 111.8644 25.2689 17.6071 0.0000 0.0000 0.0000
# 2 25.2689 100.2680 35.8652 0.0000 0.0000 0.0000
# 3 17.6071 35.8652 68.3034 0.0000 0.0000 0.0000
# 4 0.0000 0.0000 0.0000 18.2629 0.0000 0.0000
# 5 0.0000 0.0000 0.0000 0.0000 21.3396 0.0000
# 6 0.0000 0.0000 0.0000 0.0000 0.0000 19.8906
#
#
#
# Elastic Compliance Matrix: (Units=1/GPa)
#
#
# Indices 1 2 3 4 5 6 
#
# 1 0.009599 -0.001889 -0.001483 0.000000 0.000000 0.000000
# 2 -0.001889 0.012651 -0.006156 0.000000 0.000000 0.000000
# 3 -0.001483 -0.006156 0.018255 0.000000 0.000000 0.000000
# 4 0.000000 0.000000 0.000000 0.054756 0.000000 0.000000
# 5 0.000000 0.000000 0.000000 0.000000 0.046861 0.000000
# 6 0.000000 0.000000 0.000000 0.000000 0.000000 0.050275
#
#
# Mechanical properties :
#
#
# Convention : Reuss Voigt Hill
#
# Bulk Modulus (GPa) = 46.61863 48.65756 47.63809
# Shear Modulus (GPa) = 22.87245 25.34493 24.10869
#
# Velocity S-wave (km/s) = 3.45417 3.63607 3.54629
# Velocity P-wave (km/s) = 6.34245 6.55820 6.45123
#
# Compressibility (1/GPa) = 0.02145065
#
# Stress axis : x y z
#
# Youngs Moduli (GPa) = 104.17285 79.04340 54.77868
#
# Poissons Ratio (x) = 0.14930 0.08122
# Poissons Ratio (y) = 0.19676 0.33722
# Poissons Ratio (z) = 0.15446 0.48660
#
# Static dielectric constant tensor:
#      x y z
#    x 3.707810 0.000000 0.000000 
#    y 0.000000 3.587600 0.000000 
#    z 0.000000 0.000000 3.213300 
# 
# 
# High freq. dielectric constant tensor:
#      x y z
#    x 1.763580 0.000000 0.000000 
#    y 0.000000 1.752480 0.000000 
#    z 0.000000 0.000000 1.720110 
# 
# From -- ./inp_files/20573.got.cif
#   From: 2010.03.12/outbox.cif.g09.slc.cpg/sg67_11_cif.got.tgz:20573.got - 2010.04.10 22:41:39.
