data_PCOD8281604
_publ_section_title
;
Structure prediction by ZEFSAII (Michael W. Deem and Ramdas Pophale) SiO2 
 PCOD8281604
Probable space group: C M M A
;
_chemical_formula_sum "Si O2"
_cell_formula_units_Z 96
_cell_length_a 22.727590
_cell_length_b 18.688581
_cell_length_c 13.169691
_cell_angle_alpha 90.000000
_cell_angle_beta 90.000000
_cell_angle_gamma 90.000000
_cell_volume 5593.778929
_symmetry_space_group_name_H-M "C M M A"
_symmetry_group_IT_number 67
_symmetry_cell_setting 'orthorhombic'
loop_
_space_group_symop_operation_xyz
x,y,z
-x,1/2-y,z
x,-y,-z
-x,1/2+y,-z
-x,-y,-z
x,1/2+y,-z
-x,y,z
x,1/2-y,z
1/2+x,1/2+y,z
1/2-x,-y,z
1/2+x,1/2-y,-z
1/2-x,y,-z
1/2-x,1/2-y,-z
1/2+x,y,-z
1/2-x,1/2+y,z
1/2+x,-y,z
loop_
_atom_site_type_symbol
_atom_site_label
_atom_site_fract_x
_atom_site_fract_y
_atom_site_fract_z
Si Si1 0.701559 0.418397 0.794872
Si Si2 0.635310 0.452860 0.592450
Si Si3 0.433495 0.668511 0.511520
Si Si4 0.434198 0.571416 0.697760
Si Si5 0.330397 0.569364 0.850453
Si Si6 0.181931 0.671213 0.972539
O O1 0.682468 0.433407 0.679338
O O2 0.681967 0.485127 0.866524
O O3 0.771595 0.403373 0.792364
O O4 0.672183 0.351327 0.854055
O O5 0.664209 0.500000 0.500000
O O6 0.610393 0.377069 0.557410
O O7 0.581550 0.499738 0.635449
O O8 0.500000 0.662396 0.469119
O O9 0.411230 0.750000 0.509762
O O10 0.431436 0.640673 0.626439
O O11 0.500000 0.561742 0.742159
O O12 0.388165 0.584410 0.785973
O O13 0.345344 0.611368 0.953776
O O14 0.153271 0.750000 0.987803
O O15 0.250000 0.674372 0.000000
#
# Coordination Sequence:
#
# PCOD8281604 Si02
#       6
#    16  16  16  16  16  16
#     4   9  17  30  48  70  94 121 153 188 231 278
#     4   9  17  30  48  68  93 122 153 191 233 278
#     4   9  17  29  45  65  89 120 158 195 231 274
#     4   9  17  30  48  68  89 117 156 197 232 270
#     4   9  17  30  48  70  92 119 153 191 232 275
#     4   9  17  29  47  70  94 120 151 187 227 273
#
# _framework density 17.161923000000002
#
# number of rings (size 3 to 8) (size 9 to 14) (size 15 to 20)
#    0.000    3.000    0.000    1.000    0.000    5.333 
#    0.000   14.167    0.000   10.000    0.000    0.000 
#    0.000    0.000    0.000    0.000    0.000    0.000 
#
# Total GULP energy -594665.553715 kJ/mol
# GULP energy per Si atom -12388.865702 kJ/mol
# Density = 1.712286 g / cm^3
# Si number density = 17.161923 Si / 1000 Ang^3
#
#
#
# Elastic Constant Matrix: (Units=GPa)
#
#
# Indices 1 2 3 4 5 6 
#
# 1 77.3574 29.9062 48.2223 0.0000 0.0000 0.0000
# 2 29.9062 98.7292 43.7244 0.0000 0.0000 0.0000
# 3 48.2223 43.7244 102.2275 0.0000 0.0000 0.0000
# 4 0.0000 0.0000 0.0000 20.2909 0.0000 0.0000
# 5 0.0000 0.0000 0.0000 0.0000 16.2072 0.0000
# 6 0.0000 0.0000 0.0000 0.0000 0.0000 13.1753
#
#
#
# Elastic Compliance Matrix: (Units=1/GPa)
#
#
# Indices 1 2 3 4 5 6 
#
# 1 0.018680 -0.002166 -0.007885 0.000000 0.000000 0.000000
# 2 -0.002166 0.012747 -0.004430 0.000000 0.000000 0.000000
# 3 -0.007885 -0.004430 0.015396 0.000000 0.000000 0.000000
# 4 0.000000 0.000000 0.000000 0.049283 0.000000 0.000000
# 5 0.000000 0.000000 0.000000 0.000000 0.061701 0.000000
# 6 0.000000 0.000000 0.000000 0.000000 0.000000 0.075900
#
#
# Mechanical properties :
#
#
# Convention : Reuss Voigt Hill
#
# Bulk Modulus (GPa) = 55.99040 58.00221 56.99631
# Shear Modulus (GPa) = 18.61343 20.36542 19.48943
#
# Velocity S-wave (km/s) = 3.29687 3.44854 3.37355
# Velocity P-wave (km/s) = 6.86935 7.05173 6.96114
#
# Compressibility (1/GPa) = 0.01786020
#
# Stress axis : x y z
#
# Youngs Moduli (GPa) = 53.53393 78.45031 64.95002
#
# Poissons Ratio (x) = 0.16994 0.51213
# Poissons Ratio (y) = 0.11597 0.28774
# Poissons Ratio (z) = 0.42211 0.34755
#
# Static dielectric constant tensor:
#      x y z
#    x 2.963650 0.000000 0.000000 
#    y 0.000000 3.386400 0.000000 
#    z 0.000000 0.000000 3.111240 
# 
# 
# High freq. dielectric constant tensor:
#      x y z
#    x 1.632370 0.000000 0.000000 
#    y 0.000000 1.665280 0.000000 
#    z 0.000000 0.000000 1.652030 
# 
# From -- ./inp_files/20870.got.cif
#   From: 2010.03.12/outbox.cif.g09.slc.cpg/sg67_11_cif.got.tgz:20870.got - 2010.04.10 22:41:39.
