data_PCOD8281087
_publ_section_title
;
Structure prediction by ZEFSAII (Michael W. Deem and Ramdas Pophale) SiO2 
 PCOD8281087
Probable space group: C M M A
;
_chemical_formula_sum "Si O2"
_cell_formula_units_Z 64
_cell_length_a 20.604053
_cell_length_b 15.950360
_cell_length_c 8.797186
_cell_angle_alpha 90.000000
_cell_angle_beta 90.000000
_cell_angle_gamma 90.000000
_cell_volume 2891.125354
_symmetry_space_group_name_H-M "C M M A"
_symmetry_group_IT_number 67
_symmetry_cell_setting 'orthorhombic'
loop_
_space_group_symop_operation_xyz
x,y,z
-x,1/2-y,z
x,-y,-z
-x,1/2+y,-z
-x,-y,-z
x,1/2+y,-z
-x,y,z
x,1/2-y,z
1/2+x,1/2+y,z
1/2-x,-y,z
1/2+x,1/2-y,-z
1/2-x,y,-z
1/2-x,1/2-y,-z
1/2+x,y,-z
1/2-x,1/2+y,z
1/2+x,-y,z
loop_
_atom_site_type_symbol
_atom_site_label
_atom_site_fract_x
_atom_site_fract_y
_atom_site_fract_z
Si Si1 0.500000 0.343866 0.804933
Si Si2 0.875053 0.651129 0.647538
Si Si3 0.113678 0.847865 0.303606
Si Si4 0.500000 0.416620 0.108075
Si Si5 0.248459 0.401007 0.827487
O O1 0.500000 0.250000 0.741799
O O2 0.564885 0.389289 0.741946
O O3 0.500000 0.341261 0.987230
O O4 0.879205 0.750000 0.648182
O O5 0.882210 0.618372 0.475795
O O6 0.808359 0.627299 0.726068
O O7 0.092460 0.750000 0.294469
O O8 0.184699 0.859075 0.238130
O O9 0.063596 0.907357 0.212861
O O10 0.500000 0.500000 0.000000
O O11 0.250000 0.500000 0.821678
O O12 0.250000 0.368174 0.000000
#
# Coordination Sequence:
#
# PCOD8281087 Si02
#       5
#     8  16  16   8  16
#     4  10  21  40  67  92 127 170 214 269 328 403
#     4  10  22  42  68  99 131 174 229 278 336 407
#     4  11  24  44  69  96 132 179 228 280 339 411
#     4  12  27  42  66 100 136 174 220 284 339 411
#     4  11  25  41  64  97 139 178 224 282 340 403
#
# _framework density 22.136709
#
# number of rings (size 3 to 8) (size 9 to 14) (size 15 to 20)
#    0.000    1.250    0.000    4.875    7.000   10.000 
#    0.000    1.250    0.000    0.000    0.000    0.000 
#    0.000    0.000    0.000    0.000    0.000    0.000 
#
# Total GULP energy -396705.164998 kJ/mol
# GULP energy per Si atom -12397.036406 kJ/mol
# Density = 2.208632 g / cm^3
# Si number density = 22.136709 Si / 1000 Ang^3
#
#
#
# Elastic Constant Matrix: (Units=GPa)
#
#
# Indices 1 2 3 4 5 6 
#
# 1 208.6766 20.0366 104.5295 0.0000 0.0000 0.0000
# 2 20.0366 52.9187 30.7117 0.0000 0.0000 0.0000
# 3 104.5295 30.7117 211.6039 0.0000 0.0000 0.0000
# 4 0.0000 0.0000 0.0000 126.2166 0.0000 0.0000
# 5 0.0000 0.0000 0.0000 0.0000 57.1082 0.0000
# 6 0.0000 0.0000 0.0000 0.0000 0.0000 25.1506
#
#
#
# Elastic Compliance Matrix: (Units=1/GPa)
#
#
# Indices 1 2 3 4 5 6 
#
# 1 0.006388 -0.000641 -0.003062 0.000000 0.000000 0.000000
# 2 -0.000641 0.020699 -0.002687 0.000000 0.000000 0.000000
# 3 -0.003062 -0.002687 0.006629 0.000000 0.000000 0.000000
# 4 0.000000 0.000000 0.000000 0.007923 0.000000 0.000000
# 5 0.000000 0.000000 0.000000 0.000000 0.017511 0.000000
# 6 0.000000 0.000000 0.000000 0.000000 0.000000 0.039760
#
#
# Mechanical properties :
#
#
# Convention : Reuss Voigt Hill
#
# Bulk Modulus (GPa) = 47.77039 87.08386 67.42712
# Shear Modulus (GPa) = 42.13375 62.88984 52.51180
#
# Velocity S-wave (km/s) = 4.36746 5.33586 4.87577
# Velocity P-wave (km/s) = 6.86000 8.79696 7.88816
#
# Compressibility (1/GPa) = 0.02093347
#
# Stress axis : x y z
#
# Youngs Moduli (GPa) = 156.55195 48.31052 150.86106
#
# Poissons Ratio (x) = 0.03098 0.46199
# Poissons Ratio (y) = 0.10040 0.40543
# Poissons Ratio (z) = 0.47941 0.12983
#
# Static dielectric constant tensor:
#      x y z
#    x 4.662820 0.000000 0.000000 
#    y 0.000000 3.942250 0.000000 
#    z 0.000000 0.000000 4.723160 
# 
# 
# High freq. dielectric constant tensor:
#      x y z
#    x 1.889440 0.000000 0.000000 
#    y 0.000000 1.862010 0.000000 
#    z 0.000000 0.000000 1.892880 
# 
# From -- ./inp_files/9406.got.cif
#   From: 2010.03.12/outbox.cif.g09.slc.cpg/sg67_5_cif.got.tgz:9406.got - 2010.04.10 22:41:39.
