data_PCOD8281494
_publ_section_title
;
Structure prediction by ZEFSAII (Michael W. Deem and Ramdas Pophale) SiO2 
 PCOD8281494
Probable space group: C M M A
;
_chemical_formula_sum "Si O2"
_cell_formula_units_Z 72
_cell_length_a 7.810112
_cell_length_b 15.394206
_cell_length_c 28.644134
_cell_angle_alpha 90.000000
_cell_angle_beta 90.000000
_cell_angle_gamma 90.000000
_cell_volume 3443.897780
_symmetry_space_group_name_H-M "C M M A"
_symmetry_group_IT_number 67
_symmetry_cell_setting 'orthorhombic'
loop_
_space_group_symop_operation_xyz
x,y,z
-x,1/2-y,z
x,-y,-z
-x,1/2+y,-z
-x,-y,-z
x,1/2+y,-z
-x,y,z
x,1/2-y,z
1/2+x,1/2+y,z
1/2-x,-y,z
1/2+x,1/2-y,-z
1/2-x,y,-z
1/2-x,1/2-y,-z
1/2+x,y,-z
1/2-x,1/2+y,z
1/2+x,-y,z
loop_
_atom_site_type_symbol
_atom_site_label
_atom_site_fract_x
_atom_site_fract_y
_atom_site_fract_z
Si Si1 0.805458 0.146979 0.783607
Si Si2 0.801546 0.250000 0.053375
Si Si3 0.303633 0.406103 0.116769
Si Si4 0.500000 0.353554 0.719175
Si Si5 0.692050 0.353435 0.449486
Si Si6 0.000000 0.853746 0.614026
O O1 0.809607 0.250000 0.785372
O O2 0.721860 0.114812 0.832748
O O3 0.673861 0.112592 0.744256
O O4 0.000000 0.112524 0.773598
O O5 0.733284 0.163396 0.077091
O O6 0.000000 0.250000 0.059503
O O7 0.750000 0.250000 0.000000
O O8 0.500000 0.403838 0.128008
O O9 0.250000 0.500000 0.097362
O O10 0.500000 0.250000 0.719586
O O11 0.500000 0.390012 0.666627
O O12 0.500000 0.387292 0.437537
O O13 0.692858 0.250000 0.449945
O O14 0.750000 0.388645 0.500000
O O15 0.828373 0.388646 0.411580
O O16 0.000000 0.750000 0.613357
#
# Coordination Sequence:
#
# PCOD8281494 Si02
#       6
#    16   8  16   8  16   8
#     4   9  18  33  54  77 107 145 189 241 296 356
#     4  12  26  44  68  94 130 170 204 252 314 365
#     4  11  23  40  64  95 125 159 210 258 302 367
#     4   9  18  28  46  68  98 132 184 231 292 360
#     4   9  14  20  31  45  69 110 162 215 271 329
#     4   9  16  24  32  54  82 114 163 230 273 332
#
# _framework density 20.906544
#
# number of rings (size 3 to 8) (size 9 to 14) (size 15 to 20)
#    0.000    2.222    2.222    1.667    3.111    1.333 
#    0.000    6.667    0.000    0.000    0.000    0.000 
#    0.000    0.000    0.000    0.000    0.000    3.333 
#
# Total GULP energy -446244.410019 kJ/mol
# GULP energy per Si atom -12395.678056 kJ/mol
# Density = 2.085896 g / cm^3
# Si number density = 20.906544 Si / 1000 Ang^3
#
#
#
# Elastic Constant Matrix: (Units=GPa)
#
#
# Indices 1 2 3 4 5 6 
#
# 1 148.3283 25.2441 78.9189 0.0000 0.0000 0.0000
# 2 25.2441 57.4036 39.3715 0.0000 0.0000 0.0000
# 3 78.9189 39.3715 192.5345 0.0000 0.0000 0.0000
# 4 0.0000 0.0000 0.0000 -4.4372 0.0000 0.0000
# 5 0.0000 0.0000 0.0000 0.0000 39.1098 0.0000
# 6 0.0000 0.0000 0.0000 0.0000 0.0000 15.0771
#
#
#
# Elastic Compliance Matrix: (Units=1/GPa)
#
#
# Indices 1 2 3 4 5 6 
#
# 1 0.008749 -0.001614 -0.003256 0.000000 0.000000 0.000000
# 2 -0.001614 0.020560 -0.003543 0.000000 0.000000 0.000000
# 3 -0.003256 -0.003543 0.007253 0.000000 0.000000 0.000000
# 4 0.000000 0.000000 0.000000 -0.225367 0.000000 0.000000
# 5 0.000000 0.000000 0.000000 0.000000 0.025569 0.000000
# 6 0.000000 0.000000 0.000000 0.000000 0.000000 0.066326
#
#
# Mechanical properties :
#
#
# Convention : Reuss Voigt Hill
#
# Bulk Modulus (GPa) = 50.66846 76.14838 63.40842
# Shear Modulus (GPa) = -68.02211 26.93206 -20.54502
#
# Velocity S-wave (km/s) = -5.71025 3.59306 -3.13822
# Velocity P-wave (km/s) = 4.38036 7.32910 4.15501
#
# Compressibility (1/GPa) = 0.01973614
#
# Stress axis : x y z
#
# Youngs Moduli (GPa) = 114.29974 48.63757 137.87480
#
# Poissons Ratio (x) = 0.07851 0.44893
# Poissons Ratio (y) = 0.18451 0.48845
# Poissons Ratio (z) = 0.37216 0.17231
#
# Static dielectric constant tensor:
#      x y z
#    x 4.161810 0.000000 0.000000 
#    y 0.000000 3.676020 0.000000 
#    z 0.000000 0.000000 3.804820 
# 
# 
# High freq. dielectric constant tensor:
#      x y z
#    x 1.835020 0.000000 0.000000 
#    y 0.000000 1.779980 0.000000 
#    z 0.000000 0.000000 1.812630 
# 
# From -- ./inp_files/43147.got.cif
#   From: 2010.03.12/outbox.cif.g09.slc.cpg/sg67_22_cif.got.tgz:43147.got - 2010.04.10 22:41:39.
