data_PCOD8281056
_publ_section_title
;
Structure prediction by ZEFSAII (Michael W. Deem and Ramdas Pophale) SiO2 
 PCOD8281056
Probable space group: C M M A
;
_chemical_formula_sum "Si O2"
_cell_formula_units_Z 88
_cell_length_a 27.010262
_cell_length_b 27.890690
_cell_length_c 5.390277
_cell_angle_alpha 90.000000
_cell_angle_beta 90.000000
_cell_angle_gamma 90.000000
_cell_volume 4060.683484
_symmetry_space_group_name_H-M "C M M A"
_symmetry_group_IT_number 67
_symmetry_cell_setting 'orthorhombic'
loop_
_space_group_symop_operation_xyz
x,y,z
-x,1/2-y,z
x,-y,-z
-x,1/2+y,-z
-x,-y,-z
x,1/2+y,-z
-x,y,z
x,1/2-y,z
1/2+x,1/2+y,z
1/2-x,-y,z
1/2+x,1/2-y,-z
1/2-x,y,-z
1/2-x,1/2-y,-z
1/2+x,y,-z
1/2-x,1/2+y,z
1/2+x,-y,z
loop_
_atom_site_type_symbol
_atom_site_label
_atom_site_fract_x
_atom_site_fract_y
_atom_site_fract_z
Si Si1 0.406894 0.697320 0.934411
Si Si2 0.000000 0.915540 0.751813
Si Si3 0.101285 0.529721 0.748016
Si Si4 0.311339 0.301522 0.396048
Si Si5 0.345408 0.126773 0.788318
Si Si6 0.250000 0.158461 0.000000
Si Si7 0.500000 0.853635 0.748676
O O1 0.421001 0.750000 0.048100
O O2 0.356051 0.703249 0.793900
O O3 0.451313 0.679506 0.758540
O O4 0.395368 0.656683 0.141210
O O5 0.046254 0.950500 0.739098
O O6 0.000000 0.880636 0.513711
O O7 0.000000 0.888460 0.014148
O O8 0.111712 0.500000 0.500000
O O9 0.140745 0.572403 0.739357
O O10 0.109627 0.500000 0.000000
O O11 0.308460 0.250000 0.539218
O O12 0.321916 0.348659 0.550855
O O13 0.258990 0.308614 0.246100
O O14 0.300243 0.126879 0.986462
#
# Coordination Sequence:
#
# PCOD8281056 Si02
#       7
#    16   8  16  16  16   8   8
#     4  10  22  39  62  96 141 184 223 266 326 409
#     4  12  24  45  73 100 133 173 227 291 343 398
#     4  12  27  46  74 102 133 175 230 293 354 411
#     4  10  21  39  66 100 134 179 227 275 336 405
#     4  11  23  42  67  93 134 175 226 281 344 406
#     4  10  23  38  67  94 136 172 224 283 339 404
#     4  12  23  41  68 102 141 185 220 270 336 409
#
# _framework density 21.671226999999998
#
# number of rings (size 3 to 8) (size 9 to 14) (size 15 to 20)
#    0.000    1.091    1.818    4.364    5.091    2.909 
#    0.000    1.364    0.000    0.000    0.000    0.000 
#    0.000    0.000    0.000    0.000    0.000    0.000 
#
# Total GULP energy -545301.426804 kJ/mol
# GULP energy per Si atom -12393.214246 kJ/mol
# Density = 2.162190 g / cm^3
# Si number density = 21.671227 Si / 1000 Ang^3
#
#
#
# Elastic Constant Matrix: (Units=GPa)
#
#
# Indices 1 2 3 4 5 6 
#
# 1 97.4471 56.0370 13.2060 0.0000 0.0000 0.0000
# 2 56.0370 173.3652 58.2886 0.0000 0.0000 0.0000
# 3 13.2060 58.2886 101.5294 0.0000 0.0000 0.0000
# 4 0.0000 0.0000 0.0000 35.3981 0.0000 0.0000
# 5 0.0000 0.0000 0.0000 0.0000 19.1210 0.0000
# 6 0.0000 0.0000 0.0000 0.0000 0.0000 -31.8103
#
#
#
# Elastic Compliance Matrix: (Units=1/GPa)
#
#
# Indices 1 2 3 4 5 6 
#
# 1 0.012667 -0.004387 0.000871 0.000000 0.000000 0.000000
# 2 -0.004387 0.008667 -0.004405 0.000000 0.000000 0.000000
# 3 0.000871 -0.004405 0.012265 0.000000 0.000000 0.000000
# 4 0.000000 0.000000 0.000000 0.028250 0.000000 0.000000
# 5 0.000000 0.000000 0.000000 0.000000 0.052298 0.000000
# 6 0.000000 0.000000 0.000000 0.000000 0.000000 -0.031436
#
#
# Mechanical properties :
#
#
# Convention : Reuss Voigt Hill
#
# Bulk Modulus (GPa) = 56.31724 69.71166 63.01445
# Shear Modulus (GPa) = 47.85917 20.86246 34.36081
#
# Velocity S-wave (km/s) = 4.70448 3.10607 3.98622
# Velocity P-wave (km/s) = 7.45339 6.71575 7.09416
#
# Compressibility (1/GPa) = 0.01775655
#
# Stress axis : x y z
#
# Youngs Moduli (GPa) = 78.94673 115.37471 81.53148
#
# Poissons Ratio (x) = 0.50617 -0.07103
# Poissons Ratio (y) = 0.34635 0.35918
# Poissons Ratio (z) = -0.06877 0.50827
#
# Static dielectric constant tensor:
#      x y z
#    x 4.193790 0.000000 0.000000 
#    y 0.000000 4.091230 0.000000 
#    z 0.000000 0.000000 3.949070 
# 
# 
# High freq. dielectric constant tensor:
#      x y z
#    x 1.871620 0.000000 0.000000 
#    y 0.000000 1.847370 0.000000 
#    z 0.000000 0.000000 1.848900 
# 
# From -- ./inp_files/4781.got.cif
#   From: 2010.03.12/outbox.cif.g09.slc.cpg/sg67_3_cif.got.tgz:4781.got - 2010.04.10 22:41:39.
