data_PCOD8281400
_publ_section_title
;
Structure prediction by ZEFSAII (Michael W. Deem and Ramdas Pophale) SiO2 
 PCOD8281400
Probable space group: C M M A
;
_chemical_formula_sum "Si O2"
_cell_formula_units_Z 96
_cell_length_a 17.283702
_cell_length_b 15.164443
_cell_length_c 17.959059
_cell_angle_alpha 90.000000
_cell_angle_beta 90.000000
_cell_angle_gamma 90.000000
_cell_volume 4707.028306
_symmetry_space_group_name_H-M "C M M A"
_symmetry_group_IT_number 67
_symmetry_cell_setting 'orthorhombic'
loop_
_space_group_symop_operation_xyz
x,y,z
-x,1/2-y,z
x,-y,-z
-x,1/2+y,-z
-x,-y,-z
x,1/2+y,-z
-x,y,z
x,1/2-y,z
1/2+x,1/2+y,z
1/2-x,-y,z
1/2+x,1/2-y,-z
1/2-x,y,-z
1/2-x,1/2-y,-z
1/2+x,y,-z
1/2-x,1/2+y,z
1/2+x,-y,z
loop_
_atom_site_type_symbol
_atom_site_label
_atom_site_fract_x
_atom_site_fract_y
_atom_site_fract_z
Si Si1 0.663128 0.598235 0.023515
Si Si2 0.146933 0.849572 0.568848
Si Si3 0.674857 0.650059 0.600081
Si Si4 0.910104 0.343334 0.886456
Si Si5 0.091551 0.468474 0.162805
Si Si6 0.587418 0.005536 0.672228
O O1 0.641038 0.601015 0.111881
O O2 0.643735 0.500000 0.000000
O O3 0.750000 0.625361 0.000000
O O4 0.606747 0.659488 0.975321
O O5 0.120920 0.750000 0.588521
O O6 0.234063 0.865940 0.595276
O O7 0.137771 0.865636 0.480953
O O8 0.092969 0.919566 0.609683
O O9 0.657131 0.750000 0.627041
O O10 0.640445 0.579616 0.657435
O O11 0.877074 0.250000 0.853162
O O12 0.875249 0.431494 0.849388
O O13 0.000000 0.345196 0.871978
O O14 0.109026 0.448408 0.249116
O O15 0.000000 0.460542 0.143369
O O16 0.500000 0.970020 0.675190
#
# Coordination Sequence:
#
# PCOD8281400 Si02
#       6
#    16  16  16  16  16  16
#     4   9  17  32  51  73  98 126 169 217 259 300
#     4   9  19  38  59  79 108 150 197 236 278 331
#     4   9  19  37  59  81 109 149 194 237 280 331
#     4   9  17  31  52  73  94 129 173 213 260 318
#     4   9  19  35  52  72 106 145 172 209 269 336
#     4  11  22  34  53  84 117 151 188 226 281 342
#
# _framework density 20.395033999999999
#
# number of rings (size 3 to 8) (size 9 to 14) (size 15 to 20)
#    0.000    2.667    0.000    2.500    0.000    6.333 
#   12.000    4.167    0.000    1.000    0.000    0.000 
#    0.000    0.000    0.000    0.000    0.000    0.000 
#
# Total GULP energy -594723.299209 kJ/mol
# GULP energy per Si atom -12390.068734 kJ/mol
# Density = 2.034861 g / cm^3
# Si number density = 20.395034 Si / 1000 Ang^3
#
#
#
# Elastic Constant Matrix: (Units=GPa)
#
#
# Indices 1 2 3 4 5 6 
#
# 1 38.7999 3.4009 21.1769 0.0000 0.0000 0.0000
# 2 3.4009 35.7797 2.5991 0.0000 0.0000 0.0000
# 3 21.1769 2.5991 76.3001 0.0000 0.0000 0.0000
# 4 0.0000 0.0000 0.0000 29.1225 0.0000 0.0000
# 5 0.0000 0.0000 0.0000 0.0000 28.8557 0.0000
# 6 0.0000 0.0000 0.0000 0.0000 0.0000 19.5064
#
#
#
# Elastic Compliance Matrix: (Units=1/GPa)
#
#
# Indices 1 2 3 4 5 6 
#
# 1 0.030561 -0.002294 -0.008404 0.000000 0.000000 0.000000
# 2 -0.002294 0.028190 -0.000323 0.000000 0.000000 0.000000
# 3 -0.008404 -0.000323 0.015450 0.000000 0.000000 0.000000
# 4 0.000000 0.000000 0.000000 0.034338 0.000000 0.000000
# 5 0.000000 0.000000 0.000000 0.000000 0.034655 0.000000
# 6 0.000000 0.000000 0.000000 0.000000 0.000000 0.051265
#
#
# Mechanical properties :
#
#
# Convention : Reuss Voigt Hill
#
# Bulk Modulus (GPa) = 19.17269 22.80372 20.98820
# Shear Modulus (GPa) = 21.37764 23.74377 22.56070
#
# Velocity S-wave (km/s) = 3.24107 3.41573 3.32955
# Velocity P-wave (km/s) = 4.84016 5.17316 5.00943
#
# Compressibility (1/GPa) = 0.05215752
#
# Stress axis : x y z
#
# Youngs Moduli (GPa) = 32.72112 35.47307 64.72618
#
# Poissons Ratio (x) = 0.08139 0.54396
# Poissons Ratio (y) = 0.07508 0.02094
# Poissons Ratio (z) = 0.27499 0.01147
#
# Static dielectric constant tensor:
#      x y z
#    x 3.422900 0.000000 0.000000 
#    y 0.000000 3.893870 0.000000 
#    z 0.000000 0.000000 3.756940 
# 
# 
# High freq. dielectric constant tensor:
#      x y z
#    x 1.777710 0.000000 0.000000 
#    y 0.000000 1.790390 0.000000 
#    z 0.000000 0.000000 1.786100 
# 
# From -- ./inp_files/29297.got.cif
#   From: 2010.03.12/outbox.cif.g09.slc.cpg/sg67_15_cif.got.tgz:29297.got - 2010.04.10 22:41:39.
