data_PCOD8281227
_publ_section_title
;
Structure prediction by ZEFSAII (Michael W. Deem and Ramdas Pophale) SiO2 
 PCOD8281227
Probable space group: C M M A
;
_chemical_formula_sum "Si O2"
_cell_formula_units_Z 112
_cell_length_a 14.675246
_cell_length_b 30.950859
_cell_length_c 11.426949
_cell_angle_alpha 90.000000
_cell_angle_beta 90.000000
_cell_angle_gamma 90.000000
_cell_volume 5190.251300
_symmetry_space_group_name_H-M "C M M A"
_symmetry_group_IT_number 67
_symmetry_cell_setting 'orthorhombic'
loop_
_space_group_symop_operation_xyz
x,y,z
-x,1/2-y,z
x,-y,-z
-x,1/2+y,-z
-x,-y,-z
x,1/2+y,-z
-x,y,z
x,1/2-y,z
1/2+x,1/2+y,z
1/2-x,-y,z
1/2+x,1/2-y,-z
1/2-x,y,-z
1/2-x,1/2-y,-z
1/2+x,y,-z
1/2-x,1/2+y,z
1/2+x,-y,z
loop_
_atom_site_type_symbol
_atom_site_label
_atom_site_fract_x
_atom_site_fract_y
_atom_site_fract_z
Si Si1 0.105112 0.115089 0.962914
Si Si2 0.891744 0.296796 0.855210
Si Si3 0.606710 0.202559 0.408360
Si Si4 0.848751 0.117075 0.470619
Si Si5 0.100949 0.034651 0.593248
Si Si6 0.602192 0.406830 0.776402
Si Si7 0.220761 0.044447 0.823117
O O1 0.145641 0.161199 0.922304
O O2 0.170192 0.076951 0.913261
O O3 0.000000 0.106989 0.921539
O O4 0.110432 0.119050 0.102391
O O5 0.858794 0.250000 0.907497
O O6 0.855901 0.300500 0.723251
O O7 0.000000 0.297720 0.858703
O O8 0.500000 0.194305 0.409419
O O9 0.630098 0.250000 0.460758
O O10 0.653154 0.165482 0.481920
O O11 0.750000 0.097369 0.500000
O O12 0.912047 0.082308 0.535864
O O13 0.878428 0.123261 0.335710
O O14 0.158878 0.036205 0.710898
O O15 0.000000 0.018913 0.629070
O O16 0.142256 0.000000 0.500000
O O17 0.500000 0.427187 0.767754
O O18 0.681365 0.441631 0.773378
O O19 0.250000 0.000000 0.888343
#
# Coordination Sequence:
#
# PCOD8281227 Si02
#       7
#    16  16  16  16  16  16  16
#     4  10  22  41  66  95 128 170 217 267 323 382
#     4   8  15  32  62  96 125 157 205 264 321 380
#     4   9  18  34  59  91 125 162 208 260 315 379
#     4  12  23  39  63  90 127 169 208 257 320 387
#     4  11  24  42  67  97 127 161 211 272 326 382
#     4  11  25  43  61  88 130 172 213 262 316 380
#     4  12  25  42  66  93 128 166 220 265 320 383
#
# _framework density 21.578917000000001
#
# number of rings (size 3 to 8) (size 9 to 14) (size 15 to 20)
#    0.000    1.571    1.429    4.714    0.000    4.857 
#    0.000    2.143    0.000    4.714    0.000    0.000 
#    0.000    0.000    0.000    0.000    0.000    0.000 
#
# Total GULP energy -693807.171190 kJ/mol
# GULP energy per Si atom -12389.413771 kJ/mol
# Density = 2.152980 g / cm^3
# Si number density = 21.578917 Si / 1000 Ang^3
#
#
#
# Elastic Constant Matrix: (Units=GPa)
#
#
# Indices 1 2 3 4 5 6 
#
# 1 103.2836 28.1473 36.2878 0.0000 0.0000 0.0000
# 2 28.1473 167.7876 56.2801 0.0000 0.0000 0.0000
# 3 36.2878 56.2801 116.3241 0.0000 0.0000 0.0000
# 4 0.0000 0.0000 0.0000 14.7424 0.0000 0.0000
# 5 0.0000 0.0000 0.0000 0.0000 26.3281 0.0000
# 6 0.0000 0.0000 0.0000 0.0000 0.0000 10.2392
#
#
#
# Elastic Compliance Matrix: (Units=1/GPa)
#
#
# Indices 1 2 3 4 5 6 
#
# 1 0.010969 -0.000826 -0.003022 0.000000 0.000000 0.000000
# 2 -0.000826 0.007177 -0.003214 0.000000 0.000000 0.000000
# 3 -0.003022 -0.003214 0.011095 0.000000 0.000000 0.000000
# 4 0.000000 0.000000 0.000000 0.067832 0.000000 0.000000
# 5 0.000000 0.000000 0.000000 0.000000 0.037982 0.000000
# 6 0.000000 0.000000 0.000000 0.000000 0.000000 0.097664
#
#
# Mechanical properties :
#
#
# Convention : Reuss Voigt Hill
#
# Bulk Modulus (GPa) = 66.16106 69.86951 68.01528
# Shear Modulus (GPa) = 19.85053 28.04060 23.94556
#
# Velocity S-wave (km/s) = 3.03628 3.60869 3.33479
# Velocity P-wave (km/s) = 6.55886 7.05779 6.81289
#
# Compressibility (1/GPa) = 0.01511463
#
# Stress axis : x y z
#
# Youngs Moduli (GPa) = 91.16549 139.33845 90.13384
#
# Poissons Ratio (x) = 0.11516 0.27238
# Poissons Ratio (y) = 0.07535 0.28973
# Poissons Ratio (z) = 0.27550 0.44790
#
# Static dielectric constant tensor:
#      x y z
#    x 4.894730 0.000000 0.000000 
#    y 0.000000 4.209370 0.000000 
#    z 0.000000 0.000000 3.875650 
# 
# 
# High freq. dielectric constant tensor:
#      x y z
#    x 1.847140 0.000000 0.000000 
#    y 0.000000 1.846190 0.000000 
#    z 0.000000 0.000000 1.842040 
# 
# From -- ./inp_files/18601.got.cif
#   From: 2010.03.12/outbox.cif.g09.slc.cpg/sg67_10_cif.got.tgz:18601.got - 2010.04.10 22:41:39.
