data_PCOD8281178
_publ_section_title
;
Structure prediction by ZEFSAII (Michael W. Deem and Ramdas Pophale) SiO2 
 PCOD8281178
Probable space group: C M M A
;
_chemical_formula_sum "Si O2"
_cell_formula_units_Z 96
_cell_length_a 14.742329
_cell_length_b 14.405044
_cell_length_c 22.208343
_cell_angle_alpha 90.000000
_cell_angle_beta 90.000000
_cell_angle_gamma 90.000000
_cell_volume 4716.250286
_symmetry_space_group_name_H-M "C M M A"
_symmetry_group_IT_number 67
_symmetry_cell_setting 'orthorhombic'
loop_
_space_group_symop_operation_xyz
x,y,z
-x,1/2-y,z
x,-y,-z
-x,1/2+y,-z
-x,-y,-z
x,1/2+y,-z
-x,y,z
x,1/2-y,z
1/2+x,1/2+y,z
1/2-x,-y,z
1/2+x,1/2-y,-z
1/2-x,y,-z
1/2-x,1/2-y,-z
1/2+x,y,-z
1/2-x,1/2+y,z
1/2+x,-y,z
loop_
_atom_site_type_symbol
_atom_site_label
_atom_site_fract_x
_atom_site_fract_y
_atom_site_fract_z
Si Si1 0.500000 0.637917 0.191579
Si Si2 0.000000 0.857411 0.432201
Si Si3 0.340527 0.603827 0.978639
Si Si4 0.000000 0.642683 0.574848
Si Si5 0.856639 0.502176 0.382205
Si Si6 0.500000 0.152280 0.939297
Si Si7 0.101496 0.851793 0.149286
Si Si8 0.145391 0.002864 0.240486
O O1 0.500000 0.750000 0.200372
O O2 0.500000 0.592494 0.122580
O O3 0.591786 0.597003 0.222077
O O4 0.000000 0.862463 0.503544
O O5 0.000000 0.750000 0.410058
O O6 0.091634 0.908651 0.409816
O O7 0.343321 0.606563 0.906594
O O8 0.341723 0.500000 0.000000
O O9 0.250000 0.655286 0.000000
O O10 0.418371 0.651823 0.015118
O O11 0.908441 0.592038 0.598144
O O12 0.000000 0.750000 0.597223
O O13 0.750000 0.500000 0.402519
O O14 0.863873 0.511829 0.311036
O O15 0.500000 0.250000 0.905415
O O16 0.140529 0.750000 0.166298
O O17 0.000000 0.842275 0.125288
O O18 0.101281 0.914926 0.208169
O O19 0.250000 0.000000 0.220009
#
# Coordination Sequence:
#
# PCOD8281178 Si02
#       8
#     8   8  16   8  16   8  16  16
#     4  11  24  42  66  90 121 165 209 265 325 385
#     4  10  22  39  64 100 136 169 213 266 314 373
#     4  11  24  39  61  85 113 154 196 254 320 381
#     4  10  22  40  65  99 136 171 213 264 315 371
#     4  10  22  41  64  92 128 176 217 263 315 375
#     4  11  23  39  56  81 113 143 191 249 305 381
#     4  11  24  41  62  87 118 158 205 259 321 385
#     4  11  25  43  64  91 127 164 215 266 315 376
#
# _framework density 20.355153999999999
#
# number of rings (size 3 to 8) (size 9 to 14) (size 15 to 20)
#    0.000    1.333    1.667    3.750    4.667    6.000 
#    0.000    5.000    0.000    0.000    0.000    0.000 
#    0.000    0.000    0.000    0.000    0.000    0.000 
#
# Total GULP energy -594687.394616 kJ/mol
# GULP energy per Si atom -12389.320721 kJ/mol
# Density = 2.030882 g / cm^3
# Si number density = 20.355154 Si / 1000 Ang^3
#
#
#
# Elastic Constant Matrix: (Units=GPa)
#
#
# Indices 1 2 3 4 5 6 
#
# 1 166.1180 59.9488 43.0304 0.0000 0.0000 0.0000
# 2 59.9488 156.8030 44.7909 0.0000 0.0000 0.0000
# 3 43.0304 44.7909 110.2890 0.0000 0.0000 0.0000
# 4 0.0000 0.0000 0.0000 19.9917 0.0000 0.0000
# 5 0.0000 0.0000 0.0000 0.0000 25.8514 0.0000
# 6 0.0000 0.0000 0.0000 0.0000 0.0000 52.5128
#
#
#
# Elastic Compliance Matrix: (Units=1/GPa)
#
#
# Indices 1 2 3 4 5 6 
#
# 1 0.007336 -0.002248 -0.001949 0.000000 0.000000 0.000000
# 2 -0.002248 0.007903 -0.002333 0.000000 0.000000 0.000000
# 3 -0.001949 -0.002333 0.010775 0.000000 0.000000 0.000000
# 4 0.000000 0.000000 0.000000 0.050021 0.000000 0.000000
# 5 0.000000 0.000000 0.000000 0.000000 0.038683 0.000000
# 6 0.000000 0.000000 0.000000 0.000000 0.000000 0.019043
#
#
# Mechanical properties :
#
#
# Convention : Reuss Voigt Hill
#
# Bulk Modulus (GPa) = 77.19318 80.97222 79.08270
# Shear Modulus (GPa) = 33.08233 38.70052 35.89142
#
# Velocity S-wave (km/s) = 4.03582 4.36508 4.20367
# Velocity P-wave (km/s) = 7.72804 8.07907 7.90550
#
# Compressibility (1/GPa) = 0.01295451
#
# Stress axis : x y z
#
# Youngs Moduli (GPa) = 136.31480 126.53187 92.80778
#
# Poissons Ratio (x) = 0.28443 0.18091
# Poissons Ratio (y) = 0.30642 0.21649
# Poissons Ratio (z) = 0.26572 0.29515
#
# Static dielectric constant tensor:
#      x y z
#    x 3.939660 0.000000 0.000000 
#    y 0.000000 3.798280 0.000000 
#    z 0.000000 0.000000 3.767190 
# 
# 
# High freq. dielectric constant tensor:
#      x y z
#    x 1.803950 0.000000 0.000000 
#    y 0.000000 1.800870 0.000000 
#    z 0.000000 0.000000 1.804540 
# 
# From -- ./inp_files/38559.got.cif
#   From: 2010.03.12/outbox.cif.g09.slc.cpg/sg67_20_cif.got.tgz:38559.got - 2010.04.10 22:41:39.
