data_PCOD8281795
_publ_section_title
;
Structure prediction by ZEFSAII (Michael W. Deem and Ramdas Pophale) SiO2 
 PCOD8281795
Probable space group: C C C A
;
_chemical_formula_sum "Si O2"
_cell_formula_units_Z 76
_cell_length_a 23.888906
_cell_length_b 14.177791
_cell_length_c 12.575749
_cell_angle_alpha 90.000000
_cell_angle_beta 90.000000
_cell_angle_gamma 90.000000
_cell_volume 4259.304530
_symmetry_space_group_name_H-M "C C C A"
_symmetry_group_IT_number 68
_space_group.IT_coordinate_system_code '2'
_symmetry_cell_setting 'orthorhombic'
loop_
_space_group_symop_operation_xyz
x,y,z
-x,1/2-y,z
x,1/2-y,1/2-z
-x,y,1/2-z
-x,-y,-z
x,1/2+y,-z
-x,1/2+y,1/2+z
x,-y,1/2+z
1/2+x,1/2+y,z
1/2-x,-y,z
1/2+x,-y,1/2-z
1/2-x,1/2+y,1/2-z
1/2-x,1/2-y,-z
1/2+x,y,-z
1/2-x,y,1/2+z
1/2+x,1/2-y,1/2+z
loop_
_atom_site_type_symbol
_atom_site_label
_atom_site_fract_x
_atom_site_fract_y
_atom_site_fract_z
Si Si1 0.100929 0.333099 0.135260
Si Si2 0.750000 0.000000 0.617648
Si Si3 0.719239 0.353912 0.210526
Si Si4 0.000000 0.750000 0.750000
Si Si5 0.347281 0.551530 0.966427
Si Si6 0.655354 0.363423 0.648171
O O1 0.135634 0.381598 0.230962
O O2 0.129759 0.233675 0.104469
O O3 0.037529 0.316328 0.174193
O O4 0.101534 0.400152 0.031596
O O5 0.780914 0.077406 0.688969
O O6 0.705195 0.051879 0.544778
O O7 0.706266 0.250000 0.250000
O O8 0.668640 0.385247 0.134801
O O9 0.777482 0.359800 0.146114
O O10 0.365436 0.447410 0.928434
#
# Coordination Sequence:
#
# PCOD8281795 Si02
#       6
#    16   8  16   4  16  16
#     4  10  21  38  59  78 105 146 187 244 274 326
#     4  12  20  32  48  76 124 156 176 216 252 342
#     4  12  21  32  46  79 119 151 183 215 262 332
#     4   8  20  44  64  76 102 134 204 252 276 310
#     4  12  21  32  54  82 114 152 185 217 278 330
#     4  10  18  35  51  79 113 144 184 218 267 338
#
# _framework density 17.843287
#
# number of rings (size 3 to 8) (size 9 to 14) (size 15 to 20)
#    0.000    1.263    8.421    0.000    2.947    1.684 
#    0.000    4.211    0.000    0.000    0.000    0.000 
#    0.000    0.000    0.000    0.000    0.000    0.000 
#
# Total GULP energy -471242.731911 kJ/mol
# GULP energy per Si atom -12401.124524 kJ/mol
# Density = 1.780268 g / cm^3
# Si number density = 17.843287 Si / 1000 Ang^3
#
#
#
# Elastic Constant Matrix: (Units=GPa)
#
#
# Indices 1 2 3 4 5 6 
#
# 1 65.2636 19.6150 26.7530 0.0000 0.0000 0.0000
# 2 19.6150 115.8178 71.2206 0.0000 0.0000 0.0000
# 3 26.7530 71.2206 104.9575 0.0000 0.0000 0.0000
# 4 0.0000 0.0000 0.0000 37.0123 0.0000 0.0000
# 5 0.0000 0.0000 0.0000 0.0000 24.6779 0.0000
# 6 0.0000 0.0000 0.0000 0.0000 0.0000 13.2757
#
#
#
# Elastic Compliance Matrix: (Units=1/GPa)
#
#
# Indices 1 2 3 4 5 6 
#
# 1 0.017120 -0.000371 -0.004112 0.000000 0.000000 0.000000
# 2 -0.000371 0.014825 -0.009965 0.000000 0.000000 0.000000
# 3 -0.004112 -0.009965 0.017338 0.000000 0.000000 0.000000
# 4 0.000000 0.000000 0.000000 0.027018 0.000000 0.000000
# 5 0.000000 0.000000 0.000000 0.000000 0.040522 0.000000
# 6 0.000000 0.000000 0.000000 0.000000 0.000000 0.075325
#
#
# Mechanical properties :
#
#
# Convention : Reuss Voigt Hill
#
# Bulk Modulus (GPa) = 49.05252 57.91290 53.48271
# Shear Modulus (GPa) = 21.94525 26.22320 24.08422
#
# Velocity S-wave (km/s) = 3.51078 3.83775 3.67790
# Velocity P-wave (km/s) = 6.63208 7.22251 6.93358
#
# Compressibility (1/GPa) = 0.02038631
#
# Stress axis : x y z
#
# Youngs Moduli (GPa) = 58.41282 67.45335 57.67696
#
# Poissons Ratio (x) = 0.02500 0.23718
# Poissons Ratio (y) = 0.02165 0.57477
# Poissons Ratio (z) = 0.24020 0.67219
#
# Static dielectric constant tensor:
#      x y z
#    x 2.999870 0.000000 0.000000 
#    y 0.000000 3.362170 0.000000 
#    z 0.000000 0.000000 3.374970 
# 
# 
# High freq. dielectric constant tensor:
#      x y z
#    x 1.643070 0.000000 0.000000 
#    y 0.000000 1.698990 0.000000 
#    z 0.000000 0.000000 1.694720 
# 
# From -- ./inp_files/13426.got.cif
#   From: 2010.03.12/outbox.cif.g09.slc.cpg/sg68_7_cif.got.tgz:13426.got - 2010.04.10 23:14:56.
