data_PCOD8281165
_publ_section_title
;
Structure prediction by ZEFSAII (Michael W. Deem and Ramdas Pophale) SiO2 
 PCOD8281165
Probable space group: C M M A
;
_chemical_formula_sum "Si O2"
_cell_formula_units_Z 64
_cell_length_a 9.475931
_cell_length_b 27.151662
_cell_length_c 13.243716
_cell_angle_alpha 90.000000
_cell_angle_beta 90.000000
_cell_angle_gamma 90.000000
_cell_volume 3407.439609
_symmetry_space_group_name_H-M "C M M A"
_symmetry_group_IT_number 67
_symmetry_cell_setting 'orthorhombic'
loop_
_space_group_symop_operation_xyz
x,y,z
-x,1/2-y,z
x,-y,-z
-x,1/2+y,-z
-x,-y,-z
x,1/2+y,-z
-x,y,z
x,1/2-y,z
1/2+x,1/2+y,z
1/2-x,-y,z
1/2+x,1/2-y,-z
1/2-x,y,-z
1/2-x,1/2-y,-z
1/2+x,y,-z
1/2-x,1/2+y,z
1/2+x,-y,z
loop_
_atom_site_type_symbol
_atom_site_label
_atom_site_fract_x
_atom_site_fract_y
_atom_site_fract_z
Si Si1 0.500000 0.542483 0.143776
Si Si2 0.167070 0.450502 0.599096
Si Si3 0.337269 0.194278 0.900712
Si Si4 0.245691 0.396534 0.790107
Si Si5 0.000000 0.066628 0.910576
O O1 0.365280 0.562662 0.200419
O O2 0.500000 0.483856 0.153584
O O3 0.500000 0.558961 0.028655
O O4 0.250000 0.500000 0.634553
O O5 0.250000 0.431261 0.500000
O O6 0.176249 0.406390 0.681180
O O7 0.000000 0.461161 0.578331
O O8 0.500000 0.187486 0.930372
O O9 0.303506 0.250000 0.866075
O O10 0.302228 0.159091 0.805035
O O11 0.250000 0.179952 0.000000
O O12 0.137074 0.403070 0.881433
#
# Coordination Sequence:
#
# PCOD8281165 Si02
#       5
#     8  16  16  16   8
#     4  11  22  34  54  80 118 163 188 234 274 351
#     4  11  24  40  62  87 118 154 201 249 295 349
#     4  10  22  39  60  86 116 155 202 249 295 347
#     4  12  23  36  58  84 116 158 198 239 292 345
#     4  11  22  36  50  82 122 153 198 226 282 347
#
# _framework density 18.782430999999999
#
# number of rings (size 3 to 8) (size 9 to 14) (size 15 to 20)
#    0.000    1.000    2.500    6.000    5.250    2.000 
#    0.000    0.000    0.000    0.750    0.000    0.000 
#    0.000    0.000    0.000    0.000    0.000    0.000 
#
# Total GULP energy -396736.375621 kJ/mol
# GULP energy per Si atom -12398.011738 kJ/mol
# Density = 1.873968 g / cm^3
# Si number density = 18.782431 Si / 1000 Ang^3
#
#
#
# Elastic Constant Matrix: (Units=GPa)
#
#
# Indices 1 2 3 4 5 6 
#
# 1 130.1007 26.4704 28.5608 0.0000 0.0000 0.0000
# 2 26.4704 90.5560 49.1841 0.0000 0.0000 0.0000
# 3 28.5608 49.1841 74.1259 0.0000 0.0000 0.0000
# 4 0.0000 0.0000 0.0000 28.0287 0.0000 0.0000
# 5 0.0000 0.0000 0.0000 0.0000 29.7429 0.0000
# 6 0.0000 0.0000 0.0000 0.0000 0.0000 27.2395
#
#
#
# Elastic Compliance Matrix: (Units=1/GPa)
#
#
# Indices 1 2 3 4 5 6 
#
# 1 0.008466 -0.001099 -0.002533 0.000000 0.000000 0.000000
# 2 -0.001099 0.017407 -0.011127 0.000000 0.000000 0.000000
# 3 -0.002533 -0.011127 0.021849 0.000000 0.000000 0.000000
# 4 0.000000 0.000000 0.000000 0.035678 0.000000 0.000000
# 5 0.000000 0.000000 0.000000 0.000000 0.033621 0.000000
# 6 0.000000 0.000000 0.000000 0.000000 0.000000 0.036711
#
#
# Mechanical properties :
#
#
# Convention : Reuss Voigt Hill
#
# Bulk Modulus (GPa) = 54.92802 55.91258 55.42030
# Shear Modulus (GPa) = 26.41048 29.70671 28.05859
#
# Velocity S-wave (km/s) = 3.75390 3.98128 3.86926
# Velocity P-wave (km/s) = 6.93519 7.13914 7.03790
#
# Compressibility (1/GPa) = 0.01820565
#
# Stress axis : x y z
#
# Youngs Moduli (GPa) = 118.11994 57.44654 45.76823
#
# Poissons Ratio (x) = 0.06314 0.11592
# Poissons Ratio (y) = 0.12983 0.50925
# Poissons Ratio (z) = 0.29916 0.63919
#
# Static dielectric constant tensor:
#      x y z
#    x 3.698580 0.000000 0.000000 
#    y 0.000000 3.428860 0.000000 
#    z 0.000000 0.000000 3.252290 
# 
# 
# High freq. dielectric constant tensor:
#      x y z
#    x 1.755120 0.000000 0.000000 
#    y 0.000000 1.711460 0.000000 
#    z 0.000000 0.000000 1.709320 
# 
# From -- ./inp_files/25240.got.cif
#   From: 2010.03.12/outbox.cif.g09.slc.cpg/sg67_13_cif.got.tgz:25240.got - 2010.04.10 22:41:39.
