data_PCOD8281513
_publ_section_title
;
Structure prediction by ZEFSAII (Michael W. Deem and Ramdas Pophale) SiO2 
 PCOD8281513
Probable space group: C M M A
;
_chemical_formula_sum "Si O2"
_cell_formula_units_Z 48
_cell_length_a 12.657612
_cell_length_b 14.639994
_cell_length_c 12.628478
_cell_angle_alpha 90.000000
_cell_angle_beta 90.000000
_cell_angle_gamma 90.000000
_cell_volume 2340.149966
_symmetry_space_group_name_H-M "C M M A"
_symmetry_group_IT_number 67
_symmetry_cell_setting 'orthorhombic'
loop_
_space_group_symop_operation_xyz
x,y,z
-x,1/2-y,z
x,-y,-z
-x,1/2+y,-z
-x,-y,-z
x,1/2+y,-z
-x,y,z
x,1/2-y,z
1/2+x,1/2+y,z
1/2-x,-y,z
1/2+x,1/2-y,-z
1/2-x,y,-z
1/2-x,1/2-y,-z
1/2+x,y,-z
1/2-x,1/2+y,z
1/2+x,-y,z
loop_
_atom_site_type_symbol
_atom_site_label
_atom_site_fract_x
_atom_site_fract_y
_atom_site_fract_z
Si Si1 0.500000 0.596541 0.056962
Si Si2 0.228188 0.895552 0.621460
Si Si3 0.879482 0.250000 0.721681
Si Si4 0.865336 0.750000 0.031223
Si Si5 0.000000 0.645239 0.712015
O O1 0.500000 0.581424 0.183928
O O2 0.500000 0.500000 0.000000
O O3 0.400995 0.656164 0.022226
O O4 0.250000 0.871878 0.500000
O O5 0.312150 0.838506 0.689485
O O6 0.105516 0.873126 0.643930
O O7 0.250000 0.000000 0.648976
O O8 0.893458 0.250000 0.846698
O O9 0.000000 0.250000 0.673405
O O10 0.750000 0.750000 0.000000
O O11 0.000000 0.750000 0.750000
#
# Coordination Sequence:
#
# PCOD8281513 Si02
#       5
#     8  16   8   8   8
#     4  11  25  44  66 100 133 179 220 269 341 389
#     4  11  28  45  70 104 134 182 227 281 345 401
#     4  12  25  43  70 101 141 175 228 285 341 399
#     4  11  23  45  64  98 136 173 227 276 329 404
#     4  12  24  48  72  95 143 179 233 278 333 420
#
# _framework density 20.511506000000001
#
# number of rings (size 3 to 8) (size 9 to 14) (size 15 to 20)
#    0.000    0.667    5.000    2.500    9.333    2.000 
#    0.000    0.000    0.000    0.000    0.000    0.000 
#    0.000    0.000    0.000    0.000    0.000    0.000 
#
# Total GULP energy -297475.796962 kJ/mol
# GULP energy per Si atom -12394.824873 kJ/mol
# Density = 2.046482 g / cm^3
# Si number density = 20.511506 Si / 1000 Ang^3
#
#
#
# Elastic Constant Matrix: (Units=GPa)
#
#
# Indices 1 2 3 4 5 6 
#
# 1 225.8301 60.1364 59.7929 0.0000 0.0000 0.0000
# 2 60.1364 132.2301 37.3074 0.0000 0.0000 0.0000
# 3 59.7929 37.3074 133.7408 0.0000 0.0000 0.0000
# 4 0.0000 0.0000 0.0000 20.8037 0.0000 0.0000
# 5 0.0000 0.0000 0.0000 0.0000 32.6396 0.0000
# 6 0.0000 0.0000 0.0000 0.0000 0.0000 -23.5364
#
#
#
# Elastic Compliance Matrix: (Units=1/GPa)
#
#
# Indices 1 2 3 4 5 6 
#
# 1 0.005447 -0.001943 -0.001893 0.000000 0.000000 0.000000
# 2 -0.001943 0.008902 -0.001614 0.000000 0.000000 0.000000
# 3 -0.001893 -0.001614 0.008774 0.000000 0.000000 0.000000
# 4 0.000000 0.000000 0.000000 0.048068 0.000000 0.000000
# 5 0.000000 0.000000 0.000000 0.000000 0.030638 0.000000
# 6 0.000000 0.000000 0.000000 0.000000 0.000000 -0.042487
#
#
# Mechanical properties :
#
#
# Convention : Reuss Voigt Hill
#
# Bulk Modulus (GPa) = 81.82527 89.58604 85.70566
# Shear Modulus (GPa) = 67.28047 28.28568 47.78308
#
# Velocity S-wave (km/s) = 5.73346 3.71754 4.83180
# Velocity P-wave (km/s) = 9.15473 7.88655 8.54420
#
# Compressibility (1/GPa) = 0.01222116
#
# Stress axis : x y z
#
# Youngs Moduli (GPa) = 183.59581 112.33776 113.97432
#
# Poissons Ratio (x) = 0.21827 0.21577
# Poissons Ratio (y) = 0.35672 0.18401
# Poissons Ratio (z) = 0.34757 0.18137
#
# Static dielectric constant tensor:
#      x y z
#    x 4.020060 0.000000 0.000000 
#    y 0.000000 3.989910 0.000000 
#    z 0.000000 0.000000 3.754380 
# 
# 
# High freq. dielectric constant tensor:
#      x y z
#    x 1.824920 0.000000 0.000000 
#    y 0.000000 1.810400 0.000000 
#    z 0.000000 0.000000 1.811890 
# 
# From -- ./inp_files/25510.got.cif
#   From: 2010.03.12/outbox.cif.g09.slc.cpg/sg67_13_cif.got.tgz:25510.got - 2010.04.10 22:41:39.
