data_PCOD8281624
_publ_section_title
;
Structure prediction by ZEFSAII (Michael W. Deem and Ramdas Pophale) SiO2 
 PCOD8281624
Probable space group: C C C A
;
_chemical_formula_sum "Si O2"
_cell_formula_units_Z 56
_cell_length_a 30.537892
_cell_length_b 5.262626
_cell_length_c 15.489574
_cell_angle_alpha 90.000000
_cell_angle_beta 90.000000
_cell_angle_gamma 90.000000
_cell_volume 2489.321761
_symmetry_space_group_name_H-M "C C C A"
_symmetry_group_IT_number 68
_space_group.IT_coordinate_system_code '2'
_symmetry_cell_setting 'orthorhombic'
loop_
_space_group_symop_operation_xyz
x,y,z
-x,1/2-y,z
x,1/2-y,1/2-z
-x,y,1/2-z
-x,-y,-z
x,1/2+y,-z
-x,1/2+y,1/2+z
x,-y,1/2+z
1/2+x,1/2+y,z
1/2-x,-y,z
1/2+x,-y,1/2-z
1/2-x,1/2+y,1/2-z
1/2-x,1/2-y,-z
1/2+x,y,-z
1/2-x,y,1/2+z
1/2+x,1/2-y,1/2+z
loop_
_atom_site_type_symbol
_atom_site_label
_atom_site_fract_x
_atom_site_fract_y
_atom_site_fract_z
Si Si1 0.750000 0.000000 0.198001
Si Si2 0.913154 0.699997 0.412156
Si Si3 0.311416 0.165056 0.449278
Si Si4 0.050115 0.794956 0.600669
O O1 0.733206 0.750000 0.250000
O O2 0.790352 0.888350 0.143219
O O3 0.862979 0.698696 0.439013
O O4 0.943156 0.685168 0.497797
O O5 0.923312 0.443574 0.358823
O O6 0.928711 0.948077 0.358339
O O7 0.295723 0.432361 0.489597
O O8 0.000000 0.750000 0.625532
#
# Coordination Sequence:
#
# PCOD8281624 Si02
#       4
#     8  16  16  16
#     4  12  28  46  62  88 122 158 200 258 326 378
#     4  10  16  27  44  76 110 150 190 229 281 346
#     4  12  21  40  65  90 116 155 207 254 299 370
#     4  10  16  25  41  72 125 158 174 223 303 347
#
# _framework density 22.496085999999998
#
# number of rings (size 3 to 8) (size 9 to 14) (size 15 to 20)
#    0.000    1.143    5.714    6.857    0.000    0.000 
#    0.000    0.000    0.000    0.000    0.000    0.000 
#    0.000   27.429    0.000    0.000    0.000    0.000 
#
# Total GULP energy -346919.380887 kJ/mol
# GULP energy per Si atom -12389.977889 kJ/mol
# Density = 2.244488 g / cm^3
# Si number density = 22.496086 Si / 1000 Ang^3
#
#
#
# Elastic Constant Matrix: (Units=GPa)
#
#
# Indices 1 2 3 4 5 6 
#
# 1 62.1042 41.4295 26.9053 0.0000 0.0000 0.0000
# 2 41.4295 225.2653 20.6308 0.0000 0.0000 0.0000
# 3 26.9053 20.6308 42.3212 0.0000 0.0000 0.0000
# 4 0.0000 0.0000 0.0000********** 0.0000 0.0000
# 5 0.0000 0.0000 0.0000 0.0000 -7.3825 0.0000
# 6 0.0000 0.0000 0.0000 0.0000 0.0000 37.8411
#
#
#
# Elastic Compliance Matrix: (Units=1/GPa)
#
#
# Indices 1 2 3 4 5 6 
#
# 1 0.024228 -0.003188 -0.013849 0.000000 0.000000 0.000000
# 2 -0.003188 0.005066 -0.000443 0.000000 0.000000 0.000000
# 3 -0.013849 -0.000443 0.032649 0.000000 0.000000 0.000000
# 4 0.000000 0.000000 0.000000 -0.000090 0.000000 0.000000
# 5 0.000000 0.000000 0.000000 0.000000 -0.135455 0.000000
# 6 0.000000 0.000000 0.000000 0.000000 0.000000 0.026426
#
#
# Mechanical properties :
#
#
# Convention : Reuss Voigt Hill
#
# Bulk Modulus (GPa) = 37.05888 56.40244 46.73066
# Shear Modulus (GPa) = -1552.24041 -2209.33474 -1880.78758
#
# Velocity S-wave (km/s) = -26.29644 -31.37243 -28.94592
# Velocity P-wave (km/s) = 30.09143 35.87728 33.11098
#
# Compressibility (1/GPa) = 0.02698409
#
# Stress axis : x y z
#
# Youngs Moduli (GPa) = 41.27439 197.39326 30.62863
#
# Poissons Ratio (x) = 0.62920 0.42417
# Poissons Ratio (y) = 0.13156 0.01357
# Poissons Ratio (z) = 0.57161 0.08747
#
# Static dielectric constant tensor:
#      x y z
#    x 4.033280 0.000000 0.000000 
#    y 0.000000 6.585000 0.000000 
#    z 0.000000 0.000000 3.301380 
# 
# 
# High freq. dielectric constant tensor:
#      x y z
#    x 1.891910 0.000000 0.000000 
#    y 0.000000 1.937010 0.000000 
#    z 0.000000 0.000000 1.806660 
# 
# From -- ./inp_files/26207.got.cif
#   From: 2010.03.12/outbox.cif.g09.slc.cpg/sg68_14_cif.got.tgz:26207.got - 2010.04.10 23:14:56.
