data_PCOD8281526
_publ_section_title
;
Structure prediction by ZEFSAII (Michael W. Deem and Ramdas Pophale) SiO2 
 PCOD8281526
Probable space group: C M M A
;
_chemical_formula_sum "Si O2"
_cell_formula_units_Z 80
_cell_length_a 23.730991
_cell_length_b 14.130437
_cell_length_c 10.853796
_cell_angle_alpha 90.000000
_cell_angle_beta 90.000000
_cell_angle_gamma 90.000000
_cell_volume 3639.595525
_symmetry_space_group_name_H-M "C M M A"
_symmetry_group_IT_number 67
_symmetry_cell_setting 'orthorhombic'
loop_
_space_group_symop_operation_xyz
x,y,z
-x,1/2-y,z
x,-y,-z
-x,1/2+y,-z
-x,-y,-z
x,1/2+y,-z
-x,y,z
x,1/2-y,z
1/2+x,1/2+y,z
1/2-x,-y,z
1/2+x,1/2-y,-z
1/2-x,y,-z
1/2-x,1/2-y,-z
1/2+x,y,-z
1/2-x,1/2+y,z
1/2+x,-y,z
loop_
_atom_site_type_symbol
_atom_site_label
_atom_site_fract_x
_atom_site_fract_y
_atom_site_fract_z
Si Si1 0.105345 0.860198 0.684989
Si Si2 0.770454 0.606669 0.627845
Si Si3 0.100593 0.026617 0.866394
Si Si4 0.713236 0.644757 0.881811
Si Si5 0.000000 0.138841 0.473731
Si Si6 0.000000 0.362976 0.748161
O O1 0.099159 0.750000 0.722798
O O2 0.162971 0.881355 0.615205
O O3 0.055664 0.894931 0.596039
O O4 0.102583 0.924067 0.805063
O O5 0.750000 0.500000 0.629305
O O6 0.750000 0.655829 0.500000
O O7 0.749280 0.652787 0.755491
O O8 0.162599 0.071925 0.863091
O O9 0.056745 0.099886 0.809967
O O10 0.079138 0.000000 0.000000
O O11 0.689893 0.750000 0.910383
O O12 0.750000 0.610566 0.000000
O O13 0.000000 0.095275 0.609916
O O14 0.000000 0.250000 0.487135
O O15 0.000000 0.250000 0.755221
#
# Coordination Sequence:
#
# PCOD8281526 Si02
#       6
#    16  16  16  16   8   8
#     4  11  24  44  69  99 138 185 229 284 349 414
#     4  11  24  41  67 103 141 182 235 289 353 414
#     4  12  26  44  70 100 137 179 231 287 340 413
#     4  11  25  45  70  99 137 188 233 283 353 425
#     4   9  23  45  72 101 135 180 230 280 349 419
#     4  11  26  47  72 103 136 177 227 287 349 411
#
# _framework density 21.980464999999999
#
# number of rings (size 3 to 8) (size 9 to 14) (size 15 to 20)
#    0.000    1.000    2.000    3.300    2.800    6.400 
#    0.000    1.000    0.000    0.600    0.000    0.000 
#    0.000    0.000    0.000    0.000    0.000    0.000 
#
# Total GULP energy -495955.684397 kJ/mol
# GULP energy per Si atom -12398.892110 kJ/mol
# Density = 2.193044 g / cm^3
# Si number density = 21.980465 Si / 1000 Ang^3
#
#
#
# Elastic Constant Matrix: (Units=GPa)
#
#
# Indices 1 2 3 4 5 6 
#
# 1 177.7558 59.3181 87.7984 0.0000 0.0000 0.0000
# 2 59.3181 129.6239 48.1388 0.0000 0.0000 0.0000
# 3 87.7984 48.1388 202.0193 0.0000 0.0000 0.0000
# 4 0.0000 0.0000 0.0000 -22.5074 0.0000 0.0000
# 5 0.0000 0.0000 0.0000 0.0000 38.8200 0.0000
# 6 0.0000 0.0000 0.0000 0.0000 0.0000 33.0679
#
#
#
# Elastic Compliance Matrix: (Units=1/GPa)
#
#
# Indices 1 2 3 4 5 6 
#
# 1 0.007867 -0.002556 -0.002810 0.000000 0.000000 0.000000
# 2 -0.002556 0.009294 -0.001104 0.000000 0.000000 0.000000
# 3 -0.002810 -0.001104 0.006434 0.000000 0.000000 0.000000
# 4 0.000000 0.000000 0.000000 -0.044430 0.000000 0.000000
# 5 0.000000 0.000000 0.000000 0.000000 0.025760 0.000000
# 6 0.000000 0.000000 0.000000 0.000000 0.000000 0.030241
#
#
# Mechanical properties :
#
#
# Convention : Reuss Voigt Hill
#
# Bulk Modulus (GPa) = 93.84878 99.98995 96.91937
# Shear Modulus (GPa) = 96.79129 30.81899 63.80514
#
# Velocity S-wave (km/s) = 6.64310 3.74854 5.39362
# Velocity P-wave (km/s) = 10.08118 8.02025 9.10919
#
# Compressibility (1/GPa) = 0.01065544
#
# Stress axis : x y z
#
# Youngs Moduli (GPa) = 127.12030 107.59184 155.42152
#
# Poissons Ratio (x) = 0.27505 0.43668
# Poissons Ratio (y) = 0.32498 0.17154
# Poissons Ratio (z) = 0.35717 0.11875
#
# Static dielectric constant tensor:
#      x y z
#    x 4.030260 0.000000 0.000000 
#    y 0.000000 4.014800 0.000000 
#    z 0.000000 0.000000 4.441030 
# 
# 
# High freq. dielectric constant tensor:
#      x y z
#    x 1.870210 0.000000 0.000000 
#    y 0.000000 1.880840 0.000000 
#    z 0.000000 0.000000 1.877290 
# 
# From -- ./inp_files/21663.got.cif
#   From: 2010.03.12/outbox.cif.g09.slc.cpg/sg67_11_cif.got.tgz:21663.got - 2010.04.10 22:41:39.
