data_PCOD8281072
_publ_section_title
;
Structure prediction by ZEFSAII (Michael W. Deem and Ramdas Pophale) SiO2 
 PCOD8281072
Probable space group: C M M A
;
_chemical_formula_sum "Si O2"
_cell_formula_units_Z 84
_cell_length_a 14.866566
_cell_length_b 13.460886
_cell_length_c 21.786374
_cell_angle_alpha 90.000000
_cell_angle_beta 90.000000
_cell_angle_gamma 90.000000
_cell_volume 4359.827077
_symmetry_space_group_name_H-M "C M M A"
_symmetry_group_IT_number 67
_symmetry_cell_setting 'orthorhombic'
loop_
_space_group_symop_operation_xyz
x,y,z
-x,1/2-y,z
x,-y,-z
-x,1/2+y,-z
-x,-y,-z
x,1/2+y,-z
-x,y,z
x,1/2-y,z
1/2+x,1/2+y,z
1/2-x,-y,z
1/2+x,1/2-y,-z
1/2-x,y,-z
1/2-x,1/2-y,-z
1/2+x,y,-z
1/2-x,1/2+y,z
1/2+x,-y,z
loop_
_atom_site_type_symbol
_atom_site_label
_atom_site_fract_x
_atom_site_fract_y
_atom_site_fract_z
Si Si1 0.000000 0.750000 0.050971
Si Si2 0.000000 0.136152 0.546590
Si Si3 0.351942 0.016355 0.382957
Si Si4 0.500000 0.363900 0.598751
Si Si5 0.312389 0.250000 0.056122
Si Si6 0.500000 0.471172 0.071723
Si Si7 0.664279 0.063726 0.140038
Si Si8 0.895611 0.637391 0.270197
O O1 0.905944 0.750000 0.015997
O O2 0.000000 0.647330 0.089894
O O3 0.000000 0.250000 0.567973
O O4 0.091526 0.086517 0.571217
O O5 0.000000 0.124433 0.474119
O O6 0.340588 0.068243 0.316791
O O7 0.250000 0.000000 0.408333
O O8 0.408551 0.914145 0.375278
O O9 0.500000 0.250000 0.620199
O O10 0.301513 0.346785 0.097397
O O11 0.250000 0.250000 0.000000
O O12 0.407631 0.507656 0.103700
O O13 0.500000 0.500000 0.000000
O O14 0.618542 0.103479 0.201032
O O15 0.750000 0.000000 0.158316
O O16 0.861426 0.750000 0.277341
O O17 0.000000 0.628403 0.287896
#
# Coordination Sequence:
#
# PCOD8281072 Si02
#       8
#     4   8  16   8   8   8  16  16
#     4   8  20  36  56  74 110 144 190 224 274 338
#     4  10  21  40  62  93 131 168 216 257 303 369
#     4  11  22  38  63  93 122 164 214 260 311 367
#     4  10  23  40  59  93 137 173 201 256 320 371
#     4  10  22  38  58  86 116 150 192 235 296 369
#     4  10  22  36  55  83 109 147 187 229 285 361
#     4  11  23  38  59  85 116 150 192 246 303 357
#     4  11  21  39  66  88 114 153 206 260 306 360
#
# _framework density 19.266819999999999
#
# number of rings (size 3 to 8) (size 9 to 14) (size 15 to 20)
#    0.000    1.524    3.810    2.286    5.333    3.048 
#    0.000    1.905    0.000    0.000    2.476    0.000 
#    0.000    0.000    0.000    0.000    0.000    0.000 
#
# Total GULP energy -520467.852550 kJ/mol
# GULP energy per Si atom -12392.091727 kJ/mol
# Density = 1.922297 g / cm^3
# Si number density = 19.266820 Si / 1000 Ang^3
#
#
#
# Elastic Constant Matrix: (Units=GPa)
#
#
# Indices 1 2 3 4 5 6 
#
# 1 134.3641 45.6065 23.2899 0.0000 0.0000 0.0000
# 2 45.6065 106.4949 31.6885 0.0000 0.0000 0.0000
# 3 23.2899 31.6885 87.1375 0.0000 0.0000 0.0000
# 4 0.0000 0.0000 0.0000 -250.3536 0.0000 0.0000
# 5 0.0000 0.0000 0.0000 0.0000 24.9935 0.0000
# 6 0.0000 0.0000 0.0000 0.0000 0.0000 19.9812
#
#
#
# Elastic Compliance Matrix: (Units=1/GPa)
#
#
# Indices 1 2 3 4 5 6 
#
# 1 0.008801 -0.003442 -0.001101 0.000000 0.000000 0.000000
# 2 -0.003442 0.011875 -0.003399 0.000000 0.000000 0.000000
# 3 -0.001101 -0.003399 0.013006 0.000000 0.000000 0.000000
# 4 0.000000 0.000000 0.000000 -0.003994 0.000000 0.000000
# 5 0.000000 0.000000 0.000000 0.000000 0.040010 0.000000
# 6 0.000000 0.000000 0.000000 0.000000 0.000000 0.050047
#
#
# Mechanical properties :
#
#
# Convention : Reuss Voigt Hill
#
# Bulk Modulus (GPa) = 56.17762 58.79626 57.48694
# Shear Modulus (GPa) = 35.32020 -25.91498 4.70261
#
# Velocity S-wave (km/s) = 4.28625 -3.67148 1.56399
# Velocity P-wave (km/s) = 7.32918 3.55107 5.75878
#
# Compressibility (1/GPa) = 0.01780068
#
# Stress axis : x y z
#
# Youngs Moduli (GPa) = 113.61753 84.20814 76.88571
#
# Poissons Ratio (x) = 0.28982 0.08464
# Poissons Ratio (y) = 0.39103 0.26131
# Poissons Ratio (z) = 0.12507 0.28620
#
# Static dielectric constant tensor:
#      x y z
#    x 7.351050 0.000000 0.000000 
#    y 0.000000 3.743460 0.000000 
#    z 0.000000 0.000000 3.447430 
# 
# 
# High freq. dielectric constant tensor:
#      x y z
#    x 1.756750 0.000000 0.000000 
#    y 0.000000 1.744780 0.000000 
#    z 0.000000 0.000000 1.745300 
# 
# From -- ./inp_files/38352.got.cif
#   From: 2010.03.12/outbox.cif.g09.slc.cpg/sg67_20_cif.got.tgz:38352.got - 2010.04.10 22:41:39.
