data_PCOD8281703
_publ_section_title
;
Structure prediction by ZEFSAII (Michael W. Deem and Ramdas Pophale) SiO2 
 PCOD8281703
Probable space group: C C C A
;
_chemical_formula_sum "Si O2"
_cell_formula_units_Z 104
_cell_length_a 14.484076
_cell_length_b 16.327201
_cell_length_c 22.070192
_cell_angle_alpha 90.000000
_cell_angle_beta 90.000000
_cell_angle_gamma 90.000000
_cell_volume 5219.256558
_symmetry_space_group_name_H-M "C C C A"
_symmetry_group_IT_number 68
_space_group.IT_coordinate_system_code '2'
_symmetry_cell_setting 'orthorhombic'
loop_
_space_group_symop_operation_xyz
x,y,z
-x,1/2-y,z
x,1/2-y,1/2-z
-x,y,1/2-z
-x,-y,-z
x,1/2+y,-z
-x,1/2+y,1/2+z
x,-y,1/2+z
1/2+x,1/2+y,z
1/2-x,-y,z
1/2+x,-y,1/2-z
1/2-x,1/2+y,1/2-z
1/2-x,1/2-y,-z
1/2+x,y,-z
1/2-x,y,1/2+z
1/2+x,1/2-y,1/2+z
loop_
_atom_site_type_symbol
_atom_site_label
_atom_site_fract_x
_atom_site_fract_y
_atom_site_fract_z
Si Si1 0.086650 0.370795 0.705961
Si Si2 0.000000 0.250000 0.882847
Si Si3 0.023022 0.068765 0.075839
Si Si4 0.225103 0.407552 0.404909
Si Si5 0.735910 0.097126 0.770169
Si Si6 0.916007 0.392760 0.542318
Si Si7 0.929749 0.947732 0.696637
O O1 0.177564 0.352239 0.744980
O O2 0.101834 0.460848 0.675799
O O3 0.000000 0.367656 0.750000
O O4 0.075085 0.299725 0.656416
O O5 0.949525 0.188299 0.926474
O O6 0.124603 0.108229 0.064705
O O7 0.979699 0.095770 0.139989
O O8 0.040570 0.970968 0.076706
O O9 0.949295 0.100555 0.026952
O O10 0.250000 0.500000 0.390072
O O11 0.221665 0.366003 0.337999
O O12 0.304802 0.381587 0.452532
O O13 0.650846 0.110589 0.723294
O O14 0.750000 0.000000 0.773207
O O15 0.000000 0.963299 0.750000
#
# Coordination Sequence:
#
# PCOD8281703 Si02
#       7
#    16   8  16  16  16  16  16
#     4  10  20  31  52  86 127 155 183 234 299 364
#     4  12  21  38  54  84 123 162 190 238 302 368
#     4  10  19  38  58  85 115 154 200 255 287 343
#     4   9  17  33  56  82 112 150 194 238 292 349
#     4   9  17  29  52  85 119 148 182 236 298 349
#     4  10  22  36  58  83 116 158 201 239 298 353
#     4  10  17  32  58  92 116 145 194 251 298 340
#
# _framework density 19.926210000000001
#
# number of rings (size 3 to 8) (size 9 to 14) (size 15 to 20)
#    0.000    2.154    3.077    1.154    4.308    0.000 
#    2.769    3.077    0.000    0.000    0.000    0.538 
#    0.000    0.000    0.000    0.000    0.000    0.000 
#
# Total GULP energy -644212.878197 kJ/mol
# GULP energy per Si atom -12388.709196 kJ/mol
# Density = 1.988086 g / cm^3
# Si number density = 19.926210 Si / 1000 Ang^3
#
#
#
# Elastic Constant Matrix: (Units=GPa)
#
#
# Indices 1 2 3 4 5 6 
#
# 1 161.7306 33.2390 81.2852 0.0000 0.0000 0.0000
# 2 33.2390 52.7281 28.5771 0.0000 0.0000 0.0000
# 3 81.2852 28.5771 127.4906 0.0000 0.0000 0.0000
# 4 0.0000 0.0000 0.0000 -16.2219 0.0000 0.0000
# 5 0.0000 0.0000 0.0000 0.0000 43.3443 0.0000
# 6 0.0000 0.0000 0.0000 0.0000 0.0000 14.5019
#
#
#
# Elastic Compliance Matrix: (Units=1/GPa)
#
#
# Indices 1 2 3 4 5 6 
#
# 1 0.009521 -0.003087 -0.005378 0.000000 0.000000 0.000000
# 2 -0.003087 0.022589 -0.003095 0.000000 0.000000 0.000000
# 3 -0.005378 -0.003095 0.011967 0.000000 0.000000 0.000000
# 4 0.000000 0.000000 0.000000 -0.061645 0.000000 0.000000
# 5 0.000000 0.000000 0.000000 0.000000 0.023071 0.000000
# 6 0.000000 0.000000 0.000000 0.000000 0.000000 0.068957
#
#
# Mechanical properties :
#
#
# Convention : Reuss Voigt Hill
#
# Bulk Modulus (GPa) = 47.72053 69.79465 58.75759
# Shear Modulus (GPa) = 47.81772 21.58139 34.69956
#
# Velocity S-wave (km/s) = 4.90403 3.29457 4.17754
# Velocity P-wave (km/s) = 7.48776 7.04094 7.26779
#
# Compressibility (1/GPa) = 0.02095534
#
# Stress axis : x y z
#
# Youngs Moduli (GPa) = 105.03549 44.27012 83.56643
#
# Poissons Ratio (x) = 0.13665 0.44944
# Poissons Ratio (y) = 0.32422 0.25865
# Poissons Ratio (z) = 0.56490 0.13702
#
# Static dielectric constant tensor:
#      x y z
#    x 4.086090 0.000000 0.000000 
#    y 0.000000 3.228970 0.000000 
#    z 0.000000 0.000000 3.546530 
# 
# 
# High freq. dielectric constant tensor:
#      x y z
#    x 1.782930 0.000000 0.000000 
#    y 0.000000 1.727840 0.000000 
#    z 0.000000 0.000000 1.770860 
# 
# From -- ./inp_files/45648.got.cif
#   From: 2010.03.12/outbox.cif.g09.slc.cpg/sg68_23_cif.got.tgz:45648.got - 2010.04.10 23:14:56.
