data_PCOD8281842
_publ_section_title
;
Structure prediction by ZEFSAII (Michael W. Deem and Ramdas Pophale) SiO2 
 PCOD8281842
Probable space group: C C C A
;
_chemical_formula_sum "Si O2"
_cell_formula_units_Z 96
_cell_length_a 13.236329
_cell_length_b 18.383135
_cell_length_c 21.200537
_cell_angle_alpha 90.000000
_cell_angle_beta 90.000000
_cell_angle_gamma 90.000000
_cell_volume 5158.625391
_symmetry_space_group_name_H-M "C C C A"
_symmetry_group_IT_number 68
_space_group.IT_coordinate_system_code '2'
_symmetry_cell_setting 'orthorhombic'
loop_
_space_group_symop_operation_xyz
x,y,z
-x,1/2-y,z
x,1/2-y,1/2-z
-x,y,1/2-z
-x,-y,-z
x,1/2+y,-z
-x,1/2+y,1/2+z
x,-y,1/2+z
1/2+x,1/2+y,z
1/2-x,-y,z
1/2+x,-y,1/2-z
1/2-x,1/2+y,1/2-z
1/2-x,1/2-y,-z
1/2+x,y,-z
1/2-x,y,1/2+z
1/2+x,1/2-y,1/2+z
loop_
_atom_site_type_symbol
_atom_site_label
_atom_site_fract_x
_atom_site_fract_y
_atom_site_fract_z
Si Si1 0.197609 0.613568 0.245027
Si Si2 0.130477 0.177735 0.880471
Si Si3 0.426832 0.988472 0.586077
Si Si4 0.106165 0.963922 0.725302
Si Si5 0.601594 0.164612 0.369398
Si Si6 0.647143 0.459539 0.456758
O O1 0.198315 0.657068 0.179604
O O2 0.133895 0.538882 0.239021
O O3 0.313933 0.598125 0.259853
O O4 0.153335 0.661261 0.301384
O O5 0.145080 0.261907 0.902277
O O6 0.157596 0.125766 0.939452
O O7 0.016993 0.168123 0.856295
O O8 0.381773 0.905855 0.585914
O O9 0.548718 0.992264 0.578850
O O10 0.395143 0.025959 0.650478
O O11 0.370600 0.032775 0.531282
O O12 0.000000 0.935085 0.750000
O O13 0.750000 0.500000 0.435073
#
# Coordination Sequence:
#
# PCOD8281842 Si02
#       6
#    16  16  16  16  16  16
#     4  10  19  29  54  82 109 143 177 230 284 332
#     4  10  19  32  54  86 111 137 184 232 284 320
#     4   9  20  37  53  80 111 144 183 224 286 326
#     4  10  20  32  52  81 111 142 183 231 277 332
#     4   9  18  34  55  80 112 142 178 237 279 330
#     4  10  21  33  57  81 108 144 181 235 269 333
#
# _framework density 18.609608999999999
#
# number of rings (size 3 to 8) (size 9 to 14) (size 15 to 20)
#    0.000    2.333    0.000    4.000    9.333    1.333 
#    0.000    0.833    0.000    2.000    0.000    0.000 
#    0.000    0.000    0.000    0.000    0.000    0.000 
#
# Total GULP energy -595080.537617 kJ/mol
# GULP energy per Si atom -12397.511200 kJ/mol
# Density = 1.856725 g / cm^3
# Si number density = 18.609609 Si / 1000 Ang^3
#
#
#
# Elastic Constant Matrix: (Units=GPa)
#
#
# Indices 1 2 3 4 5 6 
#
# 1 97.9900 49.9041 37.2135 0.0000 0.0000 0.0000
# 2 49.9041 120.0613 71.2202 0.0000 0.0000 0.0000
# 3 37.2135 71.2202 96.2733 0.0000 0.0000 0.0000
# 4 0.0000 0.0000 0.0000 23.1533 0.0000 0.0000
# 5 0.0000 0.0000 0.0000 0.0000 19.0297 0.0000
# 6 0.0000 0.0000 0.0000 0.0000 0.0000 22.1433
#
#
#
# Elastic Compliance Matrix: (Units=1/GPa)
#
#
# Indices 1 2 3 4 5 6 
#
# 1 0.013128 -0.004360 -0.001849 0.000000 0.000000 0.000000
# 2 -0.004360 0.016290 -0.010366 0.000000 0.000000 0.000000
# 3 -0.001849 -0.010366 0.018770 0.000000 0.000000 0.000000
# 4 0.000000 0.000000 0.000000 0.043190 0.000000 0.000000
# 5 0.000000 0.000000 0.000000 0.000000 0.052549 0.000000
# 6 0.000000 0.000000 0.000000 0.000000 0.000000 0.045160
#
#
# Mechanical properties :
#
#
# Convention : Reuss Voigt Hill
#
# Bulk Modulus (GPa) = 66.49517 70.11114 68.30316
# Shear Modulus (GPa) = 22.00215 23.26438 22.63326
#
# Velocity S-wave (km/s) = 3.44219 3.53955 3.49121
# Velocity P-wave (km/s) = 7.18383 7.37977 7.28246
#
# Compressibility (1/GPa) = 0.01503869
#
# Stress axis : x y z
#
# Youngs Moduli (GPa) = 76.17500 61.38670 53.27578
#
# Poissons Ratio (x) = 0.26762 0.09852
# Poissons Ratio (y) = 0.33209 0.55225
# Poissons Ratio (z) = 0.14087 0.63632
#
# Static dielectric constant tensor:
#      x y z
#    x 3.434330 0.000000 0.000000 
#    y 0.000000 3.523330 0.000000 
#    z 0.000000 0.000000 3.231300 
# 
# 
# High freq. dielectric constant tensor:
#      x y z
#    x 1.719010 0.000000 0.000000 
#    y 0.000000 1.704450 0.000000 
#    z 0.000000 0.000000 1.711600 
# 
# From -- ./inp_files/37675.got.cif
#   From: 2010.03.12/outbox.cif.g09.slc.cpg/sg68_19_cif.got.tgz:37675.got - 2010.04.10 23:14:56.
