data_PCOD8281824
_publ_section_title
;
Structure prediction by ZEFSAII (Michael W. Deem and Ramdas Pophale) SiO2 
 PCOD8281824
Probable space group: C C C A
;
_chemical_formula_sum "Si O2"
_cell_formula_units_Z 116
_cell_length_a 24.724016
_cell_length_b 23.420022
_cell_length_c 9.856905
_cell_angle_alpha 90.000000
_cell_angle_beta 90.000000
_cell_angle_gamma 90.000000
_cell_volume 5707.512687
_symmetry_space_group_name_H-M "C C C A"
_symmetry_group_IT_number 68
_space_group.IT_coordinate_system_code '2'
_symmetry_cell_setting 'orthorhombic'
loop_
_space_group_symop_operation_xyz
x,y,z
-x,1/2-y,z
x,1/2-y,1/2-z
-x,y,1/2-z
-x,-y,-z
x,1/2+y,-z
-x,1/2+y,1/2+z
x,-y,1/2+z
1/2+x,1/2+y,z
1/2-x,-y,z
1/2+x,-y,1/2-z
1/2-x,1/2+y,1/2-z
1/2-x,1/2-y,-z
1/2+x,y,-z
1/2-x,y,1/2+z
1/2+x,1/2-y,1/2+z
loop_
_atom_site_type_symbol
_atom_site_label
_atom_site_fract_x
_atom_site_fract_y
_atom_site_fract_z
Si Si1 0.194418 0.969995 0.849445
Si Si2 0.147716 0.960143 0.570161
Si Si3 0.568362 0.294922 0.476113
Si Si4 0.713714 0.162636 0.673342
Si Si5 0.310947 0.338773 0.984329
Si Si6 0.896486 0.201863 0.139433
Si Si7 0.000000 0.250000 0.750000
Si Si8 0.946692 0.610774 0.680973
O O1 0.176154 0.988738 0.699903
O O2 0.201393 0.902875 0.856506
O O3 0.250000 0.000000 0.890474
O O4 0.147845 0.991211 0.954555
O O5 0.182092 0.906867 0.514308
O O6 0.087039 0.939843 0.609988
O O7 0.631756 0.310860 0.477874
O O8 0.565851 0.227151 0.519367
O O9 0.538404 0.293885 0.332718
O O10 0.537180 0.339816 0.573327
O O11 0.769936 0.180283 0.603163
O O12 0.666646 0.198401 0.597498
O O13 0.711580 0.178203 0.834298
O O14 0.904876 0.250000 0.250000
O O15 0.911852 0.139778 0.198301
O O16 0.000000 0.584220 0.750000
#
# Coordination Sequence:
#
# PCOD8281824 Si02
#       8
#    16  16  16  16  16  16   4  16
#     4  11  20  34  60  86 119 158 201 248 298 364
#     4  10  21  36  56  90 117 153 206 252 299 361
#     4  10  22  39  59  87 121 155 207 253 310 361
#     4  11  21  36  59  90 126 163 202 243 313 368
#     4  10  21  38  56  88 127 161 198 249 297 382
#     4  10  18  38  60  86 113 154 209 242 294 379
#     4  12  24  40  58  92 120 160 204 270 306 360
#     4  10  19  38  65  82 112 156 206 260 300 358
#
# _framework density 20.324090000000002
#
# number of rings (size 3 to 8) (size 9 to 14) (size 15 to 20)
#    0.000    1.655    6.897    1.241    1.931    3.586 
#    1.241    2.069    0.000    0.000    0.000    0.000 
#    0.000    0.000    0.000    0.000    0.000    0.000 
#
# Total GULP energy -718713.090251 kJ/mol
# GULP energy per Si atom -12391.605004 kJ/mol
# Density = 2.027783 g / cm^3
# Si number density = 20.324090 Si / 1000 Ang^3
#
#
#
# Elastic Constant Matrix: (Units=GPa)
#
#
# Indices 1 2 3 4 5 6 
#
# 1 105.5183 19.7190 59.3827 0.0000 0.0000 0.0000
# 2 19.7190 40.7529 33.0189 0.0000 0.0000 0.0000
# 3 59.3827 33.0189 109.6221 0.0000 0.0000 0.0000
# 4 0.0000 0.0000 0.0000 16.1665 0.0000 0.0000
# 5 0.0000 0.0000 0.0000 0.0000 46.6827 0.0000
# 6 0.0000 0.0000 0.0000 0.0000 0.0000 20.6279
#
#
#
# Elastic Compliance Matrix: (Units=1/GPa)
#
#
# Indices 1 2 3 4 5 6 
#
# 1 0.013653 -0.000812 -0.007151 0.000000 0.000000 0.000000
# 2 -0.000812 0.032508 -0.009352 0.000000 0.000000 0.000000
# 3 -0.007151 -0.009352 0.015813 0.000000 0.000000 0.000000
# 4 0.000000 0.000000 0.000000 0.061856 0.000000 0.000000
# 5 0.000000 0.000000 0.000000 0.000000 0.021421 0.000000
# 6 0.000000 0.000000 0.000000 0.000000 0.000000 0.048478
#
#
# Mechanical properties :
#
#
# Convention : Reuss Voigt Hill
#
# Bulk Modulus (GPa) = 36.57126 53.34825 44.95976
# Shear Modulus (GPa) = 21.05481 26.28027 23.66754
#
# Velocity S-wave (km/s) = 3.22211 3.59982 3.41619
# Velocity P-wave (km/s) = 5.64587 6.60182 6.14247
#
# Compressibility (1/GPa) = 0.02734387
#
# Stress axis : x y z
#
# Youngs Moduli (GPa) = 73.24149 30.76157 63.23898
#
# Poissons Ratio (x) = 0.02498 0.45225
# Poissons Ratio (y) = 0.05948 0.59139
# Poissons Ratio (z) = 0.52379 0.28767
#
# Static dielectric constant tensor:
#      x y z
#    x 3.719620 0.000000 0.000000 
#    y 0.000000 3.817520 0.000000 
#    z 0.000000 0.000000 3.998440 
# 
# 
# High freq. dielectric constant tensor:
#      x y z
#    x 1.794050 0.000000 0.000000 
#    y 0.000000 1.777850 0.000000 
#    z 0.000000 0.000000 1.779840 
# 
# From -- ./inp_files/9152.got.cif
#   From: 2010.03.12/outbox.cif.g09.slc.cpg/sg68_5_cif.got.tgz:9152.got - 2010.04.10 23:14:56.
