data_PCOD8281203
_publ_section_title
;
Structure prediction by ZEFSAII (Michael W. Deem and Ramdas Pophale) SiO2 
 PCOD8281203
Probable space group: C M M A
;
_chemical_formula_sum "Si O2"
_cell_formula_units_Z 80
_cell_length_a 26.230353
_cell_length_b 10.037137
_cell_length_c 16.675704
_cell_angle_alpha 90.000000
_cell_angle_beta 90.000000
_cell_angle_gamma 90.000000
_cell_volume 4390.340105
_symmetry_space_group_name_H-M "C M M A"
_symmetry_group_IT_number 67
_symmetry_cell_setting 'orthorhombic'
loop_
_space_group_symop_operation_xyz
x,y,z
-x,1/2-y,z
x,-y,-z
-x,1/2+y,-z
-x,-y,-z
x,1/2+y,-z
-x,y,z
x,1/2-y,z
1/2+x,1/2+y,z
1/2-x,-y,z
1/2+x,1/2-y,-z
1/2-x,y,-z
1/2-x,1/2-y,-z
1/2+x,y,-z
1/2-x,1/2+y,z
1/2+x,-y,z
loop_
_atom_site_type_symbol
_atom_site_label
_atom_site_fract_x
_atom_site_fract_y
_atom_site_fract_z
Si Si1 0.059605 0.250000 0.109496
Si Si2 0.203343 0.595336 0.259786
Si Si3 0.558304 0.750000 0.919946
Si Si4 0.401073 0.484783 0.182305
Si Si5 0.655883 0.597817 0.568829
Si Si6 0.943310 0.404022 0.656013
O O1 0.090935 0.372545 0.144121
O O2 0.000000 0.250000 0.135322
O O3 0.064159 0.250000 0.014575
O O4 0.215349 0.750000 0.239134
O O5 0.250000 0.500000 0.237697
O O6 0.156918 0.542192 0.206815
O O7 0.191224 0.581694 0.353808
O O8 0.500000 0.750000 0.892695
O O9 0.584289 0.880391 0.885371
O O10 0.436977 0.480328 0.260519
O O11 0.676787 0.500000 0.500000
O O12 0.657079 0.750000 0.537230
O O13 0.598053 0.551631 0.590095
O O14 0.932980 0.250000 0.676950
O O15 0.000000 0.429421 0.621480
#
# Coordination Sequence:
#
# PCOD8281203 Si02
#       6
#     8  16   8  16  16  16
#     4  11  24  34  53  93 126 149 181 227 281 329
#     4  10  22  40  63  85 106 146 196 237 286 336
#     4  11  20  36  61  85 116 157 187 219 275 341
#     4  11  20  37  57  83 117 150 191 235 275 333
#     4   9  19  35  52  79 112 141 181 228 277 334
#     4   9  16  30  54  76 103 151 194 222 265 332
#
# _framework density 18.221823000000001
#
# number of rings (size 3 to 8) (size 9 to 14) (size 15 to 20)
#    0.000    2.000    2.000    3.600    1.400    3.200 
#    5.400    2.000    0.000    3.600    0.000    0.000 
#    0.000    0.000    0.000    0.000    0.000    0.000 
#
# Total GULP energy -495998.706521 kJ/mol
# GULP energy per Si atom -12399.967663 kJ/mol
# Density = 1.818035 g / cm^3
# Si number density = 18.221823 Si / 1000 Ang^3
#
#
#
# Elastic Constant Matrix: (Units=GPa)
#
#
# Indices 1 2 3 4 5 6 
#
# 1 103.1092 52.9887 30.8284 0.0000 0.0000 0.0000
# 2 52.9887 142.9856 54.3434 0.0000 0.0000 0.0000
# 3 30.8284 54.3434 73.6044 0.0000 0.0000 0.0000
# 4 0.0000 0.0000 0.0000 35.4876 0.0000 0.0000
# 5 0.0000 0.0000 0.0000 0.0000 15.7948 0.0000
# 6 0.0000 0.0000 0.0000 0.0000 0.0000 32.7064
#
#
#
# Elastic Compliance Matrix: (Units=1/GPa)
#
#
# Indices 1 2 3 4 5 6 
#
# 1 0.012298 -0.003614 -0.002483 0.000000 0.000000 0.000000
# 2 -0.003614 0.010784 -0.006448 0.000000 0.000000 0.000000
# 3 -0.002483 -0.006448 0.019387 0.000000 0.000000 0.000000
# 4 0.000000 0.000000 0.000000 0.028179 0.000000 0.000000
# 5 0.000000 0.000000 0.000000 0.000000 0.063312 0.000000
# 6 0.000000 0.000000 0.000000 0.000000 0.000000 0.030575
#
#
# Mechanical properties :
#
#
# Convention : Reuss Voigt Hill
#
# Bulk Modulus (GPa) = 57.54072 66.22446 61.88259
# Shear Modulus (GPa) = 25.58638 28.90035 27.24336
#
# Velocity S-wave (km/s) = 3.75128 3.98682 3.87084
# Velocity P-wave (km/s) = 7.09995 7.59048 7.34931
#
# Compressibility (1/GPa) = 0.01737900
#
# Stress axis : x y z
#
# Youngs Moduli (GPa) = 81.31431 92.73276 51.58161
#
# Poissons Ratio (x) = 0.33513 0.12806
# Poissons Ratio (y) = 0.29386 0.33261
# Poissons Ratio (z) = 0.20188 0.59795
#
# Static dielectric constant tensor:
#      x y z
#    x 3.365440 0.000000 0.000000 
#    y 0.000000 3.304830 0.000000 
#    z 0.000000 0.000000 3.212920 
# 
# 
# High freq. dielectric constant tensor:
#      x y z
#    x 1.704650 0.000000 0.000000 
#    y 0.000000 1.706270 0.000000 
#    z 0.000000 0.000000 1.696690 
# 
# From -- ./inp_files/32189.got.cif
#   From: 2010.03.12/outbox.cif.g09.slc.cpg/sg67_17_cif.got.tgz:32189.got - 2010.04.10 22:41:39.
