data_PCOD8281753
_publ_section_title
;
Structure prediction by ZEFSAII (Michael W. Deem and Ramdas Pophale) SiO2 
 PCOD8281753
Probable space group: C C C A
;
_chemical_formula_sum "Si O2"
_cell_formula_units_Z 88
_cell_length_a 22.438599
_cell_length_b 20.874931
_cell_length_c 9.646186
_cell_angle_alpha 90.000000
_cell_angle_beta 90.000000
_cell_angle_gamma 90.000000
_cell_volume 4518.314093
_symmetry_space_group_name_H-M "C C C A"
_symmetry_group_IT_number 68
_space_group.IT_coordinate_system_code '2'
_symmetry_cell_setting 'orthorhombic'
loop_
_space_group_symop_operation_xyz
x,y,z
-x,1/2-y,z
x,1/2-y,1/2-z
-x,y,1/2-z
-x,-y,-z
x,1/2+y,-z
-x,1/2+y,1/2+z
x,-y,1/2+z
1/2+x,1/2+y,z
1/2-x,-y,z
1/2+x,-y,1/2-z
1/2-x,1/2+y,1/2-z
1/2-x,1/2-y,-z
1/2+x,y,-z
1/2-x,y,1/2+z
1/2+x,1/2-y,1/2+z
loop_
_atom_site_type_symbol
_atom_site_label
_atom_site_fract_x
_atom_site_fract_y
_atom_site_fract_z
Si Si1 0.070277 0.311299 0.001570
Si Si2 0.686196 0.530564 0.199744
Si Si3 0.500000 0.750000 0.750000
Si Si4 0.177162 0.745533 0.103134
Si Si5 0.500000 0.750000 0.250000
Si Si6 0.145968 0.932850 0.980279
Si Si7 0.238743 0.144380 0.044795
O O1 0.089761 0.386027 0.995726
O O2 0.036314 0.296591 0.145673
O O3 0.035890 0.295886 0.857626
O O4 0.130269 0.268592 0.012115
O O5 0.750000 0.500000 0.238156
O O6 0.642645 0.533590 0.331231
O O7 0.647686 0.488061 0.094642
O O8 0.697265 0.602243 0.144035
O O9 0.143284 0.750000 0.250000
O O10 0.196200 0.672230 0.076088
O O11 0.234664 0.792414 0.119369
O O12 0.209222 0.896905 0.978172
#
# Coordination Sequence:
#
# PCOD8281753 Si02
#       7
#    16  16   4  16   4  16  16
#     4  10  22  39  64  85 108 142 192 247 307 352
#     4  10  19  34  54  81 124 163 191 219 264 334
#     4  10  20  46  64  86 104 138 188 258 318 344
#     4  10  18  31  52  89 119 152 190 227 287 343
#     4  10  24  42  60  86 108 138 188 262 326 344
#     4  10  21  36  55  87 116 157 196 222 277 345
#     4   9  19  30  51  85 128 157 182 230 266 344
#
# _framework density 19.476289999999999
#
# number of rings (size 3 to 8) (size 9 to 14) (size 15 to 20)
#    0.000    2.182    0.909    2.727    2.545    2.909 
#    3.273    0.000    0.000    3.273    0.000    0.000 
#    0.000    0.000    0.000    0.000    0.000    0.000 
#
# Total GULP energy -545233.284458 kJ/mol
# GULP energy per Si atom -12391.665556 kJ/mol
# Density = 1.943196 g / cm^3
# Si number density = 19.476290 Si / 1000 Ang^3
#
#
#
# Elastic Constant Matrix: (Units=GPa)
#
#
# Indices 1 2 3 4 5 6 
#
# 1 66.1799 39.2025 49.5585 0.0000 0.0000 0.0000
# 2 39.2025 117.3223 64.9715 0.0000 0.0000 0.0000
# 3 49.5585 64.9715 154.1337 0.0000 0.0000 0.0000
# 4 0.0000 0.0000 0.0000 26.0504 0.0000 0.0000
# 5 0.0000 0.0000 0.0000 0.0000 25.1416 0.0000
# 6 0.0000 0.0000 0.0000 0.0000 0.0000 18.9307
#
#
#
# Elastic Compliance Matrix: (Units=1/GPa)
#
#
# Indices 1 2 3 4 5 6 
#
# 1 0.021498 -0.004377 -0.005067 0.000000 0.000000 0.000000
# 2 -0.004377 0.012010 -0.003655 0.000000 0.000000 0.000000
# 3 -0.005067 -0.003655 0.009658 0.000000 0.000000 0.000000
# 4 0.000000 0.000000 0.000000 0.038387 0.000000 0.000000
# 5 0.000000 0.000000 0.000000 0.000000 0.039775 0.000000
# 6 0.000000 0.000000 0.000000 0.000000 0.000000 0.052824
#
#
# Mechanical properties :
#
#
# Convention : Reuss Voigt Hill
#
# Bulk Modulus (GPa) = 58.93854 71.67788 65.30821
# Shear Modulus (GPa) = 24.27106 26.28477 25.27791
#
# Velocity S-wave (km/s) = 3.53396 3.67765 3.60652
# Velocity P-wave (km/s) = 6.85414 7.41053 7.13776
#
# Compressibility (1/GPa) = 0.01696683
#
# Stress axis : x y z
#
# Youngs Moduli (GPa) = 46.51666 83.26099 103.54259
#
# Poissons Ratio (x) = 0.36446 0.52465
# Poissons Ratio (y) = 0.20362 0.37848
# Poissons Ratio (z) = 0.23570 0.30434
#
# Static dielectric constant tensor:
#      x y z
#    x 3.355850 0.000000 0.000000 
#    y 0.000000 3.580520 0.000000 
#    z 0.000000 0.000000 3.594390 
# 
# 
# High freq. dielectric constant tensor:
#      x y z
#    x 1.723870 0.000000 0.000000 
#    y 0.000000 1.757620 0.000000 
#    z 0.000000 0.000000 1.767740 
# 
# From -- ./inp_files/8041.got.cif
#   From: 2010.03.12/outbox.cif.g09.slc.cpg/sg68_5_cif.got.tgz:8041.got - 2010.04.10 23:14:56.
