data_PCOD8281561
_publ_section_title
;
Structure prediction by ZEFSAII (Michael W. Deem and Ramdas Pophale) SiO2 
 PCOD8281561
Probable space group: C M M A
;
_chemical_formula_sum "Si O2"
_cell_formula_units_Z 128
_cell_length_a 20.080649
_cell_length_b 18.371240
_cell_length_c 20.046062
_cell_angle_alpha 90.000000
_cell_angle_beta 90.000000
_cell_angle_gamma 90.000000
_cell_volume 7395.121010
_symmetry_space_group_name_H-M "C M M A"
_symmetry_group_IT_number 67
_symmetry_cell_setting 'orthorhombic'
loop_
_space_group_symop_operation_xyz
x,y,z
-x,1/2-y,z
x,-y,-z
-x,1/2+y,-z
-x,-y,-z
x,1/2+y,-z
-x,y,z
x,1/2-y,z
1/2+x,1/2+y,z
1/2-x,-y,z
1/2+x,1/2-y,-z
1/2-x,y,-z
1/2-x,1/2-y,-z
1/2+x,y,-z
1/2-x,1/2+y,z
1/2+x,-y,z
loop_
_atom_site_type_symbol
_atom_site_label
_atom_site_fract_x
_atom_site_fract_y
_atom_site_fract_z
Si Si1 0.306747 0.163306 0.795119
Si Si2 0.074691 0.663405 0.034138
Si Si3 0.925940 0.336571 0.115360
Si Si4 0.833361 0.663185 0.151330
Si Si5 0.645672 0.832289 0.604539
Si Si6 0.298803 0.834031 0.357117
Si Si7 0.074062 0.163073 0.731825
Si Si8 0.326858 0.581514 0.483463
O O1 0.304542 0.250000 0.795521
O O2 0.371432 0.131819 0.833326
O O3 0.241426 0.133876 0.834818
O O4 0.310681 0.137409 0.718230
O O5 0.075499 0.750000 0.036015
O O6 0.133025 0.633226 0.082873
O O7 0.000000 0.637436 0.055923
O O8 0.090276 0.635390 0.959394
O O9 0.922917 0.250000 0.115971
O O10 0.000000 0.362642 0.136935
O O11 0.832898 0.750000 0.150440
O O12 0.879061 0.632321 0.210435
O O13 0.624782 0.750000 0.593115
O O14 0.721017 0.839323 0.628987
O O15 0.599278 0.868092 0.661150
O O16 0.630880 0.870056 0.534325
O O17 0.322922 0.750000 0.366686
O O18 0.338347 0.888499 0.407890
O O19 0.077877 0.250000 0.731071
O O20 0.000000 0.134733 0.745415
O O21 0.350389 0.500000 0.500000
O O22 0.250000 0.591160 0.500000
#
# Coordination Sequence:
#
# PCOD8281561 Si02
#       8
#    16  16  16  16  16  16  16  16
#     4   9  15  22  34  51  73 100 133 174 212 246
#     4   8  13  20  29  42  66 102 139 171 203 243
#     4   8  14  23  32  44  66 100 140 175 207 245
#     4   9  14  20  30  48  72  98 133 172 207 244
#     4   9  15  25  40  58  80 105 134 169 206 247
#     4   9  15  25  40  59  81 105 135 174 215 249
#     4   9  15  22  34  53  77 104 133 166 204 247
#     4   9  17  27  41  61  82 105 135 170 206 249
#
# _framework density 17.308709
#
# number of rings (size 3 to 8) (size 9 to 14) (size 15 to 20)
#    0.000    3.250    1.250    1.500    0.000    3.500 
#    0.000    2.500    0.000    1.125    0.000    3.500 
#    0.000    0.000    0.000    1.125    5.500    7.375 
#
# Total GULP energy -792898.704834 kJ/mol
# GULP energy per Si atom -12389.042263 kJ/mol
# Density = 1.726931 g / cm^3
# Si number density = 17.308709 Si / 1000 Ang^3
#
#
#
# Elastic Constant Matrix: (Units=GPa)
#
#
# Indices 1 2 3 4 5 6 
#
# 1 95.2060 17.5967 73.5067 0.0000 0.0000 0.0000
# 2 17.5967 25.7350 25.8122 0.0000 0.0000 0.0000
# 3 73.5067 25.8122 150.9754 0.0000 0.0000 0.0000
# 4 0.0000 0.0000 0.0000 3.9304 0.0000 0.0000
# 5 0.0000 0.0000 0.0000 0.0000 22.7216 0.0000
# 6 0.0000 0.0000 0.0000 0.0000 0.0000 3.1448
#
#
#
# Elastic Compliance Matrix: (Units=1/GPa)
#
#
# Indices 1 2 3 4 5 6 
#
# 1 0.017173 -0.004051 -0.007669 0.000000 0.000000 0.000000
# 2 -0.004051 0.047856 -0.006210 0.000000 0.000000 0.000000
# 3 -0.007669 -0.006210 0.011419 0.000000 0.000000 0.000000
# 4 0.000000 0.000000 0.000000 0.254427 0.000000 0.000000
# 5 0.000000 0.000000 0.000000 0.000000 0.044011 0.000000
# 6 0.000000 0.000000 0.000000 0.000000 0.000000 0.317990
#
#
# Mechanical properties :
#
#
# Convention : Reuss Voigt Hill
#
# Bulk Modulus (GPa) = 24.63685 56.19416 40.41551
# Shear Modulus (GPa) = 6.73615 16.29274 11.51445
#
# Velocity S-wave (km/s) = 1.97490 3.07140 2.58202
# Velocity P-wave (km/s) = 4.41191 6.71672 5.68240
#
# Compressibility (1/GPa) = 0.04058961
#
# Stress axis : x y z
#
# Youngs Moduli (GPa) = 58.23086 20.89621 87.57371
#
# Poissons Ratio (x) = 0.08464 0.67157
# Poissons Ratio (y) = 0.23588 0.54380
# Poissons Ratio (z) = 0.44655 0.12976
#
# Static dielectric constant tensor:
#      x y z
#    x 3.247970 0.000000 0.000000 
#    y 0.000000 2.607220 0.000000 
#    z 0.000000 0.000000 3.581090 
# 
# 
# High freq. dielectric constant tensor:
#      x y z
#    x 1.648250 0.000000 0.000000 
#    y 0.000000 1.589740 0.000000 
#    z 0.000000 0.000000 1.682900 
# 
# From -- ./inp_files/35225.got.cif
#   From: 2010.03.12/outbox.cif.g09.slc.cpg/sg67_18_cif.got.tgz:35225.got - 2010.04.10 22:41:39.
