data_PCOD8281288
_publ_section_title
;
Structure prediction by ZEFSAII (Michael W. Deem and Ramdas Pophale) SiO2 
 PCOD8281288
Probable space group: C M M A
;
_chemical_formula_sum "Si O2"
_cell_formula_units_Z 72
_cell_length_a 13.839767
_cell_length_b 27.546562
_cell_length_c 8.759034
_cell_angle_alpha 90.000000
_cell_angle_beta 90.000000
_cell_angle_gamma 90.000000
_cell_volume 3339.276602
_symmetry_space_group_name_H-M "C M M A"
_symmetry_group_IT_number 67
_symmetry_cell_setting 'orthorhombic'
loop_
_space_group_symop_operation_xyz
x,y,z
-x,1/2-y,z
x,-y,-z
-x,1/2+y,-z
-x,-y,-z
x,1/2+y,-z
-x,y,z
x,1/2-y,z
1/2+x,1/2+y,z
1/2-x,-y,z
1/2+x,1/2-y,-z
1/2-x,y,-z
1/2-x,1/2-y,-z
1/2+x,y,-z
1/2-x,1/2+y,z
1/2+x,-y,z
loop_
_atom_site_type_symbol
_atom_site_label
_atom_site_fract_x
_atom_site_fract_y
_atom_site_fract_z
Si Si1 0.500000 0.366627 0.798016
Si Si2 0.500000 0.750000 0.696883
Si Si3 0.500000 0.855667 0.555744
Si Si4 0.500000 0.445592 0.048591
Si Si5 0.157117 0.420377 0.706722
Si Si6 0.793585 0.250000 0.828318
Si Si7 0.209593 0.845693 0.832427
Si Si8 0.250000 0.500000 0.500000
O O1 0.500000 0.372300 0.618020
O O2 0.595333 0.337383 0.844626
O O3 0.500000 0.416946 0.889539
O O4 0.500000 0.797696 0.587627
O O5 0.409476 0.750000 0.812892
O O6 0.596173 0.879223 0.622643
O O7 0.402347 0.435398 0.143095
O O8 0.500000 0.500000 0.000000
O O9 0.259960 0.395279 0.746426
O O10 0.179322 0.467288 0.603879
O O11 0.753791 0.298570 0.746307
O O12 0.750000 0.250000 0.000000
O O13 0.250000 0.849345 0.000000
#
# Coordination Sequence:
#
# PCOD8281288 Si02
#       8
#     8   4   8   8  16   8  16   4
#     4  12  26  45  69 101 144 177 244 298 350 426
#     4  12  22  50  72 114 152 194 248 292 378 440
#     4  11  26  45  77 102 146 196 235 297 368 444
#     4  11  27  44  71 100 136 189 248 302 354 429
#     4  11  25  46  71 102 143 194 237 298 372 421
#     4  10  24  39  76 105 141 189 237 291 357 437
#     4  11  23  44  71 106 137 186 237 301 358 424
#     4  12  28  42  70 106 148 190 250 302 364 450
#
# _framework density 21.561556
#
# number of rings (size 3 to 8) (size 9 to 14) (size 15 to 20)
#    0.000    0.889    4.444    1.333    6.222    5.778 
#    0.000    1.111    0.000    0.000    0.000    0.000 
#    0.000    0.000    0.000    0.000    0.000    0.000 
#
# Total GULP energy -446234.484261 kJ/mol
# GULP energy per Si atom -12395.402341 kJ/mol
# Density = 2.151248 g / cm^3
# Si number density = 21.561556 Si / 1000 Ang^3
#
#
#
# Elastic Constant Matrix: (Units=GPa)
#
#
# Indices 1 2 3 4 5 6 
#
# 1 183.6054 66.9982 45.1359 0.0000 0.0000 0.0000
# 2 66.9982 176.1947 60.6772 0.0000 0.0000 0.0000
# 3 45.1359 60.6772 119.5183 0.0000 0.0000 0.0000
# 4 0.0000 0.0000 0.0000 6.1704 0.0000 0.0000
# 5 0.0000 0.0000 0.0000 0.0000 -176.9758 0.0000
# 6 0.0000 0.0000 0.0000 0.0000 0.0000 -1.0006
#
#
#
# Elastic Compliance Matrix: (Units=1/GPa)
#
#
# Indices 1 2 3 4 5 6 
#
# 1 0.006528 -0.001979 -0.001460 0.000000 0.000000 0.000000
# 2 -0.001979 0.007478 -0.003049 0.000000 0.000000 0.000000
# 3 -0.001460 -0.003049 0.010466 0.000000 0.000000 0.000000
# 4 0.000000 0.000000 0.000000 0.162065 0.000000 0.000000
# 5 0.000000 0.000000 0.000000 0.000000 -0.005650 0.000000
# 6 0.000000 0.000000 0.000000 0.000000 0.000000 -0.999371
#
#
# Mechanical properties :
#
#
# Convention : Reuss Voigt Hill
#
# Bulk Modulus (GPa) = 86.99501 91.66011 89.32756
# Shear Modulus (GPa) = -6.23694 -13.92740 -10.08217
#
# Velocity S-wave (km/s) = -1.70262 -2.54429 -2.16475
# Velocity P-wave (km/s) = 6.04729 5.82855 5.93893
#
# Compressibility (1/GPa) = 0.01149491
#
# Stress axis : x y z
#
# Youngs Moduli (GPa) = 153.19338 133.72241 95.54409
#
# Poissons Ratio (x) = 0.26467 0.13953
# Poissons Ratio (y) = 0.30321 0.29132
# Poissons Ratio (z) = 0.22372 0.40773
#
# Static dielectric constant tensor:
#      x y z
#    x 3.787140 0.000000 0.000000 
#    y 0.000000 4.529410 0.000000 
#    z 0.000000 0.000000 3.399360 
# 
# 
# High freq. dielectric constant tensor:
#      x y z
#    x 1.860950 0.000000 0.000000 
#    y 0.000000 1.859060 0.000000 
#    z 0.000000 0.000000 1.838750 
# 
# From -- ./inp_files/8560.got.cif
#   From: 2010.03.12/outbox.cif.g09.slc.cpg/sg67_5_cif.got.tgz:8560.got - 2010.04.10 22:41:39.
