data_PCOD8281636
_publ_section_title
;
Structure prediction by ZEFSAII (Michael W. Deem and Ramdas Pophale) SiO2 
 PCOD8281636
Probable space group: C C C A
;
_chemical_formula_sum "Si O2"
_cell_formula_units_Z 112
_cell_length_a 34.362616
_cell_length_b 33.271481
_cell_length_c 5.151174
_cell_angle_alpha 90.000000
_cell_angle_beta 90.000000
_cell_angle_gamma 90.000000
_cell_volume 5889.312124
_symmetry_space_group_name_H-M "C C C A"
_symmetry_group_IT_number 68
_space_group.IT_coordinate_system_code '2'
_symmetry_cell_setting 'orthorhombic'
loop_
_space_group_symop_operation_xyz
x,y,z
-x,1/2-y,z
x,1/2-y,1/2-z
-x,y,1/2-z
-x,-y,-z
x,1/2+y,-z
-x,1/2+y,1/2+z
x,-y,1/2+z
1/2+x,1/2+y,z
1/2-x,-y,z
1/2+x,-y,1/2-z
1/2-x,1/2+y,1/2-z
1/2-x,1/2-y,-z
1/2+x,y,-z
1/2-x,y,1/2+z
1/2+x,1/2-y,1/2+z
loop_
_atom_site_type_symbol
_atom_site_label
_atom_site_fract_x
_atom_site_fract_y
_atom_site_fract_z
Si Si1 0.275086 0.796255 0.261757
Si Si2 0.543201 0.660852 0.707252
Si Si3 0.266706 0.455828 0.362901
Si Si4 0.646373 0.844648 0.263673
Si Si5 0.118560 0.611740 0.261166
Si Si6 0.144803 0.474013 0.824635
Si Si7 0.930114 0.296663 0.204654
O O1 0.289106 0.750000 0.250000
O O2 0.256722 0.805412 0.541604
O O3 0.311480 0.825115 0.216674
O O4 0.500000 0.643400 0.750000
O O5 0.573540 0.624601 0.738661
O O6 0.545416 0.679748 0.421521
O O7 0.552542 0.694673 0.921196
O O8 0.250000 0.500000 0.431353
O O9 0.242979 0.433028 0.133523
O O10 0.311805 0.456803 0.298294
O O11 0.640027 0.876106 0.496053
O O12 0.614981 0.809002 0.280512
O O13 0.642556 0.868404 0.994791
O O14 0.116569 0.563700 0.287295
O O15 0.136906 0.506933 0.604622
O O16 0.933982 0.250000 0.250000
#
# Coordination Sequence:
#
# PCOD8281636 Si02
#       7
#    16  16  16  16  16  16  16
#     4  10  20  34  56  78 104 147 195 235 269 304
#     4  10  21  37  56  79 115 149 173 217 270 329
#     4  10  16  30  48  71  99 125 155 202 253 319
#     4  10  20  39  54  74 116 144 183 227 270 326
#     4  10  23  38  56  81 105 144 181 216 277 340
#     4  12  21  35  58  77 103 135 176 225 263 319
#     4  10  20  33  56  86 111 145 185 220 265 317
#
# _framework density 19.017499000000001
#
# number of rings (size 3 to 8) (size 9 to 14) (size 15 to 20)
#    0.000    1.714    2.857    3.000    0.000    1.714 
#    0.000    8.571    0.000    0.857    0.000    0.000 
#    0.000    0.000    0.000    0.000    0.000    0.000 
#
# Total GULP energy -694507.969082 kJ/mol
# GULP energy per Si atom -12401.928019 kJ/mol
# Density = 1.897421 g / cm^3
# Si number density = 19.017499 Si / 1000 Ang^3
#
#
#
# Elastic Constant Matrix: (Units=GPa)
#
#
# Indices 1 2 3 4 5 6 
#
# 1 84.8176 39.7670 11.2603 0.0000 0.0000 0.0000
# 2 39.7670 63.9940 1.2545 0.0000 0.0000 0.0000
# 3 11.2603 1.2545 98.4089 0.0000 0.0000 0.0000
# 4 0.0000 0.0000 0.0000 13.4609 0.0000 0.0000
# 5 0.0000 0.0000 0.0000 0.0000 18.4685 0.0000
# 6 0.0000 0.0000 0.0000 0.0000 0.0000 11.5250
#
#
#
# Elastic Compliance Matrix: (Units=1/GPa)
#
#
# Indices 1 2 3 4 5 6 
#
# 1 0.016952 -0.010499 -0.001806 0.000000 0.000000 0.000000
# 2 -0.010499 0.022133 0.000919 0.000000 0.000000 0.000000
# 3 -0.001806 0.000919 0.010357 0.000000 0.000000 0.000000
# 4 0.000000 0.000000 0.000000 0.074289 0.000000 0.000000
# 5 0.000000 0.000000 0.000000 0.000000 0.054146 0.000000
# 6 0.000000 0.000000 0.000000 0.000000 0.000000 0.086768
#
#
# Mechanical properties :
#
#
# Convention : Reuss Voigt Hill
#
# Bulk Modulus (GPa) = 37.49515 39.08712 38.29114
# Shear Modulus (GPa) = 16.87441 21.68679 19.28060
#
# Velocity S-wave (km/s) = 2.98201 3.38058 3.18753
# Velocity P-wave (km/s) = 5.62276 5.98629 5.80737
#
# Compressibility (1/GPa) = 0.02667011
#
# Stress axis : x y z
#
# Youngs Moduli (GPa) = 58.98914 45.18195 96.55674
#
# Poissons Ratio (x) = 0.47437 0.17437
# Poissons Ratio (y) = 0.61933 -0.08875
# Poissons Ratio (z) = 0.10653 -0.04153
#
# Static dielectric constant tensor:
#      x y z
#    x 3.392080 0.000000 0.000000 
#    y 0.000000 3.232280 0.000000 
#    z 0.000000 0.000000 3.934340 
# 
# 
# High freq. dielectric constant tensor:
#      x y z
#    x 1.725780 0.000000 0.000000 
#    y 0.000000 1.712290 0.000000 
#    z 0.000000 0.000000 1.770340 
# 
# From -- ./inp_files/2939.got.cif
#   From: 2010.03.12/outbox.cif.g09.slc.cpg/sg68_2_cif.got.tgz:2939.got - 2010.04.10 23:14:56.
