data_PCOD8281137
_publ_section_title
;
Structure prediction by ZEFSAII (Michael W. Deem and Ramdas Pophale) SiO2 
 PCOD8281137
Probable space group: C M M A
;
_chemical_formula_sum "Si O2"
_cell_formula_units_Z 72
_cell_length_a 9.498899
_cell_length_b 15.736257
_cell_length_c 24.754198
_cell_angle_alpha 90.000000
_cell_angle_beta 90.000000
_cell_angle_gamma 90.000000
_cell_volume 3700.186123
_symmetry_space_group_name_H-M "C M M A"
_symmetry_group_IT_number 67
_symmetry_cell_setting 'orthorhombic'
loop_
_space_group_symop_operation_xyz
x,y,z
-x,1/2-y,z
x,-y,-z
-x,1/2+y,-z
-x,-y,-z
x,1/2+y,-z
-x,y,z
x,1/2-y,z
1/2+x,1/2+y,z
1/2-x,-y,z
1/2+x,1/2-y,-z
1/2-x,y,-z
1/2-x,1/2-y,-z
1/2+x,y,-z
1/2-x,1/2+y,z
1/2+x,-y,z
loop_
_atom_site_type_symbol
_atom_site_label
_atom_site_fract_x
_atom_site_fract_y
_atom_site_fract_z
Si Si1 0.342099 0.648606 0.550258
Si Si2 0.654004 0.847133 0.354909
Si Si3 0.161675 0.080432 0.244534
Si Si4 0.165001 0.414862 0.123271
Si Si5 0.666064 0.250000 0.944924
O O1 0.500000 0.611310 0.546306
O O2 0.348935 0.750000 0.550538
O O3 0.250000 0.615465 0.500000
O O4 0.270267 0.612107 0.605308
O O5 0.500000 0.890294 0.363974
O O6 0.641785 0.750000 0.371523
O O7 0.695397 0.851427 0.291361
O O8 0.203123 0.112990 0.184726
O O9 0.000000 0.053334 0.243756
O O10 0.250000 0.000000 0.261801
O O11 0.250000 0.500000 0.106377
O O12 0.211026 0.334952 0.087116
O O13 0.000000 0.434872 0.116275
O O14 0.500000 0.250000 0.956104
O O15 0.750000 0.250000 0.000000
#
# Coordination Sequence:
#
# PCOD8281137 Si02
#       5
#    16  16  16  16   8
#     4   9  16  26  41  62  91 125 160 201 248 299
#     4   9  17  28  45  70  95 122 159 202 247 299
#     4   9  18  32  51  73  99 131 166 204 251 305
#     4   9  19  36  57  81 110 146 185 226 272 323
#     4  10  22  38  58  84 114 148 187 228 271 320
#
# _framework density 19.458480999999999
#
# number of rings (size 3 to 8) (size 9 to 14) (size 15 to 20)
#    0.000    2.889    0.000    0.667    1.556    4.889 
#    0.000    2.222    0.000    0.667    0.000    4.667 
#    0.000    0.000    0.000    0.000    0.000    0.000 
#
# Total GULP energy -446111.732702 kJ/mol
# GULP energy per Si atom -12391.992575 kJ/mol
# Density = 1.941419 g / cm^3
# Si number density = 19.458481 Si / 1000 Ang^3
#
#
#
# Elastic Constant Matrix: (Units=GPa)
#
#
# Indices 1 2 3 4 5 6 
#
# 1 101.1916 41.5248 75.7270 0.0000 0.0000 0.0000
# 2 41.5248 66.2228 53.1375 0.0000 0.0000 0.0000
# 3 75.7270 53.1375 151.9323 0.0000 0.0000 0.0000
# 4 0.0000 0.0000 0.0000 8.7991 0.0000 0.0000
# 5 0.0000 0.0000 0.0000 0.0000 35.2878 0.0000
# 6 0.0000 0.0000 0.0000 0.0000 0.0000 22.4115
#
#
#
# Elastic Compliance Matrix: (Units=1/GPa)
#
#
# Indices 1 2 3 4 5 6 
#
# 1 0.017036 -0.005378 -0.006610 0.000000 0.000000 0.000000
# 2 -0.005378 0.022690 -0.005255 0.000000 0.000000 0.000000
# 3 -0.006610 -0.005255 0.011714 0.000000 0.000000 0.000000
# 4 0.000000 0.000000 0.000000 0.113648 0.000000 0.000000
# 5 0.000000 0.000000 0.000000 0.000000 0.028338 0.000000
# 6 0.000000 0.000000 0.000000 0.000000 0.000000 0.044620
#
#
# Mechanical properties :
#
#
# Convention : Reuss Voigt Hill
#
# Bulk Modulus (GPa) = 58.98567 73.34726 66.16646
# Shear Modulus (GPa) = 17.97371 23.23017 20.60194
#
# Velocity S-wave (km/s) = 3.04253 3.45894 3.25740
# Velocity P-wave (km/s) = 6.53621 7.32997 6.94444
#
# Compressibility (1/GPa) = 0.01695327
#
# Stress axis : x y z
#
# Youngs Moduli (GPa) = 58.69923 44.07321 85.36515
#
# Poissons Ratio (x) = 0.23704 0.56427
# Poissons Ratio (y) = 0.31571 0.44858
# Poissons Ratio (z) = 0.38801 0.23160
#
# Static dielectric constant tensor:
#      x y z
#    x 3.740040 0.000000 0.000000 
#    y 0.000000 3.264710 0.000000 
#    z 0.000000 0.000000 3.696550 
# 
# 
# High freq. dielectric constant tensor:
#      x y z
#    x 1.757460 0.000000 0.000000 
#    y 0.000000 1.721380 0.000000 
#    z 0.000000 0.000000 1.766780 
# 
# From -- ./inp_files/40514.got.cif
#   From: 2010.03.12/outbox.cif.g09.slc.cpg/sg67_21_cif.got.tgz:40514.got - 2010.04.10 22:41:39.
