data_PCOD8281971
_publ_section_title
;
Structure prediction by ZEFSAII (Michael W. Deem and Ramdas Pophale) SiO2 
 PCOD8281971
Probable space group: C C C A
;
_chemical_formula_sum "Si O2"
_cell_formula_units_Z 92
_cell_length_a 23.046918
_cell_length_b 18.002924
_cell_length_c 11.804106
_cell_angle_alpha 90.000000
_cell_angle_beta 90.000000
_cell_angle_gamma 90.000000
_cell_volume 4897.664204
_symmetry_space_group_name_H-M "C C C A"
_symmetry_group_IT_number 68
_space_group.IT_coordinate_system_code '2'
_symmetry_cell_setting 'orthorhombic'
loop_
_space_group_symop_operation_xyz
x,y,z
-x,1/2-y,z
x,1/2-y,1/2-z
-x,y,1/2-z
-x,-y,-z
x,1/2+y,-z
-x,1/2+y,1/2+z
x,-y,1/2+z
1/2+x,1/2+y,z
1/2-x,-y,z
1/2+x,-y,1/2-z
1/2-x,1/2+y,1/2-z
1/2-x,1/2-y,-z
1/2+x,y,-z
1/2-x,y,1/2+z
1/2+x,1/2-y,1/2+z
loop_
_atom_site_type_symbol
_atom_site_label
_atom_site_fract_x
_atom_site_fract_y
_atom_site_fract_z
Si Si1 0.051671 0.369864 0.407069
Si Si2 0.683812 0.374522 0.341691
Si Si3 0.750000 0.500000 0.230294
Si Si4 0.000000 0.250000 0.250000
Si Si5 0.500000 0.986191 0.250000
Si Si6 0.733632 0.750000 0.250000
Si Si7 0.316124 0.870807 0.101798
Si Si8 0.050759 0.125980 0.830494
O O1 0.015049 0.437847 0.359079
O O2 0.117345 0.393268 0.388197
O O3 0.034567 0.357681 0.538615
O O4 0.040482 0.296896 0.333273
O O5 0.700445 0.458697 0.304809
O O6 0.726067 0.316831 0.285355
O O7 0.699448 0.365849 0.471681
O O8 0.617598 0.350501 0.309034
O O9 0.720508 0.562916 0.154978
O O10 0.551303 0.038390 0.200874
O O11 0.693599 0.711792 0.154155
O O12 0.000000 0.164525 0.750000
#
# Coordination Sequence:
#
# PCOD8281971 Si02
#       8
#    16  16   8   4   8   8  16  16
#     4  10  19  36  55  79 110 142 180 226 269 325
#     4  10  20  37  54  81 111 144 181 229 271 329
#     4  10  20  34  58  82 110 138 186 226 278 324
#     4  10  22  36  54  76 108 144 188 216 262 330
#     4   9  18  33  56  79 110 137 180 224 274 323
#     4  10  21  36  55  77 110 145 186 222 272 324
#     4  10  20  35  57  80 107 144 179 227 274 323
#     4   9  20  35  54  82 110 141 179 224 279 326
#
# _framework density 18.784465000000001
#
# number of rings (size 3 to 8) (size 9 to 14) (size 15 to 20)
#    0.522    1.739    0.000    3.130    0.000    0.000 
#    6.261    0.000   15.304    0.000    0.000    0.000 
#    0.000    0.000    0.000    0.000    0.000    0.000 
#
# Total GULP energy -569861.798403 kJ/mol
# GULP energy per Si atom -12388.299965 kJ/mol
# Density = 1.874171 g / cm^3
# Si number density = 18.784465 Si / 1000 Ang^3
#
#
#
# Elastic Constant Matrix: (Units=GPa)
#
#
# Indices 1 2 3 4 5 6 
#
# 1 62.3308 5.4999 46.3766 0.0000 0.0000 0.0000
# 2 5.4999 68.5978 26.2410 0.0000 0.0000 0.0000
# 3 46.3766 26.2410 115.1707 0.0000 0.0000 0.0000
# 4 0.0000 0.0000 0.0000 16.3187 0.0000 0.0000
# 5 0.0000 0.0000 0.0000 0.0000 29.5303 0.0000
# 6 0.0000 0.0000 0.0000 0.0000 0.0000 23.7153
#
#
#
# Elastic Compliance Matrix: (Units=1/GPa)
#
#
# Indices 1 2 3 4 5 6 
#
# 1 0.023124 0.001871 -0.009738 0.000000 0.000000 0.000000
# 2 0.001871 0.016121 -0.004426 0.000000 0.000000 0.000000
# 3 -0.009738 -0.004426 0.013612 0.000000 0.000000 0.000000
# 4 0.000000 0.000000 0.000000 0.061279 0.000000 0.000000
# 5 0.000000 0.000000 0.000000 0.000000 0.033864 0.000000
# 6 0.000000 0.000000 0.000000 0.000000 0.000000 0.042167
#
#
# Mechanical properties :
#
#
# Convention : Reuss Voigt Hill
#
# Bulk Modulus (GPa) = 35.37221 44.70380 40.03800
# Shear Modulus (GPa) = 22.30386 25.11164 23.70775
#
# Velocity S-wave (km/s) = 3.44954 3.66024 3.55645
# Velocity P-wave (km/s) = 5.89383 6.45856 6.18265
#
# Compressibility (1/GPa) = 0.02827078
#
# Stress axis : x y z
#
# Youngs Moduli (GPa) = 43.24598 62.03087 73.46227
#
# Poissons Ratio (x) = -0.11606 0.71535
# Poissons Ratio (y) = -0.08091 0.32518
# Poissons Ratio (z) = 0.42111 0.27458
#
# Static dielectric constant tensor:
#      x y z
#    x 3.554510 0.000000 0.000000 
#    y 0.000000 3.198900 0.000000 
#    z 0.000000 0.000000 3.743130 
# 
# 
# High freq. dielectric constant tensor:
#      x y z
#    x 1.730590 0.000000 0.000000 
#    y 0.000000 1.728230 0.000000 
#    z 0.000000 0.000000 1.736400 
# 
# From -- ./inp_files/16489.got.cif
#   From: 2010.03.12/outbox.cif.g09.slc.cpg/sg68_9_cif.got.tgz:16489.got - 2010.04.10 23:14:56.
