data_PCOD8281924
_publ_section_title
;
Structure prediction by ZEFSAII (Michael W. Deem and Ramdas Pophale) SiO2 
 PCOD8281924
Probable space group: C C C A
;
_chemical_formula_sum "Si O2"
_cell_formula_units_Z 112
_cell_length_a 11.952162
_cell_length_b 21.989092
_cell_length_c 21.107562
_cell_angle_alpha 90.000000
_cell_angle_beta 90.000000
_cell_angle_gamma 90.000000
_cell_volume 5547.430129
_symmetry_space_group_name_H-M "C C C A"
_symmetry_group_IT_number 68
_space_group.IT_coordinate_system_code '2'
_symmetry_cell_setting 'orthorhombic'
loop_
_space_group_symop_operation_xyz
x,y,z
-x,1/2-y,z
x,1/2-y,1/2-z
-x,y,1/2-z
-x,-y,-z
x,1/2+y,-z
-x,1/2+y,1/2+z
x,-y,1/2+z
1/2+x,1/2+y,z
1/2-x,-y,z
1/2+x,-y,1/2-z
1/2-x,1/2+y,1/2-z
1/2-x,1/2-y,-z
1/2+x,y,-z
1/2-x,y,1/2+z
1/2+x,1/2-y,1/2+z
loop_
_atom_site_type_symbol
_atom_site_label
_atom_site_fract_x
_atom_site_fract_y
_atom_site_fract_z
Si Si1 0.085800 0.849393 0.838300
Si Si2 0.405577 0.201297 0.479446
Si Si3 0.208475 0.251132 0.401822
Si Si4 0.954337 0.416870 0.551008
Si Si5 0.838273 0.337195 0.204215
Si Si6 0.012364 0.455762 0.082694
Si Si7 0.771389 0.569443 0.612361
O O1 0.124052 0.806402 0.896143
O O2 0.173431 0.839448 0.780282
O O3 0.078786 0.919980 0.861531
O O4 0.966340 0.827179 0.814991
O O5 0.500000 0.250000 0.490148
O O6 0.326346 0.224214 0.423336
O O7 0.337951 0.199279 0.546750
O O8 0.458591 0.137953 0.456086
O O9 0.225614 0.282790 0.332908
O O10 0.923354 0.445150 0.482934
O O11 0.833041 0.396878 0.578045
O O12 0.006878 0.471193 0.595141
O O13 0.788287 0.400732 0.180841
O O14 0.887931 0.426362 0.073409
O O15 0.750000 0.500000 0.626653
#
# Coordination Sequence:
#
# PCOD8281924 Si02
#       7
#    16  16  16  16  16  16  16
#     4  10  20  35  56  81 107 139 182 233 277 322
#     4  11  22  35  54  80 111 145 181 225 279 344
#     4  11  22  35  54  80 111 143 181 228 281 331
#     4  10  19  34  56  81 114 150 183 229 289 349
#     4  10  19  34  57  80 105 140 184 231 276 324
#     4   9  19  34  54  83 113 145 187 232 285 345
#     4   9  18  34  56  80 109 146 185 226 279 337
#
# _framework density 20.189527999999999
#
# number of rings (size 3 to 8) (size 9 to 14) (size 15 to 20)
#    0.000    2.000    0.000    5.143    0.000    4.571 
#    0.000    3.571    0.000    7.714    0.000    0.000 
#    0.000    0.000    0.000    0.000    0.000    0.000 
#
# Total GULP energy -693939.842189 kJ/mol
# GULP energy per Si atom -12391.782896 kJ/mol
# Density = 2.014358 g / cm^3
# Si number density = 20.189528 Si / 1000 Ang^3
#
#
#
# Elastic Constant Matrix: (Units=GPa)
#
#
# Indices 1 2 3 4 5 6 
#
# 1 74.0004 35.2119 40.0003 0.0000 0.0000 0.0000
# 2 35.2119 100.7731 41.9902 0.0000 0.0000 0.0000
# 3 40.0003 41.9902 102.8360 0.0000 0.0000 0.0000
# 4 0.0000 0.0000 0.0000 30.8740 0.0000 0.0000
# 5 0.0000 0.0000 0.0000 0.0000 27.7699 0.0000
# 6 0.0000 0.0000 0.0000 0.0000 0.0000 29.5975
#
#
#
# Elastic Compliance Matrix: (Units=1/GPa)
#
#
# Indices 1 2 3 4 5 6 
#
# 1 0.018457 -0.004167 -0.005478 0.000000 0.000000 0.000000
# 2 -0.004167 0.012898 -0.003646 0.000000 0.000000 0.000000
# 3 -0.005478 -0.003646 0.013344 0.000000 0.000000 0.000000
# 4 0.000000 0.000000 0.000000 0.032390 0.000000 0.000000
# 5 0.000000 0.000000 0.000000 0.000000 0.036010 0.000000
# 6 0.000000 0.000000 0.000000 0.000000 0.000000 0.033787
#
#
# Mechanical properties :
#
#
# Convention : Reuss Voigt Hill
#
# Bulk Modulus (GPa) = 55.19364 56.89047 56.04206
# Shear Modulus (GPa) = 27.85416 28.34210 28.09813
#
# Velocity S-wave (km/s) = 3.71837 3.75080 3.73462
# Velocity P-wave (km/s) = 6.76995 6.85546 6.81284
#
# Compressibility (1/GPa) = 0.01811803
#
# Stress axis : x y z
#
# Youngs Moduli (GPa) = 54.17954 77.52903 74.94164
#
# Poissons Ratio (x) = 0.32304 0.41053
# Poissons Ratio (y) = 0.22575 0.27323
# Poissons Ratio (z) = 0.29679 0.28267
#
# Static dielectric constant tensor:
#      x y z
#    x 3.800110 0.000000 0.000000 
#    y 0.000000 3.858890 0.000000 
#    z 0.000000 0.000000 3.721390 
# 
# 
# High freq. dielectric constant tensor:
#      x y z
#    x 1.766130 0.000000 0.000000 
#    y 0.000000 1.802550 0.000000 
#    z 0.000000 0.000000 1.767020 
# 
# From -- ./inp_files/37811.got.cif
#   From: 2010.03.12/outbox.cif.g09.slc.cpg/sg68_19_cif.got.tgz:37811.got - 2010.04.10 23:14:56.
