data_PCOD8281342
_publ_section_title
;
Structure prediction by ZEFSAII (Michael W. Deem and Ramdas Pophale) SiO2 
 PCOD8281342
Probable space group: C M M A
;
_chemical_formula_sum "Si O2"
_cell_formula_units_Z 64
_cell_length_a 19.741399
_cell_length_b 14.491478
_cell_length_c 10.940177
_cell_angle_alpha 90.000000
_cell_angle_beta 90.000000
_cell_angle_gamma 90.000000
_cell_volume 3129.788256
_symmetry_space_group_name_H-M "C M M A"
_symmetry_group_IT_number 67
_symmetry_cell_setting 'orthorhombic'
loop_
_space_group_symop_operation_xyz
x,y,z
-x,1/2-y,z
x,-y,-z
-x,1/2+y,-z
-x,-y,-z
x,1/2+y,-z
-x,y,z
x,1/2-y,z
1/2+x,1/2+y,z
1/2-x,-y,z
1/2+x,1/2-y,-z
1/2-x,y,-z
1/2-x,1/2-y,-z
1/2+x,y,-z
1/2-x,1/2+y,z
1/2+x,-y,z
loop_
_atom_site_type_symbol
_atom_site_label
_atom_site_fract_x
_atom_site_fract_y
_atom_site_fract_z
Si Si1 0.724749 0.645707 0.185504
Si Si2 0.680229 0.399534 0.554744
Si Si3 0.922992 0.250000 0.812356
Si Si4 0.351397 0.598998 0.956754
Si Si5 0.918111 0.250000 0.538823
O O1 0.748882 0.750000 0.218814
O O2 0.689912 0.594937 0.299398
O O3 0.788688 0.586114 0.137665
O O4 0.670706 0.654775 0.076670
O O5 0.666809 0.500000 0.500000
O O6 0.750000 0.357174 0.500000
O O7 0.613994 0.339405 0.526047
O O8 0.908002 0.157572 0.887994
O O9 0.889826 0.250000 0.677759
O O10 0.000000 0.250000 0.780300
O O11 0.379772 0.500000 0.000000
O O12 0.000000 0.250000 0.522834
#
# Coordination Sequence:
#
# PCOD8281342 Si02
#       5
#    16  16   8  16   8
#     4  11  20  39  63  96 121 164 201 264 337 383
#     4  11  25  39  66 101 133 165 221 279 330 389
#     4  11  24  43  63  87 123 175 225 262 310 381
#     4  11  23  38  65  92 130 159 207 266 332 386
#     4  11  25  46  67  90 132 188 225 263 328 396
#
# _framework density 20.448667
#
# number of rings (size 3 to 8) (size 9 to 14) (size 15 to 20)
#    0.000    1.000    3.750    4.125   10.500    1.000 
#    0.000    2.500    0.000    0.000    0.000    0.000 
#    0.000    0.000    0.000    0.000    0.000    0.000 
#
# Total GULP energy -396740.730315 kJ/mol
# GULP energy per Si atom -12398.147822 kJ/mol
# Density = 2.040212 g / cm^3
# Si number density = 20.448667 Si / 1000 Ang^3
#
#
#
# Elastic Constant Matrix: (Units=GPa)
#
#
# Indices 1 2 3 4 5 6 
#
# 1 84.8566 33.8200 40.8040 0.0000 0.0000 0.0000
# 2 33.8200 130.2483 47.3935 0.0000 0.0000 0.0000
# 3 40.8040 47.3935 151.9174 0.0000 0.0000 0.0000
# 4 0.0000 0.0000 0.0000 25.2294 0.0000 0.0000
# 5 0.0000 0.0000 0.0000 0.0000 27.8518 0.0000
# 6 0.0000 0.0000 0.0000 0.0000 0.0000 26.6108
#
#
#
# Elastic Compliance Matrix: (Units=1/GPa)
#
#
# Indices 1 2 3 4 5 6 
#
# 1 0.014277 -0.002608 -0.003021 0.000000 0.000000 0.000000
# 2 -0.002608 0.009137 -0.002150 0.000000 0.000000 0.000000
# 3 -0.003021 -0.002150 0.008065 0.000000 0.000000 0.000000
# 4 0.000000 0.000000 0.000000 0.039636 0.000000 0.000000
# 5 0.000000 0.000000 0.000000 0.000000 0.035904 0.000000
# 6 0.000000 0.000000 0.000000 0.000000 0.000000 0.037579
#
#
# Mechanical properties :
#
#
# Convention : Reuss Voigt Hill
#
# Bulk Modulus (GPa) = 62.81146 67.89528 65.35337
# Shear Modulus (GPa) = 30.21833 32.27205 31.24519
#
# Velocity S-wave (km/s) = 3.84834 3.97696 3.91318
# Velocity P-wave (km/s) = 7.10842 7.37314 7.24199
#
# Compressibility (1/GPa) = 0.01592066
#
# Stress axis : x y z
#
# Youngs Moduli (GPa) = 70.04458 109.44372 123.99682
#
# Poissons Ratio (x) = 0.28540 0.37460
# Poissons Ratio (y) = 0.18266 0.26660
# Poissons Ratio (z) = 0.21161 0.23531
#
# Static dielectric constant tensor:
#      x y z
#    x 3.348880 0.000000 0.000000 
#    y 0.000000 3.923850 0.000000 
#    z 0.000000 0.000000 3.927050 
# 
# 
# High freq. dielectric constant tensor:
#      x y z
#    x 1.758900 0.000000 0.000000 
#    y 0.000000 1.807640 0.000000 
#    z 0.000000 0.000000 1.819780 
# 
# From -- ./inp_files/19010.got.cif
#   From: 2010.03.12/outbox.cif.g09.slc.cpg/sg67_10_cif.got.tgz:19010.got - 2010.04.10 22:41:39.
