data_PCOD8281031
_publ_section_title
;
Structure prediction by ZEFSAII (Michael W. Deem and Ramdas Pophale) SiO2 
 PCOD8281031
Probable space group: C M M A
;
_chemical_formula_sum "Si O2"
_cell_formula_units_Z 112
_cell_length_a 30.423689
_cell_length_b 15.713430
_cell_length_c 11.455552
_cell_angle_alpha 90.000000
_cell_angle_beta 90.000000
_cell_angle_gamma 90.000000
_cell_volume 5476.447002
_symmetry_space_group_name_H-M "C M M A"
_symmetry_group_IT_number 67
_symmetry_cell_setting 'orthorhombic'
loop_
_space_group_symop_operation_xyz
x,y,z
-x,1/2-y,z
x,-y,-z
-x,1/2+y,-z
-x,-y,-z
x,1/2+y,-z
-x,y,z
x,1/2-y,z
1/2+x,1/2+y,z
1/2-x,-y,z
1/2+x,1/2-y,-z
1/2-x,y,-z
1/2-x,1/2-y,-z
1/2+x,y,-z
1/2-x,1/2+y,z
1/2+x,-y,z
loop_
_atom_site_type_symbol
_atom_site_label
_atom_site_fract_x
_atom_site_fract_y
_atom_site_fract_z
Si Si1 0.775903 0.921179 0.756565
Si Si2 0.151280 0.080142 0.427895
Si Si3 0.834528 0.657465 0.937006
Si Si4 0.622426 0.353123 0.169422
Si Si5 0.308065 0.346386 0.352383
Si Si6 0.089298 0.654656 0.750562
Si Si7 0.949660 0.489233 0.863827
O O1 0.816449 0.951128 0.675442
O O2 0.791144 0.879583 0.877338
O O3 0.742256 0.867056 0.678308
O O4 0.750000 0.000000 0.805921
O O5 0.181470 0.137113 0.512374
O O6 0.109770 0.131909 0.376688
O O7 0.132954 0.000000 0.500000
O O8 0.820664 0.750000 0.981145
O O9 0.871224 0.661601 0.839326
O O10 0.853698 0.611890 0.051628
O O11 0.611928 0.250000 0.167251
O O12 0.654265 0.387779 0.271052
O O13 0.578258 0.409293 0.185341
O O14 0.314254 0.250000 0.322450
O O15 0.066737 0.750000 0.743136
O O16 0.057696 0.578766 0.794502
O O17 0.000000 0.463489 0.844649
O O18 0.938828 0.500000 0.000000
#
# Coordination Sequence:
#
# PCOD8281031 Si02
#       7
#    16  16  16  16  16  16  16
#     4  11  22  34  54  83 119 159 206 261 314 351
#     4  11  21  37  60  84 119 162 212 263 308 358
#     4   9  19  37  58  81 117 164 207 249 306 370
#     4  10  22  41  62  86 123 165 205 256 313 377
#     4  11  23  36  56  84 115 157 208 257 301 357
#     4  10  21  39  63  90 125 166 204 251 314 380
#     4  11  23  38  64  98 126 153 194 254 321 390
#
# _framework density 20.451217
#
# number of rings (size 3 to 8) (size 9 to 14) (size 15 to 20)
#    0.000    1.571    2.857    2.143    2.000    3.429 
#    0.000    4.286    0.000    3.857    0.000    4.000 
#    0.000    0.000    0.000    0.000    0.000    0.000 
#
# Total GULP energy -693824.690351 kJ/mol
# GULP energy per Si atom -12389.726613 kJ/mol
# Density = 2.040467 g / cm^3
# Si number density = 20.451217 Si / 1000 Ang^3
#
#
#
# Elastic Constant Matrix: (Units=GPa)
#
#
# Indices 1 2 3 4 5 6 
#
# 1 75.4653 37.2189 34.1478 0.0000 0.0000 0.0000
# 2 37.2189 90.4327 33.0375 0.0000 0.0000 0.0000
# 3 34.1478 33.0375 70.4802 0.0000 0.0000 0.0000
# 4 0.0000 0.0000 0.0000 30.2910 0.0000 0.0000
# 5 0.0000 0.0000 0.0000 0.0000 22.6991 0.0000
# 6 0.0000 0.0000 0.0000 0.0000 0.0000 38.4426
#
#
#
# Elastic Compliance Matrix: (Units=1/GPa)
#
#
# Indices 1 2 3 4 5 6 
#
# 1 0.018898 -0.005349 -0.006649 0.000000 0.000000 0.000000
# 2 -0.005349 0.014857 -0.004373 0.000000 0.000000 0.000000
# 3 -0.006649 -0.004373 0.019459 0.000000 0.000000 0.000000
# 4 0.000000 0.000000 0.000000 0.033013 0.000000 0.000000
# 5 0.000000 0.000000 0.000000 0.000000 0.044055 0.000000
# 6 0.000000 0.000000 0.000000 0.000000 0.000000 0.026013
#
#
# Mechanical properties :
#
#
# Convention : Reuss Voigt Hill
#
# Bulk Modulus (GPa) = 48.84332 49.46519 49.15425
# Shear Modulus (GPa) = 25.52863 27.08482 26.30672
#
# Velocity S-wave (km/s) = 3.53692 3.64313 3.59042
# Velocity P-wave (km/s) = 6.37294 6.47579 6.42458
#
# Compressibility (1/GPa) = 0.02047363
#
# Stress axis : x y z
#
# Youngs Moduli (GPa) = 52.91699 67.30968 51.38914
#
# Poissons Ratio (x) = 0.36001 0.34167
# Poissons Ratio (y) = 0.28303 0.22471
# Poissons Ratio (z) = 0.35183 0.29432
#
# Static dielectric constant tensor:
#      x y z
#    x 3.282100 0.000000 0.000000 
#    y 0.000000 4.005400 0.000000 
#    z 0.000000 0.000000 3.708960 
# 
# 
# High freq. dielectric constant tensor:
#      x y z
#    x 1.769610 0.000000 0.000000 
#    y 0.000000 1.810100 0.000000 
#    z 0.000000 0.000000 1.800240 
# 
# From -- ./inp_files/23775.got.cif
#   From: 2010.03.12/outbox.cif.g09.slc.cpg/sg67_12_cif.got.tgz:23775.got - 2010.04.10 22:41:39.
