data_PCOD8281032
_publ_section_title
;
Structure prediction by ZEFSAII (Michael W. Deem and Ramdas Pophale) SiO2 
 PCOD8281032
Probable space group: C M M A
;
_chemical_formula_sum "Si O2"
_cell_formula_units_Z 96
_cell_length_a 17.617648
_cell_length_b 11.470246
_cell_length_c 23.597614
_cell_angle_alpha 90.000000
_cell_angle_beta 90.000000
_cell_angle_gamma 90.000000
_cell_volume 4768.576494
_symmetry_space_group_name_H-M "C M M A"
_symmetry_group_IT_number 67
_symmetry_cell_setting 'orthorhombic'
loop_
_space_group_symop_operation_xyz
x,y,z
-x,1/2-y,z
x,-y,-z
-x,1/2+y,-z
-x,-y,-z
x,1/2+y,-z
-x,y,z
x,1/2-y,z
1/2+x,1/2+y,z
1/2-x,-y,z
1/2+x,1/2-y,-z
1/2-x,y,-z
1/2-x,1/2-y,-z
1/2+x,y,-z
1/2-x,1/2+y,z
1/2+x,-y,z
loop_
_atom_site_type_symbol
_atom_site_label
_atom_site_fract_x
_atom_site_fract_y
_atom_site_fract_z
Si Si1 0.160906 0.014640 0.065304
Si Si2 0.223404 0.621464 0.435714
Si Si3 0.913673 0.386347 0.837332
Si Si4 0.412397 0.750000 0.107861
Si Si5 0.660531 0.990139 0.267124
Si Si6 0.912418 0.250000 0.242314
Si Si7 0.582838 0.881124 0.629869
O O1 0.132869 0.139991 0.084930
O O2 0.250000 0.000000 0.076212
O O3 0.116933 0.915303 0.100208
O O4 0.139714 0.000000 0.000000
O O5 0.251292 0.750000 0.410769
O O6 0.250000 0.500000 0.404937
O O7 0.250000 0.616317 0.500000
O O8 0.132429 0.616065 0.428010
O O9 0.908783 0.250000 0.827010
O O10 0.862568 0.450185 0.791447
O O11 0.000000 0.431976 0.831461
O O12 0.500000 0.750000 0.087061
O O13 0.408654 0.750000 0.175032
O O14 0.632700 0.858237 0.267775
O O15 0.750000 0.000000 0.273737
O O16 0.622000 0.050091 0.320156
O O17 0.000000 0.250000 0.262753
O O18 0.500000 0.934272 0.615933
O O19 0.574391 0.750000 0.652171
#
# Coordination Sequence:
#
# PCOD8281032 Si02
#       7
#    16  16  16   8  16   8  16
#     4  11  26  42  64  90 123 159 207 263 322 385
#     4   9  18  36  62  91 125 164 210 261 309 365
#     4  11  24  41  63  90 122 159 205 259 316 384
#     4  11  24  43  67  89 121 165 207 259 324 393
#     4  12  25  39  64  92 126 166 211 261 320 387
#     4  11  24  42  63  91 128 168 211 263 328 393
#     4  10  21  39  63  90 127 170 213 259 315 379
#
# _framework density 20.131792999999998
#
# number of rings (size 3 to 8) (size 9 to 14) (size 15 to 20)
#    0.000    1.333    1.667    3.500    4.667    3.333 
#    1.500    1.667    0.000    1.000    0.000    0.000 
#    0.000    0.000    0.000    0.000    0.000    0.000 
#
# Total GULP energy -594899.998809 kJ/mol
# GULP energy per Si atom -12393.749975 kJ/mol
# Density = 2.008597 g / cm^3
# Si number density = 20.131793 Si / 1000 Ang^3
#
#
#
# Elastic Constant Matrix: (Units=GPa)
#
#
# Indices 1 2 3 4 5 6 
#
# 1 173.9050 78.0101 62.8427 0.0000 0.0000 0.0000
# 2 78.0101 133.4107 29.0114 0.0000 0.0000 0.0000
# 3 62.8427 29.0114 90.8895 0.0000 0.0000 0.0000
# 4 0.0000 0.0000 0.0000 20.1876 0.0000 0.0000
# 5 0.0000 0.0000 0.0000 0.0000 37.2609 0.0000
# 6 0.0000 0.0000 0.0000 0.0000 0.0000 36.0257
#
#
#
# Elastic Compliance Matrix: (Units=1/GPa)
#
#
# Indices 1 2 3 4 5 6 
#
# 1 0.009671 -0.004514 -0.005246 0.000000 0.000000 0.000000
# 2 -0.004514 0.010162 -0.000122 0.000000 0.000000 0.000000
# 3 -0.005246 -0.000122 0.014668 0.000000 0.000000 0.000000
# 4 0.000000 0.000000 0.000000 0.049535 0.000000 0.000000
# 5 0.000000 0.000000 0.000000 0.000000 0.026838 0.000000
# 6 0.000000 0.000000 0.000000 0.000000 0.000000 0.027758
#
#
# Mechanical properties :
#
#
# Convention : Reuss Voigt Hill
#
# Bulk Modulus (GPa) = 67.85854 81.99262 74.92558
# Shear Modulus (GPa) = 30.61681 33.91757 32.26719
#
# Velocity S-wave (km/s) = 3.90400 4.10906 4.00784
# Velocity P-wave (km/s) = 7.35540 7.95794 7.66259
#
# Compressibility (1/GPa) = 0.01473654
#
# Stress axis : x y z
#
# Youngs Moduli (GPa) = 103.40385 98.40716 68.17360
#
# Poissons Ratio (x) = 0.44423 0.35762
# Poissons Ratio (y) = 0.46678 0.00835
# Poissons Ratio (z) = 0.54243 0.01205
#
# Static dielectric constant tensor:
#      x y z
#    x 3.958260 0.000000 0.000000 
#    y 0.000000 4.172150 0.000000 
#    z 0.000000 0.000000 5.381940 
# 
# 
# High freq. dielectric constant tensor:
#      x y z
#    x 1.796880 0.000000 0.000000 
#    y 0.000000 1.806920 0.000000 
#    z 0.000000 0.000000 1.775670 
# 
# From -- ./inp_files/42169.got.cif
#   From: 2010.03.12/outbox.cif.g09.slc.cpg/sg67_22_cif.got.tgz:42169.got - 2010.04.10 22:41:39.
