data_PCOD8281743
_publ_section_title
;
Structure prediction by ZEFSAII (Michael W. Deem and Ramdas Pophale) SiO2 
 PCOD8281743
Probable space group: C C C A
;
_chemical_formula_sum "Si O2"
_cell_formula_units_Z 72
_cell_length_a 15.151930
_cell_length_b 10.857543
_cell_length_c 22.253376
_cell_angle_alpha 90.000000
_cell_angle_beta 90.000000
_cell_angle_gamma 90.000000
_cell_volume 3660.963671
_symmetry_space_group_name_H-M "C C C A"
_symmetry_group_IT_number 68
_space_group.IT_coordinate_system_code '2'
_symmetry_cell_setting 'orthorhombic'
loop_
_space_group_symop_operation_xyz
x,y,z
-x,1/2-y,z
x,1/2-y,1/2-z
-x,y,1/2-z
-x,-y,-z
x,1/2+y,-z
-x,1/2+y,1/2+z
x,-y,1/2+z
1/2+x,1/2+y,z
1/2-x,-y,z
1/2+x,-y,1/2-z
1/2-x,1/2+y,1/2-z
1/2-x,1/2-y,-z
1/2+x,y,-z
1/2-x,y,1/2+z
1/2+x,1/2-y,1/2+z
loop_
_atom_site_type_symbol
_atom_site_label
_atom_site_fract_x
_atom_site_fract_y
_atom_site_fract_z
Si Si1 0.589621 0.191816 0.874905
Si Si2 0.250000 0.000000 0.887993
Si Si3 0.845279 0.940481 0.400176
Si Si4 0.163719 0.675291 0.520491
Si Si5 0.727701 0.263794 0.319876
O O1 0.500000 0.250000 0.848180
O O2 0.599980 0.230163 0.945022
O O3 0.669749 0.238511 0.833792
O O4 0.587188 0.042718 0.874570
O O5 0.319217 0.067177 0.931344
O O6 0.202639 0.100441 0.844641
O O7 0.882767 0.882532 0.462006
O O8 0.836384 0.834078 0.351154
O O9 0.750000 0.000000 0.414642
O O10 0.250000 0.750000 0.500000
O O11 0.709693 0.250000 0.250000
#
# Coordination Sequence:
#
# PCOD8281743 Si02
#       5
#    16   8  16  16  16
#     4  10  22  35  53  84 118 151 186 239 311 354
#     4  10  18  30  54  86 108 132 196 246 288 338
#     4  10  18  33  56  82 112 145 190 245 287 344
#     4  11  16  33  57  83 110 148 189 240 291 350
#     4  10  22  35  58  83 108 152 203 245 283 351
#
# _framework density 19.666951999999998
#
# number of rings (size 3 to 8) (size 9 to 14) (size 15 to 20)
#    0.000    1.778    7.778    0.000    4.667    1.333 
#    0.000    0.000    0.000    0.000    0.000    6.222 
#    0.000    0.000    0.000    0.000    0.000    0.000 
#
# Total GULP energy -446257.345517 kJ/mol
# GULP energy per Si atom -12396.037375 kJ/mol
# Density = 1.962219 g / cm^3
# Si number density = 19.666952 Si / 1000 Ang^3
#
#
#
# Elastic Constant Matrix: (Units=GPa)
#
#
# Indices 1 2 3 4 5 6 
#
# 1 42.4378 32.6249 8.6090 0.0000 0.0000 0.0000
# 2 32.6249 167.0922 67.8163 0.0000 0.0000 0.0000
# 3 8.6090 67.8163 152.9778 0.0000 0.0000 0.0000
# 4 0.0000 0.0000 0.0000 32.2042 0.0000 0.0000
# 5 0.0000 0.0000 0.0000 0.0000 14.1582 0.0000
# 6 0.0000 0.0000 0.0000 0.0000 0.0000 25.1534
#
#
#
# Elastic Compliance Matrix: (Units=1/GPa)
#
#
# Indices 1 2 3 4 5 6 
#
# 1 0.027858 -0.005857 0.001029 0.000000 0.000000 0.000000
# 2 -0.005857 0.008529 -0.003451 0.000000 0.000000 0.000000
# 3 0.001029 -0.003451 0.008009 0.000000 0.000000 0.000000
# 4 0.000000 0.000000 0.000000 0.031052 0.000000 0.000000
# 5 0.000000 0.000000 0.000000 0.000000 0.070630 0.000000
# 6 0.000000 0.000000 0.000000 0.000000 0.000000 0.039756
#
#
# Mechanical properties :
#
#
# Convention : Reuss Voigt Hill
#
# Bulk Modulus (GPa) = 35.92371 64.51202 50.21787
# Shear Modulus (GPa) = 23.62144 31.20033 27.41088
#
# Velocity S-wave (km/s) = 3.46941 3.98733 3.73735
# Velocity P-wave (km/s) = 5.86129 7.35336 6.64931
#
# Compressibility (1/GPa) = 0.02783677
#
# Stress axis : x y z
#
# Youngs Moduli (GPa) = 35.89671 117.24645 124.85887
#
# Poissons Ratio (x) = 0.68668 -0.12843
# Poissons Ratio (y) = 0.21024 0.43094
# Poissons Ratio (z) = -0.03692 0.40466
#
# Static dielectric constant tensor:
#      x y z
#    x 3.007080 0.000000 0.000000 
#    y 0.000000 4.104820 0.000000 
#    z 0.000000 0.000000 3.567380 
# 
# 
# High freq. dielectric constant tensor:
#      x y z
#    x 1.698520 0.000000 0.000000 
#    y 0.000000 1.791260 0.000000 
#    z 0.000000 0.000000 1.763820 
# 
# From -- ./inp_files/39290.got.cif
#   From: 2010.03.12/outbox.cif.g09.slc.cpg/sg68_20_cif.got.tgz:39290.got - 2010.04.10 23:14:56.
