data_PCOD8281340
_publ_section_title
;
Structure prediction by ZEFSAII (Michael W. Deem and Ramdas Pophale) SiO2 
 PCOD8281340
Probable space group: C M M A
;
_chemical_formula_sum "Si O2"
_cell_formula_units_Z 80
_cell_length_a 23.682791
_cell_length_b 8.594136
_cell_length_c 20.333576
_cell_angle_alpha 90.000000
_cell_angle_beta 90.000000
_cell_angle_gamma 90.000000
_cell_volume 4138.556301
_symmetry_space_group_name_H-M "C M M A"
_symmetry_group_IT_number 67
_symmetry_cell_setting 'orthorhombic'
loop_
_space_group_symop_operation_xyz
x,y,z
-x,1/2-y,z
x,-y,-z
-x,1/2+y,-z
-x,-y,-z
x,1/2+y,-z
-x,y,z
x,1/2-y,z
1/2+x,1/2+y,z
1/2-x,-y,z
1/2+x,1/2-y,-z
1/2-x,y,-z
1/2-x,1/2-y,-z
1/2+x,y,-z
1/2-x,1/2+y,z
1/2+x,-y,z
loop_
_atom_site_type_symbol
_atom_site_label
_atom_site_fract_x
_atom_site_fract_y
_atom_site_fract_z
Si Si1 0.885340 0.067787 0.067397
Si Si2 0.500000 0.433976 0.117115
Si Si3 0.000000 0.065842 0.735464
Si Si4 0.690180 0.066729 0.570873
Si Si5 0.380022 0.066370 0.314255
Si Si6 0.687996 0.066634 0.806652
O O1 0.893746 0.250000 0.061040
O O2 0.843297 0.024155 0.126025
O O3 0.945633 0.990456 0.078419
O O4 0.859196 0.000000 0.000000
O O5 0.500000 0.250000 0.119624
O O6 0.500000 0.505306 0.190981
O O7 0.944331 0.009507 0.696936
O O8 0.000000 0.250000 0.741569
O O9 0.695714 0.250000 0.565779
O O10 0.673855 0.000000 0.500000
O O11 0.750000 0.000000 0.595968
O O12 0.641316 0.020526 0.621068
O O13 0.376065 0.250000 0.325331
O O14 0.342949 0.020702 0.252036
O O15 0.688843 0.250000 0.792268
O O16 0.750000 0.000000 0.812775
#
# Coordination Sequence:
#
# PCOD8281340 Si02
#       6
#    16   8   8  16  16  16
#     4  11  24  40  59  85 116 152 194 244 298 354
#     4  11  20  38  63  88 115 151 194 242 295 348
#     4   9  20  36  61  90 117 153 193 238 292 345
#     4  11  22  39  62  92 124 161 200 242 291 340
#     4  11  21  39  63  90 121 155 196 242 291 347
#     4  11  24  40  59  85 115 152 196 243 295 352
#
# _framework density 19.330411999999999
#
# number of rings (size 3 to 8) (size 9 to 14) (size 15 to 20)
#    0.000    1.200    2.000    5.400    0.000    2.800 
#    0.000    4.500    0.000    0.000    0.000    0.000 
#    0.000    0.000    0.000    0.000    0.000    0.000 
#
# Total GULP energy -496212.571414 kJ/mol
# GULP energy per Si atom -12405.314285 kJ/mol
# Density = 1.928641 g / cm^3
# Si number density = 19.330412 Si / 1000 Ang^3
#
#
#
# Elastic Constant Matrix: (Units=GPa)
#
#
# Indices 1 2 3 4 5 6 
#
# 1 129.2291 33.9870 59.2886 0.0000 0.0000 0.0000
# 2 33.9870 99.5636 43.4795 0.0000 0.0000 0.0000
# 3 59.2886 43.4795 130.3302 0.0000 0.0000 0.0000
# 4 0.0000 0.0000 0.0000 34.3068 0.0000 0.0000
# 5 0.0000 0.0000 0.0000 0.0000 35.1452 0.0000
# 6 0.0000 0.0000 0.0000 0.0000 0.0000 27.3197
#
#
#
# Elastic Compliance Matrix: (Units=1/GPa)
#
#
# Indices 1 2 3 4 5 6 
#
# 1 0.010012 -0.001672 -0.003996 0.000000 0.000000 0.000000
# 2 -0.001672 0.012036 -0.003255 0.000000 0.000000 0.000000
# 3 -0.003996 -0.003255 0.010577 0.000000 0.000000 0.000000
# 4 0.000000 0.000000 0.000000 0.029149 0.000000 0.000000
# 5 0.000000 0.000000 0.000000 0.000000 0.028453 0.000000
# 6 0.000000 0.000000 0.000000 0.000000 0.000000 0.036604
#
#
# Mechanical properties :
#
#
# Convention : Reuss Voigt Hill
#
# Bulk Modulus (GPa) = 67.67064 70.29257 68.98161
# Shear Modulus (GPa) = 33.42196 34.17887 33.80041
#
# Velocity S-wave (km/s) = 4.16262 4.20949 4.18612
# Velocity P-wave (km/s) = 7.62801 7.75042 7.68946
#
# Compressibility (1/GPa) = 0.01477746
#
# Stress axis : x y z
#
# Youngs Moduli (GPa) = 99.88493 83.08433 94.54824
#
# Poissons Ratio (x) = 0.13894 0.37786
# Poissons Ratio (y) = 0.16703 0.30772
# Poissons Ratio (z) = 0.39919 0.27041
#
# Static dielectric constant tensor:
#      x y z
#    x 3.638270 0.000000 0.000000 
#    y 0.000000 3.593780 0.000000 
#    z 0.000000 0.000000 3.725160 
# 
# 
# High freq. dielectric constant tensor:
#      x y z
#    x 1.754630 0.000000 0.000000 
#    y 0.000000 1.761090 0.000000 
#    z 0.000000 0.000000 1.762670 
# 
# From -- ./inp_files/39535.got.cif
#   From: 2010.03.12/outbox.cif.g09.slc.cpg/sg67_20_cif.got.tgz:39535.got - 2010.04.10 22:41:39.
