data_PCOD8281272
_publ_section_title
;
Structure prediction by ZEFSAII (Michael W. Deem and Ramdas Pophale) SiO2 
 PCOD8281272
Probable space group: C M M A
;
_chemical_formula_sum "Si O2"
_cell_formula_units_Z 80
_cell_length_a 18.840832
_cell_length_b 24.898493
_cell_length_c 8.279727
_cell_angle_alpha 90.000000
_cell_angle_beta 90.000000
_cell_angle_gamma 90.000000
_cell_volume 3884.088853
_symmetry_space_group_name_H-M "C M M A"
_symmetry_group_IT_number 67
_symmetry_cell_setting 'orthorhombic'
loop_
_space_group_symop_operation_xyz
x,y,z
-x,1/2-y,z
x,-y,-z
-x,1/2+y,-z
-x,-y,-z
x,1/2+y,-z
-x,y,z
x,1/2-y,z
1/2+x,1/2+y,z
1/2-x,-y,z
1/2+x,1/2-y,-z
1/2-x,y,-z
1/2-x,1/2-y,-z
1/2+x,y,-z
1/2-x,1/2+y,z
1/2+x,-y,z
loop_
_atom_site_type_symbol
_atom_site_label
_atom_site_fract_x
_atom_site_fract_y
_atom_site_fract_z
Si Si1 0.300572 0.250000 0.156319
Si Si2 0.838179 0.559966 0.820952
Si Si3 0.918436 0.250000 0.082391
Si Si4 0.416247 0.342553 0.672538
Si Si5 0.182499 0.155159 0.604162
Si Si6 0.670989 0.439426 0.184823
O O1 0.288301 0.197841 0.266101
O O2 0.250000 0.250000 0.000000
O O3 0.380306 0.250000 0.089711
O O4 0.884544 0.598716 0.709392
O O5 0.755019 0.571179 0.813415
O O6 0.850793 0.499118 0.758580
O O7 0.861793 0.568453 0.006655
O O8 0.896893 0.197244 0.182266
O O9 0.000000 0.250000 0.039160
O O10 0.500000 0.345586 0.642525
O O11 0.377859 0.319783 0.511995
O O12 0.250000 0.135269 0.500000
O O13 0.142428 0.105302 0.691867
#
# Coordination Sequence:
#
# PCOD8281272 Si02
#       6
#     8  16   8  16  16  16
#     4  12  26  39  64  93 120 153 210 272 303 358
#     4   9  18  38  60  89 116 162 210 250 298 357
#     4  10  23  43  65  85 120 169 207 243 307 375
#     4  11  23  41  62  90 129 166 203 253 311 374
#     4  12  23  38  59  90 126 159 199 254 319 370
#     4   9  19  35  63  86 119 158 208 255 299 359
#
# _framework density 20.596851999999998
#
# number of rings (size 3 to 8) (size 9 to 14) (size 15 to 20)
#    0.000    1.600    2.000    4.500    2.800    1.600 
#    0.000    5.000    0.000    0.000    0.000    0.000 
#    0.000    0.000    0.000    0.000    0.000    0.000 
#
# Total GULP energy -495955.494742 kJ/mol
# GULP energy per Si atom -12398.887369 kJ/mol
# Density = 2.054997 g / cm^3
# Si number density = 20.596852 Si / 1000 Ang^3
#
#
#
# Elastic Constant Matrix: (Units=GPa)
#
#
# Indices 1 2 3 4 5 6 
#
# 1 61.8873 19.5427 28.1484 0.0000 0.0000 0.0000
# 2 19.5427 116.4411 43.6967 0.0000 0.0000 0.0000
# 3 28.1484 43.6967 95.4095 0.0000 0.0000 0.0000
# 4 0.0000 0.0000 0.0000 8.4020 0.0000 0.0000
# 5 0.0000 0.0000 0.0000 0.0000 33.6162 0.0000
# 6 0.0000 0.0000 0.0000 0.0000 0.0000 27.2906
#
#
#
# Elastic Compliance Matrix: (Units=1/GPa)
#
#
# Indices 1 2 3 4 5 6 
#
# 1 0.018824 -0.001298 -0.004959 0.000000 0.000000 0.000000
# 2 -0.001298 0.010460 -0.004408 0.000000 0.000000 0.000000
# 3 -0.004959 -0.004408 0.013963 0.000000 0.000000 0.000000
# 4 0.000000 0.000000 0.000000 0.119019 0.000000 0.000000
# 5 0.000000 0.000000 0.000000 0.000000 0.029748 0.000000
# 6 0.000000 0.000000 0.000000 0.000000 0.000000 0.036643
#
#
# Mechanical properties :
#
#
# Convention : Reuss Voigt Hill
#
# Bulk Modulus (GPa) = 45.62667 50.72373 48.17520
# Shear Modulus (GPa) = 19.43325 26.01843 22.72584
#
# Velocity S-wave (km/s) = 3.07499 3.55804 3.32530
# Velocity P-wave (km/s) = 5.89981 6.44670 6.17931
#
# Compressibility (1/GPa) = 0.02191701
#
# Stress axis : x y z
#
# Youngs Moduli (GPa) = 53.12400 95.60281 71.61899
#
# Poissons Ratio (x) = 0.12412 0.35515
# Poissons Ratio (y) = 0.06897 0.31566
# Poissons Ratio (z) = 0.26344 0.42137
#
# Static dielectric constant tensor:
#      x y z
#    x 3.410070 0.000000 0.000000 
#    y 0.000000 3.874500 0.000000 
#    z 0.000000 0.000000 3.968950 
# 
# 
# High freq. dielectric constant tensor:
#      x y z
#    x 1.771820 0.000000 0.000000 
#    y 0.000000 1.815490 0.000000 
#    z 0.000000 0.000000 1.812360 
# 
# From -- ./inp_files/11168.got.cif
#   From: 2010.03.12/outbox.cif.g09.slc.cpg/sg67_6_cif.got.tgz:11168.got - 2010.04.10 22:41:39.
