data_PCOD8281844
_publ_section_title
;
Structure prediction by ZEFSAII (Michael W. Deem and Ramdas Pophale) SiO2 
 PCOD8281844
Probable space group: C C C A
;
_chemical_formula_sum "Si O2"
_cell_formula_units_Z 112
_cell_length_a 34.488073
_cell_length_b 5.016020
_cell_length_c 33.789792
_cell_angle_alpha 90.000000
_cell_angle_beta 90.000000
_cell_angle_gamma 90.000000
_cell_volume 5845.392890
_symmetry_space_group_name_H-M "C C C A"
_symmetry_group_IT_number 68
_space_group.IT_coordinate_system_code '2'
_symmetry_cell_setting 'orthorhombic'
loop_
_space_group_symop_operation_xyz
x,y,z
-x,1/2-y,z
x,1/2-y,1/2-z
-x,y,1/2-z
-x,-y,-z
x,1/2+y,-z
-x,1/2+y,1/2+z
x,-y,1/2+z
1/2+x,1/2+y,z
1/2-x,-y,z
1/2+x,-y,1/2-z
1/2-x,1/2+y,1/2-z
1/2-x,1/2-y,-z
1/2+x,y,-z
1/2-x,y,1/2+z
1/2+x,1/2-y,1/2+z
loop_
_atom_site_type_symbol
_atom_site_label
_atom_site_fract_x
_atom_site_fract_y
_atom_site_fract_z
Si Si1 0.209173 0.044869 0.974459
Si Si2 0.454304 0.748080 0.865974
Si Si3 0.373432 0.427697 0.527208
Si Si4 0.139655 0.206634 0.323686
Si Si5 0.912722 0.747770 0.604907
Si Si6 0.724115 0.750672 0.204024
Si Si7 0.597384 0.194382 0.294203
O O1 0.250000 0.000000 0.950664
O O2 0.169779 0.947736 0.952535
O O3 0.208897 0.356259 0.986146
O O4 0.500000 0.750000 0.869419
O O5 0.434230 0.539005 0.896433
O O6 0.440856 0.676436 0.821476
O O7 0.442067 0.047123 0.875320
O O8 0.379698 0.716322 0.507915
O O9 0.403527 0.352161 0.561149
O O10 0.126150 0.270362 0.368586
O O11 0.185747 0.241015 0.322552
O O12 0.119507 0.413491 0.293816
O O13 0.127851 0.910634 0.310542
O O14 0.711739 0.750000 0.250000
O O15 0.750000 0.500000 0.192555
O O16 0.750000 0.000000 0.192983
O O17 0.583048 0.250000 0.250000
#
# Coordination Sequence:
#
# PCOD8281844 Si02
#       7
#    16  16  16  16  16  16  16
#     4   8  14  25  43  69  98 125 155 196 246 294
#     4  10  21  37  57  79 106 139 168 205 260 318
#     4  10  19  33  56  80 103 133 173 218 257 304
#     4  10  20  34  51  74 107 141 178 217 259 309
#     4  10  21  37  57  79 104 137 173 210 262 323
#     4  10  19  30  47  71 101 140 182 221 255 288
#     4  10  19  32  54  80 104 135 173 214 257 304
#
# _framework density 19.160388000000001
#
# number of rings (size 3 to 8) (size 9 to 14) (size 15 to 20)
#    0.000    2.286    0.000    3.429    0.000    1.429 
#    0.000    0.714    0.000   20.571    0.000    0.000 
#    0.000    0.000    0.000    0.000    0.000    0.000 
#
# Total GULP energy -694072.052540 kJ/mol
# GULP energy per Si atom -12394.143795 kJ/mol
# Density = 1.911678 g / cm^3
# Si number density = 19.160388 Si / 1000 Ang^3
#
#
#
# Elastic Constant Matrix: (Units=GPa)
#
#
# Indices 1 2 3 4 5 6 
#
# 1 125.4373 17.5871 33.7315 0.0000 0.0000 0.0000
# 2 17.5871 87.5156 3.6958 0.0000 0.0000 0.0000
# 3 33.7315 3.6958 59.0022 0.0000 0.0000 0.0000
# 4 0.0000 0.0000 0.0000 20.0794 0.0000 0.0000
# 5 0.0000 0.0000 0.0000 0.0000 14.3177 0.0000
# 6 0.0000 0.0000 0.0000 0.0000 0.0000 106.0560
#
#
#
# Elastic Compliance Matrix: (Units=1/GPa)
#
#
# Indices 1 2 3 4 5 6 
#
# 1 0.009670 -0.001714 -0.005421 0.000000 0.000000 0.000000
# 2 -0.001714 0.011761 0.000243 0.000000 0.000000 0.000000
# 3 -0.005421 0.000243 0.020032 0.000000 0.000000 0.000000
# 4 0.000000 0.000000 0.000000 0.049802 0.000000 0.000000
# 5 0.000000 0.000000 0.000000 0.000000 0.069844 0.000000
# 6 0.000000 0.000000 0.000000 0.000000 0.000000 0.009429
#
#
# Mechanical properties :
#
#
# Convention : Reuss Voigt Hill
#
# Bulk Modulus (GPa) = 36.12789 42.44265 39.28527
# Shear Modulus (GPa) = 25.83326 42.55334 34.19330
#
# Velocity S-wave (km/s) = 3.67585 4.71776 4.22902
# Velocity P-wave (km/s) = 6.07555 7.20247 6.66288
#
# Compressibility (1/GPa) = 0.02767945
#
# Stress axis : x y z
#
# Youngs Moduli (GPa) = 103.40969 85.02837 49.91891
#
# Poissons Ratio (x) = 0.14577 0.27062
# Poissons Ratio (y) = 0.17729 -0.01215
# Poissons Ratio (z) = 0.56059 -0.02070
#
# Static dielectric constant tensor:
#      x y z
#    x 3.450580 0.000000 0.000000 
#    y 0.000000 3.744500 0.000000 
#    z 0.000000 0.000000 3.028920 
# 
# 
# High freq. dielectric constant tensor:
#      x y z
#    x 1.740220 0.000000 0.000000 
#    y 0.000000 1.771230 0.000000 
#    z 0.000000 0.000000 1.699740 
# 
# From -- ./inp_files/56285.got.cif
#   From: 2010.03.12/outbox.cif.g09.slc.cpg/sg68_29_cif.got.tgz:56285.got - 2010.04.10 23:14:56.
