data_PCOD8281525
_publ_section_title
;
Structure prediction by ZEFSAII (Michael W. Deem and Ramdas Pophale) SiO2 
 PCOD8281525
Probable space group: C M M A
;
_chemical_formula_sum "Si O2"
_cell_formula_units_Z 60
_cell_length_a 14.174440
_cell_length_b 15.424636
_cell_length_c 12.516234
_cell_angle_alpha 90.000000
_cell_angle_beta 90.000000
_cell_angle_gamma 90.000000
_cell_volume 2736.494049
_symmetry_space_group_name_H-M "C M M A"
_symmetry_group_IT_number 67
_symmetry_cell_setting 'orthorhombic'
loop_
_space_group_symop_operation_xyz
x,y,z
-x,1/2-y,z
x,-y,-z
-x,1/2+y,-z
-x,-y,-z
x,1/2+y,-z
-x,y,z
x,1/2-y,z
1/2+x,1/2+y,z
1/2-x,-y,z
1/2+x,1/2-y,-z
1/2-x,y,-z
1/2-x,1/2-y,-z
1/2+x,y,-z
1/2-x,1/2+y,z
1/2+x,-y,z
loop_
_atom_site_type_symbol
_atom_site_label
_atom_site_fract_x
_atom_site_fract_y
_atom_site_fract_z
Si Si1 0.000000 0.250000 0.558866
Si Si2 0.650186 0.750000 0.945805
Si Si3 0.312730 0.750000 0.697686
Si Si4 0.500000 0.079689 0.579947
Si Si5 0.894977 0.417608 0.063290
Si Si6 0.190582 0.585844 0.712148
O O1 0.906978 0.250000 0.629719
O O2 0.000000 0.332716 0.484811
O O3 0.654357 0.750000 0.819246
O O4 0.596718 0.664044 0.984456
O O5 0.750000 0.750000 0.000000
O O6 0.250189 0.666477 0.667667
O O7 0.591867 0.076244 0.653236
O O8 0.500000 0.000000 0.500000
O O9 0.000000 0.439729 0.105546
O O10 0.853317 0.500000 0.000000
O O11 0.826560 0.397658 0.162198
O O12 0.250000 0.500000 0.691497
#
# Coordination Sequence:
#
# PCOD8281525 Si02
#       6
#     4   8   8   8  16  16
#     4  12  30  50  70 100 138 176 234 298 342 398
#     4  12  23  40  66 103 142 180 219 269 333 415
#     4  12  27  45  71 104 138 181 227 278 345 410
#     4  12  28  50  72 100 134 176 236 294 346 398
#     4  11  24  41  66 101 141 182 222 272 338 411
#     4  12  25  45  73 102 137 180 230 281 345 411
#
# _framework density 21.925865000000002
#
# number of rings (size 3 to 8) (size 9 to 14) (size 15 to 20)
#    0.000    0.267    4.000    4.400    1.867    4.800 
#    0.000    0.000    0.000    0.000    0.000    0.000 
#    0.000    0.000    0.000    0.000    0.000    0.000 
#
# Total GULP energy -372182.666557 kJ/mol
# GULP energy per Si atom -12406.088885 kJ/mol
# Density = 2.187596 g / cm^3
# Si number density = 21.925865 Si / 1000 Ang^3
#
#
#
# Elastic Constant Matrix: (Units=GPa)
#
#
# Indices 1 2 3 4 5 6 
#
# 1 157.7174 55.8758 55.6117 0.0000 0.0000 0.0000
# 2 55.8758 198.5743 51.5758 0.0000 0.0000 0.0000
# 3 55.6117 51.5758 106.2805 0.0000 0.0000 0.0000
# 4 0.0000 0.0000 0.0000 6.9692 0.0000 0.0000
# 5 0.0000 0.0000 0.0000 0.0000 -0.5110 0.0000
# 6 0.0000 0.0000 0.0000 0.0000 0.0000 42.9785
#
#
#
# Elastic Compliance Matrix: (Units=1/GPa)
#
#
# Indices 1 2 3 4 5 6 
#
# 1 0.008077 -0.001344 -0.003574 0.000000 0.000000 0.000000
# 2 -0.001344 0.005986 -0.002201 0.000000 0.000000 0.000000
# 3 -0.003574 -0.002201 0.012347 0.000000 0.000000 0.000000
# 4 0.000000 0.000000 0.000000 0.143489 0.000000 0.000000
# 5 0.000000 0.000000 0.000000 0.000000 -1.956762 0.000000
# 6 0.000000 0.000000 0.000000 0.000000 0.000000 0.023267
#
#
# Mechanical properties :
#
#
# Convention : Reuss Voigt Hill
#
# Bulk Modulus (GPa) = 82.16320 87.63319 84.89819
# Shear Modulus (GPa) = -2.86484 29.85459 13.49487
#
# Velocity S-wave (km/s) = -1.14431 3.69401 2.48357
# Velocity P-wave (km/s) = 5.98403 7.63210 6.85776
#
# Compressibility (1/GPa) = 0.01217090
#
# Stress axis : x y z
#
# Youngs Moduli (GPa) = 123.80956 167.05706 80.98894
#
# Poissons Ratio (x) = 0.22461 0.28944
# Poissons Ratio (y) = 0.16646 0.17829
# Poissons Ratio (z) = 0.44247 0.36775
#
# Static dielectric constant tensor:
#      x y z
#    x 4.130800 0.000000 0.000000 
#    y 0.000000 4.462280 0.000000 
#    z 0.000000 0.000000 5.329020 
# 
# 
# High freq. dielectric constant tensor:
#      x y z
#    x 1.885100 0.000000 0.000000 
#    y 0.000000 1.880640 0.000000 
#    z 0.000000 0.000000 1.861250 
# 
# From -- ./inp_files/17473.got.cif
#   From: 2010.03.12/outbox.cif.g09.slc.cpg/sg67_9_cif.got.tgz:17473.got - 2010.04.10 22:41:39.
