data_PCOD8281245
_publ_section_title
;
Structure prediction by ZEFSAII (Michael W. Deem and Ramdas Pophale) SiO2 
 PCOD8281245
Probable space group: C M M A
;
_chemical_formula_sum "Si O2"
_cell_formula_units_Z 56
_cell_length_a 22.652994
_cell_length_b 18.892691
_cell_length_c 6.154515
_cell_angle_alpha 90.000000
_cell_angle_beta 90.000000
_cell_angle_gamma 90.000000
_cell_volume 2633.984809
_symmetry_space_group_name_H-M "C M M A"
_symmetry_group_IT_number 67
_symmetry_cell_setting 'orthorhombic'
loop_
_space_group_symop_operation_xyz
x,y,z
-x,1/2-y,z
x,-y,-z
-x,1/2+y,-z
-x,-y,-z
x,1/2+y,-z
-x,y,z
x,1/2-y,z
1/2+x,1/2+y,z
1/2-x,-y,z
1/2+x,1/2-y,-z
1/2-x,y,-z
1/2-x,1/2-y,-z
1/2+x,y,-z
1/2-x,1/2+y,z
1/2+x,-y,z
loop_
_atom_site_type_symbol
_atom_site_label
_atom_site_fract_x
_atom_site_fract_y
_atom_site_fract_z
Si Si1 0.065844 0.417608 0.543063
Si Si2 0.853692 0.830064 0.753844
Si Si3 0.750000 0.382544 0.500000
Si Si4 0.332126 0.072713 0.133555
O O1 0.064264 0.500000 0.500000
O O2 0.091426 0.376627 0.332781
O O3 0.105994 0.408272 0.753711
O O4 0.000000 0.388508 0.590314
O O5 0.874890 0.750000 0.794109
O O6 0.801967 0.831248 0.576516
O O7 0.824325 0.862305 0.969497
O O8 0.722009 0.431477 0.306939
O O9 0.334226 0.000000 0.000000
#
# Coordination Sequence:
#
# PCOD8281245 Si02
#       4
#    16  16   8  16
#     4  10  22  43  68  93 126 167 215 268 320 381
#     4  11  24  42  64  94 131 171 216 266 327 386
#     4  10  25  41  62  92 136 172 216 266 322 388
#     4  11  23  41  64  99 128 172 221 267 325 387
#
# _framework density 21.260563000000001
#
# number of rings (size 3 to 8) (size 9 to 14) (size 15 to 20)
#    0.000    1.429    2.857    1.286    0.000   12.571 
#    0.000    0.000    0.000    0.000    0.000    0.000 
#    0.000    0.000    0.000    0.000    0.000    0.000 
#
# Total GULP energy -347120.146457 kJ/mol
# GULP energy per Si atom -12397.148088 kJ/mol
# Density = 2.121217 g / cm^3
# Si number density = 21.260563 Si / 1000 Ang^3
#
#
#
# Elastic Constant Matrix: (Units=GPa)
#
#
# Indices 1 2 3 4 5 6 
#
# 1 141.5766 38.9950 44.2441 0.0000 0.0000 0.0000
# 2 38.9950 131.8510 57.9239 0.0000 0.0000 0.0000
# 3 44.2441 57.9239 116.9492 0.0000 0.0000 0.0000
# 4 0.0000 0.0000 0.0000 27.3743 0.0000 0.0000
# 5 0.0000 0.0000 0.0000 0.0000 28.8352 0.0000
# 6 0.0000 0.0000 0.0000 0.0000 0.0000 52.7051
#
#
#
# Elastic Compliance Matrix: (Units=1/GPa)
#
#
# Indices 1 2 3 4 5 6 
#
# 1 0.008196 -0.001357 -0.002429 0.000000 0.000000 0.000000
# 2 -0.001357 0.009918 -0.004399 0.000000 0.000000 0.000000
# 3 -0.002429 -0.004399 0.011648 0.000000 0.000000 0.000000
# 4 0.000000 0.000000 0.000000 0.036531 0.000000 0.000000
# 5 0.000000 0.000000 0.000000 0.000000 0.034680 0.000000
# 6 0.000000 0.000000 0.000000 0.000000 0.000000 0.018973
#
#
# Mechanical properties :
#
#
# Convention : Reuss Voigt Hill
#
# Bulk Modulus (GPa) = 74.66446 74.74474 74.70460
# Shear Modulus (GPa) = 35.51635 38.39717 36.95676
#
# Velocity S-wave (km/s) = 4.09164 4.25435 4.17379
# Velocity P-wave (km/s) = 7.58400 7.70490 7.64469
#
# Compressibility (1/GPa) = 0.01339325
#
# Stress axis : x y z
#
# Youngs Moduli (GPa) = 122.00991 100.82461 85.84961
#
# Poissons Ratio (x) = 0.13683 0.20849
# Poissons Ratio (y) = 0.16558 0.37765
# Poissons Ratio (z) = 0.29631 0.44353
#
# Static dielectric constant tensor:
#      x y z
#    x 4.309980 0.000000 0.000000 
#    y 0.000000 3.604510 0.000000 
#    z 0.000000 0.000000 4.124530 
# 
# 
# High freq. dielectric constant tensor:
#      x y z
#    x 1.837860 0.000000 0.000000 
#    y 0.000000 1.817360 0.000000 
#    z 0.000000 0.000000 1.841730 
# 
# From -- ./inp_files/2044.got.cif
#   From: 2010.03.12/outbox.cif.g09.slc.cpg/sg67_2_cif.got.tgz:2044.got - 2010.04.10 22:41:39.
