data_PCOD8281867
_publ_section_title
;
Structure prediction by ZEFSAII (Michael W. Deem and Ramdas Pophale) SiO2 
 PCOD8281867
Probable space group: C C C A
;
_chemical_formula_sum "Si O2"
_cell_formula_units_Z 120
_cell_length_a 19.896593
_cell_length_b 15.926236
_cell_length_c 20.971845
_cell_angle_alpha 90.000000
_cell_angle_beta 90.000000
_cell_angle_gamma 90.000000
_cell_volume 6645.512855
_symmetry_space_group_name_H-M "C C C A"
_symmetry_group_IT_number 68
_space_group.IT_coordinate_system_code '2'
_symmetry_cell_setting 'orthorhombic'
loop_
_space_group_symop_operation_xyz
x,y,z
-x,1/2-y,z
x,1/2-y,1/2-z
-x,y,1/2-z
-x,-y,-z
x,1/2+y,-z
-x,1/2+y,1/2+z
x,-y,1/2+z
1/2+x,1/2+y,z
1/2-x,-y,z
1/2+x,-y,1/2-z
1/2-x,1/2+y,1/2-z
1/2-x,1/2-y,-z
1/2+x,y,-z
1/2-x,y,1/2+z
1/2+x,1/2-y,1/2+z
loop_
_atom_site_type_symbol
_atom_site_label
_atom_site_fract_x
_atom_site_fract_y
_atom_site_fract_z
Si Si1 0.089993 0.896610 0.861732
Si Si2 0.500000 0.750000 0.341787
Si Si3 0.123184 0.665406 0.772558
Si Si4 0.173222 0.327531 0.033067
Si Si5 0.180541 0.958315 0.625264
Si Si6 0.084062 0.935627 0.056504
Si Si7 0.176429 0.353916 0.499498
Si Si8 0.938112 0.055022 0.560173
O O1 0.106433 0.895534 0.786793
O O2 0.156068 0.874297 0.901583
O O3 0.035681 0.824214 0.882391
O O4 0.066679 0.989472 0.881153
O O5 0.446546 0.699995 0.299556
O O6 0.163860 0.750000 0.750000
O O7 0.164929 0.614766 0.824589
O O8 0.150269 0.230586 0.034759
O O9 0.135285 0.368594 0.972901
O O10 0.252883 0.335646 0.031952
O O11 0.188417 0.924234 0.553687
O O12 0.250000 0.000000 0.647657
O O13 0.119658 0.026220 0.620278
O O14 0.009781 0.897130 0.071460
O O15 0.066035 0.010027 0.007991
O O16 0.124202 0.379769 0.556029
#
# Coordination Sequence:
#
# PCOD8281867 Si02
#       8
#    16   8  16  16  16  16  16  16
#     4  10  19  32  51  80 108 137 170 222 278 325
#     4  10  19  34  56  80 110 140 172 230 285 330
#     4  10  20  34  54  81 107 139 183 227 278 328
#     4  10  20  33  53  76 107 139 180 220 267 327
#     4  11  20  35  56  75 110 148 180 222 273 340
#     4   9  18  32  50  78 102 137 181 211 265 328
#     4  10  20  35  52  75 103 146 178 218 274 316
#     4   9  19  31  50  76 108 137 171 223 266 320
#
# _framework density 18.057296999999998
#
# number of rings (size 3 to 8) (size 9 to 14) (size 15 to 20)
#    0.000    2.133    1.333    4.200    0.000    4.800 
#    2.400    0.000    0.000    0.000    0.000    0.000 
#    0.000    2.133    0.000    0.000    0.000    0.000 
#
# Total GULP energy -743445.780376 kJ/mol
# GULP energy per Si atom -12390.763006 kJ/mol
# Density = 1.801620 g / cm^3
# Si number density = 18.057297 Si / 1000 Ang^3
#
#
#
# Elastic Constant Matrix: (Units=GPa)
#
#
# Indices 1 2 3 4 5 6 
#
# 1 114.4901 47.2438 28.4345 0.0000 0.0000 0.0000
# 2 47.2438 62.1634 22.2669 0.0000 0.0000 0.0000
# 3 28.4345 22.2669 59.0685 0.0000 0.0000 0.0000
# 4 0.0000 0.0000 0.0000 35.7453 0.0000 0.0000
# 5 0.0000 0.0000 0.0000 0.0000 13.2449 0.0000
# 6 0.0000 0.0000 0.0000 0.0000 0.0000 26.6121
#
#
#
# Elastic Compliance Matrix: (Units=1/GPa)
#
#
# Indices 1 2 3 4 5 6 
#
# 1 0.013159 -0.008939 -0.002965 0.000000 0.000000 0.000000
# 2 -0.008939 0.024670 -0.004997 0.000000 0.000000 0.000000
# 3 -0.002965 -0.004997 0.020240 0.000000 0.000000 0.000000
# 4 0.000000 0.000000 0.000000 0.027976 0.000000 0.000000
# 5 0.000000 0.000000 0.000000 0.000000 0.075501 0.000000
# 6 0.000000 0.000000 0.000000 0.000000 0.000000 0.037577
#
#
# Mechanical properties :
#
#
# Convention : Reuss Voigt Hill
#
# Bulk Modulus (GPa) = 41.20585 47.95694 44.58139
# Shear Modulus (GPa) = 20.74566 24.30557 22.52561
#
# Velocity S-wave (km/s) = 3.39319 3.67280 3.53576
# Velocity P-wave (km/s) = 6.18229 6.67846 6.43516
#
# Compressibility (1/GPa) = 0.02426840
#
# Stress axis : x y z
#
# Youngs Moduli (GPa) = 75.99140 40.53498 49.40623
#
# Poissons Ratio (x) = 0.36234 0.14649
# Poissons Ratio (y) = 0.67929 0.24687
# Poissons Ratio (z) = 0.22531 0.20254
#
# Static dielectric constant tensor:
#      x y z
#    x 3.565370 0.000000 0.000000 
#    y 0.000000 3.556660 0.000000 
#    z 0.000000 0.000000 3.127180 
# 
# 
# High freq. dielectric constant tensor:
#      x y z
#    x 1.707370 0.000000 0.000000 
#    y 0.000000 1.688340 0.000000 
#    z 0.000000 0.000000 1.664710 
# 
# From -- ./inp_files/39791.got.cif
#   From: 2010.03.12/outbox.cif.g09.slc.cpg/sg68_20_cif.got.tgz:39791.got - 2010.04.10 23:14:56.
