data_PCOD8281974
_publ_section_title
;
Structure prediction by ZEFSAII (Michael W. Deem and Ramdas Pophale) SiO2 
 PCOD8281974
Probable space group: C C C A
;
_chemical_formula_sum "Si O2"
_cell_formula_units_Z 72
_cell_length_a 13.365336
_cell_length_b 15.189980
_cell_length_c 17.975327
_cell_angle_alpha 90.000000
_cell_angle_beta 90.000000
_cell_angle_gamma 90.000000
_cell_volume 3649.336265
_symmetry_space_group_name_H-M "C C C A"
_symmetry_group_IT_number 68
_space_group.IT_coordinate_system_code '2'
_symmetry_cell_setting 'orthorhombic'
loop_
_space_group_symop_operation_xyz
x,y,z
-x,1/2-y,z
x,1/2-y,1/2-z
-x,y,1/2-z
-x,-y,-z
x,1/2+y,-z
-x,1/2+y,1/2+z
x,-y,1/2+z
1/2+x,1/2+y,z
1/2-x,-y,z
1/2+x,-y,1/2-z
1/2-x,1/2+y,1/2-z
1/2-x,1/2-y,-z
1/2+x,y,-z
1/2-x,y,1/2+z
1/2+x,1/2-y,1/2+z
loop_
_atom_site_type_symbol
_atom_site_label
_atom_site_fract_x
_atom_site_fract_y
_atom_site_fract_z
Si Si1 0.500000 0.250000 0.927134
Si Si2 0.304384 0.914363 0.601260
Si Si3 0.498605 0.403221 0.033096
Si Si4 0.773452 0.157938 0.541557
Si Si5 0.688614 0.241848 0.836612
O O1 0.586856 0.209773 0.875777
O O2 0.543874 0.331010 0.975559
O O3 0.425814 0.911360 0.603727
O O4 0.272887 0.914472 0.513416
O O5 0.271570 0.831957 0.650244
O O6 0.250000 0.000000 0.636378
O O7 0.389947 0.365833 0.054890
O O8 0.500000 0.500000 0.000000
O O9 0.750000 0.250000 0.500000
O O10 0.725143 0.166237 0.624414
O O11 0.668795 0.250000 0.750000
#
# Coordination Sequence:
#
# PCOD8281974 Si02
#       5
#     8  16  16  16  16
#     4  12  19  38  60  88 123 152 210 258 291 368
#     4  11  20  38  61  89 121 151 203 258 304 355
#     4  12  21  35  66  95 115 151 210 263 310 358
#     4  10  19  36  57  87 118 151 198 250 302 350
#     4  11  23  38  58  86 125 168 195 239 310 373
#
# _framework density 19.729614999999999
#
# number of rings (size 3 to 8) (size 9 to 14) (size 15 to 20)
#    0.000    0.889    8.889    1.667    0.000    0.000 
#    0.000    5.556    0.000    0.000    0.000    0.000 
#    0.000    0.000    0.000    0.000    0.000    0.000 
#
# Total GULP energy -445995.401654 kJ/mol
# GULP energy per Si atom -12388.761157 kJ/mol
# Density = 1.968471 g / cm^3
# Si number density = 19.729615 Si / 1000 Ang^3
#
#
#
# Elastic Constant Matrix: (Units=GPa)
#
#
# Indices 1 2 3 4 5 6 
#
# 1 101.5588 11.4333 -9.8283 0.0000 0.0000 0.0000
# 2 11.4333 93.5256 6.4912 0.0000 0.0000 0.0000
# 3 -9.8283 6.4912 53.7067 0.0000 0.0000 0.0000
# 4 0.0000 0.0000 0.0000 18.1160 0.0000 0.0000
# 5 0.0000 0.0000 0.0000 0.0000 16.3359 0.0000
# 6 0.0000 0.0000 0.0000 0.0000 0.0000 35.9331
#
#
#
# Elastic Compliance Matrix: (Units=1/GPa)
#
#
# Indices 1 2 3 4 5 6 
#
# 1 0.010200 -0.001388 0.002034 0.000000 0.000000 0.000000
# 2 -0.001388 0.010972 -0.001580 0.000000 0.000000 0.000000
# 3 0.002034 -0.001580 0.019183 0.000000 0.000000 0.000000
# 4 0.000000 0.000000 0.000000 0.055200 0.000000 0.000000
# 5 0.000000 0.000000 0.000000 0.000000 0.061215 0.000000
# 6 0.000000 0.000000 0.000000 0.000000 0.000000 0.027829
#
#
# Mechanical properties :
#
#
# Convention : Reuss Voigt Hill
#
# Bulk Modulus (GPa) = 25.98318 29.44262 27.71290
# Shear Modulus (GPa) = 25.08843 30.12332 27.60587
#
# Velocity S-wave (km/s) = 3.56984 3.91168 3.74466
# Velocity P-wave (km/s) = 5.49453 5.94618 5.72481
#
# Compressibility (1/GPa) = 0.03848643
#
# Stress axis : x y z
#
# Youngs Moduli (GPa) = 98.04264 91.14423 52.12972
#
# Poissons Ratio (x) = 0.12652 -0.10605
# Poissons Ratio (y) = 0.13609 0.08237
# Poissons Ratio (z) = -0.19945 0.14402
#
# Static dielectric constant tensor:
#      x y z
#    x 4.073320 0.000000 0.000000 
#    y 0.000000 3.722360 0.000000 
#    z 0.000000 0.000000 3.384150 
# 
# 
# High freq. dielectric constant tensor:
#      x y z
#    x 1.795580 0.000000 0.000000 
#    y 0.000000 1.767920 0.000000 
#    z 0.000000 0.000000 1.711290 
# 
# From -- ./inp_files/30652.got.cif
#   From: 2010.03.12/outbox.cif.g09.slc.cpg/sg68_16_cif.got.tgz:30652.got - 2010.04.10 23:14:56.
