data_PCOD8281854
_publ_section_title
;
Structure prediction by ZEFSAII (Michael W. Deem and Ramdas Pophale) SiO2 
 PCOD8281854
Probable space group: C C C A
;
_chemical_formula_sum "Si O2"
_cell_formula_units_Z 128
_cell_length_a 25.401437
_cell_length_b 11.519965
_cell_length_c 23.754871
_cell_angle_alpha 90.000000
_cell_angle_beta 90.000000
_cell_angle_gamma 90.000000
_cell_volume 6951.237418
_symmetry_space_group_name_H-M "C C C A"
_symmetry_group_IT_number 68
_space_group.IT_coordinate_system_code '2'
_symmetry_cell_setting 'orthorhombic'
loop_
_space_group_symop_operation_xyz
x,y,z
-x,1/2-y,z
x,1/2-y,1/2-z
-x,y,1/2-z
-x,-y,-z
x,1/2+y,-z
-x,1/2+y,1/2+z
x,-y,1/2+z
1/2+x,1/2+y,z
1/2-x,-y,z
1/2+x,-y,1/2-z
1/2-x,1/2+y,1/2-z
1/2-x,1/2-y,-z
1/2+x,y,-z
1/2-x,y,1/2+z
1/2+x,1/2-y,1/2+z
loop_
_atom_site_type_symbol
_atom_site_label
_atom_site_fract_x
_atom_site_fract_y
_atom_site_fract_z
Si Si1 0.374753 0.833769 0.202108
Si Si2 0.439586 0.726824 0.105271
Si Si3 0.058720 0.536350 0.516270
Si Si4 0.622878 0.175037 0.431545
Si Si5 0.689957 0.469857 0.611682
Si Si6 0.867424 0.651210 0.518795
Si Si7 0.060660 0.448127 0.754523
Si Si8 0.060684 0.263182 0.664112
O O1 0.349498 0.750000 0.250000
O O2 0.410328 0.745956 0.164681
O O3 0.329538 0.893813 0.164632
O O4 0.407435 0.935056 0.233098
O O5 0.500000 0.750000 0.116614
O O6 0.436731 0.599597 0.076933
O O7 0.413790 0.816846 0.062182
O O8 0.074791 0.612446 0.462454
O O9 0.102759 0.437142 0.522522
O O10 0.000000 0.500000 0.500000
O O11 0.655169 0.244214 0.480275
O O12 0.597052 0.268681 0.390361
O O13 0.658908 0.090108 0.395001
O O14 0.750000 0.500000 0.622201
O O15 0.682100 0.399718 0.553163
O O16 0.074422 0.382847 0.696165
O O17 0.073841 0.353770 0.801862
O O18 0.000000 0.484457 0.750000
O O19 0.000000 0.250000 0.647175
#
# Coordination Sequence:
#
# PCOD8281854 Si02
#       8
#    16  16  16  16  16  16  16  16
#     4  11  24  39  55  82 119 149 199 242 291 360
#     4  10  20  32  50  79 117 161 186 215 281 348
#     4  10  19  31  50  80 122 157 186 222 269 348
#     4  10  20  34  56  85 113 148 191 239 286 347
#     4  10  22  44  64  79 109 153 202 256 303 341
#     4   9  20  35  54  86 115 143 194 237 284 346
#     4   9  19  35  51  79 117 157 197 232 279 343
#     4   9  18  32  54  81 117 157 194 235 278 338
#
# _framework density 18.413989000000001
#
# number of rings (size 3 to 8) (size 9 to 14) (size 15 to 20)
#    0.000    2.250    2.500    0.750    3.500    1.500 
#    0.000    1.250    0.000    0.000    0.000    1.750 
#    0.000    0.000    0.000    0.000    0.000    0.000 
#
# Total GULP energy -792912.334984 kJ/mol
# GULP energy per Si atom -12389.255234 kJ/mol
# Density = 1.837208 g / cm^3
# Si number density = 18.413989 Si / 1000 Ang^3
#
#
#
# Elastic Constant Matrix: (Units=GPa)
#
#
# Indices 1 2 3 4 5 6 
#
# 1 89.4093 40.6463 54.1352 0.0000 0.0000 0.0000
# 2 40.6463 98.1593 57.2406 0.0000 0.0000 0.0000
# 3 54.1352 57.2406 96.9780 0.0000 0.0000 0.0000
# 4 0.0000 0.0000 0.0000 41.7313 0.0000 0.0000
# 5 0.0000 0.0000 0.0000 0.0000 13.7038 0.0000
# 6 0.0000 0.0000 0.0000 0.0000 0.0000 16.5301
#
#
#
# Elastic Compliance Matrix: (Units=1/GPa)
#
#
# Indices 1 2 3 4 5 6 
#
# 1 0.017237 -0.002328 -0.008248 0.000000 0.000000 0.000000
# 2 -0.002328 0.015849 -0.008055 0.000000 0.000000 0.000000
# 3 -0.008248 -0.008055 0.019670 0.000000 0.000000 0.000000
# 4 0.000000 0.000000 0.000000 0.023963 0.000000 0.000000
# 5 0.000000 0.000000 0.000000 0.000000 0.072972 0.000000
# 6 0.000000 0.000000 0.000000 0.000000 0.000000 0.060496
#
#
# Mechanical properties :
#
#
# Convention : Reuss Voigt Hill
#
# Bulk Modulus (GPa) = 64.54138 65.39897 64.97017
# Shear Modulus (GPa) = 19.79314 23.22803 21.51059
#
# Velocity S-wave (km/s) = 3.28212 3.55552 3.42155
# Velocity P-wave (km/s) = 7.03487 7.24214 7.13926
#
# Compressibility (1/GPa) = 0.01549394
#
# Stress axis : x y z
#
# Youngs Moduli (GPa) = 58.01585 63.09668 50.83804
#
# Poissons Ratio (x) = 0.14687 0.41931
# Poissons Ratio (y) = 0.13505 0.40951
# Poissons Ratio (z) = 0.47851 0.50826
#
# Static dielectric constant tensor:
#      x y z
#    x 2.987070 0.000000 0.000000 
#    y 0.000000 3.799700 0.000000 
#    z 0.000000 0.000000 3.507420 
# 
# 
# High freq. dielectric constant tensor:
#      x y z
#    x 1.668000 0.000000 0.000000 
#    y 0.000000 1.723950 0.000000 
#    z 0.000000 0.000000 1.722190 
# 
# From -- ./inp_files/47369.got.cif
#   From: 2010.03.12/outbox.cif.g09.slc.cpg/sg68_24_cif.got.tgz:47369.got - 2010.04.10 23:14:56.
