data_PCOD8281599
_publ_section_title
;
Structure prediction by ZEFSAII (Michael W. Deem and Ramdas Pophale) SiO2 
 PCOD8281599
Probable space group: C M M A
;
_chemical_formula_sum "Si O2"
_cell_formula_units_Z 80
_cell_length_a 9.099704
_cell_length_b 19.406585
_cell_length_c 26.146597
_cell_angle_alpha 90.000000
_cell_angle_beta 90.000000
_cell_angle_gamma 90.000000
_cell_volume 4617.336835
_symmetry_space_group_name_H-M "C M M A"
_symmetry_group_IT_number 67
_symmetry_cell_setting 'orthorhombic'
loop_
_space_group_symop_operation_xyz
x,y,z
-x,1/2-y,z
x,-y,-z
-x,1/2+y,-z
-x,-y,-z
x,1/2+y,-z
-x,y,z
x,1/2-y,z
1/2+x,1/2+y,z
1/2-x,-y,z
1/2+x,1/2-y,-z
1/2-x,y,-z
1/2-x,1/2-y,-z
1/2+x,y,-z
1/2-x,1/2+y,z
1/2+x,-y,z
loop_
_atom_site_type_symbol
_atom_site_label
_atom_site_fract_x
_atom_site_fract_y
_atom_site_fract_z
Si Si1 0.665875 0.332032 0.350734
Si Si2 0.327389 0.170959 0.750448
Si Si3 0.671696 0.926611 0.047096
Si Si4 0.670711 0.927772 0.159778
Si Si5 0.666130 0.332191 0.549957
O O1 0.500000 0.360491 0.351818
O O2 0.667729 0.250000 0.352271
O O3 0.745182 0.358258 0.299428
O O4 0.752113 0.361334 0.399872
O O5 0.500000 0.163267 0.740745
O O6 0.284522 0.250000 0.761206
O O7 0.272359 0.127243 0.798984
O O8 0.500000 0.934002 0.034962
O O9 0.698183 0.894039 0.103357
O O10 0.750000 0.000000 0.049028
O O11 0.750000 0.884524 0.000000
O O12 0.500000 0.943229 0.167311
O O13 0.750000 0.000000 0.167938
O O14 0.500000 0.360366 0.549381
O O15 0.666705 0.250000 0.550301
O O16 0.750000 0.360252 0.500000
#
# Coordination Sequence:
#
# PCOD8281599 Si02
#       5
#    16  16  16  16  16
#     4   9  16  25  37  55  79 107 140 176 214 257
#     4   9  17  30  46  62  83 114 149 180 212 255
#     4   9  15  24  39  60  84 108 136 170 210 254
#     4   9  18  30  45  66  89 113 142 178 218 257
#     4   9  15  22  33  50  74 105 139 175 215 257
#
# _framework density 17.326004000000001
#
# number of rings (size 3 to 8) (size 9 to 14) (size 15 to 20)
#    0.000    3.000    0.000    2.400    0.000    6.400 
#    0.000    0.000    0.000    0.600    0.000    0.000 
#    0.000    0.800    0.000    8.400    0.000   18.000 
#
# Total GULP energy -495710.510122 kJ/mol
# GULP energy per Si atom -12392.762753 kJ/mol
# Density = 1.728657 g / cm^3
# Si number density = 17.326004 Si / 1000 Ang^3
#
#
#
# Elastic Constant Matrix: (Units=GPa)
#
#
# Indices 1 2 3 4 5 6 
#
# 1 111.1285 21.7004 84.8686 0.0000 0.0000 0.0000
# 2 21.7004 28.0791 40.9736 0.0000 0.0000 0.0000
# 3 84.8686 40.9736 203.3740 0.0000 0.0000 0.0000
# 4 0.0000 0.0000 0.0000 -1.2846 0.0000 0.0000
# 5 0.0000 0.0000 0.0000 0.0000 33.2046 0.0000
# 6 0.0000 0.0000 0.0000 0.0000 0.0000 10.3154
#
#
#
# Elastic Compliance Matrix: (Units=1/GPa)
#
#
# Indices 1 2 3 4 5 6 
#
# 1 0.013397 -0.003110 -0.004964 0.000000 0.000000 0.000000
# 2 -0.003110 0.051165 -0.009010 0.000000 0.000000 0.000000
# 3 -0.004964 -0.009010 0.008804 0.000000 0.000000 0.000000
# 4 0.000000 0.000000 0.000000 -0.778455 0.000000 0.000000
# 5 0.000000 0.000000 0.000000 0.000000 0.030116 0.000000
# 6 0.000000 0.000000 0.000000 0.000000 0.000000 0.096943
#
#
# Mechanical properties :
#
#
# Convention : Reuss Voigt Hill
#
# Bulk Modulus (GPa) = 25.51198 70.85186 48.18192
# Shear Modulus (GPa) = -9.41983 21.44967 6.01492
#
# Velocity S-wave (km/s) = -2.33423 3.52235 1.86525
# Velocity P-wave (km/s) = 2.73712 7.58450 5.70160
#
# Compressibility (1/GPa) = 0.03919726
#
# Stress axis : x y z
#
# Youngs Moduli (GPa) = 74.64425 19.54450 113.58643
#
# Poissons Ratio (x) = 0.06078 0.56384
# Poissons Ratio (y) = 0.23214 1.02346
# Poissons Ratio (z) = 0.37053 0.17610
#
# Static dielectric constant tensor:
#      x y z
#    x 3.367480 0.000000 0.000000 
#    y 0.000000 2.553010 0.000000 
#    z 0.000000 0.000000 4.030010 
# 
# 
# High freq. dielectric constant tensor:
#      x y z
#    x 1.680370 0.000000 0.000000 
#    y 0.000000 1.581940 0.000000 
#    z 0.000000 0.000000 1.696420 
# 
# From -- ./inp_files/43309.got.cif
#   From: 2010.03.12/outbox.cif.g09.slc.cpg/sg67_22_cif.got.tgz:43309.got - 2010.04.10 22:41:39.
