data_PCOD8281544
_publ_section_title
;
Structure prediction by ZEFSAII (Michael W. Deem and Ramdas Pophale) SiO2 
 PCOD8281544
Probable space group: C M M A
;
_chemical_formula_sum "Si O2"
_cell_formula_units_Z 80
_cell_length_a 18.269297
_cell_length_b 9.636443
_cell_length_c 24.060111
_cell_angle_alpha 90.000000
_cell_angle_beta 90.000000
_cell_angle_gamma 90.000000
_cell_volume 4235.807545
_symmetry_space_group_name_H-M "C M M A"
_symmetry_group_IT_number 67
_symmetry_cell_setting 'orthorhombic'
loop_
_space_group_symop_operation_xyz
x,y,z
-x,1/2-y,z
x,-y,-z
-x,1/2+y,-z
-x,-y,-z
x,1/2+y,-z
-x,y,z
x,1/2-y,z
1/2+x,1/2+y,z
1/2-x,-y,z
1/2+x,1/2-y,-z
1/2-x,y,-z
1/2-x,1/2-y,-z
1/2+x,y,-z
1/2-x,1/2+y,z
1/2+x,-y,z
loop_
_atom_site_type_symbol
_atom_site_label
_atom_site_fract_x
_atom_site_fract_y
_atom_site_fract_z
Si Si1 0.420809 0.908989 0.272219
Si Si2 0.170812 0.250000 0.469880
Si Si3 0.912763 0.908421 0.051704
Si Si4 0.413220 0.250000 0.420821
Si Si5 0.665786 0.519013 0.378977
Si Si6 0.912798 0.593672 0.847832
O O1 0.500000 0.978219 0.287336
O O2 0.435373 0.750000 0.259130
O O3 0.389306 0.966556 0.213415
O O4 0.365630 0.918173 0.322984
O O5 0.250000 0.250000 0.500000
O O6 0.106016 0.250000 0.514310
O O7 0.158710 0.384604 0.432711
O O8 0.882501 0.750000 0.048630
O O9 0.000000 0.904404 0.051924
O O10 0.882130 0.985147 0.106864
O O11 0.884283 0.000000 0.000000
O O12 0.500000 0.250000 0.413313
O O13 0.377465 0.120134 0.390810
O O14 0.750000 0.500000 0.366186
O O15 0.882147 0.750000 0.859295
O O16 0.000000 0.598150 0.850929
#
# Coordination Sequence:
#
# PCOD8281544 Si02
#       6
#    16   8  16   8  16  16
#     4   9  18  34  56  80 104 140 192 237 281 344
#     4  12  24  44  66  88 114 154 197 241 296 363
#     4   9  15  22  35  59  92 134 181 222 271 335
#     4  12  28  42  60  96 126 150 191 247 301 351
#     4  12  23  41  65  85 118 154 192 239 296 359
#     4   8  14  26  43  63  92 129 172 227 280 327
#
# _framework density 18.886600000000001
#
# number of rings (size 3 to 8) (size 9 to 14) (size 15 to 20)
#    0.000    2.000    3.000    3.000    0.000    4.800 
#    1.800    0.000    0.000    0.000    0.000    0.000 
#    0.000    0.800    0.000    6.400    0.000    7.400 
#
# Total GULP energy -495687.882574 kJ/mol
# GULP energy per Si atom -12392.197064 kJ/mol
# Density = 1.884361 g / cm^3
# Si number density = 18.886600 Si / 1000 Ang^3
#
#
#
# Elastic Constant Matrix: (Units=GPa)
#
#
# Indices 1 2 3 4 5 6 
#
# 1 82.7253 29.6178 39.3502 0.0000 0.0000 0.0000
# 2 29.6178 111.6573 53.8934 0.0000 0.0000 0.0000
# 3 39.3502 53.8934 156.3274 0.0000 0.0000 0.0000
# 4 0.0000 0.0000 0.0000 33.1621 0.0000 0.0000
# 5 0.0000 0.0000 0.0000 0.0000 14.6803 0.0000
# 6 0.0000 0.0000 0.0000 0.0000 0.0000 17.2994
#
#
#
# Elastic Compliance Matrix: (Units=1/GPa)
#
#
# Indices 1 2 3 4 5 6 
#
# 1 0.014275 -0.002462 -0.002745 0.000000 0.000000 0.000000
# 2 -0.002462 0.011168 -0.003231 0.000000 0.000000 0.000000
# 3 -0.002745 -0.003231 0.008201 0.000000 0.000000 0.000000
# 4 0.000000 0.000000 0.000000 0.030155 0.000000 0.000000
# 5 0.000000 0.000000 0.000000 0.000000 0.068118 0.000000
# 6 0.000000 0.000000 0.000000 0.000000 0.000000 0.057806
#
#
# Mechanical properties :
#
#
# Convention : Reuss Voigt Hill
#
# Bulk Modulus (GPa) = 59.62717 66.27031 62.94874
# Shear Modulus (GPa) = 23.56401 28.21826 25.89114
#
# Velocity S-wave (km/s) = 3.53605 3.86954 3.70655
# Velocity P-wave (km/s) = 6.95063 7.42490 7.19168
#
# Compressibility (1/GPa) = 0.01677088
#
# Stress axis : x y z
#
# Youngs Moduli (GPa) = 70.05193 89.53931 121.93041
#
# Poissons Ratio (x) = 0.22043 0.33465
# Poissons Ratio (y) = 0.17246 0.39390
# Poissons Ratio (z) = 0.19226 0.28926
#
# Static dielectric constant tensor:
#      x y z
#    x 3.026440 0.000000 0.000000 
#    y 0.000000 3.608270 0.000000 
#    z 0.000000 0.000000 3.760060 
# 
# 
# High freq. dielectric constant tensor:
#      x y z
#    x 1.682280 0.000000 0.000000 
#    y 0.000000 1.732650 0.000000 
#    z 0.000000 0.000000 1.754350 
# 
# From -- ./inp_files/42311.got.cif
#   From: 2010.03.12/outbox.cif.g09.slc.cpg/sg67_22_cif.got.tgz:42311.got - 2010.04.10 22:41:39.
