data_PCOD8281614
_publ_section_title
;
Structure prediction by ZEFSAII (Michael W. Deem and Ramdas Pophale) SiO2 
 PCOD8281614
Probable space group: C C C A
;
_chemical_formula_sum "Si O2"
_cell_formula_units_Z 104
_cell_length_a 27.759120
_cell_length_b 20.284622
_cell_length_c 8.976575
_cell_angle_alpha 90.000000
_cell_angle_beta 90.000000
_cell_angle_gamma 90.000000
_cell_volume 5054.559081
_symmetry_space_group_name_H-M "C C C A"
_symmetry_group_IT_number 68
_space_group.IT_coordinate_system_code '2'
_symmetry_cell_setting 'orthorhombic'
loop_
_space_group_symop_operation_xyz
x,y,z
-x,1/2-y,z
x,1/2-y,1/2-z
-x,y,1/2-z
-x,-y,-z
x,1/2+y,-z
-x,1/2+y,1/2+z
x,-y,1/2+z
1/2+x,1/2+y,z
1/2-x,-y,z
1/2+x,-y,1/2-z
1/2-x,1/2+y,1/2-z
1/2-x,1/2-y,-z
1/2+x,y,-z
1/2-x,y,1/2+z
1/2+x,1/2-y,1/2+z
loop_
_atom_site_type_symbol
_atom_site_label
_atom_site_fract_x
_atom_site_fract_y
_atom_site_fract_z
Si Si1 0.250000 0.000000 0.687329
Si Si2 0.168740 0.654815 0.607907
Si Si3 0.435243 0.370162 0.503346
Si Si4 0.057499 0.714122 0.998044
Si Si5 0.000000 0.856128 0.250000
Si Si6 0.000000 0.644195 0.750000
Si Si7 0.836402 0.695734 0.552596
Si Si8 0.230033 0.090814 0.936399
O O1 0.217907 0.952722 0.582521
O O2 0.283362 0.953138 0.791755
O O3 0.122032 0.620153 0.528788
O O4 0.179241 0.727983 0.546466
O O5 0.162753 0.662922 0.784587
O O6 0.213188 0.607791 0.568730
O O7 0.446217 0.292355 0.508619
O O8 0.459693 0.397560 0.348329
O O9 0.466590 0.400823 0.640371
O O10 0.029891 0.689405 0.140901
O O11 0.036982 0.688455 0.843108
O O12 0.111433 0.688461 0.017844
O O13 0.800680 0.657289 0.441374
#
# Coordination Sequence:
#
# PCOD8281614 Si02
#       8
#     8  16  16  16   8   8  16  16
#     4  10  24  38  62  78 104 144 192 236 284 318
#     4  10  20  34  55  84 115 150 185 222 277 343
#     4  10  17  27  44  70 105 147 187 216 258 322
#     4  10  17  27  44  70 105 147 187 216 258 322
#     4  10  19  28  40  68 112 153 184 221 260 306
#     4  10  15  24  44  64 100 149 182 215 250 310
#     4  10  20  34  55  84 115 150 185 222 277 343
#     4  11  21  42  58  82 111 145 182 238 276 333
#
# _framework density 20.575483999999999
#
# number of rings (size 3 to 8) (size 9 to 14) (size 15 to 20)
#    0.000    1.846    3.077    4.154    0.000    1.231 
#    0.000    1.538    0.000    0.000    0.000    0.000 
#    0.000   86.154    0.000    0.000    0.000    0.000 
#
# Total GULP energy -644198.258278 kJ/mol
# GULP energy per Si atom -12388.428044 kJ/mol
# Density = 2.052865 g / cm^3
# Si number density = 20.575484 Si / 1000 Ang^3
#
#
#
# Elastic Constant Matrix: (Units=GPa)
#
#
# Indices 1 2 3 4 5 6 
#
# 1 117.3149 28.0435 37.7829 0.0000 0.0000 0.0000
# 2 28.0435 44.4689 19.4123 0.0000 0.0000 0.0000
# 3 37.7829 19.4123 107.9658 0.0000 0.0000 0.0000
# 4 0.0000 0.0000 0.0000 18.0555 0.0000 0.0000
# 5 0.0000 0.0000 0.0000 0.0000 23.4166 0.0000
# 6 0.0000 0.0000 0.0000 0.0000 0.0000 4.4048
#
#
#
# Elastic Compliance Matrix: (Units=1/GPa)
#
#
# Indices 1 2 3 4 5 6 
#
# 1 0.010744 -0.005572 -0.002758 0.000000 0.000000 0.000000
# 2 -0.005572 0.027292 -0.002957 0.000000 0.000000 0.000000
# 3 -0.002758 -0.002957 0.010759 0.000000 0.000000 0.000000
# 4 0.000000 0.000000 0.000000 0.055385 0.000000 0.000000
# 5 0.000000 0.000000 0.000000 0.000000 0.042705 0.000000
# 6 0.000000 0.000000 0.000000 0.000000 0.000000 0.227027
#
#
# Mechanical properties :
#
#
# Convention : Reuss Voigt Hill
#
# Bulk Modulus (GPa) = 38.13690 48.91410 43.52550
# Shear Modulus (GPa) = 12.33876 21.47610 16.90743
#
# Velocity S-wave (km/s) = 2.45150 3.23425 2.86969
# Velocity P-wave (km/s) = 5.15640 6.14587 5.67275
#
# Compressibility (1/GPa) = 0.02622133
#
# Stress axis : x y z
#
# Youngs Moduli (GPa) = 93.07316 36.64050 92.94405
#
# Poissons Ratio (x) = 0.20415 0.25636
# Poissons Ratio (y) = 0.51857 0.27487
# Poissons Ratio (z) = 0.25671 0.10836
#
# Static dielectric constant tensor:
#      x y z
#    x 4.025680 0.000000 0.000000 
#    y 0.000000 3.276500 0.000000 
#    z 0.000000 0.000000 4.169440 
# 
# 
# High freq. dielectric constant tensor:
#      x y z
#    x 1.806040 0.000000 0.000000 
#    y 0.000000 1.745750 0.000000 
#    z 0.000000 0.000000 1.820330 
# 
# From -- ./inp_files/9034.got.cif
#   From: 2010.03.12/outbox.cif.g09.slc.cpg/sg68_5_cif.got.tgz:9034.got - 2010.04.10 23:14:56.
