data_PCOD8281962
_publ_section_title
;
Structure prediction by ZEFSAII (Michael W. Deem and Ramdas Pophale) SiO2 
 PCOD8281962
Probable space group: C C C A
;
_chemical_formula_sum "Si O2"
_cell_formula_units_Z 88
_cell_length_a 13.249441
_cell_length_b 18.569267
_cell_length_c 18.789319
_cell_angle_alpha 90.000000
_cell_angle_beta 90.000000
_cell_angle_gamma 90.000000
_cell_volume 4622.781389
_symmetry_space_group_name_H-M "C C C A"
_symmetry_group_IT_number 68
_space_group.IT_coordinate_system_code '2'
_symmetry_cell_setting 'orthorhombic'
loop_
_space_group_symop_operation_xyz
x,y,z
-x,1/2-y,z
x,1/2-y,1/2-z
-x,y,1/2-z
-x,-y,-z
x,1/2+y,-z
-x,1/2+y,1/2+z
x,-y,1/2+z
1/2+x,1/2+y,z
1/2-x,-y,z
1/2+x,-y,1/2-z
1/2-x,1/2+y,1/2-z
1/2-x,1/2-y,-z
1/2+x,y,-z
1/2-x,y,1/2+z
1/2+x,1/2-y,1/2+z
loop_
_atom_site_type_symbol
_atom_site_label
_atom_site_fract_x
_atom_site_fract_y
_atom_site_fract_z
Si Si1 0.750000 0.500000 0.910892
Si Si2 0.099554 0.282567 0.028900
Si Si3 0.410225 0.443178 0.486507
Si Si4 0.798097 0.256897 0.889565
Si Si5 0.609710 0.110518 0.341157
Si Si6 0.376283 0.609015 0.681849
O O1 0.673496 0.547353 0.865283
O O2 0.683959 0.451261 0.961913
O O3 0.182903 0.274892 0.090029
O O4 0.000000 0.250000 0.063933
O O5 0.061730 0.360881 0.002478
O O6 0.134525 0.235585 0.960639
O O7 0.500000 0.500000 0.500000
O O8 0.374180 0.448923 0.403625
O O9 0.817923 0.178545 0.856329
O O10 0.822717 0.314845 0.829237
O O11 0.490445 0.126549 0.340745
O O12 0.637685 0.081518 0.262909
#
# Coordination Sequence:
#
# PCOD8281962 Si02
#       6
#     8  16  16  16  16  16
#     4  12  24  38  64  86 130 162 200 256 310 364
#     4  10  21  35  59  91 123 156 205 255 307 363
#     4  11  22  39  61  91 121 165 206 254 304 371
#     4  10  19  35  59  90 122 154 200 260 309 361
#     4  10  22  37  63  90 121 157 209 252 313 374
#     4  11  21  39  60  92 123 160 199 260 308 372
#
# _framework density 19.036158
#
# number of rings (size 3 to 8) (size 9 to 14) (size 15 to 20)
#    0.000    1.455    3.636    3.273    0.000    2.182 
#    0.000    0.000    0.000    2.182    0.000    0.000 
#    0.000    0.000    0.000    0.000    0.000    0.000 
#
# Total GULP energy -545202.490874 kJ/mol
# GULP energy per Si atom -12390.965702 kJ/mol
# Density = 1.899283 g / cm^3
# Si number density = 19.036158 Si / 1000 Ang^3
#
#
#
# Elastic Constant Matrix: (Units=GPa)
#
#
# Indices 1 2 3 4 5 6 
#
# 1 106.4399 34.4571 47.3465 0.0000 0.0000 0.0000
# 2 34.4571 76.9960 40.4729 0.0000 0.0000 0.0000
# 3 47.3465 40.4729 142.9644 0.0000 0.0000 0.0000
# 4 0.0000 0.0000 0.0000 40.4040 0.0000 0.0000
# 5 0.0000 0.0000 0.0000 0.0000 26.5814 0.0000
# 6 0.0000 0.0000 0.0000 0.0000 0.0000 30.6572
#
#
#
# Elastic Compliance Matrix: (Units=1/GPa)
#
#
# Indices 1 2 3 4 5 6 
#
# 1 0.011905 -0.003824 -0.002860 0.000000 0.000000 0.000000
# 2 -0.003824 0.016487 -0.003401 0.000000 0.000000 0.000000
# 3 -0.002860 -0.003401 0.008905 0.000000 0.000000 0.000000
# 4 0.000000 0.000000 0.000000 0.024750 0.000000 0.000000
# 5 0.000000 0.000000 0.000000 0.000000 0.037620 0.000000
# 6 0.000000 0.000000 0.000000 0.000000 0.000000 0.032619
#
#
# Mechanical properties :
#
#
# Convention : Reuss Voigt Hill
#
# Bulk Modulus (GPa) = 58.39021 63.43927 60.91474
# Shear Modulus (GPa) = 31.61254 33.13679 32.37466
#
# Velocity S-wave (km/s) = 4.07954 4.17673 4.12842
# Velocity P-wave (km/s) = 7.27531 7.52716 7.40230
#
# Compressibility (1/GPa) = 0.01712616
#
# Stress axis : x y z
#
# Youngs Moduli (GPa) = 83.99674 60.65450 112.30031
#
# Poissons Ratio (x) = 0.23197 0.32118
# Poissons Ratio (y) = 0.32124 0.38191
# Poissons Ratio (z) = 0.24023 0.20628
#
# Static dielectric constant tensor:
#      x y z
#    x 3.446650 0.000000 0.000000 
#    y 0.000000 3.566890 0.000000 
#    z 0.000000 0.000000 3.689640 
# 
# 
# High freq. dielectric constant tensor:
#      x y z
#    x 1.738570 0.000000 0.000000 
#    y 0.000000 1.728310 0.000000 
#    z 0.000000 0.000000 1.744390 
# 
# From -- ./inp_files/38707.got.cif
#   From: 2010.03.12/outbox.cif.g09.slc.cpg/sg68_20_cif.got.tgz:38707.got - 2010.04.10 23:14:56.
