data_PCOD8281565
_publ_section_title
;
Structure prediction by ZEFSAII (Michael W. Deem and Ramdas Pophale) SiO2 
 PCOD8281565
Probable space group: C M M A
;
_chemical_formula_sum "Si O2"
_cell_formula_units_Z 128
_cell_length_a 9.729032
_cell_length_b 28.686968
_cell_length_c 31.113838
_cell_angle_alpha 90.000000
_cell_angle_beta 90.000000
_cell_angle_gamma 90.000000
_cell_volume 8683.761099
_symmetry_space_group_name_H-M "C M M A"
_symmetry_group_IT_number 67
_symmetry_cell_setting 'orthorhombic'
loop_
_space_group_symop_operation_xyz
x,y,z
-x,1/2-y,z
x,-y,-z
-x,1/2+y,-z
-x,-y,-z
x,1/2+y,-z
-x,y,z
x,1/2-y,z
1/2+x,1/2+y,z
1/2-x,-y,z
1/2+x,1/2-y,-z
1/2-x,y,-z
1/2-x,1/2-y,-z
1/2+x,y,-z
1/2-x,1/2+y,z
1/2+x,-y,z
loop_
_atom_site_type_symbol
_atom_site_label
_atom_site_fract_x
_atom_site_fract_y
_atom_site_fract_z
Si Si1 0.159274 0.696046 0.540786
Si Si2 0.337279 0.142517 0.624472
Si Si3 0.847070 0.805498 0.962974
Si Si4 0.336122 0.302155 0.868400
Si Si5 0.336683 0.858389 0.212221
Si Si6 0.335797 0.197397 0.706167
Si Si7 0.158278 0.543188 0.655005
Si Si8 0.341649 0.956898 0.244662
O O1 0.179714 0.750000 0.553487
O O2 0.250000 0.682180 0.500000
O O3 0.215102 0.664469 0.579898
O O4 0.000000 0.685677 0.530306
O O5 0.500000 0.146728 0.626924
O O6 0.275047 0.171604 0.664239
O O7 0.293267 0.088444 0.628178
O O8 0.852154 0.750000 0.965948
O O9 0.788804 0.819430 0.915774
O O10 0.000000 0.825917 0.969930
O O11 0.750000 0.826833 0.000000
O O12 0.500000 0.300706 0.867627
O O13 0.280020 0.250000 0.858751
O O14 0.278004 0.337676 0.832494
O O15 0.500000 0.855041 0.213035
O O16 0.277306 0.828052 0.251536
O O17 0.291765 0.912080 0.217580
O O18 0.500000 0.196035 0.705929
O O19 0.280670 0.250000 0.706144
O O20 0.250000 0.500000 0.639464
O O21 0.180547 0.554256 0.705172
O O22 0.000000 0.530840 0.645640
O O23 0.500000 0.969050 0.235348
O O24 0.250000 0.000000 0.229204
#
# Coordination Sequence:
#
# PCOD8281565 Si02
#       8
#    16  16  16  16  16  16  16  16
#     4   9  17  29  45  64  85 108 132 159 194 234
#     4   9  15  25  40  59  82 106 131 161 196 230
#     4   8  13  21  33  49  70  97 129 162 192 223
#     4   8  13  20  31  50  77 106 131 157 193 233
#     4   9  14  21  33  53  80 106 129 156 192 232
#     4   9  14  19  31  54  82 107 129 155 188 227
#     4   9  16  27  42  60  82 104 130 163 196 230
#     4   9  16  26  40  57  78 103 131 162 194 228
#
# _framework density 14.740157
#
# number of rings (size 3 to 8) (size 9 to 14) (size 15 to 20)
#    0.000    3.250    1.250    1.500    0.000    3.000 
#    0.000    0.625    0.000    1.125    0.000    2.625 
#    0.000    3.000    0.000    6.750    0.000    0.250 
#
# Total GULP energy -793261.061073 kJ/mol
# GULP energy per Si atom -12394.704079 kJ/mol
# Density = 1.470661 g / cm^3
# Si number density = 14.740157 Si / 1000 Ang^3
#
#
#
# Elastic Constant Matrix: (Units=GPa)
#
#
# Indices 1 2 3 4 5 6 
#
# 1 30.8001 33.1384 33.3614 0.0000 0.0000 0.0000
# 2 33.1384 111.4927 70.4737 0.0000 0.0000 0.0000
# 3 33.3614 70.4737 126.1280 0.0000 0.0000 0.0000
# 4 0.0000 0.0000 0.0000 13.9554 0.0000 0.0000
# 5 0.0000 0.0000 0.0000 0.0000 15.3483 0.0000
# 6 0.0000 0.0000 0.0000 0.0000 0.0000 15.7998
#
#
#
# Elastic Compliance Matrix: (Units=1/GPa)
#
#
# Indices 1 2 3 4 5 6 
#
# 1 0.052462 -0.010547 -0.007983 0.000000 0.000000 0.000000
# 2 -0.010547 0.015987 -0.006143 0.000000 0.000000 0.000000
# 3 -0.007983 -0.006143 0.013472 0.000000 0.000000 0.000000
# 4 0.000000 0.000000 0.000000 0.071657 0.000000 0.000000
# 5 0.000000 0.000000 0.000000 0.000000 0.065154 0.000000
# 6 0.000000 0.000000 0.000000 0.000000 0.000000 0.063292
#
#
# Mechanical properties :
#
#
# Convention : Reuss Voigt Hill
#
# Bulk Modulus (GPa) = 30.69824 60.26309 45.48067
# Shear Modulus (GPa) = 14.61009 17.78385 16.19697
#
# Velocity S-wave (km/s) = 3.15171 3.47722 3.31846
# Velocity P-wave (km/s) = 5.84088 7.55605 6.75314
#
# Compressibility (1/GPa) = 0.03257515
#
# Stress axis : x y z
#
# Youngs Moduli (GPa) = 19.06131 62.55123 74.22540
#
# Poissons Ratio (x) = 0.65972 0.59258
# Poissons Ratio (y) = 0.20104 0.45596
# Poissons Ratio (z) = 0.15218 0.38425
#
# Static dielectric constant tensor:
#      x y z
#    x 2.498990 0.000000 0.000000 
#    y 0.000000 2.846030 0.000000 
#    z 0.000000 0.000000 3.033070 
# 
# 
# High freq. dielectric constant tensor:
#      x y z
#    x 1.514580 0.000000 0.000000 
#    y 0.000000 1.549420 0.000000 
#    z 0.000000 0.000000 1.558350 
# 
# From -- ./inp_files/44197.got.cif
#   From: 2010.03.12/outbox.cif.g09.slc.cpg/sg67_23_cif.got.tgz:44197.got - 2010.04.10 22:41:39.
