data_PCOD8281065
_publ_section_title
;
Structure prediction by ZEFSAII (Michael W. Deem and Ramdas Pophale) SiO2 
 PCOD8281065
Probable space group: C M M A
;
_chemical_formula_sum "Si O2"
_cell_formula_units_Z 96
_cell_length_a 18.951107
_cell_length_b 17.763062
_cell_length_c 14.158292
_cell_angle_alpha 90.000000
_cell_angle_beta 90.000000
_cell_angle_gamma 90.000000
_cell_volume 4766.101427
_symmetry_space_group_name_H-M "C M M A"
_symmetry_group_IT_number 67
_symmetry_cell_setting 'orthorhombic'
loop_
_space_group_symop_operation_xyz
x,y,z
-x,1/2-y,z
x,-y,-z
-x,1/2+y,-z
-x,-y,-z
x,1/2+y,-z
-x,y,z
x,1/2-y,z
1/2+x,1/2+y,z
1/2-x,-y,z
1/2+x,1/2-y,-z
1/2-x,y,-z
1/2-x,1/2-y,-z
1/2+x,y,-z
1/2-x,1/2+y,z
1/2+x,-y,z
loop_
_atom_site_type_symbol
_atom_site_label
_atom_site_fract_x
_atom_site_fract_y
_atom_site_fract_z
Si Si1 0.839926 0.165778 0.389093
Si Si2 0.580218 0.084102 0.982623
Si Si3 0.918642 0.072155 0.228390
Si Si4 0.172244 0.334792 0.600110
Si Si5 0.314442 0.553348 0.751702
Si Si6 0.197274 0.836501 0.084237
O O1 0.865862 0.250000 0.366841
O O2 0.877836 0.113663 0.312823
O O3 0.858613 0.143842 0.497108
O O4 0.756204 0.160639 0.386758
O O5 0.500000 0.084135 0.017280
O O6 0.586024 0.112702 0.873530
O O7 0.619333 0.144917 0.047430
O O8 0.611658 0.000000 0.000000
O O9 0.000000 0.060660 0.258382
O O10 0.880035 0.993332 0.208339
O O11 0.147299 0.250000 0.626223
O O12 0.145725 0.398811 0.670512
O O13 0.250000 0.500000 0.715806
O O14 0.281444 0.610052 0.828875
O O15 0.201960 0.750000 0.117442
O O16 0.250000 0.855242 0.000000
#
# Coordination Sequence:
#
# PCOD8281065 Si02
#       6
#    16  16  16  16  16  16
#     4   9  19  38  60  85 118 154 195 248 298 351
#     4  10  21  40  62  83 118 163 203 244 300 365
#     4  11  23  38  60  91 121 156 199 249 304 359
#     4   9  19  37  61  86 115 153 198 245 296 356
#     4  12  22  37  61  88 119 163 201 247 304 366
#     4  11  25  39  58  91 124 157 203 256 306 359
#
# _framework density 20.142250000000001
#
# number of rings (size 3 to 8) (size 9 to 14) (size 15 to 20)
#    0.000    1.667    3.333    2.500    0.000    2.000 
#    0.000    3.333    0.000    2.500    0.000    0.000 
#    0.000    0.000    0.000    0.000    0.000    0.000 
#
# Total GULP energy -594905.305367 kJ/mol
# GULP energy per Si atom -12393.860528 kJ/mol
# Density = 2.009640 g / cm^3
# Si number density = 20.142250 Si / 1000 Ang^3
#
#
#
# Elastic Constant Matrix: (Units=GPa)
#
#
# Indices 1 2 3 4 5 6 
#
# 1 49.8729 17.2671 13.1223 0.0000 0.0000 0.0000
# 2 17.2671 90.2116 46.2031 0.0000 0.0000 0.0000
# 3 13.1223 46.2031 95.8293 0.0000 0.0000 0.0000
# 4 0.0000 0.0000 0.0000 38.7092 0.0000 0.0000
# 5 0.0000 0.0000 0.0000 0.0000 29.8901 0.0000
# 6 0.0000 0.0000 0.0000 0.0000 0.0000 18.3860
#
#
#
# Elastic Compliance Matrix: (Units=1/GPa)
#
#
# Indices 1 2 3 4 5 6 
#
# 1 0.021592 -0.003477 -0.001280 0.000000 0.000000 0.000000
# 2 -0.003477 0.015280 -0.006891 0.000000 0.000000 0.000000
# 3 -0.001280 -0.006891 0.013933 0.000000 0.000000 0.000000
# 4 0.000000 0.000000 0.000000 0.025834 0.000000 0.000000
# 5 0.000000 0.000000 0.000000 0.000000 0.033456 0.000000
# 6 0.000000 0.000000 0.000000 0.000000 0.000000 0.054389
#
#
# Mechanical properties :
#
#
# Convention : Reuss Voigt Hill
#
# Bulk Modulus (GPa) = 36.35302 43.23321 39.79311
# Shear Modulus (GPa) = 25.38732 28.01850 26.70291
#
# Velocity S-wave (km/s) = 3.55406 3.73370 3.64499
# Velocity P-wave (km/s) = 5.91009 6.33229 6.12483
#
# Compressibility (1/GPa) = 0.02750803
#
# Stress axis : x y z
#
# Youngs Moduli (GPa) = 46.31415 65.44563 71.77264
#
# Poissons Ratio (x) = 0.22756 0.09188
# Poissons Ratio (y) = 0.16104 0.49458
# Poissons Ratio (z) = 0.05929 0.45098
#
# Static dielectric constant tensor:
#      x y z
#    x 3.399870 0.000000 0.000000 
#    y 0.000000 3.887740 0.000000 
#    z 0.000000 0.000000 4.032930 
# 
# 
# High freq. dielectric constant tensor:
#      x y z
#    x 1.759130 0.000000 0.000000 
#    y 0.000000 1.783820 0.000000 
#    z 0.000000 0.000000 1.796990 
# 
# From -- ./inp_files/29317.got.cif
#   From: 2010.03.12/outbox.cif.g09.slc.cpg/sg67_15_cif.got.tgz:29317.got - 2010.04.10 22:41:39.
