data_PCOD8281835
_publ_section_title
;
Structure prediction by ZEFSAII (Michael W. Deem and Ramdas Pophale) SiO2 
 PCOD8281835
Probable space group: C C C A
;
_chemical_formula_sum "Si O2"
_cell_formula_units_Z 80
_cell_length_a 14.066032
_cell_length_b 14.038117
_cell_length_c 21.818201
_cell_angle_alpha 90.000000
_cell_angle_beta 90.000000
_cell_angle_gamma 90.000000
_cell_volume 4308.235125
_symmetry_space_group_name_H-M "C C C A"
_symmetry_group_IT_number 68
_space_group.IT_coordinate_system_code '2'
_symmetry_cell_setting 'orthorhombic'
loop_
_space_group_symop_operation_xyz
x,y,z
-x,1/2-y,z
x,1/2-y,1/2-z
-x,y,1/2-z
-x,-y,-z
x,1/2+y,-z
-x,1/2+y,1/2+z
x,-y,1/2+z
1/2+x,1/2+y,z
1/2-x,-y,z
1/2+x,-y,1/2-z
1/2-x,1/2+y,1/2-z
1/2-x,1/2-y,-z
1/2+x,y,-z
1/2-x,y,1/2+z
1/2+x,1/2-y,1/2+z
loop_
_atom_site_type_symbol
_atom_site_label
_atom_site_fract_x
_atom_site_fract_y
_atom_site_fract_z
Si Si1 0.724341 0.146578 0.724485
Si Si2 0.607526 0.970149 0.770654
Si Si3 0.181406 0.581334 0.398027
Si Si4 0.233510 0.274270 0.097068
Si Si5 0.607841 0.222707 0.485764
O O1 0.698404 0.250000 0.750000
O O2 0.830622 0.114729 0.741658
O O3 0.721557 0.148531 0.650429
O O4 0.646687 0.072330 0.749325
O O5 0.500000 0.956668 0.750000
O O6 0.615258 0.960433 0.844104
O O7 0.250000 0.500000 0.423561
O O8 0.247354 0.669246 0.373115
O O9 0.118543 0.617435 0.455417
O O10 0.323544 0.296625 0.051752
O O11 0.137261 0.276725 0.056926
O O12 0.500000 0.250000 0.478761
#
# Coordination Sequence:
#
# PCOD8281835 Si02
#       5
#    16  16  16  16  16
#     4  11  20  42  61  83 125 168 191 245 311 356
#     4  11  24  37  58  97 121 151 211 245 294 365
#     4  10  18  40  61  82 122 153 192 251 300 347
#     4   9  20  38  62  82 120 156 198 240 303 357
#     4   9  20  39  61  89 108 152 209 244 291 355
#
# _framework density 18.569088000000001
#
# number of rings (size 3 to 8) (size 9 to 14) (size 15 to 20)
#    1.200    0.800    4.000    0.000    2.800    0.800 
#   10.800    1.000    0.000    0.000    0.000    0.000 
#    0.000    0.000    0.000    0.000    0.000    0.000 
#
# Total GULP energy -495695.020260 kJ/mol
# GULP energy per Si atom -12392.375506 kJ/mol
# Density = 1.852682 g / cm^3
# Si number density = 18.569088 Si / 1000 Ang^3
#
#
#
# Elastic Constant Matrix: (Units=GPa)
#
#
# Indices 1 2 3 4 5 6 
#
# 1 112.6001 33.8691 42.3720 0.0000 0.0000 0.0000
# 2 33.8691 78.7760 34.7269 0.0000 0.0000 0.0000
# 3 42.3720 34.7269 99.0246 0.0000 0.0000 0.0000
# 4 0.0000 0.0000 0.0000 -63.3467 0.0000 0.0000
# 5 0.0000 0.0000 0.0000 0.0000 12.5970 0.0000
# 6 0.0000 0.0000 0.0000 0.0000 0.0000 17.6475
#
#
#
# Elastic Compliance Matrix: (Units=1/GPa)
#
#
# Indices 1 2 3 4 5 6 
#
# 1 0.011230 -0.003206 -0.003681 0.000000 0.000000 0.000000
# 2 -0.003206 0.015931 -0.004215 0.000000 0.000000 0.000000
# 3 -0.003681 -0.004215 0.013152 0.000000 0.000000 0.000000
# 4 0.000000 0.000000 0.000000 -0.015786 0.000000 0.000000
# 5 0.000000 0.000000 0.000000 0.000000 0.079384 0.000000
# 6 0.000000 0.000000 0.000000 0.000000 0.000000 0.056665
#
#
# Mechanical properties :
#
#
# Convention : Reuss Voigt Hill
#
# Bulk Modulus (GPa) = 55.22093 56.92628 56.07361
# Shear Modulus (GPa) = 26.48075 5.34174 15.91124
#
# Velocity S-wave (km/s) = 3.78043 1.69792 2.93041
# Velocity P-wave (km/s) = 6.98986 5.87936 6.45852
#
# Compressibility (1/GPa) = 0.01810907
#
# Stress axis : x y z
#
# Youngs Moduli (GPa) = 89.04327 62.77239 76.03491
#
# Poissons Ratio (x) = 0.20123 0.27991
# Poissons Ratio (y) = 0.28544 0.32049
# Poissons Ratio (z) = 0.32779 0.26459
#
# Static dielectric constant tensor:
#      x y z
#    x 3.156700 0.000000 0.000000 
#    y 0.000000 3.284580 0.000000 
#    z 0.000000 0.000000 3.432190 
# 
# 
# High freq. dielectric constant tensor:
#      x y z
#    x 1.700850 0.000000 0.000000 
#    y 0.000000 1.707020 0.000000 
#    z 0.000000 0.000000 1.730140 
# 
# From -- ./inp_files/45166.got.cif
#   From: 2010.03.12/outbox.cif.g09.slc.cpg/sg68_23_cif.got.tgz:45166.got - 2010.04.10 23:14:56.
