data_PCOD8281579
_publ_section_title
;
Structure prediction by ZEFSAII (Michael W. Deem and Ramdas Pophale) SiO2 
 PCOD8281579
Probable space group: C M M A
;
_chemical_formula_sum "Si O2"
_cell_formula_units_Z 96
_cell_length_a 9.199143
_cell_length_b 27.746715
_cell_length_c 24.333618
_cell_angle_alpha 90.000000
_cell_angle_beta 90.000000
_cell_angle_gamma 90.000000
_cell_volume 6211.058637
_symmetry_space_group_name_H-M "C M M A"
_symmetry_group_IT_number 67
_symmetry_cell_setting 'orthorhombic'
loop_
_space_group_symop_operation_xyz
x,y,z
-x,1/2-y,z
x,-y,-z
-x,1/2+y,-z
-x,-y,-z
x,1/2+y,-z
-x,y,z
x,1/2-y,z
1/2+x,1/2+y,z
1/2-x,-y,z
1/2+x,1/2-y,-z
1/2-x,y,-z
1/2-x,1/2-y,-z
1/2+x,y,-z
1/2-x,1/2+y,z
1/2+x,-y,z
loop_
_atom_site_type_symbol
_atom_site_label
_atom_site_fract_x
_atom_site_fract_y
_atom_site_fract_z
Si Si1 0.329903 0.051048 0.449911
Si Si2 0.669187 0.856541 0.944595
Si Si3 0.169379 0.548398 0.118388
Si Si4 0.326795 0.303329 0.163597
Si Si5 0.672702 0.604905 0.776201
Si Si6 0.669263 0.550304 0.670970
O O1 0.500000 0.045328 0.463421
O O2 0.250000 0.080476 0.500000
O O3 0.306576 0.074410 0.389493
O O4 0.250000 0.000000 0.447300
O O5 0.500000 0.849090 0.954953
O O6 0.702941 0.911547 0.927599
O O7 0.724453 0.820977 0.896455
O O8 0.750000 0.842452 0.000000
O O9 0.250000 0.500000 0.101010
O O10 0.226935 0.567274 0.177556
O O11 0.000000 0.536933 0.121633
O O12 0.500000 0.302496 0.164798
O O13 0.263230 0.250000 0.175774
O O14 0.268698 0.341239 0.209655
O O15 0.500000 0.606553 0.778186
O O16 0.728865 0.587988 0.716346
O O17 0.500000 0.539291 0.680354
O O18 0.750000 0.500000 0.677799
#
# Coordination Sequence:
#
# PCOD8281579 Si02
#       6
#    16  16  16  16  16  16
#     4   9  15  22  32  47  70 101 133 160 184 211
#     4   9  18  30  42  59  80  99 123 154 185 220
#     4   9  17  28  41  56  76 102 128 154 184 219
#     4   8  14  26  44  62  78  97 120 149 190 235
#     4   8  14  25  39  56  78  99 122 155 191 225
#     4   9  16  24  36  55  78 104 131 158 187 218
#
# _framework density 15.456302000000001
#
# number of rings (size 3 to 8) (size 9 to 14) (size 15 to 20)
#    0.000    3.333    0.000    3.500    0.000    2.000 
#    0.000    1.667    0.000    1.000    0.000    0.000 
#    0.000    0.667    0.000    0.500    0.000    1.333 
#
# Total GULP energy -594659.891838 kJ/mol
# GULP energy per Si atom -12388.747747 kJ/mol
# Density = 1.542112 g / cm^3
# Si number density = 15.456302 Si / 1000 Ang^3
#
#
#
# Elastic Constant Matrix: (Units=GPa)
#
#
# Indices 1 2 3 4 5 6 
#
# 1 35.2401 20.2267 30.2436 0.0000 0.0000 0.0000
# 2 20.2267 93.4738 46.0289 0.0000 0.0000 0.0000
# 3 30.2436 46.0289 130.8916 0.0000 0.0000 0.0000
# 4 0.0000 0.0000 0.0000 14.3567 0.0000 0.0000
# 5 0.0000 0.0000 0.0000 0.0000 18.7269 0.0000
# 6 0.0000 0.0000 0.0000 0.0000 0.0000 11.0453
#
#
#
# Elastic Compliance Matrix: (Units=1/GPa)
#
#
# Indices 1 2 3 4 5 6 
#
# 1 0.036952 -0.004586 -0.006926 0.000000 0.000000 0.000000
# 2 -0.004586 0.013508 -0.003691 0.000000 0.000000 0.000000
# 3 -0.006926 -0.003691 0.010538 0.000000 0.000000 0.000000
# 4 0.000000 0.000000 0.000000 0.069654 0.000000 0.000000
# 5 0.000000 0.000000 0.000000 0.000000 0.053399 0.000000
# 6 0.000000 0.000000 0.000000 0.000000 0.000000 0.090536
#
#
# Mechanical properties :
#
#
# Convention : Reuss Voigt Hill
#
# Bulk Modulus (GPa) = 32.68567 50.28931 41.48749
# Shear Modulus (GPa) = 15.86350 19.69955 17.78152
#
# Velocity S-wave (km/s) = 3.20714 3.57393 3.39549
# Velocity P-wave (km/s) = 5.90825 7.04540 6.50173
#
# Compressibility (1/GPa) = 0.03059445
#
# Stress axis : x y z
#
# Youngs Moduli (GPa) = 27.06180 74.03132 94.89543
#
# Poissons Ratio (x) = 0.33949 0.65720
# Poissons Ratio (y) = 0.12410 0.35021
# Poissons Ratio (z) = 0.18742 0.27321
#
# Static dielectric constant tensor:
#      x y z
#    x 2.692990 0.000000 0.000000 
#    y 0.000000 2.951330 0.000000 
#    z 0.000000 0.000000 3.591360 
# 
# 
# High freq. dielectric constant tensor:
#      x y z
#    x 1.565980 0.000000 0.000000 
#    y 0.000000 1.557850 0.000000 
#    z 0.000000 0.000000 1.599980 
# 
# From -- ./inp_files/40952.got.cif
#   From: 2010.03.12/outbox.cif.g09.slc.cpg/sg67_21_cif.got.tgz:40952.got - 2010.04.10 22:41:39.
