data_PCOD8281989
_publ_section_title
;
Structure prediction by ZEFSAII (Michael W. Deem and Ramdas Pophale) SiO2 
 PCOD8281989
Probable space group: C C C A
;
_chemical_formula_sum "Si O2"
_cell_formula_units_Z 88
_cell_length_a 30.225909
_cell_length_b 8.548427
_cell_length_c 15.742669
_cell_angle_alpha 90.000000
_cell_angle_beta 90.000000
_cell_angle_gamma 90.000000
_cell_volume 4067.653418
_symmetry_space_group_name_H-M "C C C A"
_symmetry_group_IT_number 68
_space_group.IT_coordinate_system_code '2'
_symmetry_cell_setting 'orthorhombic'
loop_
_space_group_symop_operation_xyz
x,y,z
-x,1/2-y,z
x,1/2-y,1/2-z
-x,y,1/2-z
-x,-y,-z
x,1/2+y,-z
-x,1/2+y,1/2+z
x,-y,1/2+z
1/2+x,1/2+y,z
1/2-x,-y,z
1/2+x,-y,1/2-z
1/2-x,1/2+y,1/2-z
1/2-x,1/2-y,-z
1/2+x,y,-z
1/2-x,y,1/2+z
1/2+x,1/2-y,1/2+z
loop_
_atom_site_type_symbol
_atom_site_label
_atom_site_fract_x
_atom_site_fract_y
_atom_site_fract_z
Si Si1 0.250000 0.500000 0.030566
Si Si2 0.609509 0.178247 0.959845
Si Si3 0.451404 0.682602 0.616461
Si Si4 0.880409 0.913310 0.329949
Si Si5 0.808883 0.769263 0.426868
Si Si6 0.417970 0.114055 0.809084
O O1 0.225480 0.627373 0.090602
O O2 0.215466 0.415222 0.968971
O O3 0.606468 0.314778 0.890127
O O4 0.611213 0.009325 0.916260
O O5 0.566774 0.176410 0.020550
O O6 0.654091 0.202656 0.010634
O O7 0.500000 0.750000 0.615554
O O8 0.419586 0.786482 0.675970
O O9 0.454459 0.508818 0.657840
O O10 0.832859 0.825889 0.339526
O O11 0.880694 0.023323 0.246939
O O12 0.440005 0.250000 0.750000
#
# Coordination Sequence:
#
# PCOD8281989 Si02
#       6
#     8  16  16  16  16  16
#     4  10  20  32  62  98 128 162 214 272 304 378
#     4  10  21  39  64  93 125 168 218 262 314 386
#     4  11  23  40  63  93 126 167 218 267 317 382
#     4  10  21  38  60  90 130 172 208 262 320 389
#     4  10  19  36  59  98 126 164 217 258 319 374
#     4  10  23  41  62  93 124 174 212 262 328 385
#
# _framework density 21.634094000000001
#
# number of rings (size 3 to 8) (size 9 to 14) (size 15 to 20)
#    0.000    1.818    1.818    2.727    2.545    4.364 
#    0.000    7.273    0.000    1.091    4.727    0.000 
#    0.000    0.000    0.000    0.000    0.000    0.000 
#
# Total GULP energy -545485.904876 kJ/mol
# GULP energy per Si atom -12397.406929 kJ/mol
# Density = 2.158485 g / cm^3
# Si number density = 21.634094 Si / 1000 Ang^3
#
#
#
# Elastic Constant Matrix: (Units=GPa)
#
#
# Indices 1 2 3 4 5 6 
#
# 1 120.8551 51.9905 30.1765 0.0000 0.0000 0.0000
# 2 51.9905 140.1703 49.5613 0.0000 0.0000 0.0000
# 3 30.1765 49.5613 107.0648 0.0000 0.0000 0.0000
# 4 0.0000 0.0000 0.0000 33.9013 0.0000 0.0000
# 5 0.0000 0.0000 0.0000 0.0000 -86.2314 0.0000
# 6 0.0000 0.0000 0.0000 0.0000 0.0000 29.4739
#
#
#
# Elastic Compliance Matrix: (Units=1/GPa)
#
#
# Indices 1 2 3 4 5 6 
#
# 1 0.009998 -0.003243 -0.001317 0.000000 0.000000 0.000000
# 2 -0.003243 0.009582 -0.003522 0.000000 0.000000 0.000000
# 3 -0.001317 -0.003522 0.011342 0.000000 0.000000 0.000000
# 4 0.000000 0.000000 0.000000 0.029497 0.000000 0.000000
# 5 0.000000 0.000000 0.000000 0.000000 -0.011597 0.000000
# 6 0.000000 0.000000 0.000000 0.000000 0.000000 0.033928
#
#
# Mechanical properties :
#
#
# Convention : Reuss Voigt Hill
#
# Bulk Modulus (GPa) = 67.75463 70.17185 68.96324
# Shear Modulus (GPa) = 48.15410 11.18624 29.67017
#
# Velocity S-wave (km/s) = 4.72300 2.27637 3.70733
# Velocity P-wave (km/s) = 7.81849 6.27817 7.09028
#
# Compressibility (1/GPa) = 0.01475914
#
# Stress axis : x y z
#
# Youngs Moduli (GPa) = 100.01799 104.36060 88.17152
#
# Poissons Ratio (x) = 0.33842 0.11611
# Poissons Ratio (y) = 0.32434 0.31051
# Poissons Ratio (z) = 0.13171 0.36752
#
# Static dielectric constant tensor:
#      x y z
#    x 3.729120 0.000000 0.000000 
#    y 0.000000 4.496890 0.000000 
#    z 0.000000 0.000000 4.000440 
# 
# 
# High freq. dielectric constant tensor:
#      x y z
#    x 1.821210 0.000000 0.000000 
#    y 0.000000 1.883110 0.000000 
#    z 0.000000 0.000000 1.842830 
# 
# From -- ./inp_files/34363.got.cif
#   From: 2010.03.12/outbox.cif.g09.slc.cpg/sg68_18_cif.got.tgz:34363.got - 2010.04.10 23:14:56.
