data_PCOD8281270
_publ_section_title
;
Structure prediction by ZEFSAII (Michael W. Deem and Ramdas Pophale) SiO2 
 PCOD8281270
Probable space group: C M M A
;
_chemical_formula_sum "Si O2"
_cell_formula_units_Z 68
_cell_length_a 27.080114
_cell_length_b 17.428840
_cell_length_c 6.814719
_cell_angle_alpha 90.000000
_cell_angle_beta 90.000000
_cell_angle_gamma 90.000000
_cell_volume 3216.376823
_symmetry_space_group_name_H-M "C M M A"
_symmetry_group_IT_number 67
_symmetry_cell_setting 'orthorhombic'
loop_
_space_group_symop_operation_xyz
x,y,z
-x,1/2-y,z
x,-y,-z
-x,1/2+y,-z
-x,-y,-z
x,1/2+y,-z
-x,y,z
x,1/2-y,z
1/2+x,1/2+y,z
1/2-x,-y,z
1/2+x,1/2-y,-z
1/2-x,y,-z
1/2-x,1/2-y,-z
1/2+x,y,-z
1/2-x,1/2+y,z
1/2+x,-y,z
loop_
_atom_site_type_symbol
_atom_site_label
_atom_site_fract_x
_atom_site_fract_y
_atom_site_fract_z
Si Si1 0.203085 0.250000 0.864028
Si Si2 0.118892 0.500000 0.500000
Si Si3 0.945307 0.750000 0.375087
Si Si4 0.793258 0.593649 0.339922
Si Si5 0.250000 0.000000 0.000000
Si Si6 0.398131 0.250000 0.968356
Si Si7 0.057189 0.376285 0.303528
O O1 0.201859 0.181958 0.708176
O O2 0.250000 0.250000 0.000000
O O3 0.160989 0.250000 0.032665
O O4 0.153657 0.433978 0.586361
O O5 0.084501 0.457993 0.336598
O O6 0.937212 0.826313 0.501183
O O7 0.000000 0.750000 0.285133
O O8 0.907754 0.750000 0.198986
O O9 0.750000 0.577491 0.500000
O O10 0.784099 0.551997 0.134910
O O11 0.418969 0.327979 0.873791
O O12 0.000000 0.392185 0.252281
#
# Coordination Sequence:
#
# PCOD8281270 Si02
#       7
#     8   8   8  16   4   8  16
#     4  12  28  43  70  99 136 178 236 288 333 425
#     4  12  24  42  68  96 138 180 228 284 352 414
#     4   9  18  41  67  93 129 171 223 279 336 400
#     4  12  26  47  70 100 142 188 227 289 351 418
#     4  12  22  46  72  98 142 178 230 276 356 404
#     4  11  23  42  69 101 130 182 227 289 349 406
#     4  10  23  42  68  98 137 178 228 287 346 416
#
# _framework density 21.141801000000001
#
# number of rings (size 3 to 8) (size 9 to 14) (size 15 to 20)
#    0.000    0.941    3.529    3.882    6.588    0.941 
#    0.000    0.000    0.000    5.647    0.000    0.000 
#    0.000    0.000    0.000    0.000    0.000    0.000 
#
# Total GULP energy -421601.852831 kJ/mol
# GULP energy per Si atom -12400.054495 kJ/mol
# Density = 2.109368 g / cm^3
# Si number density = 21.141801 Si / 1000 Ang^3
#
#
#
# Elastic Constant Matrix: (Units=GPa)
#
#
# Indices 1 2 3 4 5 6 
#
# 1 166.5984 51.3560 49.8670 0.0000 0.0000 0.0000
# 2 51.3560 126.2013 34.4188 0.0000 0.0000 0.0000
# 3 49.8670 34.4188 100.4908 0.0000 0.0000 0.0000
# 4 0.0000 0.0000 0.0000 27.4014 0.0000 0.0000
# 5 0.0000 0.0000 0.0000 0.0000 25.3088 0.0000
# 6 0.0000 0.0000 0.0000 0.0000 0.0000 59.9765
#
#
#
# Elastic Compliance Matrix: (Units=1/GPa)
#
#
# Indices 1 2 3 4 5 6 
#
# 1 0.007600 -0.002277 -0.002991 0.000000 0.000000 0.000000
# 2 -0.002277 0.009422 -0.002097 0.000000 0.000000 0.000000
# 3 -0.002991 -0.002097 0.012154 0.000000 0.000000 0.000000
# 4 0.000000 0.000000 0.000000 0.036495 0.000000 0.000000
# 5 0.000000 0.000000 0.000000 0.000000 0.039512 0.000000
# 6 0.000000 0.000000 0.000000 0.000000 0.000000 0.016673
#
#
# Mechanical properties :
#
#
# Convention : Reuss Voigt Hill
#
# Bulk Modulus (GPa) = 69.22879 73.84155 71.53517
# Shear Modulus (GPa) = 35.36020 39.71391 37.53705
#
# Velocity S-wave (km/s) = 4.09409 4.33882 4.21823
# Velocity P-wave (km/s) = 7.42730 7.75262 7.59170
#
# Compressibility (1/GPa) = 0.01444486
#
# Stress axis : x y z
#
# Youngs Moduli (GPa) = 131.58404 106.13037 82.27752
#
# Poissons Ratio (x) = 0.24163 0.24613
# Poissons Ratio (y) = 0.29958 0.17257
# Poissons Ratio (z) = 0.39362 0.22260
#
# Static dielectric constant tensor:
#      x y z
#    x 3.997670 0.000000 0.000000 
#    y 0.000000 3.949450 0.000000 
#    z 0.000000 0.000000 3.724330 
# 
# 
# High freq. dielectric constant tensor:
#      x y z
#    x 1.844050 0.000000 0.000000 
#    y 0.000000 1.838030 0.000000 
#    z 0.000000 0.000000 1.822040 
# 
# From -- ./inp_files/4095.got.cif
#   From: 2010.03.12/outbox.cif.g09.slc.cpg/sg67_3_cif.got.tgz:4095.got - 2010.04.10 22:41:39.
