data_PCOD8281480
_publ_section_title
;
Structure prediction by ZEFSAII (Michael W. Deem and Ramdas Pophale) SiO2 
 PCOD8281480
Probable space group: C M M A
;
_chemical_formula_sum "Si O2"
_cell_formula_units_Z 96
_cell_length_a 9.117610
_cell_length_b 30.083835
_cell_length_c 18.352253
_cell_angle_alpha 90.000000
_cell_angle_beta 90.000000
_cell_angle_gamma 90.000000
_cell_volume 5033.888565
_symmetry_space_group_name_H-M "C M M A"
_symmetry_group_IT_number 67
_symmetry_cell_setting 'orthorhombic'
loop_
_space_group_symop_operation_xyz
x,y,z
-x,1/2-y,z
x,-y,-z
-x,1/2+y,-z
-x,-y,-z
x,1/2+y,-z
-x,y,z
x,1/2-y,z
1/2+x,1/2+y,z
1/2-x,-y,z
1/2+x,1/2-y,-z
1/2-x,y,-z
1/2-x,1/2-y,-z
1/2+x,y,-z
1/2-x,1/2+y,z
1/2+x,-y,z
loop_
_atom_site_type_symbol
_atom_site_label
_atom_site_fract_x
_atom_site_fract_y
_atom_site_fract_z
Si Si1 0.326806 0.865723 0.075492
Si Si2 0.671687 0.544127 0.316917
Si Si3 0.173153 0.878557 0.574526
Si Si4 0.171957 0.455848 0.150701
Si Si5 0.667367 0.801422 0.818140
Si Si6 0.831392 0.301056 0.649899
O O1 0.500000 0.862819 0.065614
O O2 0.276921 0.914482 0.101897
O O3 0.279553 0.829689 0.134631
O O4 0.250000 0.854261 0.000000
O O5 0.500000 0.535855 0.323069
O O6 0.750000 0.500000 0.346899
O O7 0.721685 0.585870 0.364785
O O8 0.720004 0.553813 0.233860
O O9 0.250000 0.892880 0.500000
O O10 0.226655 0.830175 0.599346
O O11 0.000000 0.877293 0.562954
O O12 0.250000 0.500000 0.120363
O O13 0.000000 0.463688 0.145124
O O14 0.500000 0.815862 0.834263
O O15 0.689017 0.750000 0.838228
O O16 0.706435 0.809797 0.734077
O O17 0.801356 0.250000 0.629782
O O18 0.000000 0.313473 0.634129
#
# Coordination Sequence:
#
# PCOD8281480 Si02
#       6
#    16  16  16  16  16  16
#     4  11  23  37  54  79 112 147 183 223 268 320
#     4   9  19  36  57  80 105 136 177 223 269 319
#     4  11  23  37  54  79 112 147 183 223 268 320
#     4   9  19  36  57  80 105 136 177 223 269 319
#     4   9  19  37  60  84 109 139 178 223 270 322
#     4   9  19  37  60  84 109 139 178 223 270 322
#
# _framework density 19.070744000000001
#
# number of rings (size 3 to 8) (size 9 to 14) (size 15 to 20)
#    0.000    2.333    0.000    3.000    0.000    6.667 
#    0.000    8.333    0.000    0.000    0.000    0.000 
#    0.000    0.000    0.000    0.000    0.000    0.000 
#
# Total GULP energy -595387.452934 kJ/mol
# GULP energy per Si atom -12403.905269 kJ/mol
# Density = 1.902734 g / cm^3
# Si number density = 19.070744 Si / 1000 Ang^3
#
#
#
# Elastic Constant Matrix: (Units=GPa)
#
#
# Indices 1 2 3 4 5 6 
#
# 1 58.3624 30.8416 23.3597 0.0000 0.0000 0.0000
# 2 30.8416 72.0093 14.5971 0.0000 0.0000 0.0000
# 3 23.3597 14.5971 41.4237 0.0000 0.0000 0.0000
# 4 0.0000 0.0000 0.0000 11.6005 0.0000 0.0000
# 5 0.0000 0.0000 0.0000 0.0000 27.9727 0.0000
# 6 0.0000 0.0000 0.0000 0.0000 0.0000 36.6995
#
#
#
# Elastic Compliance Matrix: (Units=1/GPa)
#
#
# Indices 1 2 3 4 5 6 
#
# 1 0.026635 -0.009007 -0.011846 0.000000 0.000000 0.000000
# 2 -0.009007 0.018001 -0.001264 0.000000 0.000000 0.000000
# 3 -0.011846 -0.001264 0.031267 0.000000 0.000000 0.000000
# 4 0.000000 0.000000 0.000000 0.086203 0.000000 0.000000
# 5 0.000000 0.000000 0.000000 0.000000 0.035749 0.000000
# 6 0.000000 0.000000 0.000000 0.000000 0.000000 0.027248
#
#
# Mechanical properties :
#
#
# Convention : Reuss Voigt Hill
#
# Bulk Modulus (GPa) = 31.57716 34.37691 32.97703
# Shear Modulus (GPa) = 17.86388 22.12101 19.99244
#
# Velocity S-wave (km/s) = 3.06390 3.40949 3.24131
# Velocity P-wave (km/s) = 5.39542 5.79350 5.59800
#
# Compressibility (1/GPa) = 0.03166846
#
# Stress axis : x y z
#
# Youngs Moduli (GPa) = 37.54406 55.55283 31.98281
#
# Poissons Ratio (x) = 0.50034 0.37888
# Poissons Ratio (y) = 0.33814 0.04044
# Poissons Ratio (z) = 0.44476 0.07024
#
# Static dielectric constant tensor:
#      x y z
#    x 3.379500 0.000000 0.000000 
#    y 0.000000 3.525250 0.000000 
#    z 0.000000 0.000000 3.464150 
# 
# 
# High freq. dielectric constant tensor:
#      x y z
#    x 1.739100 0.000000 0.000000 
#    y 0.000000 1.748240 0.000000 
#    z 0.000000 0.000000 1.739340 
# 
# From -- ./inp_files/37163.got.cif
#   From: 2010.03.12/outbox.cif.g09.slc.cpg/sg67_19_cif.got.tgz:37163.got - 2010.04.10 22:41:39.
