data_PCOD8281379
_publ_section_title
;
Structure prediction by ZEFSAII (Michael W. Deem and Ramdas Pophale) SiO2 
 PCOD8281379
Probable space group: C M M A
;
_chemical_formula_sum "Si O2"
_cell_formula_units_Z 96
_cell_length_a 23.179028
_cell_length_b 16.330034
_cell_length_c 13.623954
_cell_angle_alpha 90.000000
_cell_angle_beta 90.000000
_cell_angle_gamma 90.000000
_cell_volume 5156.861620
_symmetry_space_group_name_H-M "C M M A"
_symmetry_group_IT_number 67
_symmetry_cell_setting 'orthorhombic'
loop_
_space_group_symop_operation_xyz
x,y,z
-x,1/2-y,z
x,-y,-z
-x,1/2+y,-z
-x,-y,-z
x,1/2+y,-z
-x,y,z
x,1/2-y,z
1/2+x,1/2+y,z
1/2-x,-y,z
1/2+x,1/2-y,-z
1/2-x,y,-z
1/2-x,1/2-y,-z
1/2+x,y,-z
1/2-x,1/2+y,z
1/2+x,-y,z
loop_
_atom_site_type_symbol
_atom_site_label
_atom_site_fract_x
_atom_site_fract_y
_atom_site_fract_z
Si Si1 0.627773 0.655023 0.083351
Si Si2 0.371126 0.108019 0.137829
Si Si3 0.567939 0.920988 0.441968
Si Si4 0.932180 0.250000 0.752342
Si Si5 0.568846 0.250000 0.469573
Si Si6 0.433731 0.046863 0.781370
Si Si7 0.246957 0.903444 0.888501
O O1 0.622802 0.750000 0.060436
O O2 0.574320 0.627511 0.151465
O O3 0.686005 0.633866 0.146949
O O4 0.623968 0.607049 0.980179
O O5 0.413016 0.170964 0.189042
O O6 0.304413 0.129486 0.167113
O O7 0.389696 0.019507 0.175935
O O8 0.500000 0.919120 0.459191
O O9 0.593165 0.833442 0.479734
O O10 0.584322 0.931433 0.328868
O O11 0.593852 0.000000 0.500000
O O12 0.907831 0.250000 0.641932
O O13 0.000000 0.250000 0.747799
O O14 0.500000 0.250000 0.474648
O O15 0.500000 0.016766 0.786511
O O16 0.250000 0.000000 0.878797
O O17 0.250000 0.873373 0.000000
#
# Coordination Sequence:
#
# PCOD8281379 Si02
#       7
#    16  16  16   8   8  16  16
#     4  11  23  37  54  83 116 152 190 230 272 321
#     4  11  21  37  56  81 112 152 187 228 273 324
#     4   9  18  34  55  78 104 141 186 235 280 324
#     4  11  22  34  54  87 119 145 180 224 280 353
#     4   9  18  34  55  77 109 143 183 236 281 323
#     4  11  23  36  55  81 116 151 185 222 279 350
#     4   9  18  35  58  76 101 141 194 241 265 298
#
# _framework density 18.615973
#
# number of rings (size 3 to 8) (size 9 to 14) (size 15 to 20)
#    0.000    1.833    2.500    2.000    2.333    6.000 
#    0.000    0.000    0.000    0.000    0.000    9.333 
#    0.000    0.000    0.000    0.000    0.000    0.000 
#
# Total GULP energy -594937.622596 kJ/mol
# GULP energy per Si atom -12394.533804 kJ/mol
# Density = 1.857360 g / cm^3
# Si number density = 18.615973 Si / 1000 Ang^3
#
#
#
# Elastic Constant Matrix: (Units=GPa)
#
#
# Indices 1 2 3 4 5 6 
#
# 1 60.0203 22.7360 41.0207 0.0000 0.0000 0.0000
# 2 22.7360 108.3845 45.1489 0.0000 0.0000 0.0000
# 3 41.0207 45.1489 112.0705 0.0000 0.0000 0.0000
# 4 0.0000 0.0000 0.0000 13.0376 0.0000 0.0000
# 5 0.0000 0.0000 0.0000 0.0000 4.4569 0.0000
# 6 0.0000 0.0000 0.0000 0.0000 0.0000 21.9890
#
#
#
# Elastic Compliance Matrix: (Units=1/GPa)
#
#
# Indices 1 2 3 4 5 6 
#
# 1 0.022433 -0.001545 -0.007589 0.000000 0.000000 0.000000
# 2 -0.001545 0.011193 -0.003944 0.000000 0.000000 0.000000
# 3 -0.007589 -0.003944 0.013289 0.000000 0.000000 0.000000
# 4 0.000000 0.000000 0.000000 0.076701 0.000000 0.000000
# 5 0.000000 0.000000 0.000000 0.000000 0.224373 0.000000
# 6 0.000000 0.000000 0.000000 0.000000 0.000000 0.045477
#
#
# Mechanical properties :
#
#
# Convention : Reuss Voigt Hill
#
# Bulk Modulus (GPa) = 48.16741 55.36518 51.76629
# Shear Modulus (GPa) = 11.72219 19.33468 15.52843
#
# Velocity S-wave (km/s) = 2.51207 3.22624 2.89129
# Velocity P-wave (km/s) = 5.86041 6.60934 6.24611
#
# Compressibility (1/GPa) = 0.02076093
#
# Stress axis : x y z
#
# Youngs Moduli (GPa) = 44.57801 89.33879 75.24744
#
# Poissons Ratio (x) = 0.13799 0.57103
# Poissons Ratio (y) = 0.06885 0.29678
# Poissons Ratio (z) = 0.33829 0.35235
#
# Static dielectric constant tensor:
#      x y z
#    x 3.431810 0.000000 0.000000 
#    y 0.000000 4.014810 0.000000 
#    z 0.000000 0.000000 3.326490 
# 
# 
# High freq. dielectric constant tensor:
#      x y z
#    x 1.698580 0.000000 0.000000 
#    y 0.000000 1.735050 0.000000 
#    z 0.000000 0.000000 1.703010 
# 
# From -- ./inp_files/21999.got.cif
#   From: 2010.03.12/outbox.cif.g09.slc.cpg/sg67_11_cif.got.tgz:21999.got - 2010.04.10 22:41:39.
