data_PCOD8281618
_publ_section_title
;
Structure prediction by ZEFSAII (Michael W. Deem and Ramdas Pophale) SiO2 
 PCOD8281618
Probable space group: C C C A
;
_chemical_formula_sum "Si O2"
_cell_formula_units_Z 88
_cell_length_a 10.746850
_cell_length_b 15.649416
_cell_length_c 27.261285
_cell_angle_alpha 90.000000
_cell_angle_beta 90.000000
_cell_angle_gamma 90.000000
_cell_volume 4584.855426
_symmetry_space_group_name_H-M "C C C A"
_symmetry_group_IT_number 68
_space_group.IT_coordinate_system_code '2'
_symmetry_cell_setting 'orthorhombic'
loop_
_space_group_symop_operation_xyz
x,y,z
-x,1/2-y,z
x,1/2-y,1/2-z
-x,y,1/2-z
-x,-y,-z
x,1/2+y,-z
-x,1/2+y,1/2+z
x,-y,1/2+z
1/2+x,1/2+y,z
1/2-x,-y,z
1/2+x,-y,1/2-z
1/2-x,1/2+y,1/2-z
1/2-x,1/2-y,-z
1/2+x,y,-z
1/2-x,y,1/2+z
1/2+x,1/2-y,1/2+z
loop_
_atom_site_type_symbol
_atom_site_label
_atom_site_fract_x
_atom_site_fract_y
_atom_site_fract_z
Si Si1 0.307225 0.912792 0.648295
Si Si2 0.719037 0.762645 0.193267
Si Si3 0.500000 0.250000 0.627614
Si Si4 0.687550 0.337421 0.561327
Si Si5 0.879592 0.807784 0.041574
Si Si6 0.939646 0.342536 0.856868
O O1 0.247465 0.831720 0.674109
O O2 0.274948 0.906032 0.589782
O O3 0.455932 0.911201 0.659327
O O4 0.250000 0.000000 0.670005
O O5 0.691077 0.750000 0.250000
O O6 0.599617 0.796773 0.163521
O O7 0.830697 0.831234 0.183612
O O8 0.563564 0.321823 0.593608
O O9 0.760736 0.248816 0.555893
O O10 0.649182 0.366615 0.506317
O O11 0.894806 0.870040 0.088662
O O12 0.000000 0.750000 0.029533
O O13 0.000000 0.250000 0.865057
#
# Coordination Sequence:
#
# PCOD8281618 Si02
#       6
#    16  16   8  16  16  16
#     4  10  20  35  54  80 114 140 174 236 298 334
#     4  10  20  35  60  81 103 146 199 236 276 337
#     4  10  17  30  50  86 108 134 181 238 278 324
#     4  10  18  27  51  81 109 141 178 229 283 327
#     4  10  15  28  51  81 101 136 193 238 255 316
#     4   9  16  32  52  78 103 136 192 234 261 327
#
# _framework density 19.193625999999998
#
# number of rings (size 3 to 8) (size 9 to 14) (size 15 to 20)
#    0.000    2.182    8.182    0.273    0.000    3.273 
#    0.000    0.909   16.000    0.000    0.000    0.000 
#    0.000    0.000    0.000    0.000    0.000    0.000 
#
# Total GULP energy -545093.808076 kJ/mol
# GULP energy per Si atom -12388.495638 kJ/mol
# Density = 1.914994 g / cm^3
# Si number density = 19.193626 Si / 1000 Ang^3
#
#
#
# Elastic Constant Matrix: (Units=GPa)
#
#
# Indices 1 2 3 4 5 6 
#
# 1 117.4502 28.9270 36.2708 0.0000 0.0000 0.0000
# 2 28.9270 46.8766 8.4967 0.0000 0.0000 0.0000
# 3 36.2708 8.4967 98.2507 0.0000 0.0000 0.0000
# 4 0.0000 0.0000 0.0000 8.9047 0.0000 0.0000
# 5 0.0000 0.0000 0.0000 0.0000 23.5675 0.0000
# 6 0.0000 0.0000 0.0000 0.0000 0.0000 23.5429
#
#
#
# Elastic Compliance Matrix: (Units=1/GPa)
#
#
# Indices 1 2 3 4 5 6 
#
# 1 0.011155 -0.006235 -0.003579 0.000000 0.000000 0.000000
# 2 -0.006235 0.025157 0.000126 0.000000 0.000000 0.000000
# 3 -0.003579 0.000126 0.011488 0.000000 0.000000 0.000000
# 4 0.000000 0.000000 0.000000 0.112301 0.000000 0.000000
# 5 0.000000 0.000000 0.000000 0.000000 0.042431 0.000000
# 6 0.000000 0.000000 0.000000 0.000000 0.000000 0.042476
#
#
# Mechanical properties :
#
#
# Convention : Reuss Voigt Hill
#
# Bulk Modulus (GPa) = 35.17996 45.55183 40.36590
# Shear Modulus (GPa) = 18.25757 23.79520 21.02639
#
# Velocity S-wave (km/s) = 3.08755 3.52482 3.31341
# Velocity P-wave (km/s) = 5.57489 6.35218 5.97618
#
# Compressibility (1/GPa) = 0.02842527
#
# Stress axis : x y z
#
# Youngs Moduli (GPa) = 89.64512 39.74995 87.04474
#
# Poissons Ratio (x) = 0.24784 0.31152
# Poissons Ratio (y) = 0.55893 -0.01098
# Poissons Ratio (z) = 0.32083 -0.00501
#
# Static dielectric constant tensor:
#      x y z
#    x 3.946080 0.000000 0.000000 
#    y 0.000000 2.787840 0.000000 
#    z 0.000000 0.000000 3.852860 
# 
# 
# High freq. dielectric constant tensor:
#      x y z
#    x 1.763680 0.000000 0.000000 
#    y 0.000000 1.658340 0.000000 
#    z 0.000000 0.000000 1.755570 
# 
# From -- ./inp_files/54740.got.cif
#   From: 2010.03.12/outbox.cif.g09.slc.cpg/sg68_28_cif.got.tgz:54740.got - 2010.04.10 23:14:56.
