data_PCOD8281936
_publ_section_title
;
Structure prediction by ZEFSAII (Michael W. Deem and Ramdas Pophale) SiO2 
 PCOD8281936
Probable space group: C C C A
;
_chemical_formula_sum "Si O2"
_cell_formula_units_Z 108
_cell_length_a 12.028030
_cell_length_b 19.384569
_cell_length_c 23.221050
_cell_angle_alpha 90.000000
_cell_angle_beta 90.000000
_cell_angle_gamma 90.000000
_cell_volume 5414.177697
_symmetry_space_group_name_H-M "C C C A"
_symmetry_group_IT_number 68
_space_group.IT_coordinate_system_code '2'
_symmetry_cell_setting 'orthorhombic'
loop_
_space_group_symop_operation_xyz
x,y,z
-x,1/2-y,z
x,1/2-y,1/2-z
-x,y,1/2-z
-x,-y,-z
x,1/2+y,-z
-x,1/2+y,1/2+z
x,-y,1/2+z
1/2+x,1/2+y,z
1/2-x,-y,z
1/2+x,-y,1/2-z
1/2-x,1/2+y,1/2-z
1/2-x,1/2-y,-z
1/2+x,y,-z
1/2-x,y,1/2+z
1/2+x,1/2-y,1/2+z
loop_
_atom_site_type_symbol
_atom_site_label
_atom_site_fract_x
_atom_site_fract_y
_atom_site_fract_z
Si Si1 0.738665 0.131219 0.907732
Si Si2 0.750000 0.000000 0.592897
Si Si3 0.385066 0.599537 0.169369
Si Si4 0.404716 0.439938 0.000951
Si Si5 0.376782 0.124760 0.703358
Si Si6 0.123334 0.275190 0.087271
Si Si7 0.500000 0.750000 0.250000
Si Si8 0.057809 0.320295 0.968583
O O1 0.725890 0.114358 0.839873
O O2 0.703034 0.210229 0.914487
O O3 0.869464 0.134912 0.923247
O O4 0.669455 0.072330 0.942957
O O5 0.662376 0.037432 0.633149
O O6 0.819479 0.050587 0.552779
O O7 0.336648 0.598177 0.234416
O O8 0.517259 0.586123 0.174882
O O9 0.349283 0.670567 0.137958
O O10 0.456409 0.366169 0.011095
O O11 0.500000 0.500000 0.000000
O O12 0.420453 0.203764 0.709630
O O13 0.000000 0.250000 0.096885
O O14 0.135941 0.309627 0.024323
O O15 0.000000 0.250000 0.944350
#
# Coordination Sequence:
#
# PCOD8281936 Si02
#       8
#    16   8  16  16  16  16   4  16
#     4  12  21  36  62  89 125 162 194 250 313 367
#     4  12  26  42  62  84 122 170 198 252 314 372
#     4  10  21  37  58  90 117 153 206 257 298 350
#     4  12  24  41  61  90 124 157 210 253 309 373
#     4  10  19  34  59  89 118 148 204 253 301 353
#     4  11  18  34  62  91 122 151 199 251 302 354
#     4   8  16  32  56  96 118 144 192 276 286 338
#     4  11  24  38  57  93 127 163 199 246 304 377
#
# _framework density 19.947627000000001
#
# number of rings (size 3 to 8) (size 9 to 14) (size 15 to 20)
#    0.000    1.185    4.444    5.778    3.111    0.000 
#    0.000    5.185    0.000    0.000    0.000    0.000 
#    0.000    0.000    0.000    0.000    0.000    0.000 
#
# Total GULP energy -669073.167251 kJ/mol
# GULP energy per Si atom -12390.243838 kJ/mol
# Density = 1.990223 g / cm^3
# Si number density = 19.947627 Si / 1000 Ang^3
#
#
#
# Elastic Constant Matrix: (Units=GPa)
#
#
# Indices 1 2 3 4 5 6 
#
# 1 47.0746 -2.2304 27.2147 0.0000 0.0000 0.0000
# 2 -2.2304 51.6603 14.6828 0.0000 0.0000 0.0000
# 3 27.2147 14.6828 139.8681 0.0000 0.0000 0.0000
# 4 0.0000 0.0000 0.0000 33.1040 0.0000 0.0000
# 5 0.0000 0.0000 0.0000 0.0000 36.5482 0.0000
# 6 0.0000 0.0000 0.0000 0.0000 0.0000 20.3719
#
#
#
# Elastic Compliance Matrix: (Units=1/GPa)
#
#
# Indices 1 2 3 4 5 6 
#
# 1 0.024235 0.002460 -0.004974 0.000000 0.000000 0.000000
# 2 0.002460 0.020202 -0.002599 0.000000 0.000000 0.000000
# 3 -0.004974 -0.002599 0.008390 0.000000 0.000000 0.000000
# 4 0.000000 0.000000 0.000000 0.030208 0.000000 0.000000
# 5 0.000000 0.000000 0.000000 0.000000 0.027361 0.000000
# 6 0.000000 0.000000 0.000000 0.000000 0.000000 0.049087
#
#
# Mechanical properties :
#
#
# Convention : Reuss Voigt Hill
#
# Bulk Modulus (GPa) = 23.47367 35.32635 29.40001
# Shear Modulus (GPa) = 27.18722 31.26723 29.22722
#
# Velocity S-wave (km/s) = 3.69579 3.96342 3.83194
# Velocity P-wave (km/s) = 5.47769 6.22036 5.86080
#
# Compressibility (1/GPa) = 0.04260092
#
# Stress axis : x y z
#
# Youngs Moduli (GPa) = 41.26300 49.49952 119.18643
#
# Poissons Ratio (x) = -0.12176 0.59280
# Poissons Ratio (y) = -0.10150 0.30981
# Poissons Ratio (z) = 0.20523 0.12867
#
# Static dielectric constant tensor:
#      x y z
#    x 3.458510 0.000000 0.000000 
#    y 0.000000 3.356680 0.000000 
#    z 0.000000 0.000000 3.907830 
# 
# 
# High freq. dielectric constant tensor:
#      x y z
#    x 1.753670 0.000000 0.000000 
#    y 0.000000 1.773920 0.000000 
#    z 0.000000 0.000000 1.784200 
# 
# From -- ./inp_files/44614.got.cif
#   From: 2010.03.12/outbox.cif.g09.slc.cpg/sg68_23_cif.got.tgz:44614.got - 2010.04.10 23:14:56.
