data_PCOD8281217
_publ_section_title
;
Structure prediction by ZEFSAII (Michael W. Deem and Ramdas Pophale) SiO2 
 PCOD8281217
Probable space group: C M M A
;
_chemical_formula_sum "Si O2"
_cell_formula_units_Z 96
_cell_length_a 14.227012
_cell_length_b 14.413564
_cell_length_c 22.842947
_cell_angle_alpha 90.000000
_cell_angle_beta 90.000000
_cell_angle_gamma 90.000000
_cell_volume 4684.219210
_symmetry_space_group_name_H-M "C M M A"
_symmetry_group_IT_number 67
_symmetry_cell_setting 'orthorhombic'
loop_
_space_group_symop_operation_xyz
x,y,z
-x,1/2-y,z
x,-y,-z
-x,1/2+y,-z
-x,-y,-z
x,1/2+y,-z
-x,y,z
x,1/2-y,z
1/2+x,1/2+y,z
1/2-x,-y,z
1/2+x,1/2-y,-z
1/2-x,y,-z
1/2-x,1/2-y,-z
1/2+x,y,-z
1/2-x,1/2+y,z
1/2+x,-y,z
loop_
_atom_site_type_symbol
_atom_site_label
_atom_site_fract_x
_atom_site_fract_y
_atom_site_fract_z
Si Si1 0.250000 0.853727 0.726381
Si Si2 0.103995 0.890071 0.500000
Si Si3 0.112462 0.500000 0.775165
Si Si4 0.750000 0.390381 0.405351
Si Si5 0.610911 0.500000 0.908493
Si Si6 0.888342 0.353127 0.000000
O O1 0.250000 0.750000 0.753824
O O2 0.155750 0.908096 0.745701
O O3 0.250000 0.840953 0.656751
O O4 0.344250 0.908096 0.745701
O O5 0.158416 0.857613 0.558314
O O6 0.158416 0.857613 0.441686
O O7 0.000000 0.846051 0.500000
O O8 0.099911 0.000000 0.500000
O O9 0.146960 0.499999 0.842362
O O10 0.000000 0.500000 0.767381
O O11 0.750000 0.500000 0.395347
O O12 0.500000 0.500001 0.909435
O O13 0.647282 0.591907 0.942300
O O14 0.647281 0.408093 0.942300
O O15 0.844420 0.250000 0.000000
O O16 0.000000 0.347912 1.000000
#
# Coordination Sequence:
#
# PCOD8281217 Si02
#       6
#    16  16  16  16  16  16
#     4  11  24  41  60  86 119 158 204 250 295 346
#     4   8  15  27  52  84 112 144 183 231 288 349
#     4  10  22  41  62  84 116 159 204 250 296 346
#     4   9  16  33  53  79 114 149 190 233 287 350
#     4   8  15  28  48  77 110 145 188 234 286 349
#     4   8  13  23  44  77 113 143 176 229 293 350
#
# _framework density 20.494344999999999
#
# number of rings (size 3 to 8) (size 9 to 14) (size 15 to 20)
#    0.000    3.000    1.667    2.000    0.000    3.333 
#    0.000    5.000    0.000    9.000    0.000    9.333 
#    0.000    0.000    0.000    0.000    0.000    0.000 
#
# Total GULP energy -594873.444839 kJ/mol
# GULP energy per Si atom -12393.196767 kJ/mol
# Density = 2.044770 g / cm^3
# Si number density = 20.494345 Si / 1000 Ang^3
#
#
#
# Elastic Constant Matrix: (Units=GPa)
#
#
# Indices 1 2 3 4 5 6 
#
# 1 142.1058 32.7401 45.7477 0.0000 0.0000 0.0000
# 2 32.7401 156.7263 50.0473 0.0000 0.0000 0.0000
# 3 45.7477 50.0473 162.5630 0.0000 0.0000 0.0000
# 4 0.0000 0.0000 0.0000 0.5359 0.0000 0.0000
# 5 0.0000 0.0000 0.0000 0.0000 46.5310 0.0000
# 6 0.0000 0.0000 0.0000 0.0000 0.0000 -12.4460
#
#
#
# Elastic Compliance Matrix: (Units=1/GPa)
#
#
# Indices 1 2 3 4 5 6 
#
# 1 0.007888 -0.001041 -0.001899 0.000000 0.000000 0.000000
# 2 -0.001041 0.007214 -0.001928 0.000000 0.000000 0.000000
# 3 -0.001899 -0.001928 0.007279 0.000000 0.000000 0.000000
# 4 0.000000 0.000000 0.000000 1.865902 0.000000 0.000000
# 5 0.000000 0.000000 0.000000 0.000000 0.021491 0.000000
# 6 0.000000 0.000000 0.000000 0.000000 0.000000 -0.080347
#
#
# Mechanical properties :
#
#
# Convention : Reuss Voigt Hill
#
# Bulk Modulus (GPa) = 79.08520 79.82949 79.45734
# Shear Modulus (GPa) = 2.71241 29.11485 15.91363
#
# Velocity S-wave (km/s) = 1.15168 3.77321 2.78958
# Velocity P-wave (km/s) = 6.35933 7.61704 7.01642
#
# Compressibility (1/GPa) = 0.01264459
#
# Stress axis : x y z
#
# Youngs Moduli (GPa) = 126.76885 138.62536 137.37304
#
# Poissons Ratio (x) = 0.14436 0.26091
# Poissons Ratio (y) = 0.13201 0.26482
# Poissons Ratio (z) = 0.24077 0.26724
#
# Static dielectric constant tensor:
#      x y z
#    x 3.771330 0.000000 0.000000 
#    y 0.000000 3.687760 0.000000 
#    z 0.000000 0.000000 3.958210 
# 
# 
# High freq. dielectric constant tensor:
#      x y z
#    x 1.796230 0.000000 0.000000 
#    y 0.000000 1.796040 0.000000 
#    z 0.000000 0.000000 1.799380 
# 
# From -- ./inp_files/38378.got.cif
#   From: 2010.03.12/outbox.cif.g09.slc.cpg/sg67_20_cif.got.tgz:38378.got - 2010.04.10 22:41:39.
