data_PCOD8281831
_publ_section_title
;
Structure prediction by ZEFSAII (Michael W. Deem and Ramdas Pophale) SiO2 
 PCOD8281831
Probable space group: C C C A
;
_chemical_formula_sum "Si O2"
_cell_formula_units_Z 112
_cell_length_a 13.140974
_cell_length_b 23.055992
_cell_length_c 17.513467
_cell_angle_alpha 90.000000
_cell_angle_beta 90.000000
_cell_angle_gamma 90.000000
_cell_volume 5306.198557
_symmetry_space_group_name_H-M "C C C A"
_symmetry_group_IT_number 68
_space_group.IT_coordinate_system_code '2'
_symmetry_cell_setting 'orthorhombic'
loop_
_space_group_symop_operation_xyz
x,y,z
-x,1/2-y,z
x,1/2-y,1/2-z
-x,y,1/2-z
-x,-y,-z
x,1/2+y,-z
-x,1/2+y,1/2+z
x,-y,1/2+z
1/2+x,1/2+y,z
1/2-x,-y,z
1/2+x,-y,1/2-z
1/2-x,1/2+y,1/2-z
1/2-x,1/2-y,-z
1/2+x,y,-z
1/2-x,y,1/2+z
1/2+x,1/2-y,1/2+z
loop_
_atom_site_type_symbol
_atom_site_label
_atom_site_fract_x
_atom_site_fract_y
_atom_site_fract_z
Si Si1 0.660998 0.564603 0.322133
Si Si2 0.463045 0.327870 0.666458
Si Si3 0.344103 0.838738 0.073643
Si Si4 0.970818 0.960488 0.164047
Si Si5 0.660766 0.960494 0.351961
Si Si6 0.658745 0.365832 0.398685
Si Si7 0.259947 0.761646 0.338373
O O1 0.558792 0.603244 0.331123
O O2 0.633175 0.498397 0.343210
O O3 0.686800 0.563090 0.232514
O O4 0.750237 0.590828 0.374014
O O5 0.500000 0.306758 0.750000
O O6 0.548851 0.313563 0.604197
O O7 0.363104 0.294811 0.639177
O O8 0.336800 0.904984 0.095893
O O9 0.255902 0.797562 0.110963
O O10 0.334162 0.840775 0.983420
O O11 0.947196 0.900796 0.117551
O O12 0.000000 0.942718 0.250000
O O13 0.060956 0.000455 0.132680
O O14 0.750000 0.000000 0.382940
O O15 0.665516 0.305518 0.351870
O O16 0.258749 0.750000 0.250000
#
# Coordination Sequence:
#
# PCOD8281831 Si02
#       7
#    16  16  16  16  16  16  16
#     4  10  18  38  65  92 124 171 221 262 321 397
#     4  11  18  37  68  99 120 161 224 283 327 379
#     4  12  23  40  61  97 138 160 214 280 345 388
#     4  10  20  40  67  91 127 174 228 267 316 402
#     4  11  22  38  66  97 124 171 223 272 321 395
#     4  11  25  39  61  97 138 175 203 273 349 403
#     4  11  23  40  72  93 124 176 233 276 321 401
#
# _framework density 21.107389000000001
#
# number of rings (size 3 to 8) (size 9 to 14) (size 15 to 20)
#    0.000    1.143    4.286    4.286    0.000    1.714 
#    5.143    0.000    6.286    0.000    0.000    0.000 
#    0.000    0.000    0.000    0.000    0.000    0.000 
#
# Total GULP energy -693907.064115 kJ/mol
# GULP energy per Si atom -12391.197573 kJ/mol
# Density = 2.105935 g / cm^3
# Si number density = 21.107389 Si / 1000 Ang^3
#
#
#
# Elastic Constant Matrix: (Units=GPa)
#
#
# Indices 1 2 3 4 5 6 
#
# 1 47.4017 35.4449 29.8529 0.0000 0.0000 0.0000
# 2 35.4449 139.0390 45.6643 0.0000 0.0000 0.0000
# 3 29.8529 45.6643 99.2579 0.0000 0.0000 0.0000
# 4 0.0000 0.0000 0.0000 12.8412 0.0000 0.0000
# 5 0.0000 0.0000 0.0000 0.0000 3.8528 0.0000
# 6 0.0000 0.0000 0.0000 0.0000 0.0000 24.3272
#
#
#
# Elastic Compliance Matrix: (Units=1/GPa)
#
#
# Indices 1 2 3 4 5 6 
#
# 1 0.029045 -0.005343 -0.006278 0.000000 0.000000 0.000000
# 2 -0.005343 0.009455 -0.002743 0.000000 0.000000 0.000000
# 3 -0.006278 -0.002743 0.013225 0.000000 0.000000 0.000000
# 4 0.000000 0.000000 0.000000 0.077874 0.000000 0.000000
# 5 0.000000 0.000000 0.000000 0.000000 0.259553 0.000000
# 6 0.000000 0.000000 0.000000 0.000000 0.000000 0.041106
#
#
# Mechanical properties :
#
#
# Convention : Reuss Voigt Hill
#
# Bulk Modulus (GPa) = 43.48174 56.40252 49.94213
# Shear Modulus (GPa) = 10.71466 19.85334 15.28400
#
# Velocity S-wave (km/s) = 2.25550 3.07023 2.69384
# Velocity P-wave (km/s) = 5.23718 6.27281 5.77824
#
# Compressibility (1/GPa) = 0.02299816
#
# Stress axis : x y z
#
# Youngs Moduli (GPa) = 34.42951 105.76315 75.61547
#
# Poissons Ratio (x) = 0.56505 0.47469
# Poissons Ratio (y) = 0.18394 0.20742
# Poissons Ratio (z) = 0.21614 0.29011
#
# Static dielectric constant tensor:
#      x y z
#    x 3.774570 0.000000 0.000000 
#    y 0.000000 4.347250 0.000000 
#    z 0.000000 0.000000 3.578730 
# 
# 
# High freq. dielectric constant tensor:
#      x y z
#    x 1.807770 0.000000 0.000000 
#    y 0.000000 1.854150 0.000000 
#    z 0.000000 0.000000 1.799910 
# 
# From -- ./inp_files/22575.got.cif
#   From: 2010.03.12/outbox.cif.g09.slc.cpg/sg68_12_cif.got.tgz:22575.got - 2010.04.10 23:14:56.
