data_PCOD8281589
_publ_section_title
;
Structure prediction by ZEFSAII (Michael W. Deem and Ramdas Pophale) SiO2 
 PCOD8281589
Probable space group: C M M A
;
_chemical_formula_sum "Si O2"
_cell_formula_units_Z 128
_cell_length_a 20.166744
_cell_length_b 23.655860
_cell_length_c 17.784159
_cell_angle_alpha 90.000000
_cell_angle_beta 90.000000
_cell_angle_gamma 90.000000
_cell_volume 8484.140640
_symmetry_space_group_name_H-M "C M M A"
_symmetry_group_IT_number 67
_symmetry_cell_setting 'orthorhombic'
loop_
_space_group_symop_operation_xyz
x,y,z
-x,1/2-y,z
x,-y,-z
-x,1/2+y,-z
-x,-y,-z
x,1/2+y,-z
-x,y,z
x,1/2-y,z
1/2+x,1/2+y,z
1/2-x,-y,z
1/2+x,1/2-y,-z
1/2-x,y,-z
1/2-x,1/2-y,-z
1/2+x,y,-z
1/2-x,1/2+y,z
1/2+x,-y,z
loop_
_atom_site_type_symbol
_atom_site_label
_atom_site_fract_x
_atom_site_fract_y
_atom_site_fract_z
Si Si1 0.162434 0.383450 0.133829
Si Si2 0.697746 0.814970 0.705487
Si Si3 0.671219 0.002905 0.085541
Si Si4 0.682945 0.682725 0.537502
Si Si5 0.180468 0.621249 0.149087
Si Si6 0.074143 0.182736 0.423706
Si Si7 0.646359 0.185333 0.725522
Si Si8 0.328853 0.186992 0.006469
O O1 0.141582 0.449205 0.130232
O O2 0.240929 0.378462 0.141329
O O3 0.126762 0.353837 0.204105
O O4 0.139380 0.352265 0.057771
O O5 0.676531 0.750000 0.720967
O O6 0.674093 0.836655 0.623821
O O7 0.663088 0.855511 0.767627
O O8 0.776739 0.819817 0.705713
O O9 0.650235 0.059132 0.131634
O O10 0.750000 0.000000 0.081642
O O11 0.643667 0.000000 0.000000
O O12 0.686956 0.750000 0.534430
O O13 0.750000 0.657830 0.500000
O O14 0.619789 0.659424 0.491339
O O15 0.149480 0.663646 0.087725
O O16 0.074048 0.250000 0.425605
O O17 0.103938 0.162490 0.344425
O O18 0.000000 0.158398 0.433521
O O19 0.628417 0.250000 0.745582
O O20 0.357157 0.250000 0.996999
O O21 0.250000 0.186711 0.000000
#
# Coordination Sequence:
#
# PCOD8281589 Si02
#       8
#    16  16  16  16  16  16  16  16
#     4   9  15  21  31  46  67 101 135 161 192 236
#     4   9  15  22  34  53  77 104 133 163 199 246
#     4   9  14  22  32  43  66 102 138 167 194 238
#     4   9  14  23  38  55  78 108 136 161 196 247
#     4   9  15  21  30  46  70 100 133 167 197 228
#     4   9  16  25  38  57  82 109 134 164 201 241
#     4   9  15  23  34  52  78 102 130 163 198 242
#     4   9  14  19  27  42  67  99 131 158 190 232
#
# _framework density 15.086973
#
# number of rings (size 3 to 8) (size 9 to 14) (size 15 to 20)
#    0.000    3.000    2.500    0.750    0.000    3.000 
#    0.000    0.000    0.000    0.000    0.000    0.875 
#    0.000    3.500    0.000    7.750    0.000    1.625 
#
# Total GULP energy -793161.715822 kJ/mol
# GULP energy per Si atom -12393.151810 kJ/mol
# Density = 1.505263 g / cm^3
# Si number density = 15.086973 Si / 1000 Ang^3
#
#
#
# Elastic Constant Matrix: (Units=GPa)
#
#
# Indices 1 2 3 4 5 6 
#
# 1 31.6536 15.6927 35.9142 0.0000 0.0000 0.0000
# 2 15.6927 90.6082 60.1576 0.0000 0.0000 0.0000
# 3 35.9142 60.1576 155.0228 0.0000 0.0000 0.0000
# 4 0.0000 0.0000 0.0000 11.0978 0.0000 0.0000
# 5 0.0000 0.0000 0.0000 0.0000 8.1271 0.0000
# 6 0.0000 0.0000 0.0000 0.0000 0.0000 3.1946
#
#
#
# Elastic Compliance Matrix: (Units=1/GPa)
#
#
# Indices 1 2 3 4 5 6 
#
# 1 0.042941 -0.001121 -0.009513 0.000000 0.000000 0.000000
# 2 -0.001121 0.014896 -0.005521 0.000000 0.000000 0.000000
# 3 -0.009513 -0.005521 0.010797 0.000000 0.000000 0.000000
# 4 0.000000 0.000000 0.000000 0.090108 0.000000 0.000000
# 5 0.000000 0.000000 0.000000 0.000000 0.123046 0.000000
# 6 0.000000 0.000000 0.000000 0.000000 0.000000 0.313032
#
#
# Mechanical properties :
#
#
# Convention : Reuss Voigt Hill
#
# Bulk Modulus (GPa) = 27.52972 55.64595 41.58784
# Shear Modulus (GPa) = 7.82180 15.51856 11.67018
#
# Velocity S-wave (km/s) = 2.27941 3.21067 2.78425
# Velocity P-wave (km/s) = 5.02141 7.12096 6.16128
#
# Compressibility (1/GPa) = 0.03632437
#
# Stress axis : x y z
#
# Youngs Moduli (GPa) = 23.28754 67.13150 92.61839
#
# Poissons Ratio (x) = 0.07526 0.88110
# Poissons Ratio (y) = 0.02611 0.51133
# Poissons Ratio (z) = 0.22154 0.37062
#
# Static dielectric constant tensor:
#      x y z
#    x 2.439480 0.000000 0.000000 
#    y 0.000000 2.843560 0.000000 
#    z 0.000000 0.000000 3.133720 
# 
# 
# High freq. dielectric constant tensor:
#      x y z
#    x 1.508950 0.000000 0.000000 
#    y 0.000000 1.549270 0.000000 
#    z 0.000000 0.000000 1.590410 
# 
# From -- ./inp_files/35286.got.cif
#   From: 2010.03.12/outbox.cif.g09.slc.cpg/sg67_18_cif.got.tgz:35286.got - 2010.04.10 22:41:39.
