data_PCOD8281522
_publ_section_title
;
Structure prediction by ZEFSAII (Michael W. Deem and Ramdas Pophale) SiO2 
 PCOD8281522
Probable space group: C M M A
;
_chemical_formula_sum "Si O2"
_cell_formula_units_Z 88
_cell_length_a 9.520025
_cell_length_b 19.286720
_cell_length_c 22.834681
_cell_angle_alpha 90.000000
_cell_angle_beta 90.000000
_cell_angle_gamma 90.000000
_cell_volume 4192.677070
_symmetry_space_group_name_H-M "C M M A"
_symmetry_group_IT_number 67
_symmetry_cell_setting 'orthorhombic'
loop_
_space_group_symop_operation_xyz
x,y,z
-x,1/2-y,z
x,-y,-z
-x,1/2+y,-z
-x,-y,-z
x,1/2+y,-z
-x,y,z
x,1/2-y,z
1/2+x,1/2+y,z
1/2-x,-y,z
1/2+x,1/2-y,-z
1/2-x,y,-z
1/2-x,1/2-y,-z
1/2+x,y,-z
1/2-x,1/2+y,z
1/2+x,-y,z
loop_
_atom_site_type_symbol
_atom_site_label
_atom_site_fract_x
_atom_site_fract_y
_atom_site_fract_z
Si Si1 0.000000 0.595390 0.041648
Si Si2 0.248009 0.371115 0.878226
Si Si3 0.839198 0.331228 0.751459
Si Si4 0.148124 0.250000 0.054049
Si Si5 0.661941 0.171427 0.556754
Si Si6 0.500000 0.442052 0.915175
Si Si7 0.667831 0.573244 0.334827
O O1 0.861927 0.627449 0.069181
O O2 0.000000 0.515926 0.056984
O O3 0.000000 0.609844 0.971902
O O4 0.169173 0.358043 0.817675
O O5 0.347757 0.310252 0.898053
O O6 0.357742 0.435835 0.875899
O O7 0.797850 0.250000 0.746481
O O8 0.729807 0.377870 0.715684
O O9 0.000000 0.342256 0.729860
O O10 0.000000 0.250000 0.021036
O O11 0.250000 0.250000 0.000000
O O12 0.500000 0.167530 0.538891
O O13 0.699646 0.250000 0.578219
O O14 0.750000 0.150894 0.500000
O O15 0.698093 0.114824 0.605623
O O16 0.500000 0.561643 0.325053
O O17 0.750000 0.500000 0.336325
#
# Coordination Sequence:
#
# PCOD8281522 Si02
#       7
#     8  16  16   8  16   8  16
#     4  11  24  43  63  87 127 162 202 255 318 387
#     4  12  24  42  64  91 122 159 208 259 319 389
#     4  11  25  46  67  92 129 172 221 273 334 400
#     4  12  26  40  64  94 124 158 201 258 325 392
#     4   9  19  38  66 102 140 182 230 276 325 381
#     4  11  24  41  63  93 121 164 206 249 314 395
#     4  11  25  44  68  99 137 180 228 280 333 390
#
# _framework density 20.988976999999998
#
# number of rings (size 3 to 8) (size 9 to 14) (size 15 to 20)
#    0.000    1.091    2.727    3.273    2.545    5.818 
#    0.000    3.636    0.000    0.000    0.000    0.000 
#    0.000    0.000    0.000    0.000    0.000    0.000 
#
# Total GULP energy -545284.367023 kJ/mol
# GULP energy per Si atom -12392.826523 kJ/mol
# Density = 2.094121 g / cm^3
# Si number density = 20.988977 Si / 1000 Ang^3
#
#
#
# Elastic Constant Matrix: (Units=GPa)
#
#
# Indices 1 2 3 4 5 6 
#
# 1 133.9317 51.2523 43.8183 0.0000 0.0000 0.0000
# 2 51.2523 104.6193 51.4346 0.0000 0.0000 0.0000
# 3 43.8183 51.4346 99.4651 0.0000 0.0000 0.0000
# 4 0.0000 0.0000 0.0000 20.9596 0.0000 0.0000
# 5 0.0000 0.0000 0.0000 0.0000 43.3076 0.0000
# 6 0.0000 0.0000 0.0000 0.0000 0.0000 35.4870
#
#
#
# Elastic Compliance Matrix: (Units=1/GPa)
#
#
# Indices 1 2 3 4 5 6 
#
# 1 0.009602 -0.003519 -0.002410 0.000000 0.000000 0.000000
# 2 -0.003519 0.014106 -0.005744 0.000000 0.000000 0.000000
# 3 -0.002410 -0.005744 0.014086 0.000000 0.000000 0.000000
# 4 0.000000 0.000000 0.000000 0.047711 0.000000 0.000000
# 5 0.000000 0.000000 0.000000 0.000000 0.023091 0.000000
# 6 0.000000 0.000000 0.000000 0.000000 0.000000 0.028179
#
#
# Mechanical properties :
#
#
# Convention : Reuss Voigt Hill
#
# Bulk Modulus (GPa) = 69.21777 70.11406 69.66591
# Shear Modulus (GPa) = 30.31444 32.71822 31.51633
#
# Velocity S-wave (km/s) = 3.80452 3.95248 3.87921
# Velocity P-wave (km/s) = 7.23526 7.36934 7.30261
#
# Compressibility (1/GPa) = 0.01444716
#
# Stress axis : x y z
#
# Youngs Moduli (GPa) = 104.14911 70.88942 70.99174
#
# Poissons Ratio (x) = 0.24944 0.17111
# Poissons Ratio (y) = 0.36648 0.40781
# Poissons Ratio (z) = 0.25103 0.40722
#
# Static dielectric constant tensor:
#      x y z
#    x 3.911830 0.000000 0.000000 
#    y 0.000000 4.132480 0.000000 
#    z 0.000000 0.000000 3.701690 
# 
# 
# High freq. dielectric constant tensor:
#      x y z
#    x 1.839640 0.000000 0.000000 
#    y 0.000000 1.837480 0.000000 
#    z 0.000000 0.000000 1.806940 
# 
# From -- ./inp_files/37013.got.cif
#   From: 2010.03.12/outbox.cif.g09.slc.cpg/sg67_19_cif.got.tgz:37013.got - 2010.04.10 22:41:39.
