data_PCOD8281708
_publ_section_title
;
Structure prediction by ZEFSAII (Michael W. Deem and Ramdas Pophale) SiO2 
 PCOD8281708
Probable space group: C C C A
;
_chemical_formula_sum "Si O2"
_cell_formula_units_Z 116
_cell_length_a 9.437761
_cell_length_b 25.253414
_cell_length_c 25.646514
_cell_angle_alpha 90.000000
_cell_angle_beta 90.000000
_cell_angle_gamma 90.000000
_cell_volume 6112.479502
_symmetry_space_group_name_H-M "C C C A"
_symmetry_group_IT_number 68
_space_group.IT_coordinate_system_code '2'
_symmetry_cell_setting 'orthorhombic'
loop_
_space_group_symop_operation_xyz
x,y,z
-x,1/2-y,z
x,1/2-y,1/2-z
-x,y,1/2-z
-x,-y,-z
x,1/2+y,-z
-x,1/2+y,1/2+z
x,-y,1/2+z
1/2+x,1/2+y,z
1/2-x,-y,z
1/2+x,-y,1/2-z
1/2-x,1/2+y,1/2-z
1/2-x,1/2-y,-z
1/2+x,y,-z
1/2-x,y,1/2+z
1/2+x,1/2-y,1/2+z
loop_
_atom_site_type_symbol
_atom_site_label
_atom_site_fract_x
_atom_site_fract_y
_atom_site_fract_z
Si Si1 0.470712 0.538885 0.657565
Si Si2 0.230723 0.439263 0.021304
Si Si3 0.000000 0.750000 0.750000
Si Si4 0.847213 0.431576 0.359304
Si Si5 0.121948 0.373500 0.785869
Si Si6 0.977471 0.689401 0.366576
Si Si7 0.511922 0.099751 0.443582
Si Si8 0.695991 0.334658 0.801102
O O1 0.311254 0.561582 0.664773
O O2 0.459517 0.475269 0.661899
O O3 0.579467 0.565090 0.699620
O O4 0.527092 0.555234 0.600995
O O5 0.250000 0.500000 0.004350
O O6 0.158328 0.435259 0.078322
O O7 0.383876 0.414003 0.018714
O O8 0.149595 0.403755 0.979206
O O9 0.900828 0.715340 0.787757
O O10 0.896600 0.374688 0.337380
O O11 0.266933 0.365506 0.753610
O O12 0.000000 0.349322 0.750000
O O13 0.113930 0.335728 0.836594
O O14 0.832880 0.683069 0.334035
O O15 0.000000 0.750000 0.380023
O O16 0.976361 0.657777 0.420938
#
# Coordination Sequence:
#
# PCOD8281708 Si02
#       8
#    16  16   4  16  16  16  16  16
#     4   9  16  32  55  88 117 147 185 230 292 359
#     4  11  19  34  61  88 116 160 197 241 304 369
#     4  12  28  40  58  84 112 160 212 250 298 356
#     4  10  17  33  59  84 121 154 181 234 303 356
#     4   9  16  31  59  87 107 142 196 235 278 351
#     4  10  19  36  63  83 109 151 200 253 297 346
#     4  10  20  35  58  88 116 152 204 244 297 367
#     4  11  21  41  59  82 118 153 203 246 299 352
#
# _framework density 18.977568999999999
#
# number of rings (size 3 to 8) (size 9 to 14) (size 15 to 20)
#    0.000    1.931    8.276    1.241    0.000    1.931 
#    1.241    4.828    1.517    0.000    0.000    0.000 
#    0.000    0.000    0.000    0.000    0.000    0.000 
#
# Total GULP energy -718561.104782 kJ/mol
# GULP energy per Si atom -12388.984565 kJ/mol
# Density = 1.893437 g / cm^3
# Si number density = 18.977569 Si / 1000 Ang^3
#
#
#
# Elastic Constant Matrix: (Units=GPa)
#
#
# Indices 1 2 3 4 5 6 
#
# 1 55.2250 35.9180 41.3341 0.0000 0.0000 0.0000
# 2 35.9180 131.8521 41.8636 0.0000 0.0000 0.0000
# 3 41.3341 41.8636 62.3812 0.0000 0.0000 0.0000
# 4 0.0000 0.0000 0.0000 179.2931 0.0000 0.0000
# 5 0.0000 0.0000 0.0000 0.0000 839.0250 0.0000
# 6 0.0000 0.0000 0.0000 0.0000 0.0000 30.9790
#
#
#
# Elastic Compliance Matrix: (Units=1/GPa)
#
#
# Indices 1 2 3 4 5 6 
#
# 1 0.036775 -0.002899 -0.022422 0.000000 0.000000 0.000000
# 2 -0.002899 0.009866 -0.004700 0.000000 0.000000 0.000000
# 3 -0.022422 -0.004700 0.034042 0.000000 0.000000 0.000000
# 4 0.000000 0.000000 0.000000 0.005577 0.000000 0.000000
# 5 0.000000 0.000000 0.000000 0.000000 0.001192 0.000000
# 6 0.000000 0.000000 0.000000 0.000000 0.000000 0.032280
#
#
# Mechanical properties :
#
#
# Convention : Reuss Voigt Hill
#
# Bulk Modulus (GPa) = 48.44782 54.18774 51.31778
# Shear Modulus (GPa) = 26.78722 218.54893 122.66808
#
# Velocity S-wave (km/s) = 3.76110 10.74298 8.04853
# Velocity P-wave (km/s) = 6.66675 13.50918 10.65231
#
# Compressibility (1/GPa) = 0.02064076
#
# Stress axis : x y z
#
# Youngs Moduli (GPa) = 27.19206 101.35456 29.37557
#
# Poissons Ratio (x) = 0.29382 0.65866
# Poissons Ratio (y) = 0.07883 0.13808
# Poissons Ratio (z) = 0.60970 0.47641
#
# Static dielectric constant tensor:
#      x y z
#    x 3.227170 0.000000 0.000000 
#    y 0.000000 3.525870 0.000000 
#    z 0.000000 0.000000 3.466850 
# 
# 
# High freq. dielectric constant tensor:
#      x y z
#    x 1.703730 0.000000 0.000000 
#    y 0.000000 1.730660 0.000000 
#    z 0.000000 0.000000 1.730600 
# 
# From -- ./inp_files/43536.got.cif
#   From: 2010.03.12/outbox.cif.g09.slc.cpg/sg68_22_cif.got.tgz:43536.got - 2010.04.10 23:14:56.
