data_PCOD8281817
_publ_section_title
;
Structure prediction by ZEFSAII (Michael W. Deem and Ramdas Pophale) SiO2 
 PCOD8281817
Probable space group: C C C A
;
_chemical_formula_sum "Si O2"
_cell_formula_units_Z 56
_cell_length_a 12.226279
_cell_length_b 13.233329
_cell_length_c 14.898792
_cell_angle_alpha 90.000000
_cell_angle_beta 90.000000
_cell_angle_gamma 90.000000
_cell_volume 2410.540702
_symmetry_space_group_name_H-M "C C C A"
_symmetry_group_IT_number 68
_space_group.IT_coordinate_system_code '2'
_symmetry_cell_setting 'orthorhombic'
loop_
_space_group_symop_operation_xyz
x,y,z
-x,1/2-y,z
x,1/2-y,1/2-z
-x,y,1/2-z
-x,-y,-z
x,1/2+y,-z
-x,1/2+y,1/2+z
x,-y,1/2+z
1/2+x,1/2+y,z
1/2-x,-y,z
1/2+x,-y,1/2-z
1/2-x,1/2+y,1/2-z
1/2-x,1/2-y,-z
1/2+x,y,-z
1/2-x,y,1/2+z
1/2+x,1/2-y,1/2+z
loop_
_atom_site_type_symbol
_atom_site_label
_atom_site_fract_x
_atom_site_fract_y
_atom_site_fract_z
Si Si1 0.410469 0.002996 0.616281
Si Si2 0.863621 0.540195 0.814536
Si Si3 0.297039 0.750000 0.250000
Si Si4 0.739384 0.835339 0.926094
O O1 0.377256 0.982415 0.719995
O O2 0.542060 0.013187 0.612609
O O3 0.353815 0.103865 0.578020
O O4 0.364987 0.908757 0.557249
O O5 0.750000 0.500000 0.858074
O O6 0.870875 0.659603 0.791808
O O7 0.218093 0.785593 0.170549
O O8 0.750000 0.750000 0.000000
#
# Coordination Sequence:
#
# PCOD8281817 Si02
#       4
#    16  16   8  16
#     4   9  19  38  63 100 136 172 233 283 359 415
#     4  10  18  37  68  95 136 181 226 293 348 428
#     4  10  20  39  69  98 126 182 231 271 364 410
#     4  10  20  40  65  96 136 170 227 295 338 420
#
# _framework density 23.231301999999999
#
# number of rings (size 3 to 8) (size 9 to 14) (size 15 to 20)
#    0.000    2.286    5.714    0.000    0.000    9.143 
#    5.143    4.286    6.286    0.000    0.000    0.000 
#    0.000    0.000    0.000    0.000    0.000    0.000 
#
# Total GULP energy -346997.550647 kJ/mol
# GULP energy per Si atom -12392.769666 kJ/mol
# Density = 2.317843 g / cm^3
# Si number density = 23.231302 Si / 1000 Ang^3
#
#
#
# Elastic Constant Matrix: (Units=GPa)
#
#
# Indices 1 2 3 4 5 6 
#
# 1 209.1796 85.0551 47.0240 0.0000 0.0000 0.0000
# 2 85.0551 169.8472 66.2206 0.0000 0.0000 0.0000
# 3 47.0240 66.2206 73.2559 0.0000 0.0000 0.0000
# 4 0.0000 0.0000 0.0000 40.5463 0.0000 0.0000
# 5 0.0000 0.0000 0.0000 0.0000 32.7481 0.0000
# 6 0.0000 0.0000 0.0000 0.0000 0.0000 18.3767
#
#
#
# Elastic Compliance Matrix: (Units=1/GPa)
#
#
# Indices 1 2 3 4 5 6 
#
# 1 0.006153 -0.002380 -0.001798 0.000000 0.000000 0.000000
# 2 -0.002380 0.010013 -0.007523 0.000000 0.000000 0.000000
# 3 -0.001798 -0.007523 0.021606 0.000000 0.000000 0.000000
# 4 0.000000 0.000000 0.000000 0.024663 0.000000 0.000000
# 5 0.000000 0.000000 0.000000 0.000000 0.030536 0.000000
# 6 0.000000 0.000000 0.000000 0.000000 0.000000 0.054417
#
#
# Mechanical properties :
#
#
# Convention : Reuss Voigt Hill
#
# Bulk Modulus (GPa) = 69.59749 94.32022 81.95886
# Shear Modulus (GPa) = 28.47721 35.26642 31.87181
#
# Velocity S-wave (km/s) = 3.50496 3.90045 3.70798
# Velocity P-wave (km/s) = 6.81199 7.80854 7.32723
#
# Compressibility (1/GPa) = 0.01436833
#
# Stress axis : x y z
#
# Youngs Moduli (GPa) = 162.53531 99.87281 46.28409
#
# Poissons Ratio (x) = 0.23770 0.08321
# Poissons Ratio (y) = 0.38684 0.34821
# Poissons Ratio (z) = 0.29222 0.75138
#
# Static dielectric constant tensor:
#      x y z
#    x 4.181740 0.000000 0.000000 
#    y 0.000000 4.386170 0.000000 
#    z 0.000000 0.000000 3.955450 
# 
# 
# High freq. dielectric constant tensor:
#      x y z
#    x 1.896880 0.000000 0.000000 
#    y 0.000000 1.920820 0.000000 
#    z 0.000000 0.000000 1.908950 
# 
# From -- ./inp_files/20082.got.cif
#   From: 2010.03.12/outbox.cif.g09.slc.cpg/sg68_11_cif.got.tgz:20082.got - 2010.04.10 23:14:56.
