data_PCOD8281101
_publ_section_title
;
Structure prediction by ZEFSAII (Michael W. Deem and Ramdas Pophale) SiO2 
 PCOD8281101
Probable space group: C M M A
;
_chemical_formula_sum "Si O2"
_cell_formula_units_Z 96
_cell_length_a 28.057441
_cell_length_b 20.106719
_cell_length_c 8.827155
_cell_angle_alpha 90.000000
_cell_angle_beta 90.000000
_cell_angle_gamma 90.000000
_cell_volume 4979.778427
_symmetry_space_group_name_H-M "C M M A"
_symmetry_group_IT_number 67
_symmetry_cell_setting 'orthorhombic'
loop_
_space_group_symop_operation_xyz
x,y,z
-x,1/2-y,z
x,-y,-z
-x,1/2+y,-z
-x,-y,-z
x,1/2+y,-z
-x,y,z
x,1/2-y,z
1/2+x,1/2+y,z
1/2-x,-y,z
1/2+x,1/2-y,-z
1/2-x,y,-z
1/2-x,1/2-y,-z
1/2+x,y,-z
1/2-x,1/2+y,z
1/2+x,-y,z
loop_
_atom_site_type_symbol
_atom_site_label
_atom_site_fract_x
_atom_site_fract_y
_atom_site_fract_z
Si Si1 0.702608 0.376493 0.583516
Si Si2 0.865850 0.444805 0.202361
Si Si3 0.884311 0.827203 0.391017
Si Si4 0.265147 0.821197 0.828878
Si Si5 0.055382 0.428922 0.424068
Si Si6 0.648047 0.903658 0.876347
O O1 0.750000 0.404472 0.500000
O O2 0.672893 0.434951 0.664195
O O3 0.668228 0.338408 0.465156
O O4 0.720093 0.327509 0.716985
O O5 0.918481 0.427500 0.261836
O O6 0.863519 0.521377 0.162811
O O7 0.856713 0.396566 0.058103
O O8 0.898041 0.750000 0.397029
O O9 0.924934 0.868328 0.476699
O O10 0.886023 0.853345 0.216666
O O11 0.290677 0.750000 0.788324
O O12 0.299154 0.885245 0.818265
O O13 0.250000 0.816364 0.000000
O O14 0.066042 0.500000 0.500000
O O15 0.000000 0.417442 0.395018
#
# Coordination Sequence:
#
# PCOD8281101 Si02
#       6
#    16  16  16  16  16  16
#     4  11  22  37  56  84 120 162 209 251 293 353
#     4  10  23  40  58  87 123 155 202 250 306 363
#     4  11  23  39  63  92 122 158 203 255 304 355
#     4  11  22  37  53  78 119 170 212 245 295 356
#     4  10  21  43  69  92 119 153 195 247 307 372
#     4  11  21  39  57  84 125 158 201 253 299 356
#
# _framework density 19.277964999999998
#
# number of rings (size 3 to 8) (size 9 to 14) (size 15 to 20)
#    0.000    1.333    5.000    1.000    0.000    1.667 
#    3.000    3.333    0.000    0.000    0.000    0.000 
#    0.000    0.000    0.000    0.000    0.000    0.000 
#
# Total GULP energy -594842.255369 kJ/mol
# GULP energy per Si atom -12392.546987 kJ/mol
# Density = 1.923409 g / cm^3
# Si number density = 19.277965 Si / 1000 Ang^3
#
#
#
# Elastic Constant Matrix: (Units=GPa)
#
#
# Indices 1 2 3 4 5 6 
#
# 1 117.2461 45.0224 48.4898 0.0000 0.0000 0.0000
# 2 45.0224 109.8094 44.8731 0.0000 0.0000 0.0000
# 3 48.4898 44.8731 121.9991 0.0000 0.0000 0.0000
# 4 0.0000 0.0000 0.0000 -15.5754 0.0000 0.0000
# 5 0.0000 0.0000 0.0000 0.0000 20.2822 0.0000
# 6 0.0000 0.0000 0.0000 0.0000 0.0000 20.8074
#
#
#
# Elastic Compliance Matrix: (Units=1/GPa)
#
#
# Indices 1 2 3 4 5 6 
#
# 1 0.011105 -0.003236 -0.003224 0.000000 0.000000 0.000000
# 2 -0.003236 0.011660 -0.003003 0.000000 0.000000 0.000000
# 3 -0.003224 -0.003003 0.010582 0.000000 0.000000 0.000000
# 4 0.000000 0.000000 0.000000 -0.064204 0.000000 0.000000
# 5 0.000000 0.000000 0.000000 0.000000 0.049304 0.000000
# 6 0.000000 0.000000 0.000000 0.000000 0.000000 0.048060
#
#
# Mechanical properties :
#
#
# Convention : Reuss Voigt Hill
#
# Bulk Modulus (GPa) = 69.33122 69.53614 69.43368
# Shear Modulus (GPa) = 55.40796 19.14748 37.27772
#
# Velocity S-wave (km/s) = 5.36694 3.15498 4.40215
# Velocity P-wave (km/s) = 8.62829 7.02997 7.86981
#
# Compressibility (1/GPa) = 0.01442352
#
# Stress axis : x y z
#
# Youngs Moduli (GPa) = 90.05153 85.76009 94.49565
#
# Poissons Ratio (x) = 0.27750 0.30461
# Poissons Ratio (y) = 0.29138 0.28375
# Poissons Ratio (z) = 0.29029 0.25752
#
# Static dielectric constant tensor:
#      x y z
#    x 3.362650 0.000000 0.000000 
#    y 0.000000 3.575940 0.000000 
#    z 0.000000 0.000000 4.004180 
# 
# 
# High freq. dielectric constant tensor:
#      x y z
#    x 1.723800 0.000000 0.000000 
#    y 0.000000 1.745400 0.000000 
#    z 0.000000 0.000000 1.771060 
# 
# From -- ./inp_files/13716.got.cif
#   From: 2010.03.12/outbox.cif.g09.slc.cpg/sg67_7_cif.got.tgz:13716.got - 2010.04.10 22:41:39.
