data_PCOD8281896
_publ_section_title
;
Structure prediction by ZEFSAII (Michael W. Deem and Ramdas Pophale) SiO2 
 PCOD8281896
Probable space group: C C C A
;
_chemical_formula_sum "Si O2"
_cell_formula_units_Z 96
_cell_length_a 22.232502
_cell_length_b 10.770196
_cell_length_c 21.658210
_cell_angle_alpha 90.000000
_cell_angle_beta 90.000000
_cell_angle_gamma 90.000000
_cell_volume 5186.023820
_symmetry_space_group_name_H-M "C C C A"
_symmetry_group_IT_number 68
_space_group.IT_coordinate_system_code '2'
_symmetry_cell_setting 'orthorhombic'
loop_
_space_group_symop_operation_xyz
x,y,z
-x,1/2-y,z
x,1/2-y,1/2-z
-x,y,1/2-z
-x,-y,-z
x,1/2+y,-z
-x,1/2+y,1/2+z
x,-y,1/2+z
1/2+x,1/2+y,z
1/2-x,-y,z
1/2+x,-y,1/2-z
1/2-x,1/2+y,1/2-z
1/2-x,1/2-y,-z
1/2+x,y,-z
1/2-x,y,1/2+z
1/2+x,1/2-y,1/2+z
loop_
_atom_site_type_symbol
_atom_site_label
_atom_site_fract_x
_atom_site_fract_y
_atom_site_fract_z
Si Si1 0.775095 0.187757 0.184553
Si Si2 0.570709 0.733685 0.820365
Si Si3 0.140314 0.573764 0.011560
Si Si4 0.841104 0.539697 0.351681
Si Si5 0.876517 0.669500 0.058897
Si Si6 0.758792 0.632467 0.582471
O O1 0.772747 0.250000 0.250000
O O2 0.709259 0.138061 0.168242
O O3 0.793407 0.284227 0.131822
O O4 0.827952 0.085807 0.185427
O O5 0.500000 0.750000 0.825657
O O6 0.592924 0.750000 0.750000
O O7 0.592806 0.594136 0.836632
O O8 0.599151 0.830224 0.870266
O O9 0.162034 0.512675 0.075509
O O10 0.101202 0.701933 0.023844
O O11 0.105168 0.461592 0.974398
O O12 0.200115 0.613785 0.976792
O O13 0.804745 0.686776 0.060179
O O14 0.750000 0.500000 0.615896
#
# Coordination Sequence:
#
# PCOD8281896 Si02
#       6
#    16  16  16  16  16  16
#     4  11  22  32  49  82 121 155 175 233 297 349
#     4  10  21  40  62  80 105 149 205 251 284 332
#     4  10  19  33  53  81 116 154 182 229 283 351
#     4  10  22  34  56  78 118 150 191 236 287 354
#     4  10  20  32  54  83 113 144 194 239 277 345
#     4  10  20  29  52  78 115 151 190 219 271 352
#
# _framework density 18.511291
#
# number of rings (size 3 to 8) (size 9 to 14) (size 15 to 20)
#    0.000    1.833    3.333    2.000    9.333    1.333 
#    0.000    3.333    0.000    0.000    0.000   24.500 
#    0.000    0.000    0.000    0.000    0.000    0.000 
#
# Total GULP energy -594633.408641 kJ/mol
# GULP energy per Si atom -12388.196013 kJ/mol
# Density = 1.846916 g / cm^3
# Si number density = 18.511291 Si / 1000 Ang^3
#
#
#
# Elastic Constant Matrix: (Units=GPa)
#
#
# Indices 1 2 3 4 5 6 
#
# 1 49.8623 24.6693 26.6594 0.0000 0.0000 0.0000
# 2 24.6693 125.4039 60.4932 0.0000 0.0000 0.0000
# 3 26.6594 60.4932 142.8304 0.0000 0.0000 0.0000
# 4 0.0000 0.0000 0.0000 28.5497 0.0000 0.0000
# 5 0.0000 0.0000 0.0000 0.0000 9.3379 0.0000
# 6 0.0000 0.0000 0.0000 0.0000 0.0000 21.2047
#
#
#
# Elastic Compliance Matrix: (Units=1/GPa)
#
#
# Indices 1 2 3 4 5 6 
#
# 1 0.023206 -0.003111 -0.003014 0.000000 0.000000 0.000000
# 2 -0.003111 0.010439 -0.003840 0.000000 0.000000 0.000000
# 3 -0.003014 -0.003840 0.009190 0.000000 0.000000 0.000000
# 4 0.000000 0.000000 0.000000 0.035027 0.000000 0.000000
# 5 0.000000 0.000000 0.000000 0.000000 0.107091 0.000000
# 6 0.000000 0.000000 0.000000 0.000000 0.000000 0.047159
#
#
# Mechanical properties :
#
#
# Convention : Reuss Voigt Hill
#
# Bulk Modulus (GPa) = 43.66001 60.19339 51.92670
# Shear Modulus (GPa) = 19.25466 25.57010 22.41238
#
# Velocity S-wave (km/s) = 3.22865 3.72065 3.48335
# Velocity P-wave (km/s) = 6.12664 7.14460 6.65511
#
# Compressibility (1/GPa) = 0.02290425
#
# Stress axis : x y z
#
# Youngs Moduli (GPa) = 43.09266 95.79581 108.80951
#
# Poissons Ratio (x) = 0.29805 0.32792
# Poissons Ratio (y) = 0.13407 0.41788
# Poissons Ratio (z) = 0.12987 0.36790
#
# Static dielectric constant tensor:
#      x y z
#    x 2.970330 0.000000 0.000000 
#    y 0.000000 3.800960 0.000000 
#    z 0.000000 0.000000 3.576270 
# 
# 
# High freq. dielectric constant tensor:
#      x y z
#    x 1.662400 0.000000 0.000000 
#    y 0.000000 1.727500 0.000000 
#    z 0.000000 0.000000 1.732240 
# 
# From -- ./inp_files/29824.got.cif
#   From: 2010.03.12/outbox.cif.g09.slc.cpg/sg68_15_cif.got.tgz:29824.got - 2010.04.10 23:14:56.
