data_PCOD8281746
_publ_section_title
;
Structure prediction by ZEFSAII (Michael W. Deem and Ramdas Pophale) SiO2 
 PCOD8281746
Probable space group: C C C A
;
_chemical_formula_sum "Si O2"
_cell_formula_units_Z 60
_cell_length_a 31.339530
_cell_length_b 5.308942
_cell_length_c 17.299744
_cell_angle_alpha 90.000000
_cell_angle_beta 90.000000
_cell_angle_gamma 90.000000
_cell_volume 2878.327031
_symmetry_space_group_name_H-M "C C C A"
_symmetry_group_IT_number 68
_space_group.IT_coordinate_system_code '2'
_symmetry_cell_setting 'orthorhombic'
loop_
_space_group_symop_operation_xyz
x,y,z
-x,1/2-y,z
x,1/2-y,1/2-z
-x,y,1/2-z
-x,-y,-z
x,1/2+y,-z
-x,1/2+y,1/2+z
x,-y,1/2+z
1/2+x,1/2+y,z
1/2-x,-y,z
1/2+x,-y,1/2-z
1/2-x,1/2+y,1/2-z
1/2-x,1/2-y,-z
1/2+x,y,-z
1/2-x,y,1/2+z
1/2+x,1/2-y,1/2+z
loop_
_atom_site_type_symbol
_atom_site_label
_atom_site_fract_x
_atom_site_fract_y
_atom_site_fract_z
Si Si1 0.975194 0.009791 0.397232
Si Si2 0.342786 0.498636 0.590632
Si Si3 0.750000 0.500000 0.949253
Si Si4 0.000000 0.250000 0.250000
Si Si5 0.378296 0.001873 0.081571
O O1 0.000000 0.750000 0.411359
O O2 0.971060 0.070608 0.305110
O O3 0.928656 0.989733 0.434197
O O4 0.000000 0.250000 0.436917
O O5 0.291978 0.497856 0.604495
O O6 0.353381 0.501399 0.499401
O O7 0.364325 0.249641 0.628393
O O8 0.363516 0.749215 0.628822
O O9 0.750000 0.750000 0.000000
#
# Coordination Sequence:
#
# PCOD8281746 Si02
#       5
#    16  16   8   4  16
#     4  10  20  35  52  68  91 125 158 206 242 288
#     4  10  19  30  45  71 103 136 156 192 219 280
#     4  12  16  30  46  66 100 142 164 182 228 258
#     4   8  22  36  54  68  86 120 158 208 262 282
#     4  10  18  31  46  68  98 128 162 196 226 273
#
# _framework density 20.845441000000001
#
# number of rings (size 3 to 8) (size 9 to 14) (size 15 to 20)
#    0.800    1.067    5.333    2.000    0.000    0.000 
#    0.000   16.000    0.000    0.000    0.000    0.000 
#    0.000    6.400    0.000    0.000    0.000    0.000 
#
# Total GULP energy -371669.120887 kJ/mol
# GULP energy per Si atom -12388.970696 kJ/mol
# Density = 2.079800 g / cm^3
# Si number density = 20.845441 Si / 1000 Ang^3
#
#
#
# Elastic Constant Matrix: (Units=GPa)
#
#
# Indices 1 2 3 4 5 6 
#
# 1 195.1085 79.7865 -2.1041 0.0000 0.0000 0.0000
# 2 79.7865 251.3327 -10.7041 0.0000 0.0000 0.0000
# 3 -2.1041 -10.7041 23.1537 0.0000 0.0000 0.0000
# 4 0.0000 0.0000 0.0000 -15.8296 0.0000 0.0000
# 5 0.0000 0.0000 0.0000 0.0000 4.4335 0.0000
# 6 0.0000 0.0000 0.0000 0.0000 0.0000 43.1447
#
#
#
# Elastic Compliance Matrix: (Units=1/GPa)
#
#
# Indices 1 2 3 4 5 6 
#
# 1 0.005893 -0.001885 -0.000336 0.000000 0.000000 0.000000
# 2 -0.001885 0.004662 0.001984 0.000000 0.000000 0.000000
# 3 -0.000336 0.001984 0.044076 0.000000 0.000000 0.000000
# 4 0.000000 0.000000 0.000000 -0.063173 0.000000 0.000000
# 5 0.000000 0.000000 0.000000 0.000000 0.225556 0.000000
# 6 0.000000 0.000000 0.000000 0.000000 0.000000 0.023178
#
#
# Mechanical properties :
#
#
# Convention : Reuss Voigt Hill
#
# Bulk Modulus (GPa) = 18.46507 67.06129 42.76318
# Shear Modulus (GPa) = 19.32611 33.19083 26.25847
#
# Velocity S-wave (km/s) = 3.04816 3.99461 3.55304
# Velocity P-wave (km/s) = 4.61147 7.31549 6.11482
#
# Compressibility (1/GPa) = 0.05415632
#
# Stress axis : x y z
#
# Youngs Moduli (GPa) = 169.70622 214.51624 22.68800
#
# Poissons Ratio (x) = 0.40434 0.00762
# Poissons Ratio (y) = 0.31988 -0.04501
# Poissons Ratio (z) = 0.05701 -0.42556
#
# Static dielectric constant tensor:
#      x y z
#    x 3.856450 0.000000 0.000000 
#    y 0.000000 6.277720 0.000000 
#    z 0.000000 0.000000 2.915540 
# 
# 
# High freq. dielectric constant tensor:
#      x y z
#    x 1.821940 0.000000 0.000000 
#    y 0.000000 1.861000 0.000000 
#    z 0.000000 0.000000 1.716880 
# 
# From -- ./inp_files/35182.got.cif
#   From: 2010.03.12/outbox.cif.g09.slc.cpg/sg68_18_cif.got.tgz:35182.got - 2010.04.10 23:14:56.
