data_PCOD8281859
_publ_section_title
;
Structure prediction by ZEFSAII (Michael W. Deem and Ramdas Pophale) SiO2 
 PCOD8281859
Probable space group: C C C A
;
_chemical_formula_sum "Si O2"
_cell_formula_units_Z 68
_cell_length_a 11.474678
_cell_length_b 11.858321
_cell_length_c 24.561355
_cell_angle_alpha 90.000000
_cell_angle_beta 90.000000
_cell_angle_gamma 90.000000
_cell_volume 3342.073770
_symmetry_space_group_name_H-M "C C C A"
_symmetry_group_IT_number 68
_space_group.IT_coordinate_system_code '2'
_symmetry_cell_setting 'orthorhombic'
loop_
_space_group_symop_operation_xyz
x,y,z
-x,1/2-y,z
x,1/2-y,1/2-z
-x,y,1/2-z
-x,-y,-z
x,1/2+y,-z
-x,1/2+y,1/2+z
x,-y,1/2+z
1/2+x,1/2+y,z
1/2-x,-y,z
1/2+x,-y,1/2-z
1/2-x,1/2+y,1/2-z
1/2-x,1/2-y,-z
1/2+x,y,-z
1/2-x,y,1/2+z
1/2+x,1/2-y,1/2+z
loop_
_atom_site_type_symbol
_atom_site_label
_atom_site_fract_x
_atom_site_fract_y
_atom_site_fract_z
Si Si1 0.128713 0.436347 0.321170
Si Si2 0.776740 0.158121 0.426767
Si Si3 0.500000 0.750000 0.250000
Si Si4 0.688323 0.607773 0.953472
Si Si5 0.027785 0.627604 0.378761
O O1 0.250000 0.500000 0.302510
O O2 0.136627 0.371828 0.378482
O O3 0.029156 0.533800 0.330304
O O4 0.085997 0.336546 0.281472
O O5 0.772966 0.291115 0.436322
O O6 0.823816 0.098996 0.481361
O O7 0.650207 0.113899 0.409417
O O8 0.750000 0.500000 0.928415
O O9 0.562315 0.612109 0.927278
O O10 0.000000 0.750000 0.351761
#
# Coordination Sequence:
#
# PCOD8281859 Si02
#       5
#    16  16   4  16  16
#     4  10  23  47  65  89 129 163 209 284 318 375
#     4   9  20  37  56  85 133 163 201 257 310 375
#     4  12  28  48  70 102 116 176 236 270 344 380
#     4  10  19  31  56  97 122 168 208 237 309 404
#     4   9  19  38  60  87 127 169 203 249 325 387
#
# _framework density 20.346647999999998
#
# number of rings (size 3 to 8) (size 9 to 14) (size 15 to 20)
#    0.000    2.353    0.000    2.118    3.294    3.765 
#   19.059    0.000    0.000    0.000    0.000    0.000 
#    0.000    0.000    0.000    0.000    0.000    0.000 
#
# Total GULP energy -421215.700629 kJ/mol
# GULP energy per Si atom -12388.697077 kJ/mol
# Density = 2.030034 g / cm^3
# Si number density = 20.346648 Si / 1000 Ang^3
#
#
#
# Elastic Constant Matrix: (Units=GPa)
#
#
# Indices 1 2 3 4 5 6 
#
# 1 55.9825 43.4585 32.2294 0.0000 0.0000 0.0000
# 2 43.4585 147.4037 74.0434 0.0000 0.0000 0.0000
# 3 32.2294 74.0434 79.1585 0.0000 0.0000 0.0000
# 4 0.0000 0.0000 0.0000 28.9974 0.0000 0.0000
# 5 0.0000 0.0000 0.0000 0.0000 6.4932 0.0000
# 6 0.0000 0.0000 0.0000 0.0000 0.0000 32.5015
#
#
#
# Elastic Compliance Matrix: (Units=1/GPa)
#
#
# Indices 1 2 3 4 5 6 
#
# 1 0.024635 -0.004196 -0.006105 0.000000 0.000000 0.000000
# 2 -0.004196 0.013512 -0.010930 0.000000 0.000000 0.000000
# 3 -0.006105 -0.010930 0.025342 0.000000 0.000000 0.000000
# 4 0.000000 0.000000 0.000000 0.034486 0.000000 0.000000
# 5 0.000000 0.000000 0.000000 0.000000 0.154007 0.000000
# 6 0.000000 0.000000 0.000000 0.000000 0.000000 0.030768
#
#
# Mechanical properties :
#
#
# Convention : Reuss Voigt Hill
#
# Bulk Modulus (GPa) = 47.55957 64.66745 56.11351
# Shear Modulus (GPa) = 15.05027 22.45267 18.75147
#
# Velocity S-wave (km/s) = 2.72268 3.32551 3.03908
# Velocity P-wave (km/s) = 5.77143 6.82622 6.32086
#
# Compressibility (1/GPa) = 0.02102626
#
# Stress axis : x y z
#
# Youngs Moduli (GPa) = 40.59272 74.01048 39.46006
#
# Poissons Ratio (x) = 0.31058 0.24090
# Poissons Ratio (y) = 0.17035 0.43129
# Poissons Ratio (z) = 0.24781 0.80893
#
# Static dielectric constant tensor:
#      x y z
#    x 3.599000 0.000000 0.000000 
#    y 0.000000 4.414310 0.000000 
#    z 0.000000 0.000000 3.536370 
# 
# 
# High freq. dielectric constant tensor:
#      x y z
#    x 1.779010 0.000000 0.000000 
#    y 0.000000 1.828400 0.000000 
#    z 0.000000 0.000000 1.766590 
# 
# From -- ./inp_files/38278.got.cif
#   From: 2010.03.12/outbox.cif.g09.slc.cpg/sg68_20_cif.got.tgz:38278.got - 2010.04.10 23:14:56.
