data_PCOD8281838
_publ_section_title
;
Structure prediction by ZEFSAII (Michael W. Deem and Ramdas Pophale) SiO2 
 PCOD8281838
Probable space group: C C C A
;
_chemical_formula_sum "Si O2"
_cell_formula_units_Z 96
_cell_length_a 30.850838
_cell_length_b 13.781010
_cell_length_c 10.576718
_cell_angle_alpha 90.000000
_cell_angle_beta 90.000000
_cell_angle_gamma 90.000000
_cell_volume 4496.752019
_symmetry_space_group_name_H-M "C C C A"
_symmetry_group_IT_number 68
_space_group.IT_coordinate_system_code '2'
_symmetry_cell_setting 'orthorhombic'
loop_
_space_group_symop_operation_xyz
x,y,z
-x,1/2-y,z
x,1/2-y,1/2-z
-x,y,1/2-z
-x,-y,-z
x,1/2+y,-z
-x,1/2+y,1/2+z
x,-y,1/2+z
1/2+x,1/2+y,z
1/2-x,-y,z
1/2+x,-y,1/2-z
1/2-x,1/2+y,1/2-z
1/2-x,1/2-y,-z
1/2+x,y,-z
1/2-x,y,1/2+z
1/2+x,1/2-y,1/2+z
loop_
_atom_site_type_symbol
_atom_site_label
_atom_site_fract_x
_atom_site_fract_y
_atom_site_fract_z
Si Si1 0.901785 0.984248 0.032524
Si Si2 0.919677 0.750000 0.750000
Si Si3 0.654145 0.149865 0.600548
Si Si4 0.048447 0.954464 0.717679
Si Si5 0.669357 0.839112 0.534827
Si Si6 0.215963 0.250000 0.750000
Si Si7 0.278193 0.593951 0.318853
O O1 0.880521 0.876430 0.032985
O O2 0.861637 0.059096 0.016418
O O3 0.922806 0.003473 0.168876
O O4 0.935355 0.998484 0.916599
O O5 0.889195 0.795999 0.644934
O O6 0.949856 0.662202 0.700943
O O7 0.677392 0.230217 0.516463
O O8 0.685396 0.113080 0.711938
O O9 0.000000 0.988171 0.750000
O O10 0.687045 0.830035 0.676628
O O11 0.697323 0.915843 0.452725
O O12 0.246861 0.185609 0.661873
O O13 0.250000 0.500000 0.285978
#
# Coordination Sequence:
#
# PCOD8281838 Si02
#       7
#    16   8  16  16  16   8  16
#     4  11  25  41  71 100 130 184 224 272 344 421
#     4  10  18  42  70  95 122 182 226 259 326 426
#     4  11  21  43  68  92 133 176 228 273 328 406
#     4  11  23  43  70 106 138 168 219 287 347 411
#     4  12  24  43  64  90 136 177 229 272 339 406
#     4  12  27  40  60  97 131 176 223 297 336 380
#     4  12  25  43  65  95 132 177 232 289 341 383
#
# _framework density 21.348742000000001
#
# number of rings (size 3 to 8) (size 9 to 14) (size 15 to 20)
#    0.000    0.667    5.000    3.250    4.667    0.667 
#    0.000    0.000    0.000    1.000    0.000    0.000 
#    0.000    0.000    0.000    0.000    0.000    0.000 
#
# Total GULP energy -594910.118961 kJ/mol
# GULP energy per Si atom -12393.960812 kJ/mol
# Density = 2.130015 g / cm^3
# Si number density = 21.348742 Si / 1000 Ang^3
#
#
#
# Elastic Constant Matrix: (Units=GPa)
#
#
# Indices 1 2 3 4 5 6 
#
# 1 113.4953 40.3295 49.0352 0.0000 0.0000 0.0000
# 2 40.3295 95.0358 35.6325 0.0000 0.0000 0.0000
# 3 49.0352 35.6325 112.0557 0.0000 0.0000 0.0000
# 4 0.0000 0.0000 0.0000 26.5480 0.0000 0.0000
# 5 0.0000 0.0000 0.0000 0.0000 28.9640 0.0000
# 6 0.0000 0.0000 0.0000 0.0000 0.0000 32.7933
#
#
#
# Elastic Compliance Matrix: (Units=1/GPa)
#
#
# Indices 1 2 3 4 5 6 
#
# 1 0.011803 -0.003488 -0.004056 0.000000 0.000000 0.000000
# 2 -0.003488 0.012977 -0.002600 0.000000 0.000000 0.000000
# 3 -0.004056 -0.002600 0.011526 0.000000 0.000000 0.000000
# 4 0.000000 0.000000 0.000000 0.037668 0.000000 0.000000
# 5 0.000000 0.000000 0.000000 0.000000 0.034526 0.000000
# 6 0.000000 0.000000 0.000000 0.000000 0.000000 0.030494
#
#
# Mechanical properties :
#
#
# Convention : Reuss Voigt Hill
#
# Bulk Modulus (GPa) = 62.43024 63.39792 62.91408
# Shear Modulus (GPa) = 30.37291 30.70036 30.53663
#
# Velocity S-wave (km/s) = 3.77596 3.79626 3.78613
# Velocity P-wave (km/s) = 6.95105 6.99831 6.97472
#
# Compressibility (1/GPa) = 0.01601788
#
# Stress axis : x y z
#
# Youngs Moduli (GPa) = 84.72732 77.05656 86.76217
#
# Poissons Ratio (x) = 0.26877 0.35188
# Poissons Ratio (y) = 0.29552 0.22562
# Poissons Ratio (z) = 0.34362 0.20038
#
# Static dielectric constant tensor:
#      x y z
#    x 3.878510 0.000000 0.000000 
#    y 0.000000 4.312570 0.000000 
#    z 0.000000 0.000000 3.700880 
# 
# 
# High freq. dielectric constant tensor:
#      x y z
#    x 1.836030 0.000000 0.000000 
#    y 0.000000 1.841620 0.000000 
#    z 0.000000 0.000000 1.828790 
# 
# From -- ./inp_files/17737.got.cif
#   From: 2010.03.12/outbox.cif.g09.slc.cpg/sg68_9_cif.got.tgz:17737.got - 2010.04.10 23:14:56.
