data_PCOD8281763
_publ_section_title
;
Structure prediction by ZEFSAII (Michael W. Deem and Ramdas Pophale) SiO2 
 PCOD8281763
Probable space group: C C C A
;
_chemical_formula_sum "Si O2"
_cell_formula_units_Z 88
_cell_length_a 12.234607
_cell_length_b 17.500562
_cell_length_c 22.232790
_cell_angle_alpha 90.000000
_cell_angle_beta 90.000000
_cell_angle_gamma 90.000000
_cell_volume 4760.318212
_symmetry_space_group_name_H-M "C C C A"
_symmetry_group_IT_number 68
_space_group.IT_coordinate_system_code '2'
_symmetry_cell_setting 'orthorhombic'
loop_
_space_group_symop_operation_xyz
x,y,z
-x,1/2-y,z
x,1/2-y,1/2-z
-x,y,1/2-z
-x,-y,-z
x,1/2+y,-z
-x,1/2+y,1/2+z
x,-y,1/2+z
1/2+x,1/2+y,z
1/2-x,-y,z
1/2+x,-y,1/2-z
1/2-x,1/2+y,1/2-z
1/2-x,1/2-y,-z
1/2+x,y,-z
1/2-x,y,1/2+z
1/2+x,1/2-y,1/2+z
loop_
_atom_site_type_symbol
_atom_site_label
_atom_site_fract_x
_atom_site_fract_y
_atom_site_fract_z
Si Si1 0.784567 0.135121 0.386531
Si Si2 0.997656 0.949696 0.915420
Si Si3 0.910789 0.568801 0.794231
Si Si4 0.346707 0.939641 0.517992
Si Si5 0.374665 0.731345 0.182304
Si Si6 0.750000 0.500000 0.705298
O O1 0.702888 0.131740 0.444134
O O2 0.791009 0.220332 0.359679
O O3 0.906912 0.115391 0.407747
O O4 0.740560 0.074450 0.336825
O O5 0.038484 0.977690 0.849898
O O6 0.099086 0.915372 0.954593
O O7 0.946134 0.024956 0.944156
O O8 0.847635 0.640801 0.824556
O O9 0.849472 0.508723 0.751830
O O10 0.000000 0.608233 0.750000
O O11 0.250000 0.000000 0.506829
O O12 0.500000 0.750000 0.165034
O O13 0.344949 0.750000 0.250000
#
# Coordination Sequence:
#
# PCOD8281763 Si02
#       6
#    16  16  16  16  16   8
#     4  11  18  34  53  76 108 138 177 217 267 312
#     4  10  18  32  51  73 108 136 176 216 266 305
#     4  12  20  32  52  82 110 131 172 220 270 316
#     4   9  19  33  50  74 104 144 180 217 257 315
#     4  11  17  30  52  77 105 138 167 212 266 317
#     4  12  20  30  50  82 110 128 174 224 264 318
#
# _framework density 18.486159000000001
#
# number of rings (size 3 to 8) (size 9 to 14) (size 15 to 20)
#    0.000    1.273   10.000    0.000    1.273    0.000 
#    0.000    0.909    0.000    0.000    0.000    7.636 
#    0.000    0.000    0.000    0.000    0.000    0.000 
#
# Total GULP energy -545131.170662 kJ/mol
# GULP energy per Si atom -12389.344788 kJ/mol
# Density = 1.844408 g / cm^3
# Si number density = 18.486159 Si / 1000 Ang^3
#
#
#
# Elastic Constant Matrix: (Units=GPa)
#
#
# Indices 1 2 3 4 5 6 
#
# 1 77.6911 28.4517 59.3599 0.0000 0.0000 0.0000
# 2 28.4517 63.9176 28.9756 0.0000 0.0000 0.0000
# 3 59.3599 28.9756 127.3697 0.0000 0.0000 0.0000
# 4 0.0000 0.0000 0.0000 13.2738 0.0000 0.0000
# 5 0.0000 0.0000 0.0000 0.0000 46.2428 0.0000
# 6 0.0000 0.0000 0.0000 0.0000 0.0000 15.1894
#
#
#
# Elastic Compliance Matrix: (Units=1/GPa)
#
#
# Indices 1 2 3 4 5 6 
#
# 1 0.021678 -0.005653 -0.008817 0.000000 0.000000 0.000000
# 2 -0.005653 0.018918 -0.001669 0.000000 0.000000 0.000000
# 3 -0.008817 -0.001669 0.012340 0.000000 0.000000 0.000000
# 4 0.000000 0.000000 0.000000 0.075336 0.000000 0.000000
# 5 0.000000 0.000000 0.000000 0.000000 0.021625 0.000000
# 6 0.000000 0.000000 0.000000 0.000000 0.000000 0.065835
#
#
# Mechanical properties :
#
#
# Convention : Reuss Voigt Hill
#
# Bulk Modulus (GPa) = 48.40674 55.83919 52.12296
# Shear Modulus (GPa) = 19.61577 25.08730 22.35154
#
# Velocity S-wave (km/s) = 3.26100 3.68786 3.48098
# Velocity P-wave (km/s) = 6.35775 6.95739 6.66432
#
# Compressibility (1/GPa) = 0.02065828
#
# Stress axis : x y z
#
# Youngs Moduli (GPa) = 46.12917 52.85956 81.03681
#
# Poissons Ratio (x) = 0.29880 0.71451
# Poissons Ratio (y) = 0.26075 0.13528
# Poissons Ratio (z) = 0.40673 0.08824
#
# Static dielectric constant tensor:
#      x y z
#    x 3.591050 0.000000 0.000000 
#    y 0.000000 3.211010 0.000000 
#    z 0.000000 0.000000 3.755820 
# 
# 
# High freq. dielectric constant tensor:
#      x y z
#    x 1.694230 0.000000 0.000000 
#    y 0.000000 1.675710 0.000000 
#    z 0.000000 0.000000 1.734960 
# 
# From -- ./inp_files/50176.got.cif
#   From: 2010.03.12/outbox.cif.g09.slc.cpg/sg68_26_cif.got.tgz:50176.got - 2010.04.10 23:14:56.
