data_PCOD8281146
_publ_section_title
;
Structure prediction by ZEFSAII (Michael W. Deem and Ramdas Pophale) SiO2 
 PCOD8281146
Probable space group: C M M A
;
_chemical_formula_sum "Si O2"
_cell_formula_units_Z 96
_cell_length_a 14.382083
_cell_length_b 17.944439
_cell_length_c 19.069629
_cell_angle_alpha 90.000000
_cell_angle_beta 90.000000
_cell_angle_gamma 90.000000
_cell_volume 4921.459552
_symmetry_space_group_name_H-M "C M M A"
_symmetry_group_IT_number 67
_symmetry_cell_setting 'orthorhombic'
loop_
_space_group_symop_operation_xyz
x,y,z
-x,1/2-y,z
x,-y,-z
-x,1/2+y,-z
-x,-y,-z
x,1/2+y,-z
-x,y,z
x,1/2-y,z
1/2+x,1/2+y,z
1/2-x,-y,z
1/2+x,1/2-y,-z
1/2-x,y,-z
1/2-x,1/2-y,-z
1/2+x,y,-z
1/2-x,1/2+y,z
1/2+x,-y,z
loop_
_atom_site_type_symbol
_atom_site_label
_atom_site_fract_x
_atom_site_fract_y
_atom_site_fract_z
Si Si1 0.896556 0.163204 0.099036
Si Si2 0.683658 0.338051 0.313982
Si Si3 0.292755 0.081058 0.574662
Si Si4 0.000000 0.662484 0.390641
Si Si5 0.109690 0.165290 0.939828
Si Si6 0.266908 0.086970 0.170362
Si Si7 0.500000 0.920345 0.467519
O O1 0.895960 0.250000 0.115635
O O2 0.832415 0.123226 0.155238
O O3 0.000000 0.130645 0.108104
O O4 0.861139 0.148863 0.019884
O O5 0.683472 0.250000 0.300135
O O6 0.766867 0.359461 0.366019
O O7 0.589890 0.368179 0.350384
O O8 0.691567 0.380797 0.241330
O O9 0.250000 0.106685 0.500000
O O10 0.405021 0.084485 0.577009
O O11 0.250000 0.000000 0.593213
O O12 0.000000 0.640768 0.471737
O O13 0.000000 0.750000 0.387983
O O14 0.139199 0.250000 0.919455
O O15 0.161277 0.105639 0.891631
O O16 0.000000 0.155795 0.930138
O O17 0.250000 0.000000 0.177227
O O18 0.500000 0.000000 0.500000
#
# Coordination Sequence:
#
# PCOD8281146 Si02
#       7
#    16  16  16   8  16  16   8
#     4   9  19  39  63  86 117 158 201 243 293 356
#     4  11  24  42  61  85 118 158 202 252 298 352
#     4  11  21  38  63  91 124 155 196 238 297 357
#     4  10  22  38  62  90 114 146 196 254 304 339
#     4   9  19  37  64  92 115 149 200 251 296 351
#     4  12  25  38  57  87 124 159 197 243 305 362
#     4  12  20  36  64  94 120 157 190 237 294 366
#
# _framework density 19.506409000000001
#
# number of rings (size 3 to 8) (size 9 to 14) (size 15 to 20)
#    0.000    1.500    3.333    3.500    1.167    4.333 
#    1.500    1.667    0.000    0.000    0.000    0.000 
#    0.000    0.000    0.000    0.000    0.000    0.000 
#
# Total GULP energy -595236.949760 kJ/mol
# GULP energy per Si atom -12400.769787 kJ/mol
# Density = 1.946201 g / cm^3
# Si number density = 19.506409 Si / 1000 Ang^3
#
#
#
# Elastic Constant Matrix: (Units=GPa)
#
#
# Indices 1 2 3 4 5 6 
#
# 1 132.5314 29.2474 35.9885 0.0000 0.0000 0.0000
# 2 29.2474 67.3615 30.9057 0.0000 0.0000 0.0000
# 3 35.9885 30.9057 61.6533 0.0000 0.0000 0.0000
# 4 0.0000 0.0000 0.0000 37.0045 0.0000 0.0000
# 5 0.0000 0.0000 0.0000 0.0000 19.2857 0.0000
# 6 0.0000 0.0000 0.0000 0.0000 0.0000 21.9567
#
#
#
# Elastic Compliance Matrix: (Units=1/GPa)
#
#
# Indices 1 2 3 4 5 6 
#
# 1 0.009166 -0.001980 -0.004358 0.000000 0.000000 0.000000
# 2 -0.001980 0.019707 -0.008723 0.000000 0.000000 0.000000
# 3 -0.004358 -0.008723 0.023136 0.000000 0.000000 0.000000
# 4 0.000000 0.000000 0.000000 0.027024 0.000000 0.000000
# 5 0.000000 0.000000 0.000000 0.000000 0.051852 0.000000
# 6 0.000000 0.000000 0.000000 0.000000 0.000000 0.045544
#
#
# Mechanical properties :
#
#
# Convention : Reuss Voigt Hill
#
# Bulk Modulus (GPa) = 45.68857 50.42550 48.05704
# Shear Modulus (GPa) = 23.38134 26.67637 25.02886
#
# Velocity S-wave (km/s) = 3.46591 3.70208 3.58594
# Velocity P-wave (km/s) = 6.28410 6.64686 6.46802
#
# Compressibility (1/GPa) = 0.02188731
#
# Stress axis : x y z
#
# Youngs Moduli (GPa) = 109.10262 50.74289 43.22285
#
# Poissons Ratio (x) = 0.10049 0.18834
# Poissons Ratio (y) = 0.21606 0.37703
# Poissons Ratio (z) = 0.47542 0.44262
#
# Static dielectric constant tensor:
#      x y z
#    x 3.882240 0.000000 0.000000 
#    y 0.000000 3.419940 0.000000 
#    z 0.000000 0.000000 3.428160 
# 
# 
# High freq. dielectric constant tensor:
#      x y z
#    x 1.777170 0.000000 0.000000 
#    y 0.000000 1.749900 0.000000 
#    z 0.000000 0.000000 1.751670 
# 
# From -- ./inp_files/38540.got.cif
#   From: 2010.03.12/outbox.cif.g09.slc.cpg/sg67_20_cif.got.tgz:38540.got - 2010.04.10 22:41:39.
