data_PCOD8281402
_publ_section_title
;
Structure prediction by ZEFSAII (Michael W. Deem and Ramdas Pophale) SiO2 
 PCOD8281402
Probable space group: C M M A
;
_chemical_formula_sum "Si O2"
_cell_formula_units_Z 80
_cell_length_a 18.464775
_cell_length_b 9.379637
_cell_length_c 25.933141
_cell_angle_alpha 90.000000
_cell_angle_beta 90.000000
_cell_angle_gamma 90.000000
_cell_volume 4491.435553
_symmetry_space_group_name_H-M "C M M A"
_symmetry_group_IT_number 67
_symmetry_cell_setting 'orthorhombic'
loop_
_space_group_symop_operation_xyz
x,y,z
-x,1/2-y,z
x,-y,-z
-x,1/2+y,-z
-x,-y,-z
x,1/2+y,-z
-x,y,z
x,1/2-y,z
1/2+x,1/2+y,z
1/2-x,-y,z
1/2+x,1/2-y,-z
1/2-x,y,-z
1/2-x,1/2-y,-z
1/2+x,y,-z
1/2-x,1/2+y,z
1/2+x,-y,z
loop_
_atom_site_type_symbol
_atom_site_label
_atom_site_fract_x
_atom_site_fract_y
_atom_site_fract_z
Si Si1 0.080398 0.919400 0.340753
Si Si2 0.586216 0.592027 0.546571
Si Si3 0.915039 0.915240 0.838788
Si Si4 0.414052 0.093133 0.954072
Si Si5 0.674415 0.920578 0.755554
O O1 0.075660 0.750000 0.342868
O O2 0.106966 0.973778 0.397248
O O3 0.136250 0.970062 0.297412
O O4 0.000000 0.980283 0.328025
O O5 0.619852 0.500000 0.500000
O O6 0.500000 0.597453 0.542568
O O7 0.618849 0.750000 0.540702
O O8 0.892801 0.750000 0.828881
O O9 0.893874 0.962486 0.897003
O O10 0.873895 0.025166 0.802526
O O11 0.000000 0.933880 0.829146
O O12 0.500000 0.097554 0.959265
O O13 0.381565 0.250000 0.961383
O O14 0.379372 0.000000 0.000000
O O15 0.683762 0.750000 0.759095
O O16 0.750000 0.000000 0.758053
#
# Coordination Sequence:
#
# PCOD8281402 Si02
#       5
#    16  16  16  16  16
#     4   8  15  29  49  71  94 122 157 196 237 284
#     4   8  13  23  41  66  94 119 145 183 231 280
#     4   9  18  33  52  75 103 131 160 199 244 286
#     4   8  14  25  43  69 100 129 155 188 232 280
#     4  11  22  35  51  70  95 129 168 206 247 294
#
# _framework density 17.811678000000001
#
# number of rings (size 3 to 8) (size 9 to 14) (size 15 to 20)
#    0.000    3.200    0.000    3.600    0.000    2.000 
#    0.000    4.000    0.000    6.000    0.000    8.400 
#    0.000    0.000    0.000    0.000    0.000    0.000 
#
# Total GULP energy -495659.472381 kJ/mol
# GULP energy per Si atom -12391.486810 kJ/mol
# Density = 1.777114 g / cm^3
# Si number density = 17.811678 Si / 1000 Ang^3
#
#
#
# Elastic Constant Matrix: (Units=GPa)
#
#
# Indices 1 2 3 4 5 6 
#
# 1 48.6067 34.4160 47.8198 0.0000 0.0000 0.0000
# 2 34.4160 76.4151 69.1289 0.0000 0.0000 0.0000
# 3 47.8198 69.1289 170.7691 0.0000 0.0000 0.0000
# 4 0.0000 0.0000 0.0000 32.5654 0.0000 0.0000
# 5 0.0000 0.0000 0.0000 0.0000 -1.4689 0.0000
# 6 0.0000 0.0000 0.0000 0.0000 0.0000 15.6294
#
#
#
# Elastic Compliance Matrix: (Units=1/GPa)
#
#
# Indices 1 2 3 4 5 6 
#
# 1 0.032750 -0.010183 -0.005049 0.000000 0.000000 0.000000
# 2 -0.010183 0.023814 -0.006789 0.000000 0.000000 0.000000
# 3 -0.005049 -0.006789 0.010018 0.000000 0.000000 0.000000
# 4 0.000000 0.000000 0.000000 0.030707 0.000000 0.000000
# 5 0.000000 0.000000 0.000000 0.000000 -0.680785 0.000000
# 6 0.000000 0.000000 0.000000 0.000000 0.000000 0.063982
#
#
# Mechanical properties :
#
#
# Convention : Reuss Voigt Hill
#
# Bulk Modulus (GPa) = 44.36263 66.50225 55.43244
# Shear Modulus (GPa) = -10.68469 18.97359 4.14445
#
# Velocity S-wave (km/s) = -2.45188 3.26733 1.52705
# Velocity P-wave (km/s) = 4.11642 7.18688 5.85646
#
# Compressibility (1/GPa) = 0.02254150
#
# Stress axis : x y z
#
# Youngs Moduli (GPa) = 30.53407 41.99233 99.82250
#
# Poissons Ratio (x) = 0.42760 0.50399
# Poissons Ratio (y) = 0.31092 0.67766
# Poissons Ratio (z) = 0.15416 0.28507
#
# Static dielectric constant tensor:
#      x y z
#    x 2.899080 0.000000 0.000000 
#    y 0.000000 3.320530 0.000000 
#    z 0.000000 0.000000 3.734540 
# 
# 
# High freq. dielectric constant tensor:
#      x y z
#    x 1.639680 0.000000 0.000000 
#    y 0.000000 1.670330 0.000000 
#    z 0.000000 0.000000 1.710120 
# 
# From -- ./inp_files/41785.got.cif
#   From: 2010.03.12/outbox.cif.g09.slc.cpg/sg67_21_cif.got.tgz:41785.got - 2010.04.10 22:41:39.
