data_PCOD8281862
_publ_section_title
;
Structure prediction by ZEFSAII (Michael W. Deem and Ramdas Pophale) SiO2 
 PCOD8281862
Probable space group: C C C A
;
_chemical_formula_sum "Si O2"
_cell_formula_units_Z 96
_cell_length_a 23.833009
_cell_length_b 8.616904
_cell_length_c 24.888192
_cell_angle_alpha 90.000000
_cell_angle_beta 90.000000
_cell_angle_gamma 90.000000
_cell_volume 5111.207119
_symmetry_space_group_name_H-M "C C C A"
_symmetry_group_IT_number 68
_space_group.IT_coordinate_system_code '2'
_symmetry_cell_setting 'orthorhombic'
loop_
_space_group_symop_operation_xyz
x,y,z
-x,1/2-y,z
x,1/2-y,1/2-z
-x,y,1/2-z
-x,-y,-z
x,1/2+y,-z
-x,1/2+y,1/2+z
x,-y,1/2+z
1/2+x,1/2+y,z
1/2-x,-y,z
1/2+x,-y,1/2-z
1/2-x,1/2+y,1/2-z
1/2-x,1/2-y,-z
1/2+x,y,-z
1/2-x,y,1/2+z
1/2+x,1/2-y,1/2+z
loop_
_atom_site_type_symbol
_atom_site_label
_atom_site_fract_x
_atom_site_fract_y
_atom_site_fract_z
Si Si1 0.638479 0.605013 0.953608
Si Si2 0.959906 0.388305 0.032413
Si Si3 0.054466 0.052344 0.636917
Si Si4 0.927454 0.414687 0.853044
Si Si5 0.566588 0.074198 0.753322
Si Si6 0.289857 0.375694 0.473751
O O1 0.614835 0.525640 0.899210
O O2 0.676781 0.473886 0.980955
O O3 0.588816 0.666437 0.992298
O O4 0.669530 0.768267 0.937472
O O5 0.926583 0.471350 0.081582
O O6 0.000000 0.250000 0.052959
O O7 0.000000 0.500000 0.000000
O O8 0.067651 0.232068 0.639378
O O9 0.988390 0.011603 0.638444
O O10 0.086773 0.982456 0.688261
O O11 0.905714 0.469751 0.794199
O O12 0.587086 0.250000 0.750000
O O13 0.500000 0.055389 0.750000
O O14 0.250000 0.500000 0.441521
O O15 0.250000 0.250000 0.500000
#
# Coordination Sequence:
#
# PCOD8281862 Si02
#       6
#    16  16  16  16  16  16
#     4  11  20  33  54  78 108 148 183 225 281 340
#     4  12  23  32  48  77 118 153 187 223 268 334
#     4  10  20  32  46  68 109 154 187 222 253 308
#     4  10  19  32  49  71 105 144 192 221 265 317
#     4   9  19  31  48  67  97 147 198 226 254 294
#     4   9  20  37  54  74 104 139 184 239 293 341
#
# _framework density 18.782256
#
# number of rings (size 3 to 8) (size 9 to 14) (size 15 to 20)
#    0.000    1.833    1.667    3.500    4.667    2.000 
#    0.000    0.000    0.000    0.000    0.000    0.000 
#    0.000  121.333    0.000    0.333    0.000    0.000 
#
# Total GULP energy -594686.927531 kJ/mol
# GULP energy per Si atom -12389.310990 kJ/mol
# Density = 1.873951 g / cm^3
# Si number density = 18.782256 Si / 1000 Ang^3
#
#
#
# Elastic Constant Matrix: (Units=GPa)
#
#
# Indices 1 2 3 4 5 6 
#
# 1 56.4422 24.5925 22.6781 0.0000 0.0000 0.0000
# 2 24.5925 92.9946 39.4184 0.0000 0.0000 0.0000
# 3 22.6781 39.4184 136.3502 0.0000 0.0000 0.0000
# 4 0.0000 0.0000 0.0000 30.2628 0.0000 0.0000
# 5 0.0000 0.0000 0.0000 0.0000 11.3207 0.0000
# 6 0.0000 0.0000 0.0000 0.0000 0.0000 28.9811
#
#
#
# Elastic Compliance Matrix: (Units=1/GPa)
#
#
# Indices 1 2 3 4 5 6 
#
# 1 0.020541 -0.004540 -0.002104 0.000000 0.000000 0.000000
# 2 -0.004540 0.013259 -0.003078 0.000000 0.000000 0.000000
# 3 -0.002104 -0.003078 0.008574 0.000000 0.000000 0.000000
# 4 0.000000 0.000000 0.000000 0.033044 0.000000 0.000000
# 5 0.000000 0.000000 0.000000 0.000000 0.088333 0.000000
# 6 0.000000 0.000000 0.000000 0.000000 0.000000 0.034505
#
#
# Mechanical properties :
#
#
# Convention : Reuss Voigt Hill
#
# Bulk Modulus (GPa) = 43.61238 51.01833 47.31536
# Shear Modulus (GPa) = 22.18841 27.38612 24.78727
#
# Velocity S-wave (km/s) = 3.44081 3.82263 3.63673
# Velocity P-wave (km/s) = 6.24947 6.83413 6.54833
#
# Compressibility (1/GPa) = 0.02292927
#
# Stress axis : x y z
#
# Youngs Moduli (GPa) = 48.68365 75.42251 116.63468
#
# Poissons Ratio (x) = 0.34244 0.24538
# Poissons Ratio (y) = 0.22104 0.35899
# Poissons Ratio (z) = 0.10242 0.23214
#
# Static dielectric constant tensor:
#      x y z
#    x 4.718060 0.000000 0.000000 
#    y 0.000000 1.122980 0.000000 
#    z 0.000000 0.000000 3.646740 
# 
# 
# High freq. dielectric constant tensor:
#      x y z
#    x 1.685230 0.000000 0.000000 
#    y 0.000000 1.748310 0.000000 
#    z 0.000000 0.000000 1.714350 
# 
# From -- ./inp_files/43415.got.cif
#   From: 2010.03.12/outbox.cif.g09.slc.cpg/sg68_22_cif.got.tgz:43415.got - 2010.04.10 23:14:56.
