data_PCOD8281123
_publ_section_title
;
Structure prediction by ZEFSAII (Michael W. Deem and Ramdas Pophale) SiO2 
 PCOD8281123
Probable space group: C M M A
;
_chemical_formula_sum "Si O2"
_cell_formula_units_Z 76
_cell_length_a 13.736158
_cell_length_b 26.070935
_cell_length_c 11.739828
_cell_angle_alpha 90.000000
_cell_angle_beta 90.000000
_cell_angle_gamma 90.000000
_cell_volume 4204.202427
_symmetry_space_group_name_H-M "C M M A"
_symmetry_group_IT_number 67
_symmetry_cell_setting 'orthorhombic'
loop_
_space_group_symop_operation_xyz
x,y,z
-x,1/2-y,z
x,-y,-z
-x,1/2+y,-z
-x,-y,-z
x,1/2+y,-z
-x,y,z
x,1/2-y,z
1/2+x,1/2+y,z
1/2-x,-y,z
1/2+x,1/2-y,-z
1/2-x,y,-z
1/2-x,1/2-y,-z
1/2+x,y,-z
1/2-x,1/2+y,z
1/2+x,-y,z
loop_
_atom_site_type_symbol
_atom_site_label
_atom_site_fract_x
_atom_site_fract_y
_atom_site_fract_z
Si Si1 0.173283 0.750000 0.198165
Si Si2 0.000000 0.250000 0.980134
Si Si3 0.500000 0.350373 0.864757
Si Si4 0.500000 0.443152 0.046414
Si Si5 0.250000 0.334319 0.500000
Si Si6 0.210139 0.553007 0.126101
Si Si7 0.705203 0.851223 0.250613
Si Si8 0.605790 0.250000 0.441083
O O1 0.101656 0.750000 0.090025
O O2 0.242842 0.700227 0.204046
O O3 0.101836 0.750000 0.305089
O O4 0.000000 0.300969 0.054726
O O5 0.408346 0.348352 0.779928
O O6 0.500000 0.401181 0.944582
O O7 0.406034 0.439233 0.127168
O O8 0.500000 0.500000 0.000000
O O9 0.272902 0.364513 0.616313
O O10 0.345129 0.300389 0.488028
O O11 0.250000 0.500000 0.182585
O O12 0.251519 0.600256 0.191287
O O13 0.250000 0.554934 0.000000
O O14 0.500000 0.250000 0.494316
#
# Coordination Sequence:
#
# PCOD8281123 Si02
#       8
#     8   4   8   8   8  16  16   8
#     4  10  22  37  55  79 125 150 191 227 292 354
#     4  12  24  34  52  90 122 162 178 232 302 358
#     4  12  24  34  56  85 119 151 193 231 299 352
#     4  12  20  36  61  89 111 155 198 231 288 351
#     4   9  22  38  57  80 110 150 203 245 288 332
#     4  11  21  38  61  86 121 152 192 241 290 351
#     4  11  23  41  56  86 116 158 194 245 289 348
#     4   9  17  36  58  78 103 152 201 240 273 341
#
# _framework density 18.07715
#
# number of rings (size 3 to 8) (size 9 to 14) (size 15 to 20)
#    0.000    1.263    4.737    2.526    1.474    0.842 
#    1.895    0.526    0.000    0.000    0.000    4.421 
#    0.000    0.000    0.000    0.000    0.000    0.000 
#
# Total GULP energy -470891.674609 kJ/mol
# GULP energy per Si atom -12391.886174 kJ/mol
# Density = 1.803601 g / cm^3
# Si number density = 18.077150 Si / 1000 Ang^3
#
#
#
# Elastic Constant Matrix: (Units=GPa)
#
#
# Indices 1 2 3 4 5 6 
#
# 1 158.4092 38.2781 22.3149 0.0000 0.0000 0.0000
# 2 38.2781 135.7890 37.1826 0.0000 0.0000 0.0000
# 3 22.3149 37.1826 30.6151 0.0000 0.0000 0.0000
# 4 0.0000 0.0000 0.0000 35.1527 0.0000 0.0000
# 5 0.0000 0.0000 0.0000 0.0000 17.8876 0.0000
# 6 0.0000 0.0000 0.0000 0.0000 0.0000 21.6168
#
#
#
# Elastic Compliance Matrix: (Units=1/GPa)
#
#
# Indices 1 2 3 4 5 6 
#
# 1 0.007104 -0.000876 -0.004114 0.000000 0.000000 0.000000
# 2 -0.000876 0.011142 -0.012894 0.000000 0.000000 0.000000
# 3 -0.004114 -0.012894 0.051322 0.000000 0.000000 0.000000
# 4 0.000000 0.000000 0.000000 0.028447 0.000000 0.000000
# 5 0.000000 0.000000 0.000000 0.000000 0.055905 0.000000
# 6 0.000000 0.000000 0.000000 0.000000 0.000000 0.046260
#
#
# Mechanical properties :
#
#
# Convention : Reuss Voigt Hill
#
# Bulk Modulus (GPa) = 29.58541 57.81829 43.70185
# Shear Modulus (GPa) = 20.22539 30.06725 25.14632
#
# Velocity S-wave (km/s) = 3.34853 4.08275 3.73373
# Velocity P-wave (km/s) = 5.59928 7.36741 6.54334
#
# Compressibility (1/GPa) = 0.03380044
#
# Stress axis : x y z
#
# Youngs Moduli (GPa) = 140.76586 89.75135 19.48492
#
# Poissons Ratio (x) = 0.07863 0.08016
# Poissons Ratio (y) = 0.12332 0.25123
# Poissons Ratio (z) = 0.57912 1.15721
#
# Static dielectric constant tensor:
#      x y z
#    x -112.537590 0.000000 0.000000 
#    y 0.000000 3.425870 0.000000 
#    z 0.000000 0.000000 3.289020 
# 
# 
# High freq. dielectric constant tensor:
#      x y z
#    x 1.723900 0.000000 0.000000 
#    y 0.000000 1.702130 0.000000 
#    z 0.000000 0.000000 1.685100 
# 
# From -- ./inp_files/18071.got.cif
#   From: 2010.03.12/outbox.cif.g09.slc.cpg/sg67_10_cif.got.tgz:18071.got - 2010.04.10 22:41:39.
