data_PCOD8281963
_publ_section_title
;
Structure prediction by ZEFSAII (Michael W. Deem and Ramdas Pophale) SiO2 
 PCOD8281963
Probable space group: C C C A
;
_chemical_formula_sum "Si O2"
_cell_formula_units_Z 80
_cell_length_a 16.964544
_cell_length_b 14.928961
_cell_length_c 18.074032
_cell_angle_alpha 90.000000
_cell_angle_beta 90.000000
_cell_angle_gamma 90.000000
_cell_volume 4577.483851
_symmetry_space_group_name_H-M "C C C A"
_symmetry_group_IT_number 68
_space_group.IT_coordinate_system_code '2'
_symmetry_cell_setting 'orthorhombic'
loop_
_space_group_symop_operation_xyz
x,y,z
-x,1/2-y,z
x,1/2-y,1/2-z
-x,y,1/2-z
-x,-y,-z
x,1/2+y,-z
-x,1/2+y,1/2+z
x,-y,1/2+z
1/2+x,1/2+y,z
1/2-x,-y,z
1/2+x,-y,1/2-z
1/2-x,1/2+y,1/2-z
1/2-x,1/2-y,-z
1/2+x,y,-z
1/2-x,y,1/2+z
1/2+x,1/2-y,1/2+z
loop_
_atom_site_type_symbol
_atom_site_label
_atom_site_fract_x
_atom_site_fract_y
_atom_site_fract_z
Si Si1 0.909673 0.227165 0.433215
Si Si2 0.237785 0.251700 0.162911
Si Si3 0.176514 0.145346 0.542640
Si Si4 0.913680 0.031174 0.483136
Si Si5 0.709040 0.087575 0.085500
O O1 0.851399 0.260366 0.368221
O O2 0.881556 0.276905 0.509544
O O3 0.907272 0.119343 0.433192
O O4 0.000000 0.250000 0.414954
O O5 0.232575 0.250000 0.250000
O O6 0.286079 0.172319 0.121898
O O7 0.289792 0.340309 0.149702
O O8 0.248989 0.130867 0.486805
O O9 0.132222 0.051267 0.555140
O O10 0.878336 0.057407 0.563063
O O11 0.000000 0.000000 0.500000
O O12 0.750000 0.000000 0.117319
#
# Coordination Sequence:
#
# PCOD8281963 Si02
#       5
#    16  16  16  16  16
#     4  11  20  36  59  84 116 148 194 243 283 331
#     4  11  22  38  57  81 118 157 187 227 286 350
#     4  10  19  35  60  83 108 148 192 243 277 326
#     4  11  19  31  61  90 108 139 189 247 290 320
#     4   9  18  35  56  83 109 138 194 241 273 327
#
# _framework density 17.476852000000001
#
# number of rings (size 3 to 8) (size 9 to 14) (size 15 to 20)
#    0.000    1.600    6.000    1.200    0.000    0.400 
#    3.600    0.000    0.000    5.400    0.000    0.000 
#    0.000    0.000    0.000    0.000    0.000    0.000 
#
# Total GULP energy -495645.974956 kJ/mol
# GULP energy per Si atom -12391.149374 kJ/mol
# Density = 1.743707 g / cm^3
# Si number density = 17.476852 Si / 1000 Ang^3
#
#
#
# Elastic Constant Matrix: (Units=GPa)
#
#
# Indices 1 2 3 4 5 6 
#
# 1 126.4578 40.6905 39.3824 0.0000 0.0000 0.0000
# 2 40.6905 124.5433 35.1857 0.0000 0.0000 0.0000
# 3 39.3824 35.1857 94.8048 0.0000 0.0000 0.0000
# 4 0.0000 0.0000 0.0000 14.8191 0.0000 0.0000
# 5 0.0000 0.0000 0.0000 0.0000 15.1415 0.0000
# 6 0.0000 0.0000 0.0000 0.0000 0.0000 25.9170
#
#
#
# Elastic Compliance Matrix: (Units=1/GPa)
#
#
# Indices 1 2 3 4 5 6 
#
# 1 0.009615 -0.002249 -0.003160 0.000000 0.000000 0.000000
# 2 -0.002249 0.009496 -0.002590 0.000000 0.000000 0.000000
# 3 -0.003160 -0.002590 0.012822 0.000000 0.000000 0.000000
# 4 0.000000 0.000000 0.000000 0.067480 0.000000 0.000000
# 5 0.000000 0.000000 0.000000 0.000000 0.066044 0.000000
# 6 0.000000 0.000000 0.000000 0.000000 0.000000 0.038585
#
#
# Mechanical properties :
#
#
# Convention : Reuss Voigt Hill
#
# Bulk Modulus (GPa) = 62.75158 64.03588 63.39373
# Shear Modulus (GPa) = 22.18763 26.54535 24.36649
#
# Velocity S-wave (km/s) = 3.56693 3.90152 3.73797
# Velocity P-wave (km/s) = 7.27650 7.55088 7.41496
#
# Compressibility (1/GPa) = 0.01593585
#
# Stress axis : x y z
#
# Youngs Moduli (GPa) = 103.99982 105.30949 77.99214
#
# Poissons Ratio (x) = 0.23683 0.24643
# Poissons Ratio (y) = 0.23388 0.20201
# Poissons Ratio (z) = 0.32860 0.27276
#
# Static dielectric constant tensor:
#      x y z
#    x 3.461550 0.000000 0.000000 
#    y 0.000000 3.918540 0.000000 
#    z 0.000000 0.000000 2.751370 
# 
# 
# High freq. dielectric constant tensor:
#      x y z
#    x 1.683440 0.000000 0.000000 
#    y 0.000000 1.704080 0.000000 
#    z 0.000000 0.000000 1.614070 
# 
# From -- ./inp_files/30801.got.cif
#   From: 2010.03.12/outbox.cif.g09.slc.cpg/sg68_16_cif.got.tgz:30801.got - 2010.04.10 23:14:56.
