data_PCOD8281267
_publ_section_title
;
Structure prediction by ZEFSAII (Michael W. Deem and Ramdas Pophale) SiO2 
 PCOD8281267
Probable space group: C M M A
;
_chemical_formula_sum "Si O2"
_cell_formula_units_Z 96
_cell_length_a 17.465793
_cell_length_b 19.513775
_cell_length_c 14.810725
_cell_angle_alpha 90.000000
_cell_angle_beta 90.000000
_cell_angle_gamma 90.000000
_cell_volume 5047.843944
_symmetry_space_group_name_H-M "C M M A"
_symmetry_group_IT_number 67
_symmetry_cell_setting 'orthorhombic'
loop_
_space_group_symop_operation_xyz
x,y,z
-x,1/2-y,z
x,-y,-z
-x,1/2+y,-z
-x,-y,-z
x,1/2+y,-z
-x,y,z
x,1/2-y,z
1/2+x,1/2+y,z
1/2-x,-y,z
1/2+x,1/2-y,-z
1/2-x,y,-z
1/2-x,1/2-y,-z
1/2+x,y,-z
1/2-x,1/2+y,z
1/2+x,-y,z
loop_
_atom_site_type_symbol
_atom_site_label
_atom_site_fract_x
_atom_site_fract_y
_atom_site_fract_z
Si Si1 0.311880 0.329805 0.289706
Si Si2 0.164295 0.594020 0.463047
Si Si3 0.089261 0.537297 0.618996
Si Si4 0.306990 0.935014 0.224196
Si Si5 0.588342 0.328218 0.118853
Si Si6 0.163287 0.076482 0.023872
O O1 0.291721 0.250000 0.284539
O O2 0.347010 0.345632 0.389063
O O3 0.235433 0.373645 0.275681
O O4 0.369380 0.352283 0.209950
O O5 0.250000 0.593018 0.500000
O O6 0.106543 0.600597 0.549294
O O7 0.144267 0.523813 0.412535
O O8 0.115916 0.550970 0.720214
O O9 0.000000 0.517990 0.617140
O O10 0.342608 0.910150 0.130126
O O11 0.250000 0.000000 0.211152
O O12 0.500000 0.338542 0.139837
O O13 0.608832 0.250000 0.095902
O O14 0.610425 0.372000 0.031579
O O15 0.250000 0.091266 0.000000
O O16 0.136983 0.000000 0.000000
#
# Coordination Sequence:
#
# PCOD8281267 Si02
#       6
#    16  16  16  16  16  16
#     4  11  23  38  63  91 117 157 202 247 302 353
#     4  11  20  38  62  85 118 152 197 248 294 350
#     4  11  23  37  60  92 120 155 199 243 299 360
#     4  12  20  40  63  87 123 158 202 249 292 351
#     4  10  23  42  61  87 123 160 200 246 297 356
#     4  11  21  36  61  92 120 154 198 249 296 349
#
# _framework density 19.018021000000001
#
# number of rings (size 3 to 8) (size 9 to 14) (size 15 to 20)
#    0.000    1.000    6.667    2.000    0.000    3.667 
#    0.000    0.000    0.000    1.500    0.000    0.000 
#    0.000    0.000    0.000    0.000    0.000    0.000 
#
# Total GULP energy -595020.810297 kJ/mol
# GULP energy per Si atom -12396.266881 kJ/mol
# Density = 1.897474 g / cm^3
# Si number density = 19.018021 Si / 1000 Ang^3
#
#
#
# Elastic Constant Matrix: (Units=GPa)
#
#
# Indices 1 2 3 4 5 6 
#
# 1 70.5145 23.8801 38.0298 0.0000 0.0000 0.0000
# 2 23.8801 62.3875 26.5292 0.0000 0.0000 0.0000
# 3 38.0298 26.5292 144.4628 0.0000 0.0000 0.0000
# 4 0.0000 0.0000 0.0000 29.3380 0.0000 0.0000
# 5 0.0000 0.0000 0.0000 0.0000 23.6813 0.0000
# 6 0.0000 0.0000 0.0000 0.0000 0.0000 29.8059
#
#
#
# Elastic Compliance Matrix: (Units=1/GPa)
#
#
# Indices 1 2 3 4 5 6 
#
# 1 0.018005 -0.005289 -0.003769 0.000000 0.000000 0.000000
# 2 -0.005289 0.018940 -0.002086 0.000000 0.000000 0.000000
# 3 -0.003769 -0.002086 0.008297 0.000000 0.000000 0.000000
# 4 0.000000 0.000000 0.000000 0.034085 0.000000 0.000000
# 5 0.000000 0.000000 0.000000 0.000000 0.042227 0.000000
# 6 0.000000 0.000000 0.000000 0.000000 0.000000 0.033550
#
#
# Mechanical properties :
#
#
# Convention : Reuss Voigt Hill
#
# Bulk Modulus (GPa) = 43.56251 50.47147 47.01699
# Shear Modulus (GPa) = 27.02038 29.16008 28.09023
#
# Velocity S-wave (km/s) = 3.77341 3.91997 3.84739
# Velocity P-wave (km/s) = 6.47615 6.86182 6.67177
#
# Compressibility (1/GPa) = 0.02295552
#
# Stress axis : x y z
#
# Youngs Moduli (GPa) = 55.53952 52.79716 120.52115
#
# Poissons Ratio (x) = 0.27926 0.45419
# Poissons Ratio (y) = 0.29377 0.25138
# Poissons Ratio (z) = 0.20930 0.11012
#
# Static dielectric constant tensor:
#      x y z
#    x 3.279080 0.000000 0.000000 
#    y 0.000000 3.427410 0.000000 
#    z 0.000000 0.000000 3.611770 
# 
# 
# High freq. dielectric constant tensor:
#      x y z
#    x 1.724660 0.000000 0.000000 
#    y 0.000000 1.715510 0.000000 
#    z 0.000000 0.000000 1.765840 
# 
# From -- ./inp_files/27207.got.cif
#   From: 2010.03.12/outbox.cif.g09.slc.cpg/sg67_14_cif.got.tgz:27207.got - 2010.04.10 22:41:39.
