data_PCOD8281441
_publ_section_title
;
Structure prediction by ZEFSAII (Michael W. Deem and Ramdas Pophale) SiO2 
 PCOD8281441
Probable space group: C M M A
;
_chemical_formula_sum "Si O2"
_cell_formula_units_Z 72
_cell_length_a 18.192434
_cell_length_b 22.791394
_cell_length_c 8.912410
_cell_angle_alpha 90.000000
_cell_angle_beta 90.000000
_cell_angle_gamma 90.000000
_cell_volume 3695.360857
_symmetry_space_group_name_H-M "C M M A"
_symmetry_group_IT_number 67
_symmetry_cell_setting 'orthorhombic'
loop_
_space_group_symop_operation_xyz
x,y,z
-x,1/2-y,z
x,-y,-z
-x,1/2+y,-z
-x,-y,-z
x,1/2+y,-z
-x,y,z
x,1/2-y,z
1/2+x,1/2+y,z
1/2-x,-y,z
1/2+x,1/2-y,-z
1/2-x,y,-z
1/2-x,1/2-y,-z
1/2+x,y,-z
1/2-x,1/2+y,z
1/2+x,-y,z
loop_
_atom_site_type_symbol
_atom_site_label
_atom_site_fract_x
_atom_site_fract_y
_atom_site_fract_z
Si Si1 0.500000 0.409325 0.806049
Si Si2 0.276032 0.921814 0.668777
Si Si3 0.500000 0.682632 0.930267
Si Si4 0.500000 0.184415 0.549808
Si Si5 0.122893 0.315542 0.692843
Si Si6 0.851082 0.021560 0.169189
O O1 0.500000 0.369437 0.660939
O O2 0.431255 0.452354 0.810058
O O3 0.500000 0.364413 0.940977
O O4 0.250000 0.934736 0.500000
O O5 0.306178 0.856399 0.684466
O O6 0.208918 0.929041 0.786344
O O7 0.340355 0.967492 0.714838
O O8 0.500000 0.750000 0.988493
O O9 0.426718 0.670105 0.836391
O O10 0.500000 0.250000 0.623655
O O11 0.573416 0.177234 0.453776
O O12 0.154378 0.250000 0.703868
O O13 0.838066 0.000000 0.000000
#
# Coordination Sequence:
#
# PCOD8281441 Si02
#       6
#     8  16   8   8  16  16
#     4  12  22  37  60  84 108 148 196 225 269 338
#     4  11  22  39  58  82 114 147 184 231 280 326
#     4   9  19  36  59  85 115 146 182 232 276 321
#     4   9  19  35  57  87 119 144 176 233 282 317
#     4   9  19  38  61  84 112 148 185 223 277 336
#     4  11  24  39  56  80 114 150 185 232 281 323
#
# _framework density 19.483889000000001
#
# number of rings (size 3 to 8) (size 9 to 14) (size 15 to 20)
#    0.000    1.778    0.000    7.333    0.000    2.222 
#    0.000    5.556    0.000    5.333    0.000    0.000 
#    0.000    0.000    0.000    0.000    0.000    0.000 
#
# Total GULP energy -446330.583282 kJ/mol
# GULP energy per Si atom -12398.071758 kJ/mol
# Density = 1.943954 g / cm^3
# Si number density = 19.483889 Si / 1000 Ang^3
#
#
#
# Elastic Constant Matrix: (Units=GPa)
#
#
# Indices 1 2 3 4 5 6 
#
# 1 127.1771 70.5248 49.3463 0.0000 0.0000 0.0000
# 2 70.5248 92.5298 43.5445 0.0000 0.0000 0.0000
# 3 49.3463 43.5445 101.3130 0.0000 0.0000 0.0000
# 4 0.0000 0.0000 0.0000 35.2212 0.0000 0.0000
# 5 0.0000 0.0000 0.0000 0.0000 25.0157 0.0000
# 6 0.0000 0.0000 0.0000 0.0000 0.0000 52.3038
#
#
#
# Elastic Compliance Matrix: (Units=1/GPa)
#
#
# Indices 1 2 3 4 5 6 
#
# 1 0.014246 -0.009518 -0.002848 0.000000 0.000000 0.000000
# 2 -0.009518 0.019906 -0.003920 0.000000 0.000000 0.000000
# 3 -0.002848 -0.003920 0.012942 0.000000 0.000000 0.000000
# 4 0.000000 0.000000 0.000000 0.028392 0.000000 0.000000
# 5 0.000000 0.000000 0.000000 0.000000 0.039975 0.000000
# 6 0.000000 0.000000 0.000000 0.000000 0.000000 0.019119
#
#
# Mechanical properties :
#
#
# Convention : Reuss Voigt Hill
#
# Bulk Modulus (GPa) = 68.85533 71.98344 70.41938
# Shear Modulus (GPa) = 29.07079 33.01510 31.04294
#
# Velocity S-wave (km/s) = 3.86689 4.12087 3.99590
# Velocity P-wave (km/s) = 7.43999 7.72447 7.58356
#
# Compressibility (1/GPa) = 0.01452320
#
# Stress axis : x y z
#
# Youngs Moduli (GPa) = 70.19411 50.23487 77.26547
#
# Poissons Ratio (x) = 0.47813 0.22005
# Poissons Ratio (y) = 0.66810 0.30288
# Poissons Ratio (z) = 0.19992 0.19692
#
# Static dielectric constant tensor:
#      x y z
#    x 3.479940 0.000000 0.000000 
#    y 0.000000 3.621140 0.000000 
#    z 0.000000 0.000000 3.761570 
# 
# 
# High freq. dielectric constant tensor:
#      x y z
#    x 1.753450 0.000000 0.000000 
#    y 0.000000 1.768710 0.000000 
#    z 0.000000 0.000000 1.763530 
# 
# From -- ./inp_files/11097.got.cif
#   From: 2010.03.12/outbox.cif.g09.slc.cpg/sg67_6_cif.got.tgz:11097.got - 2010.04.10 22:41:39.
