data_PCOD8281378
_publ_section_title
;
Structure prediction by ZEFSAII (Michael W. Deem and Ramdas Pophale) SiO2 
 PCOD8281378
Probable space group: C M M A
;
_chemical_formula_sum "Si O2"
_cell_formula_units_Z 96
_cell_length_a 16.760224
_cell_length_b 18.885565
_cell_length_c 14.601346
_cell_angle_alpha 90.000000
_cell_angle_beta 90.000000
_cell_angle_gamma 90.000000
_cell_volume 4621.710021
_symmetry_space_group_name_H-M "C M M A"
_symmetry_group_IT_number 67
_symmetry_cell_setting 'orthorhombic'
loop_
_space_group_symop_operation_xyz
x,y,z
-x,1/2-y,z
x,-y,-z
-x,1/2+y,-z
-x,-y,-z
x,1/2+y,-z
-x,y,z
x,1/2-y,z
1/2+x,1/2+y,z
1/2-x,-y,z
1/2+x,1/2-y,-z
1/2-x,y,-z
1/2-x,1/2-y,-z
1/2+x,y,-z
1/2-x,1/2+y,z
1/2+x,-y,z
loop_
_atom_site_type_symbol
_atom_site_label
_atom_site_fract_x
_atom_site_fract_y
_atom_site_fract_z
Si Si1 0.164119 0.086551 0.143952
Si Si2 0.908900 0.328723 0.304172
Si Si3 0.091409 0.668190 0.020770
Si Si4 0.408268 0.459647 0.370025
Si Si5 0.346714 0.426325 0.173849
Si Si6 0.161488 0.595216 0.539163
O O1 0.109347 0.115683 0.224817
O O2 0.255323 0.097947 0.171961
O O3 0.143174 0.004104 0.129457
O O4 0.148263 0.128506 0.050708
O O5 0.893256 0.250000 0.265553
O O6 0.854890 0.338314 0.395000
O O7 0.000000 0.339692 0.333859
O O8 0.117442 0.750000 0.029150
O O9 0.100720 0.630140 0.118539
O O10 0.000000 0.662313 0.988052
O O11 0.500000 0.482862 0.359166
O O12 0.376256 0.424536 0.277806
O O13 0.399150 0.403454 0.452943
O O14 0.353465 0.526566 0.396699
O O15 0.250000 0.596205 0.500000
#
# Coordination Sequence:
#
# PCOD8281378 Si02
#       6
#    16  16  16  16  16  16
#     4  11  23  40  65  94 126 165 212 266 322 372
#     4  11  23  40  63  93 129 170 217 266 316 377
#     4  11  25  44  64  91 129 171 213 259 315 381
#     4  11  21  36  62  91 122 164 210 260 323 376
#     4  11  24  40  65  95 127 161 208 271 317 378
#     4  11  22  37  61  88 127 167 207 262 313 377
#
# _framework density 20.771533000000002
#
# number of rings (size 3 to 8) (size 9 to 14) (size 15 to 20)
#    0.000    1.000    1.667    6.500    2.333    7.667 
#    0.000    0.833    0.000    3.000    0.000    0.000 
#    0.000    0.000    0.000    0.000    0.000    0.000 
#
# Total GULP energy -595375.530317 kJ/mol
# GULP energy per Si atom -12403.656882 kJ/mol
# Density = 2.072426 g / cm^3
# Si number density = 20.771533 Si / 1000 Ang^3
#
#
#
# Elastic Constant Matrix: (Units=GPa)
#
#
# Indices 1 2 3 4 5 6 
#
# 1 108.8001 39.3334 38.5986 0.0000 0.0000 0.0000
# 2 39.3334 103.0485 50.4355 0.0000 0.0000 0.0000
# 3 38.5986 50.4355 142.3166 0.0000 0.0000 0.0000
# 4 0.0000 0.0000 0.0000 23.7825 0.0000 0.0000
# 5 0.0000 0.0000 0.0000 0.0000 41.0023 0.0000
# 6 0.0000 0.0000 0.0000 0.0000 0.0000 28.0486
#
#
#
# Elastic Compliance Matrix: (Units=1/GPa)
#
#
# Indices 1 2 3 4 5 6 
#
# 1 0.011037 -0.003324 -0.001815 0.000000 0.000000 0.000000
# 2 -0.003324 0.012742 -0.003614 0.000000 0.000000 0.000000
# 3 -0.001815 -0.003614 0.008800 0.000000 0.000000 0.000000
# 4 0.000000 0.000000 0.000000 0.042048 0.000000 0.000000
# 5 0.000000 0.000000 0.000000 0.000000 0.024389 0.000000
# 6 0.000000 0.000000 0.000000 0.000000 0.000000 0.035652
#
#
# Mechanical properties :
#
#
# Convention : Reuss Voigt Hill
#
# Bulk Modulus (GPa) = 66.35114 67.87780 67.11447
# Shear Modulus (GPa) = 31.80692 33.61986 32.71339
#
# Velocity S-wave (km/s) = 3.91740 4.02749 3.97282
# Velocity P-wave (km/s) = 7.24389 7.37406 7.30927
#
# Compressibility (1/GPa) = 0.01507133
#
# Stress axis : x y z
#
# Youngs Moduli (GPa) = 90.60440 78.48146 113.64039
#
# Poissons Ratio (x) = 0.26090 0.20629
# Poissons Ratio (y) = 0.30120 0.41069
# Poissons Ratio (z) = 0.16448 0.28363
#
# Static dielectric constant tensor:
#      x y z
#    x 3.821160 0.000000 0.000000 
#    y 0.000000 3.733030 0.000000 
#    z 0.000000 0.000000 4.000660 
# 
# 
# High freq. dielectric constant tensor:
#      x y z
#    x 1.820460 0.000000 0.000000 
#    y 0.000000 1.796730 0.000000 
#    z 0.000000 0.000000 1.826180 
# 
# From -- ./inp_files/27238.got.cif
#   From: 2010.03.12/outbox.cif.g09.slc.cpg/sg67_14_cif.got.tgz:27238.got - 2010.04.10 22:41:39.
