data_PCOD8281189
_publ_section_title
;
Structure prediction by ZEFSAII (Michael W. Deem and Ramdas Pophale) SiO2 
 PCOD8281189
Probable space group: C M M A
;
_chemical_formula_sum "Si O2"
_cell_formula_units_Z 80
_cell_length_a 9.460529
_cell_length_b 24.685973
_cell_length_c 17.662110
_cell_angle_alpha 90.000000
_cell_angle_beta 90.000000
_cell_angle_gamma 90.000000
_cell_volume 4124.850913
_symmetry_space_group_name_H-M "C M M A"
_symmetry_group_IT_number 67
_symmetry_cell_setting 'orthorhombic'
loop_
_space_group_symop_operation_xyz
x,y,z
-x,1/2-y,z
x,-y,-z
-x,1/2+y,-z
-x,-y,-z
x,1/2+y,-z
-x,y,z
x,1/2-y,z
1/2+x,1/2+y,z
1/2-x,-y,z
1/2+x,1/2-y,-z
1/2-x,y,-z
1/2-x,1/2-y,-z
1/2+x,y,-z
1/2-x,1/2+y,z
1/2+x,-y,z
loop_
_atom_site_type_symbol
_atom_site_label
_atom_site_fract_x
_atom_site_fract_y
_atom_site_fract_z
Si Si1 0.750000 0.500000 0.316988
Si Si2 0.500000 0.466784 0.422696
Si Si3 0.000000 0.653758 0.400520
Si Si4 0.159537 0.903157 0.790507
Si Si5 0.500000 0.189704 0.562739
Si Si6 0.775558 0.814288 0.675919
Si Si7 0.173790 0.442601 0.924855
O O1 0.633903 0.477202 0.372190
O O2 0.811668 0.451906 0.266930
O O3 0.500000 0.500000 0.500000
O O4 0.500000 0.403620 0.443036
O O5 0.000000 0.693542 0.472230
O O6 0.122456 0.664334 0.341786
O O7 0.168115 0.844797 0.750227
O O8 0.279078 0.903848 0.856153
O O9 0.000000 0.910132 0.823116
O O10 0.500000 0.250000 0.594404
O O11 0.638777 0.164580 0.601569
O O12 0.779501 0.750000 0.691169
O O13 0.250000 0.500000 0.908695
O O14 0.000000 0.446646 0.931003
O O15 0.250000 0.418941 0.000000
#
# Coordination Sequence:
#
# PCOD8281189 Si02
#       7
#     8   8   8  16   8  16  16
#     4  12  25  42  57  86 122 168 214 258 321 380
#     4  12  28  40  58  84 123 168 219 264 321 387
#     4  12  24  38  62  86 118 161 212 276 332 386
#     4  12  24  40  66  91 127 168 210 263 316 381
#     4  10  22  40  58  82 114 157 210 266 321 379
#     4  11  24  41  62  89 120 162 215 271 327 381
#     4  11  23  40  66  99 137 171 208 247 303 376
#
# _framework density 19.394639000000002
#
# number of rings (size 3 to 8) (size 9 to 14) (size 15 to 20)
#    0.000    0.600    5.000    4.200    5.600    3.200 
#    0.000    0.000    0.000    0.600    0.000    0.000 
#    0.000    0.000    0.000    0.000    0.000    0.000 
#
# Total GULP energy -495679.449350 kJ/mol
# GULP energy per Si atom -12391.986234 kJ/mol
# Density = 1.935050 g / cm^3
# Si number density = 19.394639 Si / 1000 Ang^3
#
#
#
# Elastic Constant Matrix: (Units=GPa)
#
#
# Indices 1 2 3 4 5 6 
#
# 1 162.0944 19.9421 37.0099 0.0000 0.0000 0.0000
# 2 19.9421 94.4381 24.3478 0.0000 0.0000 0.0000
# 3 37.0099 24.3478 95.3673 0.0000 0.0000 0.0000
# 4 0.0000 0.0000 0.0000 23.4872 0.0000 0.0000
# 5 0.0000 0.0000 0.0000 0.0000 45.6949 0.0000
# 6 0.0000 0.0000 0.0000 0.0000 0.0000 20.7471
#
#
#
# Elastic Compliance Matrix: (Units=1/GPa)
#
#
# Indices 1 2 3 4 5 6 
#
# 1 0.006827 -0.000812 -0.002442 0.000000 0.000000 0.000000
# 2 -0.000812 0.011432 -0.002603 0.000000 0.000000 0.000000
# 3 -0.002442 -0.002603 0.012098 0.000000 0.000000 0.000000
# 4 0.000000 0.000000 0.000000 0.042576 0.000000 0.000000
# 5 0.000000 0.000000 0.000000 0.000000 0.021884 0.000000
# 6 0.000000 0.000000 0.000000 0.000000 0.000000 0.048199
#
#
# Mechanical properties :
#
#
# Convention : Reuss Voigt Hill
#
# Bulk Modulus (GPa) = 53.64337 57.16660 55.40498
# Shear Modulus (GPa) = 31.06646 36.02584 33.54615
#
# Velocity S-wave (km/s) = 4.00660 4.31457 4.16343
# Velocity P-wave (km/s) = 7.00876 7.37293 7.19315
#
# Compressibility (1/GPa) = 0.01864163
#
# Stress axis : x y z
#
# Youngs Moduli (GPa) = 146.48365 87.47664 82.65740
#
# Poissons Ratio (x) = 0.07103 0.20185
# Poissons Ratio (y) = 0.11894 0.21519
# Poissons Ratio (z) = 0.35771 0.22774
#
# Static dielectric constant tensor:
#      x y z
#    x 3.923880 0.000000 0.000000 
#    y 0.000000 3.454910 0.000000 
#    z 0.000000 0.000000 3.620360 
# 
# 
# High freq. dielectric constant tensor:
#      x y z
#    x 1.782300 0.000000 0.000000 
#    y 0.000000 1.738580 0.000000 
#    z 0.000000 0.000000 1.748770 
# 
# From -- ./inp_files/32223.got.cif
#   From: 2010.03.12/outbox.cif.g09.slc.cpg/sg67_17_cif.got.tgz:32223.got - 2010.04.10 22:41:39.
