data_PCOD8281321
_publ_section_title
;
Structure prediction by ZEFSAII (Michael W. Deem and Ramdas Pophale) SiO2 
 PCOD8281321
Probable space group: C M M A
;
_chemical_formula_sum "Si O2"
_cell_formula_units_Z 128
_cell_length_a 27.485141
_cell_length_b 22.360302
_cell_length_c 12.775954
_cell_angle_alpha 90.000000
_cell_angle_beta 90.000000
_cell_angle_gamma 90.000000
_cell_volume 7851.795386
_symmetry_space_group_name_H-M "C M M A"
_symmetry_group_IT_number 67
_symmetry_cell_setting 'orthorhombic'
loop_
_space_group_symop_operation_xyz
x,y,z
-x,1/2-y,z
x,-y,-z
-x,1/2+y,-z
-x,-y,-z
x,1/2+y,-z
-x,y,z
x,1/2-y,z
1/2+x,1/2+y,z
1/2-x,-y,z
1/2+x,1/2-y,-z
1/2-x,y,-z
1/2-x,1/2-y,-z
1/2+x,y,-z
1/2-x,1/2+y,z
1/2+x,-y,z
loop_
_atom_site_type_symbol
_atom_site_label
_atom_site_fract_x
_atom_site_fract_y
_atom_site_fract_z
Si Si1 0.696238 0.318375 0.124820
Si Si2 0.693232 0.996914 0.375761
Si Si3 0.190651 0.181705 0.111509
Si Si4 0.147862 0.872651 0.692098
Si Si5 0.945060 0.818448 0.615576
Si Si6 0.196629 0.181512 0.498035
Si Si7 0.353584 0.117184 0.312552
Si Si8 0.444652 0.681662 0.631059
O O1 0.680183 0.250000 0.142671
O O2 0.753408 0.324889 0.143537
O O3 0.669447 0.360629 0.205449
O O4 0.682342 0.339326 0.007742
O O5 0.667862 0.937141 0.336707
O O6 0.689511 0.000000 0.500000
O O7 0.750000 0.000000 0.340269
O O8 0.660271 0.048004 0.322869
O O9 0.173830 0.250000 0.124053
O O10 0.158862 0.140256 0.186892
O O11 0.090007 0.865211 0.675123
O O12 0.173997 0.824330 0.617010
O O13 0.932561 0.750000 0.646626
O O14 0.938481 0.826765 0.492361
O O15 0.000000 0.834054 0.649391
O O16 0.200714 0.250000 0.530459
O O17 0.250000 0.151140 0.500000
O O18 0.164785 0.150366 0.584769
O O19 0.411128 0.132780 0.309135
O O20 0.500000 0.668831 0.665288
O O21 0.430187 0.750000 0.661383
#
# Coordination Sequence:
#
# PCOD8281321 Si02
#       8
#    16  16  16  16  16  16  16  16
#     4   9  18  32  50  73 100 129 163 209 262 308
#     4  11  22  34  46  68 106 145 170 201 247 294
#     4   9  18  32  50  73 100 129 163 209 262 308
#     4  12  20  32  50  69  99 136 171 200 247 301
#     4   9  17  30  49  74 101 126 159 209 265 312
#     4  11  20  27  44  74  97 117 155 204 250 304
#     4  12  20  32  50  69  99 136 171 200 247 301
#     4   9  17  30  49  74 101 126 159 209 265 312
#
# _framework density 16.302004
#
# number of rings (size 3 to 8) (size 9 to 14) (size 15 to 20)
#    0.000    1.750    2.500    6.000    0.000    2.000 
#    0.000    1.250    0.000    5.250    0.000    3.500 
#    0.000    2.000    0.000    0.000    0.000    0.000 
#
# Total GULP energy -793511.225434 kJ/mol
# GULP energy per Si atom -12398.612897 kJ/mol
# Density = 1.626490 g / cm^3
# Si number density = 16.302004 Si / 1000 Ang^3
#
#
#
# Elastic Constant Matrix: (Units=GPa)
#
#
# Indices 1 2 3 4 5 6 
#
# 1 102.2942 51.4089 27.1400 0.0000 0.0000 0.0000
# 2 51.4089 86.0311 28.1718 0.0000 0.0000 0.0000
# 3 27.1400 28.1718 68.2797 0.0000 0.0000 0.0000
# 4 0.0000 0.0000 0.0000 38.1302 0.0000 0.0000
# 5 0.0000 0.0000 0.0000 0.0000 21.1905 0.0000
# 6 0.0000 0.0000 0.0000 0.0000 0.0000 30.0127
#
#
#
# Elastic Compliance Matrix: (Units=1/GPa)
#
#
# Indices 1 2 3 4 5 6 
#
# 1 0.014332 -0.007745 -0.002501 0.000000 0.000000 0.000000
# 2 -0.007745 0.017625 -0.004193 0.000000 0.000000 0.000000
# 3 -0.002501 -0.004193 0.017370 0.000000 0.000000 0.000000
# 4 0.000000 0.000000 0.000000 0.026226 0.000000 0.000000
# 5 0.000000 0.000000 0.000000 0.000000 0.047191 0.000000
# 6 0.000000 0.000000 0.000000 0.000000 0.000000 0.033319
#
#
# Mechanical properties :
#
#
# Convention : Reuss Voigt Hill
#
# Bulk Modulus (GPa) = 48.90559 52.22739 50.56649
# Shear Modulus (GPa) = 26.07459 27.85897 26.96678
#
# Velocity S-wave (km/s) = 4.00368 4.13840 4.07160
# Velocity P-wave (km/s) = 7.17199 7.41230 7.29313
#
# Compressibility (1/GPa) = 0.02044756
#
# Stress axis : x y z
#
# Youngs Moduli (GPa) = 69.77576 56.73749 57.57071
#
# Poissons Ratio (x) = 0.43943 0.14399
# Poissons Ratio (y) = 0.54042 0.24142
# Poissons Ratio (z) = 0.17451 0.23793
#
# Static dielectric constant tensor:
#      x y z
#    x 3.234100 0.000000 0.000000 
#    y 0.000000 2.974410 0.000000 
#    z 0.000000 0.000000 2.965970 
# 
# 
# High freq. dielectric constant tensor:
#      x y z
#    x 1.623540 0.000000 0.000000 
#    y 0.000000 1.611010 0.000000 
#    z 0.000000 0.000000 1.606970 
# 
# From -- ./inp_files/23256.got.cif
#   From: 2010.03.12/outbox.cif.g09.slc.cpg/sg67_12_cif.got.tgz:23256.got - 2010.04.10 22:41:39.
