data_PCOD8281258
_publ_section_title
;
Structure prediction by ZEFSAII (Michael W. Deem and Ramdas Pophale) SiO2 
 PCOD8281258
Probable space group: C M M A
;
_chemical_formula_sum "Si O2"
_cell_formula_units_Z 48
_cell_length_a 15.636287
_cell_length_b 25.592476
_cell_length_c 5.150802
_cell_angle_alpha 90.000000
_cell_angle_beta 90.000000
_cell_angle_gamma 90.000000
_cell_volume 2061.203131
_symmetry_space_group_name_H-M "C M M A"
_symmetry_group_IT_number 67
_symmetry_cell_setting 'orthorhombic'
loop_
_space_group_symop_operation_xyz
x,y,z
-x,1/2-y,z
x,-y,-z
-x,1/2+y,-z
-x,-y,-z
x,1/2+y,-z
-x,y,z
x,1/2-y,z
1/2+x,1/2+y,z
1/2-x,-y,z
1/2+x,1/2-y,-z
1/2-x,y,-z
1/2-x,1/2-y,-z
1/2+x,y,-z
1/2-x,1/2+y,z
1/2+x,-y,z
loop_
_atom_site_type_symbol
_atom_site_label
_atom_site_fract_x
_atom_site_fract_y
_atom_site_fract_z
Si Si1 0.155323 0.309859 0.896777
Si Si2 0.345667 0.523224 0.252146
Si Si3 0.596995 0.365507 0.624268
O O1 0.138926 0.250000 0.819104
O O2 0.139709 0.343342 0.637162
O O3 0.250000 0.319881 0.000000
O O4 0.094298 0.324410 0.138128
O O5 0.395349 0.500000 0.500000
O O6 0.250000 0.500000 0.249929
O O7 0.347615 0.585761 0.268376
O O8 0.393666 0.500000 0.000000
O O9 0.500000 0.381936 0.559430
#
# Coordination Sequence:
#
# PCOD8281258 Si02
#       3
#    16  16  16
#     4  11  26  46  72 103 139 188 239 284 344 431
#     4  10  23  40  65  98 131 186 230 282 339 414
#     4  12  26  43  71 107 143 181 232 296 359 416
#
# _framework density 23.287372000000001
#
# number of rings (size 3 to 8) (size 9 to 14) (size 15 to 20)
#    0.000    1.000    0.000    5.000   14.000    8.000 
#    0.000    0.000    0.000    0.000    0.000    0.000 
#    0.000    0.000    0.000    0.000    0.000    0.000 
#
# Total GULP energy -297497.956821 kJ/mol
# GULP energy per Si atom -12395.748201 kJ/mol
# Density = 2.323437 g / cm^3
# Si number density = 23.287372 Si / 1000 Ang^3
#
#
#
# Elastic Constant Matrix: (Units=GPa)
#
#
# Indices 1 2 3 4 5 6 
#
# 1 88.2357 64.6617 26.8812 0.0000 0.0000 0.0000
# 2 64.6617 160.0278 86.9410 0.0000 0.0000 0.0000
# 3 26.8812 86.9410 244.6844 0.0000 0.0000 0.0000
# 4 0.0000 0.0000 0.0000 51.7229 0.0000 0.0000
# 5 0.0000 0.0000 0.0000 0.0000 19.4427 0.0000
# 6 0.0000 0.0000 0.0000 0.0000 0.0000 21.3921
#
#
#
# Elastic Compliance Matrix: (Units=1/GPa)
#
#
# Indices 1 2 3 4 5 6 
#
# 1 0.016191 -0.006910 0.000676 0.000000 0.000000 0.000000
# 2 -0.006910 0.010693 -0.003040 0.000000 0.000000 0.000000
# 3 0.000676 -0.003040 0.005093 0.000000 0.000000 0.000000
# 4 0.000000 0.000000 0.000000 0.019334 0.000000 0.000000
# 5 0.000000 0.000000 0.000000 0.000000 0.051433 0.000000
# 6 0.000000 0.000000 0.000000 0.000000 0.000000 0.046746
#
#
# Mechanical properties :
#
#
# Convention : Reuss Voigt Hill
#
# Bulk Modulus (GPa) = 74.46374 94.43509 84.44941
# Shear Modulus (GPa) = 28.98339 39.47579 34.22959
#
# Velocity S-wave (km/s) = 3.53171 4.12170 3.83806
# Velocity P-wave (km/s) = 6.97682 7.95558 7.48222
#
# Compressibility (1/GPa) = 0.01342936
#
# Stress axis : x y z
#
# Youngs Moduli (GPa) = 61.76353 93.52321 196.35496
#
# Poissons Ratio (x) = 0.64621 -0.13281
# Poissons Ratio (y) = 0.42676 0.59695
# Poissons Ratio (z) = -0.04178 0.28433
#
# Static dielectric constant tensor:
#      x y z
#    x 3.803820 0.000000 0.000000 
#    y 0.000000 4.207230 0.000000 
#    z 0.000000 0.000000 -5.850640 
# 
# 
# High freq. dielectric constant tensor:
#      x y z
#    x 1.898970 0.000000 0.000000 
#    y 0.000000 1.926000 0.000000 
#    z 0.000000 0.000000 1.955850 
# 
# From -- ./inp_files/1159.got.cif
#   From: 2010.03.12/outbox.cif.g09.slc.cpg/sg67_1_cif.got.tgz:1159.got - 2010.04.10 22:41:39.
