data_PCOD8281797
_publ_section_title
;
Structure prediction by ZEFSAII (Michael W. Deem and Ramdas Pophale) SiO2 
 PCOD8281797
Probable space group: C C C A
;
_chemical_formula_sum "Si O2"
_cell_formula_units_Z 88
_cell_length_a 9.481395
_cell_length_b 22.242388
_cell_length_c 23.288675
_cell_angle_alpha 90.000000
_cell_angle_beta 90.000000
_cell_angle_gamma 90.000000
_cell_volume 4911.322270
_symmetry_space_group_name_H-M "C C C A"
_symmetry_group_IT_number 68
_space_group.IT_coordinate_system_code '2'
_symmetry_cell_setting 'orthorhombic'
loop_
_space_group_symop_operation_xyz
x,y,z
-x,1/2-y,z
x,1/2-y,1/2-z
-x,y,1/2-z
-x,-y,-z
x,1/2+y,-z
-x,1/2+y,1/2+z
x,-y,1/2+z
1/2+x,1/2+y,z
1/2-x,-y,z
1/2+x,-y,1/2-z
1/2-x,1/2+y,1/2-z
1/2-x,1/2-y,-z
1/2+x,y,-z
1/2-x,y,1/2+z
1/2+x,1/2-y,1/2+z
loop_
_atom_site_type_symbol
_atom_site_label
_atom_site_fract_x
_atom_site_fract_y
_atom_site_fract_z
Si Si1 0.000000 0.598099 0.250000
Si Si2 0.731837 0.682181 0.255112
Si Si3 0.000988 0.682006 0.842367
Si Si4 0.558275 0.949646 0.870800
Si Si5 0.379921 0.540249 0.527555
Si Si6 0.853840 0.917948 0.907206
O O1 0.861694 0.638157 0.249811
O O2 0.999369 0.556186 0.193771
O O3 0.789370 0.750000 0.250000
O O4 0.619484 0.671820 0.205304
O O5 0.653231 0.669500 0.315606
O O6 0.000000 0.750000 0.866666
O O7 0.037267 0.635465 0.892874
O O8 0.441287 0.925340 0.916433
O O9 0.700029 0.910102 0.878400
O O10 0.582707 0.019654 0.884076
O O11 0.500000 0.500000 0.500000
O O12 0.250000 0.500000 0.548625
O O13 0.331069 0.584416 0.476201
#
# Coordination Sequence:
#
# PCOD8281797 Si02
#       6
#     8  16  16  16  16  16
#     4  12  21  34  52  86 121 136 172 244 292 328
#     4   9  19  34  53  77 110 152 190 219 268 345
#     4   9  18  35  58  79 102 150 197 223 270 335
#     4  10  22  34  53  87 114 148 179 227 298 337
#     4  10  18  35  57  78 105 151 189 215 271 355
#     4  10  18  38  57  77 116 143 185 240 274 333
#
# _framework density 17.917781999999999
#
# number of rings (size 3 to 8) (size 9 to 14) (size 15 to 20)
#    0.000    2.182    5.455    1.364    0.000    4.364 
#    3.273    0.000    0.000    3.273    0.000    0.000 
#    0.000    0.000    0.000    0.000    0.000    0.000 
#
# Total GULP energy -545339.161129 kJ/mol
# GULP energy per Si atom -12394.071844 kJ/mol
# Density = 1.787700 g / cm^3
# Si number density = 17.917782 Si / 1000 Ang^3
#
#
#
# Elastic Constant Matrix: (Units=GPa)
#
#
# Indices 1 2 3 4 5 6 
#
# 1 82.3350 34.8070 33.3246 0.0000 0.0000 0.0000
# 2 34.8070 74.3941 39.5918 0.0000 0.0000 0.0000
# 3 33.3246 39.5918 132.9030 0.0000 0.0000 0.0000
# 4 0.0000 0.0000 0.0000 14.5086 0.0000 0.0000
# 5 0.0000 0.0000 0.0000 0.0000 24.6712 0.0000
# 6 0.0000 0.0000 0.0000 0.0000 0.0000 23.4572
#
#
#
# Elastic Compliance Matrix: (Units=1/GPa)
#
#
# Indices 1 2 3 4 5 6 
#
# 1 0.015603 -0.006201 -0.002065 0.000000 0.000000 0.000000
# 2 -0.006201 0.018439 -0.003938 0.000000 0.000000 0.000000
# 3 -0.002065 -0.003938 0.009215 0.000000 0.000000 0.000000
# 4 0.000000 0.000000 0.000000 0.068924 0.000000 0.000000
# 5 0.000000 0.000000 0.000000 0.000000 0.040533 0.000000
# 6 0.000000 0.000000 0.000000 0.000000 0.000000 0.042631
#
#
# Mechanical properties :
#
#
# Convention : Reuss Voigt Hill
#
# Bulk Modulus (GPa) = 53.05425 56.11989 54.58707
# Shear Modulus (GPa) = 22.12027 24.65465 23.38746
#
# Velocity S-wave (km/s) = 3.51742 3.71346 3.61677
# Velocity P-wave (km/s) = 6.79488 7.05515 6.92624
#
# Compressibility (1/GPa) = 0.01884863
#
# Stress axis : x y z
#
# Youngs Moduli (GPa) = 64.09096 54.23254 108.51604
#
# Poissons Ratio (x) = 0.33631 0.22408
# Poissons Ratio (y) = 0.39744 0.42735
# Poissons Ratio (z) = 0.13235 0.21357
#
# Static dielectric constant tensor:
#      x y z
#    x 3.618700 0.000000 0.000000 
#    y 0.000000 3.090980 0.000000 
#    z 0.000000 0.000000 3.660300 
# 
# 
# High freq. dielectric constant tensor:
#      x y z
#    x 1.704490 0.000000 0.000000 
#    y 0.000000 1.658400 0.000000 
#    z 0.000000 0.000000 1.689170 
# 
# From -- ./inp_files/43114.got.cif
#   From: 2010.03.12/outbox.cif.g09.slc.cpg/sg68_22_cif.got.tgz:43114.got - 2010.04.10 23:14:56.
