data_PCOD8281361
_publ_section_title
;
Structure prediction by ZEFSAII (Michael W. Deem and Ramdas Pophale) SiO2 
 PCOD8281361
Probable space group: C M M A
;
_chemical_formula_sum "Si O2"
_cell_formula_units_Z 112
_cell_length_a 26.168371
_cell_length_b 15.586547
_cell_length_c 15.586047
_cell_angle_alpha 90.000000
_cell_angle_beta 90.000000
_cell_angle_gamma 90.000000
_cell_volume 6357.151821
_symmetry_space_group_name_H-M "C M M A"
_symmetry_group_IT_number 67
_symmetry_cell_setting 'orthorhombic'
loop_
_space_group_symop_operation_xyz
x,y,z
-x,1/2-y,z
x,-y,-z
-x,1/2+y,-z
-x,-y,-z
x,1/2+y,-z
-x,y,z
x,1/2-y,z
1/2+x,1/2+y,z
1/2-x,-y,z
1/2+x,1/2-y,-z
1/2-x,y,-z
1/2-x,1/2-y,-z
1/2+x,y,-z
1/2-x,1/2+y,z
1/2+x,-y,z
loop_
_atom_site_type_symbol
_atom_site_label
_atom_site_fract_x
_atom_site_fract_y
_atom_site_fract_z
Si Si1 0.809720 0.100734 0.314080
Si Si2 0.309980 0.901417 1.000000
Si Si3 0.440313 0.500000 0.101118
Si Si4 0.126668 0.845063 0.843563
Si Si5 0.809720 0.899266 0.314080
Si Si6 0.194104 0.601267 0.500000
Si Si7 0.626668 0.654937 0.843563
O O1 0.845019 0.149730 0.247285
O O2 0.750000 0.126781 0.304938
O O3 0.831845 0.127404 0.409200
O O4 0.815531 0.000000 0.297023
O O5 0.330545 0.855868 0.915703
O O6 0.250000 0.892440 0.000000
O O7 0.330545 0.855868 0.084297
O O8 0.327920 0.000000 0.000000
O O9 0.500000 0.500000 0.119409
O O10 0.417691 0.584924 0.145447
O O11 0.417691 0.415076 0.145447
O O12 0.427980 0.500000 0.000000
O O13 0.102223 0.750000 0.851370
O O14 0.831845 0.872596 0.409200
O O15 0.845019 0.850270 0.247285
O O16 0.200628 0.500000 0.500000
O O17 0.250000 0.643586 0.500000
O O18 0.602223 0.750000 0.851370
#
# Coordination Sequence:
#
# PCOD8281361 Si02
#       7
#    16  16  16  16  16  16  16
#     4   9  16  29  50  77 113 151 184 216 252 301
#     4  11  21  35  53  75 111 150 179 208 248 304
#     4  11  24  44  62  77 100 131 175 230 281 321
#     4  12  22  35  55  81 108 139 177 214 265 320
#     4   9  16  29  50  77 113 151 184 216 252 301
#     4   7  12  24  45  73 105 147 189 218 247 290
#     4  12  22  35  55  81 108 139 177 214 265 320
#
# _framework density 17.617951999999999
#
# number of rings (size 3 to 8) (size 9 to 14) (size 15 to 20)
#    0.000    1.857    4.286    3.000    0.000    5.714 
#    0.000    2.143    0.000    2.571    0.000    2.000 
#    0.000    2.286    0.000    0.000    0.000    0.000 
#
# Total GULP energy -693976.276660 kJ/mol
# GULP energy per Si atom -12392.433512 kJ/mol
# Density = 1.757785 g / cm^3
# Si number density = 17.617952 Si / 1000 Ang^3
#
#
#
# Elastic Constant Matrix: (Units=GPa)
#
#
# Indices 1 2 3 4 5 6 
#
# 1 82.7050 45.8024 42.9137 0.0000 0.0000 0.0000
# 2 45.8024 120.1203 39.9601 0.0000 0.0000 0.0000
# 3 42.9137 39.9601 146.5710 0.0000 0.0000 0.0000
# 4 0.0000 0.0000 0.0000 -27.7304 0.0000 0.0000
# 5 0.0000 0.0000 0.0000 0.0000 116.1317 0.0000
# 6 0.0000 0.0000 0.0000 0.0000 0.0000 -1.1273
#
#
#
# Elastic Compliance Matrix: (Units=1/GPa)
#
#
# Indices 1 2 3 4 5 6 
#
# 1 0.016809 -0.005248 -0.003491 0.000000 0.000000 0.000000
# 2 -0.005248 0.010794 -0.001406 0.000000 0.000000 0.000000
# 3 -0.003491 -0.001406 0.008228 0.000000 0.000000 0.000000
# 4 0.000000 0.000000 0.000000 -0.036062 0.000000 0.000000
# 5 0.000000 0.000000 0.000000 0.000000 0.008611 0.000000
# 6 0.000000 0.000000 0.000000 0.000000 0.000000 -0.887057
#
#
# Mechanical properties :
#
#
# Convention : Reuss Voigt Hill
#
# Bulk Modulus (GPa) = 64.34601 67.41652 65.88126
# Shear Modulus (GPa) = -5.86024 32.16947 13.15461
#
# Velocity S-wave (km/s) = -1.82579 4.27775 2.73547
# Velocity P-wave (km/s) = 5.67077 7.92135 6.88859
#
# Compressibility (1/GPa) = 0.01554098
#
# Stress axis : x y z
#
# Youngs Moduli (GPa) = 59.49287 92.64489 121.53639
#
# Poissons Ratio (x) = 0.48621 0.42423
# Poissons Ratio (y) = 0.31222 0.17091
# Poissons Ratio (z) = 0.20766 0.13028
#
# Static dielectric constant tensor:
#      x y z
#    x 2.850810 0.000000 0.000000 
#    y 0.000000 3.249500 0.000000 
#    z 0.000000 0.000000 3.619680 
# 
# 
# High freq. dielectric constant tensor:
#      x y z
#    x 1.627850 0.000000 0.000000 
#    y 0.000000 1.680560 0.000000 
#    z 0.000000 0.000000 1.697230 
# 
# From -- ./inp_files/30802.got.cif
#   From: 2010.03.12/outbox.cif.g09.slc.cpg/sg67_16_cif.got.tgz:30802.got - 2010.04.10 22:41:39.
