data_PCOD8281791
_publ_section_title
;
Structure prediction by ZEFSAII (Michael W. Deem and Ramdas Pophale) SiO2 
 PCOD8281791
Probable space group: C C C A
;
_chemical_formula_sum "Si O2"
_cell_formula_units_Z 88
_cell_length_a 9.720184
_cell_length_b 15.112678
_cell_length_c 29.389999
_cell_angle_alpha 90.000000
_cell_angle_beta 90.000000
_cell_angle_gamma 90.000000
_cell_volume 4317.332393
_symmetry_space_group_name_H-M "C C C A"
_symmetry_group_IT_number 68
_space_group.IT_coordinate_system_code '2'
_symmetry_cell_setting 'orthorhombic'
loop_
_space_group_symop_operation_xyz
x,y,z
-x,1/2-y,z
x,1/2-y,1/2-z
-x,y,1/2-z
-x,-y,-z
x,1/2+y,-z
-x,1/2+y,1/2+z
x,-y,1/2+z
1/2+x,1/2+y,z
1/2-x,-y,z
1/2+x,-y,1/2-z
1/2-x,1/2+y,1/2-z
1/2-x,1/2-y,-z
1/2+x,y,-z
1/2-x,y,1/2+z
1/2+x,1/2-y,1/2+z
loop_
_atom_site_type_symbol
_atom_site_label
_atom_site_fract_x
_atom_site_fract_y
_atom_site_fract_z
Si Si1 0.230803 0.604269 0.044315
Si Si2 0.625828 0.647816 0.164833
Si Si3 0.250000 0.000000 0.805667
Si Si4 0.673479 0.337222 0.862901
Si Si5 0.000000 0.561875 0.750000
Si Si6 0.250000 0.000000 0.106742
Si Si7 0.063721 0.424625 0.969500
O O1 0.250000 0.500000 0.056483
O O2 0.285172 0.666347 0.084454
O O3 0.070467 0.635030 0.040805
O O4 0.314696 0.625463 0.997460
O O5 0.487392 0.642648 0.135750
O O6 0.698316 0.743762 0.162441
O O7 0.589684 0.624581 0.216965
O O8 0.726674 0.580018 0.141046
O O9 0.259169 0.912176 0.836378
O O10 0.109545 0.999621 0.776255
O O11 0.378029 0.029706 0.075868
O O12 0.000000 0.500000 0.000000
#
# Coordination Sequence:
#
# PCOD8281791 Si02
#       7
#    16  16   8  16   8   8  16
#     4  10  18  34  59  88 122 168 208 258 306 365
#     4  10  23  39  65  93 122 165 209 269 308 399
#     4  10  21  37  68  92 118 162 200 261 315 386
#     4  10  21  39  65  91 123 162 216 251 316 373
#     4  10  22  43  64  95 122 160 210 261 332 381
#     4  12  21  37  64  92 126 170 222 259 323 372
#     4  10  19  32  60  88 125 173 213 257 308 366
#
# _framework density 20.382956
#
# number of rings (size 3 to 8) (size 9 to 14) (size 15 to 20)
#    0.000    1.818    3.636    2.727    2.545    5.818 
#    0.000    1.818    4.000    6.545    0.000    0.000 
#    0.000    0.000    0.000    0.000    0.000    0.000 
#
# Total GULP energy -545346.341565 kJ/mol
# GULP energy per Si atom -12394.235036 kJ/mol
# Density = 2.033656 g / cm^3
# Si number density = 20.382956 Si / 1000 Ang^3
#
#
#
# Elastic Constant Matrix: (Units=GPa)
#
#
# Indices 1 2 3 4 5 6 
#
# 1 95.6231 38.8409 38.0053 0.0000 0.0000 0.0000
# 2 38.8409 114.0183 53.4341 0.0000 0.0000 0.0000
# 3 38.0053 53.4341 122.4279 0.0000 0.0000 0.0000
# 4 0.0000 0.0000 0.0000 19.3704 0.0000 0.0000
# 5 0.0000 0.0000 0.0000 0.0000 43.6904 0.0000
# 6 0.0000 0.0000 0.0000 0.0000 0.0000 24.2853
#
#
#
# Elastic Compliance Matrix: (Units=1/GPa)
#
#
# Indices 1 2 3 4 5 6 
#
# 1 0.012761 -0.003131 -0.002595 0.000000 0.000000 0.000000
# 2 -0.003131 0.011794 -0.004176 0.000000 0.000000 0.000000
# 3 -0.002595 -0.004176 0.010796 0.000000 0.000000 0.000000
# 4 0.000000 0.000000 0.000000 0.051625 0.000000 0.000000
# 5 0.000000 0.000000 0.000000 0.000000 0.022888 0.000000
# 6 0.000000 0.000000 0.000000 0.000000 0.000000 0.041177
#
#
# Mechanical properties :
#
#
# Convention : Reuss Voigt Hill
#
# Bulk Modulus (GPa) = 64.31670 65.84777 65.08223
# Shear Modulus (GPa) = 28.40474 30.92180 29.66327
#
# Velocity S-wave (km/s) = 3.73708 3.89915 3.81897
# Velocity P-wave (km/s) = 7.08828 7.25580 7.17253
#
# Compressibility (1/GPa) = 0.01554806
#
# Stress axis : x y z
#
# Youngs Moduli (GPa) = 78.36504 84.78908 92.62670
#
# Poissons Ratio (x) = 0.26547 0.24035
# Poissons Ratio (y) = 0.24536 0.38677
# Poissons Ratio (z) = 0.20334 0.35404
#
# Static dielectric constant tensor:
#      x y z
#    x 4.342180 0.000000 0.000000 
#    y 0.000000 3.460820 0.000000 
#    z 0.000000 0.000000 3.781040 
# 
# 
# High freq. dielectric constant tensor:
#      x y z
#    x 1.798420 0.000000 0.000000 
#    y 0.000000 1.765560 0.000000 
#    z 0.000000 0.000000 1.805830 
# 
# From -- ./inp_files/54750.got.cif
#   From: 2010.03.12/outbox.cif.g09.slc.cpg/sg68_28_cif.got.tgz:54750.got - 2010.04.10 23:14:56.
