data_PCOD8281017
_publ_section_title
;
Structure prediction by ZEFSAII (Michael W. Deem and Ramdas Pophale) SiO2 
 PCOD8281017
Probable space group: C M M A
;
_chemical_formula_sum "Si O2"
_cell_formula_units_Z 52
_cell_length_a 13.619195
_cell_length_b 11.911014
_cell_length_c 13.801666
_cell_angle_alpha 90.000000
_cell_angle_beta 90.000000
_cell_angle_gamma 90.000000
_cell_volume 2238.884484
_symmetry_space_group_name_H-M "C M M A"
_symmetry_group_IT_number 67
_symmetry_cell_setting 'orthorhombic'
loop_
_space_group_symop_operation_xyz
x,y,z
-x,1/2-y,z
x,-y,-z
-x,1/2+y,-z
-x,-y,-z
x,1/2+y,-z
-x,y,z
x,1/2-y,z
1/2+x,1/2+y,z
1/2-x,-y,z
1/2+x,1/2-y,-z
1/2-x,y,-z
1/2-x,1/2-y,-z
1/2+x,y,-z
1/2-x,1/2+y,z
1/2+x,-y,z
loop_
_atom_site_type_symbol
_atom_site_label
_atom_site_fract_x
_atom_site_fract_y
_atom_site_fract_z
Si Si1 0.609089 0.117827 0.557150
Si Si2 0.750000 0.000000 0.000000
Si Si3 0.310005 0.616453 0.647320
Si Si4 0.389943 0.382835 0.148777
O O1 0.500000 0.090714 0.595714
O O2 0.625858 0.250000 0.547646
O O3 0.623746 0.071853 0.445041
O O4 0.695020 0.076121 0.632386
O O5 0.818570 0.922022 0.064455
O O6 0.314107 0.750000 0.647293
O O7 0.352144 0.570539 0.748096
O O8 0.500000 0.429397 0.131079
O O9 0.390314 0.250000 0.148667
#
# Coordination Sequence:
#
# PCOD8281017 Si02
#       4
#    16   4  16  16
#     4   8  12  20  39  72 111 144 177 220 265 315
#     4  12  24  40  60  86 112 140 188 252 296 330
#     4   8  14  25  45  75 109 145 183 220 266 331
#     4  10  21  39  62  85 112 149 189 231 285 343
#
# _framework density 23.225854000000002
#
# number of rings (size 3 to 8) (size 9 to 14) (size 15 to 20)
#    0.000    3.077    0.000    3.692    0.000    3.692 
#    0.000    3.077    0.000   11.077    0.000   10.769 
#    0.000    0.000    0.000    0.000    0.000    0.615 
#
# Total GULP energy -322514.323504 kJ/mol
# GULP energy per Si atom -12404.397058 kJ/mol
# Density = 2.317299 g / cm^3
# Si number density = 23.225854 Si / 1000 Ang^3
#
#
#
# Elastic Constant Matrix: (Units=GPa)
#
#
# Indices 1 2 3 4 5 6 
#
# 1 223.1490 38.7194 104.7367 0.0000 0.0000 0.0000
# 2 38.7194 71.8104 43.3521 0.0000 0.0000 0.0000
# 3 104.7367 43.3521 168.4066 0.0000 0.0000 0.0000
# 4 0.0000 0.0000 0.0000 34.2375 0.0000 0.0000
# 5 0.0000 0.0000 0.0000 0.0000 38.6112 0.0000
# 6 0.0000 0.0000 0.0000 0.0000 0.0000 39.7334
#
#
#
# Elastic Compliance Matrix: (Units=1/GPa)
#
#
# Indices 1 2 3 4 5 6 
#
# 1 0.006421 -0.001245 -0.003673 0.000000 0.000000 0.000000
# 2 -0.001245 0.016729 -0.003532 0.000000 0.000000 0.000000
# 3 -0.003673 -0.003532 0.009132 0.000000 0.000000 0.000000
# 4 0.000000 0.000000 0.000000 0.029208 0.000000 0.000000
# 5 0.000000 0.000000 0.000000 0.000000 0.025899 0.000000
# 6 0.000000 0.000000 0.000000 0.000000 0.000000 0.025168
#
#
# Mechanical properties :
#
#
# Convention : Reuss Voigt Hill
#
# Bulk Modulus (GPa) = 65.01233 92.99805 79.00519
# Shear Modulus (GPa) = 37.15127 40.95359 39.05243
#
# Velocity S-wave (km/s) = 4.00380 4.20369 4.10496
# Velocity P-wave (km/s) = 7.03036 7.98054 7.52047
#
# Compressibility (1/GPa) = 0.01538170
#
# Stress axis : x y z
#
# Youngs Moduli (GPa) = 155.73105 59.77561 109.50798
#
# Poissons Ratio (x) = 0.07441 0.40224
# Poissons Ratio (y) = 0.19386 0.38682
# Poissons Ratio (z) = 0.57202 0.21115
#
# Static dielectric constant tensor:
#      x y z
#    x 4.489440 0.000000 0.000000 
#    y 0.000000 4.919320 0.000000 
#    z 0.000000 0.000000 4.186920 
# 
# 
# High freq. dielectric constant tensor:
#      x y z
#    x 1.934300 0.000000 0.000000 
#    y 0.000000 1.987940 0.000000 
#    z 0.000000 0.000000 1.891270 
# 
# From -- ./inp_files/17224.got.cif
#   From: 2010.03.12/outbox.cif.g09.slc.cpg/sg67_9_cif.got.tgz:17224.got - 2010.04.10 22:41:39.
