data_PCOD8281040
_publ_section_title
;
Structure prediction by ZEFSAII (Michael W. Deem and Ramdas Pophale) SiO2 
 PCOD8281040
Probable space group: C M M A
;
_chemical_formula_sum "Si O2"
_cell_formula_units_Z 60
_cell_length_a 10.340175
_cell_length_b 9.258758
_cell_length_c 30.842748
_cell_angle_alpha 90.000000
_cell_angle_beta 90.000000
_cell_angle_gamma 90.000000
_cell_volume 2952.797655
_symmetry_space_group_name_H-M "C M M A"
_symmetry_group_IT_number 67
_symmetry_cell_setting 'orthorhombic'
loop_
_space_group_symop_operation_xyz
x,y,z
-x,1/2-y,z
x,-y,-z
-x,1/2+y,-z
-x,-y,-z
x,1/2+y,-z
-x,y,z
x,1/2-y,z
1/2+x,1/2+y,z
1/2-x,-y,z
1/2+x,1/2-y,-z
1/2-x,y,-z
1/2-x,1/2-y,-z
1/2+x,y,-z
1/2-x,1/2+y,z
1/2+x,-y,z
loop_
_atom_site_type_symbol
_atom_site_label
_atom_site_fract_x
_atom_site_fract_y
_atom_site_fract_z
Si Si1 0.854930 0.250000 0.943262
Si Si2 0.750000 0.500000 0.000000
Si Si3 0.750000 0.000000 0.188634
Si Si4 0.847009 0.250000 0.658714
Si Si5 0.855258 0.250000 0.132009
Si Si6 0.145624 0.250000 0.753868
Si Si7 0.750000 0.500000 0.400469
Si Si8 0.500000 0.583795 0.455441
O O1 0.840100 0.395937 0.971197
O O2 0.750673 0.250000 0.905370
O O3 0.000000 0.250000 0.923653
O O4 0.841482 0.102901 0.159667
O O5 0.667895 0.105503 0.218711
O O6 0.781876 0.250000 0.707266
O O7 0.796759 0.382698 0.632427
O O8 0.000000 0.250000 0.660259
O O9 0.000000 0.250000 0.112095
O O10 0.000000 0.250000 0.739748
O O11 0.630067 0.548106 0.429657
O O12 0.500000 0.750000 0.467801
O O13 0.500000 0.500000 0.500000
#
# Coordination Sequence:
#
# PCOD8281040 Si02
#       8
#     8   4   8   8   8   8   8   8
#     4  11  24  42  65  94 123 171 215 267 321 385
#     4  10  24  42  64  90 130 162 218 272 322 372
#     4  10  22  40  62  90 126 168 208 260 310 378
#     4  11  23  40  67  96 128 167 206 261 314 380
#     4  11  24  40  63  93 130 166 212 262 321 377
#     4  10  21  39  63  92 124 163 210 252 316 373
#     4  12  24  44  66  96 130 164 212 260 316 370
#     4  12  28  44  68  96 128 170 214 262 314 376
#
# _framework density 20.319713
#
# number of rings (size 3 to 8) (size 9 to 14) (size 15 to 20)
#    0.000    1.067    2.667    3.200    1.867    9.600 
#    0.000    0.000    2.933    0.000    0.000    0.000 
#    0.000    0.000    0.000    0.000    0.000    0.000 
#
# Total GULP energy -371855.959078 kJ/mol
# GULP energy per Si atom -12395.198636 kJ/mol
# Density = 2.027346 g / cm^3
# Si number density = 20.319713 Si / 1000 Ang^3
#
#
#
# Elastic Constant Matrix: (Units=GPa)
#
#
# Indices 1 2 3 4 5 6 
#
# 1 155.3339 56.4326 76.3473 0.0000 0.0000 0.0000
# 2 56.4326 180.8826 82.8059 0.0000 0.0000 0.0000
# 3 76.3473 82.8059 165.5712 0.0000 0.0000 0.0000
# 4 0.0000 0.0000 0.0000 30.7896 0.0000 0.0000
# 5 0.0000 0.0000 0.0000 0.0000 41.5797 0.0000
# 6 0.0000 0.0000 0.0000 0.0000 0.0000 19.2544
#
#
#
# Elastic Compliance Matrix: (Units=1/GPa)
#
#
# Indices 1 2 3 4 5 6 
#
# 1 0.008493 -0.001111 -0.003361 0.000000 0.000000 0.000000
# 2 -0.001111 0.007315 -0.003146 0.000000 0.000000 0.000000
# 3 -0.003361 -0.003146 0.009163 0.000000 0.000000 0.000000
# 4 0.000000 0.000000 0.000000 0.032478 0.000000 0.000000
# 5 0.000000 0.000000 0.000000 0.000000 0.024050 0.000000
# 6 0.000000 0.000000 0.000000 0.000000 0.000000 0.051936
#
#
# Mechanical properties :
#
#
# Convention : Reuss Voigt Hill
#
# Bulk Modulus (GPa) = 102.71862 103.66214 103.19038
# Shear Modulus (GPa) = 32.91261 37.40486 35.15873
#
# Velocity S-wave (km/s) = 4.02896 4.29513 4.16417
# Velocity P-wave (km/s) = 8.50320 8.70194 8.60314
#
# Compressibility (1/GPa) = 0.00973533
#
# Stress axis : x y z
#
# Youngs Moduli (GPa) = 117.74106 136.69707 109.13739
#
# Poissons Ratio (x) = 0.15192 0.36676
# Poissons Ratio (y) = 0.13085 0.34336
# Poissons Ratio (z) = 0.39567 0.43007
#
# Static dielectric constant tensor:
#      x y z
#    x 3.611770 0.000000 0.000000 
#    y 0.000000 3.947560 0.000000 
#    z 0.000000 0.000000 3.993600 
# 
# 
# High freq. dielectric constant tensor:
#      x y z
#    x 1.792920 0.000000 0.000000 
#    y 0.000000 1.817920 0.000000 
#    z 0.000000 0.000000 1.810410 
# 
# From -- ./inp_files/44005.got.cif
#   From: 2010.03.12/outbox.cif.g09.slc.cpg/sg67_23_cif.got.tgz:44005.got - 2010.04.10 22:41:39.
