data_PCOD8281314
_publ_section_title
;
Structure prediction by ZEFSAII (Michael W. Deem and Ramdas Pophale) SiO2 
 PCOD8281314
Probable space group: C M M A
;
_chemical_formula_sum "Si O2"
_cell_formula_units_Z 56
_cell_length_a 15.407847
_cell_length_b 9.906066
_cell_length_c 17.568695
_cell_angle_alpha 90.000000
_cell_angle_beta 90.000000
_cell_angle_gamma 90.000000
_cell_volume 2681.530110
_symmetry_space_group_name_H-M "C M M A"
_symmetry_group_IT_number 67
_symmetry_cell_setting 'orthorhombic'
loop_
_space_group_symop_operation_xyz
x,y,z
-x,1/2-y,z
x,-y,-z
-x,1/2+y,-z
-x,-y,-z
x,1/2+y,-z
-x,y,z
x,1/2-y,z
1/2+x,1/2+y,z
1/2-x,-y,z
1/2+x,1/2-y,-z
1/2-x,y,-z
1/2-x,1/2-y,-z
1/2+x,y,-z
1/2-x,1/2+y,z
1/2+x,-y,z
loop_
_atom_site_type_symbol
_atom_site_label
_atom_site_fract_x
_atom_site_fract_y
_atom_site_fract_z
Si Si1 0.671061 0.095897 0.832058
Si Si2 0.500000 0.407371 0.926669
Si Si3 0.835403 0.750000 0.399670
Si Si4 0.402501 0.514921 0.325182
Si Si5 0.634086 0.250000 0.567663
O O1 0.698794 0.250000 0.848156
O O2 0.585344 0.056073 0.878561
O O3 0.651583 0.081015 0.742862
O O4 0.750000 0.000000 0.858039
O O5 0.500000 0.250000 0.949787
O O6 0.500000 0.500000 0.000000
O O7 0.855472 0.621113 0.349020
O O8 0.735948 0.750000 0.420803
O O9 0.890258 0.750000 0.478120
O O10 0.500000 0.482622 0.298142
O O11 0.406874 0.616919 0.395798
#
# Coordination Sequence:
#
# PCOD8281314 Si02
#       5
#    16   8   8  16   8
#     4  11  24  44  70 100 136 178 222 268 325 389
#     4  10  24  48  74 106 141 175 216 260 323 395
#     4  11  25  41  57  93 125 168 223 283 331 393
#     4  12  24  40  62  91 128 169 224 274 329 389
#     4  11  23  41  65  83 125 174 221 275 339 391
#
# _framework density 20.883599
#
# number of rings (size 3 to 8) (size 9 to 14) (size 15 to 20)
#    0.000    0.857    2.857    4.286    2.000    7.429 
#    0.000    2.857    0.000    0.000    0.000    0.000 
#    0.000    0.000    0.000    0.000    0.000    0.000 
#
# Total GULP energy -347363.609664 kJ/mol
# GULP energy per Si atom -12405.843202 kJ/mol
# Density = 2.083607 g / cm^3
# Si number density = 20.883599 Si / 1000 Ang^3
#
#
#
# Elastic Constant Matrix: (Units=GPa)
#
#
# Indices 1 2 3 4 5 6 
#
# 1 136.1067 49.7743 33.6770 0.0000 0.0000 0.0000
# 2 49.7743 123.0738 46.3426 0.0000 0.0000 0.0000
# 3 33.6770 46.3426 101.1123 0.0000 0.0000 0.0000
# 4 0.0000 0.0000 0.0000 36.3661 0.0000 0.0000
# 5 0.0000 0.0000 0.0000 0.0000 25.5667 0.0000
# 6 0.0000 0.0000 0.0000 0.0000 0.0000 42.7564
#
#
#
# Elastic Compliance Matrix: (Units=1/GPa)
#
#
# Indices 1 2 3 4 5 6 
#
# 1 0.008825 -0.002976 -0.001575 0.000000 0.000000 0.000000
# 2 -0.002976 0.010823 -0.003970 0.000000 0.000000 0.000000
# 3 -0.001575 -0.003970 0.012234 0.000000 0.000000 0.000000
# 4 0.000000 0.000000 0.000000 0.027498 0.000000 0.000000
# 5 0.000000 0.000000 0.000000 0.000000 0.039113 0.000000
# 6 0.000000 0.000000 0.000000 0.000000 0.000000 0.023388
#
#
# Mechanical properties :
#
#
# Convention : Reuss Voigt Hill
#
# Bulk Modulus (GPa) = 67.38088 68.87562 68.12825
# Shear Modulus (GPa) = 34.75324 36.30443 35.52884
#
# Velocity S-wave (km/s) = 4.08381 4.17396 4.12913
# Velocity P-wave (km/s) = 7.38727 7.50210 7.44491
#
# Compressibility (1/GPa) = 0.01484101
#
# Stress axis : x y z
#
# Youngs Moduli (GPa) = 113.31063 92.39198 81.73906
#
# Poissons Ratio (x) = 0.27496 0.12877
# Poissons Ratio (y) = 0.33721 0.32446
# Poissons Ratio (z) = 0.17851 0.36675
#
# Static dielectric constant tensor:
#      x y z
#    x 3.911870 0.000000 0.000000 
#    y 0.000000 3.731610 0.000000 
#    z 0.000000 0.000000 3.750750 
# 
# 
# High freq. dielectric constant tensor:
#      x y z
#    x 1.833200 0.000000 0.000000 
#    y 0.000000 1.823970 0.000000 
#    z 0.000000 0.000000 1.808280 
# 
# From -- ./inp_files/31661.got.cif
#   From: 2010.03.12/outbox.cif.g09.slc.cpg/sg67_16_cif.got.tgz:31661.got - 2010.04.10 22:41:39.
