data_PCOD8281232
_publ_section_title
;
Structure prediction by ZEFSAII (Michael W. Deem and Ramdas Pophale) SiO2 
 PCOD8281232
Probable space group: C M M A
;
_chemical_formula_sum "Si O2"
_cell_formula_units_Z 84
_cell_length_a 16.168182
_cell_length_b 21.623215
_cell_length_c 13.384407
_cell_angle_alpha 90.000000
_cell_angle_beta 90.000000
_cell_angle_gamma 90.000000
_cell_volume 4679.296774
_symmetry_space_group_name_H-M "C M M A"
_symmetry_group_IT_number 67
_symmetry_cell_setting 'orthorhombic'
loop_
_space_group_symop_operation_xyz
x,y,z
-x,1/2-y,z
x,-y,-z
-x,1/2+y,-z
-x,-y,-z
x,1/2+y,-z
-x,y,z
x,1/2-y,z
1/2+x,1/2+y,z
1/2-x,-y,z
1/2+x,1/2-y,-z
1/2-x,y,-z
1/2-x,1/2-y,-z
1/2+x,y,-z
1/2-x,1/2+y,z
1/2+x,-y,z
loop_
_atom_site_type_symbol
_atom_site_label
_atom_site_fract_x
_atom_site_fract_y
_atom_site_fract_z
Si Si1 0.092005 0.182200 0.996665
Si Si2 0.825173 0.142469 0.184899
Si Si3 0.000000 0.250000 0.491215
Si Si4 0.136440 0.614539 0.198429
Si Si5 0.346880 0.009617 0.887608
Si Si6 0.500000 0.818882 0.682407
Si Si7 0.091108 0.250000 0.299770
O O1 0.097530 0.250000 0.948437
O O2 0.162818 0.178355 0.080870
O O3 0.000000 0.170589 0.042077
O O4 0.108178 0.134012 0.910707
O O5 0.730601 0.134240 0.216745
O O6 0.868427 0.075709 0.163550
O O7 0.864602 0.185656 0.270460
O O8 0.000000 0.311264 0.561872
O O9 0.918370 0.250000 0.420731
O O10 0.121937 0.540736 0.193530
O O11 0.081672 0.644147 0.285462
O O12 0.250000 0.000000 0.900724
O O13 0.385717 0.000000 0.000000
O O14 0.500000 0.750000 0.732290
O O15 0.000000 0.250000 0.248527
#
# Coordination Sequence:
#
# PCOD8281232 Si02
#       7
#    16  16   4  16  16   8   8
#     4  11  21  31  46  81 125 162 191 227 271 326
#     4  11  21  34  59  83 117 160 197 230 273 334
#     4   8  24  46  66  74 118 138 168 266 326 346
#     4  11  21  35  56  84 120 160 195 227 274 337
#     4   9  18  34  50  79 126 167 194 221 257 317
#     4  10  22  42  59  85 110 141 185 245 307 353
#     4  10  22  43  60  85 106 139 191 249 303 350
#
# _framework density 17.951415999999998
#
# number of rings (size 3 to 8) (size 9 to 14) (size 15 to 20)
#    0.571    1.143    3.810    1.714    2.667    0.762 
#    3.429    3.333    0.000    2.286    0.000    4.000 
#    0.000    0.000    0.000    0.000    0.000    0.000 
#
# Total GULP energy -520319.857004 kJ/mol
# GULP energy per Si atom -12388.568024 kJ/mol
# Density = 1.791056 g / cm^3
# Si number density = 17.951416 Si / 1000 Ang^3
#
#
#
# Elastic Constant Matrix: (Units=GPa)
#
#
# Indices 1 2 3 4 5 6 
#
# 1 77.6803 53.3080 35.3791 0.0000 0.0000 0.0000
# 2 53.3080 141.3632 51.8587 0.0000 0.0000 0.0000
# 3 35.3791 51.8587 112.1503 0.0000 0.0000 0.0000
# 4 0.0000 0.0000 0.0000 6.6877 0.0000 0.0000
# 5 0.0000 0.0000 0.0000 0.0000 13.6087 0.0000
# 6 0.0000 0.0000 0.0000 0.0000 0.0000 20.7946
#
#
#
# Elastic Compliance Matrix: (Units=1/GPa)
#
#
# Indices 1 2 3 4 5 6 
#
# 1 0.018218 -0.005735 -0.003096 0.000000 0.000000 0.000000
# 2 -0.005735 0.010324 -0.002965 0.000000 0.000000 0.000000
# 3 -0.003096 -0.002965 0.011264 0.000000 0.000000 0.000000
# 4 0.000000 0.000000 0.000000 0.149529 0.000000 0.000000
# 5 0.000000 0.000000 0.000000 0.000000 0.073482 0.000000
# 6 0.000000 0.000000 0.000000 0.000000 0.000000 0.048090
#
#
# Mechanical properties :
#
#
# Convention : Reuss Voigt Hill
#
# Bulk Modulus (GPa) = 61.66477 68.03170 64.84823
# Shear Modulus (GPa) = 14.71008 20.92805 17.81907
#
# Velocity S-wave (km/s) = 2.86569 3.41811 3.15402
# Velocity P-wave (km/s) = 6.73610 7.31833 7.03324
#
# Compressibility (1/GPa) = 0.01621672
#
# Stress axis : x y z
#
# Youngs Moduli (GPa) = 54.88929 96.86037 88.77769
#
# Poissons Ratio (x) = 0.55545 0.27482
# Poissons Ratio (y) = 0.31477 0.26321
# Poissons Ratio (z) = 0.16991 0.28718
#
# Static dielectric constant tensor:
#      x y z
#    x 3.360240 0.000000 0.000000 
#    y 0.000000 3.648660 0.000000 
#    z 0.000000 0.000000 2.897320 
# 
# 
# High freq. dielectric constant tensor:
#      x y z
#    x 1.690150 0.000000 0.000000 
#    y 0.000000 1.711940 0.000000 
#    z 0.000000 0.000000 1.643110 
# 
# From -- ./inp_files/27108.got.cif
#   From: 2010.03.12/outbox.cif.g09.slc.cpg/sg67_14_cif.got.tgz:27108.got - 2010.04.10 22:41:39.
