data_PCOD8281322
_publ_section_title
;
Structure prediction by ZEFSAII (Michael W. Deem and Ramdas Pophale) SiO2 
 PCOD8281322
Probable space group: C M M A
;
_chemical_formula_sum "Si O2"
_cell_formula_units_Z 128
_cell_length_a 27.692077
_cell_length_b 23.171131
_cell_length_c 12.553092
_cell_angle_alpha 90.000000
_cell_angle_beta 90.000000
_cell_angle_gamma 90.000000
_cell_volume 8054.776138
_symmetry_space_group_name_H-M "C M M A"
_symmetry_group_IT_number 67
_symmetry_cell_setting 'orthorhombic'
loop_
_space_group_symop_operation_xyz
x,y,z
-x,1/2-y,z
x,-y,-z
-x,1/2+y,-z
-x,-y,-z
x,1/2+y,-z
-x,y,z
x,1/2-y,z
1/2+x,1/2+y,z
1/2-x,-y,z
1/2+x,1/2-y,-z
1/2-x,y,-z
1/2-x,1/2-y,-z
1/2+x,y,-z
1/2-x,1/2+y,z
1/2+x,-y,z
loop_
_atom_site_type_symbol
_atom_site_label
_atom_site_fract_x
_atom_site_fract_y
_atom_site_fract_z
Si Si1 0.193116 0.997930 0.120591
Si Si2 0.350821 0.119982 0.191632
Si Si3 0.306109 0.183640 0.378863
Si Si4 0.850724 0.613436 0.805440
Si Si5 0.804827 0.183560 0.376235
Si Si6 0.805262 0.182218 0.001983
Si Si7 0.554234 0.068227 0.122186
Si Si8 0.054127 0.564482 0.871914
O O1 0.173922 0.051146 0.188783
O O2 0.250000 0.000000 0.117416
O O3 0.176805 0.939739 0.176601
O O4 0.171847 0.000000 0.000000
O O5 0.340983 0.143463 0.309620
O O6 0.408300 0.110754 0.180224
O O7 0.331333 0.166822 0.107967
O O8 0.320578 0.250000 0.361621
O O9 0.250782 0.174029 0.343126
O O10 0.312890 0.166060 0.501480
O O11 0.838710 0.642848 0.693647
O O12 0.832784 0.652673 0.901595
O O13 0.908598 0.605615 0.810128
O O14 0.819180 0.250000 0.357250
O O15 0.807158 0.250000 0.020626
O O16 0.750000 0.159876 0.000000
O O17 0.500000 0.084523 0.158900
O O18 0.566062 0.002244 0.153007
O O19 0.559474 0.076291 0.996588
O O20 0.000000 0.579657 0.833540
#
# Coordination Sequence:
#
# PCOD8281322 Si02
#       8
#    16  16  16  16  16  16  16  16
#     4  11  20  28  42  72 110 139 154 189 253 316
#     4  12  19  31  51  74 102 133 167 207 252 302
#     4   9  19  36  55  73  97 135 179 214 245 290
#     4  12  19  31  51  74 102 133 167 207 252 302
#     4   9  19  36  55  73  97 135 179 214 245 290
#     4  11  22  31  44  71 104 135 167 202 242 300
#     4   9  17  31  50  73 100 133 172 205 243 301
#     4   9  17  31  50  73 100 133 172 205 243 301
#
# _framework density 15.891192999999999
#
# number of rings (size 3 to 8) (size 9 to 14) (size 15 to 20)
#    0.000    1.750    3.750    4.500    0.000    2.000 
#    0.000    0.625    0.000    6.750    0.000    3.500 
#    0.000    0.000    0.000    0.000    0.000    0.000 
#
# Total GULP energy -793709.002270 kJ/mol
# GULP energy per Si atom -12401.703160 kJ/mol
# Density = 1.585502 g / cm^3
# Si number density = 15.891193 Si / 1000 Ang^3
#
#
#
# Elastic Constant Matrix: (Units=GPa)
#
#
# Indices 1 2 3 4 5 6 
#
# 1 112.8716 40.2053 41.7033 0.0000 0.0000 0.0000
# 2 40.2053 62.7444 34.8029 0.0000 0.0000 0.0000
# 3 41.7033 34.8029 74.5972 0.0000 0.0000 0.0000
# 4 0.0000 0.0000 0.0000 31.5387 0.0000 0.0000
# 5 0.0000 0.0000 0.0000 0.0000 22.4319 0.0000
# 6 0.0000 0.0000 0.0000 0.0000 0.0000 10.0217
#
#
#
# Elastic Compliance Matrix: (Units=1/GPa)
#
#
# Indices 1 2 3 4 5 6 
#
# 1 0.012453 -0.005556 -0.004370 0.000000 0.000000 0.000000
# 2 -0.005556 0.023981 -0.008082 0.000000 0.000000 0.000000
# 3 -0.004370 -0.008082 0.019619 0.000000 0.000000 0.000000
# 4 0.000000 0.000000 0.000000 0.031707 0.000000 0.000000
# 5 0.000000 0.000000 0.000000 0.000000 0.044579 0.000000
# 6 0.000000 0.000000 0.000000 0.000000 0.000000 0.099784
#
#
# Mechanical properties :
#
#
# Convention : Reuss Voigt Hill
#
# Bulk Modulus (GPa) = 49.90709 53.73735 51.82222
# Shear Modulus (GPa) = 18.19387 21.69857 19.94622
#
# Velocity S-wave (km/s) = 3.38731 3.69920 3.54669
# Velocity P-wave (km/s) = 6.83902 7.22044 7.03231
#
# Compressibility (1/GPa) = 0.02003723
#
# Stress axis : x y z
#
# Youngs Moduli (GPa) = 80.30061 41.70014 50.97122
#
# Poissons Ratio (x) = 0.23168 0.22274
# Poissons Ratio (y) = 0.44614 0.41195
# Poissons Ratio (z) = 0.35090 0.33702
#
# Static dielectric constant tensor:
#      x y z
#    x 3.157600 0.000000 0.000000 
#    y 0.000000 3.023670 0.000000 
#    z 0.000000 0.000000 2.819160 
# 
# 
# High freq. dielectric constant tensor:
#      x y z
#    x 1.607780 0.000000 0.000000 
#    y 0.000000 1.609150 0.000000 
#    z 0.000000 0.000000 1.585540 
# 
# From -- ./inp_files/23251.got.cif
#   From: 2010.03.12/outbox.cif.g09.slc.cpg/sg67_12_cif.got.tgz:23251.got - 2010.04.10 22:41:39.
