data_PCOD8281966
_publ_section_title
;
Structure prediction by ZEFSAII (Michael W. Deem and Ramdas Pophale) SiO2 
 PCOD8281966
Probable space group: C C C A
;
_chemical_formula_sum "Si O2"
_cell_formula_units_Z 116
_cell_length_a 12.297351
_cell_length_b 27.381311
_cell_length_c 17.849914
_cell_angle_alpha 90.000000
_cell_angle_beta 90.000000
_cell_angle_gamma 90.000000
_cell_volume 6010.380063
_symmetry_space_group_name_H-M "C C C A"
_symmetry_group_IT_number 68
_space_group.IT_coordinate_system_code '2'
_symmetry_cell_setting 'orthorhombic'
loop_
_space_group_symop_operation_xyz
x,y,z
-x,1/2-y,z
x,1/2-y,1/2-z
-x,y,1/2-z
-x,-y,-z
x,1/2+y,-z
-x,1/2+y,1/2+z
x,-y,1/2+z
1/2+x,1/2+y,z
1/2-x,-y,z
1/2+x,-y,1/2-z
1/2-x,1/2+y,1/2-z
1/2-x,1/2-y,-z
1/2+x,y,-z
1/2-x,y,1/2+z
1/2+x,1/2-y,1/2+z
loop_
_atom_site_type_symbol
_atom_site_label
_atom_site_fract_x
_atom_site_fract_y
_atom_site_fract_z
Si Si1 0.668975 0.237477 0.935574
Si Si2 0.613186 0.906614 0.783302
Si Si3 0.641295 0.689010 0.635929
Si Si4 0.520874 0.974545 0.899501
Si Si5 0.287609 0.553097 0.642268
Si Si6 0.577747 0.068611 0.553081
Si Si7 0.532960 0.678572 0.474014
Si Si8 0.500000 0.750000 0.750000
O O1 0.740983 0.215756 0.867864
O O2 0.590523 0.195929 0.968620
O O3 0.603711 0.287713 0.916012
O O4 0.750000 0.250000 0.000000
O O5 0.500000 0.886415 0.750000
O O6 0.662183 0.866789 0.839633
O O7 0.588712 0.957735 0.826751
O O8 0.700521 0.915064 0.717576
O O9 0.576745 0.687684 0.557667
O O10 0.573259 0.716275 0.698380
O O11 0.402638 0.948320 0.901183
O O12 0.501203 0.033355 0.897209
O O13 0.587584 0.957501 0.972417
O O14 0.250000 0.500000 0.668275
O O15 0.198105 0.575531 0.586867
O O16 0.529237 0.122388 0.549048
#
# Coordination Sequence:
#
# PCOD8281966 Si02
#       8
#    16  16  16  16  16  16  16   4
#     4   9  20  37  57  82 116 152 191 245 303 356
#     4  10  19  38  58  83 125 159 189 245 303 356
#     4  11  21  37  57  90 115 153 201 244 306 353
#     4   9  19  36  57  87 121 150 195 251 294 352
#     4   9  20  37  57  84 120 161 195 234 300 363
#     4  10  19  35  61  90 116 153 201 249 299 356
#     4  10  20  38  60  87 120 149 193 255 311 354
#     4  12  24  36  60  86 120 148 208 258 284 372
#
# _framework density 19.299945000000001
#
# number of rings (size 3 to 8) (size 9 to 14) (size 15 to 20)
#    0.000    2.207    2.069    1.655    0.000    3.310 
#    2.483    2.069    0.000    4.966    0.000    0.000 
#    0.000    0.000    0.000    0.000    0.000    0.000 
#
# Total GULP energy -718872.757724 kJ/mol
# GULP energy per Si atom -12394.357892 kJ/mol
# Density = 1.925602 g / cm^3
# Si number density = 19.299945 Si / 1000 Ang^3
#
#
#
# Elastic Constant Matrix: (Units=GPa)
#
#
# Indices 1 2 3 4 5 6 
#
# 1 105.5121 50.9717 56.8475 0.0000 0.0000 0.0000
# 2 50.9717 138.3041 45.7329 0.0000 0.0000 0.0000
# 3 56.8475 45.7329 93.7822 0.0000 0.0000 0.0000
# 4 0.0000 0.0000 0.0000 31.3411 0.0000 0.0000
# 5 0.0000 0.0000 0.0000 0.0000 38.3071 0.0000
# 6 0.0000 0.0000 0.0000 0.0000 0.0000 21.4596
#
#
#
# Elastic Compliance Matrix: (Units=1/GPa)
#
#
# Indices 1 2 3 4 5 6 
#
# 1 0.015062 -0.003019 -0.007658 0.000000 0.000000 0.000000
# 2 -0.003019 0.009226 -0.002669 0.000000 0.000000 0.000000
# 3 -0.007658 -0.002669 0.016606 0.000000 0.000000 0.000000
# 4 0.000000 0.000000 0.000000 0.031907 0.000000 0.000000
# 5 0.000000 0.000000 0.000000 0.000000 0.026105 0.000000
# 6 0.000000 0.000000 0.000000 0.000000 0.000000 0.046599
#
#
# Mechanical properties :
#
#
# Convention : Reuss Voigt Hill
#
# Bulk Modulus (GPa) = 70.40945 71.63361 71.02153
# Shear Modulus (GPa) = 28.25974 30.49131 29.37552
#
# Velocity S-wave (km/s) = 3.83069 3.97906 3.90558
# Velocity P-wave (km/s) = 7.49176 7.63591 7.56418
#
# Compressibility (1/GPa) = 0.01420264
#
# Stress axis : x y z
#
# Youngs Moduli (GPa) = 66.39321 108.39457 60.21769
#
# Poissons Ratio (x) = 0.32722 0.46114
# Poissons Ratio (y) = 0.20043 0.16072
# Poissons Ratio (z) = 0.50843 0.28930
#
# Static dielectric constant tensor:
#      x y z
#    x 3.665970 0.000000 0.000000 
#    y 0.000000 3.779090 0.000000 
#    z 0.000000 0.000000 3.454460 
# 
# 
# High freq. dielectric constant tensor:
#      x y z
#    x 1.743920 0.000000 0.000000 
#    y 0.000000 1.758130 0.000000 
#    z 0.000000 0.000000 1.732900 
# 
# From -- ./inp_files/30089.got.cif
#   From: 2010.03.12/outbox.cif.g09.slc.cpg/sg68_16_cif.got.tgz:30089.got - 2010.04.10 23:14:56.
