data_PCOD8281781
_publ_section_title
;
Structure prediction by ZEFSAII (Michael W. Deem and Ramdas Pophale) SiO2 
 PCOD8281781
Probable space group: C C C A
;
_chemical_formula_sum "Si O2"
_cell_formula_units_Z 80
_cell_length_a 24.347971
_cell_length_b 8.275701
_cell_length_c 20.594703
_cell_angle_alpha 90.000000
_cell_angle_beta 90.000000
_cell_angle_gamma 90.000000
_cell_volume 4149.761149
_symmetry_space_group_name_H-M "C C C A"
_symmetry_group_IT_number 68
_space_group.IT_coordinate_system_code '2'
_symmetry_cell_setting 'orthorhombic'
loop_
_space_group_symop_operation_xyz
x,y,z
-x,1/2-y,z
x,1/2-y,1/2-z
-x,y,1/2-z
-x,-y,-z
x,1/2+y,-z
-x,1/2+y,1/2+z
x,-y,1/2+z
1/2+x,1/2+y,z
1/2-x,-y,z
1/2+x,-y,1/2-z
1/2-x,1/2+y,1/2-z
1/2-x,1/2-y,-z
1/2+x,y,-z
1/2-x,y,1/2+z
1/2+x,1/2-y,1/2+z
loop_
_atom_site_type_symbol
_atom_site_label
_atom_site_fract_x
_atom_site_fract_y
_atom_site_fract_z
Si Si1 0.621291 0.268976 0.523102
Si Si2 0.311270 0.557318 0.930760
Si Si3 0.018367 0.568643 0.316987
Si Si4 0.073272 0.464524 0.589373
Si Si5 0.630537 0.215007 0.322774
O O1 0.646721 0.408471 0.567035
O O2 0.671817 0.185989 0.485473
O O3 0.576149 0.343591 0.472760
O O4 0.593581 0.141997 0.571170
O O5 0.250000 0.500000 0.943156
O O6 0.316995 0.644308 0.860915
O O7 0.083903 0.574075 0.326359
O O8 0.000000 0.750000 0.306960
O O9 0.000000 0.475161 0.250000
O O10 0.988286 0.504906 0.382480
O O11 0.110153 0.384306 0.646066
O O12 0.649521 0.250000 0.250000
#
# Coordination Sequence:
#
# PCOD8281781 Si02
#       5
#    16  16  16  16  16
#     4   9  19  35  54  82 113 138 177 233 274 330
#     4  10  20  36  57  78 107 148 187 227 279 327
#     4   9  14  29  55  78  98 142 185 210 259 333
#     4   9  17  32  55  82 106 140 176 221 278 324
#     4  10  18  34  55  77 104 143 191 224 265 333
#
# _framework density 19.278217999999999
#
# number of rings (size 3 to 8) (size 9 to 14) (size 15 to 20)
#    0.000    2.600    4.000    0.600    0.000    0.000 
#    0.000   31.000    0.000    1.200    0.000    0.000 
#    0.000    0.000    0.000    0.000    0.000    0.000 
#
# Total GULP energy -495652.845662 kJ/mol
# GULP energy per Si atom -12391.321142 kJ/mol
# Density = 1.923434 g / cm^3
# Si number density = 19.278218 Si / 1000 Ang^3
#
#
#
# Elastic Constant Matrix: (Units=GPa)
#
#
# Indices 1 2 3 4 5 6 
#
# 1 53.6416 -0.9973 27.5527 0.0000 0.0000 0.0000
# 2 -0.9973 61.8669 36.2210 0.0000 0.0000 0.0000
# 3 27.5527 36.2210 115.2093 0.0000 0.0000 0.0000
# 4 0.0000 0.0000 0.0000 12.0192 0.0000 0.0000
# 5 0.0000 0.0000 0.0000 0.0000 -5.4401 0.0000
# 6 0.0000 0.0000 0.0000 0.0000 0.0000 12.9425
#
#
#
# Elastic Compliance Matrix: (Units=1/GPa)
#
#
# Indices 1 2 3 4 5 6 
#
# 1 0.022122 0.004233 -0.006621 0.000000 0.000000 0.000000
# 2 0.004233 0.020620 -0.007495 0.000000 0.000000 0.000000
# 3 -0.006621 -0.007495 0.012620 0.000000 0.000000 0.000000
# 4 0.000000 0.000000 0.000000 0.083200 0.000000 0.000000
# 5 0.000000 0.000000 0.000000 0.000000 -0.183819 0.000000
# 6 0.000000 0.000000 0.000000 0.000000 0.000000 0.077265
#
#
# Mechanical properties :
#
#
# Convention : Reuss Voigt Hill
#
# Bulk Modulus (GPa) = 28.09370 39.58563 33.83967
# Shear Modulus (GPa) = 78.56741 15.10040 46.83391
#
# Velocity S-wave (km/s) = 6.39085 2.80177 4.93421
# Velocity P-wave (km/s) = 8.31034 5.57180 7.07484
#
# Compressibility (1/GPa) = 0.03559517
#
# Stress axis : x y z
#
# Youngs Moduli (GPa) = 45.20376 48.49613 79.24014
#
# Poissons Ratio (x) = -0.20530 0.52469
# Poissons Ratio (y) = -0.19136 0.59392
# Poissons Ratio (z) = 0.29932 0.36349
#
# Static dielectric constant tensor:
#      x y z
#    x 3.471410 0.000000 0.000000 
#    y 0.000000 3.995080 0.000000 
#    z 0.000000 0.000000 3.816770 
# 
# 
# High freq. dielectric constant tensor:
#      x y z
#    x 1.721020 0.000000 0.000000 
#    y 0.000000 1.730610 0.000000 
#    z 0.000000 0.000000 1.757670 
# 
# From -- ./inp_files/28338.got.cif
#   From: 2010.03.12/outbox.cif.g09.slc.cpg/sg68_15_cif.got.tgz:28338.got - 2010.04.10 23:14:56.
