data_PCOD8281912
_publ_section_title
;
Structure prediction by ZEFSAII (Michael W. Deem and Ramdas Pophale) SiO2 
 PCOD8281912
Probable space group: C C C A
;
_chemical_formula_sum "Si O2"
_cell_formula_units_Z 72
_cell_length_a 18.467182
_cell_length_b 14.666187
_cell_length_c 13.997064
_cell_angle_alpha 90.000000
_cell_angle_beta 90.000000
_cell_angle_gamma 90.000000
_cell_volume 3791.008829
_symmetry_space_group_name_H-M "C C C A"
_symmetry_group_IT_number 68
_space_group.IT_coordinate_system_code '2'
_symmetry_cell_setting 'orthorhombic'
loop_
_space_group_symop_operation_xyz
x,y,z
-x,1/2-y,z
x,1/2-y,1/2-z
-x,y,1/2-z
-x,-y,-z
x,1/2+y,-z
-x,1/2+y,1/2+z
x,-y,1/2+z
1/2+x,1/2+y,z
1/2-x,-y,z
1/2+x,-y,1/2-z
1/2-x,1/2+y,1/2-z
1/2-x,1/2-y,-z
1/2+x,y,-z
1/2-x,y,1/2+z
1/2+x,1/2-y,1/2+z
loop_
_atom_site_type_symbol
_atom_site_label
_atom_site_fract_x
_atom_site_fract_y
_atom_site_fract_z
Si Si1 0.931551 0.973633 0.559226
Si Si2 0.182519 0.870118 0.433947
Si Si3 0.500000 0.023950 0.250000
Si Si4 0.629816 0.650287 0.728078
Si Si5 0.331140 0.665709 0.978128
O O1 0.903327 0.875351 0.525420
O O2 0.870649 0.049393 0.533432
O O3 0.958144 0.965521 0.669297
O O4 0.000000 0.000000 0.500000
O O5 0.179764 0.873999 0.318653
O O6 0.265584 0.882773 0.464950
O O7 0.159973 0.775044 0.485444
O O8 0.561765 0.086784 0.295805
O O9 0.597430 0.750000 0.750000
O O10 0.679740 0.644063 0.634168
#
# Coordination Sequence:
#
# PCOD8281912 Si02
#       5
#    16  16   8  16  16
#     4  11  21  36  57  84 114 149 185 232 286 337
#     4   9  21  36  57  84 111 146 190 232 281 337
#     4  10  19  34  52  85 112 142 190 234 279 339
#     4   9  17  32  57  82 106 142 189 240 279 321
#     4  10  19  38  58  83 113 146 189 236 284 335
#
# _framework density 18.992305999999999
#
# number of rings (size 3 to 8) (size 9 to 14) (size 15 to 20)
#    0.000    2.222    2.222    1.000    0.000    0.889 
#    4.000    2.222    0.000    1.333    0.000    0.000 
#    0.000    0.000    0.000    0.000    0.000    0.000 
#
# Total GULP energy -446045.018533 kJ/mol
# GULP energy per Si atom -12390.139404 kJ/mol
# Density = 1.894908 g / cm^3
# Si number density = 18.992306 Si / 1000 Ang^3
#
#
#
# Elastic Constant Matrix: (Units=GPa)
#
#
# Indices 1 2 3 4 5 6 
#
# 1 86.2381 29.3198 37.1268 0.0000 0.0000 0.0000
# 2 29.3198 52.8809 30.7082 0.0000 0.0000 0.0000
# 3 37.1268 30.7082 85.8520 0.0000 0.0000 0.0000
# 4 0.0000 0.0000 0.0000 26.1119 0.0000 0.0000
# 5 0.0000 0.0000 0.0000 0.0000 37.8838 0.0000
# 6 0.0000 0.0000 0.0000 0.0000 0.0000 32.7311
#
#
#
# Elastic Compliance Matrix: (Units=1/GPa)
#
#
# Indices 1 2 3 4 5 6 
#
# 1 0.015615 -0.005978 -0.004614 0.000000 0.000000 0.000000
# 2 -0.005978 0.026157 -0.006771 0.000000 0.000000 0.000000
# 3 -0.004614 -0.006771 0.016065 0.000000 0.000000 0.000000
# 4 0.000000 0.000000 0.000000 0.038297 0.000000 0.000000
# 5 0.000000 0.000000 0.000000 0.000000 0.026397 0.000000
# 6 0.000000 0.000000 0.000000 0.000000 0.000000 0.030552
#
#
# Mechanical properties :
#
#
# Convention : Reuss Voigt Hill
#
# Bulk Modulus (GPa) = 43.27034 46.58672 44.92853
# Shear Modulus (GPa) = 25.57389 27.86643 26.72016
#
# Velocity S-wave (km/s) = 3.67350 3.83462 3.75493
# Velocity P-wave (km/s) = 6.38947 6.64743 6.51973
#
# Compressibility (1/GPa) = 0.02311052
#
# Stress axis : x y z
#
# Youngs Moduli (GPa) = 64.04179 38.23101 62.24615
#
# Poissons Ratio (x) = 0.22855 0.28723
# Poissons Ratio (y) = 0.38284 0.42145
# Poissons Ratio (z) = 0.29551 0.25885
#
# Static dielectric constant tensor:
#      x y z
#    x 3.795390 0.000000 0.000000 
#    y 0.000000 3.515940 0.000000 
#    z 0.000000 0.000000 3.976840 
# 
# 
# High freq. dielectric constant tensor:
#      x y z
#    x 1.733770 0.000000 0.000000 
#    y 0.000000 1.728010 0.000000 
#    z 0.000000 0.000000 1.741610 
# 
# From -- ./inp_files/14180.got.cif
#   From: 2010.03.12/outbox.cif.g09.slc.cpg/sg68_8_cif.got.tgz:14180.got - 2010.04.10 23:14:56.
