data_PCOD8281609
_publ_section_title
;
Structure prediction by ZEFSAII (Michael W. Deem and Ramdas Pophale) SiO2 
 PCOD8281609
Probable space group: C M M A
;
_chemical_formula_sum "Si O2"
_cell_formula_units_Z 44
_cell_length_a 30.000000
_cell_length_b 9.000000
_cell_length_c 18.000000
_cell_angle_alpha 90.000000
_cell_angle_beta 90.000000
_cell_angle_gamma 90.000000
_cell_volume 4860.000000
_symmetry_space_group_name_H-M "C M M A"
_symmetry_group_IT_number 67
_symmetry_cell_setting 'orthorhombic'
loop_
_space_group_symop_operation_xyz
x,y,z
-x,1/2-y,z
x,-y,-z
-x,1/2+y,-z
-x,-y,-z
x,1/2+y,-z
-x,y,z
x,1/2-y,z
1/2+x,1/2+y,z
1/2-x,-y,z
1/2+x,1/2-y,-z
1/2-x,y,-z
1/2-x,1/2-y,-z
1/2+x,y,-z
1/2-x,1/2+y,z
1/2+x,-y,z
loop_
_atom_site_type_symbol
_atom_site_label
_atom_site_fract_x
_atom_site_fract_y
_atom_site_fract_z
Si Si1 0.449256 0.574925 0.077519
Si Si2 0.088937 0.920560 0.346957
Si Si3 0.000000 0.578457 0.423553
Si Si4 0.822909 0.918547 0.424715
Si Si5 0.619692 0.924858 0.204708
Si Si6 0.204852 0.927173 0.260931
O O1 0.500000 0.529280 0.101061
O O2 0.446287 0.750000 0.066731
O O3 0.413274 0.521401 0.138780
O O4 0.435994 0.500000 0.000000
O O5 0.090570 0.750000 0.317006
O O6 0.124052 0.936807 0.414368
O O7 0.041966 0.971036 0.376754
O O8 0.096404 0.036821 0.281840
O O9 0.000000 0.500000 0.500000
O O10 0.000000 0.750000 0.441084
O O11 0.808187 0.750000 0.436461
O O12 0.801882 0.979094 0.347132
O O13 0.806686 0.000000 0.500000
O O14 0.629118 0.750000 0.199419
O O15 0.666528 0.013293 0.205285
O O16 0.205904 0.750000 0.255775
O O17 0.250000 0.000000 0.231194
#
# Coordination Sequence:
#
# PCOD8281609 Si02
#       6
#    16  16   8  16  16  16
#     4   9  19  35  55  83 116 146 177 212 251 304
#     4   9  19  33  46  67  98 134 176 219 263 314
#     4  10  20  32  46  66  95 132 177 224 269 316
#     4   9  18  31  47  67  95 129 168 216 265 316
#     4  10  20  34  55  80 107 139 175 216 261 309
#     4  10  21  37  55  77 105 136 176 221 268 322
#
# _framework density 9.0534979999999994
#
# number of rings (size 3 to 8) (size 9 to 14) (size 15 to 20)
#    0.000    2.545    0.000    2.727    1.273    6.182 
#    0.000    1.818    0.000    0.545    0.000    3.818 
#    0.000    0.000    0.000    0.000    0.000    0.000 
#
# Total GULP energy -545342.003873 kJ/mol
# GULP energy per Si atom -12394.136452 kJ/mol
# Density = 0.903289 g / cm^3
# Si number density = 9.053498 Si / 1000 Ang^3
#
#
#
# Elastic Constant Matrix: (Units=GPa)
#
#
# Indices 1 2 3 4 5 6 
#
# 1 137.5875 40.7440 49.0492 0.0000 0.0000 0.0000
# 2 40.7440 52.2790 37.0204 0.0000 0.0000 0.0000
# 3 49.0492 37.0204 90.2919 0.0000 0.0000 0.0000
# 4 0.0000 0.0000 0.0000 32.4020 0.0000 0.0000
# 5 0.0000 0.0000 0.0000 0.0000 19.8189 0.0000
# 6 0.0000 0.0000 0.0000 0.0000 0.0000 26.0522
#
#
#
# Elastic Compliance Matrix: (Units=1/GPa)
#
#
# Indices 1 2 3 4 5 6 
#
# 1 0.010054 -0.005591 -0.003169 0.000000 0.000000 0.000000
# 2 -0.005591 0.030064 -0.009289 0.000000 0.000000 0.000000
# 3 -0.003169 -0.009289 0.016605 0.000000 0.000000 0.000000
# 4 0.000000 0.000000 0.000000 0.030862 0.000000 0.000000
# 5 0.000000 0.000000 0.000000 0.000000 0.050457 0.000000
# 6 0.000000 0.000000 0.000000 0.000000 0.000000 0.038384
#
#
# Mechanical properties :
#
#
# Convention : Reuss Voigt Hill
#
# Bulk Modulus (GPa) = 48.48725 59.30952 53.89838
# Shear Modulus (GPa) = 22.78955 25.87761 24.33358
#
# Velocity S-wave (km/s) = 3.55153 3.78451 3.66987
# Velocity P-wave (km/s) = 6.60713 7.20575 6.91292
#
# Compressibility (1/GPa) = 0.02062398
#
# Stress axis : x y z
#
# Youngs Moduli (GPa) = 99.46719 33.26287 60.22219
#
# Poissons Ratio (x) = 0.18598 0.19084
# Poissons Ratio (y) = 0.55615 0.55940
# Poissons Ratio (z) = 0.31520 0.30898
#
# Static dielectric constant tensor:
#      x y z
#    x 3.580150 0.000000 0.000000 
#    y 0.000000 3.198520 0.000000 
#    z 0.000000 0.000000 3.163970 
# 
# 
# High freq. dielectric constant tensor:
#      x y z
#    x 1.708490 0.000000 0.000000 
#    y 0.000000 1.699830 0.000000 
#    z 0.000000 0.000000 1.678490 
# 
# From -- ./inp_files/36162.got.cif
#   From: 2010.03.12/outbox.ucp.g09.slc.cvg/sg67_19_cif.got.tgz:36162.got - 2010.05.04 19:50:31.
