data_PCOD8281770
_publ_section_title
;
Structure prediction by ZEFSAII (Michael W. Deem and Ramdas Pophale) SiO2 
 PCOD8281770
Probable space group: C C C A
;
_chemical_formula_sum "Si O2"
_cell_formula_units_Z 64
_cell_length_a 17.257184
_cell_length_b 9.673933
_cell_length_c 17.733780
_cell_angle_alpha 90.000000
_cell_angle_beta 90.000000
_cell_angle_gamma 90.000000
_cell_volume 2960.563096
_symmetry_space_group_name_H-M "C C C A"
_symmetry_group_IT_number 68
_space_group.IT_coordinate_system_code '2'
_symmetry_cell_setting 'orthorhombic'
loop_
_space_group_symop_operation_xyz
x,y,z
-x,1/2-y,z
x,1/2-y,1/2-z
-x,y,1/2-z
-x,-y,-z
x,1/2+y,-z
-x,1/2+y,1/2+z
x,-y,1/2+z
1/2+x,1/2+y,z
1/2-x,-y,z
1/2+x,-y,1/2-z
1/2-x,1/2+y,1/2-z
1/2-x,1/2-y,-z
1/2+x,y,-z
1/2-x,y,1/2+z
1/2+x,1/2-y,1/2+z
loop_
_atom_site_type_symbol
_atom_site_label
_atom_site_fract_x
_atom_site_fract_y
_atom_site_fract_z
Si Si1 0.692164 0.622935 0.002476
Si Si2 0.134137 0.191870 0.852038
Si Si3 0.000000 0.432109 0.750000
Si Si4 0.129906 0.482624 0.344980
Si Si5 0.750000 0.000000 0.229026
O O1 0.750000 0.500000 0.986868
O O2 0.642713 0.604631 0.079190
O O3 0.750000 0.750000 0.000000
O O4 0.626042 0.635626 0.937602
O O5 0.059883 0.161440 0.799293
O O6 0.148667 0.355145 0.856695
O O7 0.211105 0.120100 0.820009
O O8 0.956905 0.529654 0.688892
O O9 0.187236 0.423248 0.281707
#
# Coordination Sequence:
#
# PCOD8281770 Si02
#       5
#    16  16   8  16   8
#     4  12  23  40  64  98 128 167 217 271 321 378
#     4  11  21  37  62  93 126 169 216 264 325 390
#     4  10  23  40  64  95 130 175 214 265 332 397
#     4  11  21  39  62  95 129 164 219 264 327 388
#     4  10  18  32  58  90 122 160 212 272 314 378
#
# _framework density 21.617508999999998
#
# number of rings (size 3 to 8) (size 9 to 14) (size 15 to 20)
#    0.000    1.000    5.000    4.500    0.000    1.000 
#    0.000    0.000    0.000    1.500    0.000    0.000 
#    0.000    0.000    0.000    0.000    0.000    0.000 
#
# Total GULP energy -396490.205074 kJ/mol
# GULP energy per Si atom -12390.318909 kJ/mol
# Density = 2.156831 g / cm^3
# Si number density = 21.617509 Si / 1000 Ang^3
#
#
#
# Elastic Constant Matrix: (Units=GPa)
#
#
# Indices 1 2 3 4 5 6 
#
# 1 117.8219 51.8375 70.3394 0.0000 0.0000 0.0000
# 2 51.8375 90.1178 57.9596 0.0000 0.0000 0.0000
# 3 70.3394 57.9596 195.0051 0.0000 0.0000 0.0000
# 4 0.0000 0.0000 0.0000 31.3960 0.0000 0.0000
# 5 0.0000 0.0000 0.0000 0.0000 46.5013 0.0000
# 6 0.0000 0.0000 0.0000 0.0000 0.0000 24.1290
#
#
#
# Elastic Compliance Matrix: (Units=1/GPa)
#
#
# Indices 1 2 3 4 5 6 
#
# 1 0.012606 -0.005350 -0.002957 0.000000 0.000000 0.000000
# 2 -0.005350 0.015989 -0.002823 0.000000 0.000000 0.000000
# 3 -0.002957 -0.002823 0.007034 0.000000 0.000000 0.000000
# 4 0.000000 0.000000 0.000000 0.031851 0.000000 0.000000
# 5 0.000000 0.000000 0.000000 0.000000 0.021505 0.000000
# 6 0.000000 0.000000 0.000000 0.000000 0.000000 0.041444
#
#
# Mechanical properties :
#
#
# Convention : Reuss Voigt Hill
#
# Bulk Modulus (GPa) = 74.79195 84.80200 79.79697
# Shear Modulus (GPa) = 31.81776 35.25914 33.53845
#
# Velocity S-wave (km/s) = 3.84063 4.04300 3.94312
# Velocity P-wave (km/s) = 7.37158 7.81716 7.59764
#
# Compressibility (1/GPa) = 0.01337042
#
# Stress axis : x y z
#
# Youngs Moduli (GPa) = 79.32452 62.54233 142.17204
#
# Poissons Ratio (x) = 0.33457 0.42043
# Poissons Ratio (y) = 0.42435 0.40131
# Poissons Ratio (z) = 0.23458 0.17654
#
# Static dielectric constant tensor:
#      x y z
#    x 4.045770 0.000000 0.000000 
#    y 0.000000 3.615670 0.000000 
#    z 0.000000 0.000000 4.538710 
# 
# 
# High freq. dielectric constant tensor:
#      x y z
#    x 1.839670 0.000000 0.000000 
#    y 0.000000 1.830490 0.000000 
#    z 0.000000 0.000000 1.873370 
# 
# From -- ./inp_files/31589.got.cif
#   From: 2010.03.12/outbox.cif.g09.slc.cpg/sg68_16_cif.got.tgz:31589.got - 2010.04.10 23:14:56.
