data_PCOD8281738
_publ_section_title
;
Structure prediction by ZEFSAII (Michael W. Deem and Ramdas Pophale) SiO2 
 PCOD8281738
Probable space group: C C C A
;
_chemical_formula_sum "Si O2"
_cell_formula_units_Z 104
_cell_length_a 20.875615
_cell_length_b 12.859440
_cell_length_c 18.869458
_cell_angle_alpha 90.000000
_cell_angle_beta 90.000000
_cell_angle_gamma 90.000000
_cell_volume 5065.481820
_symmetry_space_group_name_H-M "C C C A"
_symmetry_group_IT_number 68
_space_group.IT_coordinate_system_code '2'
_symmetry_cell_setting 'orthorhombic'
loop_
_space_group_symop_operation_xyz
x,y,z
-x,1/2-y,z
x,1/2-y,1/2-z
-x,y,1/2-z
-x,-y,-z
x,1/2+y,-z
-x,1/2+y,1/2+z
x,-y,1/2+z
1/2+x,1/2+y,z
1/2-x,-y,z
1/2+x,-y,1/2-z
1/2-x,1/2+y,1/2-z
1/2-x,1/2-y,-z
1/2+x,y,-z
1/2-x,y,1/2+z
1/2+x,1/2-y,1/2+z
loop_
_atom_site_type_symbol
_atom_site_label
_atom_site_fract_x
_atom_site_fract_y
_atom_site_fract_z
Si Si1 0.220331 0.708894 0.928048
Si Si2 0.445369 0.674323 0.902183
Si Si3 0.498603 0.536720 0.079164
Si Si4 0.632950 0.961372 0.582170
Si Si5 0.827482 0.223569 0.668257
Si Si6 0.916307 0.294424 0.032249
Si Si7 0.750000 0.500000 0.509360
O O1 0.255979 0.754836 0.860028
O O2 0.145375 0.738363 0.921645
O O3 0.250000 0.750000 0.000000
O O4 0.230511 0.586494 0.934356
O O5 0.500000 0.750000 0.869166
O O6 0.461738 0.555423 0.881112
O O7 0.376205 0.698708 0.870694
O O8 0.444385 0.693922 0.989075
O O9 0.424358 0.539724 0.105947
O O10 0.532552 0.650037 0.085877
O O11 0.500000 0.500000 0.000000
O O12 0.657191 0.897651 0.651379
O O13 0.604548 0.875301 0.528785
O O14 0.689907 0.024993 0.543206
O O15 0.830248 0.250000 0.750000
#
# Coordination Sequence:
#
# PCOD8281738 Si02
#       7
#    16  16  16  16  16  16   8
#     4  11  20  36  57  82 114 150 196 246 292 344
#     4  11  18  32  53  82 115 149 180 232 297 343
#     4  10  18  30  49  81 119 136 185 239 278 346
#     4   9  18  34  51  83 112 145 183 235 289 337
#     4  11  23  38  55  83 119 157 196 234 294 369
#     4   9  19  30  51  82 109 140 189 238 289 330
#     4  10  20  32  62  86 106 152 190 240 304 328
#
# _framework density 20.531116000000001
#
# number of rings (size 3 to 8) (size 9 to 14) (size 15 to 20)
#    0.000    1.846    9.231    0.000    6.462    0.308 
#    0.000    0.769    0.000    0.000    0.000    0.000 
#    0.000    1.231    0.000    0.000    0.000    0.000 
#
# Total GULP energy -644315.757826 kJ/mol
# GULP energy per Si atom -12390.687650 kJ/mol
# Density = 2.048439 g / cm^3
# Si number density = 20.531116 Si / 1000 Ang^3
#
#
#
# Elastic Constant Matrix: (Units=GPa)
#
#
# Indices 1 2 3 4 5 6 
#
# 1 146.8493 33.5822 25.9187 0.0000 0.0000 0.0000
# 2 33.5822 53.7188 13.4239 0.0000 0.0000 0.0000
# 3 25.9187 13.4239 60.9100 0.0000 0.0000 0.0000
# 4 0.0000 0.0000 0.0000 12.4526 0.0000 0.0000
# 5 0.0000 0.0000 0.0000 0.0000 14.6639 0.0000
# 6 0.0000 0.0000 0.0000 0.0000 0.0000 30.6205
#
#
#
# Elastic Compliance Matrix: (Units=1/GPa)
#
#
# Indices 1 2 3 4 5 6 
#
# 1 0.008298 -0.004556 -0.002527 0.000000 0.000000 0.000000
# 2 -0.004556 0.022202 -0.002954 0.000000 0.000000 0.000000
# 3 -0.002527 -0.002954 0.018144 0.000000 0.000000 0.000000
# 4 0.000000 0.000000 0.000000 0.080304 0.000000 0.000000
# 5 0.000000 0.000000 0.000000 0.000000 0.068195 0.000000
# 6 0.000000 0.000000 0.000000 0.000000 0.000000 0.032658
#
#
# Mechanical properties :
#
#
# Convention : Reuss Voigt Hill
#
# Bulk Modulus (GPa) = 35.00254 45.25862 40.13058
# Shear Modulus (GPa) = 19.27546 24.11763 21.69655
#
# Velocity S-wave (km/s) = 3.06738 3.43109 3.25432
# Velocity P-wave (km/s) = 5.44340 6.14722 5.80598
#
# Compressibility (1/GPa) = 0.02856936
#
# Stress axis : x y z
#
# Youngs Moduli (GPa) = 120.51822 45.04146 55.11467
#
# Poissons Ratio (x) = 0.20520 0.13926
# Poissons Ratio (y) = 0.54905 0.16283
# Poissons Ratio (z) = 0.30452 0.13307
#
# Static dielectric constant tensor:
#      x y z
#    x 5.037010 0.000000 0.000000 
#    y 0.000000 4.173830 0.000000 
#    z 0.000000 0.000000 2.854270 
# 
# 
# High freq. dielectric constant tensor:
#      x y z
#    x 1.832580 0.000000 0.000000 
#    y 0.000000 1.803540 0.000000 
#    z 0.000000 0.000000 1.703220 
# 
# From -- ./inp_files/33016.got.cif
#   From: 2010.03.12/outbox.cif.g09.slc.cpg/sg68_17_cif.got.tgz:33016.got - 2010.04.10 23:14:56.
