data_PCOD8281591
_publ_section_title
;
Structure prediction by ZEFSAII (Michael W. Deem and Ramdas Pophale) SiO2 
 PCOD8281591
Probable space group: C M M A
;
_chemical_formula_sum "Si O2"
_cell_formula_units_Z 96
_cell_length_a 15.135717
_cell_length_b 11.711424
_cell_length_c 25.217150
_cell_angle_alpha 90.000000
_cell_angle_beta 90.000000
_cell_angle_gamma 90.000000
_cell_volume 4470.012166
_symmetry_space_group_name_H-M "C M M A"
_symmetry_group_IT_number 67
_symmetry_cell_setting 'orthorhombic'
loop_
_space_group_symop_operation_xyz
x,y,z
-x,1/2-y,z
x,-y,-z
-x,1/2+y,-z
-x,-y,-z
x,1/2+y,-z
-x,y,z
x,1/2-y,z
1/2+x,1/2+y,z
1/2-x,-y,z
1/2+x,1/2-y,-z
1/2-x,y,-z
1/2-x,1/2-y,-z
1/2+x,y,-z
1/2-x,1/2+y,z
1/2+x,-y,z
loop_
_atom_site_type_symbol
_atom_site_label
_atom_site_fract_x
_atom_site_fract_y
_atom_site_fract_z
Si Si1 0.394935 0.507885 0.739969
Si Si2 0.604952 0.250000 0.227448
Si Si3 0.105318 0.250000 0.890847
Si Si4 0.652431 0.880241 0.477736
Si Si5 0.100650 0.620757 0.638644
Si Si6 0.394548 0.622294 0.156939
Si Si7 0.394763 0.519962 0.941558
O O1 0.500000 0.494619 0.739665
O O2 0.363281 0.638944 0.740600
O O3 0.356831 0.453920 0.685951
O O4 0.356824 0.447167 0.792666
O O5 0.500000 0.250000 0.222239
O O6 0.645184 0.250000 0.168346
O O7 0.140675 0.358565 0.922322
O O8 0.000000 0.250000 0.887748
O O9 0.609904 0.750000 0.489991
O O10 0.750000 0.877313 0.500000
O O11 0.656951 0.895840 0.414558
O O12 0.606193 0.000000 0.500000
O O13 0.103412 0.750000 0.659131
O O14 0.000000 0.583779 0.625833
O O15 0.500000 0.616933 0.157608
O O16 0.358539 0.750000 0.161543
O O17 0.359683 0.572053 0.101115
O O18 0.500000 0.516371 0.944045
O O19 0.354555 0.500000 0.000000
#
# Coordination Sequence:
#
# PCOD8281591 Si02
#       7
#    16   8   8  16  16  16  16
#     4   9  15  24  36  52  74 101 132 168 218 273
#     4   9  14  22  34  46  67  99 131 166 217 281
#     4   9  14  22  30  36  52  81 117 160 215 269
#     4   9  18  34  54  73  95 125 157 186 220 267
#     4   9  17  29  46  68  93 119 148 186 230 273
#     4   9  15  21  29  41  58  83 118 161 210 262
#     4   9  16  21  26  36  51  77 116 163 212 261
#
# _framework density 21.476451000000001
#
# number of rings (size 3 to 8) (size 9 to 14) (size 15 to 20)
#    0.000    3.000    1.667    0.500    1.167    2.333 
#    1.500    0.000    0.000    0.000    0.000    0.000 
#    0.000    0.000    0.000    0.000    0.000    0.000 
#
# Total GULP energy -594630.206932 kJ/mol
# GULP energy per Si atom -12388.129311 kJ/mol
# Density = 2.142757 g / cm^3
# Si number density = 21.476451 Si / 1000 Ang^3
#
#
#
# Elastic Constant Matrix: (Units=GPa)
#
#
# Indices 1 2 3 4 5 6 
#
# 1 16.1236 2.8832 17.2512 0.0000 0.0000 0.0000
# 2 2.8832 207.8873 100.0706 0.0000 0.0000 0.0000
# 3 17.2512 100.0706 200.9467 0.0000 0.0000 0.0000
# 4 0.0000 0.0000 0.0000 47.0272 0.0000 0.0000
# 5 0.0000 0.0000 0.0000 0.0000 -7.8927 0.0000
# 6 0.0000 0.0000 0.0000 0.0000 0.0000 1.6946
#
#
#
# Elastic Compliance Matrix: (Units=1/GPa)
#
#
# Indices 1 2 3 4 5 6 
#
# 1 0.069269 0.002502 -0.007192 0.000000 0.000000 0.000000
# 2 0.002502 0.006417 -0.003411 0.000000 0.000000 0.000000
# 3 -0.007192 -0.003411 0.007292 0.000000 0.000000 0.000000
# 4 0.000000 0.000000 0.000000 0.021264 0.000000 0.000000
# 5 0.000000 0.000000 0.000000 0.000000 -0.126699 0.000000
# 6 0.000000 0.000000 0.000000 0.000000 0.000000 0.590124
#
#
# Mechanical properties :
#
#
# Convention : Reuss Voigt Hill
#
# Bulk Modulus (GPa) = 14.97547 73.92971 44.45259
# Shear Modulus (GPa) = 8.24907 28.48266 18.36586
#
# Velocity S-wave (km/s) = 1.96197 3.64569 2.92749
# Velocity P-wave (km/s) = 3.48146 7.22632 5.67187
#
# Compressibility (1/GPa) = 0.06677588
#
# Stress axis : x y z
#
# Youngs Moduli (GPa) = 14.43644 155.82756 137.12969
#
# Poissons Ratio (x) = -0.38981 0.98631
# Poissons Ratio (y) = -0.03611 0.46769
# Poissons Ratio (z) = 0.10383 0.53146
#
# Static dielectric constant tensor:
#      x y z
#    x 2.955600 0.000000 0.000000 
#    y 0.000000 4.603510 0.000000 
#    z 0.000000 0.000000 3.995290 
# 
# 
# High freq. dielectric constant tensor:
#      x y z
#    x 1.774590 0.000000 0.000000 
#    y 0.000000 1.858480 0.000000 
#    z 0.000000 0.000000 1.846150 
# 
# From -- ./inp_files/37949.got.cif
#   From: 2010.03.12/outbox.cif.g09.slc.cpg/sg67_19_cif.got.tgz:37949.got - 2010.04.10 22:41:39.
