data_PCOD8281007
_publ_section_title
;
Structure prediction by ZEFSAII (Michael W. Deem and Ramdas Pophale) SiO2 
 PCOD8281007
Probable space group: C M M A
;
_chemical_formula_sum "Si O2"
_cell_formula_units_Z 104
_cell_length_a 9.925913
_cell_length_b 20.271114
_cell_length_c 27.739999
_cell_angle_alpha 90.000000
_cell_angle_beta 90.000000
_cell_angle_gamma 90.000000
_cell_volume 5581.546169
_symmetry_space_group_name_H-M "C M M A"
_symmetry_group_IT_number 67
_symmetry_cell_setting 'orthorhombic'
loop_
_space_group_symop_operation_xyz
x,y,z
-x,1/2-y,z
x,-y,-z
-x,1/2+y,-z
-x,-y,-z
x,1/2+y,-z
-x,y,z
x,1/2-y,z
1/2+x,1/2+y,z
1/2-x,-y,z
1/2+x,1/2-y,-z
1/2-x,y,-z
1/2-x,1/2-y,-z
1/2+x,y,-z
1/2-x,1/2+y,z
1/2+x,-y,z
loop_
_atom_site_type_symbol
_atom_site_label
_atom_site_fract_x
_atom_site_fract_y
_atom_site_fract_z
Si Si1 0.000000 0.907565 0.042213
Si Si2 0.738745 0.130345 0.900869
Si Si3 0.655717 0.560044 0.727792
Si Si4 0.654610 0.440957 0.383930
Si Si5 0.345213 0.674836 0.544213
Si Si6 0.157833 0.174805 0.799673
Si Si7 0.000000 0.940897 0.936337
Si Si8 0.644947 0.750000 0.042197
O O1 0.869866 0.875983 0.066219
O O2 0.000000 0.984377 0.049432
O O3 0.000000 0.894586 0.984620
O O4 0.772122 0.142198 0.845504
O O5 0.636258 0.068800 0.905116
O O6 0.654279 0.189876 0.921552
O O7 0.500000 0.540645 0.737555
O O8 0.750000 0.500000 0.746149
O O9 0.682981 0.574021 0.671824
O O10 0.694026 0.628158 0.754525
O O11 0.500000 0.462427 0.392558
O O12 0.750000 0.500000 0.402699
O O13 0.689570 0.373778 0.411923
O O14 0.500000 0.666503 0.527630
O O15 0.317464 0.750000 0.561279
O O16 0.250000 0.655394 0.500000
O O17 0.208539 0.250000 0.790074
O O18 0.000000 0.175754 0.809840
O O19 0.500000 0.750000 0.016340
O O20 0.750000 0.750000 0.000000
#
# Coordination Sequence:
#
# PCOD8281007 Si02
#       8
#     8  16  16  16  16  16   8   8
#     4  11  24  41  61  83 113 148 179 221 270 323
#     4  12  23  40  60  83 114 143 181 223 270 325
#     4   9  19  37  60  84 110 143 186 232 284 336
#     4   9  18  33  54  80 110 144 186 236 283 337
#     4   9  18  32  50  76 111 151 194 237 281 329
#     4  10  21  39  59  83 113 145 183 228 277 330
#     4  11  24  41  59  85 113 144 183 223 264 325
#     4  12  26  40  62  88 112 146 184 220 269 326
#
# _framework density 18.632829000000001
#
# number of rings (size 3 to 8) (size 9 to 14) (size 15 to 20)
#    0.000    1.846    2.308    1.846    1.077    4.000 
#    1.385    4.615    0.000    0.000    0.000    4.308 
#    0.000    0.000    0.000    0.000    0.000    0.000 
#
# Total GULP energy -644767.895989 kJ/mol
# GULP energy per Si atom -12399.382615 kJ/mol
# Density = 1.859042 g / cm^3
# Si number density = 18.632829 Si / 1000 Ang^3
#
#
#
# Elastic Constant Matrix: (Units=GPa)
#
#
# Indices 1 2 3 4 5 6 
#
# 1 100.4137 50.9057 46.9782 0.0000 0.0000 0.0000
# 2 50.9057 107.9862 63.5711 0.0000 0.0000 0.0000
# 3 46.9782 63.5711 95.7667 0.0000 0.0000 0.0000
# 4 0.0000 0.0000 0.0000 10.8103 0.0000 0.0000
# 5 0.0000 0.0000 0.0000 0.0000 37.0121 0.0000
# 6 0.0000 0.0000 0.0000 0.0000 0.0000 45.5510
#
#
#
# Elastic Compliance Matrix: (Units=1/GPa)
#
#
# Indices 1 2 3 4 5 6 
#
# 1 0.013994 -0.004195 -0.004080 0.000000 0.000000 0.000000
# 2 -0.004195 0.016458 -0.008867 0.000000 0.000000 0.000000
# 3 -0.004080 -0.008867 0.018330 0.000000 0.000000 0.000000
# 4 0.000000 0.000000 0.000000 0.092504 0.000000 0.000000
# 5 0.000000 0.000000 0.000000 0.000000 0.027018 0.000000
# 6 0.000000 0.000000 0.000000 0.000000 0.000000 0.021953
#
#
# Mechanical properties :
#
#
# Convention : Reuss Voigt Hill
#
# Bulk Modulus (GPa) = 68.97832 69.67517 69.32675
# Shear Modulus (GPa) = 21.79831 28.18878 24.99355
#
# Velocity S-wave (km/s) = 3.42407 3.89376 3.66645
# Velocity P-wave (km/s) = 7.26172 7.59540 7.43043
#
# Compressibility (1/GPa) = 0.01449731
#
# Stress axis : x y z
#
# Youngs Moduli (GPa) = 71.45683 60.76010 54.55616
#
# Poissons Ratio (x) = 0.25490 0.22260
# Poissons Ratio (y) = 0.29977 0.48376
# Poissons Ratio (z) = 0.29156 0.53877
#
# Static dielectric constant tensor:
#      x y z
#    x 3.444140 0.000000 0.000000 
#    y 0.000000 3.605560 0.000000 
#    z 0.000000 0.000000 3.338770 
# 
# 
# High freq. dielectric constant tensor:
#      x y z
#    x 1.726460 0.000000 0.000000 
#    y 0.000000 1.733840 0.000000 
#    z 0.000000 0.000000 1.710390 
# 
# From -- ./inp_files/43621.got.cif
#   From: 2010.03.12/outbox.cif.g09.slc.cpg/sg67_22_cif.got.tgz:43621.got - 2010.04.10 22:41:39.
