data_PCOD8281637
_publ_section_title
;
Structure prediction by ZEFSAII (Michael W. Deem and Ramdas Pophale) SiO2 
 PCOD8281637
Probable space group: C C C A
;
_chemical_formula_sum "Si O2"
_cell_formula_units_Z 80
_cell_length_a 17.825060
_cell_length_b 8.186507
_cell_length_c 26.609647
_cell_angle_alpha 90.000000
_cell_angle_beta 90.000000
_cell_angle_gamma 90.000000
_cell_volume 3883.012165
_symmetry_space_group_name_H-M "C C C A"
_symmetry_group_IT_number 68
_space_group.IT_coordinate_system_code '2'
_symmetry_cell_setting 'orthorhombic'
loop_
_space_group_symop_operation_xyz
x,y,z
-x,1/2-y,z
x,1/2-y,1/2-z
-x,y,1/2-z
-x,-y,-z
x,1/2+y,-z
-x,1/2+y,1/2+z
x,-y,1/2+z
1/2+x,1/2+y,z
1/2-x,-y,z
1/2+x,-y,1/2-z
1/2-x,1/2+y,1/2-z
1/2-x,1/2-y,-z
1/2+x,y,-z
1/2-x,y,1/2+z
1/2+x,1/2-y,1/2+z
loop_
_atom_site_type_symbol
_atom_site_label
_atom_site_fract_x
_atom_site_fract_y
_atom_site_fract_z
Si Si1 0.750000 0.500000 0.299415
Si Si2 0.865907 0.105667 0.351256
Si Si3 0.416157 0.750218 0.449353
Si Si4 0.169090 0.926542 0.463738
Si Si5 0.146006 0.750000 0.750000
Si Si6 0.301591 0.731052 0.867441
O O1 0.801508 0.400599 0.262321
O O2 0.693212 0.391558 0.332899
O O3 0.921258 0.159270 0.395605
O O4 0.899020 0.185516 0.299272
O O5 0.784555 0.176428 0.365119
O O6 0.858707 0.908807 0.347963
O O7 0.500000 0.750000 0.472035
O O8 0.361742 0.648439 0.485141
O O9 0.386173 0.934042 0.442813
O O10 0.175306 0.779969 0.423725
O O11 0.250000 0.000000 0.476019
#
# Coordination Sequence:
#
# PCOD8281637 Si02
#       6
#     8  16  16  16   8  16
#     4  10  16  30  48  88 124 146 190 254 318 344
#     4  10  21  36  57  87 120 159 204 251 308 360
#     4  12  26  41  59  89 128 164 202 253 313 369
#     4  12  22  40  63  91 121 166 210 250 301 372
#     4  10  18  32  55  84 120 160 199 252 306 364
#     4  10  19  34  60  90 119 155 200 255 301 363
#
# _framework density 20.602561999999999
#
# number of rings (size 3 to 8) (size 9 to 14) (size 15 to 20)
#    0.000    1.200    3.000    6.000    2.800    0.000 
#    0.000    0.500    0.000    0.000    0.000    2.800 
#    0.000    0.000    0.000    0.000    0.000    0.000 
#
# Total GULP energy -495986.613227 kJ/mol
# GULP energy per Si atom -12399.665331 kJ/mol
# Density = 2.055567 g / cm^3
# Si number density = 20.602562 Si / 1000 Ang^3
#
#
#
# Elastic Constant Matrix: (Units=GPa)
#
#
# Indices 1 2 3 4 5 6 
#
# 1 63.3547 18.8974 17.7781 0.0000 0.0000 0.0000
# 2 18.8974 126.8577 51.1677 0.0000 0.0000 0.0000
# 3 17.7781 51.1677 143.8626 0.0000 0.0000 0.0000
# 4 0.0000 0.0000 0.0000 32.8761 0.0000 0.0000
# 5 0.0000 0.0000 0.0000 0.0000 345.4362 0.0000
# 6 0.0000 0.0000 0.0000 0.0000 0.0000 10.5070
#
#
#
# Elastic Compliance Matrix: (Units=1/GPa)
#
#
# Indices 1 2 3 4 5 6 
#
# 1 0.016750 -0.001938 -0.001380 0.000000 0.000000 0.000000
# 2 -0.001938 0.009427 -0.003114 0.000000 0.000000 0.000000
# 3 -0.001380 -0.003114 0.008229 0.000000 0.000000 0.000000
# 4 0.000000 0.000000 0.000000 0.030417 0.000000 0.000000
# 5 0.000000 0.000000 0.000000 0.000000 0.002895 0.000000
# 6 0.000000 0.000000 0.000000 0.000000 0.000000 0.095174
#
#
# Mechanical properties :
#
#
# Convention : Reuss Voigt Hill
#
# Bulk Modulus (GPa) = 46.42191 56.64015 51.53103
# Shear Modulus (GPa) = 27.33169 94.17933 60.75551
#
# Velocity S-wave (km/s) = 3.64623 6.76843 5.43630
# Velocity P-wave (km/s) = 6.34883 9.41455 8.02936
#
# Compressibility (1/GPa) = 0.02154155
#
# Stress axis : x y z
#
# Youngs Moduli (GPa) = 59.70260 106.07361 121.52060
#
# Poissons Ratio (x) = 0.20560 0.16776
# Poissons Ratio (y) = 0.11572 0.37836
# Poissons Ratio (z) = 0.08242 0.33026
#
# Static dielectric constant tensor:
#      x y z
#    x 3.242860 0.000000 0.000000 
#    y 0.000000 4.090790 0.000000 
#    z 0.000000 0.000000 3.945770 
# 
# 
# High freq. dielectric constant tensor:
#      x y z
#    x 1.750730 0.000000 0.000000 
#    y 0.000000 1.827660 0.000000 
#    z 0.000000 0.000000 1.820090 
# 
# From -- ./inp_files/46421.got.cif
#   From: 2010.03.12/outbox.cif.g09.slc.cpg/sg68_24_cif.got.tgz:46421.got - 2010.04.10 23:14:56.
