data_PCOD8281991
_publ_section_title
;
Structure prediction by ZEFSAII (Michael W. Deem and Ramdas Pophale) SiO2 
 PCOD8281991
Probable space group: C C C A
;
_chemical_formula_sum "Si O2"
_cell_formula_units_Z 116
_cell_length_a 24.315515
_cell_length_b 22.966438
_cell_length_c 9.715494
_cell_angle_alpha 90.000000
_cell_angle_beta 90.000000
_cell_angle_gamma 90.000000
_cell_volume 5425.527928
_symmetry_space_group_name_H-M "C C C A"
_symmetry_group_IT_number 68
_space_group.IT_coordinate_system_code '2'
_symmetry_cell_setting 'orthorhombic'
loop_
_space_group_symop_operation_xyz
x,y,z
-x,1/2-y,z
x,1/2-y,1/2-z
-x,y,1/2-z
-x,-y,-z
x,1/2+y,-z
-x,1/2+y,1/2+z
x,-y,1/2+z
1/2+x,1/2+y,z
1/2-x,-y,z
1/2+x,-y,1/2-z
1/2-x,1/2+y,1/2-z
1/2-x,1/2-y,-z
1/2+x,y,-z
1/2-x,y,1/2+z
1/2+x,1/2-y,1/2+z
loop_
_atom_site_type_symbol
_atom_site_label
_atom_site_fract_x
_atom_site_fract_y
_atom_site_fract_z
Si Si1 0.158624 0.682626 0.723538
Si Si2 0.914714 0.188692 0.453594
Si Si3 0.000000 0.750000 0.750000
Si Si4 0.267173 0.361219 0.305519
Si Si5 0.700619 0.541326 0.082605
Si Si6 0.156360 0.460969 0.697270
Si Si7 0.438289 0.879269 0.777333
Si Si8 0.871440 0.693501 0.067474
O O1 0.144878 0.750000 0.750000
O O2 0.128845 0.653061 0.856321
O O3 0.224281 0.673797 0.709360
O O4 0.129370 0.661794 0.582107
O O5 0.936165 0.143767 0.566620
O O6 0.883719 0.238662 0.542927
O O7 0.963490 0.211099 0.353850
O O8 0.225548 0.393477 0.412015
O O9 0.297977 0.411442 0.223041
O O10 0.310293 0.315529 0.369516
O O11 0.750000 0.500000 0.038700
O O12 0.672599 0.520934 0.226621
O O13 0.654595 0.531331 0.966370
O O14 0.097393 0.437465 0.745723
O O15 0.500000 0.897715 0.750000
O O16 0.418585 0.831348 0.666242
#
# Coordination Sequence:
#
# PCOD8281991 Si02
#       8
#    16  16   4  16  16  16  16  16
#     4  10  21  36  54  89 127 166 202 246 299 365
#     4  11  22  37  60  84 124 166 217 255 306 360
#     4  12  20  40  62  84 120 176 226 268 298 368
#     4  10  20  33  61  89 126 161 197 242 308 375
#     4  10  19  36  60  87 114 154 194 244 312 384
#     4  10  22  38  59  87 116 149 200 258 312 386
#     4  11  24  40  61  87 117 159 213 268 316 366
#     4  10  21  38  56  90 126 165 210 255 295 366
#
# _framework density 21.380407000000002
#
# number of rings (size 3 to 8) (size 9 to 14) (size 15 to 20)
#    0.000    1.655    2.069    4.138    0.000    8.276 
#    0.000    0.690    0.000    0.000    0.000    0.000 
#    0.000    0.000    0.000    0.000    0.000    0.000 
#
# Total GULP energy -718721.787022 kJ/mol
# GULP energy per Si atom -12391.754949 kJ/mol
# Density = 2.133174 g / cm^3
# Si number density = 21.380407 Si / 1000 Ang^3
#
#
#
# Elastic Constant Matrix: (Units=GPa)
#
#
# Indices 1 2 3 4 5 6 
#
# 1 132.0134 19.0604 36.8067 0.0000 0.0000 0.0000
# 2 19.0604 25.5243 7.8992 0.0000 0.0000 0.0000
# 3 36.8067 7.8992 103.8390 0.0000 0.0000 0.0000
# 4 0.0000 0.0000 0.0000 14.3801 0.0000 0.0000
# 5 0.0000 0.0000 0.0000 0.0000 35.7917 0.0000
# 6 0.0000 0.0000 0.0000 0.0000 0.0000 16.4450
#
#
#
# Elastic Compliance Matrix: (Units=1/GPa)
#
#
# Indices 1 2 3 4 5 6 
#
# 1 0.009229 -0.006021 -0.002813 0.000000 0.000000 0.000000
# 2 -0.006021 0.044051 -0.001217 0.000000 0.000000 0.000000
# 3 -0.002813 -0.001217 0.010720 0.000000 0.000000 0.000000
# 4 0.000000 0.000000 0.000000 0.069540 0.000000 0.000000
# 5 0.000000 0.000000 0.000000 0.000000 0.027939 0.000000
# 6 0.000000 0.000000 0.000000 0.000000 0.000000 0.060809
#
#
# Mechanical properties :
#
#
# Convention : Reuss Voigt Hill
#
# Bulk Modulus (GPa) = 22.78017 43.21215 32.99616
# Shear Modulus (GPa) = 19.45351 26.49738 22.97544
#
# Velocity S-wave (km/s) = 3.01969 3.52423 3.28167
# Velocity P-wave (km/s) = 4.77869 6.06756 5.46128
#
# Compressibility (1/GPa) = 0.04389783
#
# Stress axis : x y z
#
# Youngs Moduli (GPa) = 108.35826 22.70091 93.28344
#
# Poissons Ratio (x) = 0.13668 0.26242
# Poissons Ratio (y) = 0.65242 0.11351
# Poissons Ratio (z) = 0.30483 0.02762
#
# Static dielectric constant tensor:
#      x y z
#    x 3.977440 0.000000 0.000000 
#    y 0.000000 3.637600 0.000000 
#    z 0.000000 0.000000 4.098710 
# 
# 
# High freq. dielectric constant tensor:
#      x y z
#    x 1.835170 0.000000 0.000000 
#    y 0.000000 1.806500 0.000000 
#    z 0.000000 0.000000 1.853350 
# 
# From -- ./inp_files/8370.got.cif
#   From: 2010.03.12/outbox.cif.g09.slc.cpg/sg68_5_cif.got.tgz:8370.got - 2010.04.10 23:14:56.
