data_PCOD8281429
_publ_section_title
;
Structure prediction by ZEFSAII (Michael W. Deem and Ramdas Pophale) SiO2 
 PCOD8281429
Probable space group: C M M A
;
_chemical_formula_sum "Si O2"
_cell_formula_units_Z 112
_cell_length_a 17.794666
_cell_length_b 15.077678
_cell_length_c 21.040593
_cell_angle_alpha 90.000000
_cell_angle_beta 90.000000
_cell_angle_gamma 90.000000
_cell_volume 5645.238318
_symmetry_space_group_name_H-M "C M M A"
_symmetry_group_IT_number 67
_symmetry_cell_setting 'orthorhombic'
loop_
_space_group_symop_operation_xyz
x,y,z
-x,1/2-y,z
x,-y,-z
-x,1/2+y,-z
-x,-y,-z
x,1/2+y,-z
-x,y,z
x,1/2-y,z
1/2+x,1/2+y,z
1/2-x,-y,z
1/2+x,1/2-y,-z
1/2-x,y,-z
1/2-x,1/2-y,-z
1/2+x,y,-z
1/2-x,1/2+y,z
1/2+x,-y,z
loop_
_atom_site_type_symbol
_atom_site_label
_atom_site_fract_x
_atom_site_fract_y
_atom_site_fract_z
Si Si1 0.669010 0.849519 0.378457
Si Si2 0.913591 0.604253 0.497535
Si Si3 0.840908 0.850748 0.366324
Si Si4 0.085784 0.000201 0.148561
Si Si5 0.847186 0.148870 0.064292
Si Si6 0.412182 0.493624 0.706010
Si Si7 0.672916 0.851115 0.919815
O O1 0.661843 0.750000 0.351124
O O2 0.637796 0.850055 0.449765
O O3 0.755515 0.879963 0.380252
O O4 0.621492 0.913733 0.334191
O O5 0.900639 0.500000 0.500000
O O6 0.889777 0.640834 0.429562
O O7 0.000000 0.629453 0.510128
O O8 0.845186 0.750000 0.341300
O O9 0.874252 0.913206 0.311724
O O10 0.104403 0.026766 0.220593
O O11 0.135476 0.915914 0.130413
O O12 0.000000 0.970991 0.141026
O O13 0.100155 0.084963 0.104536
O O14 0.870138 0.250000 0.079115
O O15 0.761382 0.131554 0.082839
O O16 0.858751 0.128153 0.989929
O O17 0.500000 0.499587 0.690417
O O18 0.654615 0.750000 0.900909
#
# Coordination Sequence:
#
# PCOD8281429 Si02
#       7
#    16  16  16  16  16  16  16
#     4  11  24  41  63  90 117 149 193 244 294 342
#     4  11  22  37  62  93 122 153 188 231 289 351
#     4  11  24  41  63  90 117 149 193 244 294 342
#     4  11  24  38  56  85 120 155 194 238 289 346
#     4   9  19  37  61  88 117 151 193 239 286 340
#     4  11  25  43  59  81 116 159 199 238 287 345
#     4   9  19  37  61  88 117 151 193 239 286 340
#
# _framework density 19.839728999999998
#
# number of rings (size 3 to 8) (size 9 to 14) (size 15 to 20)
#    0.000    1.571    1.429    3.857    0.000   10.857 
#    0.000    7.143    0.000    0.000    0.000    0.000 
#    0.000    0.000    0.000    0.000    0.000    0.000 
#
# Total GULP energy -694683.780048 kJ/mol
# GULP energy per Si atom -12405.067501 kJ/mol
# Density = 1.979457 g / cm^3
# Si number density = 19.839729 Si / 1000 Ang^3
#
#
#
# Elastic Constant Matrix: (Units=GPa)
#
#
# Indices 1 2 3 4 5 6 
#
# 1 75.9602 33.3404 19.3271 0.0000 0.0000 0.0000
# 2 33.3404 91.8410 21.9265 0.0000 0.0000 0.0000
# 3 19.3271 21.9265 61.9601 0.0000 0.0000 0.0000
# 4 0.0000 0.0000 0.0000 9.6325 0.0000 0.0000
# 5 0.0000 0.0000 0.0000 0.0000 28.0101 0.0000
# 6 0.0000 0.0000 0.0000 0.0000 0.0000 -11.5942
#
#
#
# Elastic Compliance Matrix: (Units=1/GPa)
#
#
# Indices 1 2 3 4 5 6 
#
# 1 0.016239 -0.005118 -0.003254 0.000000 0.000000 0.000000
# 2 -0.005118 0.013506 -0.003183 0.000000 0.000000 0.000000
# 3 -0.003254 -0.003183 0.018281 0.000000 0.000000 0.000000
# 4 0.000000 0.000000 0.000000 0.103815 0.000000 0.000000
# 5 0.000000 0.000000 0.000000 0.000000 0.035701 0.000000
# 6 0.000000 0.000000 0.000000 0.000000 0.000000 -0.086250
#
#
# Mechanical properties :
#
#
# Convention : Reuss Voigt Hill
#
# Bulk Modulus (GPa) = 40.13589 42.10548 41.12068
# Shear Modulus (GPa) = 37.67622 15.55416 26.61519
#
# Velocity S-wave (km/s) = 4.36251 2.80302 3.66664
# Velocity P-wave (km/s) = 6.75643 5.63425 6.22070
#
# Compressibility (1/GPa) = 0.02491536
#
# Stress axis : x y z
#
# Youngs Moduli (GPa) = 61.57902 74.03897 54.70173
#
# Poissons Ratio (x) = 0.37895 0.17801
# Poissons Ratio (y) = 0.31518 0.17412
# Poissons Ratio (z) = 0.20039 0.23568
#
# Static dielectric constant tensor:
#      x y z
#    x 3.664400 0.000000 0.000000 
#    y 0.000000 3.834580 0.000000 
#    z 0.000000 0.000000 3.532320 
# 
# 
# High freq. dielectric constant tensor:
#      x y z
#    x 1.780880 0.000000 0.000000 
#    y 0.000000 1.787250 0.000000 
#    z 0.000000 0.000000 1.766400 
# 
# From -- ./inp_files/41938.got.cif
#   From: 2010.03.12/outbox.cif.g09.slc.cpg/sg67_21_cif.got.tgz:41938.got - 2010.04.10 22:41:39.
