data_PCOD8281594
_publ_section_title
;
Structure prediction by ZEFSAII (Michael W. Deem and Ramdas Pophale) SiO2 
 PCOD8281594
Probable space group: C M M A
;
_chemical_formula_sum "Si O2"
_cell_formula_units_Z 112
_cell_length_a 19.224052
_cell_length_b 18.970542
_cell_length_c 17.779205
_cell_angle_alpha 90.000000
_cell_angle_beta 90.000000
_cell_angle_gamma 90.000000
_cell_volume 6483.910466
_symmetry_space_group_name_H-M "C M M A"
_symmetry_group_IT_number 67
_symmetry_cell_setting 'orthorhombic'
loop_
_space_group_symop_operation_xyz
x,y,z
-x,1/2-y,z
x,-y,-z
-x,1/2+y,-z
-x,-y,-z
x,1/2+y,-z
-x,y,z
x,1/2-y,z
1/2+x,1/2+y,z
1/2-x,-y,z
1/2+x,1/2-y,-z
1/2-x,y,-z
1/2-x,1/2-y,-z
1/2+x,y,-z
1/2-x,1/2+y,z
1/2+x,-y,z
loop_
_atom_site_type_symbol
_atom_site_label
_atom_site_fract_x
_atom_site_fract_y
_atom_site_fract_z
Si Si1 0.151462 0.828747 0.728219
Si Si2 0.169483 0.582544 0.866848
Si Si3 0.681689 0.833847 0.542282
Si Si4 0.421179 0.083460 0.007165
Si Si5 0.685004 0.329470 0.290091
Si Si6 0.577251 0.166027 0.580910
Si Si7 0.829317 0.582734 0.146224
O O1 0.123043 0.750000 0.743259
O O2 0.133161 0.876615 0.798904
O O3 0.232847 0.827077 0.715277
O O4 0.115205 0.862831 0.655261
O O5 0.127167 0.609487 0.939121
O O6 0.162146 0.500745 0.846597
O O7 0.250660 0.602103 0.878997
O O8 0.689110 0.750000 0.547521
O O9 0.750000 0.864242 0.500000
O O10 0.669250 0.861970 0.627218
O O11 0.616072 0.859808 0.493984
O O12 0.500000 0.114238 0.003602
O O13 0.384259 0.109585 0.083913
O O14 0.423974 0.000000 0.000000
O O15 0.654653 0.250000 0.280327
O O16 0.652699 0.379853 0.225660
O O17 0.500000 0.134966 0.578206
O O18 0.578272 0.250000 0.583207
#
# Coordination Sequence:
#
# PCOD8281594 Si02
#       7
#    16  16  16  16  16  16  16
#     4   9  16  27  43  66  91 115 144 182 227 271
#     4   9  17  29  48  69  89 115 146 188 226 265
#     4   9  14  24  43  64  85 115 155 188 214 258
#     4   9  17  30  48  67  87 116 156 189 218 265
#     4   9  16  27  46  69  90 115 150 187 224 268
#     4   9  16  25  39  63  93 119 146 184 224 259
#     4   9  17  30  47  69  91 114 146 189 227 262
#
# _framework density 17.273526
#
# number of rings (size 3 to 8) (size 9 to 14) (size 15 to 20)
#    0.000    3.000    1.429    0.429    0.000    2.286 
#    0.000    1.429    0.000    6.429    0.000    1.000 
#    0.000    0.000    0.000    0.000    0.000    0.000 
#
# Total GULP energy -694055.319505 kJ/mol
# GULP energy per Si atom -12393.844991 kJ/mol
# Density = 1.723421 g / cm^3
# Si number density = 17.273526 Si / 1000 Ang^3
#
#
#
# Elastic Constant Matrix: (Units=GPa)
#
#
# Indices 1 2 3 4 5 6 
#
# 1 75.6332 20.4855 68.5989 0.0000 0.0000 0.0000
# 2 20.4855 26.5289 39.7184 0.0000 0.0000 0.0000
# 3 68.5989 39.7184 184.6721 0.0000 0.0000 0.0000
# 4 0.0000 0.0000 0.0000 17.2331 0.0000 0.0000
# 5 0.0000 0.0000 0.0000 0.0000 20.9347 0.0000
# 6 0.0000 0.0000 0.0000 0.0000 0.0000 9.2081
#
#
#
# Elastic Compliance Matrix: (Units=1/GPa)
#
#
# Indices 1 2 3 4 5 6 
#
# 1 0.020693 -0.006594 -0.006269 0.000000 0.000000 0.000000
# 2 -0.006594 0.057699 -0.009960 0.000000 0.000000 0.000000
# 3 -0.006269 -0.009960 0.009886 0.000000 0.000000 0.000000
# 4 0.000000 0.000000 0.000000 0.058028 0.000000 0.000000
# 5 0.000000 0.000000 0.000000 0.000000 0.047768 0.000000
# 6 0.000000 0.000000 0.000000 0.000000 0.000000 0.108600
#
#
# Mechanical properties :
#
#
# Convention : Reuss Voigt Hill
#
# Bulk Modulus (GPa) = 23.45649 60.49332 41.97491
# Shear Modulus (GPa) = 13.79197 20.01060 16.90129
#
# Velocity S-wave (km/s) = 2.82874 3.40730 3.13141
# Velocity P-wave (km/s) = 4.92727 7.11171 6.11778
#
# Compressibility (1/GPa) = 0.04263212
#
# Stress axis : x y z
#
# Youngs Moduli (GPa) = 48.32484 17.33144 101.15601
#
# Poissons Ratio (x) = 0.11429 0.63410
# Poissons Ratio (y) = 0.31866 1.00752
# Poissons Ratio (z) = 0.30293 0.17262
#
# Static dielectric constant tensor:
#      x y z
#    x 3.236800 0.000000 0.000000 
#    y 0.000000 2.860960 0.000000 
#    z 0.000000 0.000000 3.518320 
# 
# 
# High freq. dielectric constant tensor:
#      x y z
#    x 1.653810 0.000000 0.000000 
#    y 0.000000 1.611470 0.000000 
#    z 0.000000 0.000000 1.682400 
# 
# From -- ./inp_files/34417.got.cif
#   From: 2010.03.12/outbox.cif.g09.slc.cpg/sg67_18_cif.got.tgz:34417.got - 2010.04.10 22:41:39.
