data_PCOD8281910
_publ_section_title
;
Structure prediction by ZEFSAII (Michael W. Deem and Ramdas Pophale) SiO2 
 PCOD8281910
Probable space group: C C C A
;
_chemical_formula_sum "Si O2"
_cell_formula_units_Z 80
_cell_length_a 16.797200
_cell_length_b 24.261568
_cell_length_c 8.739638
_cell_angle_alpha 90.000000
_cell_angle_beta 90.000000
_cell_angle_gamma 90.000000
_cell_volume 3561.633299
_symmetry_space_group_name_H-M "C C C A"
_symmetry_group_IT_number 68
_space_group.IT_coordinate_system_code '2'
_symmetry_cell_setting 'orthorhombic'
loop_
_space_group_symop_operation_xyz
x,y,z
-x,1/2-y,z
x,1/2-y,1/2-z
-x,y,1/2-z
-x,-y,-z
x,1/2+y,-z
-x,1/2+y,1/2+z
x,-y,1/2+z
1/2+x,1/2+y,z
1/2-x,-y,z
1/2+x,-y,1/2-z
1/2-x,1/2+y,1/2-z
1/2-x,1/2-y,-z
1/2+x,y,-z
1/2-x,y,1/2+z
1/2+x,1/2-y,1/2+z
loop_
_atom_site_type_symbol
_atom_site_label
_atom_site_fract_x
_atom_site_fract_y
_atom_site_fract_z
Si Si1 0.350592 0.961262 0.353434
Si Si2 0.636012 0.778114 0.904492
Si Si3 0.689934 0.679388 0.106308
Si Si4 0.312907 0.438406 0.989913
Si Si5 0.926279 0.648475 0.857518
O O1 0.322491 0.960702 0.180570
O O2 0.278450 0.944669 0.463919
O O3 0.422645 0.917923 0.382270
O O4 0.371795 0.024701 0.401426
O O5 0.602420 0.750000 0.750000
O O6 0.716204 0.812117 0.866774
O O7 0.650532 0.731912 0.030999
O O8 0.570595 0.819853 0.978841
O O9 0.667022 0.626491 0.001482
O O10 0.654849 0.669174 0.275713
O O11 0.000000 0.664254 0.750000
#
# Coordination Sequence:
#
# PCOD8281910 Si02
#       5
#    16  16  16  16  16
#     4  10  20  35  60  94 125 173 216 273 327 389
#     4  11  22  37  66  93 123 165 230 285 330 401
#     4  10  21  38  61  95 127 170 218 278 333 403
#     4  10  19  33  59  89 125 160 224 270 319 386
#     4  11  24  43  63  93 139 179 215 277 355 410
#
# _framework density 22.461603
#
# number of rings (size 3 to 8) (size 9 to 14) (size 15 to 20)
#    0.000    1.600    2.000    5.400    2.800    3.200 
#    0.000    6.000    0.000    0.000    0.000    0.000 
#    0.000    0.000    0.000    0.000    0.000    0.200 
#
# Total GULP energy -495785.451877 kJ/mol
# GULP energy per Si atom -12394.636297 kJ/mol
# Density = 2.241048 g / cm^3
# Si number density = 22.461603 Si / 1000 Ang^3
#
#
#
# Elastic Constant Matrix: (Units=GPa)
#
#
# Indices 1 2 3 4 5 6 
#
# 1 55.8493 32.5448 33.4508 0.0000 0.0000 0.0000
# 2 32.5448 131.8579 37.1896 0.0000 0.0000 0.0000
# 3 33.4508 37.1896 92.5148 0.0000 0.0000 0.0000
# 4 0.0000 0.0000 0.0000 41.5680 0.0000 0.0000
# 5 0.0000 0.0000 0.0000 0.0000 23.6990 0.0000
# 6 0.0000 0.0000 0.0000 0.0000 0.0000 14.3265
#
#
#
# Elastic Compliance Matrix: (Units=1/GPa)
#
#
# Indices 1 2 3 4 5 6 
#
# 1 0.024610 -0.004020 -0.007282 0.000000 0.000000 0.000000
# 2 -0.004020 0.009210 -0.002249 0.000000 0.000000 0.000000
# 3 -0.007282 -0.002249 0.014346 0.000000 0.000000 0.000000
# 4 0.000000 0.000000 0.000000 0.024057 0.000000 0.000000
# 5 0.000000 0.000000 0.000000 0.000000 0.042196 0.000000
# 6 0.000000 0.000000 0.000000 0.000000 0.000000 0.069801
#
#
# Mechanical properties :
#
#
# Convention : Reuss Voigt Hill
#
# Bulk Modulus (GPa) = 47.47482 54.06584 50.77033
# Shear Modulus (GPa) = 22.89973 27.72115 25.31044
#
# Velocity S-wave (km/s) = 3.19643 3.51687 3.36047
# Velocity P-wave (km/s) = 5.89956 6.37289 6.14079
#
# Compressibility (1/GPa) = 0.02106380
#
# Stress axis : x y z
#
# Youngs Moduli (GPa) = 40.63459 108.57224 69.70535
#
# Poissons Ratio (x) = 0.43648 0.50760
# Poissons Ratio (y) = 0.16336 0.15676
# Poissons Ratio (z) = 0.29590 0.24417
#
# Static dielectric constant tensor:
#      x y z
#    x 3.493620 0.000000 0.000000 
#    y 0.000000 4.959390 0.000000 
#    z 0.000000 0.000000 4.041580 
# 
# 
# High freq. dielectric constant tensor:
#      x y z
#    x 1.824470 0.000000 0.000000 
#    y 0.000000 1.911180 0.000000 
#    z 0.000000 0.000000 1.888110 
# 
# From -- ./inp_files/6212.got.cif
#   From: 2010.03.12/outbox.cif.g09.slc.cpg/sg68_4_cif.got.tgz:6212.got - 2010.04.10 23:14:56.
