data_PCOD8281890
_publ_section_title
;
Structure prediction by ZEFSAII (Michael W. Deem and Ramdas Pophale) SiO2 
 PCOD8281890
Probable space group: C C C A
;
_chemical_formula_sum "Si O2"
_cell_formula_units_Z 96
_cell_length_a 9.545656
_cell_length_b 22.429934
_cell_length_c 25.564279
_cell_angle_alpha 90.000000
_cell_angle_beta 90.000000
_cell_angle_gamma 90.000000
_cell_volume 5473.527745
_symmetry_space_group_name_H-M "C C C A"
_symmetry_group_IT_number 68
_space_group.IT_coordinate_system_code '2'
_symmetry_cell_setting 'orthorhombic'
loop_
_space_group_symop_operation_xyz
x,y,z
-x,1/2-y,z
x,1/2-y,1/2-z
-x,y,1/2-z
-x,-y,-z
x,1/2+y,-z
-x,1/2+y,1/2+z
x,-y,1/2+z
1/2+x,1/2+y,z
1/2-x,-y,z
1/2+x,-y,1/2-z
1/2-x,1/2+y,1/2-z
1/2-x,1/2-y,-z
1/2+x,y,-z
1/2-x,y,1/2+z
1/2+x,1/2-y,1/2+z
loop_
_atom_site_type_symbol
_atom_site_label
_atom_site_fract_x
_atom_site_fract_y
_atom_site_fract_z
Si Si1 0.777163 0.171761 0.389010
Si Si2 0.984016 0.135480 0.041189
Si Si3 0.992774 0.820540 0.691877
Si Si4 0.586791 0.007107 0.552005
Si Si5 0.501131 0.115267 0.082058
Si Si6 0.266355 0.190016 0.889524
O O1 0.640941 0.130086 0.387319
O O2 0.730253 0.240336 0.385919
O O3 0.863188 0.158769 0.442220
O O4 0.874528 0.154192 0.339947
O O5 0.947270 0.073543 0.072044
O O6 0.864953 0.181927 0.059403
O O7 0.981548 0.129732 0.979056
O O8 0.848212 0.835248 0.661638
O O9 0.000000 0.750000 0.694742
O O10 0.000000 0.848748 0.750000
O O11 0.500000 0.000000 0.500000
O O12 0.750000 0.000000 0.539164
O O13 0.537653 0.954617 0.591400
O O14 0.622742 0.154760 0.106603
#
# Coordination Sequence:
#
# PCOD8281890 Si02
#       6
#    16  16  16  16  16  16
#     4  10  21  31  49  78 102 132 170 201 250 310
#     4  10  20  33  49  69 103 144 175 200 235 290
#     4   8  16  34  55  71  95 132 170 207 249 303
#     4  10  21  34  50  68  96 140 184 212 236 274
#     4  11  21  31  48  73 109 135 164 211 247 285
#     4  10  19  33  49  75 104 132 169 203 247 309
#
# _framework density 17.538962999999999
#
# number of rings (size 3 to 8) (size 9 to 14) (size 15 to 20)
#    0.000    2.167    1.667    3.000    7.000    4.000 
#    0.000    0.833    0.000    4.000    0.000   18.667 
#    0.000    0.000    0.000    0.000    0.000    0.000 
#
# Total GULP energy -594996.487565 kJ/mol
# GULP energy per Si atom -12395.760158 kJ/mol
# Density = 1.749904 g / cm^3
# Si number density = 17.538963 Si / 1000 Ang^3
#
#
#
# Elastic Constant Matrix: (Units=GPa)
#
#
# Indices 1 2 3 4 5 6 
#
# 1 139.8123 38.8342 33.5459 0.0000 0.0000 0.0000
# 2 38.8342 78.2071 16.5570 0.0000 0.0000 0.0000
# 3 33.5459 16.5570 85.2750 0.0000 0.0000 0.0000
# 4 0.0000 0.0000 0.0000 9.3547 0.0000 0.0000
# 5 0.0000 0.0000 0.0000 0.0000 6.4009 0.0000
# 6 0.0000 0.0000 0.0000 0.0000 0.0000 29.3282
#
#
#
# Elastic Compliance Matrix: (Units=1/GPa)
#
#
# Indices 1 2 3 4 5 6 
#
# 1 0.008874 -0.003825 -0.002748 0.000000 0.000000 0.000000
# 2 -0.003825 0.014983 -0.001405 0.000000 0.000000 0.000000
# 3 -0.002748 -0.001405 0.013081 0.000000 0.000000 0.000000
# 4 0.000000 0.000000 0.000000 0.106898 0.000000 0.000000
# 5 0.000000 0.000000 0.000000 0.000000 0.156227 0.000000
# 6 0.000000 0.000000 0.000000 0.000000 0.000000 0.034097
#
#
# Mechanical properties :
#
#
# Convention : Reuss Voigt Hill
#
# Bulk Modulus (GPa) = 47.65827 53.46319 50.56073
# Shear Modulus (GPa) = 14.00129 23.30725 18.65427
#
# Velocity S-wave (km/s) = 2.82848 3.64934 3.26481
# Velocity P-wave (km/s) = 6.15620 6.95022 6.56523
#
# Compressibility (1/GPa) = 0.02098272
#
# Stress axis : x y z
#
# Youngs Moduli (GPa) = 112.68583 66.74184 76.44879
#
# Poissons Ratio (x) = 0.25527 0.21011
# Poissons Ratio (y) = 0.43099 0.10738
# Poissons Ratio (z) = 0.30970 0.09374
#
# Static dielectric constant tensor:
#      x y z
#    x 3.362970 0.000000 0.000000 
#    y 0.000000 4.033170 0.000000 
#    z 0.000000 0.000000 3.205690 
# 
# 
# High freq. dielectric constant tensor:
#      x y z
#    x 1.690600 0.000000 0.000000 
#    y 0.000000 1.675180 0.000000 
#    z 0.000000 0.000000 1.633890 
# 
# From -- ./inp_files/46930.got.cif
#   From: 2010.03.12/outbox.cif.g09.slc.cpg/sg68_24_cif.got.tgz:46930.got - 2010.04.10 23:14:56.
