data_PCOD8281651
_publ_section_title
;
Structure prediction by ZEFSAII (Michael W. Deem and Ramdas Pophale) SiO2 
 PCOD8281651
Probable space group: C C C A
;
_chemical_formula_sum "Si O2"
_cell_formula_units_Z 104
_cell_length_a 15.876140
_cell_length_b 19.893886
_cell_length_c 13.993820
_cell_angle_alpha 90.000000
_cell_angle_beta 90.000000
_cell_angle_gamma 90.000000
_cell_volume 4419.781790
_symmetry_space_group_name_H-M "C C C A"
_symmetry_group_IT_number 68
_space_group.IT_coordinate_system_code '2'
_symmetry_cell_setting 'orthorhombic'
loop_
_space_group_symop_operation_xyz
x,y,z
-x,1/2-y,z
x,1/2-y,1/2-z
-x,y,1/2-z
-x,-y,-z
x,1/2+y,-z
-x,1/2+y,1/2+z
x,-y,1/2+z
1/2+x,1/2+y,z
1/2-x,-y,z
1/2+x,-y,1/2-z
1/2-x,1/2+y,1/2-z
1/2-x,1/2-y,-z
1/2+x,y,-z
1/2-x,y,1/2+z
1/2+x,1/2-y,1/2+z
loop_
_atom_site_type_symbol
_atom_site_label
_atom_site_fract_x
_atom_site_fract_y
_atom_site_fract_z
Si Si1 0.115246 0.856379 0.115132
Si Si2 0.923936 0.798665 0.575768
Si Si3 0.696764 0.820389 0.416343
Si Si4 0.204537 0.138805 0.870090
Si Si5 0.344680 0.525614 0.760444
Si Si6 0.880872 0.750000 0.250000
Si Si7 0.622604 0.617838 0.266343
O O1 0.209976 0.826493 0.125389
O O2 0.116090 0.933540 0.149744
O O3 0.064929 0.804348 0.186521
O O4 0.078950 0.853733 0.008875
O O5 0.834441 0.757330 0.574219
O O6 0.945661 0.837066 0.675758
O O7 0.000000 0.750000 0.551886
O O8 0.691088 0.859639 0.516259
O O9 0.634873 0.854753 0.339898
O O10 0.151834 0.074785 0.830866
O O11 0.175701 0.208291 0.824494
O O12 0.300269 0.125357 0.840472
O O13 0.250000 0.500000 0.785838
O O14 0.402783 0.460566 0.740483
#
# Coordination Sequence:
#
# PCOD8281651 Si02
#       7
#    16  16  16  16  16   8  16
#     4  11  20  36  68  98 127 164 225 292 337 395
#     4  12  27  42  61  95 138 182 230 273 344 409
#     4  12  21  36  65  94 126 171 221 284 343 388
#     4  10  19  32  59  97 128 157 211 277 335 395
#     4   9  19  37  59 104 132 164 211 283 351 393
#     4  10  16  32  57  90 123 152 204 278 332 378
#     4  11  22  37  61  96 135 170 214 272 346 409
#
# _framework density 23.530573
#
# number of rings (size 3 to 8) (size 9 to 14) (size 15 to 20)
#    0.000    1.231    7.692    1.846    0.000    2.462 
#    2.769    0.385    0.000    5.538    0.000    0.000 
#    0.000    0.000    0.000    0.000    0.000    0.000 
#
# Total GULP energy -644511.242515 kJ/mol
# GULP energy per Si atom -12394.446971 kJ/mol
# Density = 2.347702 g / cm^3
# Si number density = 23.530573 Si / 1000 Ang^3
#
#
#
# Elastic Constant Matrix: (Units=GPa)
#
#
# Indices 1 2 3 4 5 6 
#
# 1 25.4556 0.5704 8.8170 0.0000 0.0000 0.0000
# 2 0.5704 169.1175 73.1319 0.0000 0.0000 0.0000
# 3 8.8170 73.1319 193.3263 0.0000 0.0000 0.0000
# 4 0.0000 0.0000 0.0000 38.5720 0.0000 0.0000
# 5 0.0000 0.0000 0.0000 0.0000 11.9127 0.0000
# 6 0.0000 0.0000 0.0000 0.0000 0.0000 11.4256
#
#
#
# Elastic Compliance Matrix: (Units=1/GPa)
#
#
# Indices 1 2 3 4 5 6 
#
# 1 0.040001 0.000782 -0.002120 0.000000 0.000000 0.000000
# 2 0.000782 0.007085 -0.002716 0.000000 0.000000 0.000000
# 3 -0.002120 -0.002716 0.006297 0.000000 0.000000 0.000000
# 4 0.000000 0.000000 0.000000 0.025926 0.000000 0.000000
# 5 0.000000 0.000000 0.000000 0.000000 0.083944 0.000000
# 6 0.000000 0.000000 0.000000 0.000000 0.000000 0.087522
#
#
# Mechanical properties :
#
#
# Convention : Reuss Voigt Hill
#
# Bulk Modulus (GPa) = 22.08750 61.43756 41.76253
# Shear Modulus (GPa) = 18.24993 32.74074 25.49534
#
# Velocity S-wave (km/s) = 2.78795 3.73421 3.29522
# Velocity P-wave (km/s) = 4.44642 6.69020 5.68021
#
# Compressibility (1/GPa) = 0.04527448
#
# Stress axis : x y z
#
# Youngs Moduli (GPa) = 24.99941 141.14782 158.81606
#
# Poissons Ratio (x) = -0.11036 0.33670
# Poissons Ratio (y) = -0.01955 0.43130
# Poissons Ratio (z) = 0.05300 0.38332
#
# Static dielectric constant tensor:
#      x y z
#    x 3.777490 0.000000 0.000000 
#    y 0.000000 4.615160 0.000000 
#    z 0.000000 0.000000 4.462130 
# 
# 
# High freq. dielectric constant tensor:
#      x y z
#    x 1.889640 0.000000 0.000000 
#    y 0.000000 1.937160 0.000000 
#    z 0.000000 0.000000 1.945440 
# 
# From -- ./inp_files/24626.got.cif
#   From: 2010.03.12/outbox.cif.g09.slc.cpg/sg68_13_cif.got.tgz:24626.got - 2010.04.10 23:14:56.
