data_PCOD8282801
_publ_section_title
;
Structure prediction by ZEFSAII (Michael W. Deem and Ramdas Pophale) SiO2 
 PCOD8282801
Probable space group: C C C A
;
_chemical_formula_sum "Si O2"
_cell_formula_units_Z 88
_cell_length_a 32.201188
_cell_length_b 9.198639
_cell_length_c 14.439053
_cell_angle_alpha 90.000000
_cell_angle_beta 90.000000
_cell_angle_gamma 90.000000
_cell_volume 4276.950071
_symmetry_space_group_name_H-M "C C C A"
_symmetry_group_IT_number 68
_space_group.IT_coordinate_system_code '2'
_symmetry_cell_setting 'orthorhombic'
loop_
_space_group_symop_operation_xyz
x,y,z
-x,1/2-y,z
x,1/2-y,1/2-z
-x,y,1/2-z
-x,-y,-z
x,1/2+y,-z
-x,1/2+y,1/2+z
x,-y,1/2+z
1/2+x,1/2+y,z
1/2-x,-y,z
1/2+x,-y,1/2-z
1/2-x,1/2+y,1/2-z
1/2-x,1/2-y,-z
1/2+x,y,-z
1/2-x,y,1/2+z
1/2+x,1/2-y,1/2+z
loop_
_atom_site_type_symbol
_atom_site_label
_atom_site_fract_x
_atom_site_fract_y
_atom_site_fract_z
Si Si1 0.545304 0.079382 0.736870
Si Si2 0.750000 0.000000 0.760036
Si Si3 0.191243 0.509219 0.597060
Si Si4 0.891614 0.589012 0.606696
Si Si5 0.599922 0.073223 0.573553
Si Si6 0.200431 0.651524 0.910088
O O1 0.539865 0.250000 0.750000
O O2 0.500000 0.004871 0.750000
O O3 0.581781 0.034074 0.806724
O O4 0.561024 0.027358 0.636668
O O5 0.712616 0.951302 0.691441
O O6 0.734906 0.126055 0.830362
O O7 0.141805 0.493284 0.609344
O O8 0.199915 0.677274 0.575952
O O9 0.209888 0.418165 0.510696
O O10 0.898688 0.753310 0.574682
O O11 0.907967 0.478530 0.529697
O O12 0.842418 0.578846 0.627700
#
# Coordination Sequence:
#
# PCOD8282801 Si02
#       6
#    16   8  16  16  16  16
#     4   9  17  30  52  81 108 136 172 211 255 311
#     4  12  22  32  54  78 102 132 172 220 266 308
#     4  10  22  38  55  77 105 139 178 219 264 315
#     4   9  18  35  56  76 103 139 176 213 256 308
#     4   9  18  35  56  76 103 139 176 213 256 308
#     4  10  22  38  55  77 105 139 178 219 264 315
#
# _framework density 20.575410000000002
#
# number of rings (size 3 to 8) (size 9 to 14) (size 15 to 20)
#    0.000    2.364    0.000    2.182    0.000    8.000 
#    0.000    0.909    0.000    9.818    0.000    0.000 
#    0.000    0.000    0.000    0.000    0.000    0.000 
#
# Total GULP energy -545212.073867 kJ/mol
# GULP energy per Si atom -12391.183497 kJ/mol
# Density = 2.052858 g / cm^3
# Si number density = 20.575410 Si / 1000 Ang^3
#
#
#
# Elastic Constant Matrix: (Units=GPa)
#
#
# Indices 1 2 3 4 5 6 
#
# 1 81.8798 18.6132 33.0279 0.0000 0.0000 0.0000
# 2 18.6132 32.2065 31.9040 0.0000 0.0000 0.0000
# 3 33.0279 31.9040 95.3193 0.0000 0.0000 0.0000
# 4 0.0000 0.0000 0.0000 22.8764 0.0000 0.0000
# 5 0.0000 0.0000 0.0000 0.0000 32.1650 0.0000
# 6 0.0000 0.0000 0.0000 0.0000 0.0000 13.4974
#
#
#
# Elastic Compliance Matrix: (Units=1/GPa)
#
#
# Indices 1 2 3 4 5 6 
#
# 1 0.014753 -0.005180 -0.003378 0.000000 0.000000 0.000000
# 2 -0.005180 0.048270 -0.014361 0.000000 0.000000 0.000000
# 3 -0.003378 -0.014361 0.016468 0.000000 0.000000 0.000000
# 4 0.000000 0.000000 0.000000 0.043713 0.000000 0.000000
# 5 0.000000 0.000000 0.000000 0.000000 0.031090 0.000000
# 6 0.000000 0.000000 0.000000 0.000000 0.000000 0.074088
#
#
# Mechanical properties :
#
#
# Convention : Reuss Voigt Hill
#
# Bulk Modulus (GPa) = 29.71555 41.83288 35.77422
# Shear Modulus (GPa) = 17.51687 22.09844 19.80765
#
# Velocity S-wave (km/s) = 2.92096 3.28078 3.10608
# Velocity P-wave (km/s) = 5.08425 5.89296 5.50348
#
# Compressibility (1/GPa) = 0.03365241
#
# Stress axis : x y z
#
# Youngs Moduli (GPa) = 67.78189 20.71694 60.72217
#
# Poissons Ratio (x) = 0.10731 0.20513
# Poissons Ratio (y) = 0.35110 0.87205
# Poissons Ratio (z) = 0.22898 0.29752
#
# Static dielectric constant tensor:
#      x y z
#    x 4.176250 0.000000 0.000000 
#    y 0.000000 3.374200 0.000000 
#    z 0.000000 0.000000 3.816830 
# 
# 
# High freq. dielectric constant tensor:
#      x y z
#    x 1.810410 0.000000 0.000000 
#    y 0.000000 1.769060 0.000000 
#    z 0.000000 0.000000 1.811070 
# 
# From -- ./inp_files/26341.got.cif
#   From: 2010.03.12/outbox.cif.g09.slc.cpg/sg68_14_cif.got.tgz:26341.got - 2010.04.10 23:14:56.
