data_PCOD8282041
_publ_section_title
;
Structure prediction by ZEFSAII (Michael W. Deem and Ramdas Pophale) SiO2 
 PCOD8282041
Probable space group: C C C A
;
_chemical_formula_sum "Si O2"
_cell_formula_units_Z 72
_cell_length_a 18.621949
_cell_length_b 9.594489
_cell_length_c 17.735919
_cell_angle_alpha 90.000000
_cell_angle_beta 90.000000
_cell_angle_gamma 90.000000
_cell_volume 3168.842681
_symmetry_space_group_name_H-M "C C C A"
_symmetry_group_IT_number 68
_space_group.IT_coordinate_system_code '2'
_symmetry_cell_setting 'orthorhombic'
loop_
_space_group_symop_operation_xyz
x,y,z
-x,1/2-y,z
x,1/2-y,1/2-z
-x,y,1/2-z
-x,-y,-z
x,1/2+y,-z
-x,1/2+y,1/2+z
x,-y,1/2+z
1/2+x,1/2+y,z
1/2-x,-y,z
1/2+x,-y,1/2-z
1/2-x,1/2+y,1/2-z
1/2-x,1/2-y,-z
1/2+x,y,-z
1/2-x,y,1/2+z
1/2+x,1/2-y,1/2+z
loop_
_atom_site_type_symbol
_atom_site_label
_atom_site_fract_x
_atom_site_fract_y
_atom_site_fract_z
Si Si1 0.303869 0.873402 0.195820
Si Si2 0.569170 0.985457 0.213596
Si Si3 0.671113 0.462471 0.413250
Si Si4 0.856785 0.764042 0.955861
Si Si5 0.000000 0.750000 0.888130
O O1 0.276443 0.750000 0.250000
O O2 0.383604 0.923235 0.218644
O O3 0.305223 0.814125 0.111508
O O4 0.250000 0.000000 0.200917
O O5 0.500000 0.066760 0.250000
O O6 0.619468 0.076280 0.157769
O O7 0.539122 0.859501 0.164776
O O8 0.750000 0.500000 0.381216
O O9 0.673449 0.327824 0.466740
O O10 0.643495 0.595687 0.461144
O O11 0.938611 0.815944 0.942117
#
# Coordination Sequence:
#
# PCOD8282041 Si02
#       5
#    16  16  16  16   8
#     4  12  23  41  68 100 128 173 233 288 335 399
#     4  11  20  39  69  94 127 170 233 269 331 402
#     4  11  24  42  67 100 138 177 222 277 342 404
#     4  11  24  41  68 100 134 177 224 280 340 412
#     4  10  19  38  70  92 125 168 226 272 325 402
#
# _framework density 22.721228
#
# number of rings (size 3 to 8) (size 9 to 14) (size 15 to 20)
#    0.000    0.889    6.667    2.333    0.000    3.556 
#    0.000    0.000    0.000    3.333    0.000    0.000 
#    0.000    0.000    0.000    0.000    0.000    0.000 
#
# Total GULP energy -446354.671229 kJ/mol
# GULP energy per Si atom -12398.740867 kJ/mol
# Density = 2.266951 g / cm^3
# Si number density = 22.721228 Si / 1000 Ang^3
#
#
#
# Elastic Constant Matrix: (Units=GPa)
#
#
# Indices 1 2 3 4 5 6 
#
# 1 132.8314 18.0837 29.1662 0.0000 0.0000 0.0000
# 2 18.0837 65.7473 16.8499 0.0000 0.0000 0.0000
# 3 29.1662 16.8499 96.4212 0.0000 0.0000 0.0000
# 4 0.0000 0.0000 0.0000 25.1532 0.0000 0.0000
# 5 0.0000 0.0000 0.0000 0.0000 31.0070 0.0000
# 6 0.0000 0.0000 0.0000 0.0000 0.0000 25.3288
#
#
#
# Elastic Compliance Matrix: (Units=1/GPa)
#
#
# Indices 1 2 3 4 5 6 
#
# 1 0.008242 -0.001704 -0.002195 0.000000 0.000000 0.000000
# 2 -0.001704 0.016275 -0.002329 0.000000 0.000000 0.000000
# 3 -0.002195 -0.002329 0.011442 0.000000 0.000000 0.000000
# 4 0.000000 0.000000 0.000000 0.039756 0.000000 0.000000
# 5 0.000000 0.000000 0.000000 0.000000 0.032251 0.000000
# 6 0.000000 0.000000 0.000000 0.000000 0.000000 0.039481
#
#
# Mechanical properties :
#
#
# Convention : Reuss Voigt Hill
#
# Bulk Modulus (GPa) = 42.54756 47.02218 44.78487
# Shear Modulus (GPa) = 29.80821 31.69114 30.74967
#
# Velocity S-wave (km/s) = 3.62596 3.73873 3.68278
# Velocity P-wave (km/s) = 6.02467 6.27516 6.15119
#
# Compressibility (1/GPa) = 0.02350311
#
# Stress axis : x y z
#
# Youngs Moduli (GPa) = 121.32347 61.44273 87.39607
#
# Poissons Ratio (x) = 0.10472 0.19187
# Poissons Ratio (y) = 0.20679 0.20351
# Poissons Ratio (z) = 0.26635 0.14308
#
# Static dielectric constant tensor:
#      x y z
#    x 5.279900 0.000000 0.000000 
#    y 0.000000 3.721350 0.000000 
#    z 0.000000 0.000000 4.118990 
# 
# 
# High freq. dielectric constant tensor:
#      x y z
#    x 1.918750 0.000000 0.000000 
#    y 0.000000 1.857130 0.000000 
#    z 0.000000 0.000000 1.893620 
# 
# From -- ./inp_files/31641.got.cif
#   From: 2010.03.12/outbox.cif.g09.slc.cpg/sg68_16_cif.got.tgz:31641.got - 2010.04.10 23:14:56.
