data_PCOD8282246
_publ_section_title
;
Structure prediction by ZEFSAII (Michael W. Deem and Ramdas Pophale) SiO2 
 PCOD8282246
Probable space group: C C C A
;
_chemical_formula_sum "Si O2"
_cell_formula_units_Z 88
_cell_length_a 24.645381
_cell_length_b 8.823659
_cell_length_c 20.005054
_cell_angle_alpha 90.000000
_cell_angle_beta 90.000000
_cell_angle_gamma 90.000000
_cell_volume 4350.347813
_symmetry_space_group_name_H-M "C C C A"
_symmetry_group_IT_number 68
_space_group.IT_coordinate_system_code '2'
_symmetry_cell_setting 'orthorhombic'
loop_
_space_group_symop_operation_xyz
x,y,z
-x,1/2-y,z
x,1/2-y,1/2-z
-x,y,1/2-z
-x,-y,-z
x,1/2+y,-z
-x,1/2+y,1/2+z
x,-y,1/2+z
1/2+x,1/2+y,z
1/2-x,-y,z
1/2+x,-y,1/2-z
1/2-x,1/2+y,1/2-z
1/2-x,1/2-y,-z
1/2+x,y,-z
1/2-x,y,1/2+z
1/2+x,1/2-y,1/2+z
loop_
_atom_site_type_symbol
_atom_site_label
_atom_site_fract_x
_atom_site_fract_y
_atom_site_fract_z
Si Si1 0.812413 0.961161 0.644031
Si Si2 0.026081 0.484356 0.072002
Si Si3 0.866468 0.750000 0.750000
Si Si4 0.083963 0.546717 0.860468
Si Si5 0.873806 0.274584 0.455174
Si Si6 0.611488 0.278402 0.393959
O O1 0.828014 0.856354 0.706213
O O2 0.823837 0.869847 0.575336
O O3 0.750000 0.000000 0.648745
O O4 0.846759 0.116390 0.646176
O O5 0.070413 0.353248 0.068388
O O6 0.053700 0.641201 0.094444
O O7 0.980162 0.442130 0.125411
O O8 0.000000 0.500000 0.000000
O O9 0.904945 0.856765 0.794242
O O10 0.120466 0.607777 0.922754
O O11 0.101745 0.372256 0.850572
O O12 0.863924 0.263409 0.533610
#
# Coordination Sequence:
#
# PCOD8282246 Si02
#       6
#    16  16   8  16  16  16
#     4  10  24  45  66  88 119 168 219 269 325 369
#     4  11  19  33  62  97 130 165 198 244 315 386
#     4  10  26  46  61  84 124 172 221 272 302 376
#     4  11  21  36  61  92 128 165 207 252 315 368
#     4  10  20  37  60  99 131 155 198 260 319 385
#     4  11  21  36  63 100 124 156 210 261 313 390
#
# _framework density 20.228268
#
# number of rings (size 3 to 8) (size 9 to 14) (size 15 to 20)
#    0.000    1.455    3.636    2.182    0.000    2.909 
#    0.000   19.091    0.000    8.727    0.000    0.000 
#    0.000    0.000    0.000    0.000    0.000    0.000 
#
# Total GULP energy -545685.076585 kJ/mol
# GULP energy per Si atom -12401.933559 kJ/mol
# Density = 2.018223 g / cm^3
# Si number density = 20.228268 Si / 1000 Ang^3
#
#
#
# Elastic Constant Matrix: (Units=GPa)
#
#
# Indices 1 2 3 4 5 6 
#
# 1 139.0250 66.1421 63.4638 0.0000 0.0000 0.0000
# 2 66.1421 151.6747 52.0637 0.0000 0.0000 0.0000
# 3 63.4638 52.0637 108.2959 0.0000 0.0000 0.0000
# 4 0.0000 0.0000 0.0000 26.4708 0.0000 0.0000
# 5 0.0000 0.0000 0.0000 0.0000 22.8163 0.0000
# 6 0.0000 0.0000 0.0000 0.0000 0.0000 24.2664
#
#
#
# Elastic Compliance Matrix: (Units=1/GPa)
#
#
# Indices 1 2 3 4 5 6 
#
# 1 0.010892 -0.003065 -0.004910 0.000000 0.000000 0.000000
# 2 -0.003065 0.008758 -0.002415 0.000000 0.000000 0.000000
# 3 -0.004910 -0.002415 0.013272 0.000000 0.000000 0.000000
# 4 0.000000 0.000000 0.000000 0.037777 0.000000 0.000000
# 5 0.000000 0.000000 0.000000 0.000000 0.043828 0.000000
# 6 0.000000 0.000000 0.000000 0.000000 0.000000 0.041209
#
#
# Mechanical properties :
#
#
# Convention : Reuss Voigt Hill
#
# Bulk Modulus (GPa) = 82.34150 84.70384 83.52267
# Shear Modulus (GPa) = 27.69105 29.19911 28.44508
#
# Velocity S-wave (km/s) = 3.70392 3.80344 3.75401
# Velocity P-wave (km/s) = 7.68678 7.82644 7.75692
#
# Compressibility (1/GPa) = 0.01214454
#
# Stress axis : x y z
#
# Youngs Moduli (GPa) = 91.80882 114.17743 75.34612
#
# Poissons Ratio (x) = 0.34990 0.36993
# Poissons Ratio (y) = 0.28135 0.18194
# Poissons Ratio (z) = 0.45076 0.27571
#
# Static dielectric constant tensor:
#      x y z
#    x 3.558730 0.000000 0.000000 
#    y 0.000000 4.047910 0.000000 
#    z 0.000000 0.000000 3.539080 
# 
# 
# High freq. dielectric constant tensor:
#      x y z
#    x 1.768220 0.000000 0.000000 
#    y 0.000000 1.815560 0.000000 
#    z 0.000000 0.000000 1.774770 
# 
# From -- ./inp_files/40762.got.cif
#   From: 2010.03.12/outbox.cif.g09.slc.cpg/sg68_21_cif.got.tgz:40762.got - 2010.04.10 23:14:56.
