data_PCOD8282610
_publ_section_title
;
Structure prediction by ZEFSAII (Michael W. Deem and Ramdas Pophale) SiO2 
 PCOD8282610
Probable space group: C C C A
;
_chemical_formula_sum "Si O2"
_cell_formula_units_Z 96
_cell_length_a 13.171554
_cell_length_b 20.010726
_cell_length_c 18.211522
_cell_angle_alpha 90.000000
_cell_angle_beta 90.000000
_cell_angle_gamma 90.000000
_cell_volume 4800.053798
_symmetry_space_group_name_H-M "C C C A"
_symmetry_group_IT_number 68
_space_group.IT_coordinate_system_code '2'
_symmetry_cell_setting 'orthorhombic'
loop_
_space_group_symop_operation_xyz
x,y,z
-x,1/2-y,z
x,1/2-y,1/2-z
-x,y,1/2-z
-x,-y,-z
x,1/2+y,-z
-x,1/2+y,1/2+z
x,-y,1/2+z
1/2+x,1/2+y,z
1/2-x,-y,z
1/2+x,-y,1/2-z
1/2-x,1/2+y,1/2-z
1/2-x,1/2-y,-z
1/2+x,y,-z
1/2-x,y,1/2+z
1/2+x,1/2-y,1/2+z
loop_
_atom_site_type_symbol
_atom_site_label
_atom_site_fract_x
_atom_site_fract_y
_atom_site_fract_z
Si Si1 0.615950 0.227771 0.926704
Si Si2 0.200069 0.932877 0.838089
Si Si3 0.247816 0.148116 0.469833
Si Si4 0.987592 0.482647 0.165628
Si Si5 0.175952 0.562013 0.405982
Si Si6 0.328621 0.129191 0.689537
O O1 0.500000 0.250000 0.938247
O O2 0.689109 0.289977 0.935847
O O3 0.637124 0.200753 0.843788
O O4 0.649700 0.171162 0.987133
O O5 0.271573 0.902030 0.901821
O O6 0.179014 0.874877 0.777777
O O7 0.092532 0.958082 0.870425
O O8 0.250000 0.000000 0.803024
O O9 0.170817 0.109119 0.523132
O O10 0.938308 0.541224 0.116346
O O11 0.913347 0.420574 0.160671
O O12 0.000000 0.506942 0.250000
O O13 0.250000 0.500000 0.422899
O O14 0.218936 0.606668 0.339443
#
# Coordination Sequence:
#
# PCOD8282610 Si02
#       6
#    16  16  16  16  16  16
#     4  10  21  39  57  75 105 146 189 230 266 314
#     4  11  21  33  51  82 114 137 173 225 277 334
#     4  10  22  35  52  80 108 142 185 223 274 329
#     4   9  17  30  51  79 107 139 179 219 268 324
#     4   9  17  33  53  74 106 143 175 219 275 325
#     4   9  18  34  55  76 104 139 179 226 272 319
#
# _framework density 19.999776000000001
#
# number of rings (size 3 to 8) (size 9 to 14) (size 15 to 20)
#    0.000    2.333    0.000    4.000    0.000    2.667 
#    0.000    0.833    0.000    0.000    0.000   10.500 
#    0.000    0.000    0.000    0.000    0.000    0.000 
#
# Total GULP energy -594824.791477 kJ/mol
# GULP energy per Si atom -12392.183156 kJ/mol
# Density = 1.995426 g / cm^3
# Si number density = 19.999776 Si / 1000 Ang^3
#
#
#
# Elastic Constant Matrix: (Units=GPa)
#
#
# Indices 1 2 3 4 5 6 
#
# 1 83.7204 33.2695 48.8267 0.0000 0.0000 0.0000
# 2 33.2695 88.1247 63.1189 0.0000 0.0000 0.0000
# 3 48.8267 63.1189 102.0002 0.0000 0.0000 0.0000
# 4 0.0000 0.0000 0.0000 37.1260 0.0000 0.0000
# 5 0.0000 0.0000 0.0000 0.0000 22.5516 0.0000
# 6 0.0000 0.0000 0.0000 0.0000 0.0000 28.9076
#
#
#
# Elastic Compliance Matrix: (Units=1/GPa)
#
#
# Indices 1 2 3 4 5 6 
#
# 1 0.016623 -0.001035 -0.007317 0.000000 0.000000 0.000000
# 2 -0.001035 0.020445 -0.012156 0.000000 0.000000 0.000000
# 3 -0.007317 -0.012156 0.020829 0.000000 0.000000 0.000000
# 4 0.000000 0.000000 0.000000 0.026935 0.000000 0.000000
# 5 0.000000 0.000000 0.000000 0.000000 0.044343 0.000000
# 6 0.000000 0.000000 0.000000 0.000000 0.000000 0.034593
#
#
# Mechanical properties :
#
#
# Convention : Reuss Voigt Hill
#
# Bulk Modulus (GPa) = 59.23867 62.69727 60.96797
# Shear Modulus (GPa) = 23.76296 26.29237 25.02767
#
# Velocity S-wave (km/s) = 3.45071 3.62972 3.54135
# Velocity P-wave (km/s) = 6.74985 6.99882 6.87547
#
# Compressibility (1/GPa) = 0.01688087
#
# Stress axis : x y z
#
# Youngs Moduli (GPa) = 60.15718 48.91138 48.01027
#
# Poissons Ratio (x) = 0.05062 0.35129
# Poissons Ratio (y) = 0.06226 0.58362
# Poissons Ratio (z) = 0.44016 0.59458
#
# Static dielectric constant tensor:
#      x y z
#    x 3.660650 0.000000 0.000000 
#    y 0.000000 3.681190 0.000000 
#    z 0.000000 0.000000 3.640040 
# 
# 
# High freq. dielectric constant tensor:
#      x y z
#    x 1.764670 0.000000 0.000000 
#    y 0.000000 1.773790 0.000000 
#    z 0.000000 0.000000 1.777110 
# 
# From -- ./inp_files/29811.got.cif
#   From: 2010.03.12/outbox.cif.g09.slc.cpg/sg68_15_cif.got.tgz:29811.got - 2010.04.10 23:14:56.
