data_PCOD8282959
_publ_section_title
;
Structure prediction by ZEFSAII (Michael W. Deem and Ramdas Pophale) SiO2 
 PCOD8282959
Probable space group: C C C A
;
_chemical_formula_sum "Si O2"
_cell_formula_units_Z 88
_cell_length_a 21.234852
_cell_length_b 7.880231
_cell_length_c 23.440784
_cell_angle_alpha 90.000000
_cell_angle_beta 90.000000
_cell_angle_gamma 90.000000
_cell_volume 3922.476225
_symmetry_space_group_name_H-M "C C C A"
_symmetry_group_IT_number 68
_space_group.IT_coordinate_system_code '2'
_symmetry_cell_setting 'orthorhombic'
loop_
_space_group_symop_operation_xyz
x,y,z
-x,1/2-y,z
x,1/2-y,1/2-z
-x,y,1/2-z
-x,-y,-z
x,1/2+y,-z
-x,1/2+y,1/2+z
x,-y,1/2+z
1/2+x,1/2+y,z
1/2-x,-y,z
1/2+x,-y,1/2-z
1/2-x,1/2+y,1/2-z
1/2-x,1/2-y,-z
1/2+x,y,-z
1/2-x,y,1/2+z
1/2+x,1/2-y,1/2+z
loop_
_atom_site_type_symbol
_atom_site_label
_atom_site_fract_x
_atom_site_fract_y
_atom_site_fract_z
Si Si1 0.994350 0.066541 0.374558
Si Si2 0.609376 0.750000 0.750000
Si Si3 0.376584 0.610596 0.438063
Si Si4 0.387252 0.009755 0.434677
Si Si5 0.500000 0.005041 0.250000
Si Si6 0.250000 0.000000 0.110846
Si Si7 0.704040 0.654361 0.847206
O O1 0.923191 0.014828 0.392511
O O2 0.000000 0.250000 0.404865
O O3 0.047614 0.944926 0.401454
O O4 0.012370 0.097456 0.307850
O O5 0.561369 0.893197 0.772003
O O6 0.651264 0.669772 0.799194
O O7 0.370637 0.811505 0.428337
O O8 0.399225 0.569516 0.501430
O O9 0.309349 0.523755 0.429970
O O10 0.329522 0.114330 0.407445
O O11 0.241891 0.832181 0.149946
O O12 0.750000 0.500000 0.829915
#
# Coordination Sequence:
#
# PCOD8282959 Si02
#       7
#    16   8  16  16   8   8  16
#     4  10  22  42  68 103 139 185 237 297 355 413
#     4  11  26  44  68 100 130 185 232 294 352 417
#     4  11  24  41  69 106 144 189 237 291 358 422
#     4  11  23  45  69 102 144 186 237 299 351 423
#     4  11  21  44  70  98 135 179 240 293 354 421
#     4  12  26  44  70 106 140 190 234 282 354 430
#     4  12  26  48  71 102 146 183 239 292 355 431
#
# _framework density 22.434805999999998
#
# number of rings (size 3 to 8) (size 9 to 14) (size 15 to 20)
#    0.000    0.909    3.636    3.000    2.545    1.455 
#    0.000    0.000    0.000    0.000    0.000    0.000 
#    0.000    0.000    0.000    0.000    0.000    0.000 
#
# Total GULP energy -545391.567624 kJ/mol
# GULP energy per Si atom -12395.262901 kJ/mol
# Density = 2.238374 g / cm^3
# Si number density = 22.434806 Si / 1000 Ang^3
#
#
#
# Elastic Constant Matrix: (Units=GPa)
#
#
# Indices 1 2 3 4 5 6 
#
# 1 147.2149 41.8560 55.6152 0.0000 0.0000 0.0000
# 2 41.8560 113.5490 19.3677 0.0000 0.0000 0.0000
# 3 55.6152 19.3677 126.4376 0.0000 0.0000 0.0000
# 4 0.0000 0.0000 0.0000 20.9678 0.0000 0.0000
# 5 0.0000 0.0000 0.0000 0.0000 35.6563 0.0000
# 6 0.0000 0.0000 0.0000 0.0000 0.0000 9.9218
#
#
#
# Elastic Compliance Matrix: (Units=1/GPa)
#
#
# Indices 1 2 3 4 5 6 
#
# 1 0.008873 -0.002675 -0.003493 0.000000 0.000000 0.000000
# 2 -0.002675 0.009849 -0.000332 0.000000 0.000000 0.000000
# 3 -0.003493 -0.000332 0.009496 0.000000 0.000000 0.000000
# 4 0.000000 0.000000 0.000000 0.047692 0.000000 0.000000
# 5 0.000000 0.000000 0.000000 0.000000 0.028046 0.000000
# 6 0.000000 0.000000 0.000000 0.000000 0.000000 0.100788
#
#
# Mechanical properties :
#
#
# Convention : Reuss Voigt Hill
#
# Bulk Modulus (GPa) = 65.70979 68.98660 67.34819
# Shear Modulus (GPa) = 22.43982 31.33335 26.88659
#
# Velocity S-wave (km/s) = 3.16606 3.74122 3.46559
# Velocity P-wave (km/s) = 6.53591 7.03412 6.78958
#
# Compressibility (1/GPa) = 0.01521843
#
# Stress axis : x y z
#
# Youngs Moduli (GPa) = 112.70192 101.52863 105.30286
#
# Poissons Ratio (x) = 0.27158 0.36784
# Poissons Ratio (y) = 0.30147 0.03498
# Poissons Ratio (z) = 0.39368 0.03372
#
# Static dielectric constant tensor:
#      x y z
#    x 4.254110 0.000000 0.000000 
#    y 0.000000 4.021640 0.000000 
#    z 0.000000 0.000000 3.772130 
# 
# 
# High freq. dielectric constant tensor:
#      x y z
#    x 1.898650 0.000000 0.000000 
#    y 0.000000 1.884800 0.000000 
#    z 0.000000 0.000000 1.877220 
# 
# From -- ./inp_files/46519.got.cif
#   From: 2010.03.12/outbox.cif.g09.slc.cpg/sg68_24_cif.got.tgz:46519.got - 2010.04.10 23:14:56.
