data_PCOD8282945
_publ_section_title
;
Structure prediction by ZEFSAII (Michael W. Deem and Ramdas Pophale) SiO2 
 PCOD8282945
Probable space group: C C C A
;
_chemical_formula_sum "Si O2"
_cell_formula_units_Z 60
_cell_length_a 21.800836
_cell_length_b 8.566203
_cell_length_c 13.799214
_cell_angle_alpha 90.000000
_cell_angle_beta 90.000000
_cell_angle_gamma 90.000000
_cell_volume 2577.008551
_symmetry_space_group_name_H-M "C C C A"
_symmetry_group_IT_number 68
_space_group.IT_coordinate_system_code '2'
_symmetry_cell_setting 'orthorhombic'
loop_
_space_group_symop_operation_xyz
x,y,z
-x,1/2-y,z
x,1/2-y,1/2-z
-x,y,1/2-z
-x,-y,-z
x,1/2+y,-z
-x,1/2+y,1/2+z
x,-y,1/2+z
1/2+x,1/2+y,z
1/2-x,-y,z
1/2+x,-y,1/2-z
1/2-x,1/2+y,1/2-z
1/2-x,1/2-y,-z
1/2+x,y,-z
1/2-x,y,1/2+z
1/2+x,1/2-y,1/2+z
loop_
_atom_site_type_symbol
_atom_site_label
_atom_site_fract_x
_atom_site_fract_y
_atom_site_fract_z
Si Si1 0.228616 0.330938 0.653731
Si Si2 0.000000 0.250000 0.750000
Si Si3 0.808945 0.603919 0.545351
Si Si4 0.500000 0.250000 0.950159
Si Si5 0.432038 0.043444 0.102067
O O1 0.200161 0.250000 0.750000
O O2 0.250000 0.500000 0.688812
O O3 0.177649 0.333332 0.565491
O O4 0.290975 0.243167 0.617993
O O5 0.951924 0.141782 0.805688
O O6 0.750000 0.500000 0.526942
O O7 0.860195 0.492581 0.591703
O O8 0.462194 0.372168 0.886729
O O9 0.452470 0.144949 0.010321
#
# Coordination Sequence:
#
# PCOD8282945 Si02
#       5
#    16   4  16   8  16
#     4  10  22  42  63 103 146 189 240 284 367 447
#     4  10  24  50  72 106 140 192 264 312 356 434
#     4  10  23  43  71 101 146 190 230 301 379 432
#     4   9  22  42  72  95 136 192 244 295 369 429
#     4  10  22  46  73 104 138 191 247 304 366 442
#
# _framework density 23.282810999999999
#
# number of rings (size 3 to 8) (size 9 to 14) (size 15 to 20)
#    0.000    2.133    0.000    0.800   11.200    1.600 
#   12.000    0.000    0.000    0.000    0.000    0.000 
#    0.000    0.000    0.000    0.000    0.000    0.000 
#
# Total GULP energy -371741.364365 kJ/mol
# GULP energy per Si atom -12391.378812 kJ/mol
# Density = 2.322982 g / cm^3
# Si number density = 23.282811 Si / 1000 Ang^3
#
#
#
# Elastic Constant Matrix: (Units=GPa)
#
#
# Indices 1 2 3 4 5 6 
#
# 1 122.8040 40.4658 44.1431 0.0000 0.0000 0.0000
# 2 40.4658 159.7791 56.1054 0.0000 0.0000 0.0000
# 3 44.1431 56.1054 136.7170 0.0000 0.0000 0.0000
# 4 0.0000 0.0000 0.0000 89.8747 0.0000 0.0000
# 5 0.0000 0.0000 0.0000 0.0000 14.1008 0.0000
# 6 0.0000 0.0000 0.0000 0.0000 0.0000 37.2414
#
#
#
# Elastic Compliance Matrix: (Units=1/GPa)
#
#
# Indices 1 2 3 4 5 6 
#
# 1 0.009533 -0.001558 -0.002439 0.000000 0.000000 0.000000
# 2 -0.001558 0.007567 -0.002602 0.000000 0.000000 0.000000
# 3 -0.002439 -0.002602 0.009170 0.000000 0.000000 0.000000
# 4 0.000000 0.000000 0.000000 0.011127 0.000000 0.000000
# 5 0.000000 0.000000 0.000000 0.000000 0.070918 0.000000
# 6 0.000000 0.000000 0.000000 0.000000 0.000000 0.026852
#
#
# Mechanical properties :
#
#
# Convention : Reuss Voigt Hill
#
# Bulk Modulus (GPa) = 76.50032 77.85875 77.17954
# Shear Modulus (GPa) = 32.73939 46.81575 39.77757
#
# Velocity S-wave (km/s) = 3.75395 4.48900 4.13783
# Velocity P-wave (km/s) = 7.19151 7.77053 7.48662
#
# Compressibility (1/GPa) = 0.01307184
#
# Stress axis : x y z
#
# Youngs Moduli (GPa) = 104.89829 132.15277 109.05510
#
# Poissons Ratio (x) = 0.20590 0.26595
# Poissons Ratio (y) = 0.16344 0.28379
# Poissons Ratio (z) = 0.25581 0.34390
#
# Static dielectric constant tensor:
#      x y z
#    x 3.908480 0.000000 0.000000 
#    y 0.000000 5.032630 0.000000 
#    z 0.000000 0.000000 4.178800 
# 
# 
# High freq. dielectric constant tensor:
#      x y z
#    x 1.887390 0.000000 0.000000 
#    y 0.000000 1.959770 0.000000 
#    z 0.000000 0.000000 1.907580 
# 
# From -- ./inp_files/24950.got.cif
#   From: 2010.03.12/outbox.cif.g09.slc.cpg/sg68_13_cif.got.tgz:24950.got - 2010.04.10 23:14:56.
