data_PCOD8282540
_publ_section_title
;
Structure prediction by ZEFSAII (Michael W. Deem and Ramdas Pophale) SiO2 
 PCOD8282540
Probable space group: C C C A
;
_chemical_formula_sum "Si O2"
_cell_formula_units_Z 112
_cell_length_a 19.780094
_cell_length_b 27.133202
_cell_length_c 10.356409
_cell_angle_alpha 90.000000
_cell_angle_beta 90.000000
_cell_angle_gamma 90.000000
_cell_volume 5558.256604
_symmetry_space_group_name_H-M "C C C A"
_symmetry_group_IT_number 68
_space_group.IT_coordinate_system_code '2'
_symmetry_cell_setting 'orthorhombic'
loop_
_space_group_symop_operation_xyz
x,y,z
-x,1/2-y,z
x,1/2-y,1/2-z
-x,y,1/2-z
-x,-y,-z
x,1/2+y,-z
-x,1/2+y,1/2+z
x,-y,1/2+z
1/2+x,1/2+y,z
1/2-x,-y,z
1/2+x,-y,1/2-z
1/2-x,1/2+y,1/2-z
1/2-x,1/2-y,-z
1/2+x,y,-z
1/2-x,y,1/2+z
1/2+x,1/2-y,1/2+z
loop_
_atom_site_type_symbol
_atom_site_label
_atom_site_fract_x
_atom_site_fract_y
_atom_site_fract_z
Si Si1 0.873869 0.367773 0.726422
Si Si2 0.574031 0.773338 0.879966
Si Si3 0.852411 0.488267 0.049957
Si Si4 0.926253 0.469725 0.790734
Si Si5 0.670324 0.252980 0.611669
Si Si6 0.730658 0.418944 0.044461
Si Si7 0.280276 0.173758 0.428037
O O1 0.921535 0.332953 0.636667
O O2 0.922058 0.411120 0.774000
O O3 0.807138 0.391840 0.661971
O O4 0.847380 0.334077 0.843643
O O5 0.500000 0.750000 0.902563
O O6 0.605301 0.750000 0.750000
O O7 0.619026 0.763438 0.002966
O O8 0.877787 0.501172 0.192955
O O9 0.805490 0.440453 0.074960
O O10 0.812476 0.535259 0.992073
O O11 0.910029 0.479734 0.941766
O O12 0.000000 0.488101 0.750000
O O13 0.632675 0.250000 0.750000
O O14 0.697034 0.307458 0.571680
O O15 0.733552 0.216264 0.630803
O O16 0.739596 0.377550 0.935012
#
# Coordination Sequence:
#
# PCOD8282540 Si02
#       7
#    16  16  16  16  16  16  16
#     4  11  22  39  65  98 118 169 216 263 316 376
#     4  11  24  42  64  87 127 171 218 260 297 383
#     4  10  23  40  62  95 122 165 205 268 323 370
#     4  11  24  41  64  87 129 169 216 253 311 390
#     4  11  24  38  62  95 129 165 203 265 335 376
#     4  10  21  37  64  93 128 152 209 269 326 374
#     4  11  21  37  62  92 129 159 204 264 325 389
#
# _framework density 20.150203000000001
#
# number of rings (size 3 to 8) (size 9 to 14) (size 15 to 20)
#    0.000    1.286    4.286    1.286    6.000    1.429 
#    0.000    0.000    0.000    0.000    0.000    0.000 
#    0.000    0.000    0.000    0.000    0.000    0.000 
#
# Total GULP energy -693861.640880 kJ/mol
# GULP energy per Si atom -12390.386444 kJ/mol
# Density = 2.010434 g / cm^3
# Si number density = 20.150203 Si / 1000 Ang^3
#
#
#
# Elastic Constant Matrix: (Units=GPa)
#
#
# Indices 1 2 3 4 5 6 
#
# 1 73.3065 28.1162 23.5607 0.0000 0.0000 0.0000
# 2 28.1162 107.0732 19.4185 0.0000 0.0000 0.0000
# 3 23.5607 19.4185 102.5308 0.0000 0.0000 0.0000
# 4 0.0000 0.0000 0.0000 20.0340 0.0000 0.0000
# 5 0.0000 0.0000 0.0000 0.0000 23.2439 0.0000
# 6 0.0000 0.0000 0.0000 0.0000 0.0000 29.2290
#
#
#
# Elastic Compliance Matrix: (Units=1/GPa)
#
#
# Indices 1 2 3 4 5 6 
#
# 1 0.016005 -0.003661 -0.002984 0.000000 0.000000 0.000000
# 2 -0.003661 0.010509 -0.001149 0.000000 0.000000 0.000000
# 3 -0.002984 -0.001149 0.010657 0.000000 0.000000 0.000000
# 4 0.000000 0.000000 0.000000 0.049915 0.000000 0.000000
# 5 0.000000 0.000000 0.000000 0.000000 0.043022 0.000000
# 6 0.000000 0.000000 0.000000 0.000000 0.000000 0.034213
#
#
# Mechanical properties :
#
#
# Convention : Reuss Voigt Hill
#
# Bulk Modulus (GPa) = 46.33688 47.23347 46.78517
# Shear Modulus (GPa) = 26.72315 28.62239 27.67277
#
# Velocity S-wave (km/s) = 3.64565 3.77298 3.70986
# Velocity P-wave (km/s) = 6.38488 6.51706 6.45131
#
# Compressibility (1/GPa) = 0.02158108
#
# Stress axis : x y z
#
# Youngs Moduli (GPa) = 62.48111 95.15430 93.83909
#
# Poissons Ratio (x) = 0.34840 0.28005
# Poissons Ratio (y) = 0.22877 0.10782
# Poissons Ratio (z) = 0.18646 0.10933
#
# Static dielectric constant tensor:
#      x y z
#    x 3.541600 0.000000 0.000000 
#    y 0.000000 3.909920 0.000000 
#    z 0.000000 0.000000 3.572580 
# 
# 
# High freq. dielectric constant tensor:
#      x y z
#    x 1.772140 0.000000 0.000000 
#    y 0.000000 1.804140 0.000000 
#    z 0.000000 0.000000 1.775430 
# 
# From -- ./inp_files/15759.got.cif
#   From: 2010.03.12/outbox.cif.g09.slc.cpg/sg68_8_cif.got.tgz:15759.got - 2010.04.10 23:14:56.
