data_PCOD8282467
_publ_section_title
;
Structure prediction by ZEFSAII (Michael W. Deem and Ramdas Pophale) SiO2 
 PCOD8282467
Probable space group: C C C A
;
_chemical_formula_sum "Si O2"
_cell_formula_units_Z 100
_cell_length_a 16.050248
_cell_length_b 17.919045
_cell_length_c 18.889503
_cell_angle_alpha 90.000000
_cell_angle_beta 90.000000
_cell_angle_gamma 90.000000
_cell_volume 5432.717705
_symmetry_space_group_name_H-M "C C C A"
_symmetry_group_IT_number 68
_space_group.IT_coordinate_system_code '2'
_symmetry_cell_setting 'orthorhombic'
loop_
_space_group_symop_operation_xyz
x,y,z
-x,1/2-y,z
x,1/2-y,1/2-z
-x,y,1/2-z
-x,-y,-z
x,1/2+y,-z
-x,1/2+y,1/2+z
x,-y,1/2+z
1/2+x,1/2+y,z
1/2-x,-y,z
1/2+x,-y,1/2-z
1/2-x,1/2+y,1/2-z
1/2-x,1/2-y,-z
1/2+x,y,-z
1/2-x,y,1/2+z
1/2+x,1/2-y,1/2+z
loop_
_atom_site_type_symbol
_atom_site_label
_atom_site_fract_x
_atom_site_fract_y
_atom_site_fract_z
Si Si1 0.160969 0.669091 0.457546
Si Si2 0.673859 0.054766 0.174615
Si Si3 0.819386 0.338307 0.958214
Si Si4 0.893862 0.381879 0.687580
Si Si5 0.010932 0.386074 0.487522
Si Si6 0.490047 0.994630 0.880440
Si Si7 0.000000 0.750000 0.250000
O O1 0.188094 0.752335 0.438061
O O2 0.236779 0.632332 0.501432
O O3 0.159306 0.626031 0.383350
O O4 0.073052 0.663157 0.500492
O O5 0.677758 0.115024 0.112980
O O6 0.665511 0.102750 0.246216
O O7 0.597418 0.999796 0.159429
O O8 0.750000 0.000000 0.180693
O O9 0.902755 0.341281 0.006289
O O10 0.949638 0.456002 0.676763
O O11 0.946807 0.305339 0.699490
O O12 0.012822 0.422546 0.408597
O O13 0.014180 0.446167 0.549153
#
# Coordination Sequence:
#
# PCOD8282467 Si02
#       7
#    16  16  16  16  16  16   4
#     4  10  21  35  55  84 112 144 200 247 292 353
#     4  11  21  35  53  78 114 151 189 236 302 355
#     4  10  21  36  54  82 111 150 196 240 295 354
#     4  11  22  34  57  84 111 151 197 247 297 352
#     4   9  18  32  55  74 108 149 176 239 291 345
#     4   9  18  34  49  79 106 139 193 223 289 350
#     4  12  20  36  60  84 116 148 196 258 292 352
#
# _framework density 18.406993
#
# number of rings (size 3 to 8) (size 9 to 14) (size 15 to 20)
#    0.000    1.920    1.600    2.400    4.480    2.560 
#    0.000    0.000    0.000    0.000    0.000    0.000 
#    0.000    7.680    0.000    0.000    0.000    0.000 
#
# Total GULP energy -619624.059377 kJ/mol
# GULP energy per Si atom -12392.481188 kJ/mol
# Density = 1.836510 g / cm^3
# Si number density = 18.406993 Si / 1000 Ang^3
#
#
#
# Elastic Constant Matrix: (Units=GPa)
#
#
# Indices 1 2 3 4 5 6 
#
# 1 138.8854 32.4929 57.6809 0.0000 0.0000 0.0000
# 2 32.4929 65.9004 45.6631 0.0000 0.0000 0.0000
# 3 57.6809 45.6631 102.4317 0.0000 0.0000 0.0000
# 4 0.0000 0.0000 0.0000 30.2196 0.0000 0.0000
# 5 0.0000 0.0000 0.0000 0.0000 26.4382 0.0000
# 6 0.0000 0.0000 0.0000 0.0000 0.0000 27.9348
#
#
#
# Elastic Compliance Matrix: (Units=1/GPa)
#
#
# Indices 1 2 3 4 5 6 
#
# 1 0.009488 -0.001412 -0.004713 0.000000 0.000000 0.000000
# 2 -0.001412 0.022167 -0.009087 0.000000 0.000000 0.000000
# 3 -0.004713 -0.009087 0.016467 0.000000 0.000000 0.000000
# 4 0.000000 0.000000 0.000000 0.033091 0.000000 0.000000
# 5 0.000000 0.000000 0.000000 0.000000 0.037824 0.000000
# 6 0.000000 0.000000 0.000000 0.000000 0.000000 0.035798
#
#
# Mechanical properties :
#
#
# Convention : Reuss Voigt Hill
#
# Bulk Modulus (GPa) = 56.50296 64.32125 60.41210
# Shear Modulus (GPa) = 26.15624 28.34388 27.25006
#
# Velocity S-wave (km/s) = 3.77370 3.92834 3.85180
# Velocity P-wave (km/s) = 7.05343 7.45625 7.25763
#
# Compressibility (1/GPa) = 0.01769819
#
# Stress axis : x y z
#
# Youngs Moduli (GPa) = 105.39526 45.11224 60.72593
#
# Poissons Ratio (x) = 0.06371 0.28622
# Poissons Ratio (y) = 0.14885 0.55179
# Poissons Ratio (z) = 0.49676 0.40991
#
# Static dielectric constant tensor:
#      x y z
#    x 3.591060 0.000000 0.000000 
#    y 0.000000 3.338000 0.000000 
#    z 0.000000 0.000000 3.452580 
# 
# 
# High freq. dielectric constant tensor:
#      x y z
#    x 1.714120 0.000000 0.000000 
#    y 0.000000 1.699720 0.000000 
#    z 0.000000 0.000000 1.709470 
# 
# From -- ./inp_files/31095.got.cif
#   From: 2010.03.12/outbox.cif.g09.slc.cpg/sg68_16_cif.got.tgz:31095.got - 2010.04.10 23:14:56.
