data_PCOD8282337
_publ_section_title
;
Structure prediction by ZEFSAII (Michael W. Deem and Ramdas Pophale) SiO2 
 PCOD8282337
Probable space group: C C C A
;
_chemical_formula_sum "Si O2"
_cell_formula_units_Z 104
_cell_length_a 8.786563
_cell_length_b 32.023520
_cell_length_c 18.745801
_cell_angle_alpha 90.000000
_cell_angle_beta 90.000000
_cell_angle_gamma 90.000000
_cell_volume 5274.631174
_symmetry_space_group_name_H-M "C C C A"
_symmetry_group_IT_number 68
_space_group.IT_coordinate_system_code '2'
_symmetry_cell_setting 'orthorhombic'
loop_
_space_group_symop_operation_xyz
x,y,z
-x,1/2-y,z
x,1/2-y,1/2-z
-x,y,1/2-z
-x,-y,-z
x,1/2+y,-z
-x,1/2+y,1/2+z
x,-y,1/2+z
1/2+x,1/2+y,z
1/2-x,-y,z
1/2+x,-y,1/2-z
1/2-x,1/2+y,1/2-z
1/2-x,1/2-y,-z
1/2+x,y,-z
1/2-x,y,1/2+z
1/2+x,1/2-y,1/2+z
loop_
_atom_site_type_symbol
_atom_site_label
_atom_site_fract_x
_atom_site_fract_y
_atom_site_fract_z
Si Si1 0.169066 0.631758 0.155021
Si Si2 0.561678 0.961358 0.456387
Si Si3 0.676171 0.076777 0.763163
Si Si4 0.322794 0.795421 0.742122
Si Si5 0.821961 0.862408 0.365123
Si Si6 0.750000 0.000000 0.335647
Si Si7 0.201526 0.900838 0.983689
O O1 0.253198 0.592915 0.190197
O O2 0.230534 0.673944 0.193417
O O3 0.213746 0.629522 0.071952
O O4 0.988604 0.626343 0.165600
O O5 0.606830 0.982256 0.381002
O O6 0.710343 0.942809 0.494332
O O7 0.451758 0.920855 0.450650
O O8 0.500000 0.000000 0.500000
O O9 0.500000 0.065365 0.750000
O O10 0.692769 0.108931 0.829229
O O11 0.786003 0.038053 0.783029
O O12 0.241098 0.750000 0.750000
O O13 0.500000 0.788126 0.750000
O O14 0.286059 0.815298 0.663478
O O15 0.824217 0.869243 0.449863
#
# Coordination Sequence:
#
# PCOD8282337 Si02
#       7
#    16  16  16  16  16   8  16
#     4  10  22  37  61  88 117 153 197 240 298 352
#     4  12  22  39  58  80 116 154 202 248 295 340
#     4  11  23  40  57  82 113 156 200 248 295 350
#     4   8  16  35  63  90 117 151 192 237 288 356
#     4  10  20  39  61  87 119 153 197 240 295 359
#     4  12  24  40  54  80 116 152 204 246 298 346
#     4  12  22  39  61  86 115 157 201 246 302 347
#
# _framework density 19.717017999999999
#
# number of rings (size 3 to 8) (size 9 to 14) (size 15 to 20)
#    0.000    1.385    4.615    2.308    0.000    1.231 
#    2.769    0.769    0.000    7.385    0.000    0.000 
#    0.000    0.000    0.000    0.000    0.000    0.000 
#
# Total GULP energy -644194.691672 kJ/mol
# GULP energy per Si atom -12388.359455 kJ/mol
# Density = 1.967214 g / cm^3
# Si number density = 19.717018 Si / 1000 Ang^3
#
#
#
# Elastic Constant Matrix: (Units=GPa)
#
#
# Indices 1 2 3 4 5 6 
#
# 1 62.4392 29.1306 28.9077 0.0000 0.0000 0.0000
# 2 29.1306 149.9753 69.5105 0.0000 0.0000 0.0000
# 3 28.9077 69.5105 121.3656 0.0000 0.0000 0.0000
# 4 0.0000 0.0000 0.0000 22.2291 0.0000 0.0000
# 5 0.0000 0.0000 0.0000 0.0000 16.9159 0.0000
# 6 0.0000 0.0000 0.0000 0.0000 0.0000 16.6460
#
#
#
# Elastic Compliance Matrix: (Units=1/GPa)
#
#
# Indices 1 2 3 4 5 6 
#
# 1 0.018478 -0.002109 -0.003193 0.000000 0.000000 0.000000
# 2 -0.002109 0.009318 -0.004834 0.000000 0.000000 0.000000
# 3 -0.003193 -0.004834 0.011769 0.000000 0.000000 0.000000
# 4 0.000000 0.000000 0.000000 0.044986 0.000000 0.000000
# 5 0.000000 0.000000 0.000000 0.000000 0.059116 0.000000
# 6 0.000000 0.000000 0.000000 0.000000 0.000000 0.060075
#
#
# Mechanical properties :
#
#
# Convention : Reuss Voigt Hill
#
# Bulk Modulus (GPa) = 51.83631 65.43086 58.63358
# Shear Modulus (GPa) = 21.69707 24.90694 23.30201
#
# Velocity S-wave (km/s) = 3.32086 3.55804 3.44149
# Velocity P-wave (km/s) = 6.40714 7.08071 6.75233
#
# Compressibility (1/GPa) = 0.01929150
#
# Stress axis : x y z
#
# Youngs Moduli (GPa) = 54.11851 107.31800 84.96871
#
# Poissons Ratio (x) = 0.22634 0.27133
# Poissons Ratio (y) = 0.11414 0.41078
# Poissons Ratio (z) = 0.17282 0.51883
#
# Static dielectric constant tensor:
#      x y z
#    x 3.614970 0.000000 0.000000 
#    y 0.000000 3.839870 0.000000 
#    z 0.000000 0.000000 3.759730 
# 
# 
# High freq. dielectric constant tensor:
#      x y z
#    x 1.755240 0.000000 0.000000 
#    y 0.000000 1.753220 0.000000 
#    z 0.000000 0.000000 1.772560 
# 
# From -- ./inp_files/36708.got.cif
#   From: 2010.03.12/outbox.cif.g09.slc.cpg/sg68_19_cif.got.tgz:36708.got - 2010.04.10 23:14:56.
