data_PCOD8282023
_publ_section_title
;
Structure prediction by ZEFSAII (Michael W. Deem and Ramdas Pophale) SiO2 
 PCOD8282023
Probable space group: C C C A
;
_chemical_formula_sum "Si O2"
_cell_formula_units_Z 72
_cell_length_a 23.079457
_cell_length_b 15.644233
_cell_length_c 9.002322
_cell_angle_alpha 90.000000
_cell_angle_beta 90.000000
_cell_angle_gamma 90.000000
_cell_volume 3250.382008
_symmetry_space_group_name_H-M "C C C A"
_symmetry_group_IT_number 68
_space_group.IT_coordinate_system_code '2'
_symmetry_cell_setting 'orthorhombic'
loop_
_space_group_symop_operation_xyz
x,y,z
-x,1/2-y,z
x,1/2-y,1/2-z
-x,y,1/2-z
-x,-y,-z
x,1/2+y,-z
-x,1/2+y,1/2+z
x,-y,1/2+z
1/2+x,1/2+y,z
1/2-x,-y,z
1/2+x,-y,1/2-z
1/2-x,1/2+y,1/2-z
1/2-x,1/2-y,-z
1/2+x,y,-z
1/2-x,y,1/2+z
1/2+x,1/2-y,1/2+z
loop_
_atom_site_type_symbol
_atom_site_label
_atom_site_fract_x
_atom_site_fract_y
_atom_site_fract_z
Si Si1 0.057164 0.393221 0.331019
Si Si2 0.724299 0.839046 0.047392
Si Si3 0.636643 0.250000 0.750000
Si Si4 0.440636 0.438755 0.166993
Si Si5 0.676433 0.148066 0.246397
O O1 0.098620 0.311641 0.355157
O O2 0.080377 0.467284 0.219525
O O3 0.046271 0.435907 0.491274
O O4 0.000000 0.357480 0.250000
O O5 0.672962 0.819477 0.160812
O O6 0.777512 0.890227 0.125829
O O7 0.750000 0.750000 0.000000
O O8 0.697222 0.889191 0.906633
O O9 0.500000 0.412027 0.250000
O O10 0.389112 0.374952 0.209055
O O11 0.680961 0.250000 0.250000
#
# Coordination Sequence:
#
# PCOD8282023 Si02
#       5
#    16  16   8  16  16
#     4  11  25  45  67  98 132 175 223 277 335 394
#     4  10  19  37  65  95 129 171 213 273 327 389
#     4  12  23  40  74  92 133 176 228 270 334 398
#     4  11  25  45  68  96 137 174 220 277 338 391
#     4  10  21  39  66  95 134 171 219 266 333 394
#
# _framework density 22.151243000000001
#
# number of rings (size 3 to 8) (size 9 to 14) (size 15 to 20)
#    0.000    1.333    3.333    5.667    6.222    0.444 
#    4.000    1.111    4.889    0.000    0.000    0.000 
#    0.000    0.000    0.000    0.000    0.000    0.000 
#
# Total GULP energy -446088.284968 kJ/mol
# GULP energy per Si atom -12391.341249 kJ/mol
# Density = 2.210083 g / cm^3
# Si number density = 22.151243 Si / 1000 Ang^3
#
#
#
# Elastic Constant Matrix: (Units=GPa)
#
#
# Indices 1 2 3 4 5 6 
#
# 1 141.6358 36.7399 61.3380 0.0000 0.0000 0.0000
# 2 36.7399 39.4179 19.0551 0.0000 0.0000 0.0000
# 3 61.3380 19.0551 140.7140 0.0000 0.0000 0.0000
# 4 0.0000 0.0000 0.0000 23.9408 0.0000 0.0000
# 5 0.0000 0.0000 0.0000 0.0000 32.1429 0.0000
# 6 0.0000 0.0000 0.0000 0.0000 0.0000 1.1557
#
#
#
# Elastic Compliance Matrix: (Units=1/GPa)
#
#
# Indices 1 2 3 4 5 6 
#
# 1 0.010758 -0.008304 -0.003565 0.000000 0.000000 0.000000
# 2 -0.008304 0.033556 -0.000924 0.000000 0.000000 0.000000
# 3 -0.003565 -0.000924 0.008786 0.000000 0.000000 0.000000
# 4 0.000000 0.000000 0.000000 0.041770 0.000000 0.000000
# 5 0.000000 0.000000 0.000000 0.000000 0.031111 0.000000
# 6 0.000000 0.000000 0.000000 0.000000 0.000000 0.865286
#
#
# Mechanical properties :
#
#
# Convention : Reuss Voigt Hill
#
# Bulk Modulus (GPa) = 36.34619 61.78153 49.06386
# Shear Modulus (GPa) = 4.87318 25.09018 14.98168
#
# Velocity S-wave (km/s) = 1.48483 3.36918 2.60347
# Velocity P-wave (km/s) = 4.40267 6.56403 5.58882
#
# Compressibility (1/GPa) = 0.02751320
#
# Stress axis : x y z
#
# Youngs Moduli (GPa) = 92.95124 29.80109 113.81966
#
# Poissons Ratio (x) = 0.24747 0.40578
# Poissons Ratio (y) = 0.77187 0.10520
# Poissons Ratio (z) = 0.33138 0.02754
#
# Static dielectric constant tensor:
#      x y z
#    x 3.998800 0.000000 0.000000 
#    y 0.000000 3.483260 0.000000 
#    z 0.000000 0.000000 4.711360 
# 
# 
# High freq. dielectric constant tensor:
#      x y z
#    x 1.887940 0.000000 0.000000 
#    y 0.000000 1.829610 0.000000 
#    z 0.000000 0.000000 1.888480 
# 
# From -- ./inp_files/7852.got.cif
#   From: 2010.03.12/outbox.cif.g09.slc.cpg/sg68_4_cif.got.tgz:7852.got - 2010.04.10 23:14:56.
