data_PCOD8282553
_publ_section_title
;
Structure prediction by ZEFSAII (Michael W. Deem and Ramdas Pophale) SiO2 
 PCOD8282553
Probable space group: C C C A
;
_chemical_formula_sum "Si O2"
_cell_formula_units_Z 96
_cell_length_a 21.406766
_cell_length_b 9.258845
_cell_length_c 24.165971
_cell_angle_alpha 90.000000
_cell_angle_beta 90.000000
_cell_angle_gamma 90.000000
_cell_volume 4789.742053
_symmetry_space_group_name_H-M "C C C A"
_symmetry_group_IT_number 68
_space_group.IT_coordinate_system_code '2'
_symmetry_cell_setting 'orthorhombic'
loop_
_space_group_symop_operation_xyz
x,y,z
-x,1/2-y,z
x,1/2-y,1/2-z
-x,y,1/2-z
-x,-y,-z
x,1/2+y,-z
-x,1/2+y,1/2+z
x,-y,1/2+z
1/2+x,1/2+y,z
1/2-x,-y,z
1/2+x,-y,1/2-z
1/2-x,1/2+y,1/2-z
1/2-x,1/2-y,-z
1/2+x,y,-z
1/2-x,y,1/2+z
1/2+x,1/2-y,1/2+z
loop_
_atom_site_type_symbol
_atom_site_label
_atom_site_fract_x
_atom_site_fract_y
_atom_site_fract_z
Si Si1 0.296660 0.121946 0.707992
Si Si2 0.502258 0.579962 0.940703
Si Si3 0.382297 0.469279 0.881195
Si Si4 0.215699 0.289175 0.894885
Si Si5 0.669752 0.744893 0.038383
Si Si6 0.639170 0.062175 0.065243
O O1 0.312974 0.250000 0.750000
O O2 0.362806 0.056369 0.683949
O O3 0.259639 0.190762 0.657201
O O4 0.250000 0.000000 0.734181
O O5 0.500000 0.750000 0.951869
O O6 0.451531 0.529305 0.894715
O O7 0.568788 0.541749 0.913225
O O8 0.500000 0.500000 0.000000
O O9 0.333266 0.584049 0.904708
O O10 0.374526 0.319144 0.913416
O O11 0.257685 0.294298 0.950603
O O12 0.181848 0.132453 0.886341
O O13 0.665694 0.916942 0.040213
O O14 0.642664 0.688098 0.981051
#
# Coordination Sequence:
#
# PCOD8282553 Si02
#       6
#    16  16  16  16  16  16
#     4   9  20  38  65  91 119 146 188 255 330 379
#     4  12  23  38  57  80 127 175 219 242 285 359
#     4  10  21  39  57  86 119 160 202 248 300 361
#     4  10  21  38  55  85 117 153 195 247 311 364
#     4  11  22  34  52  79 120 161 200 249 290 353
#     4  12  22  34  53  81 119 169 206 242 285 353
#
# _framework density 20.042833000000002
#
# number of rings (size 3 to 8) (size 9 to 14) (size 15 to 20)
#    0.000    1.333    3.333    4.500    0.000    4.000 
#    0.000    0.000    0.000    0.000    0.000   37.333 
#    0.000    0.000    0.000    0.000    0.000    0.000 
#
# Total GULP energy -594781.314348 kJ/mol
# GULP energy per Si atom -12391.277382 kJ/mol
# Density = 1.999722 g / cm^3
# Si number density = 20.042833 Si / 1000 Ang^3
#
#
#
# Elastic Constant Matrix: (Units=GPa)
#
#
# Indices 1 2 3 4 5 6 
#
# 1 136.3721 33.3670 33.1851 0.0000 0.0000 0.0000
# 2 33.3670 135.0540 32.9678 0.0000 0.0000 0.0000
# 3 33.1851 32.9678 55.5732 0.0000 0.0000 0.0000
# 4 0.0000 0.0000 0.0000 37.2762 0.0000 0.0000
# 5 0.0000 0.0000 0.0000 0.0000 17.2789 0.0000
# 6 0.0000 0.0000 0.0000 0.0000 0.0000 31.5920
#
#
#
# Elastic Compliance Matrix: (Units=1/GPa)
#
#
# Indices 1 2 3 4 5 6 
#
# 1 0.008701 -0.001031 -0.004584 0.000000 0.000000 0.000000
# 2 -0.001031 0.008780 -0.004593 0.000000 0.000000 0.000000
# 3 -0.004584 -0.004593 0.023457 0.000000 0.000000 0.000000
# 4 0.000000 0.000000 0.000000 0.026827 0.000000 0.000000
# 5 0.000000 0.000000 0.000000 0.000000 0.057874 0.000000
# 6 0.000000 0.000000 0.000000 0.000000 0.000000 0.031654
#
#
# Mechanical properties :
#
#
# Convention : Reuss Voigt Hill
#
# Bulk Modulus (GPa) = 48.72970 58.44879 53.58925
# Shear Modulus (GPa) = 27.09314 32.39471 29.74393
#
# Velocity S-wave (km/s) = 3.68062 4.02465 3.85647
# Velocity P-wave (km/s) = 6.51369 7.12898 6.82827
#
# Compressibility (1/GPa) = 0.02052137
#
# Stress axis : x y z
#
# Youngs Moduli (GPa) = 114.93551 113.89075 42.63201
#
# Poissons Ratio (x) = 0.11737 0.19543
# Poissons Ratio (y) = 0.11845 0.19582
# Poissons Ratio (z) = 0.52687 0.52314
#
# Static dielectric constant tensor:
#      x y z
#    x 4.069450 0.000000 0.000000 
#    y 0.000000 4.005520 0.000000 
#    z 0.000000 0.000000 3.372720 
# 
# 
# High freq. dielectric constant tensor:
#      x y z
#    x 1.785060 0.000000 0.000000 
#    y 0.000000 1.803550 0.000000 
#    z 0.000000 0.000000 1.730830 
# 
# From -- ./inp_files/51744.got.cif
#   From: 2010.03.12/outbox.cif.g09.slc.cpg/sg68_26_cif.got.tgz:51744.got - 2010.04.10 23:14:56.
