data_PCOD8282672
_publ_section_title
;
Structure prediction by ZEFSAII (Michael W. Deem and Ramdas Pophale) SiO2 
 PCOD8282672
Probable space group: C C C A
;
_chemical_formula_sum "Si O2"
_cell_formula_units_Z 112
_cell_length_a 11.338769
_cell_length_b 20.047037
_cell_length_c 24.848887
_cell_angle_alpha 90.000000
_cell_angle_beta 90.000000
_cell_angle_gamma 90.000000
_cell_volume 5648.368739
_symmetry_space_group_name_H-M "C C C A"
_symmetry_group_IT_number 68
_space_group.IT_coordinate_system_code '2'
_symmetry_cell_setting 'orthorhombic'
loop_
_space_group_symop_operation_xyz
x,y,z
-x,1/2-y,z
x,1/2-y,1/2-z
-x,y,1/2-z
-x,-y,-z
x,1/2+y,-z
-x,1/2+y,1/2+z
x,-y,1/2+z
1/2+x,1/2+y,z
1/2-x,-y,z
1/2+x,-y,1/2-z
1/2-x,1/2+y,1/2-z
1/2-x,1/2-y,-z
1/2+x,y,-z
1/2-x,y,1/2+z
1/2+x,1/2-y,1/2+z
loop_
_atom_site_type_symbol
_atom_site_label
_atom_site_fract_x
_atom_site_fract_y
_atom_site_fract_z
Si Si1 0.969818 0.892897 0.809271
Si Si2 0.786545 0.653235 0.845073
Si Si3 0.250607 0.822232 0.731208
Si Si4 0.678943 0.065422 0.555482
Si Si5 0.573564 0.030362 0.908853
Si Si6 0.301506 0.103595 0.059550
Si Si7 0.369916 0.721890 0.866029
O O1 0.848626 0.852373 0.807527
O O2 0.952777 0.958851 0.845456
O O3 0.000000 0.919299 0.750000
O O4 0.072345 0.844372 0.833392
O O5 0.724811 0.635942 0.786676
O O6 0.765209 0.596585 0.890110
O O7 0.731724 0.721521 0.867754
O O8 0.204043 0.750000 0.750000
O O9 0.365269 0.814909 0.692682
O O10 0.543551 0.045074 0.558275
O O11 0.689569 0.114914 0.504686
O O12 0.750000 0.000000 0.539653
O O13 0.667673 0.086037 0.926179
O O14 0.614129 0.955375 0.919125
O O15 0.343032 0.172051 0.085756
O O16 0.500000 0.750000 0.874324
#
# Coordination Sequence:
#
# PCOD8282672 Si02
#       7
#    16  16  16  16  16  16  16
#     4   9  17  36  63  90 118 150 205 266 306 360
#     4   9  22  37  58  91 119 160 201 257 309 365
#     4   9  18  36  60  86 119 161 202 249 309 377
#     4  11  23  40  65  91 123 161 215 263 310 367
#     4  10  21  40  63  92 117 163 215 253 312 373
#     4  11  23  40  66  90 122 172 206 255 312 381
#     4  11  24  39  61  88 129 163 205 252 312 388
#
# _framework density 19.828734000000001
#
# number of rings (size 3 to 8) (size 9 to 14) (size 15 to 20)
#    0.000    2.000    2.857    0.429    2.000    9.714 
#    0.000    4.286    3.143    0.000    0.000    0.000 
#    0.000    0.000    0.000    0.000    0.000    0.000 
#
# Total GULP energy -694017.506689 kJ/mol
# GULP energy per Si atom -12393.169762 kJ/mol
# Density = 1.978360 g / cm^3
# Si number density = 19.828734 Si / 1000 Ang^3
#
#
#
# Elastic Constant Matrix: (Units=GPa)
#
#
# Indices 1 2 3 4 5 6 
#
# 1 103.1171 40.9965 53.6285 0.0000 0.0000 0.0000
# 2 40.9965 66.0208 55.4350 0.0000 0.0000 0.0000
# 3 53.6285 55.4350 136.8577 0.0000 0.0000 0.0000
# 4 0.0000 0.0000 0.0000 35.2959 0.0000 0.0000
# 5 0.0000 0.0000 0.0000 0.0000 20.3657 0.0000
# 6 0.0000 0.0000 0.0000 0.0000 0.0000 24.1646
#
#
#
# Elastic Compliance Matrix: (Units=1/GPa)
#
#
# Indices 1 2 3 4 5 6 
#
# 1 0.013591 -0.006013 -0.002890 0.000000 0.000000 0.000000
# 2 -0.006013 0.025614 -0.008019 0.000000 0.000000 0.000000
# 3 -0.002890 -0.008019 0.011687 0.000000 0.000000 0.000000
# 4 0.000000 0.000000 0.000000 0.028332 0.000000 0.000000
# 5 0.000000 0.000000 0.000000 0.000000 0.049102 0.000000
# 6 0.000000 0.000000 0.000000 0.000000 0.000000 0.041383
#
#
# Mechanical properties :
#
#
# Convention : Reuss Voigt Hill
#
# Bulk Modulus (GPa) = 58.65598 67.34618 63.00108
# Shear Modulus (GPa) = 23.89644 26.36094 25.12869
#
# Velocity S-wave (km/s) = 3.47528 3.65009 3.56376
# Velocity P-wave (km/s) = 6.76380 7.19735 6.98394
#
# Compressibility (1/GPa) = 0.01704856
#
# Stress axis : x y z
#
# Youngs Moduli (GPa) = 73.57562 39.04190 85.56170
#
# Poissons Ratio (x) = 0.23476 0.24730
# Poissons Ratio (y) = 0.44240 0.68609
# Poissons Ratio (z) = 0.21266 0.31307
#
# Static dielectric constant tensor:
#      x y z
#    x 3.617360 0.000000 0.000000 
#    y 0.000000 3.348920 0.000000 
#    z 0.000000 0.000000 3.980410 
# 
# 
# High freq. dielectric constant tensor:
#      x y z
#    x 1.771570 0.000000 0.000000 
#    y 0.000000 1.741490 0.000000 
#    z 0.000000 0.000000 1.793630 
# 
# From -- ./inp_files/44591.got.cif
#   From: 2010.03.12/outbox.cif.g09.slc.cpg/sg68_23_cif.got.tgz:44591.got - 2010.04.10 23:14:56.
