data_PCOD8282917
_publ_section_title
;
Structure prediction by ZEFSAII (Michael W. Deem and Ramdas Pophale) SiO2 
 PCOD8282917
Probable space group: C C C A
;
_chemical_formula_sum "Si O2"
_cell_formula_units_Z 52
_cell_length_a 5.067980
_cell_length_b 27.275735
_cell_length_c 17.506656
_cell_angle_alpha 90.000000
_cell_angle_beta 90.000000
_cell_angle_gamma 90.000000
_cell_volume 2419.995469
_symmetry_space_group_name_H-M "C C C A"
_symmetry_group_IT_number 68
_space_group.IT_coordinate_system_code '2'
_symmetry_cell_setting 'orthorhombic'
loop_
_space_group_symop_operation_xyz
x,y,z
-x,1/2-y,z
x,1/2-y,1/2-z
-x,y,1/2-z
-x,-y,-z
x,1/2+y,-z
-x,1/2+y,1/2+z
x,-y,1/2+z
1/2+x,1/2+y,z
1/2-x,-y,z
1/2+x,-y,1/2-z
1/2-x,1/2+y,1/2-z
1/2-x,1/2-y,-z
1/2+x,y,-z
1/2-x,y,1/2+z
1/2+x,1/2-y,1/2+z
loop_
_atom_site_type_symbol
_atom_site_label
_atom_site_fract_x
_atom_site_fract_y
_atom_site_fract_z
Si Si1 0.829411 0.388884 0.453186
Si Si2 0.496264 0.468351 0.660779
Si Si3 0.000000 0.750000 0.250000
Si Si4 0.742716 0.719482 0.896005
O O1 0.531432 0.402304 0.477840
O O2 0.809021 0.332117 0.433034
O O3 0.952755 0.416796 0.380852
O O4 0.500000 0.456378 0.750000
O O5 0.750000 0.500000 0.635275
O O6 0.250000 0.500000 0.635568
O O7 0.175787 0.714654 0.195040
O O8 0.500000 0.750000 0.936020
O O9 0.000000 0.750000 0.908355
#
# Coordination Sequence:
#
# PCOD8282917 Si02
#       4
#    16  16   4  16
#     4  12  26  42  65 100 132 176 215 266 338 395
#     4  10  23  45  68  96 128 169 221 278 329 389
#     4   8  22  40  62  92 122 180 216 280 326 364
#     4  10  22  41  63  91 130 171 221 268 324 383
#
# _framework density 21.487646000000002
#
# number of rings (size 3 to 8) (size 9 to 14) (size 15 to 20)
#    0.923    0.615    0.000    4.154    0.000    9.846 
#    8.308    0.000    0.000    0.000    0.000    0.000 
#    0.000    0.000    0.000    0.000    0.000    0.000 
#
# Total GULP energy -322092.743917 kJ/mol
# GULP energy per Si atom -12388.182458 kJ/mol
# Density = 2.143874 g / cm^3
# Si number density = 21.487646 Si / 1000 Ang^3
#
#
#
# Elastic Constant Matrix: (Units=GPa)
#
#
# Indices 1 2 3 4 5 6 
#
# 1 179.3911 59.7622 27.3122 0.0000 0.0000 0.0000
# 2 59.7622 120.4400 37.0115 0.0000 0.0000 0.0000
# 3 27.3122 37.0115 63.7187 0.0000 0.0000 0.0000
# 4 0.0000 0.0000 0.0000 26.8108 0.0000 0.0000
# 5 0.0000 0.0000 0.0000 0.0000 89.8876 0.0000
# 6 0.0000 0.0000 0.0000 0.0000 0.0000 31.5822
#
#
#
# Elastic Compliance Matrix: (Units=1/GPa)
#
#
# Indices 1 2 3 4 5 6 
#
# 1 0.006747 -0.002994 -0.001153 0.000000 0.000000 0.000000
# 2 -0.002994 0.011435 -0.005359 0.000000 0.000000 0.000000
# 3 -0.001153 -0.005359 0.019301 0.000000 0.000000 0.000000
# 4 0.000000 0.000000 0.000000 0.037298 0.000000 0.000000
# 5 0.000000 0.000000 0.000000 0.000000 0.011125 0.000000
# 6 0.000000 0.000000 0.000000 0.000000 0.000000 0.031663
#
#
# Mechanical properties :
#
#
# Convention : Reuss Voigt Hill
#
# Bulk Modulus (GPa) = 54.13667 67.96908 61.05288
# Shear Modulus (GPa) = 35.02886 45.62037 40.32462
#
# Velocity S-wave (km/s) = 4.04194 4.61271 4.33672
# Velocity P-wave (km/s) = 6.85799 7.75047 7.31785
#
# Compressibility (1/GPa) = 0.01847177
#
# Stress axis : x y z
#
# Youngs Moduli (GPa) = 148.20777 87.44966 51.81039
#
# Poissons Ratio (x) = 0.26179 0.05975
# Poissons Ratio (y) = 0.44367 0.27765
# Poissons Ratio (z) = 0.17093 0.46865
#
# Static dielectric constant tensor:
#      x y z
#    x 4.271470 0.000000 0.000000 
#    y 0.000000 3.544880 0.000000 
#    z 0.000000 0.000000 4.014410 
# 
# 
# High freq. dielectric constant tensor:
#      x y z
#    x 1.866250 0.000000 0.000000 
#    y 0.000000 1.830170 0.000000 
#    z 0.000000 0.000000 1.846250 
# 
# From -- ./inp_files/34808.got.cif
#   From: 2010.03.12/outbox.cif.g09.slc.cpg/sg68_18_cif.got.tgz:34808.got - 2010.04.10 23:14:56.
