data_PCOD8282268
_publ_section_title
;
Structure prediction by ZEFSAII (Michael W. Deem and Ramdas Pophale) SiO2 
 PCOD8282268
Probable space group: C C C A
;
_chemical_formula_sum "Si O2"
_cell_formula_units_Z 80
_cell_length_a 11.904958
_cell_length_b 24.489377
_cell_length_c 11.832383
_cell_angle_alpha 90.000000
_cell_angle_beta 90.000000
_cell_angle_gamma 90.000000
_cell_volume 3449.672157
_symmetry_space_group_name_H-M "C C C A"
_symmetry_group_IT_number 68
_space_group.IT_coordinate_system_code '2'
_symmetry_cell_setting 'orthorhombic'
loop_
_space_group_symop_operation_xyz
x,y,z
-x,1/2-y,z
x,1/2-y,1/2-z
-x,y,1/2-z
-x,-y,-z
x,1/2+y,-z
-x,1/2+y,1/2+z
x,-y,1/2+z
1/2+x,1/2+y,z
1/2-x,-y,z
1/2+x,-y,1/2-z
1/2-x,1/2+y,1/2-z
1/2-x,1/2-y,-z
1/2+x,y,-z
1/2-x,y,1/2+z
1/2+x,1/2-y,1/2+z
loop_
_atom_site_type_symbol
_atom_site_label
_atom_site_fract_x
_atom_site_fract_y
_atom_site_fract_z
Si Si1 0.400430 0.348804 0.113523
Si Si2 0.327975 0.597566 0.185138
Si Si3 0.314588 0.171046 0.620225
Si Si4 0.175086 0.750000 0.250000
Si Si5 0.116906 0.909564 0.058071
Si Si6 0.250000 0.500000 0.826781
O O1 0.295997 0.387135 0.141412
O O2 0.403553 0.297820 0.200108
O O3 0.509210 0.387299 0.126421
O O4 0.397746 0.323590 0.986152
O O5 0.375252 0.645124 0.268470
O O6 0.322263 0.540482 0.249637
O O7 0.408894 0.590787 0.076592
O O8 0.258044 0.229010 0.650334
O O9 0.217060 0.130061 0.587198
O O10 0.155806 0.969863 0.096500
#
# Coordination Sequence:
#
# PCOD8282268 Si02
#       6
#    16  16  16   8  16   8
#     4  10  21  38  62  91 122 163 205 252 305 367
#     4   9  20  39  58  83 124 163 199 253 311 363
#     4   9  20  37  58  88 125 164 200 245 306 365
#     4  10  20  37  64  91 126 164 204 255 306 359
#     4  10  21  38  59  88 122 155 207 257 300 369
#     4  10  20  38  60  82 116 160 200 254 312 360
#
# _framework density 23.19061
#
# number of rings (size 3 to 8) (size 9 to 14) (size 15 to 20)
#    0.000    2.400    0.000    1.200    0.000    9.600 
#    0.000   22.000    0.000   10.800    0.000    0.000 
#    0.000    0.000    0.000    0.000    0.000    0.000 
#
# Total GULP energy -495882.299486 kJ/mol
# GULP energy per Si atom -12397.057487 kJ/mol
# Density = 2.313783 g / cm^3
# Si number density = 23.190610 Si / 1000 Ang^3
#
#
#
# Elastic Constant Matrix: (Units=GPa)
#
#
# Indices 1 2 3 4 5 6 
#
# 1 60.6221 42.8865 24.4478 0.0000 0.0000 0.0000
# 2 42.8865 117.1210 43.8184 0.0000 0.0000 0.0000
# 3 24.4478 43.8184 126.4269 0.0000 0.0000 0.0000
# 4 0.0000 0.0000 0.0000 21.4664 0.0000 0.0000
# 5 0.0000 0.0000 0.0000 0.0000 23.0409 0.0000
# 6 0.0000 0.0000 0.0000 0.0000 0.0000 32.5586
#
#
#
# Elastic Compliance Matrix: (Units=1/GPa)
#
#
# Indices 1 2 3 4 5 6 
#
# 1 0.022585 -0.007625 -0.001725 0.000000 0.000000 0.000000
# 2 -0.007625 0.012384 -0.002818 0.000000 0.000000 0.000000
# 3 -0.001725 -0.002818 0.009220 0.000000 0.000000 0.000000
# 4 0.000000 0.000000 0.000000 0.046585 0.000000 0.000000
# 5 0.000000 0.000000 0.000000 0.000000 0.043401 0.000000
# 6 0.000000 0.000000 0.000000 0.000000 0.000000 0.030714
#
#
# Mechanical properties :
#
#
# Convention : Reuss Voigt Hill
#
# Bulk Modulus (GPa) = 50.36585 58.49724 54.43155
# Shear Modulus (GPa) = 25.53076 28.28099 26.90587
#
# Velocity S-wave (km/s) = 3.32159 3.49593 3.40987
# Velocity P-wave (km/s) = 6.03954 6.44784 6.24702
#
# Compressibility (1/GPa) = 0.01985472
#
# Stress axis : x y z
#
# Youngs Moduli (GPa) = 44.27659 80.74652 108.46124
#
# Poissons Ratio (x) = 0.61568 0.18707
# Poissons Ratio (y) = 0.33760 0.30563
# Poissons Ratio (z) = 0.07637 0.22753
#
# Static dielectric constant tensor:
#      x y z
#    x 3.681460 0.000000 0.000000 
#    y 0.000000 4.194510 0.000000 
#    z 0.000000 0.000000 5.428560 
# 
# 
# High freq. dielectric constant tensor:
#      x y z
#    x 1.880920 0.000000 0.000000 
#    y 0.000000 1.910390 0.000000 
#    z 0.000000 0.000000 1.943470 
# 
# From -- ./inp_files/11984.got.cif
#   From: 2010.03.12/outbox.cif.g09.slc.cpg/sg68_6_cif.got.tgz:11984.got - 2010.04.10 23:14:56.
