data_PCOD8282038
_publ_section_title
;
Structure prediction by ZEFSAII (Michael W. Deem and Ramdas Pophale) SiO2 
 PCOD8282038
Probable space group: C C C A
;
_chemical_formula_sum "Si O2"
_cell_formula_units_Z 96
_cell_length_a 19.742585
_cell_length_b 23.530386
_cell_length_c 9.015136
_cell_angle_alpha 90.000000
_cell_angle_beta 90.000000
_cell_angle_gamma 90.000000
_cell_volume 4187.987250
_symmetry_space_group_name_H-M "C C C A"
_symmetry_group_IT_number 68
_space_group.IT_coordinate_system_code '2'
_symmetry_cell_setting 'orthorhombic'
loop_
_space_group_symop_operation_xyz
x,y,z
-x,1/2-y,z
x,1/2-y,1/2-z
-x,y,1/2-z
-x,-y,-z
x,1/2+y,-z
-x,1/2+y,1/2+z
x,-y,1/2+z
1/2+x,1/2+y,z
1/2-x,-y,z
1/2+x,-y,1/2-z
1/2-x,1/2+y,1/2-z
1/2-x,1/2-y,-z
1/2+x,y,-z
1/2-x,y,1/2+z
1/2+x,1/2-y,1/2+z
loop_
_atom_site_type_symbol
_atom_site_label
_atom_site_fract_x
_atom_site_fract_y
_atom_site_fract_z
Si Si1 0.331439 0.107749 0.258010
Si Si2 0.059500 0.687186 0.136410
Si Si3 0.014550 0.409852 0.414719
Si Si4 0.252142 0.343847 0.494529
Si Si5 0.064220 0.026626 0.644100
Si Si6 0.854270 0.248824 0.084579
O O1 0.382930 0.161173 0.258308
O O2 0.286690 0.110642 0.404626
O O3 0.370421 0.048062 0.234700
O O4 0.279276 0.114090 0.127084
O O5 0.000000 0.704865 0.250000
O O6 0.041501 0.641080 0.012726
O O7 0.087960 0.742191 0.044283
O O8 0.070793 0.460263 0.399620
O O9 0.000000 0.386089 0.250000
O O10 0.947587 0.436571 0.493382
O O11 0.200377 0.298843 0.425769
O O12 0.315677 0.311096 0.568408
O O13 0.000000 0.036564 0.750000
O O14 0.886977 0.250000 0.250000
#
# Coordination Sequence:
#
# PCOD8282038 Si02
#       6
#    16  16  16  16  16  16
#     4  11  20  40  67  92 130 166 232 276 326 418
#     4  11  22  41  68  96 131 176 223 291 355 413
#     4  10  20  36  65 103 129 168 220 267 357 419
#     4  10  22  37  66  95 122 180 229 268 325 403
#     4  10  19  38  67 101 130 171 217 277 349 415
#     4  10  21  41  66  94 129 174 233 274 327 412
#
# _framework density 22.922706999999999
#
# number of rings (size 3 to 8) (size 9 to 14) (size 15 to 20)
#    0.000    1.667    5.000    0.000    0.000    1.333 
#    0.000    2.500    0.000    8.000    0.000    0.000 
#    0.000    0.000    0.000    0.000    0.000    0.000 
#
# Total GULP energy -594865.805400 kJ/mol
# GULP energy per Si atom -12393.037612 kJ/mol
# Density = 2.287053 g / cm^3
# Si number density = 22.922707 Si / 1000 Ang^3
#
#
#
# Elastic Constant Matrix: (Units=GPa)
#
#
# Indices 1 2 3 4 5 6 
#
# 1 95.9711 26.2254 57.2349 0.0000 0.0000 0.0000
# 2 26.2254 84.4272 34.0824 0.0000 0.0000 0.0000
# 3 57.2349 34.0824 128.8444 0.0000 0.0000 0.0000
# 4 0.0000 0.0000 0.0000 35.2351 0.0000 0.0000
# 5 0.0000 0.0000 0.0000 0.0000 52.1731 0.0000
# 6 0.0000 0.0000 0.0000 0.0000 0.0000 38.2847
#
#
#
# Elastic Compliance Matrix: (Units=1/GPa)
#
#
# Indices 1 2 3 4 5 6 
#
# 1 0.014510 -0.002133 -0.005881 0.000000 0.000000 0.000000
# 2 -0.002133 0.013574 -0.002643 0.000000 0.000000 0.000000
# 3 -0.005881 -0.002643 0.011073 0.000000 0.000000 0.000000
# 4 0.000000 0.000000 0.000000 0.028381 0.000000 0.000000
# 5 0.000000 0.000000 0.000000 0.000000 0.019167 0.000000
# 6 0.000000 0.000000 0.000000 0.000000 0.000000 0.026120
#
#
# Mechanical properties :
#
#
# Convention : Reuss Voigt Hill
#
# Bulk Modulus (GPa) = 56.04681 60.48090 58.26385
# Shear Modulus (GPa) = 35.69186 37.91858 36.80522
#
# Velocity S-wave (km/s) = 3.95023 4.07159 4.01137
# Velocity P-wave (km/s) = 6.73121 6.96748 6.85036
#
# Compressibility (1/GPa) = 0.01784223
#
# Stress axis : x y z
#
# Youngs Moduli (GPa) = 68.91687 73.66968 90.30870
#
# Poissons Ratio (x) = 0.15714 0.53115
# Poissons Ratio (y) = 0.14700 0.23870
# Poissons Ratio (z) = 0.40533 0.19472
#
# Static dielectric constant tensor:
#      x y z
#    x 4.106330 0.000000 0.000000 
#    y 0.000000 4.010460 0.000000 
#    z 0.000000 0.000000 4.452170 
# 
# 
# High freq. dielectric constant tensor:
#      x y z
#    x 1.879940 0.000000 0.000000 
#    y 0.000000 1.885450 0.000000 
#    z 0.000000 0.000000 1.926740 
# 
# From -- ./inp_files/7293.got.cif
#   From: 2010.03.12/outbox.cif.g09.slc.cpg/sg68_4_cif.got.tgz:7293.got - 2010.04.10 23:14:56.
