data_PCOD8282301
_publ_section_title
;
Structure prediction by ZEFSAII (Michael W. Deem and Ramdas Pophale) SiO2 
 PCOD8282301
Probable space group: C C C A
;
_chemical_formula_sum "Si O2"
_cell_formula_units_Z 80
_cell_length_a 8.831216
_cell_length_b 26.630691
_cell_length_c 16.483721
_cell_angle_alpha 90.000000
_cell_angle_beta 90.000000
_cell_angle_gamma 90.000000
_cell_volume 3876.664326
_symmetry_space_group_name_H-M "C C C A"
_symmetry_group_IT_number 68
_space_group.IT_coordinate_system_code '2'
_symmetry_cell_setting 'orthorhombic'
loop_
_space_group_symop_operation_xyz
x,y,z
-x,1/2-y,z
x,1/2-y,1/2-z
-x,y,1/2-z
-x,-y,-z
x,1/2+y,-z
-x,1/2+y,1/2+z
x,-y,1/2+z
1/2+x,1/2+y,z
1/2-x,-y,z
1/2+x,-y,1/2-z
1/2-x,1/2+y,1/2-z
1/2-x,1/2-y,-z
1/2+x,y,-z
1/2-x,y,1/2+z
1/2+x,1/2-y,1/2+z
loop_
_atom_site_type_symbol
_atom_site_label
_atom_site_fract_x
_atom_site_fract_y
_atom_site_fract_z
Si Si1 0.769007 0.558634 0.898828
Si Si2 0.674928 0.363410 0.773198
Si Si3 0.834696 0.763066 0.656019
Si Si4 0.226353 0.334680 0.898067
Si Si5 0.520320 0.611740 0.000565
O O1 0.750000 0.500000 0.886535
O O2 0.785182 0.582464 0.809232
O O3 0.618990 0.578070 0.941549
O O4 0.917558 0.572617 0.949990
O O5 0.500000 0.357389 0.750000
O O6 0.707588 0.322452 0.846646
O O7 0.778783 0.355487 0.694141
O O8 0.826438 0.750000 0.750000
O O9 0.723449 0.726526 0.605054
O O10 0.000000 0.750000 0.621659
O O11 0.079121 0.350534 0.946897
O O12 0.379320 0.355365 0.938823
#
# Coordination Sequence:
#
# PCOD8282301 Si02
#       5
#    16  16  16  16  16
#     4  11  23  42  63  89 120 166 209 257 314 367
#     4  11  19  38  64  89 119 157 212 251 304 371
#     4   9  14  30  60  86 110 155 196 234 301 373
#     4  10  20  38  63  91 121 163 199 252 311 370
#     4  10  22  41  61  89 129 159 202 259 309 374
#
# _framework density 20.636298
#
# number of rings (size 3 to 8) (size 9 to 14) (size 15 to 20)
#    0.000    1.800    6.000    0.600    0.000    0.800 
#    3.600   13.000    0.000    3.600    0.000    0.000 
#    0.000    0.000    0.000    0.000    0.000    0.000 
#
# Total GULP energy -495847.522921 kJ/mol
# GULP energy per Si atom -12396.188073 kJ/mol
# Density = 2.058933 g / cm^3
# Si number density = 20.636298 Si / 1000 Ang^3
#
#
#
# Elastic Constant Matrix: (Units=GPa)
#
#
# Indices 1 2 3 4 5 6 
#
# 1 86.0725 53.3912 36.0072 0.0000 0.0000 0.0000
# 2 53.3912 176.7003 63.1699 0.0000 0.0000 0.0000
# 3 36.0072 63.1699 86.2287 0.0000 0.0000 0.0000
# 4 0.0000 0.0000 0.0000 20.6876 0.0000 0.0000
# 5 0.0000 0.0000 0.0000 0.0000 -85.1588 0.0000
# 6 0.0000 0.0000 0.0000 0.0000 0.0000 5.2783
#
#
#
# Elastic Compliance Matrix: (Units=1/GPa)
#
#
# Indices 1 2 3 4 5 6 
#
# 1 0.015281 -0.003165 -0.004062 0.000000 0.000000 0.000000
# 2 -0.003165 0.008323 -0.004776 0.000000 0.000000 0.000000
# 3 -0.004062 -0.004776 0.016792 0.000000 0.000000 0.000000
# 4 0.000000 0.000000 0.000000 0.048338 0.000000 0.000000
# 5 0.000000 0.000000 0.000000 0.000000 -0.011743 0.000000
# 6 0.000000 0.000000 0.000000 0.000000 0.000000 0.189454
#
#
# Mechanical properties :
#
#
# Convention : Reuss Voigt Hill
#
# Bulk Modulus (GPa) = 61.01336 72.68202 66.84769
# Shear Modulus (GPa) = 16.89682 1.25697 9.07689
#
# Velocity S-wave (km/s) = 2.86456 0.78130 2.09954
# Velocity P-wave (km/s) = 6.36955 6.00923 6.19201
#
# Compressibility (1/GPa) = 0.01638985
#
# Stress axis : x y z
#
# Youngs Moduli (GPa) = 65.44186 120.15080 59.55229
#
# Poissons Ratio (x) = 0.38027 0.24192
# Poissons Ratio (y) = 0.20712 0.28440
# Poissons Ratio (z) = 0.26585 0.57380
#
# Static dielectric constant tensor:
#      x y z
#    x 3.632520 0.000000 0.000000 
#    y 0.000000 4.092130 0.000000 
#    z 0.000000 0.000000 3.756030 
# 
# 
# High freq. dielectric constant tensor:
#      x y z
#    x 1.794340 0.000000 0.000000 
#    y 0.000000 1.805820 0.000000 
#    z 0.000000 0.000000 1.807820 
# 
# From -- ./inp_files/28327.got.cif
#   From: 2010.03.12/outbox.cif.g09.slc.cpg/sg68_15_cif.got.tgz:28327.got - 2010.04.10 23:14:56.
