data_PCOD8282954
_publ_section_title
;
Structure prediction by ZEFSAII (Michael W. Deem and Ramdas Pophale) SiO2 
 PCOD8282954
Probable space group: C C C A
;
_chemical_formula_sum "Si O2"
_cell_formula_units_Z 108
_cell_length_a 20.802948
_cell_length_b 23.050325
_cell_length_c 10.598206
_cell_angle_alpha 90.000000
_cell_angle_beta 90.000000
_cell_angle_gamma 90.000000
_cell_volume 5081.995702
_symmetry_space_group_name_H-M "C C C A"
_symmetry_group_IT_number 68
_space_group.IT_coordinate_system_code '2'
_symmetry_cell_setting 'orthorhombic'
loop_
_space_group_symop_operation_xyz
x,y,z
-x,1/2-y,z
x,1/2-y,1/2-z
-x,y,1/2-z
-x,-y,-z
x,1/2+y,-z
-x,1/2+y,1/2+z
x,-y,1/2+z
1/2+x,1/2+y,z
1/2-x,-y,z
1/2+x,-y,1/2-z
1/2-x,1/2+y,1/2-z
1/2-x,1/2-y,-z
1/2+x,y,-z
1/2-x,y,1/2+z
1/2+x,1/2-y,1/2+z
loop_
_atom_site_type_symbol
_atom_site_label
_atom_site_fract_x
_atom_site_fract_y
_atom_site_fract_z
Si Si1 0.340907 0.373329 0.861152
Si Si2 0.089753 0.450743 0.970456
Si Si3 0.114701 0.935623 0.399126
Si Si4 0.214466 0.560422 0.311086
Si Si5 0.500000 0.938572 0.750000
Si Si6 0.092050 0.159130 0.377611
Si Si7 0.303403 0.250198 0.604938
Si Si8 0.000000 0.750000 0.750000
O O1 0.266419 0.389418 0.836670
O O2 0.384840 0.380685 0.738534
O O3 0.345806 0.307583 0.910521
O O4 0.375096 0.413659 0.961457
O O5 0.162481 0.442485 0.921876
O O6 0.041580 0.472788 0.858483
O O7 0.092280 0.497124 0.084772
O O8 0.065924 0.387238 0.020017
O O9 0.180473 0.927398 0.322743
O O10 0.055696 0.902974 0.325576
O O11 0.250000 0.500000 0.302079
O O12 0.154156 0.193783 0.427073
O O13 0.040397 0.207774 0.340387
O O14 0.276746 0.250000 0.750000
O O15 0.250000 0.250000 0.500000
#
# Coordination Sequence:
#
# PCOD8282954 Si02
#       8
#    16  16  16  16   8  16  16   4
#     4  11  23  40  67  98 134 174 222 281 344 405
#     4  11  24  43  68  94 138 177 222 287 337 406
#     4  11  25  41  65  97 139 185 222 276 344 412
#     4  11  23  38  63 100 141 177 221 268 340 419
#     4  10  26  45  58  95 132 178 236 266 336 420
#     4  11  25  43  72  97 126 179 225 287 333 403
#     4  10  22  42  65  99 131 174 228 281 348 405
#     4  12  24  50  68 102 124 174 252 262 336 416
#
# _framework density 21.251493
#
# number of rings (size 3 to 8) (size 9 to 14) (size 15 to 20)
#    0.000    1.185    3.704    2.222   12.444    0.593 
#    0.000    0.000    0.000    0.889    0.000    0.000 
#    0.000    0.000    0.000    0.000    0.000    0.000 
#
# Total GULP energy -669201.644613 kJ/mol
# GULP energy per Si atom -12392.623048 kJ/mol
# Density = 2.120312 g / cm^3
# Si number density = 21.251493 Si / 1000 Ang^3
#
#
#
# Elastic Constant Matrix: (Units=GPa)
#
#
# Indices 1 2 3 4 5 6 
#
# 1 117.3719 31.3811 64.3188 0.0000 0.0000 0.0000
# 2 31.3811 94.9178 45.9294 0.0000 0.0000 0.0000
# 3 64.3188 45.9294 93.2618 0.0000 0.0000 0.0000
# 4 0.0000 0.0000 0.0000 29.6960 0.0000 0.0000
# 5 0.0000 0.0000 0.0000 0.0000 42.0350 0.0000
# 6 0.0000 0.0000 0.0000 0.0000 0.0000 17.9442
#
#
#
# Elastic Compliance Matrix: (Units=1/GPa)
#
#
# Indices 1 2 3 4 5 6 
#
# 1 0.013696 0.000056 -0.009473 0.000000 0.000000 0.000000
# 2 0.000056 0.013832 -0.006850 0.000000 0.000000 0.000000
# 3 -0.009473 -0.006850 0.020629 0.000000 0.000000 0.000000
# 4 0.000000 0.000000 0.000000 0.033675 0.000000 0.000000
# 5 0.000000 0.000000 0.000000 0.000000 0.023790 0.000000
# 6 0.000000 0.000000 0.000000 0.000000 0.000000 0.055728
#
#
# Mechanical properties :
#
#
# Convention : Reuss Voigt Hill
#
# Bulk Modulus (GPa) = 64.01248 65.42333 64.71791
# Shear Modulus (GPa) = 25.11392 28.86318 26.98855
#
# Velocity S-wave (km/s) = 3.44139 3.68934 3.56752
# Velocity P-wave (km/s) = 6.78068 7.00003 6.89123
#
# Compressibility (1/GPa) = 0.01562195
#
# Stress axis : x y z
#
# Youngs Moduli (GPa) = 73.01268 72.29733 48.47444
#
# Poissons Ratio (x) = -0.00403 0.45921
# Poissons Ratio (y) = -0.00407 0.33207
# Poissons Ratio (z) = 0.69166 0.49526
#
# Static dielectric constant tensor:
#      x y z
#    x 4.218460 0.000000 0.000000 
#    y 0.000000 3.974140 0.000000 
#    z 0.000000 0.000000 4.242870 
# 
# 
# High freq. dielectric constant tensor:
#      x y z
#    x 1.842690 0.000000 0.000000 
#    y 0.000000 1.817000 0.000000 
#    z 0.000000 0.000000 1.839180 
# 
# From -- ./inp_files/15768.got.cif
#   From: 2010.03.12/outbox.cif.g09.slc.cpg/sg68_8_cif.got.tgz:15768.got - 2010.04.10 23:14:56.
