data_PCOD8282137
_publ_section_title
;
Structure prediction by ZEFSAII (Michael W. Deem and Ramdas Pophale) SiO2 
 PCOD8282137
Probable space group: C C C A
;
_chemical_formula_sum "Si O2"
_cell_formula_units_Z 72
_cell_length_a 9.237609
_cell_length_b 33.195017
_cell_length_c 12.457087
_cell_angle_alpha 90.000000
_cell_angle_beta 90.000000
_cell_angle_gamma 90.000000
_cell_volume 3819.873394
_symmetry_space_group_name_H-M "C C C A"
_symmetry_group_IT_number 68
_space_group.IT_coordinate_system_code '2'
_symmetry_cell_setting 'orthorhombic'
loop_
_space_group_symop_operation_xyz
x,y,z
-x,1/2-y,z
x,1/2-y,1/2-z
-x,y,1/2-z
-x,-y,-z
x,1/2+y,-z
-x,1/2+y,1/2+z
x,-y,1/2+z
1/2+x,1/2+y,z
1/2-x,-y,z
1/2+x,-y,1/2-z
1/2-x,1/2+y,1/2-z
1/2-x,1/2-y,-z
1/2+x,y,-z
1/2-x,y,1/2+z
1/2+x,1/2-y,1/2+z
loop_
_atom_site_type_symbol
_atom_site_label
_atom_site_fract_x
_atom_site_fract_y
_atom_site_fract_z
Si Si1 0.999827 0.543103 0.872578
Si Si2 0.662662 0.243753 0.361803
Si Si3 0.750000 0.500000 0.000742
Si Si4 0.018467 0.861798 0.873887
Si Si5 0.236437 0.679576 0.000444
O O1 0.999240 0.590783 0.880295
O O2 0.000000 0.528091 0.750000
O O3 0.148066 0.527959 0.926412
O O4 0.853945 0.527208 0.927794
O O5 0.500000 0.250000 0.332611
O O6 0.752024 0.250000 0.250000
O O7 0.676387 0.196890 0.398362
O O8 0.704403 0.278171 0.444464
O O9 0.000000 0.847181 0.750000
O O10 0.903724 0.842811 0.955602
O O11 0.175747 0.849680 0.919894
#
# Coordination Sequence:
#
# PCOD8282137 Si02
#       5
#    16  16   8  16  16
#     4  10  21  37  59  86 114 145 183 224 272 328
#     4  10  20  35  55  78 105 145 192 233 274 325
#     4  10  20  38  62  84 112 148 182 222 270 328
#     4  11  23  38  57  84 115 146 182 229 279 329
#     4  11  21  38  55  81 110 148 188 231 279 328
#
# _framework density 18.848790999999999
#
# number of rings (size 3 to 8) (size 9 to 14) (size 15 to 20)
#    0.000    1.556    2.222    3.333    0.000    0.000 
#    0.000    3.333    0.000   10.667    0.000    0.000 
#    0.000    0.000    0.000    0.000    0.000    0.000 
#
# Total GULP energy -445990.043214 kJ/mol
# GULP energy per Si atom -12388.612311 kJ/mol
# Density = 1.880589 g / cm^3
# Si number density = 18.848791 Si / 1000 Ang^3
#
#
#
# Elastic Constant Matrix: (Units=GPa)
#
#
# Indices 1 2 3 4 5 6 
#
# 1 102.2221 29.0099 45.1553 0.0000 0.0000 0.0000
# 2 29.0099 79.9505 40.6309 0.0000 0.0000 0.0000
# 3 45.1553 40.6309 123.5392 0.0000 0.0000 0.0000
# 4 0.0000 0.0000 0.0000 27.2575 0.0000 0.0000
# 5 0.0000 0.0000 0.0000 0.0000 26.0090 0.0000
# 6 0.0000 0.0000 0.0000 0.0000 0.0000 40.1985
#
#
#
# Elastic Compliance Matrix: (Units=1/GPa)
#
#
# Indices 1 2 3 4 5 6 
#
# 1 0.012091 -0.002571 -0.003574 0.000000 0.000000 0.000000
# 2 -0.002571 0.015565 -0.004179 0.000000 0.000000 0.000000
# 3 -0.003574 -0.004179 0.010775 0.000000 0.000000 0.000000
# 4 0.000000 0.000000 0.000000 0.036687 0.000000 0.000000
# 5 0.000000 0.000000 0.000000 0.000000 0.038448 0.000000
# 6 0.000000 0.000000 0.000000 0.000000 0.000000 0.024877
#
#
# Mechanical properties :
#
#
# Convention : Reuss Voigt Hill
#
# Bulk Modulus (GPa) = 56.23448 59.47823 57.85635
# Shear Modulus (GPa) = 30.29962 31.42071 30.86017
#
# Velocity S-wave (km/s) = 4.01373 4.08731 4.05068
# Velocity P-wave (km/s) = 7.16794 7.34158 7.25527
#
# Compressibility (1/GPa) = 0.01778268
#
# Stress axis : x y z
#
# Youngs Moduli (GPa) = 82.70660 64.24863 92.80368
#
# Poissons Ratio (x) = 0.16518 0.33167
# Poissons Ratio (y) = 0.21263 0.38786
# Poissons Ratio (z) = 0.29558 0.26852
#
# Static dielectric constant tensor:
#      x y z
#    x 3.367720 0.000000 0.000000 
#    y 0.000000 3.373010 0.000000 
#    z 0.000000 0.000000 3.999780 
# 
# 
# High freq. dielectric constant tensor:
#      x y z
#    x 1.731190 0.000000 0.000000 
#    y 0.000000 1.733340 0.000000 
#    z 0.000000 0.000000 1.754460 
# 
# From -- ./inp_files/19591.got.cif
#   From: 2010.03.12/outbox.cif.g09.slc.cpg/sg68_10_cif.got.tgz:19591.got - 2010.04.10 23:14:56.
