data_PCOD8282258
_publ_section_title
;
Structure prediction by ZEFSAII (Michael W. Deem and Ramdas Pophale) SiO2 
 PCOD8282258
Probable space group: C C C A
;
_chemical_formula_sum "Si O2"
_cell_formula_units_Z 96
_cell_length_a 28.149359
_cell_length_b 5.317618
_cell_length_c 33.238850
_cell_angle_alpha 90.000000
_cell_angle_beta 90.000000
_cell_angle_gamma 90.000000
_cell_volume 4975.441626
_symmetry_space_group_name_H-M "C C C A"
_symmetry_group_IT_number 68
_space_group.IT_coordinate_system_code '2'
_symmetry_cell_setting 'orthorhombic'
loop_
_space_group_symop_operation_xyz
x,y,z
-x,1/2-y,z
x,1/2-y,1/2-z
-x,y,1/2-z
-x,-y,-z
x,1/2+y,-z
-x,1/2+y,1/2+z
x,-y,1/2+z
1/2+x,1/2+y,z
1/2-x,-y,z
1/2+x,-y,1/2-z
1/2-x,1/2+y,1/2-z
1/2-x,1/2-y,-z
1/2+x,y,-z
1/2-x,y,1/2+z
1/2+x,1/2-y,1/2+z
loop_
_atom_site_type_symbol
_atom_site_label
_atom_site_fract_x
_atom_site_fract_y
_atom_site_fract_z
Si Si1 0.371110 0.750000 0.750000
Si Si2 0.443832 0.114800 0.710194
Si Si3 0.444965 0.748765 0.524867
Si Si4 0.627724 0.751453 0.350774
Si Si5 0.000000 0.750000 0.339265
Si Si6 0.700514 0.105214 0.709107
Si Si7 0.095571 0.735727 0.111346
O O1 0.403480 0.586432 0.779090
O O2 0.338434 0.604958 0.718431
O O3 0.461824 0.250000 0.750000
O O4 0.417231 0.297680 0.678993
O O5 0.490482 0.989815 0.689954
O O6 0.500000 0.750000 0.537793
O O7 0.432683 0.498445 0.500081
O O8 0.412206 0.749900 0.563931
O O9 0.677078 0.776468 0.325731
O O10 0.628500 0.507141 0.379686
O O11 0.621580 0.008483 0.375479
O O12 0.045192 0.798515 0.366819
O O13 0.712471 0.250000 0.750000
O O14 0.750000 0.000000 0.692063
#
# Coordination Sequence:
#
# PCOD8282258 Si02
#       7
#     8  16  16  16   8  16  16
#     4  12  20  41  52  74 108 142 210 261 312 334
#     4  11  23  39  53  69 108 155 213 262 288 338
#     4  10  20  37  62  89 118 150 191 234 277 346
#     4  11  23  40  58  78 118 151 189 252 304 337
#     4  10  24  39  48  76 106 156 202 244 286 328
#     4  12  23  36  60  84 109 155 207 255 310 367
#     4  11  23  41  58  84 119 153 190 233 295 353
#
# _framework density 19.294768999999999
#
# number of rings (size 3 to 8) (size 9 to 14) (size 15 to 20)
#    0.000    1.000    5.000    3.000    0.000    3.000 
#    3.000    0.000    0.000    0.000    0.000    0.000 
#    0.000   13.333    0.000    0.000    0.000    0.000 
#
# Total GULP energy -595280.547247 kJ/mol
# GULP energy per Si atom -12401.678068 kJ/mol
# Density = 1.925085 g / cm^3
# Si number density = 19.294769 Si / 1000 Ang^3
#
#
#
# Elastic Constant Matrix: (Units=GPa)
#
#
# Indices 1 2 3 4 5 6 
#
# 1 95.6327 39.1104 35.9210 0.0000 0.0000 0.0000
# 2 39.1104 131.4134 56.1145 0.0000 0.0000 0.0000
# 3 35.9210 56.1145 122.4945 0.0000 0.0000 0.0000
# 4 0.0000 0.0000 0.0000 26.4278 0.0000 0.0000
# 5 0.0000 0.0000 0.0000 0.0000 16.5021 0.0000
# 6 0.0000 0.0000 0.0000 0.0000 0.0000 25.8237
#
#
#
# Elastic Compliance Matrix: (Units=1/GPa)
#
#
# Indices 1 2 3 4 5 6 
#
# 1 0.012462 -0.002671 -0.002431 0.000000 0.000000 0.000000
# 2 -0.002671 0.010032 -0.003813 0.000000 0.000000 0.000000
# 3 -0.002431 -0.003813 0.010623 0.000000 0.000000 0.000000
# 4 0.000000 0.000000 0.000000 0.037839 0.000000 0.000000
# 5 0.000000 0.000000 0.000000 0.000000 0.060598 0.000000
# 6 0.000000 0.000000 0.000000 0.000000 0.000000 0.038724
#
#
# Mechanical properties :
#
#
# Convention : Reuss Voigt Hill
#
# Bulk Modulus (GPa) = 65.40761 67.98136 66.69449
# Shear Modulus (GPa) = 25.87937 28.31036 27.09487
#
# Velocity S-wave (km/s) = 3.66630 3.83463 3.75141
# Velocity P-wave (km/s) = 7.20382 7.41049 7.30789
#
# Compressibility (1/GPa) = 0.01528874
#
# Stress axis : x y z
#
# Youngs Moduli (GPa) = 80.24366 99.67622 94.13487
#
# Poissons Ratio (x) = 0.26622 0.22884
# Poissons Ratio (y) = 0.21432 0.35890
# Poissons Ratio (z) = 0.19507 0.38003
#
# Static dielectric constant tensor:
#      x y z
#    x 3.339370 0.000000 0.000000 
#    y 0.000000 3.749960 0.000000 
#    z 0.000000 0.000000 3.454920 
# 
# 
# High freq. dielectric constant tensor:
#      x y z
#    x 1.725050 0.000000 0.000000 
#    y 0.000000 1.770720 0.000000 
#    z 0.000000 0.000000 1.731160 
# 
# From -- ./inp_files/56258.got.cif
#   From: 2010.03.12/outbox.cif.g09.slc.cpg/sg68_29_cif.got.tgz:56258.got - 2010.04.10 23:14:56.
