data_PCOD8282243
_publ_section_title
;
Structure prediction by ZEFSAII (Michael W. Deem and Ramdas Pophale) SiO2 
 PCOD8282243
Probable space group: C C C A
;
_chemical_formula_sum "Si O2"
_cell_formula_units_Z 64
_cell_length_a 9.830812
_cell_length_b 17.055013
_cell_length_c 17.826228
_cell_angle_alpha 90.000000
_cell_angle_beta 90.000000
_cell_angle_gamma 90.000000
_cell_volume 2988.827859
_symmetry_space_group_name_H-M "C C C A"
_symmetry_group_IT_number 68
_space_group.IT_coordinate_system_code '2'
_symmetry_cell_setting 'orthorhombic'
loop_
_space_group_symop_operation_xyz
x,y,z
-x,1/2-y,z
x,1/2-y,1/2-z
-x,y,1/2-z
-x,-y,-z
x,1/2+y,-z
-x,1/2+y,1/2+z
x,-y,1/2+z
1/2+x,1/2+y,z
1/2-x,-y,z
1/2+x,-y,1/2-z
1/2-x,1/2+y,1/2-z
1/2-x,1/2-y,-z
1/2+x,y,-z
1/2-x,y,1/2+z
1/2+x,1/2-y,1/2+z
loop_
_atom_site_type_symbol
_atom_site_label
_atom_site_fract_x
_atom_site_fract_y
_atom_site_fract_z
Si Si1 0.157761 0.731518 0.070859
Si Si2 0.127425 0.441233 0.564664
Si Si3 0.891906 0.957791 0.892928
Si Si4 0.374973 0.706663 0.329774
O O1 0.172464 0.641920 0.097701
O O2 0.224725 0.783892 0.135695
O O3 0.000000 0.750000 0.057317
O O4 0.250000 0.750000 0.000000
O O5 0.250000 0.500000 0.569400
O O6 0.087191 0.425211 0.477748
O O7 0.006992 0.475635 0.616493
O O8 0.907250 0.886896 0.832706
O O9 0.750000 0.000000 0.880034
O O10 0.500000 0.750000 0.374278
O O11 0.371539 0.750000 0.250000
#
# Coordination Sequence:
#
# PCOD8282243 Si02
#       4
#    16  16  16  16
#     4  12  24  39  65  99 132 170 221 280 337 401
#     4  10  21  34  62  94 126 160 208 275 332 387
#     4  10  20  37  60  90 125 163 210 266 330 388
#     4  11  24  43  64  90 130 176 221 269 336 408
#
# _framework density 21.413077000000001
#
# number of rings (size 3 to 8) (size 9 to 14) (size 15 to 20)
#    0.000    1.250    2.500    3.750    7.000    0.500 
#    0.000    6.250    0.000    0.000    0.000    0.000 
#    0.000    0.000    0.000    0.000    0.000    0.000 
#
# Total GULP energy -396532.690222 kJ/mol
# GULP energy per Si atom -12391.646569 kJ/mol
# Density = 2.136434 g / cm^3
# Si number density = 21.413077 Si / 1000 Ang^3
#
#
#
# Elastic Constant Matrix: (Units=GPa)
#
#
# Indices 1 2 3 4 5 6 
#
# 1 167.0758 56.1868 39.5192 0.0000 0.0000 0.0000
# 2 56.1868 173.9874 37.5787 0.0000 0.0000 0.0000
# 3 39.5192 37.5787 68.3753 0.0000 0.0000 0.0000
# 4 0.0000 0.0000 0.0000 22.9511 0.0000 0.0000
# 5 0.0000 0.0000 0.0000 0.0000 17.8054 0.0000
# 6 0.0000 0.0000 0.0000 0.0000 0.0000 42.0962
#
#
#
# Elastic Compliance Matrix: (Units=1/GPa)
#
#
# Indices 1 2 3 4 5 6 
#
# 1 0.007327 -0.001647 -0.003329 0.000000 0.000000 0.000000
# 2 -0.001647 0.006892 -0.002836 0.000000 0.000000 0.000000
# 3 -0.003329 -0.002836 0.018108 0.000000 0.000000 0.000000
# 4 0.000000 0.000000 0.000000 0.043571 0.000000 0.000000
# 5 0.000000 0.000000 0.000000 0.000000 0.056163 0.000000
# 6 0.000000 0.000000 0.000000 0.000000 0.000000 0.023755
#
#
# Mechanical properties :
#
#
# Convention : Reuss Voigt Hill
#
# Bulk Modulus (GPa) = 59.87268 75.11199 67.49233
# Shear Modulus (GPa) = 28.24741 34.98079 31.61410
#
# Velocity S-wave (km/s) = 3.63597 4.04619 3.84655
# Velocity P-wave (km/s) = 6.75637 7.54868 7.16349
#
# Compressibility (1/GPa) = 0.01670211
#
# Stress axis : x y z
#
# Youngs Moduli (GPa) = 136.48702 145.09774 55.22388
#
# Poissons Ratio (x) = 0.23897 0.18387
# Poissons Ratio (y) = 0.22479 0.15661
# Poissons Ratio (z) = 0.45443 0.41148
#
# Static dielectric constant tensor:
#      x y z
#    x 6.421570 0.000000 0.000000 
#    y 0.000000 3.962730 0.000000 
#    z 0.000000 0.000000 3.379180 
# 
# 
# High freq. dielectric constant tensor:
#      x y z
#    x 1.861880 0.000000 0.000000 
#    y 0.000000 1.857500 0.000000 
#    z 0.000000 0.000000 1.786720 
# 
# From -- ./inp_files/27872.got.cif
#   From: 2010.03.12/outbox.cif.g09.slc.cpg/sg68_14_cif.got.tgz:27872.got - 2010.04.10 23:14:56.
