data_PCOD8282648
_publ_section_title
;
Structure prediction by ZEFSAII (Michael W. Deem and Ramdas Pophale) SiO2 
 PCOD8282648
Probable space group: C C C A
;
_chemical_formula_sum "Si O2"
_cell_formula_units_Z 116
_cell_length_a 12.900366
_cell_length_b 18.121053
_cell_length_c 24.138744
_cell_angle_alpha 90.000000
_cell_angle_beta 90.000000
_cell_angle_gamma 90.000000
_cell_volume 5642.871121
_symmetry_space_group_name_H-M "C C C A"
_symmetry_group_IT_number 68
_space_group.IT_coordinate_system_code '2'
_symmetry_cell_setting 'orthorhombic'
loop_
_space_group_symop_operation_xyz
x,y,z
-x,1/2-y,z
x,1/2-y,1/2-z
-x,y,1/2-z
-x,-y,-z
x,1/2+y,-z
-x,1/2+y,1/2+z
x,-y,1/2+z
1/2+x,1/2+y,z
1/2-x,-y,z
1/2+x,-y,1/2-z
1/2-x,1/2+y,1/2-z
1/2-x,1/2-y,-z
1/2+x,y,-z
1/2-x,y,1/2+z
1/2+x,1/2-y,1/2+z
loop_
_atom_site_type_symbol
_atom_site_label
_atom_site_fract_x
_atom_site_fract_y
_atom_site_fract_z
Si Si1 0.876208 0.815664 0.652467
Si Si2 0.934387 0.823904 0.462320
Si Si3 0.316003 0.073170 0.188761
Si Si4 0.986734 0.398194 0.069216
Si Si5 0.000000 0.250000 0.250000
Si Si6 0.219597 0.825834 0.595538
Si Si7 0.202294 0.922661 0.310156
Si Si8 0.506369 0.945118 0.617596
O O1 0.839281 0.747561 0.614984
O O2 0.778959 0.867558 0.659990
O O3 0.969791 0.858307 0.623402
O O4 0.922834 0.797332 0.712284
O O5 0.813256 0.808305 0.447616
O O6 0.000000 0.750000 0.470881
O O7 0.943323 0.872562 0.517672
O O8 0.986302 0.868662 0.413027
O O9 0.263550 0.134173 0.149784
O O10 0.332635 0.108984 0.250027
O O11 0.426561 0.046312 0.167436
O O12 0.250000 0.000000 0.188683
O O13 0.864886 0.376770 0.063511
O O14 0.998098 0.486400 0.075194
O O15 0.117138 0.938686 0.355538
O O16 0.250000 0.000000 0.294206
#
# Coordination Sequence:
#
# PCOD8282648 Si02
#       8
#    16  16  16  16   4  16  16  16
#     4  12  24  40  65  98 138 170 224 279 336 399
#     4  11  26  44  69  94 131 182 227 283 344 399
#     4  10  21  39  66  93 130 178 215 267 333 402
#     4  12  24  44  67  99 129 175 228 284 336 404
#     4  12  24  40  68 104 134 180 222 288 334 408
#     4  11  23  44  67  95 134 177 223 282 339 408
#     4  11  23  38  62  96 134 173 213 270 335 398
#     4  11  23  44  65  97 133 173 228 280 333 410
#
# _framework density 20.556912000000001
#
# number of rings (size 3 to 8) (size 9 to 14) (size 15 to 20)
#    0.000    0.828    4.138    3.310    0.000    3.310 
#    0.000    0.000    0.000    2.483    0.000    0.000 
#    0.000    0.000    0.000    0.000    0.000    0.000 
#
# Total GULP energy -719227.356479 kJ/mol
# GULP energy per Si atom -12400.471663 kJ/mol
# Density = 2.051012 g / cm^3
# Si number density = 20.556912 Si / 1000 Ang^3
#
#
#
# Elastic Constant Matrix: (Units=GPa)
#
#
# Indices 1 2 3 4 5 6 
#
# 1 113.7594 29.7211 33.9252 0.0000 0.0000 0.0000
# 2 29.7211 64.3667 -2.1134 0.0000 0.0000 0.0000
# 3 33.9252 -2.1134 76.3768 0.0000 0.0000 0.0000
# 4 0.0000 0.0000 0.0000 41.9865 0.0000 0.0000
# 5 0.0000 0.0000 0.0000 0.0000 29.1881 0.0000
# 6 0.0000 0.0000 0.0000 0.0000 0.0000 36.5107
#
#
#
# Elastic Compliance Matrix: (Units=1/GPa)
#
#
# Indices 1 2 3 4 5 6 
#
# 1 0.011894 -0.005671 -0.005440 0.000000 0.000000 0.000000
# 2 -0.005671 0.018254 0.003024 0.000000 0.000000 0.000000
# 3 -0.005440 0.003024 0.015593 0.000000 0.000000 0.000000
# 4 0.000000 0.000000 0.000000 0.023817 0.000000 0.000000
# 5 0.000000 0.000000 0.000000 0.000000 0.034261 0.000000
# 6 0.000000 0.000000 0.000000 0.000000 0.000000 0.027389
#
#
# Mechanical properties :
#
#
# Convention : Reuss Voigt Hill
#
# Bulk Modulus (GPa) = 33.82131 41.95209 37.88670
# Shear Modulus (GPa) = 31.79890 34.40173 33.10031
#
# Velocity S-wave (km/s) = 3.93730 4.09527 4.01706
# Velocity P-wave (km/s) = 6.09573 6.54322 6.32343
#
# Compressibility (1/GPa) = 0.02956715
#
# Stress axis : x y z
#
# Youngs Moduli (GPa) = 84.07291 54.78319 64.13096
#
# Poissons Ratio (x) = 0.31067 0.34889
# Poissons Ratio (y) = 0.47676 -0.19393
# Poissons Ratio (z) = 0.45737 -0.16566
#
# Static dielectric constant tensor:
#      x y z
#    x 3.576200 0.000000 0.000000 
#    y 0.000000 3.780740 0.000000 
#    z 0.000000 0.000000 3.835000 
# 
# 
# High freq. dielectric constant tensor:
#      x y z
#    x 1.814980 0.000000 0.000000 
#    y 0.000000 1.806970 0.000000 
#    z 0.000000 0.000000 1.813060 
# 
# From -- ./inp_files/50355.got.cif
#   From: 2010.03.12/outbox.cif.g09.slc.cpg/sg68_26_cif.got.tgz:50355.got - 2010.04.10 23:14:56.
