data_PCOD8282480
_publ_section_title
;
Structure prediction by ZEFSAII (Michael W. Deem and Ramdas Pophale) SiO2 
 PCOD8282480
Probable space group: C C C A
;
_chemical_formula_sum "Si O2"
_cell_formula_units_Z 116
_cell_length_a 27.920775
_cell_length_b 19.717565
_cell_length_c 10.264313
_cell_angle_alpha 90.000000
_cell_angle_beta 90.000000
_cell_angle_gamma 90.000000
_cell_volume 5650.809115
_symmetry_space_group_name_H-M "C C C A"
_symmetry_group_IT_number 68
_space_group.IT_coordinate_system_code '2'
_symmetry_cell_setting 'orthorhombic'
loop_
_space_group_symop_operation_xyz
x,y,z
-x,1/2-y,z
x,1/2-y,1/2-z
-x,y,1/2-z
-x,-y,-z
x,1/2+y,-z
-x,1/2+y,1/2+z
x,-y,1/2+z
1/2+x,1/2+y,z
1/2-x,-y,z
1/2+x,-y,1/2-z
1/2-x,1/2+y,1/2-z
1/2-x,1/2-y,-z
1/2+x,y,-z
1/2-x,y,1/2+z
1/2+x,1/2-y,1/2+z
loop_
_atom_site_type_symbol
_atom_site_label
_atom_site_fract_x
_atom_site_fract_y
_atom_site_fract_z
Si Si1 0.704118 0.585015 0.961513
Si Si2 0.389003 0.927346 0.654894
Si Si3 0.636615 0.425876 0.694805
Si Si4 0.507964 0.937124 0.905356
Si Si5 0.000000 0.250000 0.250000
Si Si6 0.866544 0.186916 0.658432
Si Si7 0.187303 0.933383 0.941040
Si Si8 0.561009 0.164118 0.951338
O O1 0.681746 0.651162 0.893192
O O2 0.760644 0.598742 0.962801
O O3 0.691625 0.512471 0.894641
O O4 0.683958 0.575266 0.106050
O O5 0.436600 0.919046 0.568511
O O6 0.394532 0.870710 0.763976
O O7 0.340653 0.918753 0.573246
O O8 0.386384 0.000678 0.722098
O O9 0.656395 0.395303 0.830027
O O10 0.593624 0.385537 0.631726
O O11 0.500000 0.952650 0.750000
O O12 0.475262 0.875142 0.953396
O O13 0.500000 0.000000 0.000000
O O14 0.966826 0.292721 0.154475
O O15 0.852792 0.250000 0.750000
O O16 0.902991 0.209143 0.542254
#
# Coordination Sequence:
#
# PCOD8282480 Si02
#       8
#    16  16  16  16   4  16  16  16
#     4   9  21  38  61 100 128 174 214 273 332 398
#     4  11  23  38  64  99 130 172 220 269 344 400
#     4  10  21  40  65  96 135 163 218 286 335 395
#     4  12  26  41  70 104 140 177 230 292 353 408
#     4  12  32  48  70  92 136 188 244 272 352 424
#     4  11  24  45  67  92 137 176 222 272 335 410
#     4  10  21  35  69  96 134 166 217 279 344 393
#     4  11  27  46  65  96 133 181 228 287 336 408
#
# _framework density 20.528034000000002
#
# number of rings (size 3 to 8) (size 9 to 14) (size 15 to 20)
#    0.000    1.379    4.138    0.000    8.690    1.103 
#    0.000    0.690    1.517    0.000    0.000    0.000 
#    0.000    0.000    0.000    0.000    0.000    0.000 
#
# Total GULP energy -718789.574081 kJ/mol
# GULP energy per Si atom -12392.923691 kJ/mol
# Density = 2.048131 g / cm^3
# Si number density = 20.528034 Si / 1000 Ang^3
#
#
#
# Elastic Constant Matrix: (Units=GPa)
#
#
# Indices 1 2 3 4 5 6 
#
# 1 159.2323 32.6174 52.2834 0.0000 0.0000 0.0000
# 2 32.6174 73.9495 43.1945 0.0000 0.0000 0.0000
# 3 52.2834 43.1945 111.8644 0.0000 0.0000 0.0000
# 4 0.0000 0.0000 0.0000 36.8331 0.0000 0.0000
# 5 0.0000 0.0000 0.0000 0.0000 87.3973 0.0000
# 6 0.0000 0.0000 0.0000 0.0000 0.0000 16.0113
#
#
#
# Elastic Compliance Matrix: (Units=1/GPa)
#
#
# Indices 1 2 3 4 5 6 
#
# 1 0.007570 -0.001643 -0.002904 0.000000 0.000000 0.000000
# 2 -0.001643 0.017818 -0.006112 0.000000 0.000000 0.000000
# 3 -0.002904 -0.006112 0.012657 0.000000 0.000000 0.000000
# 4 0.000000 0.000000 0.000000 0.027150 0.000000 0.000000
# 5 0.000000 0.000000 0.000000 0.000000 0.011442 0.000000
# 6 0.000000 0.000000 0.000000 0.000000 0.000000 0.062456
#
#
# Mechanical properties :
#
#
# Convention : Reuss Voigt Hill
#
# Bulk Modulus (GPa) = 59.78426 66.80408 63.29417
# Shear Modulus (GPa) = 30.12328 42.51173 36.31750
#
# Velocity S-wave (km/s) = 3.83485 4.55566 4.21071
# Velocity P-wave (km/s) = 6.98531 7.76438 7.38512
#
# Compressibility (1/GPa) = 0.01672681
#
# Stress axis : x y z
#
# Youngs Moduli (GPa) = 132.09862 56.12458 79.00995
#
# Poissons Ratio (x) = 0.09221 0.22943
# Poissons Ratio (y) = 0.21702 0.48291
# Poissons Ratio (z) = 0.38358 0.34304
#
# Static dielectric constant tensor:
#      x y z
#    x 3.342630 0.000000 0.000000 
#    y 0.000000 3.386150 0.000000 
#    z 0.000000 0.000000 3.298260 
# 
# 
# High freq. dielectric constant tensor:
#      x y z
#    x 1.822910 0.000000 0.000000 
#    y 0.000000 1.766310 0.000000 
#    z 0.000000 0.000000 1.812760 
# 
# From -- ./inp_files/17227.got.cif
#   From: 2010.03.12/outbox.cif.g09.slc.cpg/sg68_9_cif.got.tgz:17227.got - 2010.04.10 23:14:56.
