data_PCOD8282097
_publ_section_title
;
Structure prediction by ZEFSAII (Michael W. Deem and Ramdas Pophale) SiO2 
 PCOD8282097
Probable space group: C C C A
;
_chemical_formula_sum "Si O2"
_cell_formula_units_Z 88
_cell_length_a 10.663974
_cell_length_b 21.725567
_cell_length_c 17.742278
_cell_angle_alpha 90.000000
_cell_angle_beta 90.000000
_cell_angle_gamma 90.000000
_cell_volume 4110.546609
_symmetry_space_group_name_H-M "C C C A"
_symmetry_group_IT_number 68
_space_group.IT_coordinate_system_code '2'
_symmetry_cell_setting 'orthorhombic'
loop_
_space_group_symop_operation_xyz
x,y,z
-x,1/2-y,z
x,1/2-y,1/2-z
-x,y,1/2-z
-x,-y,-z
x,1/2+y,-z
-x,1/2+y,1/2+z
x,-y,1/2+z
1/2+x,1/2+y,z
1/2-x,-y,z
1/2+x,-y,1/2-z
1/2-x,1/2+y,1/2-z
1/2-x,1/2-y,-z
1/2+x,y,-z
1/2-x,y,1/2+z
1/2+x,1/2-y,1/2+z
loop_
_atom_site_type_symbol
_atom_site_label
_atom_site_fract_x
_atom_site_fract_y
_atom_site_fract_z
Si Si1 0.602661 0.003759 0.434744
Si Si2 0.880510 0.779812 0.166245
Si Si3 0.750000 0.500000 0.296362
Si Si4 0.130281 0.771248 0.664629
Si Si5 0.611722 0.591503 0.193349
Si Si6 0.041520 0.919400 0.333397
O O1 0.569820 0.948762 0.377635
O O2 0.500000 0.000000 0.500000
O O3 0.750000 0.000000 0.460148
O O4 0.574453 0.068901 0.391109
O O5 0.876485 0.750000 0.250000
O O6 0.749302 0.763060 0.125340
O O7 0.897937 0.852562 0.163638
O O8 0.000000 0.750000 0.123332
O O9 0.717119 0.556872 0.241296
O O10 0.855823 0.527385 0.351772
O O11 0.121893 0.750000 0.750000
O O12 0.159191 0.843701 0.660270
O O13 0.000000 0.750000 0.623952
O O14 0.500000 0.606699 0.250000
O O15 0.000000 0.936037 0.250000
#
# Coordination Sequence:
#
# PCOD8282097 Si02
#       6
#    16  16   8  16  16  16
#     4  12  28  46  64  92 132 179 224 272 331 392
#     4  10  20  33  56  95 130 161 199 258 324 386
#     4  12  20  34  64 102 126 162 212 270 332 382
#     4  10  20  34  55  96 132 164 200 257 323 384
#     4  12  21  38  67  98 135 168 212 272 327 392
#     4  12  22  39  66  98 132 166 213 273 331 391
#
# _framework density 21.408346000000002
#
# number of rings (size 3 to 8) (size 9 to 14) (size 15 to 20)
#    0.000    0.727    8.182    2.182    3.818    0.000 
#    0.000    0.000    0.000    2.182    0.000    0.000 
#    0.000    0.000    0.000    0.000    0.000    0.000 
#
# Total GULP energy -545148.696795 kJ/mol
# GULP energy per Si atom -12389.743109 kJ/mol
# Density = 2.135962 g / cm^3
# Si number density = 21.408346 Si / 1000 Ang^3
#
#
#
# Elastic Constant Matrix: (Units=GPa)
#
#
# Indices 1 2 3 4 5 6 
#
# 1 195.6617 59.3181 29.2738 0.0000 0.0000 0.0000
# 2 59.3181 154.4243 14.4590 0.0000 0.0000 0.0000
# 3 29.2738 14.4590 57.8810 0.0000 0.0000 0.0000
# 4 0.0000 0.0000 0.0000 -20.3446 0.0000 0.0000
# 5 0.0000 0.0000 0.0000 0.0000 22.8250 0.0000
# 6 0.0000 0.0000 0.0000 0.0000 0.0000 49.2171
#
#
#
# Elastic Compliance Matrix: (Units=1/GPa)
#
#
# Indices 1 2 3 4 5 6 
#
# 1 0.006138 -0.002117 -0.002576 0.000000 0.000000 0.000000
# 2 -0.002117 0.007361 -0.000768 0.000000 0.000000 0.000000
# 3 -0.002576 -0.000768 0.018771 0.000000 0.000000 0.000000
# 4 0.000000 0.000000 0.000000 -0.049153 0.000000 0.000000
# 5 0.000000 0.000000 0.000000 0.000000 0.043812 0.000000
# 6 0.000000 0.000000 0.000000 0.000000 0.000000 0.020318
#
#
# Mechanical properties :
#
#
# Convention : Reuss Voigt Hill
#
# Bulk Modulus (GPa) = 46.84037 68.22987 57.53512
# Shear Modulus (GPa) = 76.58884 30.66723 53.62804
#
# Velocity S-wave (km/s) = 5.98773 3.78893 5.01043
# Velocity P-wave (km/s) = 8.35050 7.14711 7.77213
#
# Compressibility (1/GPa) = 0.02134910
#
# Stress axis : x y z
#
# Youngs Moduli (GPa) = 162.92297 135.85823 53.27267
#
# Poissons Ratio (x) = 0.28755 0.13721
# Poissons Ratio (y) = 0.34483 0.04093
# Poissons Ratio (z) = 0.41962 0.10437
#
# Static dielectric constant tensor:
#      x y z
#    x 5.574900 0.000000 0.000000 
#    y 0.000000 4.170010 0.000000 
#    z 0.000000 0.000000 3.270530 
# 
# 
# High freq. dielectric constant tensor:
#      x y z
#    x 1.875000 0.000000 0.000000 
#    y 0.000000 1.850550 0.000000 
#    z 0.000000 0.000000 1.760510 
# 
# From -- ./inp_files/29627.got.cif
#   From: 2010.03.12/outbox.cif.g09.slc.cpg/sg68_15_cif.got.tgz:29627.got - 2010.04.10 23:14:56.
