data_PCOD8282822
_publ_section_title
;
Structure prediction by ZEFSAII (Michael W. Deem and Ramdas Pophale) SiO2 
 PCOD8282822
Probable space group: C C C A
;
_chemical_formula_sum "Si O2"
_cell_formula_units_Z 88
_cell_length_a 15.412440
_cell_length_b 31.662362
_cell_length_c 8.622022
_cell_angle_alpha 90.000000
_cell_angle_beta 90.000000
_cell_angle_gamma 90.000000
_cell_volume 4207.497199
_symmetry_space_group_name_H-M "C C C A"
_symmetry_group_IT_number 68
_space_group.IT_coordinate_system_code '2'
_symmetry_cell_setting 'orthorhombic'
loop_
_space_group_symop_operation_xyz
x,y,z
-x,1/2-y,z
x,1/2-y,1/2-z
-x,y,1/2-z
-x,-y,-z
x,1/2+y,-z
-x,1/2+y,1/2+z
x,-y,1/2+z
1/2+x,1/2+y,z
1/2-x,-y,z
1/2+x,-y,1/2-z
1/2-x,1/2+y,1/2-z
1/2-x,1/2-y,-z
1/2+x,y,-z
1/2-x,y,1/2+z
1/2+x,1/2-y,1/2+z
loop_
_atom_site_type_symbol
_atom_site_label
_atom_site_fract_x
_atom_site_fract_y
_atom_site_fract_z
Si Si1 0.500000 0.750000 0.506233
Si Si2 0.430855 0.941458 0.025681
Si Si3 0.319069 0.161818 0.709080
Si Si4 0.500000 0.996954 0.750000
Si Si5 0.500000 0.322520 0.250000
Si Si6 0.000000 0.878299 0.750000
Si Si7 0.336137 0.869039 0.884806
Si Si8 0.140238 0.750000 0.750000
O O1 0.520737 0.708011 0.605427
O O2 0.416927 0.740583 0.401348
O O3 0.496576 0.905607 0.090685
O O4 0.422817 0.974087 0.172332
O O5 0.463947 0.967041 0.880628
O O6 0.346870 0.915771 0.964849
O O7 0.414866 0.149936 0.769358
O O8 0.315760 0.163044 0.523484
O O9 0.247231 0.129307 0.773215
O O10 0.298789 0.208977 0.771492
O O11 0.419369 0.353501 0.213075
#
# Coordination Sequence:
#
# PCOD8282822 Si02
#       8
#     8  16  16   8   8   8  16   8
#     4  10  22  38  66  88 126 166 222 278 330 382
#     4   9  19  36  64  95 124 160 204 254 319 382
#     4  11  25  40  63  91 131 175 225 270 330 382
#     4   9  17  36  67  97 122 162 200 249 321 396
#     4  11  23  42  60  92 123 170 219 274 330 384
#     4   9  20  41  63  91 127 170 221 271 323 383
#     4  11  25  41  61  95 129 169 218 269 326 391
#     4  11  22  40  62  91 124 178 220 279 326 377
#
# _framework density 20.915047000000001
#
# number of rings (size 3 to 8) (size 9 to 14) (size 15 to 20)
#    0.000    1.818    1.818    1.636    5.091    3.636 
#    0.000    0.000    0.000   37.091    0.000    0.000 
#    0.000    0.000    0.000    0.000    0.000    0.000 
#
# Total GULP energy -545131.581838 kJ/mol
# GULP energy per Si atom -12389.354133 kJ/mol
# Density = 2.086744 g / cm^3
# Si number density = 20.915047 Si / 1000 Ang^3
#
#
#
# Elastic Constant Matrix: (Units=GPa)
#
#
# Indices 1 2 3 4 5 6 
#
# 1 106.8111 35.7963 41.3098 0.0000 0.0000 0.0000
# 2 35.7963 125.6836 47.1765 0.0000 0.0000 0.0000
# 3 41.3098 47.1765 113.7566 0.0000 0.0000 0.0000
# 4 0.0000 0.0000 0.0000 27.9394 0.0000 0.0000
# 5 0.0000 0.0000 0.0000 0.0000 27.7348 0.0000
# 6 0.0000 0.0000 0.0000 0.0000 0.0000 -22.2652
#
#
#
# Elastic Compliance Matrix: (Units=1/GPa)
#
#
# Indices 1 2 3 4 5 6 
#
# 1 0.011296 -0.001987 -0.003278 0.000000 0.000000 0.000000
# 2 -0.001987 0.009773 -0.003331 0.000000 0.000000 0.000000
# 3 -0.003278 -0.003331 0.011363 0.000000 0.000000 0.000000
# 4 0.000000 0.000000 0.000000 0.035792 0.000000 0.000000
# 5 0.000000 0.000000 0.000000 0.000000 0.036056 0.000000
# 6 0.000000 0.000000 0.000000 0.000000 0.000000 -0.044913
#
#
# Mechanical properties :
#
#
# Convention : Reuss Voigt Hill
#
# Bulk Modulus (GPa) = 65.62163 66.09072 65.85617
# Shear Modulus (GPa) = 61.24570 21.47970 41.36270
#
# Velocity S-wave (km/s) = 5.41725 3.20816 4.45191
# Velocity P-wave (km/s) = 8.40073 6.73730 7.61458
#
# Compressibility (1/GPa) = 0.01523888
#
# Stress axis : x y z
#
# Youngs Moduli (GPa) = 88.52701 102.32439 88.00709
#
# Poissons Ratio (x) = 0.20330 0.28850
# Poissons Ratio (y) = 0.17588 0.29319
# Poissons Ratio (z) = 0.29020 0.34089
#
# Static dielectric constant tensor:
#      x y z
#    x 3.438680 0.000000 0.000000 
#    y 0.000000 4.112730 0.000000 
#    z 0.000000 0.000000 4.166750 
# 
# 
# High freq. dielectric constant tensor:
#      x y z
#    x 1.772060 0.000000 0.000000 
#    y 0.000000 1.831810 0.000000 
#    z 0.000000 0.000000 1.841000 
# 
# From -- ./inp_files/6457.got.cif
#   From: 2010.03.12/outbox.cif.g09.slc.cpg/sg68_4_cif.got.tgz:6457.got - 2010.04.10 23:14:56.
