data_PCOD8282509
_publ_section_title
;
Structure prediction by ZEFSAII (Michael W. Deem and Ramdas Pophale) SiO2 
 PCOD8282509
Probable space group: C C C A
;
_chemical_formula_sum "Si O2"
_cell_formula_units_Z 88
_cell_length_a 18.418571
_cell_length_b 17.694205
_cell_length_c 12.342898
_cell_angle_alpha 90.000000
_cell_angle_beta 90.000000
_cell_angle_gamma 90.000000
_cell_volume 4022.574787
_symmetry_space_group_name_H-M "C C C A"
_symmetry_group_IT_number 68
_space_group.IT_coordinate_system_code '2'
_symmetry_cell_setting 'orthorhombic'
loop_
_space_group_symop_operation_xyz
x,y,z
-x,1/2-y,z
x,1/2-y,1/2-z
-x,y,1/2-z
-x,-y,-z
x,1/2+y,-z
-x,1/2+y,1/2+z
x,-y,1/2+z
1/2+x,1/2+y,z
1/2-x,-y,z
1/2+x,-y,1/2-z
1/2-x,1/2+y,1/2-z
1/2-x,1/2-y,-z
1/2+x,y,-z
1/2-x,y,1/2+z
1/2+x,1/2-y,1/2+z
loop_
_atom_site_type_symbol
_atom_site_label
_atom_site_fract_x
_atom_site_fract_y
_atom_site_fract_z
Si Si1 0.750000 0.500000 0.312155
Si Si2 0.040820 0.681939 0.548744
Si Si3 0.572940 0.621978 0.888011
Si Si4 0.674585 0.751390 0.940362
Si Si5 0.647607 0.393353 0.180972
Si Si6 0.613323 0.539851 0.448066
O O1 0.713061 0.437814 0.236896
O O2 0.689835 0.540806 0.386296
O O3 0.119674 0.713396 0.526044
O O4 0.056470 0.601160 0.607160
O O5 0.000000 0.750000 0.615436
O O6 0.995248 0.668352 0.435775
O O7 0.648600 0.667473 0.908526
O O8 0.574998 0.608898 0.757722
O O9 0.576457 0.541948 0.949045
O O10 0.676759 0.808325 0.838028
O O11 0.750000 0.750000 0.000000
O O12 0.623883 0.435635 0.072075
#
# Coordination Sequence:
#
# PCOD8282509 Si02
#       6
#     8  16  16  16  16  16
#     4  10  22  36  60  92 130 160 220 258 320 390
#     4   9  20  39  61  89 125 167 207 260 319 376
#     4  10  21  39  60  93 122 163 212 261 316 383
#     4  10  22  36  61  92 126 163 208 260 326 377
#     4  10  22  36  60  92 124 166 205 264 318 373
#     4  10  21  36  62  91 124 162 210 259 320 371
#
# _framework density 21.876535000000001
#
# number of rings (size 3 to 8) (size 9 to 14) (size 15 to 20)
#    0.000    2.182    0.000    1.636   12.727    2.909 
#    0.000    7.273    0.000    0.000    9.455    0.000 
#    0.000    0.000    0.000    0.000    0.000    0.000 
#
# Total GULP energy -545078.138372 kJ/mol
# GULP energy per Si atom -12388.139508 kJ/mol
# Density = 2.182674 g / cm^3
# Si number density = 21.876535 Si / 1000 Ang^3
#
#
#
# Elastic Constant Matrix: (Units=GPa)
#
#
# Indices 1 2 3 4 5 6 
#
# 1 111.4872 49.7162 16.0021 0.0000 0.0000 0.0000
# 2 49.7162 184.8660 38.5340 0.0000 0.0000 0.0000
# 3 16.0021 38.5340 58.5468 0.0000 0.0000 0.0000
# 4 0.0000 0.0000 0.0000 36.1782 0.0000 0.0000
# 5 0.0000 0.0000 0.0000 0.0000 14.2035 0.0000
# 6 0.0000 0.0000 0.0000 0.0000 0.0000 49.4496
#
#
#
# Elastic Compliance Matrix: (Units=1/GPa)
#
#
# Indices 1 2 3 4 5 6 
#
# 1 0.010258 -0.002520 -0.001145 0.000000 0.000000 0.000000
# 2 -0.002520 0.006888 -0.003845 0.000000 0.000000 0.000000
# 3 -0.001145 -0.003845 0.019924 0.000000 0.000000 0.000000
# 4 0.000000 0.000000 0.000000 0.027641 0.000000 0.000000
# 5 0.000000 0.000000 0.000000 0.000000 0.070405 0.000000
# 6 0.000000 0.000000 0.000000 0.000000 0.000000 0.020223
#
#
# Mechanical properties :
#
#
# Convention : Reuss Voigt Hill
#
# Bulk Modulus (GPa) = 45.35135 62.60051 53.97593
# Shear Modulus (GPa) = 28.13586 36.67610 32.40598
#
# Velocity S-wave (km/s) = 3.59014 4.09896 3.85296
# Velocity P-wave (km/s) = 6.16126 7.14699 6.67235
#
# Compressibility (1/GPa) = 0.02205006
#
# Stress axis : x y z
#
# Youngs Moduli (GPa) = 97.48745 145.16965 50.19055
#
# Poissons Ratio (x) = 0.36582 0.05747
# Poissons Ratio (y) = 0.24566 0.19299
# Poissons Ratio (z) = 0.11163 0.55819
#
# Static dielectric constant tensor:
#      x y z
#    x 4.068620 0.000000 0.000000 
#    y 0.000000 4.794270 0.000000 
#    z 0.000000 0.000000 3.605270 
# 
# 
# High freq. dielectric constant tensor:
#      x y z
#    x 1.865310 0.000000 0.000000 
#    y 0.000000 1.890270 0.000000 
#    z 0.000000 0.000000 1.820820 
# 
# From -- ./inp_files/15431.got.cif
#   From: 2010.03.12/outbox.cif.g09.slc.cpg/sg68_8_cif.got.tgz:15431.got - 2010.04.10 23:14:56.
