data_PCOD8282109
_publ_section_title
;
Structure prediction by ZEFSAII (Michael W. Deem and Ramdas Pophale) SiO2 
 PCOD8282109
Probable space group: C C C A
;
_chemical_formula_sum "Si O2"
_cell_formula_units_Z 128
_cell_length_a 24.555810
_cell_length_b 12.205612
_cell_length_c 21.896781
_cell_angle_alpha 90.000000
_cell_angle_beta 90.000000
_cell_angle_gamma 90.000000
_cell_volume 6562.874499
_symmetry_space_group_name_H-M "C C C A"
_symmetry_group_IT_number 68
_space_group.IT_coordinate_system_code '2'
_symmetry_cell_setting 'orthorhombic'
loop_
_space_group_symop_operation_xyz
x,y,z
-x,1/2-y,z
x,1/2-y,1/2-z
-x,y,1/2-z
-x,-y,-z
x,1/2+y,-z
-x,1/2+y,1/2+z
x,-y,1/2+z
1/2+x,1/2+y,z
1/2-x,-y,z
1/2+x,-y,1/2-z
1/2-x,1/2+y,1/2-z
1/2-x,1/2-y,-z
1/2+x,y,-z
1/2-x,y,1/2+z
1/2+x,1/2-y,1/2+z
loop_
_atom_site_type_symbol
_atom_site_label
_atom_site_fract_x
_atom_site_fract_y
_atom_site_fract_z
Si Si1 0.365627 0.036122 0.369279
Si Si2 0.781421 0.296754 0.812836
Si Si3 0.024922 0.371711 0.575877
Si Si4 0.441964 0.960200 0.052280
Si Si5 0.150192 0.408757 0.009836
Si Si6 0.839379 0.327744 0.303093
Si Si7 0.143045 0.799594 0.578542
Si Si8 0.744528 0.617297 0.585873
O O1 0.322198 0.116128 0.340504
O O2 0.420556 0.104813 0.384745
O O3 0.339702 0.984725 0.430699
O O4 0.374530 0.937278 0.319216
O O5 0.807277 0.250000 0.750000
O O6 0.724600 0.355657 0.792763
O O7 0.775169 0.203760 0.864304
O O8 0.031896 0.390790 0.503325
O O9 0.000000 0.250000 0.589156
O O10 0.983896 0.471220 0.594238
O O11 0.409311 0.873950 0.093315
O O12 0.398484 0.047172 0.029772
O O13 0.126812 0.290832 0.029220
O O14 0.204762 0.391393 0.971953
O O15 0.864440 0.250000 0.250000
O O16 0.836982 0.248157 0.359251
O O17 0.196534 0.862595 0.554004
O O18 0.750000 0.500000 0.619684
#
# Coordination Sequence:
#
# PCOD8282109 Si02
#       8
#    16  16  16  16  16  16  16  16
#     4  10  22  40  61  88 118 161 202 249 317 356
#     4  10  23  39  61  88 119 166 206 247 298 368
#     4  10  22  37  58  84 117 158 206 249 296 363
#     4  10  20  36  56  82 115 159 196 243 296 359
#     4  10  21  34  55  87 124 153 190 243 312 376
#     4   9  20  40  62  87 117 152 199 248 292 366
#     4  10  20  34  54  85 117 154 188 238 302 363
#     4  11  22  33  53  89 123 156 195 240 306 370
#
# _framework density 19.503648999999999
#
# number of rings (size 3 to 8) (size 9 to 14) (size 15 to 20)
#    0.000    2.000    1.250    1.500    5.250    7.000 
#    0.000    0.000    0.000    3.375    0.000    0.000 
#    0.000    0.000    0.000    0.000    0.000    0.000 
#
# Total GULP energy -792850.967047 kJ/mol
# GULP energy per Si atom -12388.296360 kJ/mol
# Density = 1.945926 g / cm^3
# Si number density = 19.503649 Si / 1000 Ang^3
#
#
#
# Elastic Constant Matrix: (Units=GPa)
#
#
# Indices 1 2 3 4 5 6 
#
# 1 80.5768 43.0068 13.1752 0.0000 0.0000 0.0000
# 2 43.0068 119.2836 28.5904 0.0000 0.0000 0.0000
# 3 13.1752 28.5904 37.2325 0.0000 0.0000 0.0000
# 4 0.0000 0.0000 0.0000 10.1198 0.0000 0.0000
# 5 0.0000 0.0000 0.0000 0.0000 19.4534 0.0000
# 6 0.0000 0.0000 0.0000 0.0000 0.0000 -17.9513
#
#
#
# Elastic Compliance Matrix: (Units=1/GPa)
#
#
# Indices 1 2 3 4 5 6 
#
# 1 0.015432 -0.005215 -0.001456 0.000000 0.000000 0.000000
# 2 -0.005215 0.012037 -0.007397 0.000000 0.000000 0.000000
# 3 -0.001456 -0.007397 0.033054 0.000000 0.000000 0.000000
# 4 0.000000 0.000000 0.000000 0.098816 0.000000 0.000000
# 5 0.000000 0.000000 0.000000 0.000000 0.051405 0.000000
# 6 0.000000 0.000000 0.000000 0.000000 0.000000 -0.055706
#
#
# Mechanical properties :
#
#
# Convention : Reuss Voigt Hill
#
# Bulk Modulus (GPa) = 30.87820 45.18197 38.03009
# Shear Modulus (GPa) = 25.77721 12.47909 19.12815
#
# Velocity S-wave (km/s) = 3.63941 2.53224 3.13509
# Velocity P-wave (km/s) = 5.79023 5.63612 5.71370
#
# Compressibility (1/GPa) = 0.03238531
#
# Stress axis : x y z
#
# Youngs Moduli (GPa) = 64.80042 83.07997 30.25350
#
# Poissons Ratio (x) = 0.43325 0.04406
# Poissons Ratio (y) = 0.33792 0.22380
# Poissons Ratio (z) = 0.09438 0.61458
#
# Static dielectric constant tensor:
#      x y z
#    x 3.682640 0.000000 0.000000 
#    y 0.000000 3.855010 0.000000 
#    z 0.000000 0.000000 3.660320 
# 
# 
# High freq. dielectric constant tensor:
#      x y z
#    x 1.751970 0.000000 0.000000 
#    y 0.000000 1.780400 0.000000 
#    z 0.000000 0.000000 1.727850 
# 
# From -- ./inp_files/47072.got.cif
#   From: 2010.03.12/outbox.cif.g09.slc.cpg/sg68_24_cif.got.tgz:47072.got - 2010.04.10 23:14:56.
