data_PCOD8282466
_publ_section_title
;
Structure prediction by ZEFSAII (Michael W. Deem and Ramdas Pophale) SiO2 
 PCOD8282466
Probable space group: C C C A
;
_chemical_formula_sum "Si O2"
_cell_formula_units_Z 96
_cell_length_a 23.789766
_cell_length_b 8.333223
_cell_length_c 24.755489
_cell_angle_alpha 90.000000
_cell_angle_beta 90.000000
_cell_angle_gamma 90.000000
_cell_volume 4907.662443
_symmetry_space_group_name_H-M "C C C A"
_symmetry_group_IT_number 68
_space_group.IT_coordinate_system_code '2'
_symmetry_cell_setting 'orthorhombic'
loop_
_space_group_symop_operation_xyz
x,y,z
-x,1/2-y,z
x,1/2-y,1/2-z
-x,y,1/2-z
-x,-y,-z
x,1/2+y,-z
-x,1/2+y,1/2+z
x,-y,1/2+z
1/2+x,1/2+y,z
1/2-x,-y,z
1/2+x,-y,1/2-z
1/2-x,1/2+y,1/2-z
1/2-x,1/2-y,-z
1/2+x,y,-z
1/2-x,y,1/2+z
1/2+x,1/2-y,1/2+z
loop_
_atom_site_type_symbol
_atom_site_label
_atom_site_fract_x
_atom_site_fract_y
_atom_site_fract_z
Si Si1 0.138722 0.750000 0.250000
Si Si2 0.438948 0.830111 0.020093
Si Si3 0.599302 0.033670 0.577941
Si Si4 0.136025 0.750000 0.750000
Si Si5 0.444254 0.488504 0.785062
Si Si6 0.514531 0.070724 0.397552
Si Si7 0.685870 0.514635 0.827132
O O1 0.097938 0.600231 0.253257
O O2 0.176885 0.693343 0.199046
O O3 0.500000 0.750000 0.009329
O O4 0.396090 0.707016 0.049057
O O5 0.447580 0.990372 0.055970
O O6 0.408282 0.889336 0.965520
O O7 0.541726 0.034027 0.612711
O O8 0.651111 0.003191 0.617478
O O9 0.092332 0.672604 0.793507
O O10 0.174078 0.624899 0.717000
O O11 0.500000 0.459785 0.750000
O O12 0.453472 0.574695 0.841491
O O13 0.500000 0.250000 0.415933
O O14 0.750000 0.500000 0.845139
#
# Coordination Sequence:
#
# PCOD8282466 Si02
#       7
#     8  16  16   8  16  16  16
#     4  10  22  36  56  82 114 150 184 230 288 350
#     4  10  21  35  55  83 115 149 185 228 288 363
#     4  11  21  36  56  80 111 149 190 234 284 338
#     4  10  22  38  56  82 116 150 184 230 290 352
#     4  11  20  32  53  87 122 151 181 225 286 359
#     4  11  19  31  53  83 117 151 183 223 283 360
#     4  11  23  41  61  81 107 149 200 247 288 335
#
# _framework density 19.561247999999999
#
# number of rings (size 3 to 8) (size 9 to 14) (size 15 to 20)
#    0.000    1.333    0.000    9.500    0.000    2.667 
#    0.000    0.833    0.000    0.000    0.000    0.000 
#    0.000    0.000    0.000    0.000    0.000    0.000 
#
# Total GULP energy -594796.638298 kJ/mol
# GULP energy per Si atom -12391.596631 kJ/mol
# Density = 1.951673 g / cm^3
# Si number density = 19.561248 Si / 1000 Ang^3
#
#
#
# Elastic Constant Matrix: (Units=GPa)
#
#
# Indices 1 2 3 4 5 6 
#
# 1 109.9165 26.3819 47.7598 0.0000 0.0000 0.0000
# 2 26.3819 94.3052 33.0926 0.0000 0.0000 0.0000
# 3 47.7598 33.0926 113.4237 0.0000 0.0000 0.0000
# 4 0.0000 0.0000 0.0000 24.4175 0.0000 0.0000
# 5 0.0000 0.0000 0.0000 0.0000 287.8359 0.0000
# 6 0.0000 0.0000 0.0000 0.0000 0.0000 17.1263
#
#
#
# Elastic Compliance Matrix: (Units=1/GPa)
#
#
# Indices 1 2 3 4 5 6 
#
# 1 0.011367 -0.001671 -0.004299 0.000000 0.000000 0.000000
# 2 -0.001671 0.012059 -0.002815 0.000000 0.000000 0.000000
# 3 -0.004299 -0.002815 0.011448 0.000000 0.000000 0.000000
# 4 0.000000 0.000000 0.000000 0.040954 0.000000 0.000000
# 5 0.000000 0.000000 0.000000 0.000000 0.003474 0.000000
# 6 0.000000 0.000000 0.000000 0.000000 0.000000 0.058390
#
#
# Mechanical properties :
#
#
# Convention : Reuss Voigt Hill
#
# Bulk Modulus (GPa) = 57.78885 59.12378 58.45632
# Shear Modulus (GPa) = 31.05026 79.90333 55.47680
#
# Velocity S-wave (km/s) = 3.98846 6.39816 5.33124
# Velocity P-wave (km/s) = 7.12861 9.21263 8.23679
#
# Compressibility (1/GPa) = 0.01730438
#
# Stress axis : x y z
#
# Youngs Moduli (GPa) = 87.97566 82.92483 87.35366
#
# Poissons Ratio (x) = 0.13860 0.37550
# Poissons Ratio (y) = 0.14705 0.24586
# Poissons Ratio (z) = 0.37817 0.23340
#
# Static dielectric constant tensor:
#      x y z
#    x 3.299890 0.000000 0.000000 
#    y 0.000000 -3.995870 0.000000 
#    z 0.000000 0.000000 4.600210 
# 
# 
# High freq. dielectric constant tensor:
#      x y z
#    x 1.723120 0.000000 0.000000 
#    y 0.000000 1.780130 0.000000 
#    z 0.000000 0.000000 1.766720 
# 
# From -- ./inp_files/52129.got.cif
#   From: 2010.03.12/outbox.cif.g09.slc.cpg/sg68_27_cif.got.tgz:52129.got - 2010.04.10 23:14:56.
