data_PCOD8282003
_publ_section_title
;
Structure prediction by ZEFSAII (Michael W. Deem and Ramdas Pophale) SiO2 
 PCOD8282003
Probable space group: C C C A
;
_chemical_formula_sum "Si O2"
_cell_formula_units_Z 64
_cell_length_a 25.122824
_cell_length_b 5.157647
_cell_length_c 25.113093
_cell_angle_alpha 90.000000
_cell_angle_beta 90.000000
_cell_angle_gamma 90.000000
_cell_volume 3254.020433
_symmetry_space_group_name_H-M "C C C A"
_symmetry_group_IT_number 68
_space_group.IT_coordinate_system_code '2'
_symmetry_cell_setting 'orthorhombic'
loop_
_space_group_symop_operation_xyz
x,y,z
-x,1/2-y,z
x,1/2-y,1/2-z
-x,y,1/2-z
-x,-y,-z
x,1/2+y,-z
-x,1/2+y,1/2+z
x,-y,1/2+z
1/2+x,1/2+y,z
1/2-x,-y,z
1/2+x,-y,1/2-z
1/2-x,1/2+y,1/2-z
1/2-x,1/2-y,-z
1/2+x,y,-z
1/2-x,y,1/2+z
1/2+x,1/2-y,1/2+z
loop_
_atom_site_type_symbol
_atom_site_label
_atom_site_fract_x
_atom_site_fract_y
_atom_site_fract_z
Si Si1 0.854039 0.125349 0.306589
Si Si2 0.976325 0.002167 0.309300
Si Si3 0.809229 0.728311 0.476527
Si Si4 0.306980 0.387487 0.146850
O O1 0.838940 0.250000 0.250000
O O2 0.847637 0.369344 0.346852
O O3 0.913081 0.009877 0.308212
O O4 0.818064 0.871490 0.318358
O O5 0.000000 0.750000 0.339268
O O6 0.000000 0.001727 0.250000
O O7 0.000000 0.250000 0.340331
O O8 0.839568 0.488745 0.504939
O O9 0.750000 0.750000 0.500000
O O10 0.808067 0.705011 0.413597
O O11 0.250000 0.500000 0.164038
#
# Coordination Sequence:
#
# PCOD8282003 Si02
#       4
#    16  16  16  16
#     4  12  25  40  59  90 128 171 210 241 295 373
#     4  10  19  36  65  82 105 156 209 260 306 324
#     4  10  19  36  65  83 107 159 212 262 308 326
#     4  12  25  39  60  89 130 172 210 242 293 372
#
# _framework density 19.667978000000002
#
# number of rings (size 3 to 8) (size 9 to 14) (size 15 to 20)
#    0.000    1.000    5.000    4.500    7.000    2.000 
#    0.000    0.000    0.000    0.000    0.000    0.000 
#    0.000   70.000    0.000    0.000    0.000    0.000 
#
# Total GULP energy -396443.161444 kJ/mol
# GULP energy per Si atom -12388.848795 kJ/mol
# Density = 1.962321 g / cm^3
# Si number density = 19.667978 Si / 1000 Ang^3
#
#
#
# Elastic Constant Matrix: (Units=GPa)
#
#
# Indices 1 2 3 4 5 6 
#
# 1 83.9656 58.9809 53.0684 0.0000 0.0000 0.0000
# 2 58.9809 241.6165 60.1215 0.0000 0.0000 0.0000
# 3 53.0684 60.1215 86.5390 0.0000 0.0000 0.0000
# 4 0.0000 0.0000 0.0000 24.3078 0.0000 0.0000
# 5 0.0000 0.0000 0.0000 0.0000 1.8925 0.0000
# 6 0.0000 0.0000 0.0000 0.0000 0.0000 41.3456
#
#
#
# Elastic Compliance Matrix: (Units=1/GPa)
#
#
# Indices 1 2 3 4 5 6 
#
# 1 0.020418 -0.002259 -0.010952 0.000000 0.000000 0.000000
# 2 -0.002259 0.005254 -0.002265 0.000000 0.000000 0.000000
# 3 -0.010952 -0.002265 0.019845 0.000000 0.000000 0.000000
# 4 0.000000 0.000000 0.000000 0.041139 0.000000 0.000000
# 5 0.000000 0.000000 0.000000 0.000000 0.528392 0.000000
# 6 0.000000 0.000000 0.000000 0.000000 0.000000 0.024186
#
#
# Mechanical properties :
#
#
# Convention : Reuss Voigt Hill
#
# Bulk Modulus (GPa) = 68.65321 84.05143 76.35232
# Shear Modulus (GPa) = 7.40696 29.50587 18.45642
#
# Velocity S-wave (km/s) = 1.94272 3.87744 3.06665
# Velocity P-wave (km/s) = 6.32567 7.92931 7.17245
#
# Compressibility (1/GPa) = 0.01456596
#
# Stress axis : x y z
#
# Youngs Moduli (GPa) = 48.97579 190.33934 50.39162
#
# Poissons Ratio (x) = 0.43002 0.55187
# Poissons Ratio (y) = 0.11065 0.11411
# Poissons Ratio (z) = 0.53636 0.43103
#
# Static dielectric constant tensor:
#      x y z
#    x 3.390010 0.000000 0.000000 
#    y 0.000000 3.886560 0.000000 
#    z 0.000000 0.000000 3.364980 
# 
# 
# High freq. dielectric constant tensor:
#      x y z
#    x 1.727170 0.000000 0.000000 
#    y 0.000000 1.822070 0.000000 
#    z 0.000000 0.000000 1.727850 
# 
# From -- ./inp_files/46324.got.cif
#   From: 2010.03.12/outbox.cif.g09.slc.cpg/sg68_24_cif.got.tgz:46324.got - 2010.04.10 23:14:56.
