data_PCOD8282157
_publ_section_title
;
Structure prediction by ZEFSAII (Michael W. Deem and Ramdas Pophale) SiO2 
 PCOD8282157
Probable space group: C C C A
;
_chemical_formula_sum "Si O2"
_cell_formula_units_Z 68
_cell_length_a 15.624122
_cell_length_b 9.085660
_cell_length_c 21.993705
_cell_angle_alpha 90.000000
_cell_angle_beta 90.000000
_cell_angle_gamma 90.000000
_cell_volume 3122.126517
_symmetry_space_group_name_H-M "C C C A"
_symmetry_group_IT_number 68
_space_group.IT_coordinate_system_code '2'
_symmetry_cell_setting 'orthorhombic'
loop_
_space_group_symop_operation_xyz
x,y,z
-x,1/2-y,z
x,1/2-y,1/2-z
-x,y,1/2-z
-x,-y,-z
x,1/2+y,-z
-x,1/2+y,1/2+z
x,-y,1/2+z
1/2+x,1/2+y,z
1/2-x,-y,z
1/2+x,-y,1/2-z
1/2-x,1/2+y,1/2-z
1/2-x,1/2-y,-z
1/2+x,y,-z
1/2-x,y,1/2+z
1/2+x,1/2-y,1/2+z
loop_
_atom_site_type_symbol
_atom_site_label
_atom_site_fract_x
_atom_site_fract_y
_atom_site_fract_z
Si Si1 0.646061 0.678113 0.951458
Si Si2 0.824615 0.298495 0.184255
Si Si3 0.637505 0.366859 0.163681
Si Si4 0.000000 0.250000 0.750000
Si Si5 0.347891 0.146389 0.935149
O O1 0.613917 0.795478 0.901292
O O2 0.608551 0.514102 0.942407
O O3 0.747413 0.654184 0.948829
O O4 0.611869 0.740346 0.015968
O O5 0.862039 0.250000 0.250000
O O6 0.721774 0.282104 0.187795
O O7 0.846404 0.460074 0.160162
O O8 0.866034 0.190509 0.134523
O O9 0.558780 0.352901 0.209059
#
# Coordination Sequence:
#
# PCOD8282157 Si02
#       5
#    16  16  16   4  16
#     4   9  17  31  53  86 116 156 192 249 297 360
#     4  10  20  35  59  90 118 156 200 257 292 358
#     4  10  22  36  58  83 123 157 205 241 305 355
#     4  12  24  40  58  88 124 170 192 248 304 376
#     4   9  17  29  55  86 120 145 198 250 305 336
#
# _framework density 21.780028000000001
#
# number of rings (size 3 to 8) (size 9 to 14) (size 15 to 20)
#    0.000    2.353    1.176    1.412    3.294    7.529 
#    0.000    0.588    0.000    5.647    0.000    0.000 
#    0.000    0.000    0.000    0.000    0.000    0.000 
#
# Total GULP energy -421399.837415 kJ/mol
# GULP energy per Si atom -12394.112865 kJ/mol
# Density = 2.173046 g / cm^3
# Si number density = 21.780028 Si / 1000 Ang^3
#
#
#
# Elastic Constant Matrix: (Units=GPa)
#
#
# Indices 1 2 3 4 5 6 
#
# 1 40.2287 13.3734 19.6704 0.0000 0.0000 0.0000
# 2 13.3734 163.3928 104.7548 0.0000 0.0000 0.0000
# 3 19.6704 104.7548 212.7464 0.0000 0.0000 0.0000
# 4 0.0000 0.0000 0.0000 41.6564 0.0000 0.0000
# 5 0.0000 0.0000 0.0000 0.0000 12.5492 0.0000
# 6 0.0000 0.0000 0.0000 0.0000 0.0000 8.3421
#
#
#
# Elastic Compliance Matrix: (Units=1/GPa)
#
#
# Indices 1 2 3 4 5 6 
#
# 1 0.026118 -0.000861 -0.001991 0.000000 0.000000 0.000000
# 2 -0.000861 0.008972 -0.004338 0.000000 0.000000 0.000000
# 3 -0.001991 -0.004338 0.007021 0.000000 0.000000 0.000000
# 4 0.000000 0.000000 0.000000 0.024006 0.000000 0.000000
# 5 0.000000 0.000000 0.000000 0.000000 0.079686 0.000000
# 6 0.000000 0.000000 0.000000 0.000000 0.000000 0.119874
#
#
# Mechanical properties :
#
#
# Convention : Reuss Voigt Hill
#
# Bulk Modulus (GPa) = 36.06231 76.88501 56.47366
# Shear Modulus (GPa) = 17.28310 31.08083 24.18196
#
# Velocity S-wave (km/s) = 2.82002 3.78171 3.33570
# Velocity P-wave (km/s) = 5.21506 7.37874 6.38915
#
# Compressibility (1/GPa) = 0.02772978
#
# Stress axis : x y z
#
# Youngs Moduli (GPa) = 38.28832 111.45820 142.43936
#
# Poissons Ratio (x) = 0.09601 0.28355
# Poissons Ratio (y) = 0.03298 0.61791
# Poissons Ratio (z) = 0.07622 0.48352
#
# Static dielectric constant tensor:
#      x y z
#    x 3.401120 0.000000 0.000000 
#    y 0.000000 3.979830 0.000000 
#    z 0.000000 0.000000 4.044040 
# 
# 
# High freq. dielectric constant tensor:
#      x y z
#    x 1.797600 0.000000 0.000000 
#    y 0.000000 1.861550 0.000000 
#    z 0.000000 0.000000 1.867750 
# 
# From -- ./inp_files/39198.got.cif
#   From: 2010.03.12/outbox.cif.g09.slc.cpg/sg68_20_cif.got.tgz:39198.got - 2010.04.10 23:14:56.
