data_PCOD8282880
_publ_section_title
;
Structure prediction by ZEFSAII (Michael W. Deem and Ramdas Pophale) SiO2 
 PCOD8282880
Probable space group: C C C A
;
_chemical_formula_sum "Si O2"
_cell_formula_units_Z 104
_cell_length_a 21.827947
_cell_length_b 26.367261
_cell_length_c 8.605891
_cell_angle_alpha 90.000000
_cell_angle_beta 90.000000
_cell_angle_gamma 90.000000
_cell_volume 4953.061835
_symmetry_space_group_name_H-M "C C C A"
_symmetry_group_IT_number 68
_space_group.IT_coordinate_system_code '2'
_symmetry_cell_setting 'orthorhombic'
loop_
_space_group_symop_operation_xyz
x,y,z
-x,1/2-y,z
x,1/2-y,1/2-z
-x,y,1/2-z
-x,-y,-z
x,1/2+y,-z
-x,1/2+y,1/2+z
x,-y,1/2+z
1/2+x,1/2+y,z
1/2-x,-y,z
1/2+x,-y,1/2-z
1/2-x,1/2+y,1/2-z
1/2-x,1/2-y,-z
1/2+x,y,-z
1/2-x,y,1/2+z
1/2+x,1/2-y,1/2+z
loop_
_atom_site_type_symbol
_atom_site_label
_atom_site_fract_x
_atom_site_fract_y
_atom_site_fract_z
Si Si1 0.463325 0.042024 0.406291
Si Si2 0.938313 0.614329 0.666094
Si Si3 0.691185 0.406985 0.122302
Si Si4 0.870279 0.540280 0.881207
Si Si5 0.772244 0.843174 0.103735
Si Si6 0.165867 0.302469 0.321536
Si Si7 0.250000 0.500000 0.234950
O O1 0.500000 0.053803 0.250000
O O2 0.455999 0.095923 0.492905
O O3 0.500000 0.000000 0.500000
O O4 0.395998 0.016847 0.392915
O O5 0.908215 0.564863 0.742490
O O6 0.891107 0.659993 0.672379
O O7 0.000000 0.632238 0.750000
O O8 0.681287 0.372432 0.277166
O O9 0.710475 0.463735 0.159313
O O10 0.627517 0.419031 0.027216
O O11 0.744588 0.382334 0.018995
O O12 0.797094 0.535663 0.858689
O O13 0.718279 0.818154 0.200954
O O14 0.808128 0.800727 0.999724
O O15 0.141022 0.250000 0.250000
#
# Coordination Sequence:
#
# PCOD8282880 Si02
#       7
#    16  16  16  16  16  16   8
#     4  12  24  43  65  91 131 186 235 274 329 409
#     4  12  25  45  67  94 132 182 236 285 338 412
#     4  11  21  36  55  92 136 182 218 271 332 418
#     4  12  22  38  60  92 137 180 224 275 331 407
#     4  10  22  40  65  94 135 173 219 280 362 420
#     4  11  24  45  71 101 131 171 230 292 362 423
#     4  12  24  32  54  94 140 178 218 266 338 404
#
# _framework density 20.997112000000001
#
# number of rings (size 3 to 8) (size 9 to 14) (size 15 to 20)
#    0.000    0.615    6.154    2.769    2.154    0.308 
#    0.000    0.000    0.000    0.000    0.000    1.077 
#    0.000    0.000    0.000    0.000    0.000    0.000 
#
# Total GULP energy -644306.069372 kJ/mol
# GULP energy per Si atom -12390.501334 kJ/mol
# Density = 2.094932 g / cm^3
# Si number density = 20.997112 Si / 1000 Ang^3
#
#
#
# Elastic Constant Matrix: (Units=GPa)
#
#
# Indices 1 2 3 4 5 6 
#
# 1 96.0503 17.3075 41.6661 0.0000 0.0000 0.0000
# 2 17.3075 81.0013 43.1101 0.0000 0.0000 0.0000
# 3 41.6661 43.1101 141.7265 0.0000 0.0000 0.0000
# 4 0.0000 0.0000 0.0000 31.6847 0.0000 0.0000
# 5 0.0000 0.0000 0.0000 0.0000 43.7265 0.0000
# 6 0.0000 0.0000 0.0000 0.0000 0.0000 -11.2079
#
#
#
# Elastic Compliance Matrix: (Units=1/GPa)
#
#
# Indices 1 2 3 4 5 6 
#
# 1 0.011978 -0.000818 -0.003273 0.000000 0.000000 0.000000
# 2 -0.000818 0.014786 -0.004257 0.000000 0.000000 0.000000
# 3 -0.003273 -0.004257 0.009313 0.000000 0.000000 0.000000
# 4 0.000000 0.000000 0.000000 0.031561 0.000000 0.000000
# 5 0.000000 0.000000 0.000000 0.000000 0.022869 0.000000
# 6 0.000000 0.000000 0.000000 0.000000 0.000000 -0.089223
#
#
# Mechanical properties :
#
#
# Convention : Reuss Voigt Hill
#
# Bulk Modulus (GPa) = 51.59422 58.10506 54.84964
# Shear Modulus (GPa) = 204.57983 27.28696 115.93339
#
# Velocity S-wave (km/s) = 9.88149 3.60885 7.43867
# Velocity P-wave (km/s) = 12.44256 6.71551 9.99788
#
# Compressibility (1/GPa) = 0.01938202
#
# Stress axis : x y z
#
# Youngs Moduli (GPa) = 83.48465 67.63193 107.37725
#
# Poissons Ratio (x) = 0.05529 0.35142
# Poissons Ratio (y) = 0.06825 0.45713
# Poissons Ratio (z) = 0.27323 0.28792
#
# Static dielectric constant tensor:
#      x y z
#    x 3.575190 0.000000 0.000000 
#    y 0.000000 3.879670 0.000000 
#    z 0.000000 0.000000 4.076070 
# 
# 
# High freq. dielectric constant tensor:
#      x y z
#    x 1.812450 0.000000 0.000000 
#    y 0.000000 1.792220 0.000000 
#    z 0.000000 0.000000 1.845330 
# 
# From -- ./inp_files/7381.got.cif
#   From: 2010.03.12/outbox.cif.g09.slc.cpg/sg68_4_cif.got.tgz:7381.got - 2010.04.10 23:14:56.
