data_PCOD8282614
_publ_section_title
;
Structure prediction by ZEFSAII (Michael W. Deem and Ramdas Pophale) SiO2 
 PCOD8282614
Probable space group: C C C A
;
_chemical_formula_sum "Si O2"
_cell_formula_units_Z 128
_cell_length_a 24.718736
_cell_length_b 23.799130
_cell_length_c 11.454899
_cell_angle_alpha 90.000000
_cell_angle_beta 90.000000
_cell_angle_gamma 90.000000
_cell_volume 6738.738517
_symmetry_space_group_name_H-M "C C C A"
_symmetry_group_IT_number 68
_space_group.IT_coordinate_system_code '2'
_symmetry_cell_setting 'orthorhombic'
loop_
_space_group_symop_operation_xyz
x,y,z
-x,1/2-y,z
x,1/2-y,1/2-z
-x,y,1/2-z
-x,-y,-z
x,1/2+y,-z
-x,1/2+y,1/2+z
x,-y,1/2+z
1/2+x,1/2+y,z
1/2-x,-y,z
1/2+x,-y,1/2-z
1/2-x,1/2+y,1/2-z
1/2-x,1/2-y,-z
1/2+x,y,-z
1/2-x,y,1/2+z
1/2+x,1/2-y,1/2+z
loop_
_atom_site_type_symbol
_atom_site_label
_atom_site_fract_x
_atom_site_fract_y
_atom_site_fract_z
Si Si1 0.406002 0.123421 0.910199
Si Si2 0.595642 0.691766 0.187769
Si Si3 0.506595 0.688789 0.004812
Si Si4 0.685734 0.694170 0.008289
Si Si5 0.638449 0.811735 0.741814
Si Si6 0.446480 0.391577 0.178511
Si Si7 0.467470 0.990092 0.376674
Si Si8 0.305111 0.322105 0.475007
O O1 0.407176 0.141063 0.776888
O O2 0.447475 0.162065 0.983008
O O3 0.425809 0.059341 0.908583
O O4 0.345888 0.133102 0.964206
O O5 0.610550 0.750000 0.250000
O O6 0.537009 0.697699 0.127509
O O7 0.642454 0.671786 0.100237
O O8 0.500000 0.750000 0.944806
O O9 0.545726 0.649899 0.929731
O O10 0.742321 0.660400 0.018546
O O11 0.665737 0.678838 0.881155
O O12 0.689631 0.760865 0.033988
O O13 0.610386 0.750000 0.750000
O O14 0.596425 0.862333 0.764179
O O15 0.684277 0.816726 0.838167
O O16 0.500000 0.399870 0.250000
O O17 0.430283 0.454222 0.138278
O O18 0.500000 0.979042 0.250000
O O19 0.500000 0.000000 0.500000
#
# Coordination Sequence:
#
# PCOD8282614 Si02
#       8
#    16  16  16  16  16  16  16  16
#     4  12  24  39  62  91 125 163 216 253 316 376
#     4  12  22  35  57  91 130 165 200 256 319 377
#     4  12  22  34  56  93 129 160 198 257 320 388
#     4  10  21  39  58  91 128 161 206 251 321 376
#     4  10  22  37  58  90 123 157 202 252 314 379
#     4  11  24  38  60  88 126 165 202 252 314 380
#     4  11  25  45  64  90 127 175 220 259 312 383
#     4  10  22  37  62  89 123 167 206 258 307 386
#
# _framework density 18.994653
#
# number of rings (size 3 to 8) (size 9 to 14) (size 15 to 20)
#    0.000    1.000    5.000    1.875    7.000    0.500 
#    0.000    0.000    0.000    0.750    0.000    0.000 
#    0.000    0.000    0.000    0.000    0.000    0.000 
#
# Total GULP energy -793116.184646 kJ/mol
# GULP energy per Si atom -12392.440385 kJ/mol
# Density = 1.895142 g / cm^3
# Si number density = 18.994653 Si / 1000 Ang^3
#
#
#
# Elastic Constant Matrix: (Units=GPa)
#
#
# Indices 1 2 3 4 5 6 
#
# 1 100.8441 47.9265 17.0786 0.0000 0.0000 0.0000
# 2 47.9265 138.4158 28.2458 0.0000 0.0000 0.0000
# 3 17.0786 28.2458 75.6373 0.0000 0.0000 0.0000
# 4 0.0000 0.0000 0.0000 21.3116 0.0000 0.0000
# 5 0.0000 0.0000 0.0000 0.0000 13.9416 0.0000
# 6 0.0000 0.0000 0.0000 0.0000 0.0000 32.1247
#
#
#
# Elastic Compliance Matrix: (Units=1/GPa)
#
#
# Indices 1 2 3 4 5 6 
#
# 1 0.011978 -0.003892 -0.001251 0.000000 0.000000 0.000000
# 2 -0.003892 0.009085 -0.002514 0.000000 0.000000 0.000000
# 3 -0.001251 -0.002514 0.014442 0.000000 0.000000 0.000000
# 4 0.000000 0.000000 0.000000 0.046923 0.000000 0.000000
# 5 0.000000 0.000000 0.000000 0.000000 0.071728 0.000000
# 6 0.000000 0.000000 0.000000 0.000000 0.000000 0.031129
#
#
# Mechanical properties :
#
#
# Convention : Reuss Voigt Hill
#
# Bulk Modulus (GPa) = 49.52660 55.71099 52.61879
# Shear Modulus (GPa) = 24.11623 28.25200 26.18412
#
# Velocity S-wave (km/s) = 3.56706 3.86082 3.71684
# Velocity P-wave (km/s) = 6.56474 7.01912 6.79573
#
# Compressibility (1/GPa) = 0.02019117
#
# Stress axis : x y z
#
# Youngs Moduli (GPa) = 83.48719 110.06867 69.24111
#
# Poissons Ratio (x) = 0.42839 0.08663
# Poissons Ratio (y) = 0.32493 0.17407
# Poissons Ratio (z) = 0.10445 0.27671
#
# Static dielectric constant tensor:
#      x y z
#    x 3.437190 0.000000 0.000000 
#    y 0.000000 3.621120 0.000000 
#    z 0.000000 0.000000 4.090990 
# 
# 
# High freq. dielectric constant tensor:
#      x y z
#    x 1.724500 0.000000 0.000000 
#    y 0.000000 1.713410 0.000000 
#    z 0.000000 0.000000 1.758900 
# 
# From -- ./inp_files/16692.got.cif
#   From: 2010.03.12/outbox.cif.g09.slc.cpg/sg68_9_cif.got.tgz:16692.got - 2010.04.10 23:14:56.
