data_PCOD8282069
_publ_section_title
;
Structure prediction by ZEFSAII (Michael W. Deem and Ramdas Pophale) SiO2 
 PCOD8282069
Probable space group: C C C A
;
_chemical_formula_sum "Si O2"
_cell_formula_units_Z 52
_cell_length_a 13.273578
_cell_length_b 5.821562
_cell_length_c 30.544499
_cell_angle_alpha 90.000000
_cell_angle_beta 90.000000
_cell_angle_gamma 90.000000
_cell_volume 2360.263767
_symmetry_space_group_name_H-M "C C C A"
_symmetry_group_IT_number 68
_space_group.IT_coordinate_system_code '2'
_symmetry_cell_setting 'orthorhombic'
loop_
_space_group_symop_operation_xyz
x,y,z
-x,1/2-y,z
x,1/2-y,1/2-z
-x,y,1/2-z
-x,-y,-z
x,1/2+y,-z
-x,1/2+y,1/2+z
x,-y,1/2+z
1/2+x,1/2+y,z
1/2-x,-y,z
1/2+x,-y,1/2-z
1/2-x,1/2+y,1/2-z
1/2-x,1/2-y,-z
1/2+x,y,-z
1/2-x,y,1/2+z
1/2+x,1/2-y,1/2+z
loop_
_atom_site_type_symbol
_atom_site_label
_atom_site_fract_x
_atom_site_fract_y
_atom_site_fract_z
Si Si1 0.250000 0.500000 0.366237
Si Si2 0.855442 0.884500 0.178171
Si Si3 0.000000 0.750000 0.250000
Si Si4 0.750000 0.500000 0.475472
Si Si5 0.894781 0.643807 0.906833
O O1 0.168090 0.622082 0.334858
O O2 0.191905 0.329892 0.398254
O O3 0.929293 0.906978 0.219482
O O4 0.750000 0.000000 0.190600
O O5 0.912067 0.000327 0.137359
O O6 0.750000 0.250000 0.500000
O O7 0.851480 0.512759 0.445913
O O8 0.000000 0.750000 0.922248
#
# Coordination Sequence:
#
# PCOD8282069 Si02
#       5
#     8  16   4   8  16
#     4  10  19  44  69  94 138 190 234 285 358 443
#     4  10  23  42  66  99 137 188 232 296 361 439
#     4  12  24  40  66 110 132 178 248 292 358 430
#     4  12  27  48  73 114 152 190 252 321 366 455
#     4  11  23  45  73 100 137 193 235 292 383 437
#
# _framework density 22.031434000000001
#
# number of rings (size 3 to 8) (size 9 to 14) (size 15 to 20)
#    0.000    1.231    4.615    2.769    2.154    1.231 
#    0.000    6.154    0.000    0.000    0.000    0.000 
#    0.000    0.000    0.000    0.000    0.000    0.000 
#
# Total GULP energy -322292.015808 kJ/mol
# GULP energy per Si atom -12395.846762 kJ/mol
# Density = 2.198129 g / cm^3
# Si number density = 22.031434 Si / 1000 Ang^3
#
#
#
# Elastic Constant Matrix: (Units=GPa)
#
#
# Indices 1 2 3 4 5 6 
#
# 1 139.4970 33.8645 75.1694 0.0000 0.0000 0.0000
# 2 33.8645 117.3380 57.3949 0.0000 0.0000 0.0000
# 3 75.1694 57.3949 147.2888 0.0000 0.0000 0.0000
# 4 0.0000 0.0000 0.0000 35.0027 0.0000 0.0000
# 5 0.0000 0.0000 0.0000 0.0000 17.9371 0.0000
# 6 0.0000 0.0000 0.0000 0.0000 0.0000 31.1384
#
#
#
# Elastic Compliance Matrix: (Units=1/GPa)
#
#
# Indices 1 2 3 4 5 6 
#
# 1 0.009909 -0.000477 -0.004871 0.000000 0.000000 0.000000
# 2 -0.000477 0.010552 -0.003868 0.000000 0.000000 0.000000
# 3 -0.004871 -0.003868 0.010783 0.000000 0.000000 0.000000
# 4 0.000000 0.000000 0.000000 0.028569 0.000000 0.000000
# 5 0.000000 0.000000 0.000000 0.000000 0.055751 0.000000
# 6 0.000000 0.000000 0.000000 0.000000 0.000000 0.032115
#
#
# Mechanical properties :
#
#
# Convention : Reuss Voigt Hill
#
# Bulk Modulus (GPa) = 78.05957 81.88682 79.97319
# Shear Modulus (GPa) = 29.34558 32.66197 31.00377
#
# Velocity S-wave (km/s) = 3.65360 3.85452 3.75541
# Velocity P-wave (km/s) = 7.30112 7.55372 7.42849
#
# Compressibility (1/GPa) = 0.01281073
#
# Stress axis : x y z
#
# Youngs Moduli (GPa) = 100.91387 94.76578 92.73880
#
# Poissons Ratio (x) = 0.04522 0.45177
# Poissons Ratio (y) = 0.04815 0.35876
# Poissons Ratio (z) = 0.49159 0.36660
#
# Static dielectric constant tensor:
#      x y z
#    x 3.937230 0.000000 0.000000 
#    y 0.000000 4.222840 0.000000 
#    z 0.000000 0.000000 3.969820 
# 
# 
# High freq. dielectric constant tensor:
#      x y z
#    x 1.872530 0.000000 0.000000 
#    y 0.000000 1.866580 0.000000 
#    z 0.000000 0.000000 1.863540 
# 
# From -- ./inp_files/55068.got.cif
#   From: 2010.03.12/outbox.cif.g09.slc.cpg/sg68_28_cif.got.tgz:55068.got - 2010.04.10 23:14:56.
