data_PCOD8282078
_publ_section_title
;
Structure prediction by ZEFSAII (Michael W. Deem and Ramdas Pophale) SiO2 
 PCOD8282078
Probable space group: C C C A
;
_chemical_formula_sum "Si O2"
_cell_formula_units_Z 88
_cell_length_a 16.174029
_cell_length_b 10.159709
_cell_length_c 27.102102
_cell_angle_alpha 90.000000
_cell_angle_beta 90.000000
_cell_angle_gamma 90.000000
_cell_volume 4453.510307
_symmetry_space_group_name_H-M "C C C A"
_symmetry_group_IT_number 68
_space_group.IT_coordinate_system_code '2'
_symmetry_cell_setting 'orthorhombic'
loop_
_space_group_symop_operation_xyz
x,y,z
-x,1/2-y,z
x,1/2-y,1/2-z
-x,y,1/2-z
-x,-y,-z
x,1/2+y,-z
-x,1/2+y,1/2+z
x,-y,1/2+z
1/2+x,1/2+y,z
1/2-x,-y,z
1/2+x,-y,1/2-z
1/2-x,1/2+y,1/2-z
1/2-x,1/2-y,-z
1/2+x,y,-z
1/2-x,y,1/2+z
1/2+x,1/2-y,1/2+z
loop_
_atom_site_type_symbol
_atom_site_label
_atom_site_fract_x
_atom_site_fract_y
_atom_site_fract_z
Si Si1 0.026171 0.897061 0.883762
Si Si2 0.528185 0.110141 0.305312
Si Si3 0.299033 0.201078 0.903867
Si Si4 0.374044 0.027171 0.561895
Si Si5 0.694250 0.120058 0.348436
Si Si6 0.250000 0.000000 0.478244
O O1 0.124582 0.897555 0.892591
O O2 0.000000 0.750000 0.868454
O O3 0.973362 0.944945 0.932619
O O4 0.005513 0.991425 0.838341
O O5 0.500000 0.250000 0.326981
O O6 0.500000 0.083742 0.250000
O O7 0.627183 0.125467 0.305236
O O8 0.327530 0.339670 0.924696
O O9 0.244318 0.241265 0.855478
O O10 0.242261 0.129196 0.944180
O O11 0.336741 0.988133 0.508695
O O12 0.350473 0.911160 0.599385
O O13 0.750000 0.000000 0.331289
#
# Coordination Sequence:
#
# PCOD8282078 Si02
#       6
#    16  16  16  16  16   8
#     4   9  20  39  59  81 114 156 196 242 295 350
#     4  10  22  40  62  87 118 146 186 242 306 365
#     4  10  20  32  54  82 113 151 195 244 284 339
#     4   9  18  35  53  74 114 157 191 235 294 338
#     4   9  18  38  62  78 113 161 186 225 306 358
#     4  12  20  28  54  84 116 148 206 246 276 340
#
# _framework density 19.759694
#
# number of rings (size 3 to 8) (size 9 to 14) (size 15 to 20)
#    0.000    2.364    2.727    1.636    2.545    1.091 
#    0.000    3.636    0.000    0.000    0.000    0.000 
#    0.000    0.000    0.000    0.000    0.000    0.000 
#
# Total GULP energy -545100.757795 kJ/mol
# GULP energy per Si atom -12388.653586 kJ/mol
# Density = 1.971472 g / cm^3
# Si number density = 19.759694 Si / 1000 Ang^3
#
#
#
# Elastic Constant Matrix: (Units=GPa)
#
#
# Indices 1 2 3 4 5 6 
#
# 1 144.5743 39.7008 59.5613 0.0000 0.0000 0.0000
# 2 39.7008 82.1352 37.6380 0.0000 0.0000 0.0000
# 3 59.5613 37.6380 83.8920 0.0000 0.0000 0.0000
# 4 0.0000 0.0000 0.0000 30.3101 0.0000 0.0000
# 5 0.0000 0.0000 0.0000 0.0000 33.1700 0.0000
# 6 0.0000 0.0000 0.0000 0.0000 0.0000 27.8031
#
#
#
# Elastic Compliance Matrix: (Units=1/GPa)
#
#
# Indices 1 2 3 4 5 6 
#
# 1 0.010030 -0.001995 -0.006226 0.000000 0.000000 0.000000
# 2 -0.001995 0.015723 -0.005638 0.000000 0.000000 0.000000
# 3 -0.006226 -0.005638 0.018869 0.000000 0.000000 0.000000
# 4 0.000000 0.000000 0.000000 0.032992 0.000000 0.000000
# 5 0.000000 0.000000 0.000000 0.000000 0.030148 0.000000
# 6 0.000000 0.000000 0.000000 0.000000 0.000000 0.035967
#
#
# Mechanical properties :
#
#
# Convention : Reuss Voigt Hill
#
# Bulk Modulus (GPa) = 59.15331 64.93353 62.04342
# Shear Modulus (GPa) = 28.23574 29.83673 29.03624
#
# Velocity S-wave (km/s) = 3.78425 3.89006 3.83752
# Velocity P-wave (km/s) = 7.00681 7.28764 7.14861
#
# Compressibility (1/GPa) = 0.01690523
#
# Stress axis : x y z
#
# Youngs Moduli (GPa) = 99.70559 63.60216 52.99569
#
# Poissons Ratio (x) = 0.12689 0.32993
# Poissons Ratio (y) = 0.19891 0.29877
# Poissons Ratio (z) = 0.62073 0.35856
#
# Static dielectric constant tensor:
#      x y z
#    x 4.078790 0.000000 0.000000 
#    y 0.000000 3.715290 0.000000 
#    z 0.000000 0.000000 3.215240 
# 
# 
# High freq. dielectric constant tensor:
#      x y z
#    x 1.779550 0.000000 0.000000 
#    y 0.000000 1.775510 0.000000 
#    z 0.000000 0.000000 1.728050 
# 
# From -- ./inp_files/50878.got.cif
#   From: 2010.03.12/outbox.cif.g09.slc.cpg/sg68_26_cif.got.tgz:50878.got - 2010.04.10 23:14:56.
