data_PCOD8282498
_publ_section_title
;
Structure prediction by ZEFSAII (Michael W. Deem and Ramdas Pophale) SiO2 
 PCOD8282498
Probable space group: C C C A
;
_chemical_formula_sum "Si O2"
_cell_formula_units_Z 80
_cell_length_a 16.844927
_cell_length_b 24.423141
_cell_length_c 9.852724
_cell_angle_alpha 90.000000
_cell_angle_beta 90.000000
_cell_angle_gamma 90.000000
_cell_volume 4053.470038
_symmetry_space_group_name_H-M "C C C A"
_symmetry_group_IT_number 68
_space_group.IT_coordinate_system_code '2'
_symmetry_cell_setting 'orthorhombic'
loop_
_space_group_symop_operation_xyz
x,y,z
-x,1/2-y,z
x,1/2-y,1/2-z
-x,y,1/2-z
-x,-y,-z
x,1/2+y,-z
-x,1/2+y,1/2+z
x,-y,1/2+z
1/2+x,1/2+y,z
1/2-x,-y,z
1/2+x,-y,1/2-z
1/2-x,1/2+y,1/2-z
1/2-x,1/2-y,-z
1/2+x,y,-z
1/2-x,y,1/2+z
1/2+x,1/2-y,1/2+z
loop_
_atom_site_type_symbol
_atom_site_label
_atom_site_fract_x
_atom_site_fract_y
_atom_site_fract_z
Si Si1 0.912148 0.747396 0.911433
Si Si2 0.314087 0.142713 0.921619
Si Si3 0.838688 0.520528 0.938574
Si Si4 0.172514 0.645756 0.881040
Si Si5 0.585122 0.036670 0.821961
O O1 0.917991 0.750000 0.750000
O O2 0.868729 0.693302 0.970861
O O3 0.864711 0.801269 0.953856
O O4 0.000000 0.750000 0.975430
O O5 0.359386 0.085356 0.935880
O O6 0.288265 0.156789 0.766828
O O7 0.239095 0.129040 0.013899
O O8 0.750000 0.500000 0.978975
O O9 0.854583 0.505126 0.781171
O O10 0.905874 0.495958 0.037168
O O11 0.106374 0.599345 0.858791
O O12 0.500000 0.034687 0.750000
#
# Coordination Sequence:
#
# PCOD8282498 Si02
#       5
#    16  16  16  16  16
#     4   9  19  35  59  86 115 149 194 246 292 348
#     4  10  21  36  60  87 112 154 195 240 294 350
#     4  11  22  39  60  86 121 156 200 242 297 362
#     4  10  21  36  61  84 115 148 197 242 288 349
#     4  11  24  38  59  89 120 158 198 247 301 356
#
# _framework density 19.736174999999999
#
# number of rings (size 3 to 8) (size 9 to 14) (size 15 to 20)
#    0.000    1.800    2.000    1.800   11.200    0.000 
#    0.000    0.000    0.000    1.200    0.000    0.000 
#    0.000    0.000    0.000    0.000    0.000    0.000 
#
# Total GULP energy -495576.215653 kJ/mol
# GULP energy per Si atom -12389.405391 kJ/mol
# Density = 1.969126 g / cm^3
# Si number density = 19.736175 Si / 1000 Ang^3
#
#
#
# Elastic Constant Matrix: (Units=GPa)
#
#
# Indices 1 2 3 4 5 6 
#
# 1 81.5799 33.4314 20.4624 0.0000 0.0000 0.0000
# 2 33.4314 124.5289 41.8365 0.0000 0.0000 0.0000
# 3 20.4624 41.8365 59.3623 0.0000 0.0000 0.0000
# 4 0.0000 0.0000 0.0000 19.5540 0.0000 0.0000
# 5 0.0000 0.0000 0.0000 0.0000 24.1295 0.0000
# 6 0.0000 0.0000 0.0000 0.0000 0.0000 27.2314
#
#
#
# Elastic Compliance Matrix: (Units=1/GPa)
#
#
# Indices 1 2 3 4 5 6 
#
# 1 0.014139 -0.002828 -0.002881 0.000000 0.000000 0.000000
# 2 -0.002828 0.011087 -0.006839 0.000000 0.000000 0.000000
# 3 -0.002881 -0.006839 0.022659 0.000000 0.000000 0.000000
# 4 0.000000 0.000000 0.000000 0.051141 0.000000 0.000000
# 5 0.000000 0.000000 0.000000 0.000000 0.041443 0.000000
# 6 0.000000 0.000000 0.000000 0.000000 0.000000 0.036722
#
#
# Mechanical properties :
#
#
# Convention : Reuss Voigt Hill
#
# Bulk Modulus (GPa) = 43.87986 50.77017 47.32501
# Shear Modulus (GPa) = 23.82277 25.49902 24.66090
#
# Velocity S-wave (km/s) = 3.47805 3.59833 3.53870
# Velocity P-wave (km/s) = 6.19763 6.56081 6.38180
#
# Compressibility (1/GPa) = 0.02278950
#
# Stress axis : x y z
#
# Youngs Moduli (GPa) = 70.72417 90.19480 44.13334
#
# Poissons Ratio (x) = 0.25508 0.12714
# Poissons Ratio (y) = 0.20001 0.30183
# Poissons Ratio (z) = 0.20374 0.61684
#
# Static dielectric constant tensor:
#      x y z
#    x 3.475980 0.000000 0.000000 
#    y 0.000000 3.764940 0.000000 
#    z 0.000000 0.000000 3.556880 
# 
# 
# High freq. dielectric constant tensor:
#      x y z
#    x 1.757910 0.000000 0.000000 
#    y 0.000000 1.780390 0.000000 
#    z 0.000000 0.000000 1.753160 
# 
# From -- ./inp_files/13181.got.cif
#   From: 2010.03.12/outbox.cif.g09.slc.cpg/sg68_7_cif.got.tgz:13181.got - 2010.04.10 23:14:56.
