data_PCOD8282039
_publ_section_title
;
Structure prediction by ZEFSAII (Michael W. Deem and Ramdas Pophale) SiO2 
 PCOD8282039
Probable space group: C C C A
;
_chemical_formula_sum "Si O2"
_cell_formula_units_Z 92
_cell_length_a 17.047889
_cell_length_b 14.818534
_cell_length_c 18.117809
_cell_angle_alpha 90.000000
_cell_angle_beta 90.000000
_cell_angle_gamma 90.000000
_cell_volume 4577.006476
_symmetry_space_group_name_H-M "C C C A"
_symmetry_group_IT_number 68
_space_group.IT_coordinate_system_code '2'
_symmetry_cell_setting 'orthorhombic'
loop_
_space_group_symop_operation_xyz
x,y,z
-x,1/2-y,z
x,1/2-y,1/2-z
-x,y,1/2-z
-x,-y,-z
x,1/2+y,-z
-x,1/2+y,1/2+z
x,-y,1/2+z
1/2+x,1/2+y,z
1/2-x,-y,z
1/2+x,-y,1/2-z
1/2-x,1/2+y,1/2-z
1/2-x,1/2-y,-z
1/2+x,y,-z
1/2-x,y,1/2+z
1/2+x,1/2-y,1/2+z
loop_
_atom_site_type_symbol
_atom_site_label
_atom_site_fract_x
_atom_site_fract_y
_atom_site_fract_z
Si Si1 0.827693 0.042173 0.668217
Si Si2 0.250000 0.500000 0.807694
Si Si3 0.500000 0.250000 0.750000
Si Si4 0.895597 0.165788 0.553137
Si Si5 0.953435 0.893126 0.639108
Si Si6 0.074161 0.863915 0.027870
Si Si7 0.378042 0.053593 0.587770
O O1 0.850165 0.132819 0.625643
O O2 0.750000 0.000000 0.628913
O O3 0.804990 0.062580 0.754109
O O4 0.901010 0.974810 0.667350
O O5 0.304759 0.436535 0.857472
O O6 0.445368 0.311828 0.697646
O O7 0.883757 0.273062 0.554806
O O8 0.860527 0.122018 0.478957
O O9 0.985574 0.133694 0.557709
O O10 0.923626 0.859275 0.560349
O O11 0.043675 0.923581 0.632908
O O12 0.118993 0.951541 0.056677
#
# Coordination Sequence:
#
# PCOD8282039 Si02
#       7
#    16   8   4  16  16  16  16
#     4  10  22  41  59  90 129 174 206 260 332 390
#     4  10  26  36  60  88 124 176 220 248 324 396
#     4  12  24  32  68 100 130 164 216 252 344 396
#     4  10  19  38  67  94 127 157 210 277 319 383
#     4  11  20  41  63  96 127 166 205 277 323 386
#     4  10  20  36  70 103 115 157 232 260 323 388
#     4  11  20  41  65  93 126 168 214 269 320 381
#
# _framework density 20.100473999999998
#
# number of rings (size 3 to 8) (size 9 to 14) (size 15 to 20)
#    0.522    1.043    3.478    4.174    1.217    0.000 
#    0.000    7.826    0.000    2.087    0.000    0.000 
#    0.000    0.000    0.000    0.000    0.000    0.000 
#
# Total GULP energy -570273.875692 kJ/mol
# GULP energy per Si atom -12397.258167 kJ/mol
# Density = 2.005472 g / cm^3
# Si number density = 20.100474 Si / 1000 Ang^3
#
#
#
# Elastic Constant Matrix: (Units=GPa)
#
#
# Indices 1 2 3 4 5 6 
#
# 1 65.0900 28.7165 48.5654 0.0000 0.0000 0.0000
# 2 28.7165 97.3157 51.7434 0.0000 0.0000 0.0000
# 3 48.5654 51.7434 118.2580 0.0000 0.0000 0.0000
# 4 0.0000 0.0000 0.0000 18.7341 0.0000 0.0000
# 5 0.0000 0.0000 0.0000 0.0000 42.5351 0.0000
# 6 0.0000 0.0000 0.0000 0.0000 0.0000 8.9712
#
#
#
# Elastic Compliance Matrix: (Units=1/GPa)
#
#
# Indices 1 2 3 4 5 6 
#
# 1 0.022523 -0.002252 -0.008264 0.000000 0.000000 0.000000
# 2 -0.002252 0.013616 -0.005033 0.000000 0.000000 0.000000
# 3 -0.008264 -0.005033 0.014052 0.000000 0.000000 0.000000
# 4 0.000000 0.000000 0.000000 0.053379 0.000000 0.000000
# 5 0.000000 0.000000 0.000000 0.000000 0.023510 0.000000
# 6 0.000000 0.000000 0.000000 0.000000 0.000000 0.111467
#
#
# Mechanical properties :
#
#
# Convention : Reuss Voigt Hill
#
# Bulk Modulus (GPa) = 52.37494 59.85717 56.11605
# Shear Modulus (GPa) = 18.11525 24.15732 21.13628
#
# Velocity S-wave (km/s) = 3.00531 3.47050 3.24625
# Velocity P-wave (km/s) = 6.17703 6.77516 6.48300
#
# Compressibility (1/GPa) = 0.01909310
#
# Stress axis : x y z
#
# Youngs Moduli (GPa) = 44.39885 73.44058 71.16349
#
# Poissons Ratio (x) = 0.16540 0.58811
# Poissons Ratio (y) = 0.09999 0.35816
# Poissons Ratio (z) = 0.36692 0.36962
#
# Static dielectric constant tensor:
#      x y z
#    x 3.592560 0.000000 0.000000 
#    y 0.000000 3.609360 0.000000 
#    z 0.000000 0.000000 3.705680 
# 
# 
# High freq. dielectric constant tensor:
#      x y z
#    x 1.772740 0.000000 0.000000 
#    y 0.000000 1.771460 0.000000 
#    z 0.000000 0.000000 1.789130 
# 
# From -- ./inp_files/39596.got.cif
#   From: 2010.03.12/outbox.cif.g09.slc.cpg/sg68_20_cif.got.tgz:39596.got - 2010.04.10 23:14:56.
