data_PCOD8282114
_publ_section_title
;
Structure prediction by ZEFSAII (Michael W. Deem and Ramdas Pophale) SiO2 
 PCOD8282114
Probable space group: C C C A
;
_chemical_formula_sum "Si O2"
_cell_formula_units_Z 80
_cell_length_a 17.608357
_cell_length_b 9.455851
_cell_length_c 24.726839
_cell_angle_alpha 90.000000
_cell_angle_beta 90.000000
_cell_angle_gamma 90.000000
_cell_volume 4117.068151
_symmetry_space_group_name_H-M "C C C A"
_symmetry_group_IT_number 68
_space_group.IT_coordinate_system_code '2'
_symmetry_cell_setting 'orthorhombic'
loop_
_space_group_symop_operation_xyz
x,y,z
-x,1/2-y,z
x,1/2-y,1/2-z
-x,y,1/2-z
-x,-y,-z
x,1/2+y,-z
-x,1/2+y,1/2+z
x,-y,1/2+z
1/2+x,1/2+y,z
1/2-x,-y,z
1/2+x,-y,1/2-z
1/2-x,1/2+y,1/2-z
1/2-x,1/2-y,-z
1/2+x,y,-z
1/2-x,y,1/2+z
1/2+x,1/2-y,1/2+z
loop_
_atom_site_type_symbol
_atom_site_label
_atom_site_fract_x
_atom_site_fract_y
_atom_site_fract_z
Si Si1 0.587436 0.296295 0.024189
Si Si2 0.175860 0.914127 0.238911
Si Si3 0.578367 0.565964 0.837657
Si Si4 0.583483 0.894690 0.860520
Si Si5 0.839929 0.991699 0.056511
O O1 0.500000 0.250000 0.018163
O O2 0.599626 0.402345 0.075350
O O3 0.636554 0.155903 0.030166
O O4 0.617426 0.378787 0.972289
O O5 0.192892 0.750000 0.250000
O O6 0.107932 0.968729 0.277708
O O7 0.152633 0.949912 0.176863
O O8 0.250000 0.000000 0.253983
O O9 0.572993 0.732576 0.845316
O O10 0.491843 0.512843 0.846506
O O11 0.635427 0.497279 0.881019
O O12 0.750000 0.000000 0.051404
#
# Coordination Sequence:
#
# PCOD8282114 Si02
#       5
#    16  16  16  16  16
#     4  11  21  38  59  83 118 151 199 235 280 347
#     4  10  20  34  57  82 111 142 181 234 287 336
#     4   9  17  34  57  80 106 143 193 228 274 340
#     4   9  17  33  57  81 103 145 192 228 265 338
#     4  11  22  36  58  86 118 151 191 243 292 334
#
# _framework density 19.431303
#
# number of rings (size 3 to 8) (size 9 to 14) (size 15 to 20)
#    0.000    2.000    4.000    2.400    0.000    3.200 
#    0.000    4.000    0.000    1.200    0.000    0.000 
#    0.000    0.000    0.000    0.000    0.000    0.000 
#
# Total GULP energy -495814.648790 kJ/mol
# GULP energy per Si atom -12395.366220 kJ/mol
# Density = 1.938708 g / cm^3
# Si number density = 19.431303 Si / 1000 Ang^3
#
#
#
# Elastic Constant Matrix: (Units=GPa)
#
#
# Indices 1 2 3 4 5 6 
#
# 1 132.3629 40.4533 43.3985 0.0000 0.0000 0.0000
# 2 40.4533 49.2152 29.3323 0.0000 0.0000 0.0000
# 3 43.3985 29.3323 87.1855 0.0000 0.0000 0.0000
# 4 0.0000 0.0000 0.0000 17.7150 0.0000 0.0000
# 5 0.0000 0.0000 0.0000 0.0000 23.7092 0.0000
# 6 0.0000 0.0000 0.0000 0.0000 0.0000 28.5583
#
#
#
# Elastic Compliance Matrix: (Units=1/GPa)
#
#
# Indices 1 2 3 4 5 6 
#
# 1 0.010664 -0.007007 -0.002951 0.000000 0.000000 0.000000
# 2 -0.007007 0.030019 -0.006612 0.000000 0.000000 0.000000
# 3 -0.002951 -0.006612 0.015163 0.000000 0.000000 0.000000
# 4 0.000000 0.000000 0.000000 0.056449 0.000000 0.000000
# 5 0.000000 0.000000 0.000000 0.000000 0.042178 0.000000
# 6 0.000000 0.000000 0.000000 0.000000 0.000000 0.035016
#
#
# Mechanical properties :
#
#
# Convention : Reuss Voigt Hill
#
# Bulk Modulus (GPa) = 44.03875 55.01465 49.52670
# Shear Modulus (GPa) = 21.72060 24.36848 23.04454
#
# Velocity S-wave (km/s) = 3.34700 3.54515 3.44750
# Velocity P-wave (km/s) = 6.13592 6.71798 6.43354
#
# Compressibility (1/GPa) = 0.02270728
#
# Stress axis : x y z
#
# Youngs Moduli (GPa) = 93.77423 33.31258 65.94974
#
# Poissons Ratio (x) = 0.23341 0.19461
# Poissons Ratio (y) = 0.65704 0.43604
# Poissons Ratio (z) = 0.27672 0.22025
#
# Static dielectric constant tensor:
#      x y z
#    x 3.867960 0.000000 0.000000 
#    y 0.000000 3.138610 0.000000 
#    z 0.000000 0.000000 3.860370 
# 
# 
# High freq. dielectric constant tensor:
#      x y z
#    x 1.765140 0.000000 0.000000 
#    y 0.000000 1.710900 0.000000 
#    z 0.000000 0.000000 1.766610 
# 
# From -- ./inp_files/44126.got.cif
#   From: 2010.03.12/outbox.cif.g09.slc.cpg/sg68_23_cif.got.tgz:44126.got - 2010.04.10 23:14:56.
