data_PCOD8282733
_publ_section_title
;
Structure prediction by ZEFSAII (Michael W. Deem and Ramdas Pophale) SiO2 
 PCOD8282733
Probable space group: C C C A
;
_chemical_formula_sum "Si O2"
_cell_formula_units_Z 72
_cell_length_a 13.123611
_cell_length_b 23.704343
_cell_length_c 11.263732
_cell_angle_alpha 90.000000
_cell_angle_beta 90.000000
_cell_angle_gamma 90.000000
_cell_volume 3503.995827
_symmetry_space_group_name_H-M "C C C A"
_symmetry_group_IT_number 68
_space_group.IT_coordinate_system_code '2'
_symmetry_cell_setting 'orthorhombic'
loop_
_space_group_symop_operation_xyz
x,y,z
-x,1/2-y,z
x,1/2-y,1/2-z
-x,y,1/2-z
-x,-y,-z
x,1/2+y,-z
-x,1/2+y,1/2+z
x,-y,1/2+z
1/2+x,1/2+y,z
1/2-x,-y,z
1/2+x,-y,1/2-z
1/2-x,1/2+y,1/2-z
1/2-x,1/2-y,-z
1/2+x,y,-z
1/2-x,y,1/2+z
1/2+x,1/2-y,1/2+z
loop_
_atom_site_type_symbol
_atom_site_label
_atom_site_fract_x
_atom_site_fract_y
_atom_site_fract_z
Si Si1 0.142047 0.634723 0.202594
Si Si2 0.854264 0.467727 0.632936
Si Si3 0.000000 0.547729 0.750000
Si Si4 0.854257 0.614593 0.910412
Si Si5 0.458289 0.812721 0.586486
O O1 0.133227 0.572312 0.253782
O O2 0.247353 0.640170 0.132672
O O3 0.127195 0.680805 0.309175
O O4 0.050289 0.643506 0.110052
O O5 0.750000 0.500000 0.649928
O O6 0.949588 0.510924 0.643224
O O7 0.847477 0.433547 0.510724
O O8 0.912047 0.587949 0.799795
O O9 0.911861 0.669710 0.960414
O O10 0.500000 0.750000 0.581417
#
# Coordination Sequence:
#
# PCOD8282733 Si02
#       5
#    16  16   8  16  16
#     4  10  21  42  64  95 128 165 219 261 323 394
#     4  11  23  38  62  92 131 177 208 251 327 392
#     4  12  24  42  59  94 137 176 212 274 316 382
#     4  11  25  38  65  96 128 166 224 270 310 400
#     4  10  23  45  70  92 126 173 217 278 336 378
#
# _framework density 20.547968999999998
#
# number of rings (size 3 to 8) (size 9 to 14) (size 15 to 20)
#    0.000    1.333    2.222    4.667    6.222    0.889 
#    0.000    2.778    0.000    0.000    0.000    0.000 
#    0.000    0.000    0.000    0.000    0.000    0.000 
#
# Total GULP energy -446321.457840 kJ/mol
# GULP energy per Si atom -12397.818273 kJ/mol
# Density = 2.050120 g / cm^3
# Si number density = 20.547969 Si / 1000 Ang^3
#
#
#
# Elastic Constant Matrix: (Units=GPa)
#
#
# Indices 1 2 3 4 5 6 
#
# 1 132.8159 57.7760 61.1999 0.0000 0.0000 0.0000
# 2 57.7760 105.0212 52.6690 0.0000 0.0000 0.0000
# 3 61.1999 52.6690 91.0409 0.0000 0.0000 0.0000
# 4 0.0000 0.0000 0.0000 3.0446 0.0000 0.0000
# 5 0.0000 0.0000 0.0000 0.0000 41.7935 0.0000
# 6 0.0000 0.0000 0.0000 0.0000 0.0000 39.7484
#
#
#
# Elastic Compliance Matrix: (Units=1/GPa)
#
#
# Indices 1 2 3 4 5 6 
#
# 1 0.011770 -0.003532 -0.005869 0.000000 0.000000 0.000000
# 2 -0.003532 0.014473 -0.005999 0.000000 0.000000 0.000000
# 3 -0.005869 -0.005999 0.018400 0.000000 0.000000 0.000000
# 4 0.000000 0.000000 0.000000 0.328451 0.000000 0.000000
# 5 0.000000 0.000000 0.000000 0.000000 0.023927 0.000000
# 6 0.000000 0.000000 0.000000 0.000000 0.000000 0.025158
#
#
# Mechanical properties :
#
#
# Convention : Reuss Voigt Hill
#
# Bulk Modulus (GPa) = 72.23406 74.68530 73.45968
# Shear Modulus (GPa) = 10.92674 27.39950 19.16312
#
# Velocity S-wave (km/s) = 2.30851 3.65559 3.05717
# Velocity P-wave (km/s) = 6.50660 7.36502 6.94908
#
# Compressibility (1/GPa) = 0.01384389
#
# Stress axis : x y z
#
# Youngs Moduli (GPa) = 84.96307 69.09225 54.34860
#
# Poissons Ratio (x) = 0.24402 0.31896
# Poissons Ratio (y) = 0.30007 0.32604
# Poissons Ratio (z) = 0.49863 0.41448
#
# Static dielectric constant tensor:
#      x y z
#    x 3.948560 0.000000 0.000000 
#    y 0.000000 3.731220 0.000000 
#    z 0.000000 0.000000 3.674400 
# 
# 
# High freq. dielectric constant tensor:
#      x y z
#    x 1.813580 0.000000 0.000000 
#    y 0.000000 1.797130 0.000000 
#    z 0.000000 0.000000 1.794590 
# 
# From -- ./inp_files/11847.got.cif
#   From: 2010.03.12/outbox.cif.g09.slc.cpg/sg68_6_cif.got.tgz:11847.got - 2010.04.10 23:14:56.
