data_PCOD8282218
_publ_section_title
;
Structure prediction by ZEFSAII (Michael W. Deem and Ramdas Pophale) SiO2 
 PCOD8282218
Probable space group: C C C A
;
_chemical_formula_sum "Si O2"
_cell_formula_units_Z 60
_cell_length_a 12.249409
_cell_length_b 16.598097
_cell_length_c 12.925737
_cell_angle_alpha 90.000000
_cell_angle_beta 90.000000
_cell_angle_gamma 90.000000
_cell_volume 2628.020503
_symmetry_space_group_name_H-M "C C C A"
_symmetry_group_IT_number 68
_space_group.IT_coordinate_system_code '2'
_symmetry_cell_setting 'orthorhombic'
loop_
_space_group_symop_operation_xyz
x,y,z
-x,1/2-y,z
x,1/2-y,1/2-z
-x,y,1/2-z
-x,-y,-z
x,1/2+y,-z
-x,1/2+y,1/2+z
x,-y,1/2+z
1/2+x,1/2+y,z
1/2-x,-y,z
1/2+x,-y,1/2-z
1/2-x,1/2+y,1/2-z
1/2-x,1/2-y,-z
1/2+x,y,-z
1/2-x,y,1/2+z
1/2+x,1/2-y,1/2+z
loop_
_atom_site_type_symbol
_atom_site_label
_atom_site_fract_x
_atom_site_fract_y
_atom_site_fract_z
Si Si1 0.138352 0.621777 0.142021
Si Si2 0.448334 0.368068 0.921980
Si Si3 0.332103 0.713514 0.084225
Si Si4 0.500000 0.506382 0.250000
Si Si5 0.000000 0.750000 0.250000
O O1 0.264384 0.651282 0.157682
O O2 0.104121 0.547094 0.214118
O O3 0.069830 0.699321 0.170678
O O4 0.116352 0.599743 0.022172
O O5 0.568320 0.339668 0.960665
O O6 0.385309 0.293742 0.863741
O O7 0.454112 0.440986 0.842804
O O8 0.250000 0.750000 0.000000
#
# Coordination Sequence:
#
# PCOD8282218 Si02
#       5
#    16  16  16   8   4
#     4  10  21  40  62  89 123 161 209 258 312 377
#     4  10  21  40  61  91 127 163 210 268 317 370
#     4   9  19  38  65  87 117 167 216 261 310 371
#     4  11  24  38  60  91 132 168 196 259 330 380
#     4  10  20  36  64  90 112 158 216 262 296 360
#
# _framework density 22.830871999999999
#
# number of rings (size 3 to 8) (size 9 to 14) (size 15 to 20)
#    0.000    2.133    0.000    4.000    0.000    5.333 
#    0.000   10.667    0.000    0.000    0.000    0.000 
#    0.000    0.000    0.000    0.000    0.000    0.000 
#
# Total GULP energy -371669.531177 kJ/mol
# GULP energy per Si atom -12388.984373 kJ/mol
# Density = 2.277891 g / cm^3
# Si number density = 22.830872 Si / 1000 Ang^3
#
#
#
# Elastic Constant Matrix: (Units=GPa)
#
#
# Indices 1 2 3 4 5 6 
#
# 1 137.5732 64.2323 27.9035 0.0000 0.0000 0.0000
# 2 64.2323 147.3630 55.5107 0.0000 0.0000 0.0000
# 3 27.9035 55.5107 89.8587 0.0000 0.0000 0.0000
# 4 0.0000 0.0000 0.0000 28.5935 0.0000 0.0000
# 5 0.0000 0.0000 0.0000 0.0000 21.9013 0.0000
# 6 0.0000 0.0000 0.0000 0.0000 0.0000 0.2770
#
#
#
# Elastic Compliance Matrix: (Units=1/GPa)
#
#
# Indices 1 2 3 4 5 6 
#
# 1 0.009143 -0.003800 -0.000492 0.000000 0.000000 0.000000
# 2 -0.003800 0.010423 -0.005259 0.000000 0.000000 0.000000
# 3 -0.000492 -0.005259 0.014530 0.000000 0.000000 0.000000
# 4 0.000000 0.000000 0.000000 0.034973 0.000000 0.000000
# 5 0.000000 0.000000 0.000000 0.000000 0.045659 0.000000
# 6 0.000000 0.000000 0.000000 0.000000 0.000000 3.610689
#
#
# Mechanical properties :
#
#
# Convention : Reuss Voigt Hill
#
# Bulk Modulus (GPa) = 66.68956 74.45419 70.57188
# Shear Modulus (GPa) = 1.33351 25.29759 13.31555
#
# Velocity S-wave (km/s) = 0.76508 3.33234 2.41763
# Velocity P-wave (km/s) = 5.48217 6.89115 6.22664
#
# Compressibility (1/GPa) = 0.01499485
#
# Stress axis : x y z
#
# Youngs Moduli (GPa) = 109.37640 95.93858 68.82274
#
# Poissons Ratio (x) = 0.36456 0.03384
# Poissons Ratio (y) = 0.41562 0.36195
# Poissons Ratio (z) = 0.05377 0.50455
#
# Static dielectric constant tensor:
#      x y z
#    x 4.632650 0.000000 0.000000 
#    y 0.000000 4.376340 0.000000 
#    z 0.000000 0.000000 3.870670 
# 
# 
# High freq. dielectric constant tensor:
#      x y z
#    x 1.911020 0.000000 0.000000 
#    y 0.000000 1.908500 0.000000 
#    z 0.000000 0.000000 1.875170 
# 
# From -- ./inp_files/20356.got.cif
#   From: 2010.03.12/outbox.cif.g09.slc.cpg/sg68_11_cif.got.tgz:20356.got - 2010.04.10 23:14:56.
