data_PCOD8282800
_publ_section_title
;
Structure prediction by ZEFSAII (Michael W. Deem and Ramdas Pophale) SiO2 
 PCOD8282800
Probable space group: C C C A
;
_chemical_formula_sum "Si O2"
_cell_formula_units_Z 80
_cell_length_a 17.329754
_cell_length_b 8.910113
_cell_length_c 24.378839
_cell_angle_alpha 90.000000
_cell_angle_beta 90.000000
_cell_angle_gamma 90.000000
_cell_volume 3764.338149
_symmetry_space_group_name_H-M "C C C A"
_symmetry_group_IT_number 68
_space_group.IT_coordinate_system_code '2'
_symmetry_cell_setting 'orthorhombic'
loop_
_space_group_symop_operation_xyz
x,y,z
-x,1/2-y,z
x,1/2-y,1/2-z
-x,y,1/2-z
-x,-y,-z
x,1/2+y,-z
-x,1/2+y,1/2+z
x,-y,1/2+z
1/2+x,1/2+y,z
1/2-x,-y,z
1/2+x,-y,1/2-z
1/2-x,1/2+y,1/2-z
1/2-x,1/2-y,-z
1/2+x,y,-z
1/2-x,y,1/2+z
1/2+x,1/2-y,1/2+z
loop_
_atom_site_type_symbol
_atom_site_label
_atom_site_fract_x
_atom_site_fract_y
_atom_site_fract_z
Si Si1 0.211968 0.158000 0.695152
Si Si2 0.566128 0.651724 0.625942
Si Si3 0.935134 0.123057 0.446311
Si Si4 0.201052 0.190118 0.403470
Si Si5 0.354986 0.395673 0.056787
O O1 0.199660 0.250000 0.750000
O O2 0.129404 0.111394 0.670778
O O3 0.260344 0.264294 0.654130
O O4 0.250000 0.000000 0.708958
O O5 0.500000 0.750000 0.655795
O O6 0.532197 0.504564 0.594715
O O7 0.598850 0.755340 0.578488
O O8 0.856387 0.179457 0.419482
O O9 0.903719 0.051278 0.503328
O O10 0.000000 0.250000 0.454711
O O11 0.266632 0.165440 0.450776
O O12 0.151703 0.034901 0.400195
#
# Coordination Sequence:
#
# PCOD8282800 Si02
#       5
#    16  16  16  16  16
#     4  11  25  46  75  95 123 169 225 288 348 406
#     4  11  24  42  65  99 139 175 220 276 338 397
#     4  12  23  39  63  94 143 185 225 263 329 406
#     4  10  22  41  63  97 130 171 222 282 328 393
#     4  10  22  37  64  97 136 181 221 263 321 400
#
# _framework density 21.252077
#
# number of rings (size 3 to 8) (size 9 to 14) (size 15 to 20)
#    0.000    1.200    2.000    3.600    5.600    7.600 
#    0.000    0.000    0.000    0.600    0.000    0.000 
#    0.000    0.000    0.000    0.000    0.000    0.000 
#
# Total GULP energy -495639.758751 kJ/mol
# GULP energy per Si atom -12390.993969 kJ/mol
# Density = 2.120371 g / cm^3
# Si number density = 21.252077 Si / 1000 Ang^3
#
#
#
# Elastic Constant Matrix: (Units=GPa)
#
#
# Indices 1 2 3 4 5 6 
#
# 1 76.7834 31.4437 26.3235 0.0000 0.0000 0.0000
# 2 31.4437 124.4951 40.1914 0.0000 0.0000 0.0000
# 3 26.3235 40.1914 100.9628 0.0000 0.0000 0.0000
# 4 0.0000 0.0000 0.0000 34.8562 0.0000 0.0000
# 5 0.0000 0.0000 0.0000 0.0000 10.0149 0.0000
# 6 0.0000 0.0000 0.0000 0.0000 0.0000 32.9711
#
#
#
# Elastic Compliance Matrix: (Units=1/GPa)
#
#
# Indices 1 2 3 4 5 6 
#
# 1 0.015182 -0.002934 -0.002790 0.000000 0.000000 0.000000
# 2 -0.002934 0.009784 -0.003130 0.000000 0.000000 0.000000
# 3 -0.002790 -0.003130 0.011878 0.000000 0.000000 0.000000
# 4 0.000000 0.000000 0.000000 0.028689 0.000000 0.000000
# 5 0.000000 0.000000 0.000000 0.000000 0.099852 0.000000
# 6 0.000000 0.000000 0.000000 0.000000 0.000000 0.030330
#
#
# Mechanical properties :
#
#
# Convention : Reuss Voigt Hill
#
# Bulk Modulus (GPa) = 52.25816 55.35095 53.80456
# Shear Modulus (GPa) = 22.74791 29.18728 25.96760
#
# Velocity S-wave (km/s) = 3.27522 3.70994 3.49934
# Velocity P-wave (km/s) = 6.24066 6.66731 6.45751
#
# Compressibility (1/GPa) = 0.01913577
#
# Stress axis : x y z
#
# Youngs Moduli (GPa) = 65.86911 102.20963 84.18838
#
# Poissons Ratio (x) = 0.29984 0.23492
# Poissons Ratio (y) = 0.19323 0.26350
# Poissons Ratio (z) = 0.18380 0.31991
#
# Static dielectric constant tensor:
#      x y z
#    x 4.433770 0.000000 0.000000 
#    y 0.000000 4.006570 0.000000 
#    z 0.000000 0.000000 3.502000 
# 
# 
# High freq. dielectric constant tensor:
#      x y z
#    x 1.853850 0.000000 0.000000 
#    y 0.000000 1.853020 0.000000 
#    z 0.000000 0.000000 1.789830 
# 
# From -- ./inp_files/49104.got.cif
#   From: 2010.03.12/outbox.cif.g09.slc.cpg/sg68_25_cif.got.tgz:49104.got - 2010.04.10 23:14:56.
