data_PCOD8282508
_publ_section_title
;
Structure prediction by ZEFSAII (Michael W. Deem and Ramdas Pophale) SiO2 
 PCOD8282508
Probable space group: C C C A
;
_chemical_formula_sum "Si O2"
_cell_formula_units_Z 88
_cell_length_a 24.774953
_cell_length_b 19.584484
_cell_length_c 9.628993
_cell_angle_alpha 90.000000
_cell_angle_beta 90.000000
_cell_angle_gamma 90.000000
_cell_volume 4672.032377
_symmetry_space_group_name_H-M "C C C A"
_symmetry_group_IT_number 68
_space_group.IT_coordinate_system_code '2'
_symmetry_cell_setting 'orthorhombic'
loop_
_space_group_symop_operation_xyz
x,y,z
-x,1/2-y,z
x,1/2-y,1/2-z
-x,y,1/2-z
-x,-y,-z
x,1/2+y,-z
-x,1/2+y,1/2+z
x,-y,1/2+z
1/2+x,1/2+y,z
1/2-x,-y,z
1/2+x,-y,1/2-z
1/2-x,1/2+y,1/2-z
1/2-x,1/2-y,-z
1/2+x,y,-z
1/2-x,y,1/2+z
1/2+x,1/2-y,1/2+z
loop_
_atom_site_type_symbol
_atom_site_label
_atom_site_fract_x
_atom_site_fract_y
_atom_site_fract_z
Si Si1 0.809364 0.877886 0.653940
Si Si2 0.551835 0.453984 0.485726
Si Si3 0.276935 0.570806 0.865699
Si Si4 0.468464 0.313829 0.891140
Si Si5 0.878522 0.499416 0.241989
Si Si6 0.370624 0.750000 0.250000
O O1 0.761631 0.887485 0.763951
O O2 0.785778 0.882893 0.499810
O O3 0.833415 0.802535 0.666541
O O4 0.855501 0.934770 0.674248
O O5 0.500000 0.500000 0.500000
O O6 0.532663 0.375939 0.501930
O O7 0.576097 0.463466 0.333021
O O8 0.596580 0.472754 0.599055
O O9 0.250000 0.500000 0.914656
O O10 0.332682 0.555329 0.787054
O O11 0.500000 0.250000 0.960745
O O12 0.500000 0.335429 0.750000
O O13 0.407297 0.291904 0.858247
#
# Coordination Sequence:
#
# PCOD8282508 Si02
#       6
#    16  16  16  16  16   8
#     4  11  22  38  60  90 118 163 206 246 307 363
#     4  12  23  37  63  96 122 155 211 254 304 365
#     4  10  22  38  61  88 123 156 202 256 308 357
#     4   9  20  37  59  86 123 168 205 246 305 371
#     4  11  22  38  62  92 124 156 197 263 304 354
#     4  10  21  36  62  84 124 164 207 246 300 374
#
# _framework density 18.835486
#
# number of rings (size 3 to 8) (size 9 to 14) (size 15 to 20)
#    0.000    1.636    3.636    3.273    5.091    0.727 
#    0.000    0.000    0.000    6.545    0.000    0.000 
#    0.000    0.000    0.000    0.000    0.000    0.000 
#
# Total GULP energy -545804.982439 kJ/mol
# GULP energy per Si atom -12404.658692 kJ/mol
# Density = 1.879262 g / cm^3
# Si number density = 18.835486 Si / 1000 Ang^3
#
#
#
# Elastic Constant Matrix: (Units=GPa)
#
#
# Indices 1 2 3 4 5 6 
#
# 1 106.5162 50.0267 32.3020 0.0000 0.0000 0.0000
# 2 50.0267 122.1399 43.2106 0.0000 0.0000 0.0000
# 3 32.3020 43.2106 74.6421 0.0000 0.0000 0.0000
# 4 0.0000 0.0000 0.0000 32.1842 0.0000 0.0000
# 5 0.0000 0.0000 0.0000 0.0000 32.9583 0.0000
# 6 0.0000 0.0000 0.0000 0.0000 0.0000 25.5228
#
#
#
# Elastic Compliance Matrix: (Units=1/GPa)
#
#
# Indices 1 2 3 4 5 6 
#
# 1 0.012131 -0.003913 -0.002985 0.000000 0.000000 0.000000
# 2 -0.003913 0.011558 -0.004998 0.000000 0.000000 0.000000
# 3 -0.002985 -0.004998 0.017582 0.000000 0.000000 0.000000
# 4 0.000000 0.000000 0.000000 0.031071 0.000000 0.000000
# 5 0.000000 0.000000 0.000000 0.000000 0.030341 0.000000
# 6 0.000000 0.000000 0.000000 0.000000 0.000000 0.039181
#
#
# Mechanical properties :
#
#
# Convention : Reuss Voigt Hill
#
# Bulk Modulus (GPa) = 57.20548 61.59743 59.40146
# Shear Modulus (GPa) = 29.15764 29.98365 29.57065
#
# Velocity S-wave (km/s) = 3.93875 3.99415 3.96655
# Velocity P-wave (km/s) = 7.14997 7.35152 7.25145
#
# Compressibility (1/GPa) = 0.01748084
#
# Stress axis : x y z
#
# Youngs Moduli (GPa) = 82.43297 86.51986 56.87605
#
# Poissons Ratio (x) = 0.33853 0.16976
# Poissons Ratio (y) = 0.32254 0.28425
# Poissons Ratio (z) = 0.24604 0.43240
#
# Static dielectric constant tensor:
#      x y z
#    x 3.640320 0.000000 0.000000 
#    y 0.000000 3.382120 0.000000 
#    z 0.000000 0.000000 3.373550 
# 
# 
# High freq. dielectric constant tensor:
#      x y z
#    x 1.749740 0.000000 0.000000 
#    y 0.000000 1.722900 0.000000 
#    z 0.000000 0.000000 1.714370 
# 
# From -- ./inp_files/7117.got.cif
#   From: 2010.03.12/outbox.cif.g09.slc.cpg/sg68_4_cif.got.tgz:7117.got - 2010.04.10 23:14:56.
