data_PCOD8282179
_publ_section_title
;
Structure prediction by ZEFSAII (Michael W. Deem and Ramdas Pophale) SiO2 
 PCOD8282179
Probable space group: C C C A
;
_chemical_formula_sum "Si O2"
_cell_formula_units_Z 80
_cell_length_a 7.957036
_cell_length_b 22.786549
_cell_length_c 20.723670
_cell_angle_alpha 90.000000
_cell_angle_beta 90.000000
_cell_angle_gamma 90.000000
_cell_volume 3757.478876
_symmetry_space_group_name_H-M "C C C A"
_symmetry_group_IT_number 68
_space_group.IT_coordinate_system_code '2'
_symmetry_cell_setting 'orthorhombic'
loop_
_space_group_symop_operation_xyz
x,y,z
-x,1/2-y,z
x,1/2-y,1/2-z
-x,y,1/2-z
-x,-y,-z
x,1/2+y,-z
-x,1/2+y,1/2+z
x,-y,1/2+z
1/2+x,1/2+y,z
1/2-x,-y,z
1/2+x,-y,1/2-z
1/2-x,1/2+y,1/2-z
1/2-x,1/2-y,-z
1/2+x,y,-z
1/2-x,y,1/2+z
1/2+x,1/2-y,1/2+z
loop_
_atom_site_type_symbol
_atom_site_label
_atom_site_fract_x
_atom_site_fract_y
_atom_site_fract_z
Si Si1 0.441200 0.612301 0.680126
Si Si2 0.250000 0.000000 0.855290
Si Si3 0.784792 0.678662 0.428362
Si Si4 0.700007 0.438367 0.086373
Si Si5 0.000000 0.250000 0.019312
Si Si6 0.056916 0.929834 0.954113
O O1 0.500000 0.633762 0.750000
O O2 0.325816 0.553538 0.687335
O O3 0.342077 0.665997 0.645445
O O4 0.607816 0.602200 0.637723
O O5 0.098150 0.978349 0.900125
O O6 0.652849 0.732187 0.433511
O O7 0.697139 0.620329 0.453289
O O8 0.945150 0.695248 0.473373
O O9 0.750000 0.500000 0.119238
O O10 0.869580 0.405896 0.060769
O O11 0.573912 0.455230 0.026891
#
# Coordination Sequence:
#
# PCOD8282179 Si02
#       6
#    16   8  16  16   8  16
#     4  11  25  40  58  86 128 175 213 240 294 378
#     4  10  20  36  56  84 124 162 204 246 294 360
#     4  10  22  39  66  96 122 157 200 272 327 386
#     4  12  21  33  56  88 126 165 198 249 300 360
#     4  10  20  42  71  98 121 146 208 282 358 358
#     4  11  20  35  59  93 123 152 201 257 320 361
#
# _framework density 21.290872
#
# number of rings (size 3 to 8) (size 9 to 14) (size 15 to 20)
#    0.000    1.200    3.000    5.400    1.400    1.600 
#    0.000    3.500    0.000    2.400    0.000    0.000 
#    0.000    0.000    0.000    0.000    0.000    0.000 
#
# Total GULP energy -495921.174750 kJ/mol
# GULP energy per Si atom -12398.029369 kJ/mol
# Density = 2.124241 g / cm^3
# Si number density = 21.290872 Si / 1000 Ang^3
#
#
#
# Elastic Constant Matrix: (Units=GPa)
#
#
# Indices 1 2 3 4 5 6 
#
# 1 123.0968 21.1204 60.2717 0.0000 0.0000 0.0000
# 2 21.1204 64.2480 36.0551 0.0000 0.0000 0.0000
# 3 60.2717 36.0551 130.5726 0.0000 0.0000 0.0000
# 4 0.0000 0.0000 0.0000 23.4490 0.0000 0.0000
# 5 0.0000 0.0000 0.0000 0.0000 26.7437 0.0000
# 6 0.0000 0.0000 0.0000 0.0000 0.0000 31.2451
#
#
#
# Elastic Compliance Matrix: (Units=1/GPa)
#
#
# Indices 1 2 3 4 5 6 
#
# 1 0.010537 -0.000869 -0.004624 0.000000 0.000000 0.000000
# 2 -0.000869 0.018491 -0.004705 0.000000 0.000000 0.000000
# 3 -0.004624 -0.004705 0.011092 0.000000 0.000000 0.000000
# 4 0.000000 0.000000 0.000000 0.042646 0.000000 0.000000
# 5 0.000000 0.000000 0.000000 0.000000 0.037392 0.000000
# 6 0.000000 0.000000 0.000000 0.000000 0.000000 0.032005
#
#
# Mechanical properties :
#
#
# Convention : Reuss Voigt Hill
#
# Bulk Modulus (GPa) = 50.69860 61.42355 56.06107
# Shear Modulus (GPa) = 27.91246 29.65225 28.78235
#
# Velocity S-wave (km/s) = 3.62471 3.73597 3.68076
# Velocity P-wave (km/s) = 6.43289 6.89364 6.66725
#
# Compressibility (1/GPa) = 0.01972441
#
# Stress axis : x y z
#
# Youngs Moduli (GPa) = 94.90640 54.08170 90.15521
#
# Poissons Ratio (x) = 0.04700 0.41685
# Poissons Ratio (y) = 0.08247 0.42415
# Poissons Ratio (z) = 0.43882 0.25444
#
# Static dielectric constant tensor:
#      x y z
#    x 4.114470 0.000000 0.000000 
#    y 0.000000 3.703650 0.000000 
#    z 0.000000 0.000000 3.443700 
# 
# 
# High freq. dielectric constant tensor:
#      x y z
#    x 1.861150 0.000000 0.000000 
#    y 0.000000 1.821820 0.000000 
#    z 0.000000 0.000000 1.788580 
# 
# From -- ./inp_files/36203.got.cif
#   From: 2010.03.12/outbox.cif.g09.slc.cpg/sg68_19_cif.got.tgz:36203.got - 2010.04.10 23:14:56.
