data_PCOD8282436
_publ_section_title
;
Structure prediction by ZEFSAII (Michael W. Deem and Ramdas Pophale) SiO2 
 PCOD8282436
Probable space group: C C C A
;
_chemical_formula_sum "Si O2"
_cell_formula_units_Z 104
_cell_length_a 16.940419
_cell_length_b 18.618278
_cell_length_c 15.837323
_cell_angle_alpha 90.000000
_cell_angle_beta 90.000000
_cell_angle_gamma 90.000000
_cell_volume 4995.114328
_symmetry_space_group_name_H-M "C C C A"
_symmetry_group_IT_number 68
_space_group.IT_coordinate_system_code '2'
_symmetry_cell_setting 'orthorhombic'
loop_
_space_group_symop_operation_xyz
x,y,z
-x,1/2-y,z
x,1/2-y,1/2-z
-x,y,1/2-z
-x,-y,-z
x,1/2+y,-z
-x,1/2+y,1/2+z
x,-y,1/2+z
1/2+x,1/2+y,z
1/2-x,-y,z
1/2+x,-y,1/2-z
1/2-x,1/2+y,1/2-z
1/2-x,1/2-y,-z
1/2+x,y,-z
1/2-x,y,1/2+z
1/2+x,1/2-y,1/2+z
loop_
_atom_site_type_symbol
_atom_site_label
_atom_site_fract_x
_atom_site_fract_y
_atom_site_fract_z
Si Si1 0.353705 0.751766 0.656645
Si Si2 0.250000 0.000000 0.682149
Si Si3 0.146001 0.990120 0.831582
Si Si4 0.948531 0.314601 0.123338
Si Si5 0.224264 0.146249 0.095510
Si Si6 0.500000 0.930088 0.250000
Si Si7 0.270907 0.386350 0.096210
Si Si8 0.500000 0.750000 0.534862
O O1 0.390771 0.750000 0.750000
O O2 0.295784 0.818593 0.645495
O O3 0.303257 0.679657 0.649171
O O4 0.423595 0.762042 0.590594
O O5 0.320532 0.976488 0.744438
O O6 0.283026 0.064347 0.625411
O O7 0.190043 0.916258 0.860500
O O8 0.054781 0.977283 0.811604
O O9 0.162159 0.050214 0.903632
O O10 0.853994 0.304876 0.112064
O O11 0.952568 0.383794 0.182146
O O12 0.000000 0.250000 0.167367
O O13 0.985230 0.319435 0.027573
O O14 0.244969 0.143150 0.996869
#
# Coordination Sequence:
#
# PCOD8282436 Si02
#       8
#    16   8  16  16  16   8  16   8
#     4  12  25  42  71  95 129 185 229 287 352 408
#     4  10  20  44  58  96 136 160 228 264 328 416
#     4  10  23  40  64  96 134 176 219 278 333 411
#     4  10  24  41  64 103 136 171 226 288 342 410
#     4  12  23  43  71  98 130 185 223 288 346 409
#     4  12  23  42  68  98 141 182 214 278 360 407
#     4  10  22  43  63  96 131 170 231 275 329 416
#     4  10  25  47  58 100 138 168 232 287 341 418
#
# _framework density 20.820343999999999
#
# number of rings (size 3 to 8) (size 9 to 14) (size 15 to 20)
#    0.462    0.923    3.077    3.692    4.308    0.000 
#    5.538    0.769    0.000    0.000    0.000    0.000 
#    0.000    0.000    0.000    0.000    0.000    0.000 
#
# Total GULP energy -644183.571053 kJ/mol
# GULP energy per Si atom -12388.145597 kJ/mol
# Density = 2.077296 g / cm^3
# Si number density = 20.820344 Si / 1000 Ang^3
#
#
#
# Elastic Constant Matrix: (Units=GPa)
#
#
# Indices 1 2 3 4 5 6 
#
# 1 105.6116 22.5679 26.0913 0.0000 0.0000 0.0000
# 2 22.5679 69.3460 7.9004 0.0000 0.0000 0.0000
# 3 26.0913 7.9004 104.5753 0.0000 0.0000 0.0000
# 4 0.0000 0.0000 0.0000 32.2469 0.0000 0.0000
# 5 0.0000 0.0000 0.0000 0.0000 26.9909 0.0000
# 6 0.0000 0.0000 0.0000 0.0000 0.0000 25.6019
#
#
#
# Elastic Compliance Matrix: (Units=1/GPa)
#
#
# Indices 1 2 3 4 5 6 
#
# 1 0.010761 -0.003224 -0.002441 0.000000 0.000000 0.000000
# 2 -0.003224 0.015511 -0.000368 0.000000 0.000000 0.000000
# 3 -0.002441 -0.000368 0.010199 0.000000 0.000000 0.000000
# 4 0.000000 0.000000 0.000000 0.031011 0.000000 0.000000
# 5 0.000000 0.000000 0.000000 0.000000 0.037050 0.000000
# 6 0.000000 0.000000 0.000000 0.000000 0.000000 0.039060
#
#
# Mechanical properties :
#
#
# Convention : Reuss Voigt Hill
#
# Bulk Modulus (GPa) = 40.97293 43.62802 42.30048
# Shear Modulus (GPa) = 30.52654 31.83282 31.17968
#
# Velocity S-wave (km/s) = 3.83324 3.91439 3.87403
# Velocity P-wave (km/s) = 6.27006 6.43661 6.35388
#
# Compressibility (1/GPa) = 0.02440636
#
# Stress axis : x y z
#
# Youngs Moduli (GPa) = 92.93126 64.46847 98.04565
#
# Poissons Ratio (x) = 0.20783 0.23935
# Poissons Ratio (y) = 0.29959 0.03603
# Poissons Ratio (z) = 0.22686 0.02369
#
# Static dielectric constant tensor:
#      x y z
#    x 3.697950 0.000000 0.000000 
#    y 0.000000 3.755830 0.000000 
#    z 0.000000 0.000000 3.901350 
# 
# 
# High freq. dielectric constant tensor:
#      x y z
#    x 1.806030 0.000000 0.000000 
#    y 0.000000 1.797550 0.000000 
#    z 0.000000 0.000000 1.829200 
# 
# From -- ./inp_files/23833.got.cif
#   From: 2010.03.12/outbox.cif.g09.slc.cpg/sg68_12_cif.got.tgz:23833.got - 2010.04.10 23:14:56.
