data_PCOD8282225
_publ_section_title
;
Structure prediction by ZEFSAII (Michael W. Deem and Ramdas Pophale) SiO2 
 PCOD8282225
Probable space group: C C C A
;
_chemical_formula_sum "Si O2"
_cell_formula_units_Z 104
_cell_length_a 10.322158
_cell_length_b 30.658488
_cell_length_c 14.870084
_cell_angle_alpha 90.000000
_cell_angle_beta 90.000000
_cell_angle_gamma 90.000000
_cell_volume 4705.812912
_symmetry_space_group_name_H-M "C C C A"
_symmetry_group_IT_number 68
_space_group.IT_coordinate_system_code '2'
_symmetry_cell_setting 'orthorhombic'
loop_
_space_group_symop_operation_xyz
x,y,z
-x,1/2-y,z
x,1/2-y,1/2-z
-x,y,1/2-z
-x,-y,-z
x,1/2+y,-z
-x,1/2+y,1/2+z
x,-y,1/2+z
1/2+x,1/2+y,z
1/2-x,-y,z
1/2+x,-y,1/2-z
1/2-x,1/2+y,1/2-z
1/2-x,1/2-y,-z
1/2+x,y,-z
1/2-x,y,1/2+z
1/2+x,1/2-y,1/2+z
loop_
_atom_site_type_symbol
_atom_site_label
_atom_site_fract_x
_atom_site_fract_y
_atom_site_fract_z
Si Si1 0.208728 0.664704 0.873325
Si Si2 0.500000 0.873227 0.250000
Si Si3 0.653024 0.749057 0.582970
Si Si4 0.000000 0.969789 0.250000
Si Si5 0.155869 0.841580 0.426078
Si Si6 0.141228 0.085306 0.408692
Si Si7 0.427158 0.597969 0.897756
Si Si8 0.750000 0.500000 0.838398
O O1 0.303392 0.707027 0.857849
O O2 0.290444 0.620072 0.876123
O O3 0.109507 0.659125 0.790526
O O4 0.130705 0.668768 0.967755
O O5 0.454493 0.907382 0.325882
O O6 0.500000 0.750000 0.556161
O O7 0.750000 0.750000 0.500000
O O8 0.675177 0.796354 0.629864
O O9 0.052654 0.941723 0.168244
O O10 0.119935 0.999550 0.279598
O O11 0.283985 0.869379 0.416099
O O12 0.036190 0.866014 0.381772
O O13 0.063437 0.078454 0.501356
O O14 0.238771 0.044249 0.397084
#
# Coordination Sequence:
#
# PCOD8282225 Si02
#       8
#    16   8  16   8  16  16  16   8
#     4  10  22  37  68 102 141 190 233 291 344 417
#     4  12  23  44  67 103 144 185 236 300 358 430
#     4  10  20  36  66 104 140 183 233 284 340 417
#     4  12  27  46  72 102 138 181 233 294 365 436
#     4  10  20  42  66  98 136 181 232 279 347 420
#     4  11  25  44  72  98 137 181 232 292 361 430
#     4  11  22  44  71  99 135 187 233 283 356 429
#     4  12  26  46  68 104 140 180 230 298 366 432
#
# _framework density 22.100325999999999
#
# number of rings (size 3 to 8) (size 9 to 14) (size 15 to 20)
#    0.000    1.231    4.615    1.385    0.000    1.231 
#    0.000    1.538    0.000    1.846    0.000    0.000 
#    0.000    0.000    0.000    0.000    0.000    0.000 
#
# Total GULP energy -644516.944171 kJ/mol
# GULP energy per Si atom -12394.556619 kJ/mol
# Density = 2.205002 g / cm^3
# Si number density = 22.100326 Si / 1000 Ang^3
#
#
#
# Elastic Constant Matrix: (Units=GPa)
#
#
# Indices 1 2 3 4 5 6 
#
# 1 94.3138 21.0928 24.2578 0.0000 0.0000 0.0000
# 2 21.0928 107.4374 25.2033 0.0000 0.0000 0.0000
# 3 24.2578 25.2033 94.5745 0.0000 0.0000 0.0000
# 4 0.0000 0.0000 0.0000 10.0770 0.0000 0.0000
# 5 0.0000 0.0000 0.0000 0.0000 35.8350 0.0000
# 6 0.0000 0.0000 0.0000 0.0000 0.0000 37.1186
#
#
#
# Elastic Compliance Matrix: (Units=1/GPa)
#
#
# Indices 1 2 3 4 5 6 
#
# 1 0.011632 -0.001689 -0.002533 0.000000 0.000000 0.000000
# 2 -0.001689 0.010174 -0.002278 0.000000 0.000000 0.000000
# 3 -0.002533 -0.002278 0.011831 0.000000 0.000000 0.000000
# 4 0.000000 0.000000 0.000000 0.099236 0.000000 0.000000
# 5 0.000000 0.000000 0.000000 0.000000 0.027906 0.000000
# 6 0.000000 0.000000 0.000000 0.000000 0.000000 0.026941
#
#
# Mechanical properties :
#
#
# Convention : Reuss Voigt Hill
#
# Bulk Modulus (GPa) = 48.46096 48.60372 48.53234
# Shear Modulus (GPa) = 24.08494 31.65758 27.87126
#
# Velocity S-wave (km/s) = 3.30479 3.78888 3.55508
# Velocity P-wave (km/s) = 6.04463 6.41723 6.23371
#
# Compressibility (1/GPa) = 0.02063517
#
# Stress axis : x y z
#
# Youngs Moduli (GPa) = 85.96724 98.29176 84.52718
#
# Poissons Ratio (x) = 0.16606 0.21414
# Poissons Ratio (y) = 0.14524 0.19254
# Poissons Ratio (z) = 0.21779 0.22390
#
# Static dielectric constant tensor:
#      x y z
#    x 4.257020 0.000000 0.000000 
#    y 0.000000 4.442950 0.000000 
#    z 0.000000 0.000000 3.925930 
# 
# 
# High freq. dielectric constant tensor:
#      x y z
#    x 1.875780 0.000000 0.000000 
#    y 0.000000 1.881180 0.000000 
#    z 0.000000 0.000000 1.847280 
# 
# From -- ./inp_files/30002.got.cif
#   From: 2010.03.12/outbox.cif.g09.slc.cpg/sg68_16_cif.got.tgz:30002.got - 2010.04.10 23:14:56.
