data_PCOD8282527
_publ_section_title
;
Structure prediction by ZEFSAII (Michael W. Deem and Ramdas Pophale) SiO2 
 PCOD8282527
Probable space group: C C C A
;
_chemical_formula_sum "Si O2"
_cell_formula_units_Z 96
_cell_length_a 14.146856
_cell_length_b 14.035872
_cell_length_c 25.009106
_cell_angle_alpha 90.000000
_cell_angle_beta 90.000000
_cell_angle_gamma 90.000000
_cell_volume 4965.894619
_symmetry_space_group_name_H-M "C C C A"
_symmetry_group_IT_number 68
_space_group.IT_coordinate_system_code '2'
_symmetry_cell_setting 'orthorhombic'
loop_
_space_group_symop_operation_xyz
x,y,z
-x,1/2-y,z
x,1/2-y,1/2-z
-x,y,1/2-z
-x,-y,-z
x,1/2+y,-z
-x,1/2+y,1/2+z
x,-y,1/2+z
1/2+x,1/2+y,z
1/2-x,-y,z
1/2+x,-y,1/2-z
1/2-x,1/2+y,1/2-z
1/2-x,1/2-y,-z
1/2+x,y,-z
1/2-x,y,1/2+z
1/2+x,1/2-y,1/2+z
loop_
_atom_site_type_symbol
_atom_site_label
_atom_site_fract_x
_atom_site_fract_y
_atom_site_fract_z
Si Si1 0.418314 0.326519 0.044985
Si Si2 0.497199 0.984574 0.878571
Si Si3 0.764423 0.239416 0.624980
Si Si4 0.671724 0.417483 0.187390
Si Si5 0.919471 0.176200 0.426857
Si Si6 0.668614 0.067950 0.194969
O O1 0.500000 0.250000 0.044021
O O2 0.456495 0.423186 0.072244
O O3 0.332332 0.272989 0.074222
O O4 0.382932 0.356903 0.985554
O O5 0.584295 0.933115 0.851507
O O6 0.413203 0.990296 0.835276
O O7 0.534542 0.088046 0.895378
O O8 0.786016 0.320074 0.667181
O O9 0.659864 0.265259 0.605031
O O10 0.776868 0.143052 0.658115
O O11 0.750000 0.500000 0.181118
O O12 0.631697 0.396275 0.247177
O O13 0.000000 0.250000 0.438643
O O14 0.750000 0.000000 0.214517
#
# Coordination Sequence:
#
# PCOD8282527 Si02
#       6
#    16  16  16  16  16  16
#     4  10  21  37  59  88 119 155 199 252 296 350
#     4  11  21  39  61  86 120 156 201 244 297 357
#     4  11  21  39  61  86 120 156 201 244 297 357
#     4  11  21  38  62  88 117 154 195 246 299 354
#     4  11  23  38  60  86 121 159 199 244 301 355
#     4  10  23  38  60  87 122 155 195 246 300 355
#
# _framework density 19.331863999999999
#
# number of rings (size 3 to 8) (size 9 to 14) (size 15 to 20)
#    0.000    1.333    3.333    3.000    0.000    0.000 
#    0.000    1.667    3.667    0.000    0.000    0.000 
#    0.000    0.000    0.000    0.000    0.000    0.000 
#
# Total GULP energy -594690.221136 kJ/mol
# GULP energy per Si atom -12389.379607 kJ/mol
# Density = 1.928786 g / cm^3
# Si number density = 19.331864 Si / 1000 Ang^3
#
#
#
# Elastic Constant Matrix: (Units=GPa)
#
#
# Indices 1 2 3 4 5 6 
#
# 1 81.6565 31.3842 34.6625 0.0000 0.0000 0.0000
# 2 31.3842 63.2676 30.0924 0.0000 0.0000 0.0000
# 3 34.6625 30.0924 130.2812 0.0000 0.0000 0.0000
# 4 0.0000 0.0000 0.0000 10.1563 0.0000 0.0000
# 5 0.0000 0.0000 0.0000 0.0000 7.5906 0.0000
# 6 0.0000 0.0000 0.0000 0.0000 0.0000 37.8138
#
#
#
# Elastic Compliance Matrix: (Units=1/GPa)
#
#
# Indices 1 2 3 4 5 6 
#
# 1 0.015941 -0.006617 -0.002713 0.000000 0.000000 0.000000
# 2 -0.006617 0.020504 -0.002975 0.000000 0.000000 0.000000
# 3 -0.002713 -0.002975 0.009085 0.000000 0.000000 0.000000
# 4 0.000000 0.000000 0.000000 0.098461 0.000000 0.000000
# 5 0.000000 0.000000 0.000000 0.000000 0.131742 0.000000
# 6 0.000000 0.000000 0.000000 0.000000 0.000000 0.026445
#
#
# Mechanical properties :
#
#
# Convention : Reuss Voigt Hill
#
# Bulk Modulus (GPa) = 47.80449 51.94261 49.87355
# Shear Modulus (GPa) = 14.98074 23.04990 19.01532
#
# Velocity S-wave (km/s) = 2.78677 3.45675 3.13968
# Velocity P-wave (km/s) = 5.92763 6.54671 6.24485
#
# Compressibility (1/GPa) = 0.02091854
#
# Stress axis : x y z
#
# Youngs Moduli (GPa) = 62.72978 48.77173 110.07494
#
# Poissons Ratio (x) = 0.32275 0.29862
# Poissons Ratio (y) = 0.41511 0.32751
# Poissons Ratio (z) = 0.17018 0.14511
#
# Static dielectric constant tensor:
#      x y z
#    x 3.540620 0.000000 0.000000 
#    y 0.000000 3.377390 0.000000 
#    z 0.000000 0.000000 3.803520 
# 
# 
# High freq. dielectric constant tensor:
#      x y z
#    x 1.756080 0.000000 0.000000 
#    y 0.000000 1.751120 0.000000 
#    z 0.000000 0.000000 1.773220 
# 
# From -- ./inp_files/38594.got.cif
#   From: 2010.03.12/outbox.cif.g09.slc.cpg/sg68_20_cif.got.tgz:38594.got - 2010.04.10 23:14:56.
