data_PCOD8282842
_publ_section_title
;
Structure prediction by ZEFSAII (Michael W. Deem and Ramdas Pophale) SiO2 
 PCOD8282842
Probable space group: C C C A
;
_chemical_formula_sum "Si O2"
_cell_formula_units_Z 104
_cell_length_a 8.762426
_cell_length_b 24.043034
_cell_length_c 24.006660
_cell_angle_alpha 90.000000
_cell_angle_beta 90.000000
_cell_angle_gamma 90.000000
_cell_volume 5057.610447
_symmetry_space_group_name_H-M "C C C A"
_symmetry_group_IT_number 68
_space_group.IT_coordinate_system_code '2'
_symmetry_cell_setting 'orthorhombic'
loop_
_space_group_symop_operation_xyz
x,y,z
-x,1/2-y,z
x,1/2-y,1/2-z
-x,y,1/2-z
-x,-y,-z
x,1/2+y,-z
-x,1/2+y,1/2+z
x,-y,1/2+z
1/2+x,1/2+y,z
1/2-x,-y,z
1/2+x,-y,1/2-z
1/2-x,1/2+y,1/2-z
1/2-x,1/2-y,-z
1/2+x,y,-z
1/2-x,y,1/2+z
1/2+x,1/2-y,1/2+z
loop_
_atom_site_type_symbol
_atom_site_label
_atom_site_fract_x
_atom_site_fract_y
_atom_site_fract_z
Si Si1 0.759986 0.750000 0.250000
Si Si2 0.500000 0.750000 0.843222
Si Si3 0.407871 0.837222 0.566503
Si Si4 0.934157 0.189782 0.454473
Si Si5 0.072218 0.505640 0.691686
Si Si6 0.500000 0.168195 0.750000
Si Si7 0.971208 0.108383 0.357410
Si Si8 0.836214 0.057541 0.872881
O O1 0.858136 0.765829 0.196037
O O2 0.649248 0.798991 0.269599
O O3 0.469622 0.695070 0.879537
O O4 0.247849 0.809488 0.549422
O O5 0.525452 0.827567 0.516777
O O6 0.399344 0.904353 0.576181
O O7 0.004657 0.144337 0.412165
O O8 0.000000 0.250000 0.438160
O O9 0.250000 0.500000 0.702624
O O10 0.000000 0.526656 0.750000
O O11 0.052491 0.548270 0.639830
O O12 0.974641 0.451804 0.671196
O O13 0.551011 0.134516 0.696173
O O14 0.790896 0.098152 0.345588
O O15 0.750000 0.000000 0.892001
#
# Coordination Sequence:
#
# PCOD8282842 Si02
#       8
#     8   8  16  16  16   8  16  16
#     4  10  24  38  58  90 128 174 212 270 316 390
#     4  11  24  44  58  90 136 167 222 260 334 385
#     4  11  24  43  65  94 126 172 217 269 328 389
#     4  11  24  41  66  93 128 169 215 266 324 388
#     4  11  22  40  63  93 125 167 213 262 320 386
#     4  11  22  38  64  90 128 168 218 257 326 388
#     4  10  22  39  63  92 125 167 212 261 319 384
#     4   9  21  43  64  89 129 166 213 269 326 387
#
# _framework density 20.56307
#
# number of rings (size 3 to 8) (size 9 to 14) (size 15 to 20)
#    0.000    1.538    1.538    3.692    4.308    2.462 
#    2.769    7.692    0.000    0.000    0.000    0.000 
#    0.000    0.000    0.000    0.000    0.000    0.000 
#
# Total GULP energy -644415.893424 kJ/mol
# GULP energy per Si atom -12392.613335 kJ/mol
# Density = 2.051627 g / cm^3
# Si number density = 20.563070 Si / 1000 Ang^3
#
#
#
# Elastic Constant Matrix: (Units=GPa)
#
#
# Indices 1 2 3 4 5 6 
#
# 1 125.5123 39.6358 49.6125 0.0000 0.0000 0.0000
# 2 39.6358 104.1881 47.1903 0.0000 0.0000 0.0000
# 3 49.6125 47.1903 120.2022 0.0000 0.0000 0.0000
# 4 0.0000 0.0000 0.0000 36.8042 0.0000 0.0000
# 5 0.0000 0.0000 0.0000 0.0000 29.9005 0.0000
# 6 0.0000 0.0000 0.0000 0.0000 0.0000 16.9528
#
#
#
# Elastic Compliance Matrix: (Units=1/GPa)
#
#
# Indices 1 2 3 4 5 6 
#
# 1 0.009971 -0.002346 -0.003194 0.000000 0.000000 0.000000
# 2 -0.002346 0.012226 -0.003831 0.000000 0.000000 0.000000
# 3 -0.003194 -0.003831 0.011142 0.000000 0.000000 0.000000
# 4 0.000000 0.000000 0.000000 0.027171 0.000000 0.000000
# 5 0.000000 0.000000 0.000000 0.000000 0.033444 0.000000
# 6 0.000000 0.000000 0.000000 0.000000 0.000000 0.058987
#
#
# Mechanical properties :
#
#
# Convention : Reuss Voigt Hill
#
# Bulk Modulus (GPa) = 68.51762 69.19776 68.85769
# Shear Modulus (GPa) = 28.32057 30.96243 29.64150
#
# Velocity S-wave (km/s) = 3.71516 3.88458 3.80082
# Velocity P-wave (km/s) = 7.19696 7.33788 7.26777
#
# Compressibility (1/GPa) = 0.01459479
#
# Stress axis : x y z
#
# Youngs Moduli (GPa) = 100.29139 81.79285 89.75152
#
# Poissons Ratio (x) = 0.19192 0.28669
# Poissons Ratio (y) = 0.23532 0.34387
# Poissons Ratio (z) = 0.32036 0.31338
#
# Static dielectric constant tensor:
#      x y z
#    x 3.799140 0.000000 0.000000 
#    y 0.000000 3.955360 0.000000 
#    z 0.000000 0.000000 3.613760 
# 
# 
# High freq. dielectric constant tensor:
#      x y z
#    x 1.809590 0.000000 0.000000 
#    y 0.000000 1.809620 0.000000 
#    z 0.000000 0.000000 1.791610 
# 
# From -- ./inp_files/43485.got.cif
#   From: 2010.03.12/outbox.cif.g09.slc.cpg/sg68_22_cif.got.tgz:43485.got - 2010.04.10 23:14:56.
