data_PCOD8282539
_publ_section_title
;
Structure prediction by ZEFSAII (Michael W. Deem and Ramdas Pophale) SiO2 
 PCOD8282539
Probable space group: C C C A
;
_chemical_formula_sum "Si O2"
_cell_formula_units_Z 64
_cell_length_a 21.970678
_cell_length_b 14.338618
_cell_length_c 8.761846
_cell_angle_alpha 90.000000
_cell_angle_beta 90.000000
_cell_angle_gamma 90.000000
_cell_volume 2760.236977
_symmetry_space_group_name_H-M "C C C A"
_symmetry_group_IT_number 68
_space_group.IT_coordinate_system_code '2'
_symmetry_cell_setting 'orthorhombic'
loop_
_space_group_symop_operation_xyz
x,y,z
-x,1/2-y,z
x,1/2-y,1/2-z
-x,y,1/2-z
-x,-y,-z
x,1/2+y,-z
-x,1/2+y,1/2+z
x,-y,1/2+z
1/2+x,1/2+y,z
1/2-x,-y,z
1/2+x,-y,1/2-z
1/2-x,1/2+y,1/2-z
1/2-x,1/2-y,-z
1/2+x,y,-z
1/2-x,y,1/2+z
1/2+x,1/2-y,1/2+z
loop_
_atom_site_type_symbol
_atom_site_label
_atom_site_fract_x
_atom_site_fract_y
_atom_site_fract_z
Si Si1 0.679749 0.476117 0.238192
Si Si2 0.377178 0.803819 0.593170
Si Si3 0.369594 0.377875 0.969908
Si Si4 0.999410 0.398941 0.568936
O O1 0.750000 0.500000 0.237527
O O2 0.667894 0.390733 0.121671
O O3 0.657893 0.449008 0.405835
O O4 0.642471 0.570160 0.190110
O O5 0.392785 0.750000 0.750000
O O6 0.342750 0.728204 0.481540
O O7 0.439728 0.841982 0.518610
O O8 0.439977 0.351999 0.002816
O O9 0.000000 0.406730 0.750000
O O10 0.000000 0.500000 0.500000
#
# Coordination Sequence:
#
# PCOD8282539 Si02
#       4
#    16  16  16  16
#     4  11  23  40  61  88 123 163 208 251 295 354
#     4  10  21  37  64  91 116 163 207 235 307 375
#     4  11  22  40  64  89 121 161 204 250 304 365
#     4  12  20  37  67  94 124 154 200 254 308 367
#
# _framework density 23.186416000000001
#
# number of rings (size 3 to 8) (size 9 to 14) (size 15 to 20)
#    0.000    1.000    7.500    1.500    0.000    1.000 
#    0.000    3.750    0.000    1.500    0.000    0.000 
#    0.000    0.000    0.000    0.000    0.000    0.000 
#
# Total GULP energy -396579.967952 kJ/mol
# GULP energy per Si atom -12393.123999 kJ/mol
# Density = 2.313364 g / cm^3
# Si number density = 23.186416 Si / 1000 Ang^3
#
#
#
# Elastic Constant Matrix: (Units=GPa)
#
#
# Indices 1 2 3 4 5 6 
#
# 1 133.6654 28.3905 11.8512 0.0000 0.0000 0.0000
# 2 28.3905 141.8474 14.8882 0.0000 0.0000 0.0000
# 3 11.8512 14.8882 20.1450 0.0000 0.0000 0.0000
# 4 0.0000 0.0000 0.0000 35.1701 0.0000 0.0000
# 5 0.0000 0.0000 0.0000 0.0000 9.8036 0.0000
# 6 0.0000 0.0000 0.0000 0.0000 0.0000 22.8398
#
#
#
# Elastic Compliance Matrix: (Units=1/GPa)
#
#
# Indices 1 2 3 4 5 6 
#
# 1 0.008081 -0.001212 -0.003858 0.000000 0.000000 0.000000
# 2 -0.001212 0.007825 -0.005070 0.000000 0.000000 0.000000
# 3 -0.003858 -0.005070 0.055656 0.000000 0.000000 0.000000
# 4 0.000000 0.000000 0.000000 0.028433 0.000000 0.000000
# 5 0.000000 0.000000 0.000000 0.000000 0.102003 0.000000
# 6 0.000000 0.000000 0.000000 0.000000 0.000000 0.043783
#
#
# Mechanical properties :
#
#
# Convention : Reuss Voigt Hill
#
# Bulk Modulus (GPa) = 19.49995 45.10194 32.30095
# Shear Modulus (GPa) = 17.65816 29.59791 23.62803
#
# Velocity S-wave (km/s) = 2.76266 3.57672 3.19571
# Velocity P-wave (km/s) = 4.31332 6.04577 5.25148
#
# Compressibility (1/GPa) = 0.05128219
#
# Stress axis : x y z
#
# Youngs Moduli (GPa) = 123.74782 127.80221 17.96739
#
# Poissons Ratio (x) = 0.15496 0.06932
# Poissons Ratio (y) = 0.15004 0.09109
# Poissons Ratio (z) = 0.47741 0.64789
#
# Static dielectric constant tensor:
#      x y z
#    x 4.570590 0.000000 0.000000 
#    y 0.000000 4.947460 0.000000 
#    z 0.000000 0.000000 -10.517940 
# 
# 
# High freq. dielectric constant tensor:
#      x y z
#    x 1.902080 0.000000 0.000000 
#    y 0.000000 1.949580 0.000000 
#    z 0.000000 0.000000 1.882280 
# 
# From -- ./inp_files/4964.got.cif
#   From: 2010.03.12/outbox.cif.g09.slc.cpg/sg68_3_cif.got.tgz:4964.got - 2010.04.10 23:14:56.
