data_PCOD8282304
_publ_section_title
;
Structure prediction by ZEFSAII (Michael W. Deem and Ramdas Pophale) SiO2 
 PCOD8282304
Probable space group: C C C A
;
_chemical_formula_sum "Si O2"
_cell_formula_units_Z 104
_cell_length_a 25.831234
_cell_length_b 8.378177
_cell_length_c 23.988709
_cell_angle_alpha 90.000000
_cell_angle_beta 90.000000
_cell_angle_gamma 90.000000
_cell_volume 5191.604031
_symmetry_space_group_name_H-M "C C C A"
_symmetry_group_IT_number 68
_space_group.IT_coordinate_system_code '2'
_symmetry_cell_setting 'orthorhombic'
loop_
_space_group_symop_operation_xyz
x,y,z
-x,1/2-y,z
x,1/2-y,1/2-z
-x,y,1/2-z
-x,-y,-z
x,1/2+y,-z
-x,1/2+y,1/2+z
x,-y,1/2+z
1/2+x,1/2+y,z
1/2-x,-y,z
1/2+x,-y,1/2-z
1/2-x,1/2+y,1/2-z
1/2-x,1/2-y,-z
1/2+x,y,-z
1/2-x,y,1/2+z
1/2+x,1/2-y,1/2+z
loop_
_atom_site_type_symbol
_atom_site_label
_atom_site_fract_x
_atom_site_fract_y
_atom_site_fract_z
Si Si1 0.750000 0.500000 0.695060
Si Si2 0.825638 0.750000 0.750000
Si Si3 0.317181 0.732488 0.879700
Si Si4 0.716071 0.696531 0.435769
Si Si5 0.359112 0.945390 0.350900
Si Si6 0.500000 0.250000 0.015966
Si Si7 0.163629 0.515357 0.471020
Si Si8 0.569022 0.476861 0.949715
O O1 0.788941 0.606287 0.730912
O O2 0.714767 0.617077 0.659645
O O3 0.863505 0.836677 0.704767
O O4 0.277130 0.810895 0.923874
O O5 0.355820 0.631705 0.920287
O O6 0.348638 0.863288 0.843149
O O7 0.690893 0.617259 0.382165
O O8 0.707766 0.602686 0.492981
O O9 0.690167 0.869081 0.440132
O O10 0.410947 0.928417 0.388288
O O11 0.473865 0.383979 0.054986
O O12 0.544093 0.320252 0.976078
O O13 0.116273 0.464843 0.510899
#
# Coordination Sequence:
#
# PCOD8282304 Si02
#       8
#     8   8  16  16  16   8  16  16
#     4  12  24  38  56  78 114 158 222 236 292 314
#     4  12  24  42  58  79 110 162 204 267 280 330
#     4  12  21  36  52  83 116 163 200 242 276 339
#     4  11  21  34  48  81 116 166 197 238 273 335
#     4  11  23  38  59  80 117 152 211 246 291 335
#     4  10  20  38  64  87 126 147 180 226 322 384
#     4  11  20  33  53  81 125 153 198 229 289 348
#     4  10  21  37  58  92 116 156 183 238 295 383
#
# _framework density 20.032344999999999
#
# number of rings (size 3 to 8) (size 9 to 14) (size 15 to 20)
#    0.000    0.923    3.077    6.462    0.000    2.462 
#    0.000    0.000    0.000    0.462    0.000    0.000 
#    0.000    1.231    0.000    0.000    0.000    0.000 
#
# Total GULP energy -644526.899634 kJ/mol
# GULP energy per Si atom -12394.748070 kJ/mol
# Density = 1.998675 g / cm^3
# Si number density = 20.032345 Si / 1000 Ang^3
#
#
#
# Elastic Constant Matrix: (Units=GPa)
#
#
# Indices 1 2 3 4 5 6 
#
# 1 64.8520 18.9269 26.9942 0.0000 0.0000 0.0000
# 2 18.9269 102.8734 39.7183 0.0000 0.0000 0.0000
# 3 26.9942 39.7183 97.4667 0.0000 0.0000 0.0000
# 4 0.0000 0.0000 0.0000 8.1937 0.0000 0.0000
# 5 0.0000 0.0000 0.0000 0.0000 24.4264 0.0000
# 6 0.0000 0.0000 0.0000 0.0000 0.0000 26.1750
#
#
#
# Elastic Compliance Matrix: (Units=1/GPa)
#
#
# Indices 1 2 3 4 5 6 
#
# 1 0.017652 -0.001614 -0.004231 0.000000 0.000000 0.000000
# 2 -0.001614 0.011683 -0.004314 0.000000 0.000000 0.000000
# 3 -0.004231 -0.004314 0.013190 0.000000 0.000000 0.000000
# 4 0.000000 0.000000 0.000000 0.122045 0.000000 0.000000
# 5 0.000000 0.000000 0.000000 0.000000 0.040939 0.000000
# 6 0.000000 0.000000 0.000000 0.000000 0.000000 0.038204
#
#
# Mechanical properties :
#
#
# Convention : Reuss Voigt Hill
#
# Bulk Modulus (GPa) = 45.03159 48.49676 46.76417
# Shear Modulus (GPa) = 18.42068 23.72920 21.07494
#
# Velocity S-wave (km/s) = 3.03569 3.44545 3.24704
# Velocity P-wave (km/s) = 5.90046 6.33167 6.11986
#
# Compressibility (1/GPa) = 0.02220664
#
# Stress axis : x y z
#
# Youngs Moduli (GPa) = 56.65092 85.59290 75.81666
#
# Poissons Ratio (x) = 0.13815 0.32079
# Poissons Ratio (y) = 0.09144 0.32707
# Poissons Ratio (z) = 0.23970 0.36924
#
# Static dielectric constant tensor:
#      x y z
#    x 3.453670 0.000000 0.000000 
#    y 0.000000 3.975810 0.000000 
#    z 0.000000 0.000000 3.656940 
# 
# 
# High freq. dielectric constant tensor:
#      x y z
#    x 1.742740 0.000000 0.000000 
#    y 0.000000 1.815400 0.000000 
#    z 0.000000 0.000000 1.761420 
# 
# From -- ./inp_files/43505.got.cif
#   From: 2010.03.12/outbox.cif.g09.slc.cpg/sg68_22_cif.got.tgz:43505.got - 2010.04.10 23:14:56.
