data_PCOD8282703
_publ_section_title
;
Structure prediction by ZEFSAII (Michael W. Deem and Ramdas Pophale) SiO2 
 PCOD8282703
Probable space group: C C C A
;
_chemical_formula_sum "Si O2"
_cell_formula_units_Z 88
_cell_length_a 13.583719
_cell_length_b 18.223387
_cell_length_c 16.934956
_cell_angle_alpha 90.000000
_cell_angle_beta 90.000000
_cell_angle_gamma 90.000000
_cell_volume 4192.102179
_symmetry_space_group_name_H-M "C C C A"
_symmetry_group_IT_number 68
_space_group.IT_coordinate_system_code '2'
_symmetry_cell_setting 'orthorhombic'
loop_
_space_group_symop_operation_xyz
x,y,z
-x,1/2-y,z
x,1/2-y,1/2-z
-x,y,1/2-z
-x,-y,-z
x,1/2+y,-z
-x,1/2+y,1/2+z
x,-y,1/2+z
1/2+x,1/2+y,z
1/2-x,-y,z
1/2+x,-y,1/2-z
1/2-x,1/2+y,1/2-z
1/2-x,1/2-y,-z
1/2+x,y,-z
1/2-x,y,1/2+z
1/2+x,1/2-y,1/2+z
loop_
_atom_site_type_symbol
_atom_site_label
_atom_site_fract_x
_atom_site_fract_y
_atom_site_fract_z
Si Si1 0.108743 0.257520 0.343896
Si Si2 0.248953 0.631854 0.641163
Si Si3 0.750000 0.500000 0.477839
Si Si4 0.819371 0.092070 0.311498
Si Si5 0.472773 0.168760 0.340361
Si Si6 0.379784 0.046302 0.114644
O O1 0.113295 0.250000 0.250000
O O2 0.181086 0.199999 0.387308
O O3 0.137658 0.340449 0.360332
O O4 0.000000 0.250000 0.378956
O O5 0.262191 0.571701 0.574586
O O6 0.194251 0.598482 0.717612
O O7 0.356126 0.662805 0.658142
O O8 0.650374 0.513589 0.528849
O O9 0.713424 0.087708 0.350795
O O10 0.894206 0.024007 0.327264
O O11 0.500000 0.250000 0.373499
O O12 0.500000 0.160440 0.250000
O O13 0.527626 0.102428 0.388180
#
# Coordination Sequence:
#
# PCOD8282703 Si02
#       6
#    16  16   8  16  16  16
#     4   9  19  35  57  90 123 160 204 266 316 364
#     4  11  21  37  63  92 124 162 219 259 314 385
#     4  10  24  40  60  88 130 174 206 262 312 392
#     4   9  18  36  62  85 119 158 210 259 307 367
#     4  11  23  38  66  97 122 160 212 273 320 379
#     4  10  21  41  59  87 126 164 203 259 325 369
#
# _framework density 20.991854
#
# number of rings (size 3 to 8) (size 9 to 14) (size 15 to 20)
#    0.000    2.182    1.818    2.182    5.091    2.182 
#    3.273   10.909    0.000    0.000    0.000    0.000 
#    0.000    0.000    0.000    0.000    0.000    0.000 
#
# Total GULP energy -545196.009086 kJ/mol
# GULP energy per Si atom -12390.818388 kJ/mol
# Density = 2.094408 g / cm^3
# Si number density = 20.991854 Si / 1000 Ang^3
#
#
#
# Elastic Constant Matrix: (Units=GPa)
#
#
# Indices 1 2 3 4 5 6 
#
# 1 112.8214 79.7017 24.0678 0.0000 0.0000 0.0000
# 2 79.7017 193.2124 45.4372 0.0000 0.0000 0.0000
# 3 24.0678 45.4372 72.2321 0.0000 0.0000 0.0000
# 4 0.0000 0.0000 0.0000 -312.3726 0.0000 0.0000
# 5 0.0000 0.0000 0.0000 0.0000 1958.2541 0.0000
# 6 0.0000 0.0000 0.0000 0.0000 0.0000 42.4541
#
#
#
# Elastic Compliance Matrix: (Units=1/GPa)
#
#
# Indices 1 2 3 4 5 6 
#
# 1 0.012581 -0.004934 -0.001088 0.000000 0.000000 0.000000
# 2 -0.004934 0.008009 -0.003394 0.000000 0.000000 0.000000
# 3 -0.001088 -0.003394 0.016342 0.000000 0.000000 0.000000
# 4 0.000000 0.000000 0.000000 -0.003201 0.000000 0.000000
# 5 0.000000 0.000000 0.000000 0.000000 0.000511 0.000000
# 6 0.000000 0.000000 0.000000 0.000000 0.000000 0.023555
#
#
# Mechanical properties :
#
#
# Convention : Reuss Voigt Hill
#
# Bulk Modulus (GPa) = 55.25032 75.18658 65.21845
# Shear Modulus (GPa) = 60.48686 352.93774 206.71230
#
# Velocity S-wave (km/s) = 5.37373 12.98059 9.93410
# Velocity P-wave (km/s) = 8.05479 16.14174 12.75609
#
# Compressibility (1/GPa) = 0.01809944
#
# Stress axis : x y z
#
# Youngs Moduli (GPa) = 79.48321 124.85788 61.19218
#
# Poissons Ratio (x) = 0.61604 0.06660
# Poissons Ratio (y) = 0.39216 0.20769
# Poissons Ratio (z) = 0.08651 0.42378
#
# Static dielectric constant tensor:
#      x y z
#    x 3.394160 0.000000 0.000000 
#    y 0.000000 4.288160 0.000000 
#    z 0.000000 0.000000 3.605220 
# 
# 
# High freq. dielectric constant tensor:
#      x y z
#    x 1.815910 0.000000 0.000000 
#    y 0.000000 1.846210 0.000000 
#    z 0.000000 0.000000 1.790310 
# 
# From -- ./inp_files/30932.got.cif
#   From: 2010.03.12/outbox.cif.g09.slc.cpg/sg68_16_cif.got.tgz:30932.got - 2010.04.10 23:14:56.
