data_PCOD8282368
_publ_section_title
;
Structure prediction by ZEFSAII (Michael W. Deem and Ramdas Pophale) SiO2 
 PCOD8282368
Probable space group: C C C A
;
_chemical_formula_sum "Si O2"
_cell_formula_units_Z 72
_cell_length_a 14.727034
_cell_length_b 12.797222
_cell_length_c 17.941633
_cell_angle_alpha 90.000000
_cell_angle_beta 90.000000
_cell_angle_gamma 90.000000
_cell_volume 3381.372079
_symmetry_space_group_name_H-M "C C C A"
_symmetry_group_IT_number 68
_space_group.IT_coordinate_system_code '2'
_symmetry_cell_setting 'orthorhombic'
loop_
_space_group_symop_operation_xyz
x,y,z
-x,1/2-y,z
x,1/2-y,1/2-z
-x,y,1/2-z
-x,-y,-z
x,1/2+y,-z
-x,1/2+y,1/2+z
x,-y,1/2+z
1/2+x,1/2+y,z
1/2-x,-y,z
1/2+x,-y,1/2-z
1/2-x,1/2+y,1/2-z
1/2-x,1/2-y,-z
1/2+x,y,-z
1/2-x,y,1/2+z
1/2+x,1/2-y,1/2+z
loop_
_atom_site_type_symbol
_atom_site_label
_atom_site_fract_x
_atom_site_fract_y
_atom_site_fract_z
Si Si1 0.197792 0.750000 0.250000
Si Si2 0.000000 0.750000 0.888819
Si Si3 0.650655 0.034931 0.193761
Si Si4 0.420763 0.446621 0.547395
Si Si5 0.750000 0.500000 0.542085
Si Si6 0.344073 0.618003 0.329440
O O1 0.139137 0.660102 0.208102
O O2 0.260406 0.690408 0.308196
O O3 0.943852 0.674229 0.942161
O O4 0.933840 0.813690 0.834955
O O5 0.750000 0.000000 0.165613
O O6 0.581320 0.004398 0.128119
O O7 0.632912 0.973736 0.270996
O O8 0.500000 0.500000 0.500000
O O9 0.322206 0.440835 0.509548
O O10 0.685743 0.426076 0.591002
#
# Coordination Sequence:
#
# PCOD8282368 Si02
#       6
#     8   8  16  16   8  16
#     4  10  20  39  74 103 132 196 234 290 375 405
#     4  12  26  45  72 108 137 194 242 292 365 424
#     4  10  21  42  69 104 143 184 239 297 349 426
#     4  12  27  45  68 107 148 187 236 295 363 438
#     4  12  24  48  70 100 154 184 224 312 350 422
#     4  11  23  43  72 106 140 181 250 296 344 429
#
# _framework density 21.293132
#
# number of rings (size 3 to 8) (size 9 to 14) (size 15 to 20)
#    0.000    0.889    6.667    2.667    0.000    6.667 
#    0.000    0.000    0.000    5.333    0.000    0.000 
#    0.000    0.000    0.000    0.000    0.000    0.000 
#
# Total GULP energy -446325.125567 kJ/mol
# GULP energy per Si atom -12397.920155 kJ/mol
# Density = 2.124467 g / cm^3
# Si number density = 21.293132 Si / 1000 Ang^3
#
#
#
# Elastic Constant Matrix: (Units=GPa)
#
#
# Indices 1 2 3 4 5 6 
#
# 1 95.4047 44.8042 53.5782 0.0000 0.0000 0.0000
# 2 44.8042 168.7017 70.0223 0.0000 0.0000 0.0000
# 3 53.5782 70.0223 128.0233 0.0000 0.0000 0.0000
# 4 0.0000 0.0000 0.0000 13.6772 0.0000 0.0000
# 5 0.0000 0.0000 0.0000 0.0000 44.4822 0.0000
# 6 0.0000 0.0000 0.0000 0.0000 0.0000 40.5019
#
#
#
# Elastic Compliance Matrix: (Units=1/GPa)
#
#
# Indices 1 2 3 4 5 6 
#
# 1 0.014057 -0.001671 -0.004969 0.000000 0.000000 0.000000
# 2 -0.001671 0.007867 -0.003604 0.000000 0.000000 0.000000
# 3 -0.004969 -0.003604 0.011862 0.000000 0.000000 0.000000
# 4 0.000000 0.000000 0.000000 0.073115 0.000000 0.000000
# 5 0.000000 0.000000 0.000000 0.000000 0.022481 0.000000
# 6 0.000000 0.000000 0.000000 0.000000 0.000000 0.024690
#
#
# Mechanical properties :
#
#
# Convention : Reuss Voigt Hill
#
# Bulk Modulus (GPa) = 75.19552 80.99324 78.09438
# Shear Modulus (GPa) = 27.93433 34.64724 31.29079
#
# Velocity S-wave (km/s) = 3.62594 4.03818 3.83760
# Velocity P-wave (km/s) = 7.27468 7.73708 7.50944
#
# Compressibility (1/GPa) = 0.01329866
#
# Stress axis : x y z
#
# Youngs Moduli (GPa) = 71.13974 127.11125 84.30519
#
# Poissons Ratio (x) = 0.21237 0.41891
# Poissons Ratio (y) = 0.11886 0.30381
# Poissons Ratio (z) = 0.35349 0.45807
#
# Static dielectric constant tensor:
#      x y z
#    x 3.850340 0.000000 0.000000 
#    y 0.000000 4.222360 0.000000 
#    z 0.000000 0.000000 3.859400 
# 
# 
# High freq. dielectric constant tensor:
#      x y z
#    x 1.833700 0.000000 0.000000 
#    y 0.000000 1.839070 0.000000 
#    z 0.000000 0.000000 1.842190 
# 
# From -- ./inp_files/29460.got.cif
#   From: 2010.03.12/outbox.cif.g09.slc.cpg/sg68_15_cif.got.tgz:29460.got - 2010.04.10 23:14:56.
