data_PCOD8282530
_publ_section_title
;
Structure prediction by ZEFSAII (Michael W. Deem and Ramdas Pophale) SiO2 
 PCOD8282530
Probable space group: C C C A
;
_chemical_formula_sum "Si O2"
_cell_formula_units_Z 80
_cell_length_a 21.192150
_cell_length_b 14.349039
_cell_length_c 13.039680
_cell_angle_alpha 90.000000
_cell_angle_beta 90.000000
_cell_angle_gamma 90.000000
_cell_volume 3965.197001
_symmetry_space_group_name_H-M "C C C A"
_symmetry_group_IT_number 68
_space_group.IT_coordinate_system_code '2'
_symmetry_cell_setting 'orthorhombic'
loop_
_space_group_symop_operation_xyz
x,y,z
-x,1/2-y,z
x,1/2-y,1/2-z
-x,y,1/2-z
-x,-y,-z
x,1/2+y,-z
-x,1/2+y,1/2+z
x,-y,1/2+z
1/2+x,1/2+y,z
1/2-x,-y,z
1/2+x,-y,1/2-z
1/2-x,1/2+y,1/2-z
1/2-x,1/2-y,-z
1/2+x,y,-z
1/2-x,y,1/2+z
1/2+x,1/2-y,1/2+z
loop_
_atom_site_type_symbol
_atom_site_label
_atom_site_fract_x
_atom_site_fract_y
_atom_site_fract_z
Si Si1 0.318394 0.953110 0.713855
Si Si2 0.930443 0.248529 0.414323
Si Si3 0.324123 0.335160 0.473820
Si Si4 0.071267 0.405147 0.257044
Si Si5 0.251304 0.192792 0.341253
O O1 0.340090 0.922912 0.599022
O O2 0.308679 0.867758 0.793893
O O3 0.250000 0.000000 0.705865
O O4 0.374084 0.017938 0.757288
O O5 0.884534 0.269606 0.508688
O O6 0.916950 0.147224 0.365168
O O7 0.923051 0.329771 0.331607
O O8 0.000000 0.250000 0.461557
O O9 0.274180 0.275441 0.412522
O O10 0.295978 0.367159 0.585934
O O11 0.000000 0.448747 0.250000
O O12 0.214747 0.250000 0.250000
#
# Coordination Sequence:
#
# PCOD8282530 Si02
#       5
#    16  16  16  16  16
#     4  11  23  37  57  91 119 146 193 241 295 343
#     4   9  19  38  61  81 107 158 202 227 282 351
#     4  10  21  37  60  85 115 150 193 242 286 343
#     4   9  20  39  60  82 117 157 192 237 288 347
#     4   9  21  38  57  82 117 156 188 232 294 350
#
# _framework density 20.175540999999999
#
# number of rings (size 3 to 8) (size 9 to 14) (size 15 to 20)
#    0.000    2.400    0.000    2.400   11.200    2.400 
#    3.600    2.000    0.000    0.000    0.000    0.000 
#    0.000    0.000    0.000    0.000    0.000    0.000 
#
# Total GULP energy -495543.397565 kJ/mol
# GULP energy per Si atom -12388.584939 kJ/mol
# Density = 2.012962 g / cm^3
# Si number density = 20.175541 Si / 1000 Ang^3
#
#
#
# Elastic Constant Matrix: (Units=GPa)
#
#
# Indices 1 2 3 4 5 6 
#
# 1 112.6847 27.6754 36.7099 0.0000 0.0000 0.0000
# 2 27.6754 62.9371 22.1977 0.0000 0.0000 0.0000
# 3 36.7099 22.1977 93.1279 0.0000 0.0000 0.0000
# 4 0.0000 0.0000 0.0000 19.7503 0.0000 0.0000
# 5 0.0000 0.0000 0.0000 0.0000 6.6317 0.0000
# 6 0.0000 0.0000 0.0000 0.0000 0.0000 36.5970
#
#
#
# Elastic Compliance Matrix: (Units=1/GPa)
#
#
# Indices 1 2 3 4 5 6 
#
# 1 0.010869 -0.003568 -0.003434 0.000000 0.000000 0.000000
# 2 -0.003568 0.018519 -0.003007 0.000000 0.000000 0.000000
# 3 -0.003434 -0.003007 0.012808 0.000000 0.000000 0.000000
# 4 0.000000 0.000000 0.000000 0.050632 0.000000 0.000000
# 5 0.000000 0.000000 0.000000 0.000000 0.150791 0.000000
# 6 0.000000 0.000000 0.000000 0.000000 0.000000 0.027325
#
#
# Mechanical properties :
#
#
# Convention : Reuss Voigt Hill
#
# Bulk Modulus (GPa) = 45.09224 49.10175 47.09700
# Shear Modulus (GPa) = 16.75848 24.74024 20.74936
#
# Velocity S-wave (km/s) = 2.88520 3.50558 3.21041
# Velocity P-wave (km/s) = 5.78771 6.38558 6.09398
#
# Compressibility (1/GPa) = 0.02217676
#
# Stress axis : x y z
#
# Youngs Moduli (GPa) = 92.00087 53.99927 78.07360
#
# Poissons Ratio (x) = 0.19269 0.26811
# Poissons Ratio (y) = 0.32830 0.23480
# Poissons Ratio (z) = 0.31593 0.16240
#
# Static dielectric constant tensor:
#      x y z
#    x 3.925830 0.000000 0.000000 
#    y 0.000000 3.657740 0.000000 
#    z 0.000000 0.000000 4.136520 
# 
# 
# High freq. dielectric constant tensor:
#      x y z
#    x 1.785500 0.000000 0.000000 
#    y 0.000000 1.768220 0.000000 
#    z 0.000000 0.000000 1.785550 
# 
# From -- ./inp_files/13199.got.cif
#   From: 2010.03.12/outbox.cif.g09.slc.cpg/sg68_7_cif.got.tgz:13199.got - 2010.04.10 23:14:56.
