data_PCOD8282090
_publ_section_title
;
Structure prediction by ZEFSAII (Michael W. Deem and Ramdas Pophale) SiO2 
 PCOD8282090
Probable space group: C C C A
;
_chemical_formula_sum "Si O2"
_cell_formula_units_Z 80
_cell_length_a 25.843179
_cell_length_b 9.509363
_cell_length_c 16.231728
_cell_angle_alpha 90.000000
_cell_angle_beta 90.000000
_cell_angle_gamma 90.000000
_cell_volume 3988.982382
_symmetry_space_group_name_H-M "C C C A"
_symmetry_group_IT_number 68
_space_group.IT_coordinate_system_code '2'
_symmetry_cell_setting 'orthorhombic'
loop_
_space_group_symop_operation_xyz
x,y,z
-x,1/2-y,z
x,1/2-y,1/2-z
-x,y,1/2-z
-x,-y,-z
x,1/2+y,-z
-x,1/2+y,1/2+z
x,-y,1/2+z
1/2+x,1/2+y,z
1/2-x,-y,z
1/2+x,-y,1/2-z
1/2-x,1/2+y,1/2-z
1/2-x,1/2-y,-z
1/2+x,y,-z
1/2-x,y,1/2+z
1/2+x,1/2-y,1/2+z
loop_
_atom_site_type_symbol
_atom_site_label
_atom_site_fract_x
_atom_site_fract_y
_atom_site_fract_z
Si Si1 0.942188 0.252872 0.847965
Si Si2 0.291187 0.238975 0.386345
Si Si3 0.323673 0.245595 0.574422
Si Si4 0.637345 0.474443 0.156694
Si Si5 0.365470 0.492786 0.157156
O O1 0.943078 0.250000 0.750000
O O2 0.911622 0.114093 0.878340
O O3 0.912465 0.394670 0.876021
O O4 0.000000 0.250000 0.885297
O O5 0.310297 0.261353 0.479499
O O6 0.229647 0.242460 0.374646
O O7 0.314188 0.368210 0.334130
O O8 0.311558 0.090857 0.352536
O O9 0.363238 0.367192 0.602285
O O10 0.351019 0.097217 0.591943
O O11 0.626149 0.536357 0.247526
#
# Coordination Sequence:
#
# PCOD8282090 Si02
#       5
#    16  16  16  16  16
#     4   8  16  34  56  75 100 135 171 209 264 325
#     4  10  21  35  50  70 106 150 171 189 250 323
#     4  11  21  33  50  76 108 137 169 210 252 298
#     4  10  20  33  53  78 100 131 175 217 253 294
#     4  10  20  33  53  78 100 131 175 217 253 294
#
# _framework density 20.055239
#
# number of rings (size 3 to 8) (size 9 to 14) (size 15 to 20)
#    0.000    2.200    0.000    4.800    0.000    8.000 
#    0.000    1.000    0.000   24.000    0.000    0.000 
#    0.000    0.000    0.000    0.000    0.000    0.000 
#
# Total GULP energy -496003.466878 kJ/mol
# GULP energy per Si atom -12400.086672 kJ/mol
# Density = 2.000959 g / cm^3
# Si number density = 20.055239 Si / 1000 Ang^3
#
#
#
# Elastic Constant Matrix: (Units=GPa)
#
#
# Indices 1 2 3 4 5 6 
#
# 1 131.3934 37.0032 4.3958 0.0000 0.0000 0.0000
# 2 37.0032 99.3273 -2.9469 0.0000 0.0000 0.0000
# 3 4.3958 -2.9469 30.1052 0.0000 0.0000 0.0000
# 4 0.0000 0.0000 0.0000 19.1878 0.0000 0.0000
# 5 0.0000 0.0000 0.0000 0.0000 18.8638 0.0000
# 6 0.0000 0.0000 0.0000 0.0000 0.0000 17.2688
#
#
#
# Elastic Compliance Matrix: (Units=1/GPa)
#
#
# Indices 1 2 3 4 5 6 
#
# 1 0.008576 -0.003242 -0.001570 0.000000 0.000000 0.000000
# 2 -0.003242 0.011322 0.001582 0.000000 0.000000 0.000000
# 3 -0.001570 0.001582 0.033601 0.000000 0.000000 0.000000
# 4 0.000000 0.000000 0.000000 0.052116 0.000000 0.000000
# 5 0.000000 0.000000 0.000000 0.000000 0.053012 0.000000
# 6 0.000000 0.000000 0.000000 0.000000 0.000000 0.057908
#
#
# Mechanical properties :
#
#
# Convention : Reuss Voigt Hill
#
# Bulk Modulus (GPa) = 21.25838 37.52558 29.39198
# Shear Modulus (GPa) = 20.94908 25.88900 23.41904
#
# Velocity S-wave (km/s) = 3.23549 3.59679 3.42091
# Velocity P-wave (km/s) = 4.95790 6.00007 5.50371
#
# Compressibility (1/GPa) = 0.04704028
#
# Stress axis : x y z
#
# Youngs Moduli (GPa) = 116.60290 88.32177 29.76119
#
# Poissons Ratio (x) = 0.28630 0.04671
# Poissons Ratio (y) = 0.37797 -0.04707
# Poissons Ratio (z) = 0.18301 -0.13969
#
# Static dielectric constant tensor:
#      x y z
#    x 3.833790 0.000000 0.000000 
#    y 0.000000 3.573460 0.000000 
#    z 0.000000 0.000000 3.413440 
# 
# 
# High freq. dielectric constant tensor:
#      x y z
#    x 1.760750 0.000000 0.000000 
#    y 0.000000 1.782700 0.000000 
#    z 0.000000 0.000000 1.768340 
# 
# From -- ./inp_files/6226.got.cif
#   From: 2010.03.12/outbox.cif.g09.slc.cpg/sg68_4_cif.got.tgz:6226.got - 2010.04.10 23:14:56.
