data_PCOD8282722
_publ_section_title
;
Structure prediction by ZEFSAII (Michael W. Deem and Ramdas Pophale) SiO2 
 PCOD8282722
Probable space group: C C C A
;
_chemical_formula_sum "Si O2"
_cell_formula_units_Z 64
_cell_length_a 16.413109
_cell_length_b 10.492603
_cell_length_c 17.327805
_cell_angle_alpha 90.000000
_cell_angle_beta 90.000000
_cell_angle_gamma 90.000000
_cell_volume 2984.129368
_symmetry_space_group_name_H-M "C C C A"
_symmetry_group_IT_number 68
_space_group.IT_coordinate_system_code '2'
_symmetry_cell_setting 'orthorhombic'
loop_
_space_group_symop_operation_xyz
x,y,z
-x,1/2-y,z
x,1/2-y,1/2-z
-x,y,1/2-z
-x,-y,-z
x,1/2+y,-z
-x,1/2+y,1/2+z
x,-y,1/2+z
1/2+x,1/2+y,z
1/2-x,-y,z
1/2+x,-y,1/2-z
1/2-x,1/2+y,1/2-z
1/2-x,1/2-y,-z
1/2+x,y,-z
1/2-x,y,1/2+z
1/2+x,1/2-y,1/2+z
loop_
_atom_site_type_symbol
_atom_site_label
_atom_site_fract_x
_atom_site_fract_y
_atom_site_fract_z
Si Si1 0.500000 0.250000 0.587118
Si Si2 0.239663 0.191080 0.899985
Si Si3 0.750000 0.500000 0.267772
Si Si4 0.641556 0.913616 0.363425
Si Si5 0.632272 0.864706 0.984420
O O1 0.439563 0.172191 0.643753
O O2 0.450700 0.345668 0.531633
O O3 0.282534 0.328553 0.889887
O O4 0.154420 0.230230 0.940804
O O5 0.226270 0.122453 0.818768
O O6 0.295827 0.102087 0.954360
O O7 0.668214 0.526033 0.218258
O O8 0.621584 0.021042 0.425529
#
# Coordination Sequence:
#
# PCOD8282722 Si02
#       5
#     8  16   8  16  16
#     4  10  24  40  69  99 138 178 228 268 346 405
#     4  10  23  38  68 102 124 171 235 282 326 390
#     4  12  24  38  68  98 138 170 224 282 344 400
#     4  11  22  43  65 100 135 174 221 282 341 398
#     4  10  21  41  69  93 134 173 232 281 328 395
#
# _framework density 21.446791999999999
#
# number of rings (size 3 to 8) (size 9 to 14) (size 15 to 20)
#    0.000    1.500    2.500    1.500   10.500    0.000 
#    0.000   10.000    0.000    1.500    0.000    0.000 
#    0.000    0.000    0.000    0.000    0.000    0.000 
#
# Total GULP energy -396743.159501 kJ/mol
# GULP energy per Si atom -12398.223734 kJ/mol
# Density = 2.139798 g / cm^3
# Si number density = 21.446792 Si / 1000 Ang^3
#
#
#
# Elastic Constant Matrix: (Units=GPa)
#
#
# Indices 1 2 3 4 5 6 
#
# 1 102.2929 34.6200 46.1417 0.0000 0.0000 0.0000
# 2 34.6200 71.6427 54.6312 0.0000 0.0000 0.0000
# 3 46.1417 54.6312 136.7890 0.0000 0.0000 0.0000
# 4 0.0000 0.0000 0.0000 51.0208 0.0000 0.0000
# 5 0.0000 0.0000 0.0000 0.0000 23.6525 0.0000
# 6 0.0000 0.0000 0.0000 0.0000 0.0000 31.6972
#
#
#
# Elastic Compliance Matrix: (Units=1/GPa)
#
#
# Indices 1 2 3 4 5 6 
#
# 1 0.012275 -0.003989 -0.002547 0.000000 0.000000 0.000000
# 2 -0.003989 0.021367 -0.007188 0.000000 0.000000 0.000000
# 3 -0.002547 -0.007188 0.011041 0.000000 0.000000 0.000000
# 4 0.000000 0.000000 0.000000 0.019600 0.000000 0.000000
# 5 0.000000 0.000000 0.000000 0.000000 0.042279 0.000000
# 6 0.000000 0.000000 0.000000 0.000000 0.000000 0.031549
#
#
# Mechanical properties :
#
#
# Convention : Reuss Voigt Hill
#
# Bulk Modulus (GPa) = 58.02646 64.61228 61.31937
# Shear Modulus (GPa) = 29.18796 32.96288 31.07542
#
# Velocity S-wave (km/s) = 3.69310 3.92466 3.81064
# Velocity P-wave (km/s) = 6.73054 7.12246 6.92927
#
# Compressibility (1/GPa) = 0.01723352
#
# Stress axis : x y z
#
# Youngs Moduli (GPa) = 81.46637 46.80102 90.57478
#
# Poissons Ratio (x) = 0.18669 0.23073
# Poissons Ratio (y) = 0.32498 0.65105
# Poissons Ratio (z) = 0.20753 0.33641
#
# Static dielectric constant tensor:
#      x y z
#    x 3.782060 0.000000 0.000000 
#    y 0.000000 3.850440 0.000000 
#    z 0.000000 0.000000 3.959190 
# 
# 
# High freq. dielectric constant tensor:
#      x y z
#    x 1.820510 0.000000 0.000000 
#    y 0.000000 1.851270 0.000000 
#    z 0.000000 0.000000 1.842910 
# 
# From -- ./inp_files/31588.got.cif
#   From: 2010.03.12/outbox.cif.g09.slc.cpg/sg68_16_cif.got.tgz:31588.got - 2010.04.10 23:14:56.
