data_PCOD8282053
_publ_section_title
;
Structure prediction by ZEFSAII (Michael W. Deem and Ramdas Pophale) SiO2 
 PCOD8282053
Probable space group: C C C A
;
_chemical_formula_sum "Si O2"
_cell_formula_units_Z 96
_cell_length_a 16.842798
_cell_length_b 10.664735
_cell_length_c 25.733040
_cell_angle_alpha 90.000000
_cell_angle_beta 90.000000
_cell_angle_gamma 90.000000
_cell_volume 4622.270994
_symmetry_space_group_name_H-M "C C C A"
_symmetry_group_IT_number 68
_space_group.IT_coordinate_system_code '2'
_symmetry_cell_setting 'orthorhombic'
loop_
_space_group_symop_operation_xyz
x,y,z
-x,1/2-y,z
x,1/2-y,1/2-z
-x,y,1/2-z
-x,-y,-z
x,1/2+y,-z
-x,1/2+y,1/2+z
x,-y,1/2+z
1/2+x,1/2+y,z
1/2-x,-y,z
1/2+x,-y,1/2-z
1/2-x,1/2+y,1/2-z
1/2-x,1/2-y,-z
1/2+x,y,-z
1/2-x,y,1/2+z
1/2+x,1/2-y,1/2+z
loop_
_atom_site_type_symbol
_atom_site_label
_atom_site_fract_x
_atom_site_fract_y
_atom_site_fract_z
Si Si1 0.750000 0.500000 0.937948
Si Si2 0.235473 0.237158 0.101562
Si Si3 0.581706 0.093262 0.907719
Si Si4 0.000000 0.750000 0.514429
Si Si5 0.650140 0.884908 0.974027
Si Si6 0.771003 0.641743 0.712523
Si Si7 0.045279 0.620960 0.797088
O O1 0.739199 0.616618 0.898549
O O2 0.674221 0.462930 0.974335
O O3 0.140479 0.213878 0.097935
O O4 0.272877 0.185841 0.047980
O O5 0.263851 0.170613 0.154862
O O6 0.515458 0.128370 0.949862
O O7 0.541636 0.052319 0.852974
O O8 0.629760 0.974865 0.926700
O O9 0.077456 0.712952 0.481097
O O10 0.734665 0.750000 0.750000
O O11 0.750000 0.500000 0.729429
O O12 0.864984 0.650369 0.717215
O O13 0.000000 0.750000 0.804593
O O14 0.000000 0.545609 0.750000
#
# Coordination Sequence:
#
# PCOD8282053 Si02
#       7
#     8  16  16   8  16  16  16
#     4  12  22  38  68  90 130 178 232 272 324 414
#     4  11  23  41  65  94 129 175 225 274 337 400
#     4  11  21  38  63  90 125 165 215 274 328 394
#     4  12  24  36  55  96 129 160 226 266 326 390
#     4  12  23  42  61  91 132 179 217 275 338 399
#     4  11  24  43  71 104 137 174 224 289 343 409
#     4  10  19  39  66  98 124 167 224 273 329 405
#
# _framework density 20.769010000000002
#
# number of rings (size 3 to 8) (size 9 to 14) (size 15 to 20)
#    0.000    0.833    5.833    4.000    1.167    0.000 
#    0.000    1.667    0.000    0.500    0.000    0.000 
#    0.000    0.000    0.000    0.000    0.000    0.000 
#
# Total GULP energy -594750.055293 kJ/mol
# GULP energy per Si atom -12390.626152 kJ/mol
# Density = 2.072174 g / cm^3
# Si number density = 20.769010 Si / 1000 Ang^3
#
#
#
# Elastic Constant Matrix: (Units=GPa)
#
#
# Indices 1 2 3 4 5 6 
#
# 1 81.0548 16.8977 34.6327 0.0000 0.0000 0.0000
# 2 16.8977 109.9895 42.4340 0.0000 0.0000 0.0000
# 3 34.6327 42.4340 117.0168 0.0000 0.0000 0.0000
# 4 0.0000 0.0000 0.0000 27.2194 0.0000 0.0000
# 5 0.0000 0.0000 0.0000 0.0000 32.8002 0.0000
# 6 0.0000 0.0000 0.0000 0.0000 0.0000 26.1152
#
#
#
# Elastic Compliance Matrix: (Units=1/GPa)
#
#
# Indices 1 2 3 4 5 6 
#
# 1 0.014163 -0.000650 -0.003956 0.000000 0.000000 0.000000
# 2 -0.000650 0.010600 -0.003652 0.000000 0.000000 0.000000
# 3 -0.003956 -0.003652 0.011041 0.000000 0.000000 0.000000
# 4 0.000000 0.000000 0.000000 0.036739 0.000000 0.000000
# 5 0.000000 0.000000 0.000000 0.000000 0.030488 0.000000
# 6 0.000000 0.000000 0.000000 0.000000 0.000000 0.038292
#
#
# Mechanical properties :
#
#
# Convention : Reuss Voigt Hill
#
# Bulk Modulus (GPa) = 51.84213 55.10998 53.47606
# Shear Modulus (GPa) = 30.43814 31.50006 30.96910
#
# Velocity S-wave (km/s) = 3.83241 3.89869 3.86569
# Velocity P-wave (km/s) = 6.67822 6.84534 6.76230
#
# Compressibility (1/GPa) = 0.01928933
#
# Stress axis : x y z
#
# Youngs Moduli (GPa) = 70.60575 94.33567 90.57197
#
# Poissons Ratio (x) = 0.06128 0.35832
# Poissons Ratio (y) = 0.04586 0.33075
# Poissons Ratio (z) = 0.27933 0.34450
#
# Static dielectric constant tensor:
#      x y z
#    x 3.343360 0.000000 0.000000 
#    y 0.000000 3.591090 0.000000 
#    z 0.000000 0.000000 4.268780 
# 
# 
# High freq. dielectric constant tensor:
#      x y z
#    x 1.801530 0.000000 0.000000 
#    y 0.000000 1.791860 0.000000 
#    z 0.000000 0.000000 1.821760 
# 
# From -- ./inp_files/55217.got.cif
#   From: 2010.03.12/outbox.cif.g09.slc.cpg/sg68_28_cif.got.tgz:55217.got - 2010.04.10 23:14:56.
