data_PCOD8282956
_publ_section_title
;
Structure prediction by ZEFSAII (Michael W. Deem and Ramdas Pophale) SiO2 
 PCOD8282956
Probable space group: C C C A
;
_chemical_formula_sum "Si O2"
_cell_formula_units_Z 88
_cell_length_a 21.121207
_cell_length_b 18.317156
_cell_length_c 10.841242
_cell_angle_alpha 90.000000
_cell_angle_beta 90.000000
_cell_angle_gamma 90.000000
_cell_volume 4194.264513
_symmetry_space_group_name_H-M "C C C A"
_symmetry_group_IT_number 68
_space_group.IT_coordinate_system_code '2'
_symmetry_cell_setting 'orthorhombic'
loop_
_space_group_symop_operation_xyz
x,y,z
-x,1/2-y,z
x,1/2-y,1/2-z
-x,y,1/2-z
-x,-y,-z
x,1/2+y,-z
-x,1/2+y,1/2+z
x,-y,1/2+z
1/2+x,1/2+y,z
1/2-x,-y,z
1/2+x,-y,1/2-z
1/2-x,1/2+y,1/2-z
1/2-x,1/2-y,-z
1/2+x,y,-z
1/2-x,y,1/2+z
1/2+x,1/2-y,1/2+z
loop_
_atom_site_type_symbol
_atom_site_label
_atom_site_fract_x
_atom_site_fract_y
_atom_site_fract_z
Si Si1 0.002405 0.908639 0.615336
Si Si2 0.000000 0.250000 0.042070
Si Si3 0.626510 0.250319 0.390894
Si Si4 0.202538 0.393434 0.885606
Si Si5 0.802262 0.101109 0.604012
Si Si6 0.106767 0.006041 0.501525
O O1 0.000000 0.943224 0.750000
O O2 0.009157 0.821500 0.624950
O O3 0.064073 0.940324 0.550530
O O4 0.937106 0.929873 0.550316
O O5 0.938106 0.237616 0.961530
O O6 0.606240 0.250000 0.250000
O O7 0.675744 0.185903 0.419107
O O8 0.659687 0.325681 0.427715
O O9 0.228473 0.395038 0.742825
O O10 0.253503 0.410799 0.991576
O O11 0.148509 0.455601 0.892373
O O12 0.848692 0.030967 0.602170
#
# Coordination Sequence:
#
# PCOD8282956 Si02
#       6
#    16   8  16  16  16  16
#     4  11  24  40  63  96 130 166 209 264 322 377
#     4  12  20  44  66  92 122 168 208 264 316 384
#     4  10  22  42  66  94 124 162 217 262 316 380
#     4  11  24  43  67  94 128 171 216 265 315 376
#     4  11  24  43  67  94 128 171 216 265 315 376
#     4  11  23  42  64  92 133 165 214 258 320 387
#
# _framework density 20.981033
#
# number of rings (size 3 to 8) (size 9 to 14) (size 15 to 20)
#    0.000    1.091    3.636    2.727    0.000    4.364 
#    0.000    0.000    0.000    0.000    0.000    0.000 
#    0.000    0.000    0.000    0.000    0.000    0.000 
#
# Total GULP energy -545434.324232 kJ/mol
# GULP energy per Si atom -12396.234642 kJ/mol
# Density = 2.093328 g / cm^3
# Si number density = 20.981033 Si / 1000 Ang^3
#
#
#
# Elastic Constant Matrix: (Units=GPa)
#
#
# Indices 1 2 3 4 5 6 
#
# 1 71.0005 12.7530 51.5961 0.0000 0.0000 0.0000
# 2 12.7530 113.1005 15.5421 0.0000 0.0000 0.0000
# 3 51.5961 15.5421 121.9925 0.0000 0.0000 0.0000
# 4 0.0000 0.0000 0.0000 22.3635 0.0000 0.0000
# 5 0.0000 0.0000 0.0000 0.0000 20.3415 0.0000
# 6 0.0000 0.0000 0.0000 0.0000 0.0000 37.2643
#
#
#
# Elastic Compliance Matrix: (Units=1/GPa)
#
#
# Indices 1 2 3 4 5 6 
#
# 1 0.020477 -0.001139 -0.008516 0.000000 0.000000 0.000000
# 2 -0.001139 0.009063 -0.000673 0.000000 0.000000 0.000000
# 3 -0.008516 -0.000673 0.011885 0.000000 0.000000 0.000000
# 4 0.000000 0.000000 0.000000 0.044716 0.000000 0.000000
# 5 0.000000 0.000000 0.000000 0.000000 0.049161 0.000000
# 6 0.000000 0.000000 0.000000 0.000000 0.000000 0.026835
#
#
# Mechanical properties :
#
#
# Convention : Reuss Voigt Hill
#
# Bulk Modulus (GPa) = 48.14710 51.76399 49.95555
# Shear Modulus (GPa) = 26.35544 31.07401 28.71472
#
# Velocity S-wave (km/s) = 3.54807 3.85262 3.70348
# Velocity P-wave (km/s) = 6.30736 6.67200 6.49224
#
# Compressibility (1/GPa) = 0.02076968
#
# Stress axis : x y z
#
# Youngs Moduli (GPa) = 48.83452 110.34385 84.14227
#
# Poissons Ratio (x) = 0.12566 0.71653
# Poissons Ratio (y) = 0.05561 0.05662
# Poissons Ratio (z) = 0.41586 0.07426
#
# Static dielectric constant tensor:
#      x y z
#    x 3.716720 0.000000 0.000000 
#    y 0.000000 4.055170 0.000000 
#    z 0.000000 0.000000 3.637330 
# 
# 
# High freq. dielectric constant tensor:
#      x y z
#    x 1.820830 0.000000 0.000000 
#    y 0.000000 1.844030 0.000000 
#    z 0.000000 0.000000 1.814930 
# 
# From -- ./inp_files/15408.got.cif
#   From: 2010.03.12/outbox.cif.g09.slc.cpg/sg68_8_cif.got.tgz:15408.got - 2010.04.10 23:14:56.
