data_PCOD8282609
_publ_section_title
;
Structure prediction by ZEFSAII (Michael W. Deem and Ramdas Pophale) SiO2 
 PCOD8282609
Probable space group: C C C A
;
_chemical_formula_sum "Si O2"
_cell_formula_units_Z 88
_cell_length_a 14.146363
_cell_length_b 24.067170
_cell_length_c 11.748651
_cell_angle_alpha 90.000000
_cell_angle_beta 90.000000
_cell_angle_gamma 90.000000
_cell_volume 3999.980063
_symmetry_space_group_name_H-M "C C C A"
_symmetry_group_IT_number 68
_space_group.IT_coordinate_system_code '2'
_symmetry_cell_setting 'orthorhombic'
loop_
_space_group_symop_operation_xyz
x,y,z
-x,1/2-y,z
x,1/2-y,1/2-z
-x,y,1/2-z
-x,-y,-z
x,1/2+y,-z
-x,1/2+y,1/2+z
x,-y,1/2+z
1/2+x,1/2+y,z
1/2-x,-y,z
1/2+x,-y,1/2-z
1/2-x,1/2+y,1/2-z
1/2-x,1/2-y,-z
1/2+x,y,-z
1/2-x,y,1/2+z
1/2+x,1/2-y,1/2+z
loop_
_atom_site_type_symbol
_atom_site_label
_atom_site_fract_x
_atom_site_fract_y
_atom_site_fract_z
Si Si1 0.850060 0.321112 0.910956
Si Si2 0.906166 0.328550 0.313105
Si Si3 0.250000 0.000000 0.361625
Si Si4 0.000000 0.750000 0.526627
Si Si5 0.238414 0.750000 0.750000
Si Si6 0.192132 0.395794 0.005760
Si Si7 0.109446 0.580686 0.260644
O O1 0.801819 0.265137 0.859977
O O2 0.871378 0.365083 0.813190
O O3 0.950775 0.300355 0.958353
O O4 0.780945 0.352347 0.001671
O O5 0.825084 0.306080 0.226559
O O6 0.876104 0.379203 0.390482
O O7 0.000000 0.348054 0.250000
O O8 0.919300 0.275213 0.394107
O O9 0.282361 0.956457 0.454806
O O10 0.170279 0.972649 0.280239
O O11 0.137255 0.400371 0.887427
O O12 0.000000 0.563174 0.250000
#
# Coordination Sequence:
#
# PCOD8282609 Si02
#       7
#    16  16   8   8   8  16  16
#     4  10  26  37  63  99 135 180 223 273 334 404
#     4  11  22  41  62  93 132 178 229 267 322 412
#     4  10  24  48  70 100 130 178 230 294 358 414
#     4  12  23  39  64  94 138 182 226 266 332 398
#     4  10  21  39  56  84 134 178 214 263 315 378
#     4  10  24  44  69  96 135 178 226 284 356 403
#     4  11  24  45  69 102 138 172 234 293 345 415
#
# _framework density 22.000108999999998
#
# number of rings (size 3 to 8) (size 9 to 14) (size 15 to 20)
#    0.000    1.455    1.818    1.636    7.636    4.364 
#    0.000    0.000    0.000    0.000    0.000    0.000 
#    0.000    0.000    0.000    0.000    0.000    0.000 
#
# Total GULP energy -545200.631659 kJ/mol
# GULP energy per Si atom -12390.923447 kJ/mol
# Density = 2.195004 g / cm^3
# Si number density = 22.000109 Si / 1000 Ang^3
#
#
#
# Elastic Constant Matrix: (Units=GPa)
#
#
# Indices 1 2 3 4 5 6 
#
# 1 139.3545 53.6304 60.3304 0.0000 0.0000 0.0000
# 2 53.6304 113.8799 52.9010 0.0000 0.0000 0.0000
# 3 60.3304 52.9010 105.1177 0.0000 0.0000 0.0000
# 4 0.0000 0.0000 0.0000 30.0968 0.0000 0.0000
# 5 0.0000 0.0000 0.0000 0.0000 47.3320 0.0000
# 6 0.0000 0.0000 0.0000 0.0000 0.0000 25.9685
#
#
#
# Elastic Compliance Matrix: (Units=1/GPa)
#
#
# Indices 1 2 3 4 5 6 
#
# 1 0.010150 -0.002707 -0.004463 0.000000 0.000000 0.000000
# 2 -0.002707 0.012182 -0.004577 0.000000 0.000000 0.000000
# 3 -0.004463 -0.004577 0.014378 0.000000 0.000000 0.000000
# 4 0.000000 0.000000 0.000000 0.033226 0.000000 0.000000
# 5 0.000000 0.000000 0.000000 0.000000 0.021127 0.000000
# 6 0.000000 0.000000 0.000000 0.000000 0.000000 0.038508
#
#
# Mechanical properties :
#
#
# Convention : Reuss Voigt Hill
#
# Bulk Modulus (GPa) = 75.66590 76.89728 76.28159
# Shear Modulus (GPa) = 31.75181 33.44550 32.59865
#
# Velocity S-wave (km/s) = 3.80314 3.90326 3.85353
# Velocity P-wave (km/s) = 7.33166 7.43928 7.38567
#
# Compressibility (1/GPa) = 0.01321599
#
# Stress axis : x y z
#
# Youngs Moduli (GPa) = 98.52394 82.08730 69.54954
#
# Poissons Ratio (x) = 0.22218 0.31041
# Poissons Ratio (y) = 0.26667 0.31835
# Poissons Ratio (z) = 0.43973 0.37574
#
# Static dielectric constant tensor:
#      x y z
#    x 4.167970 0.000000 0.000000 
#    y 0.000000 3.704720 0.000000 
#    z 0.000000 0.000000 3.890360 
# 
# 
# High freq. dielectric constant tensor:
#      x y z
#    x 1.875860 0.000000 0.000000 
#    y 0.000000 1.864460 0.000000 
#    z 0.000000 0.000000 1.866420 
# 
# From -- ./inp_files/13379.got.cif
#   From: 2010.03.12/outbox.cif.g09.slc.cpg/sg68_7_cif.got.tgz:13379.got - 2010.04.10 23:14:56.
