data_PCOD8282428
_publ_section_title
;
Structure prediction by ZEFSAII (Michael W. Deem and Ramdas Pophale) SiO2 
 PCOD8282428
Probable space group: C C C A
;
_chemical_formula_sum "Si O2"
_cell_formula_units_Z 72
_cell_length_a 19.558403
_cell_length_b 21.710423
_cell_length_c 8.641216
_cell_angle_alpha 90.000000
_cell_angle_beta 90.000000
_cell_angle_gamma 90.000000
_cell_volume 3669.243528
_symmetry_space_group_name_H-M "C C C A"
_symmetry_group_IT_number 68
_space_group.IT_coordinate_system_code '2'
_symmetry_cell_setting 'orthorhombic'
loop_
_space_group_symop_operation_xyz
x,y,z
-x,1/2-y,z
x,1/2-y,1/2-z
-x,y,1/2-z
-x,-y,-z
x,1/2+y,-z
-x,1/2+y,1/2+z
x,-y,1/2+z
1/2+x,1/2+y,z
1/2-x,-y,z
1/2+x,-y,1/2-z
1/2-x,1/2+y,1/2-z
1/2-x,1/2-y,-z
1/2+x,y,-z
1/2-x,y,1/2+z
1/2+x,1/2-y,1/2+z
loop_
_atom_site_type_symbol
_atom_site_label
_atom_site_fract_x
_atom_site_fract_y
_atom_site_fract_z
Si Si1 0.568664 0.169464 0.496181
Si Si2 0.809047 0.920829 0.530832
Si Si3 0.500000 0.250000 0.250000
Si Si4 0.000000 0.250000 0.250000
Si Si5 0.977973 0.936928 0.926117
Si Si6 0.326321 0.052262 0.610236
O O1 0.645253 0.140129 0.498058
O O2 0.554857 0.211767 0.349029
O O3 0.551753 0.207728 0.651370
O O4 0.515954 0.114281 0.476361
O O5 0.729800 0.908589 0.486470
O O6 0.814503 0.940266 0.708048
O O7 0.829024 0.979185 0.424269
O O8 0.898565 0.920379 0.940474
O O9 0.000000 0.936338 0.750000
O O10 0.000000 0.000000 0.000000
#
# Coordination Sequence:
#
# PCOD8282428 Si02
#       6
#    16  16   4   4  16  16
#     4  11  22  42  63  91 122 173 216 273 312 374
#     4  11  22  37  61  88 136 165 198 250 335 389
#     4  10  28  38  66  92 124 174 234 272 296 366
#     4  10  20  42  66  84 124 174 248 254 304 358
#     4  12  22  37  64  98 129 161 206 266 332 387
#     4  11  21  36  57  99 128 166 193 254 333 410
#
# _framework density 19.622574
#
# number of rings (size 3 to 8) (size 9 to 14) (size 15 to 20)
#    0.000    0.889    5.556    2.667    1.556    3.556 
#    0.000    0.000    0.000   22.667    0.000    0.000 
#    0.000    0.000    0.000    0.000    0.000    0.000 
#
# Total GULP energy -446262.234716 kJ/mol
# GULP energy per Si atom -12396.173187 kJ/mol
# Density = 1.957791 g / cm^3
# Si number density = 19.622574 Si / 1000 Ang^3
#
#
#
# Elastic Constant Matrix: (Units=GPa)
#
#
# Indices 1 2 3 4 5 6 
#
# 1 184.5176 58.8886 46.2035 0.0000 0.0000 0.0000
# 2 58.8886 118.7333 54.2322 0.0000 0.0000 0.0000
# 3 46.2035 54.2322 112.5961 0.0000 0.0000 0.0000
# 4 0.0000 0.0000 0.0000 33.9844 0.0000 0.0000
# 5 0.0000 0.0000 0.0000 0.0000 28.8473 0.0000
# 6 0.0000 0.0000 0.0000 0.0000 0.0000 42.5370
#
#
#
# Elastic Compliance Matrix: (Units=1/GPa)
#
#
# Indices 1 2 3 4 5 6 
#
# 1 0.006620 -0.002619 -0.001455 0.000000 0.000000 0.000000
# 2 -0.002619 0.011834 -0.004625 0.000000 0.000000 0.000000
# 3 -0.001455 -0.004625 0.011706 0.000000 0.000000 0.000000
# 4 0.000000 0.000000 0.000000 0.029425 0.000000 0.000000
# 5 0.000000 0.000000 0.000000 0.000000 0.034665 0.000000
# 6 0.000000 0.000000 0.000000 0.000000 0.000000 0.023509
#
#
# Mechanical properties :
#
#
# Convention : Reuss Voigt Hill
#
# Bulk Modulus (GPa) = 78.35958 81.61062 79.98510
# Shear Modulus (GPa) = 35.86539 38.17525 37.02032
#
# Velocity S-wave (km/s) = 4.27987 4.41554 4.34823
# Velocity P-wave (km/s) = 8.02765 8.22657 8.12772
#
# Compressibility (1/GPa) = 0.01276168
#
# Stress axis : x y z
#
# Youngs Moduli (GPa) = 151.06650 84.50572 85.42539
#
# Poissons Ratio (x) = 0.22128 0.12430
# Poissons Ratio (y) = 0.39557 0.39510
# Poissons Ratio (z) = 0.21982 0.39085
#
# Static dielectric constant tensor:
#      x y z
#    x 3.992750 0.000000 0.000000 
#    y 0.000000 2.809110 0.000000 
#    z 0.000000 0.000000 3.482200 
# 
# 
# High freq. dielectric constant tensor:
#      x y z
#    x 1.771760 0.000000 0.000000 
#    y 0.000000 1.749420 0.000000 
#    z 0.000000 0.000000 1.777550 
# 
# From -- ./inp_files/7050.got.cif
#   From: 2010.03.12/outbox.cif.g09.slc.cpg/sg68_4_cif.got.tgz:7050.got - 2010.04.10 23:14:56.
