data_PCOD8282826
_publ_section_title
;
Structure prediction by ZEFSAII (Michael W. Deem and Ramdas Pophale) SiO2 
 PCOD8282826
Probable space group: C C C A
;
_chemical_formula_sum "Si O2"
_cell_formula_units_Z 68
_cell_length_a 28.010768
_cell_length_b 7.580898
_cell_length_c 15.381240
_cell_angle_alpha 90.000000
_cell_angle_beta 90.000000
_cell_angle_gamma 90.000000
_cell_volume 3266.156711
_symmetry_space_group_name_H-M "C C C A"
_symmetry_group_IT_number 68
_space_group.IT_coordinate_system_code '2'
_symmetry_cell_setting 'orthorhombic'
loop_
_space_group_symop_operation_xyz
x,y,z
-x,1/2-y,z
x,1/2-y,1/2-z
-x,y,1/2-z
-x,-y,-z
x,1/2+y,-z
-x,1/2+y,1/2+z
x,-y,1/2+z
1/2+x,1/2+y,z
1/2-x,-y,z
1/2+x,-y,1/2-z
1/2-x,1/2+y,1/2-z
1/2-x,1/2-y,-z
1/2+x,y,-z
1/2-x,y,1/2+z
1/2+x,1/2-y,1/2+z
loop_
_atom_site_type_symbol
_atom_site_label
_atom_site_fract_x
_atom_site_fract_y
_atom_site_fract_z
Si Si1 0.144978 0.897836 0.682703
Si Si2 0.447540 0.550805 0.891308
Si Si3 0.500000 0.750000 0.750000
Si Si4 0.804920 0.250000 0.750000
Si Si5 0.238532 0.300305 0.401160
Si Si6 0.500000 0.250000 0.976233
O O1 0.125027 0.750000 0.750000
O O2 0.182997 0.786515 0.624742
O O3 0.104490 0.963858 0.615896
O O4 0.164127 0.074782 0.730615
O O5 0.462930 0.628597 0.800180
O O6 0.487757 0.409740 0.914261
O O7 0.452946 0.703288 0.964896
O O8 0.771912 0.194211 0.667018
O O9 0.250000 0.500000 0.385163
O O10 0.250000 0.250000 0.500000
#
# Coordination Sequence:
#
# PCOD8282826 Si02
#       6
#    16  16   4   8  16   8
#     4  11  24  40  67  96 126 174 225 279 324 397
#     4  10  22  41  63  97 123 176 212 271 335 401
#     4  10  22  38  68  94 132 164 220 262 352 392
#     4  10  23  46  58  91 144 167 218 282 329 392
#     4  10  23  39  65  92 128 178 216 270 339 386
#     4   9  22  44  64  85 146 162 210 283 338 398
#
# _framework density 20.819575
#
# number of rings (size 3 to 8) (size 9 to 14) (size 15 to 20)
#    0.000    1.882    1.176    0.706    6.588    3.765 
#    4.235    0.000    0.000    0.000    0.000    0.000 
#    0.000    0.000    0.000    0.000    0.000    0.000 
#
# Total GULP energy -421289.378103 kJ/mol
# GULP energy per Si atom -12390.864062 kJ/mol
# Density = 2.077219 g / cm^3
# Si number density = 20.819575 Si / 1000 Ang^3
#
#
#
# Elastic Constant Matrix: (Units=GPa)
#
#
# Indices 1 2 3 4 5 6 
#
# 1 108.6912 32.7846 45.9403 0.0000 0.0000 0.0000
# 2 32.7846 87.2474 38.2405 0.0000 0.0000 0.0000
# 3 45.9403 38.2405 131.3556 0.0000 0.0000 0.0000
# 4 0.0000 0.0000 0.0000 25.3561 0.0000 0.0000
# 5 0.0000 0.0000 0.0000 0.0000 24.5595 0.0000
# 6 0.0000 0.0000 0.0000 0.0000 0.0000 24.8748
#
#
#
# Elastic Compliance Matrix: (Units=1/GPa)
#
#
# Indices 1 2 3 4 5 6 
#
# 1 0.011406 -0.002909 -0.003142 0.000000 0.000000 0.000000
# 2 -0.002909 0.013880 -0.003023 0.000000 0.000000 0.000000
# 3 -0.003142 -0.003023 0.009592 0.000000 0.000000 0.000000
# 4 0.000000 0.000000 0.000000 0.039438 0.000000 0.000000
# 5 0.000000 0.000000 0.000000 0.000000 0.040717 0.000000
# 6 0.000000 0.000000 0.000000 0.000000 0.000000 0.040201
#
#
# Mechanical properties :
#
#
# Convention : Reuss Voigt Hill
#
# Bulk Modulus (GPa) = 59.77662 62.35834 61.06748
# Shear Modulus (GPa) = 27.93921 28.98000 28.45960
#
# Velocity S-wave (km/s) = 3.66726 3.73494 3.70126
# Velocity P-wave (km/s) = 6.83417 6.97256 6.90371
#
# Compressibility (1/GPa) = 0.01672895
#
# Stress axis : x y z
#
# Youngs Moduli (GPa) = 87.67408 72.04714 104.25229
#
# Poissons Ratio (x) = 0.20956 0.32759
# Poissons Ratio (y) = 0.25501 0.31520
# Poissons Ratio (z) = 0.27550 0.21783
#
# Static dielectric constant tensor:
#      x y z
#    x 3.933880 0.000000 0.000000 
#    y 0.000000 4.394290 0.000000 
#    z 0.000000 0.000000 3.559610 
# 
# 
# High freq. dielectric constant tensor:
#      x y z
#    x 1.801880 0.000000 0.000000 
#    y 0.000000 1.828180 0.000000 
#    z 0.000000 0.000000 1.817000 
# 
# From -- ./inp_files/19426.got.cif
#   From: 2010.03.12/outbox.cif.g09.slc.cpg/sg68_10_cif.got.tgz:19426.got - 2010.04.10 23:14:56.
