data_PCOD8282565
_publ_section_title
;
Structure prediction by ZEFSAII (Michael W. Deem and Ramdas Pophale) SiO2 
 PCOD8282565
Probable space group: C C C A
;
_chemical_formula_sum "Si O2"
_cell_formula_units_Z 56
_cell_length_a 23.334936
_cell_length_b 5.015075
_cell_length_c 24.072501
_cell_angle_alpha 90.000000
_cell_angle_beta 90.000000
_cell_angle_gamma 90.000000
_cell_volume 2817.119435
_symmetry_space_group_name_H-M "C C C A"
_symmetry_group_IT_number 68
_space_group.IT_coordinate_system_code '2'
_symmetry_cell_setting 'orthorhombic'
loop_
_space_group_symop_operation_xyz
x,y,z
-x,1/2-y,z
x,1/2-y,1/2-z
-x,y,1/2-z
-x,-y,-z
x,1/2+y,-z
-x,1/2+y,1/2+z
x,-y,1/2+z
1/2+x,1/2+y,z
1/2-x,-y,z
1/2+x,-y,1/2-z
1/2-x,1/2+y,1/2-z
1/2-x,1/2-y,-z
1/2+x,y,-z
1/2-x,y,1/2+z
1/2+x,1/2-y,1/2+z
loop_
_atom_site_type_symbol
_atom_site_label
_atom_site_fract_x
_atom_site_fract_y
_atom_site_fract_z
Si Si1 0.000000 0.750000 0.461430
Si Si2 0.566966 0.269629 0.815023
Si Si3 0.817458 0.544742 0.466831
Si Si4 0.896792 0.737626 0.121842
O O1 0.056121 0.753641 0.425064
O O2 0.000000 0.500000 0.500000
O O3 0.500000 0.250000 0.831035
O O4 0.577285 0.250000 0.750000
O O5 0.588521 0.562743 0.828745
O O6 0.604490 0.055028 0.850053
O O7 0.839846 0.252799 0.485445
O O8 0.750000 0.500000 0.463140
O O9 0.838125 0.660166 0.407301
#
# Coordination Sequence:
#
# PCOD8282565 Si02
#       4
#     8  16  16  16
#     4  12  22  32  49  80 117 146 178 226 286 344
#     4  11  22  38  57  82 114 151 196 238 286 350
#     4  10  21  38  59  84 114 152 193 232 280 346
#     4  12  21  37  57  83 115 152 190 236 289 344
#
# _framework density 19.878461999999999
#
# number of rings (size 3 to 8) (size 9 to 14) (size 15 to 20)
#    0.000    0.857    2.857    6.000    0.000    2.286 
#    0.000    0.000    0.000    3.429    0.000    0.000 
#    0.000    0.000    0.000    0.000    0.000    0.000 
#
# Total GULP energy -347066.058996 kJ/mol
# GULP energy per Si atom -12395.216393 kJ/mol
# Density = 1.983322 g / cm^3
# Si number density = 19.878462 Si / 1000 Ang^3
#
#
#
# Elastic Constant Matrix: (Units=GPa)
#
#
# Indices 1 2 3 4 5 6 
#
# 1 40.0881 21.2797 26.3032 0.0000 0.0000 0.0000
# 2 21.2797 117.8222 40.1402 0.0000 0.0000 0.0000
# 3 26.3032 40.1402 103.6709 0.0000 0.0000 0.0000
# 4 0.0000 0.0000 0.0000 244.4305 0.0000 0.0000
# 5 0.0000 0.0000 0.0000 0.0000 23.3958 0.0000
# 6 0.0000 0.0000 0.0000 0.0000 0.0000 25.8208
#
#
#
# Elastic Compliance Matrix: (Units=1/GPa)
#
#
# Indices 1 2 3 4 5 6 
#
# 1 0.031045 -0.003368 -0.006573 0.000000 0.000000 0.000000
# 2 -0.003368 0.010142 -0.003073 0.000000 0.000000 0.000000
# 3 -0.006573 -0.003073 0.012503 0.000000 0.000000 0.000000
# 4 0.000000 0.000000 0.000000 0.004091 0.000000 0.000000
# 5 0.000000 0.000000 0.000000 0.000000 0.042743 0.000000
# 6 0.000000 0.000000 0.000000 0.000000 0.000000 0.038728
#
#
# Mechanical properties :
#
#
# Convention : Reuss Voigt Hill
#
# Bulk Modulus (GPa) = 36.14718 48.55859 42.35288
# Shear Modulus (GPa) = 28.65311 70.31996 49.48653
#
# Velocity S-wave (km/s) = 3.80072 5.95414 4.99486
# Velocity P-wave (km/s) = 6.12243 8.47052 7.39033
#
# Compressibility (1/GPa) = 0.02766468
#
# Stress axis : x y z
#
# Youngs Moduli (GPa) = 32.21092 98.59612 79.97948
#
# Poissons Ratio (x) = 0.33205 0.52569
# Poissons Ratio (y) = 0.10848 0.24574
# Poissons Ratio (z) = 0.21172 0.30294
#
# Static dielectric constant tensor:
#      x y z
#    x 3.605440 0.000000 0.000000 
#    y 0.000000 4.210470 0.000000 
#    z 0.000000 0.000000 3.596700 
# 
# 
# High freq. dielectric constant tensor:
#      x y z
#    x 1.748720 0.000000 0.000000 
#    y 0.000000 1.803540 0.000000 
#    z 0.000000 0.000000 1.776220 
# 
# From -- ./inp_files/34899.got.cif
#   From: 2010.03.12/outbox.cif.g09.slc.cpg/sg68_18_cif.got.tgz:34899.got - 2010.04.10 23:14:56.
