data_PCOD8282106
_publ_section_title
;
Structure prediction by ZEFSAII (Michael W. Deem and Ramdas Pophale) SiO2 
 PCOD8282106
Probable space group: C C C A
;
_chemical_formula_sum "Si O2"
_cell_formula_units_Z 88
_cell_length_a 4.921576
_cell_length_b 22.460865
_cell_length_c 39.256040
_cell_angle_alpha 90.000000
_cell_angle_beta 90.000000
_cell_angle_gamma 90.000000
_cell_volume 4339.474703
_symmetry_space_group_name_H-M "C C C A"
_symmetry_group_IT_number 68
_space_group.IT_coordinate_system_code '2'
_symmetry_cell_setting 'orthorhombic'
loop_
_space_group_symop_operation_xyz
x,y,z
-x,1/2-y,z
x,1/2-y,1/2-z
-x,y,1/2-z
-x,-y,-z
x,1/2+y,-z
-x,1/2+y,1/2+z
x,-y,1/2+z
1/2+x,1/2+y,z
1/2-x,-y,z
1/2+x,-y,1/2-z
1/2-x,1/2+y,1/2-z
1/2-x,1/2-y,-z
1/2+x,y,-z
1/2-x,y,1/2+z
1/2+x,1/2-y,1/2+z
loop_
_atom_site_type_symbol
_atom_site_label
_atom_site_fract_x
_atom_site_fract_y
_atom_site_fract_z
Si Si1 0.113108 0.315467 0.161493
Si Si2 0.586120 0.875232 0.093054
Si Si3 0.500000 0.458832 0.250000
Si Si4 0.898376 0.615015 0.183382
Si Si5 0.495878 0.819608 0.478589
Si Si6 0.582995 0.941081 0.885623
O O1 0.170464 0.325579 0.121128
O O2 0.396814 0.328399 0.180904
O O3 0.000000 0.250000 0.168530
O O4 0.906267 0.363103 0.177162
O O5 0.608416 0.851714 0.055064
O O6 0.271572 0.888307 0.100388
O O7 0.786256 0.933207 0.096692
O O8 0.750000 0.500000 0.261481
O O9 0.589484 0.416306 0.219516
O O10 0.968283 0.565231 0.154811
O O11 0.500000 0.750000 0.470857
O O12 0.294979 0.838356 0.509335
O O13 0.750000 0.000000 0.895090
#
# Coordination Sequence:
#
# PCOD8282106 Si02
#       6
#    16  16   8  16  16  16
#     4  10  20  37  58  82 114 145 180 225 272 326
#     4  10  20  34  56  81 107 141 181 224 269 324
#     4  12  24  40  61  82 113 148 184 232 280 322
#     4  10  22  37  56  85 110 142 186 225 273 329
#     4  10  20  34  54  80 109 139 173 217 271 327
#     4  10  20  35  56  79 106 139 182 230 272 313
#
# _framework density 20.278952
#
# number of rings (size 3 to 8) (size 9 to 14) (size 15 to 20)
#    0.000    1.818    0.000    4.364    0.000    2.909 
#    0.000    8.182    0.000   10.909    0.000    0.000 
#    0.000    0.000    0.000    0.000    0.000    0.000 
#
# Total GULP energy -545501.814068 kJ/mol
# GULP energy per Si atom -12397.768502 kJ/mol
# Density = 2.023280 g / cm^3
# Si number density = 20.278952 Si / 1000 Ang^3
#
#
#
# Elastic Constant Matrix: (Units=GPa)
#
#
# Indices 1 2 3 4 5 6 
#
# 1 90.6887 7.4933 20.5780 0.0000 0.0000 0.0000
# 2 7.4933 61.0606 36.3859 0.0000 0.0000 0.0000
# 3 20.5780 36.3859 127.9577 0.0000 0.0000 0.0000
# 4 0.0000 0.0000 0.0000 13.8955 0.0000 0.0000
# 5 0.0000 0.0000 0.0000 0.0000 19.7416 0.0000
# 6 0.0000 0.0000 0.0000 0.0000 0.0000 32.1388
#
#
#
# Elastic Compliance Matrix: (Units=1/GPa)
#
#
# Indices 1 2 3 4 5 6 
#
# 1 0.011451 -0.000371 -0.001736 0.000000 0.000000 0.000000
# 2 -0.000371 0.019730 -0.005551 0.000000 0.000000 0.000000
# 3 -0.001736 -0.005551 0.009673 0.000000 0.000000 0.000000
# 4 0.000000 0.000000 0.000000 0.071966 0.000000 0.000000
# 5 0.000000 0.000000 0.000000 0.000000 0.050655 0.000000
# 6 0.000000 0.000000 0.000000 0.000000 0.000000 0.031115
#
#
# Mechanical properties :
#
#
# Convention : Reuss Voigt Hill
#
# Bulk Modulus (GPa) = 39.15593 45.40238 42.27916
# Shear Modulus (GPa) = 22.89185 27.50516 25.19850
#
# Velocity S-wave (km/s) = 3.36348 3.68685 3.52887
# Velocity P-wave (km/s) = 5.86810 6.36878 6.12356
#
# Compressibility (1/GPa) = 0.02553891
#
# Stress axis : x y z
#
# Youngs Moduli (GPa) = 87.32620 50.68306 103.38328
#
# Poissons Ratio (x) = 0.01879 0.17949
# Poissons Ratio (y) = 0.03237 0.57387
# Poissons Ratio (z) = 0.15161 0.28134
#
# Static dielectric constant tensor:
#      x y z
#    x 3.953560 0.000000 0.000000 
#    y 0.000000 3.386420 0.000000 
#    z 0.000000 0.000000 3.468950 
# 
# 
# High freq. dielectric constant tensor:
#      x y z
#    x 1.817840 0.000000 0.000000 
#    y 0.000000 1.769520 0.000000 
#    z 0.000000 0.000000 1.777860 
# 
# From -- ./inp_files/53238.got.cif
#   From: 2010.03.12/outbox.cif.g09.slc.cpg/sg68_27_cif.got.tgz:53238.got - 2010.04.10 23:14:56.
