data_PCOD8282640
_publ_section_title
;
Structure prediction by ZEFSAII (Michael W. Deem and Ramdas Pophale) SiO2 
 PCOD8282640
Probable space group: C C C A
;
_chemical_formula_sum "Si O2"
_cell_formula_units_Z 52
_cell_length_a 22.246666
_cell_length_b 5.153148
_cell_length_c 18.914335
_cell_angle_alpha 90.000000
_cell_angle_beta 90.000000
_cell_angle_gamma 90.000000
_cell_volume 2168.346219
_symmetry_space_group_name_H-M "C C C A"
_symmetry_group_IT_number 68
_space_group.IT_coordinate_system_code '2'
_symmetry_cell_setting 'orthorhombic'
loop_
_space_group_symop_operation_xyz
x,y,z
-x,1/2-y,z
x,1/2-y,1/2-z
-x,y,1/2-z
-x,-y,-z
x,1/2+y,-z
-x,1/2+y,1/2+z
x,-y,1/2+z
1/2+x,1/2+y,z
1/2-x,-y,z
1/2+x,-y,1/2-z
1/2-x,1/2+y,1/2-z
1/2-x,1/2-y,-z
1/2+x,y,-z
1/2-x,y,1/2+z
1/2+x,1/2-y,1/2+z
loop_
_atom_site_type_symbol
_atom_site_label
_atom_site_fract_x
_atom_site_fract_y
_atom_site_fract_z
Si Si1 0.070712 0.260044 0.457057
Si Si2 0.721731 0.245737 0.171211
Si Si3 0.000000 0.750000 0.250000
Si Si4 0.105798 0.053478 0.312487
O O1 0.090776 0.535486 0.488534
O O2 0.104658 0.225564 0.382953
O O3 0.000000 0.250000 0.443668
O O4 0.749915 0.250000 0.250000
O O5 0.750000 0.500000 0.132464
O O6 0.750000 0.000000 0.129933
O O7 0.649779 0.196677 0.176968
O O8 0.959837 0.566749 0.299524
O O9 0.126662 0.250000 0.250000
#
# Coordination Sequence:
#
# PCOD8282640 Si02
#       4
#    16  16   4  16
#     4  10  24  42  64  94 141 192 236 273 341 429
#     4  10  21  39  63  93 129 174 224 279 340 400
#     4  12  26  36  64 110 144 172 224 294 362 404
#     4  12  25  42  68 103 145 179 230 295 355 410
#
# _framework density 23.981411000000001
#
# number of rings (size 3 to 8) (size 9 to 14) (size 15 to 20)
#    0.000    1.231    1.538    5.077   10.769    0.000 
#    0.000    0.000    0.000    5.538    0.000    0.000 
#    0.000    5.538    0.000    0.000    0.000    0.000 
#
# Total GULP energy -322228.992909 kJ/mol
# GULP energy per Si atom -12393.422804 kJ/mol
# Density = 2.392683 g / cm^3
# Si number density = 23.981411 Si / 1000 Ang^3
#
#
#
# Elastic Constant Matrix: (Units=GPa)
#
#
# Indices 1 2 3 4 5 6 
#
# 1 131.6465 62.2841 24.3920 0.0000 0.0000 0.0000
# 2 62.2841 176.6119 32.7489 0.0000 0.0000 0.0000
# 3 24.3920 32.7489 109.3702 0.0000 0.0000 0.0000
# 4 0.0000 0.0000 0.0000 28.4917 0.0000 0.0000
# 5 0.0000 0.0000 0.0000 0.0000 0.2698 0.0000
# 6 0.0000 0.0000 0.0000 0.0000 0.0000 43.6102
#
#
#
# Elastic Compliance Matrix: (Units=1/GPa)
#
#
# Indices 1 2 3 4 5 6 
#
# 1 0.009252 -0.003050 -0.001150 0.000000 0.000000 0.000000
# 2 -0.003050 0.007000 -0.001416 0.000000 0.000000 0.000000
# 3 -0.001150 -0.001416 0.009824 0.000000 0.000000 0.000000
# 4 0.000000 0.000000 0.000000 0.035098 0.000000 0.000000
# 5 0.000000 0.000000 0.000000 0.000000 3.706696 0.000000
# 6 0.000000 0.000000 0.000000 0.000000 0.000000 0.022930
#
#
# Mechanical properties :
#
#
# Convention : Reuss Voigt Hill
#
# Bulk Modulus (GPa) = 67.36541 72.94206 70.15374
# Shear Modulus (GPa) = 1.31338 34.35458 17.83398
#
# Velocity S-wave (km/s) = 0.74085 3.78901 2.72997
# Velocity P-wave (km/s) = 5.37433 7.04445 6.26529
#
# Compressibility (1/GPa) = 0.01484441
#
# Stress axis : x y z
#
# Youngs Moduli (GPa) = 108.08468 142.85427 101.79380
#
# Poissons Ratio (x) = 0.43564 0.11709
# Poissons Ratio (y) = 0.32961 0.14414
# Poissons Ratio (z) = 0.12433 0.20228
#
# Static dielectric constant tensor:
#      x y z
#    x 4.115580 0.000000 0.000000 
#    y 0.000000 5.060090 0.000000 
#    z 0.000000 0.000000 3.830430 
# 
# 
# High freq. dielectric constant tensor:
#      x y z
#    x 1.942510 0.000000 0.000000 
#    y 0.000000 1.978460 0.000000 
#    z 0.000000 0.000000 1.898750 
# 
# From -- ./inp_files/39960.got.cif
#   From: 2010.03.12/outbox.cif.g09.slc.cpg/sg68_20_cif.got.tgz:39960.got - 2010.04.10 23:14:56.
