data_PCOD8282150
_publ_section_title
;
Structure prediction by ZEFSAII (Michael W. Deem and Ramdas Pophale) SiO2 
 PCOD8282150
Probable space group: C C C A
;
_chemical_formula_sum "Si O2"
_cell_formula_units_Z 88
_cell_length_a 18.448197
_cell_length_b 26.959670
_cell_length_c 9.461079
_cell_angle_alpha 90.000000
_cell_angle_beta 90.000000
_cell_angle_gamma 90.000000
_cell_volume 4705.536737
_symmetry_space_group_name_H-M "C C C A"
_symmetry_group_IT_number 68
_space_group.IT_coordinate_system_code '2'
_symmetry_cell_setting 'orthorhombic'
loop_
_space_group_symop_operation_xyz
x,y,z
-x,1/2-y,z
x,1/2-y,1/2-z
-x,y,1/2-z
-x,-y,-z
x,1/2+y,-z
-x,1/2+y,1/2+z
x,-y,1/2+z
1/2+x,1/2+y,z
1/2-x,-y,z
1/2+x,-y,1/2-z
1/2-x,1/2+y,1/2-z
1/2-x,1/2-y,-z
1/2+x,y,-z
1/2-x,y,1/2+z
1/2+x,1/2-y,1/2+z
loop_
_atom_site_type_symbol
_atom_site_label
_atom_site_fract_x
_atom_site_fract_y
_atom_site_fract_z
Si Si1 0.676180 0.250000 0.585542
Si Si2 0.250000 0.000000 0.500000
Si Si3 0.315174 0.595164 0.590592
Si Si4 0.184826 0.095164 0.590592
Si Si5 0.416235 0.345925 0.587091
Si Si6 0.416235 0.345925 0.912909
O O1 0.695553 0.250000 0.750000
O O2 0.750000 0.250000 0.500000
O O3 0.628332 0.202613 0.544041
O O4 0.628332 0.297387 0.544041
O O5 0.197690 0.964539 0.406088
O O6 0.302310 0.964539 0.593912
O O7 0.250000 0.620891 0.500000
O O8 0.315255 0.615901 0.750000
O O9 0.390006 0.608660 0.512006
O O10 0.109994 0.108660 0.512006
O O11 0.403512 0.360825 0.750000
O O12 0.500000 0.335363 0.556577
#
# Coordination Sequence:
#
# PCOD8282150 Si02
#       6
#    16   8  16  16  16  16
#     4  10  21  37  57  83 113 150 191 226 270 326
#     4   8  22  36  60  82 110 144 184 236 282 334
#     4  10  20  35  58  84 110 143 186 233 279 330
#     4  10  20  35  58  84 110 143 186 233 279 330
#     4  10  21  37  57  82 116 153 187 227 276 330
#     4  10  21  37  57  82 116 153 187 227 276 330
#
# _framework density 18.701373
#
# number of rings (size 3 to 8) (size 9 to 14) (size 15 to 20)
#    1.091    1.091    0.000    3.273    0.000    7.273 
#    0.000    0.909    0.000    3.273    0.000    0.000 
#    0.000    0.000    0.000    0.000    0.000    0.000 
#
# Total GULP energy -545356.205526 kJ/mol
# GULP energy per Si atom -12394.459216 kJ/mol
# Density = 1.865881 g / cm^3
# Si number density = 18.701373 Si / 1000 Ang^3
#
#
#
# Elastic Constant Matrix: (Units=GPa)
#
#
# Indices 1 2 3 4 5 6 
#
# 1 143.9185 60.1120 75.5589 0.0000 0.0000 0.0000
# 2 60.1120 94.3189 45.0209 0.0000 0.0000 0.0000
# 3 75.5589 45.0209 125.5618 0.0000 0.0000 0.0000
# 4 0.0000 0.0000 0.0000 18.0248 0.0000 0.0000
# 5 0.0000 0.0000 0.0000 0.0000 32.0881 0.0000
# 6 0.0000 0.0000 0.0000 0.0000 0.0000 27.7882
#
#
#
# Elastic Compliance Matrix: (Units=1/GPa)
#
#
# Indices 1 2 3 4 5 6 
#
# 1 0.011834 -0.004998 -0.005329 0.000000 0.000000 0.000000
# 2 -0.004998 0.014903 -0.002336 0.000000 0.000000 0.000000
# 3 -0.005329 -0.002336 0.012008 0.000000 0.000000 0.000000
# 4 0.000000 0.000000 0.000000 0.055479 0.000000 0.000000
# 5 0.000000 0.000000 0.000000 0.000000 0.031164 0.000000
# 6 0.000000 0.000000 0.000000 0.000000 0.000000 0.035987
#
#
# Mechanical properties :
#
#
# Convention : Reuss Voigt Hill
#
# Bulk Modulus (GPa) = 74.52069 80.57585 77.54827
# Shear Modulus (GPa) = 26.15415 27.78737 26.97076
#
# Velocity S-wave (km/s) = 3.74373 3.85885 3.80173
# Velocity P-wave (km/s) = 7.65647 7.93936 7.79920
#
# Compressibility (1/GPa) = 0.01341909
#
# Stress axis : x y z
#
# Youngs Moduli (GPa) = 84.50292 67.10158 83.27436
#
# Poissons Ratio (x) = 0.33540 0.44377
# Poissons Ratio (y) = 0.42238 0.19450
# Poissons Ratio (z) = 0.45032 0.15672
#
# Static dielectric constant tensor:
#      x y z
#    x 3.362120 0.000000 0.000000 
#    y 0.000000 3.310680 0.000000 
#    z 0.000000 0.000000 3.297540 
# 
# 
# High freq. dielectric constant tensor:
#      x y z
#    x 1.717170 0.000000 0.000000 
#    y 0.000000 1.715930 0.000000 
#    z 0.000000 0.000000 1.722850 
# 
# From -- ./inp_files/6411.got.cif
#   From: 2010.03.12/outbox.cif.g09.slc.cpg/sg68_4_cif.got.tgz:6411.got - 2010.04.10 23:14:56.
