data_PCOD8282420
_publ_section_title
;
Structure prediction by ZEFSAII (Michael W. Deem and Ramdas Pophale) SiO2 
 PCOD8282420
Probable space group: C C C A
;
_chemical_formula_sum "Si O2"
_cell_formula_units_Z 88
_cell_length_a 12.544232
_cell_length_b 16.685870
_cell_length_c 18.458941
_cell_angle_alpha 90.000000
_cell_angle_beta 90.000000
_cell_angle_gamma 90.000000
_cell_volume 3863.667234
_symmetry_space_group_name_H-M "C C C A"
_symmetry_group_IT_number 68
_space_group.IT_coordinate_system_code '2'
_symmetry_cell_setting 'orthorhombic'
loop_
_space_group_symop_operation_xyz
x,y,z
-x,1/2-y,z
x,1/2-y,1/2-z
-x,y,1/2-z
-x,-y,-z
x,1/2+y,-z
-x,1/2+y,1/2+z
x,-y,1/2+z
1/2+x,1/2+y,z
1/2-x,-y,z
1/2+x,-y,1/2-z
1/2-x,1/2+y,1/2-z
1/2-x,1/2-y,-z
1/2+x,y,-z
1/2-x,y,1/2+z
1/2+x,1/2-y,1/2+z
loop_
_atom_site_type_symbol
_atom_site_label
_atom_site_fract_x
_atom_site_fract_y
_atom_site_fract_z
Si Si1 0.000000 0.750000 0.603672
Si Si2 0.845387 0.049552 0.321352
Si Si3 0.024118 0.476134 0.582564
Si Si4 0.683848 0.339676 0.413373
Si Si5 0.122358 0.608715 0.669351
Si Si6 0.218089 0.820127 0.567610
O O1 0.029866 0.673081 0.652360
O O2 0.104507 0.772804 0.557141
O O3 0.903281 0.086939 0.252201
O O4 0.789947 0.117514 0.368730
O O5 0.750000 0.000000 0.286817
O O6 0.919607 0.990497 0.368499
O O7 0.068638 0.384399 0.591229
O O8 0.114141 0.533975 0.614659
O O9 0.000000 0.500000 0.500000
O O10 0.757730 0.360358 0.344175
O O11 0.684218 0.241710 0.415528
O O12 0.737983 0.364946 0.490815
#
# Coordination Sequence:
#
# PCOD8282420 Si02
#       6
#     8  16  16  16  16  16
#     4  10  20  41  68 102 130 173 224 288 347 408
#     4  12  26  43  63 100 137 178 234 288 346 426
#     4  12  23  40  66  99 134 183 225 279 352 409
#     4  10  22  41  65  98 134 176 223 281 353 409
#     4  11  24  41  70  99 137 174 227 288 350 411
#     4  10  22  41  65 100 136 172 232 283 342 420
#
# _framework density 22.776288999999998
#
# number of rings (size 3 to 8) (size 9 to 14) (size 15 to 20)
#    0.000    1.091    3.636    2.182    2.545    3.636 
#    3.273    0.000    0.000    0.000    4.727    0.000 
#    0.000    0.000    0.000    0.000    0.000    0.000 
#
# Total GULP energy -545091.326163 kJ/mol
# GULP energy per Si atom -12388.439231 kJ/mol
# Density = 2.272445 g / cm^3
# Si number density = 22.776289 Si / 1000 Ang^3
#
#
#
# Elastic Constant Matrix: (Units=GPa)
#
#
# Indices 1 2 3 4 5 6 
#
# 1 79.4688 46.4049 30.7038 0.0000 0.0000 0.0000
# 2 46.4049 112.6950 39.5654 0.0000 0.0000 0.0000
# 3 30.7038 39.5654 137.4453 0.0000 0.0000 0.0000
# 4 0.0000 0.0000 0.0000 33.6788 0.0000 0.0000
# 5 0.0000 0.0000 0.0000 0.0000 24.9368 0.0000
# 6 0.0000 0.0000 0.0000 0.0000 0.0000 60.0029
#
#
#
# Elastic Compliance Matrix: (Units=1/GPa)
#
#
# Indices 1 2 3 4 5 6 
#
# 1 0.017042 -0.006319 -0.001988 0.000000 0.000000 0.000000
# 2 -0.006319 0.012215 -0.002104 0.000000 0.000000 0.000000
# 3 -0.001988 -0.002104 0.008325 0.000000 0.000000 0.000000
# 4 0.000000 0.000000 0.000000 0.029692 0.000000 0.000000
# 5 0.000000 0.000000 0.000000 0.000000 0.040101 0.000000
# 6 0.000000 0.000000 0.000000 0.000000 0.000000 0.016666
#
#
# Mechanical properties :
#
#
# Convention : Reuss Voigt Hill
#
# Bulk Modulus (GPa) = 59.67165 62.55081 61.11123
# Shear Modulus (GPa) = 33.23348 37.91937 35.57643
#
# Velocity S-wave (km/s) = 3.82400 4.08470 3.95649
# Velocity P-wave (km/s) = 6.76411 7.05472 6.91094
#
# Compressibility (1/GPa) = 0.01675838
#
# Stress axis : x y z
#
# Youngs Moduli (GPa) = 58.67942 81.86975 120.11348
#
# Poissons Ratio (x) = 0.51737 0.23876
# Poissons Ratio (y) = 0.37082 0.25277
# Poissons Ratio (z) = 0.11664 0.17229
#
# Static dielectric constant tensor:
#      x y z
#    x 4.151010 0.000000 0.000000 
#    y 0.000000 4.240970 0.000000 
#    z 0.000000 0.000000 3.964550 
# 
# 
# High freq. dielectric constant tensor:
#      x y z
#    x 1.890340 0.000000 0.000000 
#    y 0.000000 1.898210 0.000000 
#    z 0.000000 0.000000 1.899040 
# 
# From -- ./inp_files/30918.got.cif
#   From: 2010.03.12/outbox.cif.g09.slc.cpg/sg68_16_cif.got.tgz:30918.got - 2010.04.10 23:14:56.
