data_PCOD8282244
_publ_section_title
;
Structure prediction by ZEFSAII (Michael W. Deem and Ramdas Pophale) SiO2 
 PCOD8282244
Probable space group: C C C A
;
_chemical_formula_sum "Si O2"
_cell_formula_units_Z 88
_cell_length_a 18.978356
_cell_length_b 9.307110
_cell_length_c 22.339710
_cell_angle_alpha 90.000000
_cell_angle_beta 90.000000
_cell_angle_gamma 90.000000
_cell_volume 3945.944448
_symmetry_space_group_name_H-M "C C C A"
_symmetry_group_IT_number 68
_space_group.IT_coordinate_system_code '2'
_symmetry_cell_setting 'orthorhombic'
loop_
_space_group_symop_operation_xyz
x,y,z
-x,1/2-y,z
x,1/2-y,1/2-z
-x,y,1/2-z
-x,-y,-z
x,1/2+y,-z
-x,1/2+y,1/2+z
x,-y,1/2+z
1/2+x,1/2+y,z
1/2-x,-y,z
1/2+x,-y,1/2-z
1/2-x,1/2+y,1/2-z
1/2-x,1/2-y,-z
1/2+x,y,-z
1/2-x,y,1/2+z
1/2+x,1/2-y,1/2+z
loop_
_atom_site_type_symbol
_atom_site_label
_atom_site_fract_x
_atom_site_fract_y
_atom_site_fract_z
Si Si1 0.167836 0.020972 0.281375
Si Si2 0.250000 0.000000 0.961312
Si Si3 0.830590 0.678972 0.666937
Si Si4 0.881591 0.615182 0.036002
Si Si5 0.315548 0.283683 0.134165
Si Si6 0.567455 0.328627 0.560108
O O1 0.139478 0.167709 0.310718
O O2 0.150379 0.043106 0.210791
O O3 0.360842 0.121219 0.316526
O O4 0.250000 0.000000 0.294302
O O5 0.281575 0.877779 0.918919
O O6 0.189497 0.939091 0.004188
O O7 0.745683 0.689619 0.665746
O O8 0.864799 0.657875 0.602854
O O9 0.867762 0.671111 0.103270
O O10 0.942630 0.493493 0.040126
O O11 0.915161 0.742217 0.998912
O O12 0.500000 0.250000 0.591096
#
# Coordination Sequence:
#
# PCOD8282244 Si02
#       6
#    16   8  16  16  16  16
#     4   9  19  35  59  89 131 162 200 263 336 396
#     4  12  18  38  62  98 136 168 198 284 344 410
#     4  10  20  37  60  92 127 168 211 262 332 396
#     4  12  24  39  63  94 132 171 218 268 343 399
#     4  11  19  36  62  96 134 168 206 282 345 404
#     4  12  26  43  61  88 130 177 228 264 314 394
#
# _framework density 22.301378
#
# number of rings (size 3 to 8) (size 9 to 14) (size 15 to 20)
#    0.000    1.091    6.364    2.182    2.545    0.000 
#    0.000    1.818    0.000    0.000    0.000    0.000 
#   10.909    0.000    0.000    0.000    0.000    0.000 
#
# Total GULP energy -545136.386776 kJ/mol
# GULP energy per Si atom -12389.463336 kJ/mol
# Density = 2.225062 g / cm^3
# Si number density = 22.301378 Si / 1000 Ang^3
#
#
#
# Elastic Constant Matrix: (Units=GPa)
#
#
# Indices 1 2 3 4 5 6 
#
# 1 45.9681 36.8844 20.0825 0.0000 0.0000 0.0000
# 2 36.8844 132.9509 67.5106 0.0000 0.0000 0.0000
# 3 20.0825 67.5106 122.9190 0.0000 0.0000 0.0000
# 4 0.0000 0.0000 0.0000 52.3706 0.0000 0.0000
# 5 0.0000 0.0000 0.0000 0.0000 -6.4100 0.0000
# 6 0.0000 0.0000 0.0000 0.0000 0.0000 25.6409
#
#
#
# Elastic Compliance Matrix: (Units=1/GPa)
#
#
# Indices 1 2 3 4 5 6 
#
# 1 0.028000 -0.007551 -0.000427 0.000000 0.000000 0.000000
# 2 -0.007551 0.012467 -0.005613 0.000000 0.000000 0.000000
# 3 -0.000427 -0.005613 0.011288 0.000000 0.000000 0.000000
# 4 0.000000 0.000000 0.000000 0.019095 0.000000 0.000000
# 5 0.000000 0.000000 0.000000 0.000000 -0.156006 0.000000
# 6 0.000000 0.000000 0.000000 0.000000 0.000000 0.039000
#
#
# Mechanical properties :
#
#
# Convention : Reuss Voigt Hill
#
# Bulk Modulus (GPa) = 40.69787 61.19925 50.94856
# Shear Modulus (GPa) = -463.73936 26.14432 -218.79752
#
# Velocity S-wave (km/s) = -14.43584 3.42763 -9.91577
# Velocity P-wave (km/s) = 16.11115 6.57011 10.40199
#
# Compressibility (1/GPa) = 0.02457131
#
# Stress axis : x y z
#
# Youngs Moduli (GPa) = 35.71465 80.21266 88.58682
#
# Poissons Ratio (x) = 0.60568 0.03787
# Poissons Ratio (y) = 0.26968 0.49728
# Poissons Ratio (z) = 0.01527 0.45027
#
# Static dielectric constant tensor:
#      x y z
#    x 3.697680 0.000000 0.000000 
#    y 0.000000 4.637040 0.000000 
#    z 0.000000 0.000000 4.190750 
# 
# 
# High freq. dielectric constant tensor:
#      x y z
#    x 1.805320 0.000000 0.000000 
#    y 0.000000 1.902280 0.000000 
#    z 0.000000 0.000000 1.889730 
# 
# From -- ./inp_files/46488.got.cif
#   From: 2010.03.12/outbox.cif.g09.slc.cpg/sg68_24_cif.got.tgz:46488.got - 2010.04.10 23:14:56.
