data_PCOD8282688
_publ_section_title
;
Structure prediction by ZEFSAII (Michael W. Deem and Ramdas Pophale) SiO2 
 PCOD8282688
Probable space group: C C C A
;
_chemical_formula_sum "Si O2"
_cell_formula_units_Z 80
_cell_length_a 9.199069
_cell_length_b 16.044585
_cell_length_c 24.779106
_cell_angle_alpha 90.000000
_cell_angle_beta 90.000000
_cell_angle_gamma 90.000000
_cell_volume 3657.278208
_symmetry_space_group_name_H-M "C C C A"
_symmetry_group_IT_number 68
_space_group.IT_coordinate_system_code '2'
_symmetry_cell_setting 'orthorhombic'
loop_
_space_group_symop_operation_xyz
x,y,z
-x,1/2-y,z
x,1/2-y,1/2-z
-x,y,1/2-z
-x,-y,-z
x,1/2+y,-z
-x,1/2+y,1/2+z
x,-y,1/2+z
1/2+x,1/2+y,z
1/2-x,-y,z
1/2+x,-y,1/2-z
1/2-x,1/2+y,1/2-z
1/2-x,1/2-y,-z
1/2+x,y,-z
1/2-x,y,1/2+z
1/2+x,1/2-y,1/2+z
loop_
_atom_site_type_symbol
_atom_site_label
_atom_site_fract_x
_atom_site_fract_y
_atom_site_fract_z
Si Si1 0.418212 0.834194 0.159539
Si Si2 0.145875 0.707107 0.399471
Si Si3 0.500000 0.045939 0.750000
Si Si4 0.250000 0.000000 0.323243
Si Si5 0.630880 0.056953 0.480101
Si Si6 0.179956 0.868557 0.909672
O O1 0.500000 0.750000 0.178964
O O2 0.245586 0.830808 0.147594
O O3 0.412597 0.897299 0.208560
O O4 0.508438 0.864235 0.106327
O O5 0.093481 0.637018 0.442905
O O6 0.252524 0.778328 0.422496
O O7 0.000000 0.750000 0.376412
O O8 0.609950 0.990527 0.714955
O O9 0.243105 0.917162 0.360173
O O10 0.707276 0.085329 0.534911
O O11 0.500000 0.000000 0.500000
O O12 0.750000 0.000000 0.448843
#
# Coordination Sequence:
#
# PCOD8282688 Si02
#       6
#    16  16   8   8  16  16
#     4   9  20  40  66  91 127 176 228 275 336 404
#     4  11  24  40  63  99 134 175 220 272 327 397
#     4  10  21  40  66 100 127 174 224 284 350 399
#     4  10  22  40  66  94 132 172 222 282 334 402
#     4  12  24  40  63  95 133 178 221 268 326 396
#     4  10  21  42  64  88 131 180 221 265 328 398
#
# _framework density 21.874191
#
# number of rings (size 3 to 8) (size 9 to 14) (size 15 to 20)
#    0.000    1.600    1.000    3.300    0.000    4.000 
#    5.400    0.000    0.000   10.800    0.000    0.000 
#    0.000    0.000    0.000    0.000    0.000    0.000 
#
# Total GULP energy -495559.123529 kJ/mol
# GULP energy per Si atom -12388.978088 kJ/mol
# Density = 2.182440 g / cm^3
# Si number density = 21.874191 Si / 1000 Ang^3
#
#
#
# Elastic Constant Matrix: (Units=GPa)
#
#
# Indices 1 2 3 4 5 6 
#
# 1 144.1749 47.5385 49.3845 0.0000 0.0000 0.0000
# 2 47.5385 107.0790 41.2019 0.0000 0.0000 0.0000
# 3 49.3845 41.2019 80.5661 0.0000 0.0000 0.0000
# 4 0.0000 0.0000 0.0000 50.9162 0.0000 0.0000
# 5 0.0000 0.0000 0.0000 0.0000 21.4446 0.0000
# 6 0.0000 0.0000 0.0000 0.0000 0.0000 45.9891
#
#
#
# Elastic Compliance Matrix: (Units=1/GPa)
#
#
# Indices 1 2 3 4 5 6 
#
# 1 0.009248 -0.002396 -0.004443 0.000000 0.000000 0.000000
# 2 -0.002396 0.012248 -0.004795 0.000000 0.000000 0.000000
# 3 -0.004443 -0.004795 0.017588 0.000000 0.000000 0.000000
# 4 0.000000 0.000000 0.000000 0.019640 0.000000 0.000000
# 5 0.000000 0.000000 0.000000 0.000000 0.046632 0.000000
# 6 0.000000 0.000000 0.000000 0.000000 0.000000 0.021744
#
#
# Mechanical properties :
#
#
# Convention : Reuss Voigt Hill
#
# Bulk Modulus (GPa) = 63.23072 67.56330 65.39701
# Shear Modulus (GPa) = 32.12544 36.58299 34.35421
#
# Velocity S-wave (km/s) = 3.83645 4.09397 3.96730
# Velocity P-wave (km/s) = 6.97092 7.30080 7.13777
#
# Compressibility (1/GPa) = 0.01581510
#
# Stress axis : x y z
#
# Youngs Moduli (GPa) = 108.13072 81.64889 56.85709
#
# Poissons Ratio (x) = 0.19563 0.25264
# Poissons Ratio (y) = 0.25908 0.27262
# Poissons Ratio (z) = 0.48047 0.39149
#
# Static dielectric constant tensor:
#      x y z
#    x 4.016780 0.000000 0.000000 
#    y 0.000000 4.620330 0.000000 
#    z 0.000000 0.000000 3.828740 
# 
# 
# High freq. dielectric constant tensor:
#      x y z
#    x 1.862320 0.000000 0.000000 
#    y 0.000000 1.871820 0.000000 
#    z 0.000000 0.000000 1.840720 
# 
# From -- ./inp_files/49175.got.cif
#   From: 2010.03.12/outbox.cif.g09.slc.cpg/sg68_25_cif.got.tgz:49175.got - 2010.04.10 23:14:56.
