data_PCOD8282702
_publ_section_title
;
Structure prediction by ZEFSAII (Michael W. Deem and Ramdas Pophale) SiO2 
 PCOD8282702
Probable space group: C C C A
;
_chemical_formula_sum "Si O2"
_cell_formula_units_Z 88
_cell_length_a 10.474229
_cell_length_b 24.662913
_cell_length_c 14.991385
_cell_angle_alpha 90.000000
_cell_angle_beta 90.000000
_cell_angle_gamma 90.000000
_cell_volume 3872.649509
_symmetry_space_group_name_H-M "C C C A"
_symmetry_group_IT_number 68
_space_group.IT_coordinate_system_code '2'
_symmetry_cell_setting 'orthorhombic'
loop_
_space_group_symop_operation_xyz
x,y,z
-x,1/2-y,z
x,1/2-y,1/2-z
-x,y,1/2-z
-x,-y,-z
x,1/2+y,-z
-x,1/2+y,1/2+z
x,-y,1/2+z
1/2+x,1/2+y,z
1/2-x,-y,z
1/2+x,-y,1/2-z
1/2-x,1/2+y,1/2-z
1/2-x,1/2-y,-z
1/2+x,y,-z
1/2-x,y,1/2+z
1/2+x,1/2-y,1/2+z
loop_
_atom_site_type_symbol
_atom_site_label
_atom_site_fract_x
_atom_site_fract_y
_atom_site_fract_z
Si Si1 0.702368 0.834373 0.950961
Si Si2 0.000000 0.250000 0.615200
Si Si3 0.329416 0.659639 0.639474
Si Si4 0.365521 0.634148 0.288953
Si Si5 0.878047 0.532112 0.600690
Si Si6 0.005414 0.424607 0.931819
O O1 0.588632 0.790255 0.944395
O O2 0.807831 0.830735 0.871122
O O3 0.641994 0.895211 0.949756
O O4 0.774259 0.824100 0.043144
O O5 0.093428 0.287435 0.675002
O O6 0.222727 0.641052 0.705000
O O7 0.427675 0.610148 0.638833
O O8 0.500000 0.655589 0.250000
O O9 0.370725 0.569870 0.312023
O O10 0.750000 0.500000 0.576713
O O11 0.982136 0.484320 0.611176
O O12 0.922539 0.572536 0.522231
#
# Coordination Sequence:
#
# PCOD8282702 Si02
#       6
#    16   8  16  16  16  16
#     4  11  23  49  70 104 143 182 238 300 365 436
#     4  10  26  45  80  99 136 186 246 289 386 437
#     4  11  24  45  73 104 140 188 231 305 360 429
#     4  12  27  43  69 101 146 185 236 294 354 432
#     4  11  21  41  67 108 141 189 234 285 352 434
#     4  10  21  40  75  97 145 186 232 292 356 420
#
# _framework density 22.723462000000001
#
# number of rings (size 3 to 8) (size 9 to 14) (size 15 to 20)
#    0.000    1.091    3.636    1.636    2.545    7.273 
#    0.000    0.909    0.000    0.000    0.000    0.000 
#    0.000    0.000    0.000    0.000    0.000    0.000 
#
# Total GULP energy -545449.800197 kJ/mol
# GULP energy per Si atom -12396.586368 kJ/mol
# Density = 2.267174 g / cm^3
# Si number density = 22.723462 Si / 1000 Ang^3
#
#
#
# Elastic Constant Matrix: (Units=GPa)
#
#
# Indices 1 2 3 4 5 6 
#
# 1 134.1745 42.5961 64.0776 0.0000 0.0000 0.0000
# 2 42.5961 122.8049 38.6850 0.0000 0.0000 0.0000
# 3 64.0776 38.6850 103.7703 0.0000 0.0000 0.0000
# 4 0.0000 0.0000 0.0000 6.2010 0.0000 0.0000
# 5 0.0000 0.0000 0.0000 0.0000 34.4877 0.0000
# 6 0.0000 0.0000 0.0000 0.0000 0.0000 25.2844
#
#
#
# Elastic Compliance Matrix: (Units=1/GPa)
#
#
# Indices 1 2 3 4 5 6 
#
# 1 0.010944 -0.001889 -0.006053 0.000000 0.000000 0.000000
# 2 -0.001889 0.009553 -0.002395 0.000000 0.000000 0.000000
# 3 -0.006053 -0.002395 0.014267 0.000000 0.000000 0.000000
# 4 0.000000 0.000000 0.000000 0.161264 0.000000 0.000000
# 5 0.000000 0.000000 0.000000 0.000000 0.028996 0.000000
# 6 0.000000 0.000000 0.000000 0.000000 0.000000 0.039550
#
#
# Mechanical properties :
#
#
# Convention : Reuss Voigt Hill
#
# Bulk Modulus (GPa) = 70.97580 72.38523 71.68052
# Shear Modulus (GPa) = 17.24471 27.55403 22.39937
#
# Velocity S-wave (km/s) = 2.75779 3.48599 3.14305
# Velocity P-wave (km/s) = 6.43762 6.93735 6.69215
#
# Compressibility (1/GPa) = 0.01408931
#
# Stress axis : x y z
#
# Youngs Moduli (GPa) = 91.37765 104.68384 70.09015
#
# Poissons Ratio (x) = 0.19775 0.42428
# Poissons Ratio (y) = 0.17261 0.16784
# Poissons Ratio (z) = 0.55315 0.25069
#
# Static dielectric constant tensor:
#      x y z
#    x 4.899210 0.000000 0.000000 
#    y 0.000000 4.381010 0.000000 
#    z 0.000000 0.000000 3.955830 
# 
# 
# High freq. dielectric constant tensor:
#      x y z
#    x 1.916810 0.000000 0.000000 
#    y 0.000000 1.909320 0.000000 
#    z 0.000000 0.000000 1.870790 
# 
# From -- ./inp_files/20970.got.cif
#   From: 2010.03.12/outbox.cif.g09.slc.cpg/sg68_11_cif.got.tgz:20970.got - 2010.04.10 23:14:56.
