data_PCOD8282729
_publ_section_title
;
Structure prediction by ZEFSAII (Michael W. Deem and Ramdas Pophale) SiO2 
 PCOD8282729
Probable space group: C C C A
;
_chemical_formula_sum "Si O2"
_cell_formula_units_Z 84
_cell_length_a 8.653452
_cell_length_b 19.445453
_cell_length_c 24.864031
_cell_angle_alpha 90.000000
_cell_angle_beta 90.000000
_cell_angle_gamma 90.000000
_cell_volume 4183.877810
_symmetry_space_group_name_H-M "C C C A"
_symmetry_group_IT_number 68
_space_group.IT_coordinate_system_code '2'
_symmetry_cell_setting 'orthorhombic'
loop_
_space_group_symop_operation_xyz
x,y,z
-x,1/2-y,z
x,1/2-y,1/2-z
-x,y,1/2-z
-x,-y,-z
x,1/2+y,-z
-x,1/2+y,1/2+z
x,-y,1/2+z
1/2+x,1/2+y,z
1/2-x,-y,z
1/2+x,-y,1/2-z
1/2-x,1/2+y,1/2-z
1/2-x,1/2-y,-z
1/2+x,y,-z
1/2-x,y,1/2+z
1/2+x,1/2-y,1/2+z
loop_
_atom_site_type_symbol
_atom_site_label
_atom_site_fract_x
_atom_site_fract_y
_atom_site_fract_z
Si Si1 0.852898 0.662193 0.953073
Si Si2 0.000000 0.250000 0.750000
Si Si3 0.320867 0.571860 0.244166
Si Si4 0.303264 0.421184 0.138416
Si Si5 0.372768 0.360797 0.331530
Si Si6 0.799958 0.177664 0.438832
O O1 0.740554 0.620021 0.914634
O O2 0.821115 0.741754 0.944567
O O3 0.031022 0.642098 0.941535
O O4 0.807564 0.645085 0.014631
O O5 0.904366 0.298233 0.709471
O O6 0.500000 0.567485 0.250000
O O7 0.250000 0.500000 0.226270
O O8 0.279903 0.615588 0.190344
O O9 0.247762 0.592220 0.300231
O O10 0.250000 0.500000 0.128531
O O11 0.485375 0.409312 0.150357
O O12 0.285320 0.332968 0.383037
#
# Coordination Sequence:
#
# PCOD8282729 Si02
#       6
#    16   4  16  16  16  16
#     4  10  21  42  61  96 120 169 210 260 316 374
#     4  12  24  40  62  92 128 160 210 258 318 376
#     4  11  22  39  61  88 122 164 208 255 313 379
#     4  11  22  40  64  89 126 165 208 259 311 376
#     4  12  23  41  61  95 123 168 207 261 318 374
#     4  10  22  38  67  88 127 161 211 263 317 370
#
# _framework density 20.077068000000001
#
# number of rings (size 3 to 8) (size 9 to 14) (size 15 to 20)
#    0.000    1.143    1.905    5.714    0.000    3.048 
#    0.000    4.762    0.000    0.000    0.000    0.000 
#    0.000    0.000    0.000    0.000    0.000    0.000 
#
# Total GULP energy -520488.707788 kJ/mol
# GULP energy per Si atom -12392.588281 kJ/mol
# Density = 2.003137 g / cm^3
# Si number density = 20.077068 Si / 1000 Ang^3
#
#
#
# Elastic Constant Matrix: (Units=GPa)
#
#
# Indices 1 2 3 4 5 6 
#
# 1 166.2253 34.8794 70.6853 0.0000 0.0000 0.0000
# 2 34.8794 36.6971 23.6397 0.0000 0.0000 0.0000
# 3 70.6853 23.6397 175.6499 0.0000 0.0000 0.0000
# 4 0.0000 0.0000 0.0000 27.9969 0.0000 0.0000
# 5 0.0000 0.0000 0.0000 0.0000 46.1304 0.0000
# 6 0.0000 0.0000 0.0000 0.0000 0.0000 22.8056
#
#
#
# Elastic Compliance Matrix: (Units=1/GPa)
#
#
# Indices 1 2 3 4 5 6 
#
# 1 0.008433 -0.006383 -0.002535 0.000000 0.000000 0.000000
# 2 -0.006383 0.034667 -0.002097 0.000000 0.000000 0.000000
# 3 -0.002535 -0.002097 0.006995 0.000000 0.000000 0.000000
# 4 0.000000 0.000000 0.000000 0.035718 0.000000 0.000000
# 5 0.000000 0.000000 0.000000 0.000000 0.021678 0.000000
# 6 0.000000 0.000000 0.000000 0.000000 0.000000 0.043849
#
#
# Mechanical properties :
#
#
# Convention : Reuss Voigt Hill
#
# Bulk Modulus (GPa) = 35.62891 70.77567 53.20229
# Shear Modulus (GPa) = 27.36351 36.01112 31.68731
#
# Velocity S-wave (km/s) = 3.69578 4.23974 3.97707
# Velocity P-wave (km/s) = 5.99970 7.70037 6.90261
#
# Compressibility (1/GPa) = 0.02806709
#
# Stress axis : x y z
#
# Youngs Moduli (GPa) = 118.58164 28.84550 142.95135
#
# Poissons Ratio (x) = 0.18411 0.36233
# Poissons Ratio (y) = 0.75685 0.29980
# Poissons Ratio (z) = 0.30056 0.06050
#
# Static dielectric constant tensor:
#      x y z
#    x 3.789870 0.000000 0.000000 
#    y 0.000000 3.551040 0.000000 
#    z 0.000000 0.000000 3.958970 
# 
# 
# High freq. dielectric constant tensor:
#      x y z
#    x 1.794560 0.000000 0.000000 
#    y 0.000000 1.760240 0.000000 
#    z 0.000000 0.000000 1.811860 
# 
# From -- ./inp_files/43041.got.cif
#   From: 2010.03.12/outbox.cif.g09.slc.cpg/sg68_22_cif.got.tgz:43041.got - 2010.04.10 23:14:56.
