data_PCOD8282969
_publ_section_title
;
Structure prediction by ZEFSAII (Michael W. Deem and Ramdas Pophale) SiO2 
 PCOD8282969
Probable space group: C C C A
;
_chemical_formula_sum "Si O2"
_cell_formula_units_Z 116
_cell_length_a 9.098561
_cell_length_b 25.454856
_cell_length_c 24.700629
_cell_angle_alpha 90.000000
_cell_angle_beta 90.000000
_cell_angle_gamma 90.000000
_cell_volume 5720.728912
_symmetry_space_group_name_H-M "C C C A"
_symmetry_group_IT_number 68
_space_group.IT_coordinate_system_code '2'
_symmetry_cell_setting 'orthorhombic'
loop_
_space_group_symop_operation_xyz
x,y,z
-x,1/2-y,z
x,1/2-y,1/2-z
-x,y,1/2-z
-x,-y,-z
x,1/2+y,-z
-x,1/2+y,1/2+z
x,-y,1/2+z
1/2+x,1/2+y,z
1/2-x,-y,z
1/2+x,-y,1/2-z
1/2-x,1/2+y,1/2-z
1/2-x,1/2-y,-z
1/2+x,y,-z
1/2-x,y,1/2+z
1/2+x,1/2-y,1/2+z
loop_
_atom_site_type_symbol
_atom_site_label
_atom_site_fract_x
_atom_site_fract_y
_atom_site_fract_z
Si Si1 0.000315 0.139416 0.813079
Si Si2 0.810186 0.689799 0.838331
Si Si3 0.144258 0.549438 0.381757
Si Si4 0.138198 0.280474 0.887120
Si Si5 0.580913 0.490758 0.944155
Si Si6 0.759047 0.866481 0.963603
Si Si7 0.000000 0.250000 0.250000
Si Si8 0.574094 0.373919 0.933556
O O1 0.171248 0.150622 0.828726
O O2 0.000000 0.133954 0.750000
O O3 0.910612 0.088313 0.834424
O O4 0.906914 0.189531 0.832048
O O5 0.768382 0.741683 0.871548
O O6 0.897451 0.710163 0.785160
O O7 0.917883 0.657682 0.877563
O O8 0.250000 0.500000 0.363404
O O9 0.225626 0.579750 0.430879
O O10 0.985104 0.530778 0.401260
O O11 0.180470 0.318581 0.935005
O O12 0.000000 0.250000 0.911344
O O13 0.750000 0.500000 0.954509
O O14 0.553641 0.434242 0.918051
O O15 0.500000 0.500000 0.000000
O O16 0.931339 0.854896 0.966081
O O17 0.712311 0.868713 0.026248
#
# Coordination Sequence:
#
# PCOD8282969 Si02
#       8
#    16  16  16  16  16  16   4  16
#     4  10  22  42  71  95 126 168 223 279 335 392
#     4  11  24  43  66  98 129 171 224 279 330 396
#     4  11  22  43  65  94 129 174 220 268 331 404
#     4   9  21  41  64  92 126 166 214 262 330 396
#     4  12  22  37  62  92 128 174 217 266 323 393
#     4  11  24  39  62  92 134 173 208 263 325 396
#     4  12  24  44  70  88 136 180 228 290 350 404
#     4  12  25  38  62  97 132 171 219 265 325 395
#
# _framework density 20.277137
#
# number of rings (size 3 to 8) (size 9 to 14) (size 15 to 20)
#    0.000    1.103    2.759    3.724    5.793    3.586 
#    1.241    2.069    0.000    0.000    0.000    0.000 
#    0.000    0.000    0.000    0.000    0.000    0.000 
#
# Total GULP energy -718840.494675 kJ/mol
# GULP energy per Si atom -12393.801632 kJ/mol
# Density = 2.023099 g / cm^3
# Si number density = 20.277137 Si / 1000 Ang^3
#
#
#
# Elastic Constant Matrix: (Units=GPa)
#
#
# Indices 1 2 3 4 5 6 
#
# 1 109.0348 37.8334 16.4946 0.0000 0.0000 0.0000
# 2 37.8334 119.8180 34.6045 0.0000 0.0000 0.0000
# 3 16.4946 34.6045 73.9777 0.0000 0.0000 0.0000
# 4 0.0000 0.0000 0.0000 29.0289 0.0000 0.0000
# 5 0.0000 0.0000 0.0000 0.0000 125.4244 0.0000
# 6 0.0000 0.0000 0.0000 0.0000 0.0000 39.0400
#
#
#
# Elastic Compliance Matrix: (Units=1/GPa)
#
#
# Indices 1 2 3 4 5 6 
#
# 1 0.010352 -0.003008 -0.000901 0.000000 0.000000 0.000000
# 2 -0.003008 0.010524 -0.004252 0.000000 0.000000 0.000000
# 3 -0.000901 -0.004252 0.015707 0.000000 0.000000 0.000000
# 4 0.000000 0.000000 0.000000 0.034448 0.000000 0.000000
# 5 0.000000 0.000000 0.000000 0.000000 0.007973 0.000000
# 6 0.000000 0.000000 0.000000 0.000000 0.000000 0.025615
#
#
# Mechanical properties :
#
#
# Convention : Reuss Voigt Hill
#
# Bulk Modulus (GPa) = 49.35727 53.41058 51.38393
# Shear Modulus (GPa) = 39.15583 52.95852 46.05718
#
# Velocity S-wave (km/s) = 4.39912 5.11606 4.77107
# Velocity P-wave (km/s) = 7.08500 7.82919 7.46637
#
# Compressibility (1/GPa) = 0.02026044
#
# Stress axis : x y z
#
# Youngs Moduli (GPa) = 96.60410 95.02161 63.66427
#
# Poissons Ratio (x) = 0.28586 0.05735
# Poissons Ratio (y) = 0.29062 0.27070
# Poissons Ratio (z) = 0.08702 0.40403
#
# Static dielectric constant tensor:
#      x y z
#    x 3.861340 0.000000 0.000000 
#    y 0.000000 4.060820 0.000000 
#    z 0.000000 0.000000 4.512260 
# 
# 
# High freq. dielectric constant tensor:
#      x y z
#    x 1.809370 0.000000 0.000000 
#    y 0.000000 1.805160 0.000000 
#    z 0.000000 0.000000 1.770330 
# 
# From -- ./inp_files/43530.got.cif
#   From: 2010.03.12/outbox.cif.g09.slc.cpg/sg68_22_cif.got.tgz:43530.got - 2010.04.10 23:14:56.
