data_PCOD8282265
_publ_section_title
;
Structure prediction by ZEFSAII (Michael W. Deem and Ramdas Pophale) SiO2 
 PCOD8282265
Probable space group: C C C A
;
_chemical_formula_sum "Si O2"
_cell_formula_units_Z 104
_cell_length_a 20.761118
_cell_length_b 13.491951
_cell_length_c 17.947901
_cell_angle_alpha 90.000000
_cell_angle_beta 90.000000
_cell_angle_gamma 90.000000
_cell_volume 5027.350416
_symmetry_space_group_name_H-M "C C C A"
_symmetry_group_IT_number 68
_space_group.IT_coordinate_system_code '2'
_symmetry_cell_setting 'orthorhombic'
loop_
_space_group_symop_operation_xyz
x,y,z
-x,1/2-y,z
x,1/2-y,1/2-z
-x,y,1/2-z
-x,-y,-z
x,1/2+y,-z
-x,1/2+y,1/2+z
x,-y,1/2+z
1/2+x,1/2+y,z
1/2-x,-y,z
1/2+x,-y,1/2-z
1/2-x,1/2+y,1/2-z
1/2-x,1/2-y,-z
1/2+x,y,-z
1/2-x,y,1/2+z
1/2+x,1/2-y,1/2+z
loop_
_atom_site_type_symbol
_atom_site_label
_atom_site_fract_x
_atom_site_fract_y
_atom_site_fract_z
Si Si1 0.764564 0.773594 0.669039
Si Si2 0.192609 0.577387 0.915987
Si Si3 0.060575 0.991408 0.103238
Si Si4 0.113072 0.401809 0.155282
Si Si5 0.188794 0.570336 0.085438
Si Si6 0.000000 0.029515 0.250000
Si Si7 0.030903 0.646672 0.524270
O O1 0.735942 0.750000 0.750000
O O2 0.786236 0.678478 0.622697
O O3 0.824428 0.846326 0.685317
O O4 0.706479 0.827350 0.625953
O O5 0.250000 0.500000 0.910788
O O6 0.131584 0.528999 0.874690
O O7 0.170036 0.597132 0.000911
O O8 0.024987 0.963783 0.180789
O O9 0.023258 0.077002 0.059353
O O10 0.062371 0.894827 0.051542
O O11 0.130170 0.514024 0.127334
O O12 0.059225 0.402778 0.220214
O O13 0.087707 0.339634 0.084319
O O14 0.250000 0.500000 0.084923
O O15 0.000000 0.750000 0.502495
#
# Coordination Sequence:
#
# PCOD8282265 Si02
#       7
#    16  16  16  16  16   8  16
#     4  11  23  37  60  94 126 165 203 257 317 376
#     4  11  22  40  63  92 124 165 212 257 304 380
#     4  10  21  39  60  90 122 159 206 254 317 367
#     4  10  20  40  63  90 124 157 208 264 313 369
#     4   9  20  39  63  87 123 164 207 254 311 371
#     4  10  22  38  64  90 124 162 196 258 320 378
#     4  10  20  37  63  89 117 159 208 258 306 366
#
# _framework density 20.686841000000001
#
# number of rings (size 3 to 8) (size 9 to 14) (size 15 to 20)
#    0.000    1.846    1.538    2.308    0.000    4.308 
#    2.769    4.615    0.000    0.000    0.000    0.000 
#    0.000    0.000    0.000    0.000    0.000    0.000 
#
# Total GULP energy -644832.827745 kJ/mol
# GULP energy per Si atom -12400.631303 kJ/mol
# Density = 2.063976 g / cm^3
# Si number density = 20.686841 Si / 1000 Ang^3
#
#
#
# Elastic Constant Matrix: (Units=GPa)
#
#
# Indices 1 2 3 4 5 6 
#
# 1 75.8889 22.0256 21.4972 0.0000 0.0000 0.0000
# 2 22.0256 96.9909 43.7359 0.0000 0.0000 0.0000
# 3 21.4972 43.7359 119.8355 0.0000 0.0000 0.0000
# 4 0.0000 0.0000 0.0000 22.4411 0.0000 0.0000
# 5 0.0000 0.0000 0.0000 0.0000 30.3605 0.0000
# 6 0.0000 0.0000 0.0000 0.0000 0.0000 30.2643
#
#
#
# Elastic Compliance Matrix: (Units=1/GPa)
#
#
# Indices 1 2 3 4 5 6 
#
# 1 0.014378 -0.002516 -0.001661 0.000000 0.000000 0.000000
# 2 -0.002516 0.012782 -0.004213 0.000000 0.000000 0.000000
# 3 -0.001661 -0.004213 0.010181 0.000000 0.000000 0.000000
# 4 0.000000 0.000000 0.000000 0.044561 0.000000 0.000000
# 5 0.000000 0.000000 0.000000 0.000000 0.032938 0.000000
# 6 0.000000 0.000000 0.000000 0.000000 0.000000 0.033042
#
#
# Mechanical properties :
#
#
# Convention : Reuss Voigt Hill
#
# Bulk Modulus (GPa) = 48.64061 51.91473 50.27767
# Shear Modulus (GPa) = 29.15198 30.31029 29.73114
#
# Velocity S-wave (km/s) = 3.75801 3.83194 3.79516
# Velocity P-wave (km/s) = 6.51107 6.68793 6.60009
#
# Compressibility (1/GPa) = 0.02055895
#
# Stress axis : x y z
#
# Youngs Moduli (GPa) = 69.55109 78.23746 98.22687
#
# Poissons Ratio (x) = 0.19685 0.16315
# Poissons Ratio (y) = 0.17500 0.41388
# Poissons Ratio (z) = 0.11552 0.32965
#
# Static dielectric constant tensor:
#      x y z
#    x 3.849470 0.000000 0.000000 
#    y 0.000000 3.560140 0.000000 
#    z 0.000000 0.000000 3.898150 
# 
# 
# High freq. dielectric constant tensor:
#      x y z
#    x 1.814290 0.000000 0.000000 
#    y 0.000000 1.785400 0.000000 
#    z 0.000000 0.000000 1.816910 
# 
# From -- ./inp_files/33010.got.cif
#   From: 2010.03.12/outbox.cif.g09.slc.cpg/sg68_17_cif.got.tgz:33010.got - 2010.04.10 23:14:56.
