data_PCOD8282542
_publ_section_title
;
Structure prediction by ZEFSAII (Michael W. Deem and Ramdas Pophale) SiO2 
 PCOD8282542
Probable space group: C C C A
;
_chemical_formula_sum "Si O2"
_cell_formula_units_Z 116
_cell_length_a 15.431081
_cell_length_b 16.379550
_cell_length_c 23.804272
_cell_angle_alpha 90.000000
_cell_angle_beta 90.000000
_cell_angle_gamma 90.000000
_cell_volume 6016.628840
_symmetry_space_group_name_H-M "C C C A"
_symmetry_group_IT_number 68
_space_group.IT_coordinate_system_code '2'
_symmetry_cell_setting 'orthorhombic'
loop_
_space_group_symop_operation_xyz
x,y,z
-x,1/2-y,z
x,1/2-y,1/2-z
-x,y,1/2-z
-x,-y,-z
x,1/2+y,-z
-x,1/2+y,1/2+z
x,-y,1/2+z
1/2+x,1/2+y,z
1/2-x,-y,z
1/2+x,-y,1/2-z
1/2-x,1/2+y,1/2-z
1/2-x,1/2-y,-z
1/2+x,y,-z
1/2-x,y,1/2+z
1/2+x,1/2-y,1/2+z
loop_
_atom_site_type_symbol
_atom_site_label
_atom_site_fract_x
_atom_site_fract_y
_atom_site_fract_z
Si Si1 0.719683 0.824061 0.669844
Si Si2 0.500000 0.250000 0.250000
Si Si3 0.930320 0.304766 0.917215
Si Si4 0.162644 0.841447 0.210980
Si Si5 0.007923 0.979647 0.435725
Si Si6 0.673320 0.810160 0.985725
Si Si7 0.670899 0.557241 0.606506
Si Si8 0.176303 0.070013 0.409809
O O1 0.648776 0.831608 0.621292
O O2 0.690834 0.870680 0.726694
O O3 0.729194 0.728472 0.686906
O O4 0.803499 0.870517 0.643572
O O5 0.564316 0.305840 0.212189
O O6 0.977556 0.384026 0.938470
O O7 0.905518 0.251644 0.972763
O O8 0.000000 0.250000 0.882491
O O9 0.166927 0.920257 0.172154
O O10 0.915558 0.994558 0.406470
O O11 0.083417 0.026448 0.401337
O O12 0.000000 0.000000 0.500000
O O13 0.686300 0.860147 0.928296
O O14 0.750000 0.750000 0.000000
O O15 0.662313 0.874695 0.035400
O O16 0.750000 0.500000 0.592278
O O17 0.250000 0.000000 0.418406
#
# Coordination Sequence:
#
# PCOD8282542 Si02
#       8
#    16   4  16  16  16  16  16  16
#     4  10  21  37  65  89 124 158 209 259 312 372
#     4   8  20  32  72  92 124 142 216 286 316 358
#     4  12  21  37  63  91 122 159 205 260 309 378
#     4  10  22  38  62  97 121 164 212 272 323 368
#     4  12  25  40  61  94 130 167 209 259 324 390
#     4  12  22  36  63  87 119 164 206 248 320 380
#     4  12  26  42  59  85 134 167 204 266 330 379
#     4  12  22  39  61  95 132 169 202 257 322 391
#
# _framework density 19.279900000000001
#
# number of rings (size 3 to 8) (size 9 to 14) (size 15 to 20)
#    0.000    0.828    6.897    0.414    9.655    0.552 
#    0.000    0.000    0.000    0.000    0.000    3.862 
#    0.000    0.000    0.000    0.000    0.000    0.000 
#
# Total GULP energy -718629.992753 kJ/mol
# GULP energy per Si atom -12390.172289 kJ/mol
# Density = 1.923602 g / cm^3
# Si number density = 19.279900 Si / 1000 Ang^3
#
#
#
# Elastic Constant Matrix: (Units=GPa)
#
#
# Indices 1 2 3 4 5 6 
#
# 1 132.6559 55.5105 36.0138 0.0000 0.0000 0.0000
# 2 55.5105 83.1488 31.1194 0.0000 0.0000 0.0000
# 3 36.0138 31.1194 107.5132 0.0000 0.0000 0.0000
# 4 0.0000 0.0000 0.0000 12.3193 0.0000 0.0000
# 5 0.0000 0.0000 0.0000 0.0000 17.0755 0.0000
# 6 0.0000 0.0000 0.0000 0.0000 0.0000 36.5803
#
#
#
# Elastic Compliance Matrix: (Units=1/GPa)
#
#
# Indices 1 2 3 4 5 6 
#
# 1 0.010733 -0.006527 -0.001706 0.000000 0.000000 0.000000
# 2 -0.006527 0.017457 -0.002867 0.000000 0.000000 0.000000
# 3 -0.001706 -0.002867 0.010702 0.000000 0.000000 0.000000
# 4 0.000000 0.000000 0.000000 0.081173 0.000000 0.000000
# 5 0.000000 0.000000 0.000000 0.000000 0.058563 0.000000
# 6 0.000000 0.000000 0.000000 0.000000 0.000000 0.027337
#
#
# Mechanical properties :
#
#
# Convention : Reuss Voigt Hill
#
# Bulk Modulus (GPa) = 59.90441 63.17838 61.54140
# Shear Modulus (GPa) = 21.39240 26.57331 23.98286
#
# Velocity S-wave (km/s) = 3.33463 3.71656 3.53077
# Velocity P-wave (km/s) = 6.77973 7.15942 6.97216
#
# Compressibility (1/GPa) = 0.01669326
#
# Stress axis : x y z
#
# Youngs Moduli (GPa) = 93.17457 57.28471 93.43738
#
# Poissons Ratio (x) = 0.37388 0.15940
# Poissons Ratio (y) = 0.60811 0.26784
# Poissons Ratio (z) = 0.15895 0.16421
#
# Static dielectric constant tensor:
#      x y z
#    x 3.556700 0.000000 0.000000 
#    y 0.000000 3.714360 0.000000 
#    z 0.000000 0.000000 3.607100 
# 
# 
# High freq. dielectric constant tensor:
#      x y z
#    x 1.739330 0.000000 0.000000 
#    y 0.000000 1.751860 0.000000 
#    z 0.000000 0.000000 1.750430 
# 
# From -- ./inp_files/45677.got.cif
#   From: 2010.03.12/outbox.cif.g09.slc.cpg/sg68_23_cif.got.tgz:45677.got - 2010.04.10 23:14:56.
