data_PCOD8282847
_publ_section_title
;
Structure prediction by ZEFSAII (Michael W. Deem and Ramdas Pophale) SiO2 
 PCOD8282847
Probable space group: C C C A
;
_chemical_formula_sum "Si O2"
_cell_formula_units_Z 92
_cell_length_a 13.760707
_cell_length_b 19.506382
_cell_length_c 16.608036
_cell_angle_alpha 90.000000
_cell_angle_beta 90.000000
_cell_angle_gamma 90.000000
_cell_volume 4457.955718
_symmetry_space_group_name_H-M "C C C A"
_symmetry_group_IT_number 68
_space_group.IT_coordinate_system_code '2'
_symmetry_cell_setting 'orthorhombic'
loop_
_space_group_symop_operation_xyz
x,y,z
-x,1/2-y,z
x,1/2-y,1/2-z
-x,y,1/2-z
-x,-y,-z
x,1/2+y,-z
-x,1/2+y,1/2+z
x,-y,1/2+z
1/2+x,1/2+y,z
1/2-x,-y,z
1/2+x,-y,1/2-z
1/2-x,1/2+y,1/2-z
1/2-x,1/2-y,-z
1/2+x,y,-z
1/2-x,y,1/2+z
1/2+x,1/2-y,1/2+z
loop_
_atom_site_type_symbol
_atom_site_label
_atom_site_fract_x
_atom_site_fract_y
_atom_site_fract_z
Si Si1 0.658816 0.698175 0.322804
Si Si2 0.095243 0.715147 0.970903
Si Si3 0.000000 0.250000 0.750000
Si Si4 0.637581 0.016699 0.058568
Si Si5 0.361763 0.659856 0.634906
Si Si6 0.956170 0.930566 0.908479
Si Si7 0.000000 0.395269 0.250000
O O1 0.664440 0.750000 0.250000
O O2 0.651475 0.737466 0.407615
O O3 0.757811 0.654409 0.321796
O O4 0.567146 0.649580 0.308836
O O5 0.058242 0.648701 0.925043
O O6 0.000000 0.750000 0.006797
O O7 0.157973 0.699561 0.050526
O O8 0.936302 0.199609 0.693499
O O9 0.603175 0.082631 0.111697
O O10 0.750000 0.000000 0.074096
O O11 0.568879 0.952786 0.079056
O O12 0.620270 0.028102 0.962852
O O13 0.936095 0.941231 0.812269
#
# Coordination Sequence:
#
# PCOD8282847 Si02
#       7
#    16  16   4  16  16  16   8
#     4  12  21  37  62 102 132 162 208 274 332 375
#     4  11  20  38  64  97 125 173 209 265 329 381
#     4  12  24  46  64  96 134 172 218 276 320 402
#     4  10  23  46  64  89 129 175 218 262 313 397
#     4  11  25  42  67  92 134 175 217 264 332 390
#     4  10  22  39  64  92 122 170 215 257 325 381
#     4  12  21  37  64  95 132 155 210 276 324 375
#
# _framework density 20.637262
#
# number of rings (size 3 to 8) (size 9 to 14) (size 15 to 20)
#    0.000    1.043    5.217    1.826    0.000    0.696 
#    0.000    7.826    0.000    0.000    0.000    0.000 
#    0.000    0.000    0.000    0.000    0.000    0.000 
#
# Total GULP energy -569939.039268 kJ/mol
# GULP energy per Si atom -12389.979115 kJ/mol
# Density = 2.059029 g / cm^3
# Si number density = 20.637262 Si / 1000 Ang^3
#
#
#
# Elastic Constant Matrix: (Units=GPa)
#
#
# Indices 1 2 3 4 5 6 
#
# 1 103.0355 24.3634 27.9565 0.0000 0.0000 0.0000
# 2 24.3634 57.6679 37.0447 0.0000 0.0000 0.0000
# 3 27.9565 37.0447 138.8498 0.0000 0.0000 0.0000
# 4 0.0000 0.0000 0.0000 47.2883 0.0000 0.0000
# 5 0.0000 0.0000 0.0000 0.0000 24.9687 0.0000
# 6 0.0000 0.0000 0.0000 0.0000 0.0000 9.0108
#
#
#
# Elastic Compliance Matrix: (Units=1/GPa)
#
#
# Indices 1 2 3 4 5 6 
#
# 1 0.010938 -0.003869 -0.001170 0.000000 0.000000 0.000000
# 2 -0.003869 0.022296 -0.005169 0.000000 0.000000 0.000000
# 3 -0.001170 -0.005169 0.008817 0.000000 0.000000 0.000000
# 4 0.000000 0.000000 0.000000 0.021147 0.000000 0.000000
# 5 0.000000 0.000000 0.000000 0.000000 0.040050 0.000000
# 6 0.000000 0.000000 0.000000 0.000000 0.000000 0.110979
#
#
# Mechanical properties :
#
#
# Convention : Reuss Voigt Hill
#
# Bulk Modulus (GPa) = 46.22543 53.14250 49.68397
# Shear Modulus (GPa) = 20.67354 30.26612 25.46983
#
# Velocity S-wave (km/s) = 3.16849 3.83374 3.51688
# Velocity P-wave (km/s) = 5.98610 6.73821 6.37326
#
# Compressibility (1/GPa) = 0.02163311
#
# Stress axis : x y z
#
# Youngs Moduli (GPa) = 91.42626 44.85072 113.42015
#
# Poissons Ratio (x) = 0.17355 0.13269
# Poissons Ratio (y) = 0.35377 0.58632
# Poissons Ratio (z) = 0.10696 0.23185
#
# Static dielectric constant tensor:
#      x y z
#    x 3.254270 0.000000 0.000000 
#    y 0.000000 3.694700 0.000000 
#    z 0.000000 0.000000 4.060580 
# 
# 
# High freq. dielectric constant tensor:
#      x y z
#    x 1.797730 0.000000 0.000000 
#    y 0.000000 1.800680 0.000000 
#    z 0.000000 0.000000 1.825230 
# 
# From -- ./inp_files/29696.got.cif
#   From: 2010.03.12/outbox.cif.g09.slc.cpg/sg68_15_cif.got.tgz:29696.got - 2010.04.10 23:14:56.
