data_PCOD8282677
_publ_section_title
;
Structure prediction by ZEFSAII (Michael W. Deem and Ramdas Pophale) SiO2 
 PCOD8282677
Probable space group: C C C A
;
_chemical_formula_sum "Si O2"
_cell_formula_units_Z 88
_cell_length_a 17.453103
_cell_length_b 18.907739
_cell_length_c 12.138696
_cell_angle_alpha 90.000000
_cell_angle_beta 90.000000
_cell_angle_gamma 90.000000
_cell_volume 4005.754097
_symmetry_space_group_name_H-M "C C C A"
_symmetry_group_IT_number 68
_space_group.IT_coordinate_system_code '2'
_symmetry_cell_setting 'orthorhombic'
loop_
_space_group_symop_operation_xyz
x,y,z
-x,1/2-y,z
x,1/2-y,1/2-z
-x,y,1/2-z
-x,-y,-z
x,1/2+y,-z
-x,1/2+y,1/2+z
x,-y,1/2+z
1/2+x,1/2+y,z
1/2-x,-y,z
1/2+x,-y,1/2-z
1/2-x,1/2+y,1/2-z
1/2-x,1/2-y,-z
1/2+x,y,-z
1/2-x,y,1/2+z
1/2+x,1/2-y,1/2+z
loop_
_atom_site_type_symbol
_atom_site_label
_atom_site_fract_x
_atom_site_fract_y
_atom_site_fract_z
Si Si1 0.801643 0.596449 0.713111
Si Si2 0.032456 0.328138 0.531861
Si Si3 0.350984 0.044216 0.145954
Si Si4 0.386890 0.623519 0.073200
Si Si5 0.322532 0.225142 0.569227
Si Si6 0.000000 0.904777 0.250000
O O1 0.711992 0.576848 0.730916
O O2 0.833121 0.538990 0.623390
O O3 0.855288 0.582140 0.820331
O O4 0.801147 0.678381 0.675623
O O5 0.120779 0.327340 0.496509
O O6 0.033271 0.355638 0.655235
O O7 0.000000 0.250000 0.533229
O O8 0.979158 0.376720 0.449562
O O9 0.433676 0.046271 0.201819
O O10 0.346006 0.089972 0.033691
O O11 0.365711 0.703992 0.101414
O O12 0.250000 0.250000 0.500000
#
# Coordination Sequence:
#
# PCOD8282677 Si02
#       6
#    16  16  16  16  16   8
#     4  11  24  41  66  95 128 176 212 271 330 387
#     4   9  21  39  63  95 131 168 216 279 324 387
#     4  10  24  41  62  95 132 167 220 266 327 391
#     4  10  22  44  63  94 132 166 219 271 322 390
#     4  11  22  40  66  94 127 167 221 268 321 388
#     4  10  21  40  64  94 129 176 216 266 330 386
#
# _framework density 21.968397
#
# number of rings (size 3 to 8) (size 9 to 14) (size 15 to 20)
#    0.000    1.818    1.818    0.818    2.545    6.545 
#    0.000    6.364    0.000    0.000    0.000    0.000 
#    0.000    0.000    0.000    0.000    0.000    0.000 
#
# Total GULP energy -545103.270463 kJ/mol
# GULP energy per Si atom -12388.710692 kJ/mol
# Density = 2.191840 g / cm^3
# Si number density = 21.968397 Si / 1000 Ang^3
#
#
#
# Elastic Constant Matrix: (Units=GPa)
#
#
# Indices 1 2 3 4 5 6 
#
# 1 130.6636 29.9994 44.1093 0.0000 0.0000 0.0000
# 2 29.9994 97.5207 37.0905 0.0000 0.0000 0.0000
# 3 44.1093 37.0905 94.0529 0.0000 0.0000 0.0000
# 4 0.0000 0.0000 0.0000 25.8674 0.0000 0.0000
# 5 0.0000 0.0000 0.0000 0.0000 29.9292 0.0000
# 6 0.0000 0.0000 0.0000 0.0000 0.0000 26.4726
#
#
#
# Elastic Compliance Matrix: (Units=1/GPa)
#
#
# Indices 1 2 3 4 5 6 
#
# 1 0.009254 -0.001407 -0.003785 0.000000 0.000000 0.000000
# 2 -0.001407 0.012278 -0.004182 0.000000 0.000000 0.000000
# 3 -0.003785 -0.004182 0.014057 0.000000 0.000000 0.000000
# 4 0.000000 0.000000 0.000000 0.038659 0.000000 0.000000
# 5 0.000000 0.000000 0.000000 0.000000 0.033412 0.000000
# 6 0.000000 0.000000 0.000000 0.000000 0.000000 0.037775
#
#
# Mechanical properties :
#
#
# Convention : Reuss Voigt Hill
#
# Bulk Modulus (GPa) = 59.38198 60.51506 59.94852
# Shear Modulus (GPa) = 29.44718 30.52304 29.98511
#
# Velocity S-wave (km/s) = 3.66517 3.73152 3.69849
# Velocity P-wave (km/s) = 6.70825 6.79499 6.75176
#
# Compressibility (1/GPa) = 0.01684012
#
# Stress axis : x y z
#
# Youngs Moduli (GPa) = 108.06038 81.44919 71.14093
#
# Poissons Ratio (x) = 0.11461 0.26928
# Poissons Ratio (y) = 0.15206 0.29750
# Poissons Ratio (z) = 0.40902 0.34061
#
# Static dielectric constant tensor:
#      x y z
#    x 4.338900 0.000000 0.000000 
#    y 0.000000 4.052670 0.000000 
#    z 0.000000 0.000000 3.914380 
# 
# 
# High freq. dielectric constant tensor:
#      x y z
#    x 1.875760 0.000000 0.000000 
#    y 0.000000 1.871550 0.000000 
#    z 0.000000 0.000000 1.839410 
# 
# From -- ./inp_files/14472.got.cif
#   From: 2010.03.12/outbox.cif.g09.slc.cpg/sg68_8_cif.got.tgz:14472.got - 2010.04.10 23:14:56.
