data_PCOD8282088
_publ_section_title
;
Structure prediction by ZEFSAII (Michael W. Deem and Ramdas Pophale) SiO2 
 PCOD8282088
Probable space group: C C C A
;
_chemical_formula_sum "Si O2"
_cell_formula_units_Z 52
_cell_length_a 28.709696
_cell_length_b 13.538573
_cell_length_c 5.349981
_cell_angle_alpha 90.000000
_cell_angle_beta 90.000000
_cell_angle_gamma 90.000000
_cell_volume 2079.475101
_symmetry_space_group_name_H-M "C C C A"
_symmetry_group_IT_number 68
_space_group.IT_coordinate_system_code '2'
_symmetry_cell_setting 'orthorhombic'
loop_
_space_group_symop_operation_xyz
x,y,z
-x,1/2-y,z
x,1/2-y,1/2-z
-x,y,1/2-z
-x,-y,-z
x,1/2+y,-z
-x,1/2+y,1/2+z
x,-y,1/2+z
1/2+x,1/2+y,z
1/2-x,-y,z
1/2+x,-y,1/2-z
1/2-x,1/2+y,1/2-z
1/2-x,1/2-y,-z
1/2+x,y,-z
1/2-x,y,1/2+z
1/2+x,1/2-y,1/2+z
loop_
_atom_site_type_symbol
_atom_site_label
_atom_site_fract_x
_atom_site_fract_y
_atom_site_fract_z
Si Si1 0.376748 0.365745 0.524014
Si Si2 0.269088 0.389864 0.601328
Si Si3 0.000000 0.750000 0.250000
Si Si4 0.414793 0.151363 0.475947
O O1 0.323902 0.395429 0.563679
O O2 0.382390 0.248167 0.499663
O O3 0.395944 0.412375 0.261927
O O4 0.407852 0.405724 0.760579
O O5 0.250000 0.500000 0.642394
O O6 0.255983 0.335684 0.864658
O O7 0.968455 0.681792 0.430063
#
# Coordination Sequence:
#
# PCOD8282088 Si02
#       4
#    16  16   4  16
#     4   9  17  31  44  68  98 128 156 198 245 276
#     4  10  20  33  49  66  91 126 173 209 235 280
#     4   8  16  30  48  74 100 134 156 182 240 304
#     4   9  18  29  48  70 103 125 153 194 242 297
#
# _framework density 25.006311
#
# number of rings (size 3 to 8) (size 9 to 14) (size 15 to 20)
#    0.000    3.077    0.000    1.846    0.000    9.846 
#    0.000   18.462    0.000    0.000    0.000    0.000 
#    0.000  521.846    0.000    0.000    0.000    0.000 
#
# Total GULP energy -322092.908911 kJ/mol
# GULP energy per Si atom -12388.188804 kJ/mol
# Density = 2.494940 g / cm^3
# Si number density = 25.006311 Si / 1000 Ang^3
#
#
#
# Elastic Constant Matrix: (Units=GPa)
#
#
# Indices 1 2 3 4 5 6 
#
# 1 216.8265 11.7753 86.4898 0.0000 0.0000 0.0000
# 2 11.7753 32.5296 -13.4016 0.0000 0.0000 0.0000
# 3 86.4898 -13.4016 321.2794 0.0000 0.0000 0.0000
# 4 0.0000 0.0000 0.0000 -5.8458 0.0000 0.0000
# 5 0.0000 0.0000 0.0000 0.0000 31.4402 0.0000
# 6 0.0000 0.0000 0.0000 0.0000 0.0000 19.4940
#
#
#
# Elastic Compliance Matrix: (Units=1/GPa)
#
#
# Indices 1 2 3 4 5 6 
#
# 1 0.005372 -0.002585 -0.001554 0.000000 0.000000 0.000000
# 2 -0.002585 0.032523 0.002052 0.000000 0.000000 0.000000
# 3 -0.001554 0.002052 0.003617 0.000000 0.000000 0.000000
# 4 0.000000 0.000000 0.000000 -0.171062 0.000000 0.000000
# 5 0.000000 0.000000 0.000000 0.000000 0.031806 0.000000
# 6 0.000000 0.000000 0.000000 0.000000 0.000000 0.051298
#
#
# Mechanical properties :
#
#
# Convention : Reuss Voigt Hill
#
# Bulk Modulus (GPa) = 26.78215 82.26252 54.52234
# Shear Modulus (GPa) = -167.62943 41.40247 -63.11348
#
# Velocity S-wave (km/s) = -8.19636 4.07342 -5.02930
# Velocity P-wave (km/s) = 8.87921 7.42238 3.44591
#
# Compressibility (1/GPa) = 0.03733830
#
# Stress axis : x y z
#
# Youngs Moduli (GPa) = 186.14131 30.74793 276.50793
#
# Poissons Ratio (x) = 0.07948 0.42971
# Poissons Ratio (y) = 0.48116 -0.56753
# Poissons Ratio (z) = 0.28928 -0.06311
#
# Static dielectric constant tensor:
#      x y z
#    x 4.106800 0.000000 0.000000 
#    y 0.000000 3.811780 0.000000 
#    z 0.000000 0.000000 8.357920 
# 
# 
# High freq. dielectric constant tensor:
#      x y z
#    x 1.976880 0.000000 0.000000 
#    y 0.000000 1.955420 0.000000 
#    z 0.000000 0.000000 2.045740 
# 
# From -- ./inp_files/939.got.cif
#   From: 2010.03.12/outbox.cif.g09.slc.cpg/sg68_1_cif.got.tgz:939.got - 2010.04.10 23:14:56.
