data_PCOD8282195
_publ_section_title
;
Structure prediction by ZEFSAII (Michael W. Deem and Ramdas Pophale) SiO2 
 PCOD8282195
Probable space group: C C C A
;
_chemical_formula_sum "Si O2"
_cell_formula_units_Z 88
_cell_length_a 13.599718
_cell_length_b 13.810850
_cell_length_c 22.664506
_cell_angle_alpha 90.000000
_cell_angle_beta 90.000000
_cell_angle_gamma 90.000000
_cell_volume 4256.930590
_symmetry_space_group_name_H-M "C C C A"
_symmetry_group_IT_number 68
_space_group.IT_coordinate_system_code '2'
_symmetry_cell_setting 'orthorhombic'
loop_
_space_group_symop_operation_xyz
x,y,z
-x,1/2-y,z
x,1/2-y,1/2-z
-x,y,1/2-z
-x,-y,-z
x,1/2+y,-z
-x,1/2+y,1/2+z
x,-y,1/2+z
1/2+x,1/2+y,z
1/2-x,-y,z
1/2+x,-y,1/2-z
1/2-x,1/2+y,1/2-z
1/2-x,1/2-y,-z
1/2+x,y,-z
1/2-x,y,1/2+z
1/2+x,1/2-y,1/2+z
loop_
_atom_site_type_symbol
_atom_site_label
_atom_site_fract_x
_atom_site_fract_y
_atom_site_fract_z
Si Si1 0.403884 0.803334 0.809353
Si Si2 0.410848 0.575879 0.357788
Si Si3 0.563038 0.660408 0.444972
Si Si4 0.337685 0.065713 0.044792
Si Si5 0.500000 0.477648 0.250000
Si Si6 0.739252 0.767339 0.392032
O O1 0.500000 0.750000 0.836831
O O2 0.371688 0.750000 0.750000
O O3 0.430817 0.913973 0.793205
O O4 0.312608 0.797638 0.853254
O O5 0.508096 0.618422 0.388041
O O6 0.377243 0.483410 0.395630
O O7 0.432066 0.544971 0.290890
O O8 0.325758 0.656970 0.353884
O O9 0.500000 0.750000 0.470913
O O10 0.576631 0.579060 0.495853
O O11 0.671383 0.691814 0.425846
O O12 0.300422 0.173060 0.059809
O O13 0.250000 0.000000 0.018062
#
# Coordination Sequence:
#
# PCOD8282195 Si02
#       6
#    16  16  16  16   8  16
#     4   9  19  36  56  81 109 144 191 238 285 341
#     4  10  22  39  57  84 120 151 187 239 292 337
#     4  10  22  38  57  85 118 152 190 231 287 351
#     4  10  20  36  59  85 115 152 191 236 286 337
#     4  10  21  38  59  84 112 148 196 240 283 340
#     4  10  21  38  58  83 115 151 192 236 288 349
#
# _framework density 20.672170999999999
#
# number of rings (size 3 to 8) (size 9 to 14) (size 15 to 20)
#    0.000    2.364    0.000    3.273    0.000    5.091 
#    0.000    6.818    0.000    0.000    0.000    0.000 
#    0.000    0.000    0.000    0.000    0.000    0.000 
#
# Total GULP energy -545601.282770 kJ/mol
# GULP energy per Si atom -12400.029154 kJ/mol
# Density = 2.062512 g / cm^3
# Si number density = 20.672171 Si / 1000 Ang^3
#
#
#
# Elastic Constant Matrix: (Units=GPa)
#
#
# Indices 1 2 3 4 5 6 
#
# 1 102.4489 35.0235 56.2939 0.0000 0.0000 0.0000
# 2 35.0235 68.2549 34.1894 0.0000 0.0000 0.0000
# 3 56.2939 34.1894 80.9845 0.0000 0.0000 0.0000
# 4 0.0000 0.0000 0.0000 13.3616 0.0000 0.0000
# 5 0.0000 0.0000 0.0000 0.0000 23.5026 0.0000
# 6 0.0000 0.0000 0.0000 0.0000 0.0000 31.6250
#
#
#
# Elastic Compliance Matrix: (Units=1/GPa)
#
#
# Indices 1 2 3 4 5 6 
#
# 1 0.016403 -0.003431 -0.009954 0.000000 0.000000 0.000000
# 2 -0.003431 0.019298 -0.005762 0.000000 0.000000 0.000000
# 3 -0.009954 -0.005762 0.021700 0.000000 0.000000 0.000000
# 4 0.000000 0.000000 0.000000 0.074841 0.000000 0.000000
# 5 0.000000 0.000000 0.000000 0.000000 0.042548 0.000000
# 6 0.000000 0.000000 0.000000 0.000000 0.000000 0.031621
#
#
# Mechanical properties :
#
#
# Convention : Reuss Voigt Hill
#
# Bulk Modulus (GPa) = 52.33656 55.85576 54.09616
# Shear Modulus (GPa) = 19.91446 22.10994 21.01220
#
# Velocity S-wave (km/s) = 3.10715 3.27395 3.19164
# Velocity P-wave (km/s) = 6.18424 6.43196 6.30932
#
# Compressibility (1/GPa) = 0.01910710
#
# Stress axis : x y z
#
# Youngs Moduli (GPa) = 60.96304 51.81954 46.08368
#
# Poissons Ratio (x) = 0.17780 0.45871
# Poissons Ratio (y) = 0.20917 0.26553
# Poissons Ratio (z) = 0.60681 0.29858
#
# Static dielectric constant tensor:
#      x y z
#    x 3.792470 0.000000 0.000000 
#    y 0.000000 3.710270 0.000000 
#    z 0.000000 0.000000 3.396790 
# 
# 
# High freq. dielectric constant tensor:
#      x y z
#    x 1.813370 0.000000 0.000000 
#    y 0.000000 1.807430 0.000000 
#    z 0.000000 0.000000 1.789000 
# 
# From -- ./inp_files/38485.got.cif
#   From: 2010.03.12/outbox.cif.g09.slc.cpg/sg68_20_cif.got.tgz:38485.got - 2010.04.10 23:14:56.
