data_PCOD8282236
_publ_section_title
;
Structure prediction by ZEFSAII (Michael W. Deem and Ramdas Pophale) SiO2 
 PCOD8282236
Probable space group: C C C A
;
_chemical_formula_sum "Si O2"
_cell_formula_units_Z 96
_cell_length_a 14.525654
_cell_length_b 20.397470
_cell_length_c 16.640037
_cell_angle_alpha 90.000000
_cell_angle_beta 90.000000
_cell_angle_gamma 90.000000
_cell_volume 4930.219848
_symmetry_space_group_name_H-M "C C C A"
_symmetry_group_IT_number 68
_space_group.IT_coordinate_system_code '2'
_symmetry_cell_setting 'orthorhombic'
loop_
_space_group_symop_operation_xyz
x,y,z
-x,1/2-y,z
x,1/2-y,1/2-z
-x,y,1/2-z
-x,-y,-z
x,1/2+y,-z
-x,1/2+y,1/2+z
x,-y,1/2+z
1/2+x,1/2+y,z
1/2-x,-y,z
1/2+x,-y,1/2-z
1/2-x,1/2+y,1/2-z
1/2-x,1/2-y,-z
1/2+x,y,-z
1/2-x,y,1/2+z
1/2+x,1/2-y,1/2+z
loop_
_atom_site_type_symbol
_atom_site_label
_atom_site_fract_x
_atom_site_fract_y
_atom_site_fract_z
Si Si1 0.603409 0.634336 0.742170
Si Si2 0.767603 0.250000 0.750000
Si Si3 0.813346 0.238552 0.080738
Si Si4 0.060178 0.886254 0.069787
Si Si5 0.812041 0.911060 0.571469
Si Si6 0.000000 0.750000 0.995410
Si Si7 0.380377 0.457872 0.116251
O O1 0.500000 0.661227 0.750000
O O2 0.670780 0.689033 0.776761
O O3 0.619955 0.616980 0.650324
O O4 0.620584 0.569256 0.793638
O O5 0.715533 0.229363 0.833324
O O6 0.822377 0.162194 0.104045
O O7 0.913082 0.268163 0.060333
O O8 0.750000 0.250000 0.000000
O O9 0.974671 0.936415 0.072937
O O10 0.137432 0.915841 0.013237
O O11 0.024425 0.813111 0.049319
O O12 0.704563 0.929498 0.563707
O O13 0.867475 0.963712 0.626422
#
# Coordination Sequence:
#
# PCOD8282236 Si02
#       7
#    16   8  16  16  16   8  16
#     4  10  22  34  59  90 120 150 203 264 319 359
#     4  12  21  37  62  88 126 158 204 258 318 376
#     4  11  23  39  64  92 123 162 206 254 315 373
#     4  10  21  36  61  90 116 159 206 258 306 374
#     4  10  20  38  59  81 122 161 191 244 309 368
#     4  10  22  37  61  92 128 150 206 257 312 369
#     4  10  20  37  59  83 120 158 196 246 313 365
#
# _framework density 19.471748999999999
#
# number of rings (size 3 to 8) (size 9 to 14) (size 15 to 20)
#    0.000    1.667    1.667    3.750    7.000    0.333 
#    0.000    3.333   25.667    0.000    0.000    0.000 
#    0.000    0.000    0.000    0.000    0.000    0.000 
#
# Total GULP energy -594761.042995 kJ/mol
# GULP energy per Si atom -12390.855062 kJ/mol
# Density = 1.942743 g / cm^3
# Si number density = 19.471749 Si / 1000 Ang^3
#
#
#
# Elastic Constant Matrix: (Units=GPa)
#
#
# Indices 1 2 3 4 5 6 
#
# 1 110.1957 23.4002 55.0903 0.0000 0.0000 0.0000
# 2 23.4002 92.4105 32.0147 0.0000 0.0000 0.0000
# 3 55.0903 32.0147 136.1670 0.0000 0.0000 0.0000
# 4 0.0000 0.0000 0.0000 15.1014 0.0000 0.0000
# 5 0.0000 0.0000 0.0000 0.0000 10.2203 0.0000
# 6 0.0000 0.0000 0.0000 0.0000 0.0000 22.1094
#
#
#
# Elastic Compliance Matrix: (Units=1/GPa)
#
#
# Indices 1 2 3 4 5 6 
#
# 1 0.011544 -0.001421 -0.004337 0.000000 0.000000 0.000000
# 2 -0.001421 0.011956 -0.002236 0.000000 0.000000 0.000000
# 3 -0.004337 -0.002236 0.009624 0.000000 0.000000 0.000000
# 4 0.000000 0.000000 0.000000 0.066219 0.000000 0.000000
# 5 0.000000 0.000000 0.000000 0.000000 0.097844 0.000000
# 6 0.000000 0.000000 0.000000 0.000000 0.000000 0.045230
#
#
# Mechanical properties :
#
#
# Convention : Reuss Voigt Hill
#
# Bulk Modulus (GPa) = 58.35253 62.19815 60.27534
# Shear Modulus (GPa) = 18.93103 24.70411 21.81757
#
# Velocity S-wave (km/s) = 3.12144 3.56577 3.35098
# Velocity P-wave (km/s) = 6.55927 6.99750 6.78193
#
# Compressibility (1/GPa) = 0.01713722
#
# Stress axis : x y z
#
# Youngs Moduli (GPa) = 86.62145 83.64170 103.90537
#
# Poissons Ratio (x) = 0.11885 0.45059
# Poissons Ratio (y) = 0.12308 0.23234
# Poissons Ratio (z) = 0.37564 0.18703
#
# Static dielectric constant tensor:
#      x y z
#    x 3.819630 0.000000 0.000000 
#    y 0.000000 3.602800 0.000000 
#    z 0.000000 0.000000 3.650210 
# 
# 
# High freq. dielectric constant tensor:
#      x y z
#    x 1.764940 0.000000 0.000000 
#    y 0.000000 1.753700 0.000000 
#    z 0.000000 0.000000 1.751970 
# 
# From -- ./inp_files/22438.got.cif
#   From: 2010.03.12/outbox.cif.g09.slc.cpg/sg68_12_cif.got.tgz:22438.got - 2010.04.10 23:14:56.
