data_PCOD8282516
_publ_section_title
;
Structure prediction by ZEFSAII (Michael W. Deem and Ramdas Pophale) SiO2 
 PCOD8282516
Probable space group: C C C A
;
_chemical_formula_sum "Si O2"
_cell_formula_units_Z 64
_cell_length_a 7.374851
_cell_length_b 17.535598
_cell_length_c 22.912106
_cell_angle_alpha 90.000000
_cell_angle_beta 90.000000
_cell_angle_gamma 90.000000
_cell_volume 2963.049051
_symmetry_space_group_name_H-M "C C C A"
_symmetry_group_IT_number 68
_space_group.IT_coordinate_system_code '2'
_symmetry_cell_setting 'orthorhombic'
loop_
_space_group_symop_operation_xyz
x,y,z
-x,1/2-y,z
x,1/2-y,1/2-z
-x,y,1/2-z
-x,-y,-z
x,1/2+y,-z
-x,1/2+y,1/2+z
x,-y,1/2+z
1/2+x,1/2+y,z
1/2-x,-y,z
1/2+x,-y,1/2-z
1/2-x,1/2+y,1/2-z
1/2-x,1/2-y,-z
1/2+x,y,-z
1/2-x,y,1/2+z
1/2+x,1/2-y,1/2+z
loop_
_atom_site_type_symbol
_atom_site_label
_atom_site_fract_x
_atom_site_fract_y
_atom_site_fract_z
Si Si1 0.500000 0.931786 0.750000
Si Si2 0.250000 0.500000 0.839960
Si Si3 0.000000 0.750000 0.609714
Si Si4 0.250000 0.000000 0.964321
Si Si5 0.419461 0.907319 0.065648
Si Si6 0.184632 0.178127 0.283261
O O1 0.574262 0.984604 0.801184
O O2 0.663652 0.886047 0.719822
O O3 0.287579 0.427053 0.880564
O O4 0.925723 0.684606 0.566292
O O5 0.855226 0.795233 0.650325
O O6 0.392697 0.045838 0.924203
O O7 0.158159 0.065801 0.003687
O O8 0.268978 0.250000 0.250000
O O9 0.000000 0.151523 0.250000
#
# Coordination Sequence:
#
# PCOD8282516 Si02
#       6
#     8   8   8   8  16  16
#     4  12  25  38  62  93 136 182 218 258 318 395
#     4  11  26  37  64  96 128 175 224 253 326 400
#     4  10  21  36  68  92 130 158 220 267 330 392
#     4   9  22  43  70  84 132 161 216 283 330 388
#     4  10  22  43  63  96 121 172 214 273 333 386
#     4   9  20  39  59  89 131 173 212 269 317 381
#
# _framework density 21.599374000000001
#
# number of rings (size 3 to 8) (size 9 to 14) (size 15 to 20)
#    0.000    2.250    0.000    3.375    8.750    1.000 
#    0.000    0.000    0.000    0.000    0.000    0.000 
#    0.000    0.000    0.000    0.000    0.000    0.000 
#
# Total GULP energy -396634.308290 kJ/mol
# GULP energy per Si atom -12394.822134 kJ/mol
# Density = 2.155021 g / cm^3
# Si number density = 21.599374 Si / 1000 Ang^3
#
#
#
# Elastic Constant Matrix: (Units=GPa)
#
#
# Indices 1 2 3 4 5 6 
#
# 1 87.1272 31.7552 21.2937 0.0000 0.0000 0.0000
# 2 31.7552 129.4160 39.4643 0.0000 0.0000 0.0000
# 3 21.2937 39.4643 70.6797 0.0000 0.0000 0.0000
# 4 0.0000 0.0000 0.0000 74.2112 0.0000 0.0000
# 5 0.0000 0.0000 0.0000 0.0000 30.1877 0.0000
# 6 0.0000 0.0000 0.0000 0.0000 0.0000 43.7681
#
#
#
# Elastic Compliance Matrix: (Units=1/GPa)
#
#
# Indices 1 2 3 4 5 6 
#
# 1 0.012981 -0.002401 -0.002570 0.000000 0.000000 0.000000
# 2 -0.002401 0.009757 -0.004724 0.000000 0.000000 0.000000
# 3 -0.002570 -0.004724 0.017560 0.000000 0.000000 0.000000
# 4 0.000000 0.000000 0.000000 0.013475 0.000000 0.000000
# 5 0.000000 0.000000 0.000000 0.000000 0.033126 0.000000
# 6 0.000000 0.000000 0.000000 0.000000 0.000000 0.022848
#
#
# Mechanical properties :
#
#
# Convention : Reuss Voigt Hill
#
# Bulk Modulus (GPa) = 47.83131 52.47215 50.15173
# Shear Modulus (GPa) = 36.73575 42.61406 39.67490
#
# Velocity S-wave (km/s) = 4.12852 4.44659 4.29050
# Velocity P-wave (km/s) = 6.70217 7.12102 6.91477
#
# Compressibility (1/GPa) = 0.02090681
#
# Stress axis : x y z
#
# Youngs Moduli (GPa) = 77.03682 102.49128 56.94630
#
# Poissons Ratio (x) = 0.24613 0.14634
# Poissons Ratio (y) = 0.18500 0.26903
# Poissons Ratio (z) = 0.19797 0.48420
#
# Static dielectric constant tensor:
#      x y z
#    x 4.728460 0.000000 0.000000 
#    y 0.000000 3.888890 0.000000 
#    z 0.000000 0.000000 3.711270 
# 
# 
# High freq. dielectric constant tensor:
#      x y z
#    x 1.839040 0.000000 0.000000 
#    y 0.000000 1.851870 0.000000 
#    z 0.000000 0.000000 1.837760 
# 
# From -- ./inp_files/42889.got.cif
#   From: 2010.03.12/outbox.cif.g09.slc.cpg/sg68_22_cif.got.tgz:42889.got - 2010.04.10 23:14:56.
