data_PCOD8282100
_publ_section_title
;
Structure prediction by ZEFSAII (Michael W. Deem and Ramdas Pophale) SiO2 
 PCOD8282100
Probable space group: C C C A
;
_chemical_formula_sum "Si O2"
_cell_formula_units_Z 104
_cell_length_a 19.924023
_cell_length_b 26.260404
_cell_length_c 9.972867
_cell_angle_alpha 90.000000
_cell_angle_beta 90.000000
_cell_angle_gamma 90.000000
_cell_volume 5217.932597
_symmetry_space_group_name_H-M "C C C A"
_symmetry_group_IT_number 68
_space_group.IT_coordinate_system_code '2'
_symmetry_cell_setting 'orthorhombic'
loop_
_space_group_symop_operation_xyz
x,y,z
-x,1/2-y,z
x,1/2-y,1/2-z
-x,y,1/2-z
-x,-y,-z
x,1/2+y,-z
-x,1/2+y,1/2+z
x,-y,1/2+z
1/2+x,1/2+y,z
1/2-x,-y,z
1/2+x,-y,1/2-z
1/2-x,1/2+y,1/2-z
1/2-x,1/2-y,-z
1/2+x,y,-z
1/2-x,y,1/2+z
1/2+x,1/2-y,1/2+z
loop_
_atom_site_type_symbol
_atom_site_label
_atom_site_fract_x
_atom_site_fract_y
_atom_site_fract_z
Si Si1 0.644372 0.435135 0.116741
Si Si2 0.099159 0.880933 0.576012
Si Si3 0.709598 0.606822 0.867140
Si Si4 0.542211 0.514775 0.125702
Si Si5 0.016151 0.804726 0.905418
Si Si6 0.856889 0.637065 0.877526
Si Si7 0.750000 0.500000 0.984918
O O1 0.676379 0.393531 0.218454
O O2 0.580296 0.464022 0.179290
O O3 0.693095 0.481789 0.085577
O O4 0.624526 0.409395 0.975628
O O5 0.158554 0.867978 0.472364
O O6 0.088832 0.941006 0.567935
O O7 0.121781 0.871038 0.726264
O O8 0.032823 0.848618 0.534548
O O9 0.775733 0.643201 0.876528
O O10 0.726795 0.547704 0.894537
O O11 0.500000 0.536910 0.250000
O O12 0.500000 0.500000 0.000000
O O13 0.095821 0.816383 0.930015
O O14 0.000000 0.750000 0.973637
O O15 0.000000 0.801041 0.750000
#
# Coordination Sequence:
#
# PCOD8282100 Si02
#       7
#    16  16  16  16  16  16   8
#     4  11  22  34  52  80 118 158 193 229 283 346
#     4  11  21  38  57  83 112 148 192 239 287 340
#     4  11  22  34  56  83 120 155 193 232 280 340
#     4  12  23  34  50  77 112 152 192 237 277 334
#     4   9  19  39  66  87 107 144 194 246 298 349
#     4  10  21  37  58  85 114 147 191 243 284 343
#     4  10  20  34  52  74 112 160 200 224 270 326
#
# _framework density 19.931265
#
# number of rings (size 3 to 8) (size 9 to 14) (size 15 to 20)
#    0.000    1.385    1.538    6.462    4.308    0.000 
#    0.000    0.769    0.000    3.692    0.000    0.000 
#    0.000    0.000    0.000    0.000    0.000    0.000 
#
# Total GULP energy -644303.357884 kJ/mol
# GULP energy per Si atom -12390.449190 kJ/mol
# Density = 1.988590 g / cm^3
# Si number density = 19.931265 Si / 1000 Ang^3
#
#
#
# Elastic Constant Matrix: (Units=GPa)
#
#
# Indices 1 2 3 4 5 6 
#
# 1 136.2262 49.7717 39.0898 0.0000 0.0000 0.0000
# 2 49.7717 69.8021 17.5788 0.0000 0.0000 0.0000
# 3 39.0898 17.5788 75.4520 0.0000 0.0000 0.0000
# 4 0.0000 0.0000 0.0000 8.6724 0.0000 0.0000
# 5 0.0000 0.0000 0.0000 0.0000 30.3570 0.0000
# 6 0.0000 0.0000 0.0000 0.0000 0.0000 31.5368
#
#
#
# Elastic Compliance Matrix: (Units=1/GPa)
#
#
# Indices 1 2 3 4 5 6 
#
# 1 0.011012 -0.006815 -0.004117 0.000000 0.000000 0.000000
# 2 -0.006815 0.019437 -0.000998 0.000000 0.000000 0.000000
# 3 -0.004117 -0.000998 0.015619 0.000000 0.000000 0.000000
# 4 0.000000 0.000000 0.000000 0.115308 0.000000 0.000000
# 5 0.000000 0.000000 0.000000 0.000000 0.032941 0.000000
# 6 0.000000 0.000000 0.000000 0.000000 0.000000 0.031709
#
#
# Mechanical properties :
#
#
# Convention : Reuss Voigt Hill
#
# Bulk Modulus (GPa) = 45.02925 54.92897 49.97911
# Shear Modulus (GPa) = 19.43337 25.78259 22.60798
#
# Velocity S-wave (km/s) = 3.12592 3.60053 3.37159
# Velocity P-wave (km/s) = 5.97242 6.70105 6.34720
#
# Compressibility (1/GPa) = 0.02220779
#
# Stress axis : x y z
#
# Youngs Moduli (GPa) = 90.80824 51.44822 64.02474
#
# Poissons Ratio (x) = 0.35063 0.26361
# Poissons Ratio (y) = 0.61888 0.06387
# Poissons Ratio (z) = 0.37389 0.05133
#
# Static dielectric constant tensor:
#      x y z
#    x 4.018380 0.000000 0.000000 
#    y 0.000000 3.369310 0.000000 
#    z 0.000000 0.000000 3.386670 
# 
# 
# High freq. dielectric constant tensor:
#      x y z
#    x 1.795180 0.000000 0.000000 
#    y 0.000000 1.734020 0.000000 
#    z 0.000000 0.000000 1.767830 
# 
# From -- ./inp_files/14772.got.cif
#   From: 2010.03.12/outbox.cif.g09.slc.cpg/sg68_8_cif.got.tgz:14772.got - 2010.04.10 23:14:56.
