data_PCOD8282417
_publ_section_title
;
Structure prediction by ZEFSAII (Michael W. Deem and Ramdas Pophale) SiO2 
 PCOD8282417
Probable space group: C C C A
;
_chemical_formula_sum "Si O2"
_cell_formula_units_Z 80
_cell_length_a 29.765715
_cell_length_b 5.250685
_cell_length_c 21.841516
_cell_angle_alpha 90.000000
_cell_angle_beta 90.000000
_cell_angle_gamma 90.000000
_cell_volume 3413.619125
_symmetry_space_group_name_H-M "C C C A"
_symmetry_group_IT_number 68
_space_group.IT_coordinate_system_code '2'
_symmetry_cell_setting 'orthorhombic'
loop_
_space_group_symop_operation_xyz
x,y,z
-x,1/2-y,z
x,1/2-y,1/2-z
-x,y,1/2-z
-x,-y,-z
x,1/2+y,-z
-x,1/2+y,1/2+z
x,-y,1/2+z
1/2+x,1/2+y,z
1/2-x,-y,z
1/2+x,-y,1/2-z
1/2-x,1/2+y,1/2-z
1/2-x,1/2-y,-z
1/2+x,y,-z
1/2-x,y,1/2+z
1/2+x,1/2-y,1/2+z
loop_
_atom_site_type_symbol
_atom_site_label
_atom_site_fract_x
_atom_site_fract_y
_atom_site_fract_z
Si Si1 0.090628 0.189333 0.461480
Si Si2 0.633796 0.067770 0.143538
Si Si3 0.776887 0.249614 0.822101
Si Si4 0.615309 0.750000 0.250000
Si Si5 0.500000 0.250000 0.890474
Si Si6 0.446564 0.379854 0.313404
O O1 0.096674 0.475651 0.486144
O O2 0.041294 0.171276 0.432564
O O3 0.129874 0.134600 0.411673
O O4 0.676146 0.257576 0.138840
O O5 0.584592 0.199044 0.145061
O O6 0.645494 0.939503 0.209944
O O7 0.786016 0.250000 0.750000
O O8 0.750000 0.500000 0.842689
O O9 0.750000 0.000000 0.842810
O O10 0.584182 0.621978 0.199347
O O11 0.489999 0.504589 0.848958
O O12 0.461878 0.250000 0.250000
#
# Coordination Sequence:
#
# PCOD8282417 Si02
#       6
#    16  16  16   8   8  16
#     4  12  28  49  72  98 135 194 256 306 349 411
#     4  11  24  44  71  97 145 183 235 288 364 425
#     4  10  23  39  68 109 146 179 215 274 354 445
#     4  10  20  41  66 100 130 186 226 276 364 449
#     4  12  24  49  66  98 140 187 250 312 360 410
#     4  10  23  42  62  99 142 187 228 289 363 445
#
# _framework density 23.435541000000001
#
# number of rings (size 3 to 8) (size 9 to 14) (size 15 to 20)
#    0.000    1.200    2.000    3.600    7.000    2.800 
#    3.600    0.000    0.000    3.600    0.000    0.000 
#    0.000    0.000    0.000    0.000    0.000    0.000 
#
# Total GULP energy -495895.944821 kJ/mol
# GULP energy per Si atom -12397.398621 kJ/mol
# Density = 2.338220 g / cm^3
# Si number density = 23.435541 Si / 1000 Ang^3
#
#
#
# Elastic Constant Matrix: (Units=GPa)
#
#
# Indices 1 2 3 4 5 6 
#
# 1 117.3709 25.3651 32.2123 0.0000 0.0000 0.0000
# 2 25.3651 112.4936 22.4186 0.0000 0.0000 0.0000
# 3 32.2123 22.4186 67.1135 0.0000 0.0000 0.0000
# 4 0.0000 0.0000 0.0000 46.0651 0.0000 0.0000
# 5 0.0000 0.0000 0.0000 0.0000 1.8045 0.0000
# 6 0.0000 0.0000 0.0000 0.0000 0.0000 40.0264
#
#
#
# Elastic Compliance Matrix: (Units=1/GPa)
#
#
# Indices 1 2 3 4 5 6 
#
# 1 0.010012 -0.001393 -0.004340 0.000000 0.000000 0.000000
# 2 -0.001393 0.009717 -0.002578 0.000000 0.000000 0.000000
# 3 -0.004340 -0.002578 0.017844 0.000000 0.000000 0.000000
# 4 0.000000 0.000000 0.000000 0.021708 0.000000 0.000000
# 5 0.000000 0.000000 0.000000 0.000000 0.554167 0.000000
# 6 0.000000 0.000000 0.000000 0.000000 0.000000 0.024983
#
#
# Mechanical properties :
#
#
# Convention : Reuss Voigt Hill
#
# Bulk Modulus (GPa) = 47.72642 50.77442 49.25042
# Shear Modulus (GPa) = 7.55244 32.04467 19.79856
#
# Velocity S-wave (km/s) = 1.79712 3.70179 2.90971
# Velocity P-wave (km/s) = 4.97146 6.32326 5.68766
#
# Compressibility (1/GPa) = 0.02095275
#
# Stress axis : x y z
#
# Youngs Moduli (GPa) = 99.87867 102.91179 56.04015
#
# Poissons Ratio (x) = 0.14331 0.24323
# Poissons Ratio (y) = 0.13909 0.14444
# Poissons Ratio (z) = 0.43351 0.26526
#
# Static dielectric constant tensor:
#      x y z
#    x 4.011030 0.000000 0.000000 
#    y 0.000000 4.794710 0.000000 
#    z 0.000000 0.000000 4.036110 
# 
# 
# High freq. dielectric constant tensor:
#      x y z
#    x 1.916770 0.000000 0.000000 
#    y 0.000000 1.949000 0.000000 
#    z 0.000000 0.000000 1.900050 
# 
# From -- ./inp_files/47437.got.cif
#   From: 2010.03.12/outbox.cif.g09.slc.cpg/sg68_24_cif.got.tgz:47437.got - 2010.04.10 23:14:56.
