data_PCOD8282897
_publ_section_title
;
Structure prediction by ZEFSAII (Michael W. Deem and Ramdas Pophale) SiO2 
 PCOD8282897
Probable space group: C C C A
;
_chemical_formula_sum "Si O2"
_cell_formula_units_Z 64
_cell_length_a 16.403831
_cell_length_b 8.816226
_cell_length_c 19.117371
_cell_angle_alpha 90.000000
_cell_angle_beta 90.000000
_cell_angle_gamma 90.000000
_cell_volume 2764.751926
_symmetry_space_group_name_H-M "C C C A"
_symmetry_group_IT_number 68
_space_group.IT_coordinate_system_code '2'
_symmetry_cell_setting 'orthorhombic'
loop_
_space_group_symop_operation_xyz
x,y,z
-x,1/2-y,z
x,1/2-y,1/2-z
-x,y,1/2-z
-x,-y,-z
x,1/2+y,-z
-x,1/2+y,1/2+z
x,-y,1/2+z
1/2+x,1/2+y,z
1/2-x,-y,z
1/2+x,-y,1/2-z
1/2-x,1/2+y,1/2-z
1/2-x,1/2-y,-z
1/2+x,y,-z
1/2-x,y,1/2+z
1/2+x,1/2-y,1/2+z
loop_
_atom_site_type_symbol
_atom_site_label
_atom_site_fract_x
_atom_site_fract_y
_atom_site_fract_z
Si Si1 0.903702 0.731871 0.025898
Si Si2 0.116568 0.530016 0.596399
Si Si3 0.043153 0.089838 0.654996
Si Si4 0.667673 0.069534 0.745241
O O1 0.891875 0.617967 0.092185
O O2 0.000000 0.750000 0.016343
O O3 0.861411 0.889320 0.046130
O O4 0.866752 0.675832 0.952522
O O5 0.174136 0.530346 0.663359
O O6 0.023735 0.526660 0.624829
O O7 0.000000 0.250000 0.677123
O O8 0.089052 0.012780 0.720498
O O9 0.661209 0.250000 0.750000
O O10 0.750000 0.000000 0.779462
#
# Coordination Sequence:
#
# PCOD8282897 Si02
#       4
#    16  16  16  16
#     4   9  19  36  69 100 140 168 224 295 357 410
#     4  10  22  40  69 106 132 178 232 291 357 428
#     4   9  21  43  75 101 136 182 235 296 356 417
#     4  12  30  46  69 102 149 192 244 291 353 424
#
# _framework density 23.148551000000001
#
# number of rings (size 3 to 8) (size 9 to 14) (size 15 to 20)
#    0.000    2.500    0.000    3.750   14.000    5.000 
#    0.000    2.500    0.000    0.000    0.000    0.000 
#    0.000    0.000    0.000    0.000    0.000    0.000 
#
# Total GULP energy -396544.322113 kJ/mol
# GULP energy per Si atom -12392.010066 kJ/mol
# Density = 2.309586 g / cm^3
# Si number density = 23.148551 Si / 1000 Ang^3
#
#
#
# Elastic Constant Matrix: (Units=GPa)
#
#
# Indices 1 2 3 4 5 6 
#
# 1 64.3051 50.8247 31.0092 0.0000 0.0000 0.0000
# 2 50.8247 129.4603 60.7168 0.0000 0.0000 0.0000
# 3 31.0092 60.7168 152.6043 0.0000 0.0000 0.0000
# 4 0.0000 0.0000 0.0000 37.5756 0.0000 0.0000
# 5 0.0000 0.0000 0.0000 0.0000 17.3734 0.0000
# 6 0.0000 0.0000 0.0000 0.0000 0.0000 22.1735
#
#
#
# Elastic Compliance Matrix: (Units=1/GPa)
#
#
# Indices 1 2 3 4 5 6 
#
# 1 0.022760 -0.008318 -0.001315 0.000000 0.000000 0.000000
# 2 -0.008318 0.012537 -0.003298 0.000000 0.000000 0.000000
# 3 -0.001315 -0.003298 0.008132 0.000000 0.000000 0.000000
# 4 0.000000 0.000000 0.000000 0.026613 0.000000 0.000000
# 5 0.000000 0.000000 0.000000 0.000000 0.057559 0.000000
# 6 0.000000 0.000000 0.000000 0.000000 0.000000 0.045099
#
#
# Mechanical properties :
#
#
# Convention : Reuss Voigt Hill
#
# Bulk Modulus (GPa) = 56.92776 70.16348 63.54562
# Shear Modulus (GPa) = 24.45977 29.01245 26.73611
#
# Velocity S-wave (km/s) = 3.25413 3.54406 3.40219
# Velocity P-wave (km/s) = 6.22615 6.86462 6.55317
#
# Compressibility (1/GPa) = 0.01756612
#
# Stress axis : x y z
#
# Youngs Moduli (GPa) = 43.93739 79.76580 122.96827
#
# Poissons Ratio (x) = 0.66352 0.16172
# Poissons Ratio (y) = 0.36549 0.40551
# Poissons Ratio (z) = 0.05778 0.26304
#
# Static dielectric constant tensor:
#      x y z
#    x 3.606960 0.000000 0.000000 
#    y 0.000000 4.108940 0.000000 
#    z 0.000000 0.000000 4.560570 
# 
# 
# High freq. dielectric constant tensor:
#      x y z
#    x 1.868250 0.000000 0.000000 
#    y 0.000000 1.909130 0.000000 
#    z 0.000000 0.000000 1.933140 
# 
# From -- ./inp_files/44994.got.cif
#   From: 2010.03.12/outbox.cif.g09.slc.cpg/sg68_23_cif.got.tgz:44994.got - 2010.04.10 23:14:56.
