data_PCOD8282272
_publ_section_title
;
Structure prediction by ZEFSAII (Michael W. Deem and Ramdas Pophale) SiO2 
 PCOD8282272
Probable space group: C C C A
;
_chemical_formula_sum "Si O2"
_cell_formula_units_Z 88
_cell_length_a 25.861227
_cell_length_b 15.182828
_cell_length_c 10.441761
_cell_angle_alpha 90.000000
_cell_angle_beta 90.000000
_cell_angle_gamma 90.000000
_cell_volume 4099.921552
_symmetry_space_group_name_H-M "C C C A"
_symmetry_group_IT_number 68
_space_group.IT_coordinate_system_code '2'
_symmetry_cell_setting 'orthorhombic'
loop_
_space_group_symop_operation_xyz
x,y,z
-x,1/2-y,z
x,1/2-y,1/2-z
-x,y,1/2-z
-x,-y,-z
x,1/2+y,-z
-x,1/2+y,1/2+z
x,-y,1/2+z
1/2+x,1/2+y,z
1/2-x,-y,z
1/2+x,-y,1/2-z
1/2-x,1/2+y,1/2-z
1/2-x,1/2-y,-z
1/2+x,y,-z
1/2-x,y,1/2+z
1/2+x,1/2-y,1/2+z
loop_
_atom_site_type_symbol
_atom_site_label
_atom_site_fract_x
_atom_site_fract_y
_atom_site_fract_z
Si Si1 0.604892 0.750000 0.750000
Si Si2 0.809255 0.475845 0.448755
Si Si3 0.945873 0.205027 0.504236
Si Si4 0.055862 0.938833 0.693394
Si Si5 0.141880 0.933661 0.209305
Si Si6 0.632174 0.682818 0.350533
O O1 0.565720 0.799919 0.654091
O O2 0.641642 0.827662 0.806489
O O3 0.750000 0.500000 0.433095
O O4 0.839869 0.541453 0.353164
O O5 0.823994 0.482944 0.599425
O O6 0.821406 0.375503 0.407305
O O7 0.947306 0.107010 0.445898
O O8 0.897168 0.261720 0.457032
O O9 0.000000 0.250000 0.469111
O O10 0.088411 0.876141 0.785388
O O11 0.000000 0.955920 0.750000
O O12 0.083583 0.032977 0.682076
O O13 0.658254 0.750000 0.250000
#
# Coordination Sequence:
#
# PCOD8282272 Si02
#       6
#     8  16  16  16  16  16
#     4  12  25  42  58  92 146 176 216 288 345 392
#     4  11  23  47  73  98 131 180 233 292 353 404
#     4  11  20  36  62  97 135 177 222 266 328 408
#     4  10  20  37  67  94 130 184 226 265 330 415
#     4  11  25  45  67  99 137 178 230 289 345 416
#     4   9  19  37  65 100 133 167 226 279 326 404
#
# _framework density 21.463826000000001
#
# number of rings (size 3 to 8) (size 9 to 14) (size 15 to 20)
#    0.000    1.455    3.636    1.909    0.000    1.455 
#    1.636    4.545    0.000    0.000    0.000    0.000 
#    0.000    0.000    0.000    0.000    0.000    0.000 
#
# Total GULP energy -545410.016435 kJ/mol
# GULP energy per Si atom -12395.682192 kJ/mol
# Density = 2.141497 g / cm^3
# Si number density = 21.463826 Si / 1000 Ang^3
#
#
#
# Elastic Constant Matrix: (Units=GPa)
#
#
# Indices 1 2 3 4 5 6 
#
# 1 126.5618 50.7483 34.2861 0.0000 0.0000 0.0000
# 2 50.7483 107.0872 28.6376 0.0000 0.0000 0.0000
# 3 34.2861 28.6376 110.2149 0.0000 0.0000 0.0000
# 4 0.0000 0.0000 0.0000 29.5766 0.0000 0.0000
# 5 0.0000 0.0000 0.0000 0.0000 -11.5164 0.0000
# 6 0.0000 0.0000 0.0000 0.0000 0.0000 10.1399
#
#
#
# Elastic Compliance Matrix: (Units=1/GPa)
#
#
# Indices 1 2 3 4 5 6 
#
# 1 0.010170 -0.004270 -0.002054 0.000000 0.000000 0.000000
# 2 -0.004270 0.011828 -0.001745 0.000000 0.000000 0.000000
# 3 -0.002054 -0.001745 0.010166 0.000000 0.000000 0.000000
# 4 0.000000 0.000000 0.000000 0.033811 0.000000 0.000000
# 5 0.000000 0.000000 0.000000 0.000000 -0.086833 0.000000
# 6 0.000000 0.000000 0.000000 0.000000 0.000000 0.098620
#
#
# Mechanical properties :
#
#
# Convention : Reuss Voigt Hill
#
# Bulk Modulus (GPa) = 62.40149 63.46753 62.93451
# Shear Modulus (GPa) = 50.38147 20.98614 35.68381
#
# Velocity S-wave (km/s) = 4.85012 3.13028 4.08181
# Velocity P-wave (km/s) = 7.77823 6.53442 7.18330
#
# Compressibility (1/GPa) = 0.01602526
#
# Stress axis : x y z
#
# Youngs Moduli (GPa) = 98.32819 84.54163 98.37063
#
# Poissons Ratio (x) = 0.36101 0.20207
# Poissons Ratio (y) = 0.41988 0.17166
# Poissons Ratio (z) = 0.20198 0.14753
#
# Static dielectric constant tensor:
#      x y z
#    x 3.565070 0.000000 0.000000 
#    y 0.000000 3.946290 0.000000 
#    z 0.000000 0.000000 4.102460 
# 
# 
# High freq. dielectric constant tensor:
#      x y z
#    x 1.815750 0.000000 0.000000 
#    y 0.000000 1.842430 0.000000 
#    z 0.000000 0.000000 1.858020 
# 
# From -- ./inp_files/16294.got.cif
#   From: 2010.03.12/outbox.cif.g09.slc.cpg/sg68_9_cif.got.tgz:16294.got - 2010.04.10 23:14:56.
