data_PCOD8282528
_publ_section_title
;
Structure prediction by ZEFSAII (Michael W. Deem and Ramdas Pophale) SiO2 
 PCOD8282528
Probable space group: C C C A
;
_chemical_formula_sum "Si O2"
_cell_formula_units_Z 96
_cell_length_a 17.812542
_cell_length_b 23.266500
_cell_length_c 11.958564
_cell_angle_alpha 90.000000
_cell_angle_beta 90.000000
_cell_angle_gamma 90.000000
_cell_volume 4956.053552
_symmetry_space_group_name_H-M "C C C A"
_symmetry_group_IT_number 68
_space_group.IT_coordinate_system_code '2'
_symmetry_cell_setting 'orthorhombic'
loop_
_space_group_symop_operation_xyz
x,y,z
-x,1/2-y,z
x,1/2-y,1/2-z
-x,y,1/2-z
-x,-y,-z
x,1/2+y,-z
-x,1/2+y,1/2+z
x,-y,1/2+z
1/2+x,1/2+y,z
1/2-x,-y,z
1/2+x,-y,1/2-z
1/2-x,1/2+y,1/2-z
1/2-x,1/2-y,-z
1/2+x,y,-z
1/2-x,y,1/2+z
1/2+x,1/2-y,1/2+z
loop_
_atom_site_type_symbol
_atom_site_label
_atom_site_fract_x
_atom_site_fract_y
_atom_site_fract_z
Si Si1 0.500000 0.969197 0.250000
Si Si2 0.155396 0.261175 0.588314
Si Si3 0.583858 0.830438 0.752960
Si Si4 0.172831 0.283582 0.138221
Si Si5 0.250000 0.000000 0.764156
Si Si6 0.365117 0.083454 0.881895
Si Si7 0.112414 0.552091 0.360501
O O1 0.558546 0.930057 0.183408
O O2 0.546740 0.005413 0.342447
O O3 0.113251 0.319135 0.626973
O O4 0.135157 0.206094 0.663349
O O5 0.128156 0.246832 0.463047
O O6 0.242002 0.274543 0.604290
O O7 0.500000 0.807120 0.750000
O O8 0.587623 0.896633 0.780483
O O9 0.149941 0.250000 0.250000
O O10 0.154351 0.350792 0.145251
O O11 0.204651 0.955706 0.842529
O O12 0.306688 0.967998 0.681611
O O13 0.380483 0.072050 0.012134
#
# Coordination Sequence:
#
# PCOD8282528 Si02
#       7
#     8  16  16  16   8  16  16
#     4  10  24  44  63  89 124 168 214 258 320 376
#     4  10  21  37  59  90 123 161 206 253 301 365
#     4  11  20  38  64  89 121 156 213 257 298 363
#     4  11  22  39  61  89 131 166 199 253 318 381
#     4  10  24  36  68  96 120 160 214 264 322 378
#     4  11  23  43  63  93 129 166 208 265 318 385
#     4  11  21  42  65  92 123 163 211 266 314 371
#
# _framework density 19.370251
#
# number of rings (size 3 to 8) (size 9 to 14) (size 15 to 20)
#    0.000    1.333    4.167    3.000    0.000    0.000 
#    3.000    3.750    0.000    0.000    0.000    0.000 
#    0.000    0.000    0.000    0.000    0.000    0.000 
#
# Total GULP energy -594974.323747 kJ/mol
# GULP energy per Si atom -12395.298411 kJ/mol
# Density = 1.932616 g / cm^3
# Si number density = 19.370251 Si / 1000 Ang^3
#
#
#
# Elastic Constant Matrix: (Units=GPa)
#
#
# Indices 1 2 3 4 5 6 
#
# 1 109.6738 58.3704 46.3032 0.0000 0.0000 0.0000
# 2 58.3704 137.5132 84.0124 0.0000 0.0000 0.0000
# 3 46.3032 84.0124 137.0188 0.0000 0.0000 0.0000
# 4 0.0000 0.0000 0.0000 31.1262 0.0000 0.0000
# 5 0.0000 0.0000 0.0000 0.0000 17.1177 0.0000
# 6 0.0000 0.0000 0.0000 0.0000 0.0000 25.3127
#
#
#
# Elastic Compliance Matrix: (Units=1/GPa)
#
#
# Indices 1 2 3 4 5 6 
#
# 1 0.011965 -0.004171 -0.001486 0.000000 0.000000 0.000000
# 2 -0.004171 0.013082 -0.006611 0.000000 0.000000 0.000000
# 3 -0.001486 -0.006611 0.011854 0.000000 0.000000 0.000000
# 4 0.000000 0.000000 0.000000 0.032127 0.000000 0.000000
# 5 0.000000 0.000000 0.000000 0.000000 0.058419 0.000000
# 6 0.000000 0.000000 0.000000 0.000000 0.000000 0.039506
#
#
# Mechanical properties :
#
#
# Convention : Reuss Voigt Hill
#
# Bulk Modulus (GPa) = 80.87882 84.61977 82.74929
# Shear Modulus (GPa) = 25.56082 27.74596 26.65339
#
# Velocity S-wave (km/s) = 3.63656 3.78881 3.71347
# Velocity P-wave (km/s) = 7.71217 7.93224 7.82298
#
# Compressibility (1/GPa) = 0.01236418
#
# Stress axis : x y z
#
# Youngs Moduli (GPa) = 83.57548 76.44243 84.35803
#
# Poissons Ratio (x) = 0.31884 0.12536
# Poissons Ratio (y) = 0.34860 0.55773
# Poissons Ratio (z) = 0.12419 0.50540
#
# Static dielectric constant tensor:
#      x y z
#    x 3.654860 0.000000 0.000000 
#    y 0.000000 3.619530 0.000000 
#    z 0.000000 0.000000 4.441900 
# 
# 
# High freq. dielectric constant tensor:
#      x y z
#    x 1.762900 0.000000 0.000000 
#    y 0.000000 1.759100 0.000000 
#    z 0.000000 0.000000 1.760370 
# 
# From -- ./inp_files/14676.got.cif
#   From: 2010.03.12/outbox.cif.g09.slc.cpg/sg68_8_cif.got.tgz:14676.got - 2010.04.10 23:14:56.
