data_PCOD8282582
_publ_section_title
;
Structure prediction by ZEFSAII (Michael W. Deem and Ramdas Pophale) SiO2 
 PCOD8282582
Probable space group: C C C A
;
_chemical_formula_sum "Si O2"
_cell_formula_units_Z 104
_cell_length_a 24.652478
_cell_length_b 20.274837
_cell_length_c 8.799036
_cell_angle_alpha 90.000000
_cell_angle_beta 90.000000
_cell_angle_gamma 90.000000
_cell_volume 4397.977932
_symmetry_space_group_name_H-M "C C C A"
_symmetry_group_IT_number 68
_space_group.IT_coordinate_system_code '2'
_symmetry_cell_setting 'orthorhombic'
loop_
_space_group_symop_operation_xyz
x,y,z
-x,1/2-y,z
x,1/2-y,1/2-z
-x,y,1/2-z
-x,-y,-z
x,1/2+y,-z
-x,1/2+y,1/2+z
x,-y,1/2+z
1/2+x,1/2+y,z
1/2-x,-y,z
1/2+x,-y,1/2-z
1/2-x,1/2+y,1/2-z
1/2-x,1/2-y,-z
1/2+x,y,-z
1/2-x,y,1/2+z
1/2+x,1/2-y,1/2+z
loop_
_atom_site_type_symbol
_atom_site_label
_atom_site_fract_x
_atom_site_fract_y
_atom_site_fract_z
Si Si1 0.190725 0.116853 0.405523
Si Si2 0.077689 0.934932 0.846747
Si Si3 0.500000 0.665531 0.250000
Si Si4 0.330754 0.250042 0.075356
Si Si5 0.087771 0.069336 0.986697
Si Si6 0.949499 0.289682 0.964703
Si Si7 0.298029 0.111690 0.547253
O O1 0.133146 0.081937 0.436009
O O2 0.190559 0.189306 0.477056
O O3 0.241176 0.080409 0.488793
O O4 0.200963 0.112737 0.227577
O O5 0.031978 0.879208 0.877851
O O6 0.079141 0.934530 0.665572
O O7 0.060412 0.007144 0.903610
O O8 0.540764 0.709789 0.148392
O O9 0.311436 0.250000 0.250000
O O10 0.396020 0.247945 0.068519
O O11 0.303863 0.312902 0.000186
O O12 0.060145 0.134449 0.911816
O O13 0.153201 0.071111 0.966565
O O14 0.000000 0.250000 0.886673
#
# Coordination Sequence:
#
# PCOD8282582 Si02
#       7
#    16  16   8  16  16  16  16
#     4  11  22  39  63  90 122 167 210 258 322 385
#     4  10  22  39  62  90 124 162 209 254 313 383
#     4  10  21  40  66  94 119 166 214 262 320 370
#     4  11  23  39  59  89 126 162 208 265 325 385
#     4   9  22  41  60  89 121 162 208 257 315 377
#     4  10  21  38  62  88 122 160 208 262 317 379
#     4  10  22  39  60  88 123 162 210 257 315 384
#
# _framework density 23.647231000000001
#
# number of rings (size 3 to 8) (size 9 to 14) (size 15 to 20)
#    0.000    1.846    0.000    3.923    0.000   10.769 
#    0.000    7.692    0.000    0.000    0.000    0.000 
#    0.000    0.000    0.000    0.000    0.000    0.000 
#
# Total GULP energy -644426.777513 kJ/mol
# GULP energy per Si atom -12392.822644 kJ/mol
# Density = 2.359341 g / cm^3
# Si number density = 23.647231 Si / 1000 Ang^3
#
#
#
# Elastic Constant Matrix: (Units=GPa)
#
#
# Indices 1 2 3 4 5 6 
#
# 1 115.3616 -0.0269 15.8603 0.0000 0.0000 0.0000
# 2 -0.0269 46.2591 21.4076 0.0000 0.0000 0.0000
# 3 15.8603 21.4076 59.2027 0.0000 0.0000 0.0000
# 4 0.0000 0.0000 0.0000 40.5075 0.0000 0.0000
# 5 0.0000 0.0000 0.0000 0.0000 37.8516 0.0000
# 6 0.0000 0.0000 0.0000 0.0000 0.0000 25.3659
#
#
#
# Elastic Compliance Matrix: (Units=1/GPa)
#
#
# Indices 1 2 3 4 5 6 
#
# 1 0.009070 0.001357 -0.002921 0.000000 0.000000 0.000000
# 2 0.001357 0.026165 -0.009825 0.000000 0.000000 0.000000
# 3 -0.002921 -0.009825 0.021226 0.000000 0.000000 0.000000
# 4 0.000000 0.000000 0.000000 0.024687 0.000000 0.000000
# 5 0.000000 0.000000 0.000000 0.000000 0.026419 0.000000
# 6 0.000000 0.000000 0.000000 0.000000 0.000000 0.039423
#
#
# Mechanical properties :
#
#
# Convention : Reuss Voigt Hill
#
# Bulk Modulus (GPa) = 29.68731 32.81173 31.24952
# Shear Modulus (GPa) = 27.62510 32.98381 30.30446
#
# Velocity S-wave (km/s) = 3.42163 3.73879 3.58372
# Velocity P-wave (km/s) = 5.30957 5.70471 5.51068
#
# Compressibility (1/GPa) = 0.03368442
#
# Stress axis : x y z
#
# Youngs Moduli (GPa) = 110.25068 38.21928 47.11178
#
# Poissons Ratio (x) = -0.05186 0.13759
# Poissons Ratio (y) = -0.14959 0.46286
# Poissons Ratio (z) = 0.32199 0.37549
#
# Static dielectric constant tensor:
#      x y z
#    x 4.929150 0.000000 0.000000 
#    y 0.000000 4.409110 0.000000 
#    z 0.000000 0.000000 4.009850 
# 
# 
# High freq. dielectric constant tensor:
#      x y z
#    x 1.956720 0.000000 0.000000 
#    y 0.000000 1.930570 0.000000 
#    z 0.000000 0.000000 1.917230 
# 
# From -- ./inp_files/9001.got.cif
#   From: 2010.03.12/outbox.cif.g09.slc.cpg/sg68_5_cif.got.tgz:9001.got - 2010.04.10 23:14:56.
