data_PCOD8282548
_publ_section_title
;
Structure prediction by ZEFSAII (Michael W. Deem and Ramdas Pophale) SiO2 
 PCOD8282548
Probable space group: C C C A
;
_chemical_formula_sum "Si O2"
_cell_formula_units_Z 64
_cell_length_a 15.342645
_cell_length_b 9.080021
_cell_length_c 19.951052
_cell_angle_alpha 90.000000
_cell_angle_beta 90.000000
_cell_angle_gamma 90.000000
_cell_volume 2779.411755
_symmetry_space_group_name_H-M "C C C A"
_symmetry_group_IT_number 68
_space_group.IT_coordinate_system_code '2'
_symmetry_cell_setting 'orthorhombic'
loop_
_space_group_symop_operation_xyz
x,y,z
-x,1/2-y,z
x,1/2-y,1/2-z
-x,y,1/2-z
-x,-y,-z
x,1/2+y,-z
-x,1/2+y,1/2+z
x,-y,1/2+z
1/2+x,1/2+y,z
1/2-x,-y,z
1/2+x,-y,1/2-z
1/2-x,1/2+y,1/2-z
1/2-x,1/2-y,-z
1/2+x,y,-z
1/2-x,y,1/2+z
1/2+x,1/2-y,1/2+z
loop_
_atom_site_type_symbol
_atom_site_label
_atom_site_fract_x
_atom_site_fract_y
_atom_site_fract_z
Si Si1 0.601159 0.605641 0.428671
Si Si2 0.589986 0.158475 0.334739
Si Si3 0.600426 0.426677 0.550691
Si Si4 0.655252 0.553782 0.798459
O O1 0.642467 0.488820 0.481408
O O2 0.501514 0.608421 0.451653
O O3 0.644755 0.768108 0.434453
O O4 0.611391 0.554929 0.352169
O O5 0.500000 0.250000 0.346145
O O6 0.590485 0.064224 0.265597
O O7 0.665104 0.283092 0.330552
O O8 0.616824 0.050299 0.393644
O O9 0.750000 0.500000 0.776177
#
# Coordination Sequence:
#
# PCOD8282548 Si02
#       4
#    16  16  16  16
#     4  10  21  38  62 100 130 164 212 270 324 391
#     4  11  23  43  70  95 128 179 223 271 324 392
#     4  10  21  37  67  96 126 164 218 272 317 380
#     4  11  24  41  63  93 133 175 213 268 332 392
#
# _framework density 23.026456
#
# number of rings (size 3 to 8) (size 9 to 14) (size 15 to 20)
#    0.000    1.500    2.500    3.000    3.500    5.000 
#    0.000    8.750    0.000    0.000    0.000    0.000 
#    0.000    0.000    0.000    0.000    0.000    0.000 
#
# Total GULP energy -396468.287744 kJ/mol
# GULP energy per Si atom -12389.633992 kJ/mol
# Density = 2.297405 g / cm^3
# Si number density = 23.026456 Si / 1000 Ang^3
#
#
#
# Elastic Constant Matrix: (Units=GPa)
#
#
# Indices 1 2 3 4 5 6 
#
# 1 43.2721 6.7925 -6.8265 0.0000 0.0000 0.0000
# 2 6.7925 130.5666 32.5327 0.0000 0.0000 0.0000
# 3 -6.8265 32.5327 92.0939 0.0000 0.0000 0.0000
# 4 0.0000 0.0000 0.0000 52.1856 0.0000 0.0000
# 5 0.0000 0.0000 0.0000 0.0000 17.9098 0.0000
# 6 0.0000 0.0000 0.0000 0.0000 0.0000 26.4383
#
#
#
# Elastic Compliance Matrix: (Units=1/GPa)
#
#
# Indices 1 2 3 4 5 6 
#
# 1 0.023779 -0.001838 0.002412 0.000000 0.000000 0.000000
# 2 -0.001838 0.008540 -0.003153 0.000000 0.000000 0.000000
# 3 0.002412 -0.003153 0.012151 0.000000 0.000000 0.000000
# 4 0.000000 0.000000 0.000000 0.019162 0.000000 0.000000
# 5 0.000000 0.000000 0.000000 0.000000 0.055835 0.000000
# 6 0.000000 0.000000 0.000000 0.000000 0.000000 0.037824
#
#
# Mechanical properties :
#
#
# Convention : Reuss Voigt Hill
#
# Bulk Modulus (GPa) = 25.43790 36.77002 31.10396
# Shear Modulus (GPa) = 28.48130 34.86900 31.67515
#
# Velocity S-wave (km/s) = 3.52077 3.89562 3.71293
# Velocity P-wave (km/s) = 5.25347 6.01978 5.64963
#
# Compressibility (1/GPa) = 0.03931141
#
# Stress axis : x y z
#
# Youngs Moduli (GPa) = 42.05464 117.09339 82.29695
#
# Poissons Ratio (x) = 0.21522 -0.19849
# Poissons Ratio (y) = 0.07730 0.25949
# Poissons Ratio (z) = -0.10143 0.36921
#
# Static dielectric constant tensor:
#      x y z
#    x 3.655290 0.000000 0.000000 
#    y 0.000000 4.905580 0.000000 
#    z 0.000000 0.000000 4.169030 
# 
# 
# High freq. dielectric constant tensor:
#      x y z
#    x 1.860720 0.000000 0.000000 
#    y 0.000000 1.929820 0.000000 
#    z 0.000000 0.000000 1.916460 
# 
# From -- ./inp_files/39133.got.cif
#   From: 2010.03.12/outbox.cif.g09.slc.cpg/sg68_20_cif.got.tgz:39133.got - 2010.04.10 23:14:56.
