data_PCOD8282025
_publ_section_title
;
Structure prediction by ZEFSAII (Michael W. Deem and Ramdas Pophale) SiO2 
 PCOD8282025
Probable space group: C C C A
;
_chemical_formula_sum "Si O2"
_cell_formula_units_Z 80
_cell_length_a 9.332985
_cell_length_b 23.340883
_cell_length_c 17.212823
_cell_angle_alpha 90.000000
_cell_angle_beta 90.000000
_cell_angle_gamma 90.000000
_cell_volume 3749.643272
_symmetry_space_group_name_H-M "C C C A"
_symmetry_group_IT_number 68
_space_group.IT_coordinate_system_code '2'
_symmetry_cell_setting 'orthorhombic'
loop_
_space_group_symop_operation_xyz
x,y,z
-x,1/2-y,z
x,1/2-y,1/2-z
-x,y,1/2-z
-x,-y,-z
x,1/2+y,-z
-x,1/2+y,1/2+z
x,-y,1/2+z
1/2+x,1/2+y,z
1/2-x,-y,z
1/2+x,-y,1/2-z
1/2-x,1/2+y,1/2-z
1/2-x,1/2-y,-z
1/2+x,y,-z
1/2-x,y,1/2+z
1/2+x,1/2-y,1/2+z
loop_
_atom_site_type_symbol
_atom_site_label
_atom_site_fract_x
_atom_site_fract_y
_atom_site_fract_z
Si Si1 0.282162 0.419758 0.653081
Si Si2 0.971234 0.507782 0.409991
Si Si3 0.177473 0.314614 0.574566
Si Si4 0.344886 0.316179 0.418562
Si Si5 0.362200 0.586490 0.803408
O O1 0.163366 0.450388 0.599596
O O2 0.436186 0.445295 0.627755
O O3 0.260535 0.351982 0.639331
O O4 0.261824 0.433890 0.744371
O O5 0.000000 0.500000 0.500000
O O6 0.106238 0.535871 0.365217
O O7 0.252721 0.330364 0.493971
O O8 0.190272 0.249322 0.603460
O O9 0.010908 0.329168 0.563496
O O10 0.302955 0.357250 0.347392
O O11 0.500000 0.602157 0.750000
#
# Coordination Sequence:
#
# PCOD8282025 Si02
#       5
#    16  16  16  16  16
#     4  10  21  36  58  87 119 152 206 257 307 376
#     4  10  20  37  59  81 116 162 203 255 303 369
#     4  10  20  36  60  90 123 155 208 252 311 373
#     4  10  20  36  61  91 120 162 199 259 307 374
#     4  10  19  38  59  86 125 153 206 260 307 372
#
# _framework density 21.335362
#
# number of rings (size 3 to 8) (size 9 to 14) (size 15 to 20)
#    0.000    2.000    4.000    1.200    0.000    0.800 
#    0.000   22.000    0.000    0.000    0.000    5.600 
#    0.000    0.000    0.000    0.000    0.000    0.000 
#
# Total GULP energy -495842.934135 kJ/mol
# GULP energy per Si atom -12396.073353 kJ/mol
# Density = 2.128680 g / cm^3
# Si number density = 21.335362 Si / 1000 Ang^3
#
#
#
# Elastic Constant Matrix: (Units=GPa)
#
#
# Indices 1 2 3 4 5 6 
#
# 1 39.6070 42.4252 47.6910 0.0000 0.0000 0.0000
# 2 42.4252 125.7457 82.0654 0.0000 0.0000 0.0000
# 3 47.6910 82.0654 184.7383 0.0000 0.0000 0.0000
# 4 0.0000 0.0000 0.0000 38.6457 0.0000 0.0000
# 5 0.0000 0.0000 0.0000 0.0000 27.8994 0.0000
# 6 0.0000 0.0000 0.0000 0.0000 0.0000 28.8503
#
#
#
# Elastic Compliance Matrix: (Units=1/GPa)
#
#
# Indices 1 2 3 4 5 6 
#
# 1 0.044958 -0.010694 -0.006855 0.000000 0.000000 0.000000
# 2 -0.010694 0.013743 -0.003344 0.000000 0.000000 0.000000
# 3 -0.006855 -0.003344 0.008668 0.000000 0.000000 0.000000
# 4 0.000000 0.000000 0.000000 0.025876 0.000000 0.000000
# 5 0.000000 0.000000 0.000000 0.000000 0.035843 0.000000
# 6 0.000000 0.000000 0.000000 0.000000 0.000000 0.034662
#
#
# Mechanical properties :
#
#
# Convention : Reuss Voigt Hill
#
# Bulk Modulus (GPa) = 39.09054 77.16157 58.12606
# Shear Modulus (GPa) = 23.35731 30.93970 27.14850
#
# Velocity S-wave (km/s) = 3.31232 3.81223 3.57103
# Velocity P-wave (km/s) = 5.74372 7.45802 6.65629
#
# Compressibility (1/GPa) = 0.02558163
#
# Stress axis : x y z
#
# Youngs Moduli (GPa) = 22.24303 72.76274 115.36058
#
# Poissons Ratio (x) = 0.77814 0.79085
# Poissons Ratio (y) = 0.23787 0.38581
# Poissons Ratio (z) = 0.15249 0.24334
#
# Static dielectric constant tensor:
#      x y z
#    x 3.835040 0.000000 0.000000 
#    y 0.000000 4.171810 0.000000 
#    z 0.000000 0.000000 3.840480 
# 
# 
# High freq. dielectric constant tensor:
#      x y z
#    x 1.809570 0.000000 0.000000 
#    y 0.000000 1.845080 0.000000 
#    z 0.000000 0.000000 1.836320 
# 
# From -- ./inp_files/20867.got.cif
#   From: 2010.03.12/outbox.cif.g09.slc.cpg/sg68_11_cif.got.tgz:20867.got - 2010.04.10 23:14:56.
