data_PCOD8282381
_publ_section_title
;
Structure prediction by ZEFSAII (Michael W. Deem and Ramdas Pophale) SiO2 
 PCOD8282381
Probable space group: C C C A
;
_chemical_formula_sum "Si O2"
_cell_formula_units_Z 112
_cell_length_a 14.900850
_cell_length_b 17.354298
_cell_length_c 20.522164
_cell_angle_alpha 90.000000
_cell_angle_beta 90.000000
_cell_angle_gamma 90.000000
_cell_volume 5306.904196
_symmetry_space_group_name_H-M "C C C A"
_symmetry_group_IT_number 68
_space_group.IT_coordinate_system_code '2'
_symmetry_cell_setting 'orthorhombic'
loop_
_space_group_symop_operation_xyz
x,y,z
-x,1/2-y,z
x,1/2-y,1/2-z
-x,y,1/2-z
-x,-y,-z
x,1/2+y,-z
-x,1/2+y,1/2+z
x,-y,1/2+z
1/2+x,1/2+y,z
1/2-x,-y,z
1/2+x,-y,1/2-z
1/2-x,1/2+y,1/2-z
1/2-x,1/2-y,-z
1/2+x,y,-z
1/2-x,y,1/2+z
1/2+x,1/2-y,1/2+z
loop_
_atom_site_type_symbol
_atom_site_label
_atom_site_fract_x
_atom_site_fract_y
_atom_site_fract_z
Si Si1 0.468641 0.829134 0.323786
Si Si2 0.230383 0.210404 0.319166
Si Si3 0.918042 0.423021 0.557894
Si Si4 0.003514 0.502332 0.827628
Si Si5 0.817320 0.066200 0.637773
Si Si6 0.111727 0.084031 0.994279
Si Si7 0.751776 0.187174 0.443891
O O1 0.500000 0.750000 0.360299
O O2 0.500000 0.822794 0.250000
O O3 0.362204 0.835094 0.330571
O O4 0.511451 0.908270 0.351815
O O5 0.232008 0.250000 0.250000
O O6 0.304945 0.143439 0.319718
O O7 0.246673 0.274795 0.373050
O O8 0.921591 0.452481 0.634020
O O9 0.892988 0.495483 0.514024
O O10 0.840188 0.360846 0.551514
O O11 0.012646 0.387649 0.530316
O O12 0.000000 0.494017 0.750000
O O13 0.914034 0.467800 0.854537
O O14 0.812055 0.090412 0.562123
O O15 0.750000 0.000000 0.659774
O O16 0.156284 0.136966 0.050574
O O17 0.750000 0.250000 0.500000
#
# Coordination Sequence:
#
# PCOD8282381 Si02
#       7
#    16  16  16  16  16  16  16
#     4  10  20  40  61  94 139 170 227 282 341 412
#     4  12  26  42  66  99 139 180 225 285 346 412
#     4  10  24  44  71  99 135 176 234 285 343 417
#     4  10  23  40  66  98 132 177 224 279 345 414
#     4  11  21  42  69  90 129 180 228 266 343 418
#     4  10  23  46  70  97 131 176 231 288 336 410
#     4  12  26  45  67 101 138 179 230 283 346 410
#
# _framework density 21.104583000000002
#
# number of rings (size 3 to 8) (size 9 to 14) (size 15 to 20)
#    0.000    1.286    4.286    1.286    4.000    1.714 
#    0.000    0.000    0.000    0.000    0.000    0.000 
#    0.000    0.000    0.000    0.000    0.000    0.000 
#
# Total GULP energy -694029.723289 kJ/mol
# GULP energy per Si atom -12393.387916 kJ/mol
# Density = 2.105655 g / cm^3
# Si number density = 21.104583 Si / 1000 Ang^3
#
#
#
# Elastic Constant Matrix: (Units=GPa)
#
#
# Indices 1 2 3 4 5 6 
#
# 1 89.9058 58.4461 30.0247 0.0000 0.0000 0.0000
# 2 58.4461 134.2991 46.5503 0.0000 0.0000 0.0000
# 3 30.0247 46.5503 92.0012 0.0000 0.0000 0.0000
# 4 0.0000 0.0000 0.0000 -15.8740 0.0000 0.0000
# 5 0.0000 0.0000 0.0000 0.0000 351.3082 0.0000
# 6 0.0000 0.0000 0.0000 0.0000 0.0000 31.6966
#
#
#
# Elastic Compliance Matrix: (Units=1/GPa)
#
#
# Indices 1 2 3 4 5 6 
#
# 1 0.015819 -0.006179 -0.002036 0.000000 0.000000 0.000000
# 2 -0.006179 0.011443 -0.003773 0.000000 0.000000 0.000000
# 3 -0.002036 -0.003773 0.013443 0.000000 0.000000 0.000000
# 4 0.000000 0.000000 0.000000 -0.062996 0.000000 0.000000
# 5 0.000000 0.000000 0.000000 0.000000 0.002847 0.000000
# 6 0.000000 0.000000 0.000000 0.000000 0.000000 0.031549
#
#
# Mechanical properties :
#
#
# Convention : Reuss Voigt Hill
#
# Bulk Modulus (GPa) = 59.77788 65.13871 62.45830
# Shear Modulus (GPa) = 120.02410 85.50516 102.76463
#
# Velocity S-wave (km/s) = 7.54947 6.37204 6.98561
# Velocity P-wave (km/s) = 10.21660 9.22328 9.73262
#
# Compressibility (1/GPa) = 0.01672860
#
# Stress axis : x y z
#
# Youngs Moduli (GPa) = 63.21319 87.39036 74.38662
#
# Poissons Ratio (x) = 0.53996 0.15149
# Poissons Ratio (y) = 0.39057 0.28069
# Poissons Ratio (z) = 0.12873 0.32976
#
# Static dielectric constant tensor:
#      x y z
#    x 4.151430 0.000000 0.000000 
#    y 0.000000 3.750390 0.000000 
#    z 0.000000 0.000000 9.465490 
# 
# 
# High freq. dielectric constant tensor:
#      x y z
#    x 1.825670 0.000000 0.000000 
#    y 0.000000 1.837260 0.000000 
#    z 0.000000 0.000000 1.824800 
# 
# From -- ./inp_files/45509.got.cif
#   From: 2010.03.12/outbox.cif.g09.slc.cpg/sg68_23_cif.got.tgz:45509.got - 2010.04.10 23:14:56.
