data_PCOD8282912
_publ_section_title
;
Structure prediction by ZEFSAII (Michael W. Deem and Ramdas Pophale) SiO2 
 PCOD8282912
Probable space group: C C C A
;
_chemical_formula_sum "Si O2"
_cell_formula_units_Z 60
_cell_length_a 5.067327
_cell_length_b 19.779616
_cell_length_c 25.930407
_cell_angle_alpha 90.000000
_cell_angle_beta 90.000000
_cell_angle_gamma 90.000000
_cell_volume 2598.999046
_symmetry_space_group_name_H-M "C C C A"
_symmetry_group_IT_number 68
_space_group.IT_coordinate_system_code '2'
_symmetry_cell_setting 'orthorhombic'
loop_
_space_group_symop_operation_xyz
x,y,z
-x,1/2-y,z
x,1/2-y,1/2-z
-x,y,1/2-z
-x,-y,-z
x,1/2+y,-z
-x,1/2+y,1/2+z
x,-y,1/2+z
1/2+x,1/2+y,z
1/2-x,-y,z
1/2+x,-y,1/2-z
1/2-x,1/2+y,1/2-z
1/2-x,1/2-y,-z
1/2+x,y,-z
1/2-x,y,1/2+z
1/2+x,1/2-y,1/2+z
loop_
_atom_site_type_symbol
_atom_site_label
_atom_site_fract_x
_atom_site_fract_y
_atom_site_fract_z
Si Si1 0.139390 0.883343 0.533034
Si Si2 0.500000 0.750000 0.750000
Si Si3 0.500000 0.750000 0.418225
Si Si4 0.755243 0.339177 0.334407
Si Si5 0.242793 0.575900 0.855198
O O1 0.361035 0.902380 0.491975
O O2 0.166951 0.927278 0.584594
O O3 0.156490 0.803574 0.546657
O O4 0.308340 0.703692 0.716076
O O5 0.286221 0.788547 0.382729
O O6 0.527423 0.391714 0.347680
O O7 0.026624 0.379965 0.324274
O O8 0.250000 0.500000 0.832995
#
# Coordination Sequence:
#
# PCOD8282912 Si02
#       5
#    16   4   8  16  16
#     4  11  22  35  60  93 128 173 220 271 313 362
#     4  12  24  46  74 106 128 146 214 276 332 406
#     4  10  22  41  61  94 134 166 213 267 338 388
#     4  11  25  42  71  98 127 171 207 270 337 386
#     4  11  25  46  65  92 135 181 220 255 316 389
#
# _framework density 23.085812000000001
#
# number of rings (size 3 to 8) (size 9 to 14) (size 15 to 20)
#    0.000    1.067    0.000    8.000    0.000   10.133 
#    0.000    2.667    0.000    0.000    0.000    0.000 
#    0.000    0.000    0.000    0.000    0.000    0.000 
#
# Total GULP energy -372184.191424 kJ/mol
# GULP energy per Si atom -12406.139714 kJ/mol
# Density = 2.303327 g / cm^3
# Si number density = 23.085812 Si / 1000 Ang^3
#
#
#
# Elastic Constant Matrix: (Units=GPa)
#
#
# Indices 1 2 3 4 5 6 
#
# 1 105.9247 28.1851 11.1182 0.0000 0.0000 0.0000
# 2 28.1851 98.9079 14.3577 0.0000 0.0000 0.0000
# 3 11.1182 14.3577 74.8435 0.0000 0.0000 0.0000
# 4 0.0000 0.0000 0.0000 14.1582 0.0000 0.0000
# 5 0.0000 0.0000 0.0000 0.0000 28.6075 0.0000
# 6 0.0000 0.0000 0.0000 0.0000 0.0000 36.6259
#
#
#
# Elastic Compliance Matrix: (Units=1/GPa)
#
#
# Indices 1 2 3 4 5 6 
#
# 1 0.010287 -0.002787 -0.000993 0.000000 0.000000 0.000000
# 2 -0.002787 0.011155 -0.001726 0.000000 0.000000 0.000000
# 3 -0.000993 -0.001726 0.013840 0.000000 0.000000 0.000000
# 4 0.000000 0.000000 0.000000 0.070631 0.000000 0.000000
# 5 0.000000 0.000000 0.000000 0.000000 0.034956 0.000000
# 6 0.000000 0.000000 0.000000 0.000000 0.000000 0.027303
#
#
# Mechanical properties :
#
#
# Convention : Reuss Voigt Hill
#
# Bulk Modulus (GPa) = 41.20531 42.99978 42.10254
# Shear Modulus (GPa) = 26.69889 30.94597 28.82243
#
# Velocity S-wave (km/s) = 3.40443 3.66522 3.53723
# Velocity P-wave (km/s) = 5.77417 6.04800 5.91267
#
# Compressibility (1/GPa) = 0.02426872
#
# Stress axis : x y z
#
# Youngs Moduli (GPa) = 97.21442 89.64449 72.25490
#
# Poissons Ratio (x) = 0.24985 0.07178
# Poissons Ratio (y) = 0.27094 0.12471
# Poissons Ratio (z) = 0.09658 0.15472
#
# Static dielectric constant tensor:
#      x y z
#    x 4.672460 0.000000 0.000000 
#    y 0.000000 4.341140 0.000000 
#    z 0.000000 0.000000 4.096520 
# 
# 
# High freq. dielectric constant tensor:
#      x y z
#    x 1.923690 0.000000 0.000000 
#    y 0.000000 1.912150 0.000000 
#    z 0.000000 0.000000 1.903830 
# 
# From -- ./inp_files/42043.got.cif
#   From: 2010.03.12/outbox.cif.g09.slc.cpg/sg68_22_cif.got.tgz:42043.got - 2010.04.10 23:14:56.
