data_PCOD8282147
_publ_section_title
;
Structure prediction by ZEFSAII (Michael W. Deem and Ramdas Pophale) SiO2 
 PCOD8282147
Probable space group: C C C A
;
_chemical_formula_sum "Si O2"
_cell_formula_units_Z 116
_cell_length_a 23.464433
_cell_length_b 8.691988
_cell_length_c 29.219192
_cell_angle_alpha 90.000000
_cell_angle_beta 90.000000
_cell_angle_gamma 90.000000
_cell_volume 5959.329304
_symmetry_space_group_name_H-M "C C C A"
_symmetry_group_IT_number 68
_space_group.IT_coordinate_system_code '2'
_symmetry_cell_setting 'orthorhombic'
loop_
_space_group_symop_operation_xyz
x,y,z
-x,1/2-y,z
x,1/2-y,1/2-z
-x,y,1/2-z
-x,-y,-z
x,1/2+y,-z
-x,1/2+y,1/2+z
x,-y,1/2+z
1/2+x,1/2+y,z
1/2-x,-y,z
1/2+x,-y,1/2-z
1/2-x,1/2+y,1/2-z
1/2-x,1/2-y,-z
1/2+x,y,-z
1/2-x,y,1/2+z
1/2+x,1/2-y,1/2+z
loop_
_atom_site_type_symbol
_atom_site_label
_atom_site_fract_x
_atom_site_fract_y
_atom_site_fract_z
Si Si1 0.151013 0.902858 0.945359
Si Si2 0.378268 0.424774 0.656723
Si Si3 0.003589 0.571742 0.137297
Si Si4 0.000000 0.750000 0.750000
Si Si5 0.590477 0.096463 0.812889
Si Si6 0.476837 0.918616 0.456260
Si Si7 0.187454 0.932447 0.753284
Si Si8 0.210212 0.621490 0.980532
O O1 0.151264 0.959705 0.892359
O O2 0.089040 0.903018 0.966051
O O3 0.168214 0.720298 0.948394
O O4 0.184771 0.025696 0.976425
O O5 0.440999 0.500583 0.662952
O O6 0.385994 0.242140 0.659577
O O7 0.336574 0.484873 0.697049
O O8 0.009459 0.534277 0.084373
O O9 0.000000 0.750000 0.146699
O O10 0.940961 0.514396 0.151898
O O11 0.041016 0.640348 0.778021
O O12 0.642684 0.012471 0.785940
O O13 0.500000 0.750000 0.445272
O O14 0.500000 0.000000 0.500000
O O15 0.190837 0.750000 0.750000
O O16 0.250000 0.000000 0.744432
O O17 0.250000 0.500000 0.951961
O O18 0.250000 0.750000 0.000000
#
# Coordination Sequence:
#
# PCOD8282147 Si02
#       8
#    16  16  16   4  16  16  16  16
#     4  10  20  35  57  83 112 149 196 244 293 354
#     4  10  20  38  59  84 112 156 200 244 305 372
#     4  11  22  35  57  93 123 152 200 259 306 357
#     4  12  16  36  74  84 108 156 214 246 300 360
#     4  11  19  38  64  86 114 157 204 245 302 376
#     4  11  22  37  58  86 125 164 196 239 308 374
#     4  10  22  39  60  84 117 157 197 246 311 377
#     4   9  19  36  56  78 106 144 194 243 287 334
#
# _framework density 19.465277
#
# number of rings (size 3 to 8) (size 9 to 14) (size 15 to 20)
#    0.000    1.655    3.448    2.897    0.000    3.862 
#    0.000    7.931    0.000    3.310    0.000    0.000 
#    0.000    0.000    0.000    0.000    0.000    0.000 
#
# Total GULP energy -718596.888003 kJ/mol
# GULP energy per Si atom -12389.601517 kJ/mol
# Density = 1.942097 g / cm^3
# Si number density = 19.465277 Si / 1000 Ang^3
#
#
#
# Elastic Constant Matrix: (Units=GPa)
#
#
# Indices 1 2 3 4 5 6 
#
# 1 144.9685 40.1774 53.3871 0.0000 0.0000 0.0000
# 2 40.1774 78.2318 17.3929 0.0000 0.0000 0.0000
# 3 53.3871 17.3929 62.0034 0.0000 0.0000 0.0000
# 4 0.0000 0.0000 0.0000 21.1724 0.0000 0.0000
# 5 0.0000 0.0000 0.0000 0.0000 28.2817 0.0000
# 6 0.0000 0.0000 0.0000 0.0000 0.0000 39.4617
#
#
#
# Elastic Compliance Matrix: (Units=1/GPa)
#
#
# Indices 1 2 3 4 5 6 
#
# 1 0.011069 -0.003803 -0.008464 0.000000 0.000000 0.000000
# 2 -0.003803 0.014939 -0.000916 0.000000 0.000000 0.000000
# 3 -0.008464 -0.000916 0.023673 0.000000 0.000000 0.000000
# 4 0.000000 0.000000 0.000000 0.047231 0.000000 0.000000
# 5 0.000000 0.000000 0.000000 0.000000 0.035358 0.000000
# 6 0.000000 0.000000 0.000000 0.000000 0.000000 0.025341
#
#
# Mechanical properties :
#
#
# Convention : Reuss Voigt Hill
#
# Bulk Modulus (GPa) = 42.89107 56.34651 49.61879
# Shear Modulus (GPa) = 26.07558 29.39958 27.73758
#
# Velocity S-wave (km/s) = 3.66402 3.89055 3.77898
# Velocity P-wave (km/s) = 6.32317 7.01369 6.67737
#
# Compressibility (1/GPa) = 0.02331487
#
# Stress axis : x y z
#
# Youngs Moduli (GPa) = 90.34209 66.93753 42.24226
#
# Poissons Ratio (x) = 0.25456 0.35754
# Poissons Ratio (y) = 0.34357 0.03870
# Poissons Ratio (z) = 0.76466 0.06133
#
# Static dielectric constant tensor:
#      x y z
#    x 3.468970 0.000000 0.000000 
#    y 0.000000 2.764030 0.000000 
#    z 0.000000 0.000000 4.007670 
# 
# 
# High freq. dielectric constant tensor:
#      x y z
#    x 1.773490 0.000000 0.000000 
#    y 0.000000 1.748960 0.000000 
#    z 0.000000 0.000000 1.752110 
# 
# From -- ./inp_files/56080.got.cif
#   From: 2010.03.12/outbox.cif.g09.slc.cpg/sg68_29_cif.got.tgz:56080.got - 2010.04.10 23:14:56.
