data_PCOD8282651
_publ_section_title
;
Structure prediction by ZEFSAII (Michael W. Deem and Ramdas Pophale) SiO2 
 PCOD8282651
Probable space group: C C C A
;
_chemical_formula_sum "Si O2"
_cell_formula_units_Z 88
_cell_length_a 25.654820
_cell_length_b 5.233779
_cell_length_c 26.974542
_cell_angle_alpha 90.000000
_cell_angle_beta 90.000000
_cell_angle_gamma 90.000000
_cell_volume 3621.916483
_symmetry_space_group_name_H-M "C C C A"
_symmetry_group_IT_number 68
_space_group.IT_coordinate_system_code '2'
_symmetry_cell_setting 'orthorhombic'
loop_
_space_group_symop_operation_xyz
x,y,z
-x,1/2-y,z
x,1/2-y,1/2-z
-x,y,1/2-z
-x,-y,-z
x,1/2+y,-z
-x,1/2+y,1/2+z
x,-y,1/2+z
1/2+x,1/2+y,z
1/2-x,-y,z
1/2+x,-y,1/2-z
1/2-x,1/2+y,1/2-z
1/2-x,1/2-y,-z
1/2+x,y,-z
1/2-x,y,1/2+z
1/2+x,1/2-y,1/2+z
loop_
_atom_site_type_symbol
_atom_site_label
_atom_site_fract_x
_atom_site_fract_y
_atom_site_fract_z
Si Si1 0.598666 0.091821 0.871085
Si Si2 0.190699 0.992825 0.476194
Si Si3 0.750000 0.500000 0.783408
Si Si4 0.942002 0.999208 0.770690
Si Si5 0.836341 0.586147 0.365242
Si Si6 0.060711 0.212205 0.022915
O O1 0.556376 0.008036 0.830033
O O2 0.619492 0.372713 0.857364
O O3 0.568449 0.102336 0.922471
O O4 0.643325 0.876354 0.870013
O O5 0.162779 0.754776 0.504842
O O6 0.191487 0.977558 0.417076
O O7 0.250000 0.000000 0.495736
O O8 0.762568 0.750000 0.750000
O O9 0.798119 0.429124 0.818707
O O10 0.911886 0.750000 0.750000
O O11 0.000000 0.002980 0.750000
O O12 0.911866 0.250000 0.750000
O O13 0.000000 0.250000 0.010997
O O14 0.085264 0.496449 0.014791
#
# Coordination Sequence:
#
# PCOD8282651 Si02
#       6
#    16  16   8  16  16  16
#     4  12  26  41  72 102 139 176 227 292 337 402
#     4  10  21  39  66  96 132 175 216 269 334 397
#     4  12  28  50  74  92 138 196 230 288 358 410
#     4  10  23  43  65  96 126 169 216 279 345 404
#     4  12  26  45  67 106 136 177 237 279 337 422
#     4  10  23  44  67 100 141 188 231 269 339 430
#
# _framework density 24.296526
#
# number of rings (size 3 to 8) (size 9 to 14) (size 15 to 20)
#    0.000    1.091    0.909    4.364    2.545    8.727 
#    6.545    0.000    0.000    0.000    0.000    0.000 
#    0.000    0.000    0.000    0.000    0.000    0.000 
#
# Total GULP energy -545542.564723 kJ/mol
# GULP energy per Si atom -12398.694653 kJ/mol
# Density = 2.424123 g / cm^3
# Si number density = 24.296526 Si / 1000 Ang^3
#
#
#
# Elastic Constant Matrix: (Units=GPa)
#
#
# Indices 1 2 3 4 5 6 
#
# 1 36.0510 35.0815 23.0657 0.0000 0.0000 0.0000
# 2 35.0815 224.0534 75.2527 0.0000 0.0000 0.0000
# 3 23.0657 75.2527 193.5681 0.0000 0.0000 0.0000
# 4 0.0000 0.0000 0.0000 48.8686 0.0000 0.0000
# 5 0.0000 0.0000 0.0000 0.0000 38.5380 0.0000
# 6 0.0000 0.0000 0.0000 0.0000 0.0000 26.8320
#
#
#
# Elastic Compliance Matrix: (Units=1/GPa)
#
#
# Indices 1 2 3 4 5 6 
#
# 1 0.033555 -0.004498 -0.002250 0.000000 0.000000 0.000000
# 2 -0.004498 0.005737 -0.001694 0.000000 0.000000 0.000000
# 3 -0.002250 -0.001694 0.006093 0.000000 0.000000 0.000000
# 4 0.000000 0.000000 0.000000 0.020463 0.000000 0.000000
# 5 0.000000 0.000000 0.000000 0.000000 0.025948 0.000000
# 6 0.000000 0.000000 0.000000 0.000000 0.000000 0.037269
#
#
# Mechanical properties :
#
#
# Convention : Reuss Voigt Hill
#
# Bulk Modulus (GPa) = 35.08739 80.05249 57.56994
# Shear Modulus (GPa) = 32.16480 44.19923 38.18202
#
# Velocity S-wave (km/s) = 3.64241 4.26979 3.96852
# Velocity P-wave (km/s) = 5.67118 7.57151 6.68917
#
# Compressibility (1/GPa) = 0.02850027
#
# Stress axis : x y z
#
# Youngs Moduli (GPa) = 29.80164 174.31997 164.12709
#
# Poissons Ratio (x) = 0.78416 0.36923
# Poissons Ratio (y) = 0.13406 0.27806
# Poissons Ratio (z) = 0.06704 0.29533
#
# Static dielectric constant tensor:
#      x y z
#    x 4.064270 0.000000 0.000000 
#    y 0.000000 4.584280 0.000000 
#    z 0.000000 0.000000 4.377160 
# 
# 
# High freq. dielectric constant tensor:
#      x y z
#    x 1.960010 0.000000 0.000000 
#    y 0.000000 2.004150 0.000000 
#    z 0.000000 0.000000 1.970080 
# 
# From -- ./inp_files/47475.got.cif
#   From: 2010.03.12/outbox.cif.g09.slc.cpg/sg68_24_cif.got.tgz:47475.got - 2010.04.10 23:14:56.
