data_PCOD8282836
_publ_section_title
;
Structure prediction by ZEFSAII (Michael W. Deem and Ramdas Pophale) SiO2 
 PCOD8282836
Probable space group: C C C A
;
_chemical_formula_sum "Si O2"
_cell_formula_units_Z 96
_cell_length_a 22.680127
_cell_length_b 9.896910
_cell_length_c 22.520973
_cell_angle_alpha 90.000000
_cell_angle_beta 90.000000
_cell_angle_gamma 90.000000
_cell_volume 5055.129120
_symmetry_space_group_name_H-M "C C C A"
_symmetry_group_IT_number 68
_space_group.IT_coordinate_system_code '2'
_symmetry_cell_setting 'orthorhombic'
loop_
_space_group_symop_operation_xyz
x,y,z
-x,1/2-y,z
x,1/2-y,1/2-z
-x,y,1/2-z
-x,-y,-z
x,1/2+y,-z
-x,1/2+y,1/2+z
x,-y,1/2+z
1/2+x,1/2+y,z
1/2-x,-y,z
1/2+x,-y,1/2-z
1/2-x,1/2+y,1/2-z
1/2-x,1/2-y,-z
1/2+x,y,-z
1/2-x,y,1/2+z
1/2+x,1/2-y,1/2+z
loop_
_atom_site_type_symbol
_atom_site_label
_atom_site_fract_x
_atom_site_fract_y
_atom_site_fract_z
Si Si1 0.748183 0.657385 0.057183
Si Si2 0.129882 0.746820 0.075153
Si Si3 0.569645 0.900191 0.254049
Si Si4 0.557909 0.984256 0.879062
Si Si5 0.620854 0.721398 0.064433
Si Si6 0.919964 0.013010 0.128321
O O1 0.750000 0.500000 0.039175
O O2 0.805680 0.697944 0.095751
O O3 0.686506 0.689850 0.090139
O O4 0.750000 0.750000 0.000000
O O5 0.122774 0.592913 0.096176
O O6 0.080024 0.834523 0.106950
O O7 0.122784 0.759447 0.004579
O O8 0.597391 0.750000 0.250000
O O9 0.500000 0.887542 0.250000
O O10 0.585545 0.971908 0.315765
O O11 0.594209 0.987242 0.198718
O O12 0.580574 0.088715 0.928725
O O13 0.487849 0.976848 0.881679
O O14 0.591542 0.839883 0.101833
#
# Coordination Sequence:
#
# PCOD8282836 Si02
#       6
#    16  16  16  16  16  16
#     4  10  22  39  60  82 113 159 203 235 276 344
#     4  11  24  37  56  88 123 151 188 241 296 345
#     4   9  18  36  59  81 110 156 205 232 268 344
#     4  11  21  38  60  85 120 156 189 240 291 341
#     4  11  22  37  61  85 118 155 194 234 287 349
#     4  11  23  36  59  90 117 154 195 234 291 349
#
# _framework density 18.990613
#
# number of rings (size 3 to 8) (size 9 to 14) (size 15 to 20)
#    0.000    1.500    3.333    2.000    7.000    4.667 
#    0.000    2.500    0.000    6.000    0.000    0.000 
#    0.000    0.000    0.000    0.000    0.000    0.000 
#
# Total GULP energy -595180.076565 kJ/mol
# GULP energy per Si atom -12399.584928 kJ/mol
# Density = 1.894739 g / cm^3
# Si number density = 18.990613 Si / 1000 Ang^3
#
#
#
# Elastic Constant Matrix: (Units=GPa)
#
#
# Indices 1 2 3 4 5 6 
#
# 1 91.9994 27.5946 23.2194 0.0000 0.0000 0.0000
# 2 27.5946 79.4982 9.8082 0.0000 0.0000 0.0000
# 3 23.2194 9.8082 80.6410 0.0000 0.0000 0.0000
# 4 0.0000 0.0000 0.0000 17.6425 0.0000 0.0000
# 5 0.0000 0.0000 0.0000 0.0000 3.9234 0.0000
# 6 0.0000 0.0000 0.0000 0.0000 0.0000 33.9327
#
#
#
# Elastic Compliance Matrix: (Units=1/GPa)
#
#
# Indices 1 2 3 4 5 6 
#
# 1 0.012907 -0.004083 -0.003220 0.000000 0.000000 0.000000
# 2 -0.004083 0.014062 -0.000535 0.000000 0.000000 0.000000
# 3 -0.003220 -0.000535 0.013393 0.000000 0.000000 0.000000
# 4 0.000000 0.000000 0.000000 0.056681 0.000000 0.000000
# 5 0.000000 0.000000 0.000000 0.000000 0.254878 0.000000
# 6 0.000000 0.000000 0.000000 0.000000 0.000000 0.029470
#
#
# Mechanical properties :
#
#
# Convention : Reuss Voigt Hill
#
# Bulk Modulus (GPa) = 40.50714 41.48699 40.99706
# Shear Modulus (GPa) = 12.33669 23.86750 18.10209
#
# Velocity S-wave (km/s) = 2.55153 3.54899 3.09076
# Velocity P-wave (km/s) = 5.48241 6.21991 5.86277
#
# Compressibility (1/GPa) = 0.02468700
#
# Stress axis : x y z
#
# Youngs Moduli (GPa) = 77.47802 71.11326 74.66722
#
# Poissons Ratio (x) = 0.29035 0.24041
# Poissons Ratio (y) = 0.31633 0.03993
# Poissons Ratio (z) = 0.24946 0.03803
#
# Static dielectric constant tensor:
#      x y z
#    x 3.869980 0.000000 0.000000 
#    y 0.000000 3.485020 0.000000 
#    z 0.000000 0.000000 3.480950 
# 
# 
# High freq. dielectric constant tensor:
#      x y z
#    x 1.732190 0.000000 0.000000 
#    y 0.000000 1.751170 0.000000 
#    z 0.000000 0.000000 1.720090 
# 
# From -- ./inp_files/36508.got.cif
#   From: 2010.03.12/outbox.cif.g09.slc.cpg/sg68_19_cif.got.tgz:36508.got - 2010.04.10 23:14:56.
