data_PCOD8282418
_publ_section_title
;
Structure prediction by ZEFSAII (Michael W. Deem and Ramdas Pophale) SiO2 
 PCOD8282418
Probable space group: C C C A
;
_chemical_formula_sum "Si O2"
_cell_formula_units_Z 116
_cell_length_a 23.881294
_cell_length_b 9.895065
_cell_length_c 25.741323
_cell_angle_alpha 90.000000
_cell_angle_beta 90.000000
_cell_angle_gamma 90.000000
_cell_volume 6082.853692
_symmetry_space_group_name_H-M "C C C A"
_symmetry_group_IT_number 68
_space_group.IT_coordinate_system_code '2'
_symmetry_cell_setting 'orthorhombic'
loop_
_space_group_symop_operation_xyz
x,y,z
-x,1/2-y,z
x,1/2-y,1/2-z
-x,y,1/2-z
-x,-y,-z
x,1/2+y,-z
-x,1/2+y,1/2+z
x,-y,1/2+z
1/2+x,1/2+y,z
1/2-x,-y,z
1/2+x,-y,1/2-z
1/2-x,1/2+y,1/2-z
1/2-x,1/2-y,-z
1/2+x,y,-z
1/2-x,y,1/2+z
1/2+x,1/2-y,1/2+z
loop_
_atom_site_type_symbol
_atom_site_label
_atom_site_fract_x
_atom_site_fract_y
_atom_site_fract_z
Si Si1 0.187420 0.024905 0.475950
Si Si2 0.364153 0.130331 0.213404
Si Si3 0.000000 0.750000 0.750000
Si Si4 0.410819 0.050876 0.799771
Si Si5 0.852628 0.252481 0.550523
Si Si6 0.937775 0.789371 0.136411
Si Si7 0.202591 0.391140 0.142260
Si Si8 0.271527 0.638668 0.866217
O O1 0.149775 0.122415 0.511415
O O2 0.188133 0.081850 0.417693
O O3 0.250000 0.000000 0.497347
O O4 0.157609 0.881925 0.481946
O O5 0.342578 0.250000 0.250000
O O6 0.412563 0.183049 0.176224
O O7 0.309968 0.085126 0.181026
O O8 0.392105 0.008620 0.244476
O O9 0.040325 0.839722 0.787733
O O10 0.354248 0.107688 0.824954
O O11 0.433941 0.939783 0.840128
O O12 0.910766 0.230901 0.579842
O O13 0.804627 0.268020 0.593560
O O14 0.000000 0.750000 0.126132
O O15 0.250000 0.500000 0.161336
O O16 0.222763 0.238224 0.152599
O O17 0.250000 0.500000 0.892743
#
# Coordination Sequence:
#
# PCOD8282418 Si02
#       8
#    16  16   4  16  16  16  16  16
#     4  11  21  37  64  90 123 162 199 249 320 387
#     4   9  20  37  61  88 115 157 204 252 303 373
#     4  12  28  40  62  92 124 180 224 244 312 372
#     4  11  23  43  62  90 130 166 217 261 311 379
#     4  11  22  39  59  92 120 160 206 254 311 386
#     4  10  20  41  66  84 117 159 210 265 310 355
#     4  11  21  41  64  90 133 167 198 265 332 372
#     4  11  23  35  55  93 128 157 201 247 313 383
#
# _framework density 19.069997000000001
#
# number of rings (size 3 to 8) (size 9 to 14) (size 15 to 20)
#    0.000    1.379    4.138    3.310    3.862    3.586 
#    0.000    0.690    1.517    0.000    0.000    0.000 
#    0.000    0.000    0.000    0.000    0.000    0.000 
#
# Total GULP energy -718999.866413 kJ/mol
# GULP energy per Si atom -12396.549421 kJ/mol
# Density = 1.902659 g / cm^3
# Si number density = 19.069997 Si / 1000 Ang^3
#
#
#
# Elastic Constant Matrix: (Units=GPa)
#
#
# Indices 1 2 3 4 5 6 
#
# 1 120.1437 63.5656 42.4176 0.0000 0.0000 0.0000
# 2 63.5656 138.8259 45.3919 0.0000 0.0000 0.0000
# 3 42.4176 45.3919 77.7035 0.0000 0.0000 0.0000
# 4 0.0000 0.0000 0.0000 40.0007 0.0000 0.0000
# 5 0.0000 0.0000 0.0000 0.0000 14.6536 0.0000
# 6 0.0000 0.0000 0.0000 0.0000 0.0000 28.3703
#
#
#
# Elastic Compliance Matrix: (Units=1/GPa)
#
#
# Indices 1 2 3 4 5 6 
#
# 1 0.011963 -0.004131 -0.004117 0.000000 0.000000 0.000000
# 2 -0.004131 0.010331 -0.003780 0.000000 0.000000 0.000000
# 3 -0.004117 -0.003780 0.017325 0.000000 0.000000 0.000000
# 4 0.000000 0.000000 0.000000 0.025000 0.000000 0.000000
# 5 0.000000 0.000000 0.000000 0.000000 0.068243 0.000000
# 6 0.000000 0.000000 0.000000 0.000000 0.000000 0.035248
#
#
# Mechanical properties :
#
#
# Convention : Reuss Voigt Hill
#
# Bulk Modulus (GPa) = 64.25743 71.04703 67.65223
# Shear Modulus (GPa) = 25.33547 28.95812 27.14680
#
# Velocity S-wave (km/s) = 3.64888 3.90104 3.77707
# Velocity P-wave (km/s) = 7.17783 7.59129 7.38745
#
# Compressibility (1/GPa) = 0.01556240
#
# Stress axis : x y z
#
# Youngs Moduli (GPa) = 83.59317 96.79816 57.72094
#
# Poissons Ratio (x) = 0.39991 0.23763
# Poissons Ratio (y) = 0.34536 0.21816
# Poissons Ratio (z) = 0.34414 0.36586
#
# Static dielectric constant tensor:
#      x y z
#    x 3.427490 0.000000 0.000000 
#    y 0.000000 3.555480 0.000000 
#    z 0.000000 0.000000 3.573740 
# 
# 
# High freq. dielectric constant tensor:
#      x y z
#    x 1.731740 0.000000 0.000000 
#    y 0.000000 1.747690 0.000000 
#    z 0.000000 0.000000 1.737160 
# 
# From -- ./inp_files/43535.got.cif
#   From: 2010.03.12/outbox.cif.g09.slc.cpg/sg68_22_cif.got.tgz:43535.got - 2010.04.10 23:14:56.
