data_PCOD8282869
_publ_section_title
;
Structure prediction by ZEFSAII (Michael W. Deem and Ramdas Pophale) SiO2 
 PCOD8282869
Probable space group: C C C A
;
_chemical_formula_sum "Si O2"
_cell_formula_units_Z 88
_cell_length_a 24.717397
_cell_length_b 13.721564
_cell_length_c 11.704079
_cell_angle_alpha 90.000000
_cell_angle_beta 90.000000
_cell_angle_gamma 90.000000
_cell_volume 3969.571174
_symmetry_space_group_name_H-M "C C C A"
_symmetry_group_IT_number 68
_space_group.IT_coordinate_system_code '2'
_symmetry_cell_setting 'orthorhombic'
loop_
_space_group_symop_operation_xyz
x,y,z
-x,1/2-y,z
x,1/2-y,1/2-z
-x,y,1/2-z
-x,-y,-z
x,1/2+y,-z
-x,1/2+y,1/2+z
x,-y,1/2+z
1/2+x,1/2+y,z
1/2-x,-y,z
1/2+x,-y,1/2-z
1/2-x,1/2+y,1/2-z
1/2-x,1/2-y,-z
1/2+x,y,-z
1/2-x,y,1/2+z
1/2+x,1/2-y,1/2+z
loop_
_atom_site_type_symbol
_atom_site_label
_atom_site_fract_x
_atom_site_fract_y
_atom_site_fract_z
Si Si1 0.853616 0.010417 0.891737
Si Si2 0.196609 0.750000 0.750000
Si Si3 0.278801 0.088104 0.289271
Si Si4 0.382687 0.671186 0.064688
Si Si5 0.440050 0.489297 0.702192
Si Si6 0.378301 0.358483 0.061158
O O1 0.801478 0.026099 0.816226
O O2 0.906116 0.015446 0.812908
O O3 0.853307 0.088008 0.993680
O O4 0.853416 0.903606 0.946124
O O5 0.235308 0.658480 0.767131
O O6 0.160434 0.771293 0.859885
O O7 0.326919 0.147447 0.352361
O O8 0.250000 0.000000 0.363951
O O9 0.427450 0.617372 0.145128
O O10 0.403741 0.752652 0.972793
O O11 0.500000 0.489765 0.750000
O O12 0.427478 0.574972 0.610015
#
# Coordination Sequence:
#
# PCOD8282869 Si02
#       6
#    16   8  16  16  16  16
#     4  10  22  41  62  89 129 168 211 264 316 375
#     4  12  24  38  59  94 129 166 218 258 304 376
#     4  11  22  36  59  90 128 173 215 259 311 371
#     4  11  23  41  64  92 128 167 209 265 318 373
#     4  10  23  45  68  92 126 164 210 267 320 380
#     4  10  22  40  62  93 129 167 213 262 316 378
#
# _framework density 22.168642999999999
#
# number of rings (size 3 to 8) (size 9 to 14) (size 15 to 20)
#    0.000    1.455    0.000    6.545    0.000   11.636 
#    0.000    9.545    0.000    0.000    0.000    0.000 
#    0.000    0.000    0.000    0.000    0.000    0.000 
#
# Total GULP energy -545102.002342 kJ/mol
# GULP energy per Si atom -12388.681871 kJ/mol
# Density = 2.211819 g / cm^3
# Si number density = 22.168643 Si / 1000 Ang^3
#
#
#
# Elastic Constant Matrix: (Units=GPa)
#
#
# Indices 1 2 3 4 5 6 
#
# 1 122.1196 58.6803 37.2070 0.0000 0.0000 0.0000
# 2 58.6803 123.6497 24.6849 0.0000 0.0000 0.0000
# 3 37.2070 24.6849 81.1909 0.0000 0.0000 0.0000
# 4 0.0000 0.0000 0.0000 37.3103 0.0000 0.0000
# 5 0.0000 0.0000 0.0000 0.0000 0.8458 0.0000
# 6 0.0000 0.0000 0.0000 0.0000 0.0000 14.0493
#
#
#
# Elastic Compliance Matrix: (Units=1/GPa)
#
#
# Indices 1 2 3 4 5 6 
#
# 1 0.011662 -0.004756 -0.003898 0.000000 0.000000 0.000000
# 2 -0.004756 0.010550 -0.001028 0.000000 0.000000 0.000000
# 3 -0.003898 -0.001028 0.014416 0.000000 0.000000 0.000000
# 4 0.000000 0.000000 0.000000 0.026802 0.000000 0.000000
# 5 0.000000 0.000000 0.000000 0.000000 1.182352 0.000000
# 6 0.000000 0.000000 0.000000 0.000000 0.000000 0.071178
#
#
# Mechanical properties :
#
#
# Convention : Reuss Voigt Hill
#
# Bulk Modulus (GPa) = 57.92856 63.12275 60.52565
# Shear Modulus (GPa) = 3.72557 24.20028 13.96292
#
# Velocity S-wave (km/s) = 1.29777 3.30759 2.51240
# Velocity P-wave (km/s) = 5.33228 6.56678 5.98146
#
# Compressibility (1/GPa) = 0.01726264
#
# Stress axis : x y z
#
# Youngs Moduli (GPa) = 85.75046 94.78969 69.36945
#
# Poissons Ratio (x) = 0.45083 0.27041
# Poissons Ratio (y) = 0.40784 0.07131
# Poissons Ratio (z) = 0.33427 0.09744
#
# Static dielectric constant tensor:
#      x y z
#    x 3.835840 0.000000 0.000000 
#    y 0.000000 4.345800 0.000000 
#    z 0.000000 0.000000 4.205240 
# 
# 
# High freq. dielectric constant tensor:
#      x y z
#    x 1.846460 0.000000 0.000000 
#    y 0.000000 1.891090 0.000000 
#    z 0.000000 0.000000 1.880820 
# 
# From -- ./inp_files/13309.got.cif
#   From: 2010.03.12/outbox.cif.g09.slc.cpg/sg68_7_cif.got.tgz:13309.got - 2010.04.10 23:14:56.
