data_PCOD8282125
_publ_section_title
;
Structure prediction by ZEFSAII (Michael W. Deem and Ramdas Pophale) SiO2 
 PCOD8282125
Probable space group: C C C A
;
_chemical_formula_sum "Si O2"
_cell_formula_units_Z 88
_cell_length_a 8.899514
_cell_length_b 20.051709
_cell_length_c 24.407699
_cell_angle_alpha 90.000000
_cell_angle_beta 90.000000
_cell_angle_gamma 90.000000
_cell_volume 4355.565235
_symmetry_space_group_name_H-M "C C C A"
_symmetry_group_IT_number 68
_space_group.IT_coordinate_system_code '2'
_symmetry_cell_setting 'orthorhombic'
loop_
_space_group_symop_operation_xyz
x,y,z
-x,1/2-y,z
x,1/2-y,1/2-z
-x,y,1/2-z
-x,-y,-z
x,1/2+y,-z
-x,1/2+y,1/2+z
x,-y,1/2+z
1/2+x,1/2+y,z
1/2-x,-y,z
1/2+x,-y,1/2-z
1/2-x,1/2+y,1/2-z
1/2-x,1/2-y,-z
1/2+x,y,-z
1/2-x,y,1/2+z
1/2+x,1/2-y,1/2+z
loop_
_atom_site_type_symbol
_atom_site_label
_atom_site_fract_x
_atom_site_fract_y
_atom_site_fract_z
Si Si1 0.031656 0.391296 0.414171
Si Si2 0.719234 0.854180 0.615115
Si Si3 0.999127 0.676032 0.475037
Si Si4 0.250000 0.000000 0.129301
Si Si5 0.455716 0.896068 0.687527
Si Si6 0.724440 0.798760 0.875991
O O1 0.984028 0.377959 0.477119
O O2 0.138962 0.455951 0.409059
O O3 0.111038 0.327950 0.386006
O O4 0.872470 0.397084 0.383078
O O5 0.657876 0.844019 0.553407
O O6 0.607564 0.896291 0.652464
O O7 0.737794 0.778882 0.637184
O O8 0.000000 0.750000 0.501823
O O9 0.129736 0.677115 0.429415
O O10 0.146214 0.957507 0.169115
O O11 0.500000 0.903466 0.750000
O O12 0.359206 0.828996 0.677145
#
# Coordination Sequence:
#
# PCOD8282125 Si02
#       6
#    16  16  16   8  16  16
#     4  11  20  35  55  81 119 157 187 228 274 325
#     4  10  20  34  60  90 112 143 188 228 283 353
#     4   9  17  32  56  85 118 152 182 221 284 351
#     4  10  26  42  54  78 112 150 202 244 266 318
#     4  10  22  42  63  79 106 145 185 235 287 332
#     4   9  19  35  56  91 121 139 178 232 286 347
#
# _framework density 20.204038000000001
#
# number of rings (size 3 to 8) (size 9 to 14) (size 15 to 20)
#    0.000    2.182    0.000    4.364    0.000    6.545 
#    0.000   17.273    0.000    4.364    0.000    0.000 
#    0.000    0.000    0.000    0.000    0.000    0.000 
#
# Total GULP energy -545334.401662 kJ/mol
# GULP energy per Si atom -12393.963674 kJ/mol
# Density = 2.015805 g / cm^3
# Si number density = 20.204038 Si / 1000 Ang^3
#
#
#
# Elastic Constant Matrix: (Units=GPa)
#
#
# Indices 1 2 3 4 5 6 
#
# 1 149.3690 53.4876 42.5936 0.0000 0.0000 0.0000
# 2 53.4876 97.9245 50.1893 0.0000 0.0000 0.0000
# 3 42.5936 50.1893 101.1708 0.0000 0.0000 0.0000
# 4 0.0000 0.0000 0.0000 15.4905 0.0000 0.0000
# 5 0.0000 0.0000 0.0000 0.0000 13.9917 0.0000
# 6 0.0000 0.0000 0.0000 0.0000 0.0000 26.5480
#
#
#
# Elastic Compliance Matrix: (Units=1/GPa)
#
#
# Indices 1 2 3 4 5 6 
#
# 1 0.008540 -0.003784 -0.001718 0.000000 0.000000 0.000000
# 2 -0.003784 0.015370 -0.006032 0.000000 0.000000 0.000000
# 3 -0.001718 -0.006032 0.013600 0.000000 0.000000 0.000000
# 4 0.000000 0.000000 0.000000 0.064556 0.000000 0.000000
# 5 0.000000 0.000000 0.000000 0.000000 0.071471 0.000000
# 6 0.000000 0.000000 0.000000 0.000000 0.000000 0.037668
#
#
# Mechanical properties :
#
#
# Convention : Reuss Voigt Hill
#
# Bulk Modulus (GPa) = 69.24220 71.22281 70.23251
# Shear Modulus (GPa) = 20.91293 24.68561 22.79927
#
# Velocity S-wave (km/s) = 3.22077 3.49924 3.36289
# Velocity P-wave (km/s) = 6.94096 7.18711 7.06511
#
# Compressibility (1/GPa) = 0.01444206
#
# Stress axis : x y z
#
# Youngs Moduli (GPa) = 117.09927 65.06048 73.52954
#
# Poissons Ratio (x) = 0.24618 0.12634
# Poissons Ratio (y) = 0.44309 0.44352
# Poissons Ratio (z) = 0.20119 0.39244
#
# Static dielectric constant tensor:
#      x y z
#    x 3.914330 0.000000 0.000000 
#    y 0.000000 3.612950 0.000000 
#    z 0.000000 0.000000 3.340330 
# 
# 
# High freq. dielectric constant tensor:
#      x y z
#    x 1.808840 0.000000 0.000000 
#    y 0.000000 1.776090 0.000000 
#    z 0.000000 0.000000 1.758980 
# 
# From -- ./inp_files/43164.got.cif
#   From: 2010.03.12/outbox.cif.g09.slc.cpg/sg68_22_cif.got.tgz:43164.got - 2010.04.10 23:14:56.
