data_PCOD8282451
_publ_section_title
;
Structure prediction by ZEFSAII (Michael W. Deem and Ramdas Pophale) SiO2 
 PCOD8282451
Probable space group: C C C A
;
_chemical_formula_sum "Si O2"
_cell_formula_units_Z 80
_cell_length_a 23.558457
_cell_length_b 14.936575
_cell_length_c 11.273565
_cell_angle_alpha 90.000000
_cell_angle_beta 90.000000
_cell_angle_gamma 90.000000
_cell_volume 3966.972038
_symmetry_space_group_name_H-M "C C C A"
_symmetry_group_IT_number 68
_space_group.IT_coordinate_system_code '2'
_symmetry_cell_setting 'orthorhombic'
loop_
_space_group_symop_operation_xyz
x,y,z
-x,1/2-y,z
x,1/2-y,1/2-z
-x,y,1/2-z
-x,-y,-z
x,1/2+y,-z
-x,1/2+y,1/2+z
x,-y,1/2+z
1/2+x,1/2+y,z
1/2-x,-y,z
1/2+x,-y,1/2-z
1/2-x,1/2+y,1/2-z
1/2-x,1/2-y,-z
1/2+x,y,-z
1/2-x,y,1/2+z
1/2+x,1/2-y,1/2+z
loop_
_atom_site_type_symbol
_atom_site_label
_atom_site_fract_x
_atom_site_fract_y
_atom_site_fract_z
Si Si1 0.233371 0.403405 0.803686
Si Si2 0.347048 0.075764 0.398140
Si Si3 0.435559 0.147814 0.221123
Si Si4 0.637809 0.116128 0.486929
Si Si5 0.306470 0.721220 0.432066
O O1 0.250000 0.500000 0.857741
O O2 0.214094 0.415809 0.667818
O O3 0.181899 0.365602 0.880733
O O4 0.285558 0.331526 0.812289
O O5 0.397992 0.085634 0.305767
O O6 0.346225 0.151014 0.497876
O O7 0.355657 0.979000 0.453778
O O8 0.421415 0.250000 0.250000
O O9 0.500000 0.123211 0.250000
O O10 0.422758 0.127882 0.080856
O O11 0.652005 0.192783 0.586205
O O12 0.250000 0.750000 0.500000
#
# Coordination Sequence:
#
# PCOD8282451 Si02
#       5
#    16  16  16  16  16
#     4  10  21  33  52  80 118 159 194 232 293 356
#     4  11  22  38  56  85 120 156 202 249 291 375
#     4  10  21  40  65  89 114 152 206 267 316 364
#     4  10  21  38  58  86 116 157 203 248 308 360
#     4  10  21  35  52  81 119 155 195 236 295 355
#
# _framework density 20.166516000000001
#
# number of rings (size 3 to 8) (size 9 to 14) (size 15 to 20)
#    0.000    1.800    4.000    0.000    5.600    0.800 
#    0.000    0.000    0.000    0.000    0.000    1.400 
#    0.000    0.000    0.000    0.000    0.000    0.000 
#
# Total GULP energy -495677.304397 kJ/mol
# GULP energy per Si atom -12391.932610 kJ/mol
# Density = 2.012062 g / cm^3
# Si number density = 20.166516 Si / 1000 Ang^3
#
#
#
# Elastic Constant Matrix: (Units=GPa)
#
#
# Indices 1 2 3 4 5 6 
#
# 1 88.0115 42.9074 40.3436 0.0000 0.0000 0.0000
# 2 42.9074 148.0048 40.2163 0.0000 0.0000 0.0000
# 3 40.3436 40.2163 68.6707 0.0000 0.0000 0.0000
# 4 0.0000 0.0000 0.0000 32.4236 0.0000 0.0000
# 5 0.0000 0.0000 0.0000 0.0000 29.4213 0.0000
# 6 0.0000 0.0000 0.0000 0.0000 0.0000 20.7101
#
#
#
# Elastic Compliance Matrix: (Units=1/GPa)
#
#
# Indices 1 2 3 4 5 6 
#
# 1 0.016307 -0.002526 -0.008101 0.000000 0.000000 0.000000
# 2 -0.002526 0.008427 -0.003451 0.000000 0.000000 0.000000
# 3 -0.008101 -0.003451 0.021342 0.000000 0.000000 0.000000
# 4 0.000000 0.000000 0.000000 0.030842 0.000000 0.000000
# 5 0.000000 0.000000 0.000000 0.000000 0.033989 0.000000
# 6 0.000000 0.000000 0.000000 0.000000 0.000000 0.048286
#
#
# Mechanical properties :
#
#
# Convention : Reuss Voigt Hill
#
# Bulk Modulus (GPa) = 55.80277 61.29128 58.54703
# Shear Modulus (GPa) = 25.86364 28.59230 27.22797
#
# Velocity S-wave (km/s) = 3.58509 3.76947 3.67844
# Velocity P-wave (km/s) = 6.69838 7.02878 6.86557
#
# Compressibility (1/GPa) = 0.01792026
#
# Stress axis : x y z
#
# Youngs Moduli (GPa) = 61.32279 118.67201 46.85526
#
# Poissons Ratio (x) = 0.29981 0.37957
# Poissons Ratio (y) = 0.15492 0.16168
# Poissons Ratio (z) = 0.49676 0.40950
#
# Static dielectric constant tensor:
#      x y z
#    x 3.549060 0.000000 0.000000 
#    y 0.000000 3.863310 0.000000 
#    z 0.000000 0.000000 3.668280 
# 
# 
# High freq. dielectric constant tensor:
#      x y z
#    x 1.748860 0.000000 0.000000 
#    y 0.000000 1.808850 0.000000 
#    z 0.000000 0.000000 1.771200 
# 
# From -- ./inp_files/13179.got.cif
#   From: 2010.03.12/outbox.cif.g09.slc.cpg/sg68_7_cif.got.tgz:13179.got - 2010.04.10 23:14:56.
