data_PCOD8282290
_publ_section_title
;
Structure prediction by ZEFSAII (Michael W. Deem and Ramdas Pophale) SiO2 
 PCOD8282290
Probable space group: C C C A
;
_chemical_formula_sum "Si O2"
_cell_formula_units_Z 88
_cell_length_a 12.691100
_cell_length_b 22.427118
_cell_length_c 15.115738
_cell_angle_alpha 90.000000
_cell_angle_beta 90.000000
_cell_angle_gamma 90.000000
_cell_volume 4302.313864
_symmetry_space_group_name_H-M "C C C A"
_symmetry_group_IT_number 68
_space_group.IT_coordinate_system_code '2'
_symmetry_cell_setting 'orthorhombic'
loop_
_space_group_symop_operation_xyz
x,y,z
-x,1/2-y,z
x,1/2-y,1/2-z
-x,y,1/2-z
-x,-y,-z
x,1/2+y,-z
-x,1/2+y,1/2+z
x,-y,1/2+z
1/2+x,1/2+y,z
1/2-x,-y,z
1/2+x,-y,1/2-z
1/2-x,1/2+y,1/2-z
1/2-x,1/2-y,-z
1/2+x,y,-z
1/2-x,y,1/2+z
1/2+x,1/2-y,1/2+z
loop_
_atom_site_type_symbol
_atom_site_label
_atom_site_fract_x
_atom_site_fract_y
_atom_site_fract_z
Si Si1 0.351155 0.203326 0.330565
Si Si2 0.500000 0.750000 0.519179
Si Si3 0.000000 0.403587 0.250000
Si Si4 0.150935 0.031929 0.456100
Si Si5 0.000000 0.606585 0.250000
Si Si6 0.936832 0.502116 0.134794
Si Si7 0.629135 0.660084 0.397792
O O1 0.357460 0.250000 0.250000
O O2 0.408296 0.224843 0.419048
O O3 0.410373 0.144183 0.299149
O O4 0.230636 0.193539 0.358848
O O5 0.554509 0.700870 0.457655
O O6 0.086609 0.446850 0.298799
O O7 0.060872 0.360452 0.184930
O O8 0.145533 0.005785 0.555527
O O9 0.164352 0.103349 0.456607
O O10 0.250000 0.000000 0.410495
O O11 0.052901 0.011599 0.399791
O O12 0.935877 0.565993 0.181495
#
# Coordination Sequence:
#
# PCOD8282290 Si02
#       7
#    16   8   8  16   8  16  16
#     4  12  25  44  65  97 127 172 233 272 330 396
#     4  12  25  49  64  94 130 178 226 283 323 402
#     4   9  22  43  59 101 127 174 209 268 330 410
#     4  10  20  38  60  95 129 162 212 265 328 406
#     4  11  19  40  67  83 132 163 211 274 324 388
#     4   9  20  37  63  92 126 167 206 257 333 395
#     4  11  26  41  70  93 136 173 224 272 342 387
#
# _framework density 20.454111000000001
#
# number of rings (size 3 to 8) (size 9 to 14) (size 15 to 20)
#    0.000    1.455    1.818    2.727    2.545    4.364 
#    0.000    1.818    0.000    0.000    0.000    0.000 
#    0.000    0.000    0.000    0.000    0.000    0.000 
#
# Total GULP energy -545492.690980 kJ/mol
# GULP energy per Si atom -12397.561159 kJ/mol
# Density = 2.040756 g / cm^3
# Si number density = 20.454111 Si / 1000 Ang^3
#
#
#
# Elastic Constant Matrix: (Units=GPa)
#
#
# Indices 1 2 3 4 5 6 
#
# 1 98.8586 62.5091 45.2117 0.0000 0.0000 0.0000
# 2 62.5091 138.4556 69.5382 0.0000 0.0000 0.0000
# 3 45.2117 69.5382 123.5988 0.0000 0.0000 0.0000
# 4 0.0000 0.0000 0.0000 43.0643 0.0000 0.0000
# 5 0.0000 0.0000 0.0000 0.0000 -23.6384 0.0000
# 6 0.0000 0.0000 0.0000 0.0000 0.0000 -15.1957
#
#
#
# Elastic Compliance Matrix: (Units=1/GPa)
#
#
# Indices 1 2 3 4 5 6 
#
# 1 0.014602 -0.005450 -0.002275 0.000000 0.000000 0.000000
# 2 -0.005450 0.012101 -0.004815 0.000000 0.000000 0.000000
# 3 -0.002275 -0.004815 0.011632 0.000000 0.000000 0.000000
# 4 0.000000 0.000000 0.000000 0.023221 0.000000 0.000000
# 5 0.000000 0.000000 0.000000 0.000000 -0.042304 0.000000
# 6 0.000000 0.000000 0.000000 0.000000 0.000000 -0.065808
#
#
# Mechanical properties :
#
#
# Convention : Reuss Voigt Hill
#
# Bulk Modulus (GPa) = 75.44066 79.49234 77.46650
# Shear Modulus (GPa) = -293.10848 13.08964 -140.00942
#
# Velocity S-wave (km/s) = -11.98381 2.53247 -8.28246
# Velocity P-wave (km/s) = 12.43058 6.89198 7.31505
#
# Compressibility (1/GPa) = 0.01325545
#
# Stress axis : x y z
#
# Youngs Moduli (GPa) = 68.48440 82.63717 85.97105
#
# Poissons Ratio (x) = 0.45034 0.19561
# Poissons Ratio (y) = 0.37322 0.41393
# Poissons Ratio (z) = 0.15582 0.39788
#
# Static dielectric constant tensor:
#      x y z
#    x 3.623460 0.000000 0.000000 
#    y 0.000000 3.911130 0.000000 
#    z 0.000000 0.000000 4.257780 
# 
# 
# High freq. dielectric constant tensor:
#      x y z
#    x 1.793360 0.000000 0.000000 
#    y 0.000000 1.809900 0.000000 
#    z 0.000000 0.000000 1.818080 
# 
# From -- ./inp_files/29688.got.cif
#   From: 2010.03.12/outbox.cif.g09.slc.cpg/sg68_15_cif.got.tgz:29688.got - 2010.04.10 23:14:56.
