data_PCOD8282274
_publ_section_title
;
Structure prediction by ZEFSAII (Michael W. Deem and Ramdas Pophale) SiO2 
 PCOD8282274
Probable space group: C C C A
;
_chemical_formula_sum "Si O2"
_cell_formula_units_Z 96
_cell_length_a 19.580653
_cell_length_b 25.972587
_cell_length_c 8.911647
_cell_angle_alpha 90.000000
_cell_angle_beta 90.000000
_cell_angle_gamma 90.000000
_cell_volume 4532.109101
_symmetry_space_group_name_H-M "C C C A"
_symmetry_group_IT_number 68
_space_group.IT_coordinate_system_code '2'
_symmetry_cell_setting 'orthorhombic'
loop_
_space_group_symop_operation_xyz
x,y,z
-x,1/2-y,z
x,1/2-y,1/2-z
-x,y,1/2-z
-x,-y,-z
x,1/2+y,-z
-x,1/2+y,1/2+z
x,-y,1/2+z
1/2+x,1/2+y,z
1/2-x,-y,z
1/2+x,-y,1/2-z
1/2-x,1/2+y,1/2-z
1/2-x,1/2-y,-z
1/2+x,y,-z
1/2-x,y,1/2+z
1/2+x,1/2-y,1/2+z
loop_
_atom_site_type_symbol
_atom_site_label
_atom_site_fract_x
_atom_site_fract_y
_atom_site_fract_z
Si Si1 0.466511 0.428544 0.994994
Si Si2 0.000000 0.999243 0.750000
Si Si3 0.122921 0.660125 0.916850
Si Si4 0.922802 0.241066 0.916270
Si Si5 0.276359 0.250000 0.250000
Si Si6 0.273812 0.824200 0.494075
Si Si7 0.904699 0.635559 0.921187
O O1 0.448903 0.463128 0.848118
O O2 0.414866 0.381506 0.022630
O O3 0.545831 0.410517 0.971872
O O4 0.456928 0.464224 0.139984
O O5 0.091370 0.647111 0.755380
O O6 0.105211 0.717639 0.964723
O O7 0.204180 0.653570 0.937524
O O8 0.884115 0.250000 0.750000
O O9 0.000000 0.250000 0.873745
O O10 0.925940 0.185585 0.988733
O O11 0.311010 0.282919 0.390342
O O12 0.231972 0.206316 0.335243
O O13 0.324511 0.872763 0.466246
#
# Coordination Sequence:
#
# PCOD8282274 Si02
#       7
#    16   8  16  16   8  16  16
#     4  11  24  45  74  96 123 151 213 262 334 375
#     4  10  24  46  72 102 116 156 196 276 330 400
#     4  12  24  41  61  93 129 175 210 258 307 374
#     4  11  25  36  56  94 137 171 211 257 305 363
#     4  10  20  38  50  80 122 190 216 244 274 362
#     4  11  24  36  56  83 130 172 222 249 298 363
#     4  12  24  41  61  93 129 175 210 258 307 374
#
# _framework density 21.182191
#
# number of rings (size 3 to 8) (size 9 to 14) (size 15 to 20)
#    0.000    0.833    5.000    2.500    7.000    0.667 
#    0.000    0.000    0.000    6.000    0.000    0.000 
#    0.000    0.000    0.000    0.000    0.000    0.000 
#
# Total GULP energy -594753.355529 kJ/mol
# GULP energy per Si atom -12390.694907 kJ/mol
# Density = 2.113398 g / cm^3
# Si number density = 21.182191 Si / 1000 Ang^3
#
#
#
# Elastic Constant Matrix: (Units=GPa)
#
#
# Indices 1 2 3 4 5 6 
#
# 1 86.9960 29.4305 30.7151 0.0000 0.0000 0.0000
# 2 29.4305 80.7547 34.2289 0.0000 0.0000 0.0000
# 3 30.7151 34.2289 109.0442 0.0000 0.0000 0.0000
# 4 0.0000 0.0000 0.0000 28.0359 0.0000 0.0000
# 5 0.0000 0.0000 0.0000 0.0000 11.2104 0.0000
# 6 0.0000 0.0000 0.0000 0.0000 0.0000 16.4231
#
#
#
# Elastic Compliance Matrix: (Units=1/GPa)
#
#
# Indices 1 2 3 4 5 6 
#
# 1 0.013746 -0.003885 -0.002652 0.000000 0.000000 0.000000
# 2 -0.003885 0.015382 -0.003734 0.000000 0.000000 0.000000
# 3 -0.002652 -0.003734 0.011090 0.000000 0.000000 0.000000
# 4 0.000000 0.000000 0.000000 0.035669 0.000000 0.000000
# 5 0.000000 0.000000 0.000000 0.000000 0.089203 0.000000
# 6 0.000000 0.000000 0.000000 0.000000 0.000000 0.060890
#
#
# Mechanical properties :
#
#
# Convention : Reuss Voigt Hill
#
# Bulk Modulus (GPa) = 50.82790 51.72708 51.27749
# Shear Modulus (GPa) = 19.75665 23.29523 21.52594
#
# Velocity S-wave (km/s) = 3.05733 3.31985 3.19129
# Velocity P-wave (km/s) = 6.04241 6.25846 6.15138
#
# Compressibility (1/GPa) = 0.01967423
#
# Stress axis : x y z
#
# Youngs Moduli (GPa) = 72.75070 65.01173 90.17348
#
# Poissons Ratio (x) = 0.25259 0.23916
# Poissons Ratio (y) = 0.28266 0.33670
# Poissons Ratio (z) = 0.19295 0.24275
#
# Static dielectric constant tensor:
#      x y z
#    x 4.695230 0.000000 0.000000 
#    y 0.000000 3.708500 0.000000 
#    z 0.000000 0.000000 4.144540 
# 
# 
# High freq. dielectric constant tensor:
#      x y z
#    x 1.840650 0.000000 0.000000 
#    y 0.000000 1.799210 0.000000 
#    z 0.000000 0.000000 1.862550 
# 
# From -- ./inp_files/8191.got.cif
#   From: 2010.03.12/outbox.cif.g09.slc.cpg/sg68_5_cif.got.tgz:8191.got - 2010.04.10 23:14:56.
