data_PCOD8282136
_publ_section_title
;
Structure prediction by ZEFSAII (Michael W. Deem and Ramdas Pophale) SiO2 
 PCOD8282136
Probable space group: C C C A
;
_chemical_formula_sum "Si O2"
_cell_formula_units_Z 80
_cell_length_a 29.739517
_cell_length_b 5.331655
_cell_length_c 24.554358
_cell_angle_alpha 90.000000
_cell_angle_beta 90.000000
_cell_angle_gamma 90.000000
_cell_volume 3893.359741
_symmetry_space_group_name_H-M "C C C A"
_symmetry_group_IT_number 68
_space_group.IT_coordinate_system_code '2'
_symmetry_cell_setting 'orthorhombic'
loop_
_space_group_symop_operation_xyz
x,y,z
-x,1/2-y,z
x,1/2-y,1/2-z
-x,y,1/2-z
-x,-y,-z
x,1/2+y,-z
-x,1/2+y,1/2+z
x,-y,1/2+z
1/2+x,1/2+y,z
1/2-x,-y,z
1/2+x,-y,1/2-z
1/2-x,1/2+y,1/2-z
1/2-x,1/2-y,-z
1/2+x,y,-z
1/2-x,y,1/2+z
1/2+x,1/2-y,1/2+z
loop_
_atom_site_type_symbol
_atom_site_label
_atom_site_fract_x
_atom_site_fract_y
_atom_site_fract_z
Si Si1 0.102232 0.755845 0.185294
Si Si2 0.550138 0.747657 0.314337
Si Si3 0.750000 0.500000 0.784430
Si Si4 0.311180 0.369038 0.126626
Si Si5 0.750000 0.500000 0.058759
Si Si6 0.334116 0.495475 0.516035
O O1 0.112097 0.750000 0.250000
O O2 0.077077 0.500414 0.166673
O O3 0.147946 0.791330 0.151092
O O4 0.073785 0.996554 0.166912
O O5 0.500000 0.750000 0.339745
O O6 0.546506 0.750000 0.250000
O O7 0.754442 0.250000 0.750000
O O8 0.706682 0.468060 0.822841
O O9 0.326891 0.562360 0.079795
O O10 0.271369 0.205006 0.099354
O O11 0.710653 0.598509 0.017624
O O12 0.360722 0.264522 0.487846
#
# Coordination Sequence:
#
# PCOD8282136 Si02
#       6
#    16  16   8  16   8  16
#     4  10  21  33  51  80 111 141 178 219 261 323
#     4   9  18  35  56  76 103 139 175 218 272 323
#     4  12  26  38  50  70 106 160 200 214 250 322
#     4  11  22  37  55  77 111 148 186 232 275 307
#     4  10  20  38  58  78 104 144 190 236 278 314
#     4  10  20  35  55  76  98 132 181 232 278 312
#
# _framework density 20.547806000000001
#
# number of rings (size 3 to 8) (size 9 to 14) (size 15 to 20)
#    0.000    1.800    0.000    6.000    0.000   12.800 
#    0.000    0.000    0.000    0.000    0.000    0.000 
#    0.000   64.000    0.000    0.000    0.000    0.000 
#
# Total GULP energy -495564.846029 kJ/mol
# GULP energy per Si atom -12389.121151 kJ/mol
# Density = 2.050104 g / cm^3
# Si number density = 20.547806 Si / 1000 Ang^3
#
#
#
# Elastic Constant Matrix: (Units=GPa)
#
#
# Indices 1 2 3 4 5 6 
#
# 1 68.2968 26.2794 28.6149 0.0000 0.0000 0.0000
# 2 26.2794 144.3804 42.9780 0.0000 0.0000 0.0000
# 3 28.6149 42.9780 104.4465 0.0000 0.0000 0.0000
# 4 0.0000 0.0000 0.0000 3.8183 0.0000 0.0000
# 5 0.0000 0.0000 0.0000 0.0000 8.3213 0.0000
# 6 0.0000 0.0000 0.0000 0.0000 0.0000 21.6438
#
#
#
# Elastic Compliance Matrix: (Units=1/GPa)
#
#
# Indices 1 2 3 4 5 6 
#
# 1 0.017008 -0.001947 -0.003858 0.000000 0.000000 0.000000
# 2 -0.001947 0.008116 -0.002806 0.000000 0.000000 0.000000
# 3 -0.003858 -0.002806 0.011786 0.000000 0.000000 0.000000
# 4 0.000000 0.000000 0.000000 0.261899 0.000000 0.000000
# 5 0.000000 0.000000 0.000000 0.000000 0.120173 0.000000
# 6 0.000000 0.000000 0.000000 0.000000 0.000000 0.046203
#
#
# Mechanical properties :
#
#
# Convention : Reuss Voigt Hill
#
# Bulk Modulus (GPa) = 50.79631 56.98534 53.89082
# Shear Modulus (GPa) = 10.22558 21.37343 15.79950
#
# Velocity S-wave (km/s) = 2.23322 3.22868 2.77594
# Velocity P-wave (km/s) = 5.60575 6.45697 6.04636
#
# Compressibility (1/GPa) = 0.01968647
#
# Stress axis : x y z
#
# Youngs Moduli (GPa) = 58.79665 123.21562 84.84644
#
# Poissons Ratio (x) = 0.23992 0.32737
# Poissons Ratio (y) = 0.11449 0.23809
# Poissons Ratio (z) = 0.22686 0.34575
#
# Static dielectric constant tensor:
#      x y z
#    x 3.544710 0.000000 0.000000 
#    y 0.000000 3.897780 0.000000 
#    z 0.000000 0.000000 3.774410 
# 
# 
# High freq. dielectric constant tensor:
#      x y z
#    x 1.755710 0.000000 0.000000 
#    y 0.000000 1.823430 0.000000 
#    z 0.000000 0.000000 1.791750 
# 
# From -- ./inp_files/47444.got.cif
#   From: 2010.03.12/outbox.cif.g09.slc.cpg/sg68_24_cif.got.tgz:47444.got - 2010.04.10 23:14:56.
