data_PCOD8282786
_publ_section_title
;
Structure prediction by ZEFSAII (Michael W. Deem and Ramdas Pophale) SiO2 
 PCOD8282786
Probable space group: C C C A
;
_chemical_formula_sum "Si O2"
_cell_formula_units_Z 96
_cell_length_a 22.160727
_cell_length_b 9.625108
_cell_length_c 23.178621
_cell_angle_alpha 90.000000
_cell_angle_beta 90.000000
_cell_angle_gamma 90.000000
_cell_volume 4943.985737
_symmetry_space_group_name_H-M "C C C A"
_symmetry_group_IT_number 68
_space_group.IT_coordinate_system_code '2'
_symmetry_cell_setting 'orthorhombic'
loop_
_space_group_symop_operation_xyz
x,y,z
-x,1/2-y,z
x,1/2-y,1/2-z
-x,y,1/2-z
-x,-y,-z
x,1/2+y,-z
-x,1/2+y,1/2+z
x,-y,1/2+z
1/2+x,1/2+y,z
1/2-x,-y,z
1/2+x,-y,1/2-z
1/2-x,1/2+y,1/2-z
1/2-x,1/2-y,-z
1/2+x,y,-z
1/2-x,y,1/2+z
1/2+x,1/2-y,1/2+z
loop_
_atom_site_type_symbol
_atom_site_label
_atom_site_fract_x
_atom_site_fract_y
_atom_site_fract_z
Si Si1 0.621689 0.931912 0.586224
Si Si2 0.700570 0.673789 0.616649
Si Si3 0.628320 0.968128 0.449615
Si Si4 0.179697 0.750000 0.750000
Si Si5 0.164476 0.275736 0.123620
Si Si6 0.250000 0.500000 0.285164
Si Si7 0.494246 0.907792 0.555586
O O1 0.650999 0.796137 0.615360
O O2 0.628688 0.935073 0.517126
O O3 0.549508 0.936975 0.600269
O O4 0.653868 0.063625 0.613154
O O5 0.686866 0.561897 0.565796
O O6 0.766017 0.741818 0.609898
O O7 0.700553 0.582390 0.675488
O O8 0.625171 0.818582 0.418821
O O9 0.572404 0.055701 0.421646
O O10 0.143948 0.739839 0.810414
O O11 0.219324 0.889241 0.756968
O O12 0.500000 0.750000 0.535385
O O13 0.500000 0.000000 0.500000
#
# Coordination Sequence:
#
# PCOD8282786 Si02
#       7
#    16  16  16   8  16   8  16
#     4  11  24  35  60  88 121 159 199 242 298 361
#     4  11  20  39  53  88 120 150 193 242 303 347
#     4  11  21  39  59  84 126 158 198 245 295 358
#     4  10  22  40  60  85 118 157 208 240 288 358
#     4  11  24  38  59  93 118 159 199 242 303 356
#     4  10  22  38  60  82 116 154 198 250 288 356
#     4  10  22  37  58  83 116 163 208 241 288 353
#
# _framework density 19.417529999999999
#
# number of rings (size 3 to 8) (size 9 to 14) (size 15 to 20)
#    0.000    1.333    5.000    1.500   11.667    4.000 
#    0.000    0.000    0.000    2.000    0.000    1.167 
#    0.000    0.000    0.000    0.000    0.000    0.000 
#
# Total GULP energy -594740.226817 kJ/mol
# GULP energy per Si atom -12390.421392 kJ/mol
# Density = 1.937334 g / cm^3
# Si number density = 19.417530 Si / 1000 Ang^3
#
#
#
# Elastic Constant Matrix: (Units=GPa)
#
#
# Indices 1 2 3 4 5 6 
#
# 1 80.5872 23.1739 18.7112 0.0000 0.0000 0.0000
# 2 23.1739 133.4762 20.4068 0.0000 0.0000 0.0000
# 3 18.7112 20.4068 78.2705 0.0000 0.0000 0.0000
# 4 0.0000 0.0000 0.0000 33.8765 0.0000 0.0000
# 5 0.0000 0.0000 0.0000 0.0000 -3.9120 0.0000
# 6 0.0000 0.0000 0.0000 0.0000 0.0000 35.6744
#
#
#
# Elastic Compliance Matrix: (Units=1/GPa)
#
#
# Indices 1 2 3 4 5 6 
#
# 1 0.013605 -0.001942 -0.002746 0.000000 0.000000 0.000000
# 2 -0.001942 0.008080 -0.001642 0.000000 0.000000 0.000000
# 3 -0.002746 -0.001642 0.013861 0.000000 0.000000 0.000000
# 4 0.000000 0.000000 0.000000 0.029519 0.000000 0.000000
# 5 0.000000 0.000000 0.000000 0.000000 -0.255627 0.000000
# 6 0.000000 0.000000 0.000000 0.000000 0.000000 0.028031
#
#
# Mechanical properties :
#
#
# Convention : Reuss Voigt Hill
#
# Bulk Modulus (GPa) = 43.69698 46.32419 45.01058
# Shear Modulus (GPa) = -35.15173 28.46391 -3.34391
#
# Velocity S-wave (km/s) = -4.25939 3.83284 -1.31371
# Velocity P-wave (km/s) = 1.27950 6.59517 4.57489
#
# Compressibility (1/GPa) = 0.02288488
#
# Stress axis : x y z
#
# Youngs Moduli (GPa) = 73.50230 123.75806 72.14555
#
# Poissons Ratio (x) = 0.24037 0.19811
# Poissons Ratio (y) = 0.14276 0.11849
# Poissons Ratio (z) = 0.20184 0.20326
#
# Static dielectric constant tensor:
#      x y z
#    x 3.198140 0.000000 0.000000 
#    y 0.000000 3.700500 0.000000 
#    z 0.000000 0.000000 3.163150 
# 
# 
# High freq. dielectric constant tensor:
#      x y z
#    x 1.741720 0.000000 0.000000 
#    y 0.000000 1.790680 0.000000 
#    z 0.000000 0.000000 1.722910 
# 
# From -- ./inp_files/46960.got.cif
#   From: 2010.03.12/outbox.cif.g09.slc.cpg/sg68_24_cif.got.tgz:46960.got - 2010.04.10 23:14:56.
