data_PCOD8282600
_publ_section_title
;
Structure prediction by ZEFSAII (Michael W. Deem and Ramdas Pophale) SiO2 
 PCOD8282600
Probable space group: C C C A
;
_chemical_formula_sum "Si O2"
_cell_formula_units_Z 96
_cell_length_a 16.075287
_cell_length_b 19.701095
_cell_length_c 13.707661
_cell_angle_alpha 90.000000
_cell_angle_beta 90.000000
_cell_angle_gamma 90.000000
_cell_volume 4341.226606
_symmetry_space_group_name_H-M "C C C A"
_symmetry_group_IT_number 68
_space_group.IT_coordinate_system_code '2'
_symmetry_cell_setting 'orthorhombic'
loop_
_space_group_symop_operation_xyz
x,y,z
-x,1/2-y,z
x,1/2-y,1/2-z
-x,y,1/2-z
-x,-y,-z
x,1/2+y,-z
-x,1/2+y,1/2+z
x,-y,1/2+z
1/2+x,1/2+y,z
1/2-x,-y,z
1/2+x,-y,1/2-z
1/2-x,1/2+y,1/2-z
1/2-x,1/2-y,-z
1/2+x,y,-z
1/2-x,y,1/2+z
1/2+x,1/2-y,1/2+z
loop_
_atom_site_type_symbol
_atom_site_label
_atom_site_fract_x
_atom_site_fract_y
_atom_site_fract_z
Si Si1 0.928408 0.697661 0.060294
Si Si2 0.615370 0.889791 0.775407
Si Si3 0.732834 0.575970 0.106879
Si Si4 0.593782 0.951584 0.258595
Si Si5 0.193927 0.790994 0.347960
Si Si6 0.174461 0.617804 0.578406
O O1 0.950281 0.655532 0.160449
O O2 0.845424 0.743794 0.069050
O O3 0.000000 0.750000 0.030321
O O4 0.909213 0.640973 0.978015
O O5 0.703083 0.878402 0.832555
O O6 0.631900 0.856095 0.669857
O O7 0.586329 0.967070 0.769383
O O8 0.750000 0.500000 0.139202
O O9 0.637527 0.585415 0.146827
O O10 0.752439 0.586484 0.991992
O O11 0.500000 0.922580 0.250000
O O12 0.647335 0.935894 0.161035
O O13 0.201100 0.750000 0.250000
O O14 0.285915 0.814977 0.375574
#
# Coordination Sequence:
#
# PCOD8282600 Si02
#       6
#    16  16  16  16  16  16
#     4  10  23  41  62  98 133 166 225 286 332 393
#     4   9  20  40  64  94 130 173 225 270 328 416
#     4   9  20  39  63  95 129 171 224 260 329 421
#     4  11  24  41  67 103 140 169 220 290 350 399
#     4  10  21  38  67  90 121 175 229 265 315 408
#     4  11  23  42  67  94 131 182 226 267 345 411
#
# _framework density 22.113565999999999
#
# number of rings (size 3 to 8) (size 9 to 14) (size 15 to 20)
#    0.000    2.000    1.667    0.500    4.667    3.667 
#    3.000    7.500    0.000    0.000    0.000    0.000 
#    0.000    0.000    0.000    0.000    0.000    0.000 
#
# Total GULP energy -594628.557907 kJ/mol
# GULP energy per Si atom -12388.094956 kJ/mol
# Density = 2.206323 g / cm^3
# Si number density = 22.113566 Si / 1000 Ang^3
#
#
#
# Elastic Constant Matrix: (Units=GPa)
#
#
# Indices 1 2 3 4 5 6 
#
# 1 105.7931 25.5297 43.9062 0.0000 0.0000 0.0000
# 2 25.5297 77.9845 22.8543 0.0000 0.0000 0.0000
# 3 43.9062 22.8543 88.8842 0.0000 0.0000 0.0000
# 4 0.0000 0.0000 0.0000 15.6498 0.0000 0.0000
# 5 0.0000 0.0000 0.0000 0.0000 25.4628 0.0000
# 6 0.0000 0.0000 0.0000 0.0000 0.0000 27.3324
#
#
#
# Elastic Compliance Matrix: (Units=1/GPa)
#
#
# Indices 1 2 3 4 5 6 
#
# 1 0.012301 -0.002429 -0.005452 0.000000 0.000000 0.000000
# 2 -0.002429 0.014348 -0.002489 0.000000 0.000000 0.000000
# 3 -0.005452 -0.002489 0.014584 0.000000 0.000000 0.000000
# 4 0.000000 0.000000 0.000000 0.063899 0.000000 0.000000
# 5 0.000000 0.000000 0.000000 0.000000 0.039273 0.000000
# 6 0.000000 0.000000 0.000000 0.000000 0.000000 0.036587
#
#
# Mechanical properties :
#
#
# Convention : Reuss Voigt Hill
#
# Bulk Modulus (GPa) = 48.79924 50.80469 49.80196
# Shear Modulus (GPa) = 23.97364 25.71376 24.84370
#
# Velocity S-wave (km/s) = 3.29616 3.41369 3.35544
# Velocity P-wave (km/s) = 6.04993 6.20983 6.13041
#
# Compressibility (1/GPa) = 0.02049212
#
# Stress axis : x y z
#
# Youngs Moduli (GPa) = 81.29246 69.69698 68.56988
#
# Poissons Ratio (x) = 0.16932 0.37383
# Poissons Ratio (y) = 0.19749 0.17068
# Poissons Ratio (z) = 0.44319 0.17349
#
# Static dielectric constant tensor:
#      x y z
#    x 4.002850 0.000000 0.000000 
#    y 0.000000 4.090860 0.000000 
#    z 0.000000 0.000000 3.889260 
# 
# 
# High freq. dielectric constant tensor:
#      x y z
#    x 1.852890 0.000000 0.000000 
#    y 0.000000 1.875340 0.000000 
#    z 0.000000 0.000000 1.857300 
# 
# From -- ./inp_files/22396.got.cif
#   From: 2010.03.12/outbox.cif.g09.slc.cpg/sg68_12_cif.got.tgz:22396.got - 2010.04.10 23:14:56.
