data_PCOD8282939
_publ_section_title
;
Structure prediction by ZEFSAII (Michael W. Deem and Ramdas Pophale) SiO2 
 PCOD8282939
Probable space group: C C C A
;
_chemical_formula_sum "Si O2"
_cell_formula_units_Z 52
_cell_length_a 12.758185
_cell_length_b 10.549757
_cell_length_c 16.383159
_cell_angle_alpha 90.000000
_cell_angle_beta 90.000000
_cell_angle_gamma 90.000000
_cell_volume 2205.103598
_symmetry_space_group_name_H-M "C C C A"
_symmetry_group_IT_number 68
_space_group.IT_coordinate_system_code '2'
_symmetry_cell_setting 'orthorhombic'
loop_
_space_group_symop_operation_xyz
x,y,z
-x,1/2-y,z
x,1/2-y,1/2-z
-x,y,1/2-z
-x,-y,-z
x,1/2+y,-z
-x,1/2+y,1/2+z
x,-y,1/2+z
1/2+x,1/2+y,z
1/2-x,-y,z
1/2+x,-y,1/2-z
1/2-x,1/2+y,1/2-z
1/2-x,1/2-y,-z
1/2+x,y,-z
1/2-x,y,1/2+z
1/2+x,1/2-y,1/2+z
loop_
_atom_site_type_symbol
_atom_site_label
_atom_site_fract_x
_atom_site_fract_y
_atom_site_fract_z
Si Si1 0.000000 0.250000 0.750000
Si Si2 0.879486 0.787976 0.663846
Si Si3 0.946597 0.552427 0.379814
Si Si4 0.145049 0.425225 0.448952
O O1 0.932818 0.159010 0.690147
O O2 0.826702 0.750000 0.750000
O O3 0.823291 0.708231 0.592550
O O4 0.000000 0.750000 0.664455
O O5 0.869804 0.937218 0.645952
O O6 0.910844 0.609391 0.466048
O O7 0.067025 0.505101 0.389558
O O8 0.250000 0.500000 0.465952
#
# Coordination Sequence:
#
# PCOD8282939 Si02
#       4
#     4  16  16  16
#     4  12  24  44  66 100 134 182 232 294 336 412
#     4   9  18  39  65  91 128 178 223 276 339 411
#     4  10  23  40  66  96 133 176 227 283 349 407
#     4  10  22  41  68  98 131 175 227 284 345 418
#
# _framework density 23.581657
#
# number of rings (size 3 to 8) (size 9 to 14) (size 15 to 20)
#    0.000    2.154    0.000    3.692   10.769    1.231 
#    2.769    3.077    0.000    0.000    0.000    0.000 
#    0.000    0.000    0.000    0.000    0.000    0.000 
#
# Total GULP energy -322371.778874 kJ/mol
# GULP energy per Si atom -12398.914572 kJ/mol
# Density = 2.352798 g / cm^3
# Si number density = 23.581657 Si / 1000 Ang^3
#
#
#
# Elastic Constant Matrix: (Units=GPa)
#
#
# Indices 1 2 3 4 5 6 
#
# 1 50.7182 17.9112 10.6838 0.0000 0.0000 0.0000
# 2 17.9112 170.9002 90.3813 0.0000 0.0000 0.0000
# 3 10.6838 90.3813 174.2479 0.0000 0.0000 0.0000
# 4 0.0000 0.0000 0.0000 55.7862 0.0000 0.0000
# 5 0.0000 0.0000 0.0000 0.0000 1.4815 0.0000
# 6 0.0000 0.0000 0.0000 0.0000 0.0000 20.6294
#
#
#
# Elastic Compliance Matrix: (Units=1/GPa)
#
#
# Indices 1 2 3 4 5 6 
#
# 1 0.020479 -0.002043 -0.000196 0.000000 0.000000 0.000000
# 2 -0.002043 0.008267 -0.004163 0.000000 0.000000 0.000000
# 3 -0.000196 -0.004163 0.007910 0.000000 0.000000 0.000000
# 4 0.000000 0.000000 0.000000 0.017926 0.000000 0.000000
# 5 0.000000 0.000000 0.000000 0.000000 0.674982 0.000000
# 6 0.000000 0.000000 0.000000 0.000000 0.000000 0.048475
#
#
# Mechanical properties :
#
#
# Convention : Reuss Voigt Hill
#
# Bulk Modulus (GPa) = 41.92264 70.42432 56.17348
# Shear Modulus (GPa) = 6.25944 34.03874 20.14909
#
# Velocity S-wave (km/s) = 1.63099 3.80339 2.92625
# Velocity P-wave (km/s) = 4.62202 7.01545 5.94052
#
# Compressibility (1/GPa) = 0.02385346
#
# Stress axis : x y z
#
# Youngs Moduli (GPa) = 48.82941 120.96371 126.41931
#
# Poissons Ratio (x) = 0.24708 0.02480
# Poissons Ratio (y) = 0.09974 0.52625
# Poissons Ratio (z) = 0.00958 0.50354
#
# Static dielectric constant tensor:
#      x y z
#    x 3.658510 0.000000 0.000000 
#    y 0.000000 4.569890 0.000000 
#    z 0.000000 0.000000 4.625340 
# 
# 
# High freq. dielectric constant tensor:
#      x y z
#    x 1.886130 0.000000 0.000000 
#    y 0.000000 1.937500 0.000000 
#    z 0.000000 0.000000 1.950590 
# 
# From -- ./inp_files/28923.got.cif
#   From: 2010.03.12/outbox.cif.g09.slc.cpg/sg68_15_cif.got.tgz:28923.got - 2010.04.10 23:14:56.
