data_PCOD8282483
_publ_section_title
;
Structure prediction by ZEFSAII (Michael W. Deem and Ramdas Pophale) SiO2 
 PCOD8282483
Probable space group: C C C A
;
_chemical_formula_sum "Si O2"
_cell_formula_units_Z 64
_cell_length_a 17.502091
_cell_length_b 33.052851
_cell_length_c 5.178840
_cell_angle_alpha 90.000000
_cell_angle_beta 90.000000
_cell_angle_gamma 90.000000
_cell_volume 2995.927898
_symmetry_space_group_name_H-M "C C C A"
_symmetry_group_IT_number 68
_space_group.IT_coordinate_system_code '2'
_symmetry_cell_setting 'orthorhombic'
loop_
_space_group_symop_operation_xyz
x,y,z
-x,1/2-y,z
x,1/2-y,1/2-z
-x,y,1/2-z
-x,-y,-z
x,1/2+y,-z
-x,1/2+y,1/2+z
x,-y,1/2+z
1/2+x,1/2+y,z
1/2-x,-y,z
1/2+x,-y,1/2-z
1/2-x,1/2+y,1/2-z
1/2-x,1/2-y,-z
1/2+x,y,-z
1/2-x,y,1/2+z
1/2+x,1/2-y,1/2+z
loop_
_atom_site_type_symbol
_atom_site_label
_atom_site_fract_x
_atom_site_fract_y
_atom_site_fract_z
Si Si1 0.204118 0.590126 0.406089
Si Si2 0.410384 0.975842 0.739352
Si Si3 0.465985 0.794851 0.501770
Si Si4 0.296577 0.315209 0.418971
O O1 0.232940 0.578170 0.690922
O O2 0.127212 0.566871 0.331232
O O3 0.185055 0.637393 0.409530
O O4 0.500000 0.968073 0.750000
O O5 0.384637 0.007801 0.518955
O O6 0.500000 0.750000 0.499639
O O7 0.500000 0.818382 0.750000
O O8 0.374668 0.792220 0.514486
O O9 0.500000 0.817807 0.250000
O O10 0.263782 0.302384 0.140320
#
# Coordination Sequence:
#
# PCOD8282483 Si02
#       4
#    16  16  16  16
#     4  10  21  36  56  82 109 144 190 232 277 331
#     4  10  21  36  53  78 112 147 185 229 279 331
#     4  10  21  39  59  86 117 146 187 234 281 343
#     4  10  21  39  60  84 116 152 191 238 289 341
#
# _framework density 21.362328999999999
#
# number of rings (size 3 to 8) (size 9 to 14) (size 15 to 20)
#    0.000    2.000    0.000    3.000    0.000    4.000 
#    0.000   18.750    0.000    0.000    0.000    0.000 
#    0.000    0.000    0.000    0.000    0.000    0.000 
#
# Total GULP energy -396711.397485 kJ/mol
# GULP energy per Si atom -12397.231171 kJ/mol
# Density = 2.131371 g / cm^3
# Si number density = 21.362329 Si / 1000 Ang^3
#
#
#
# Elastic Constant Matrix: (Units=GPa)
#
#
# Indices 1 2 3 4 5 6 
#
# 1 124.1742 46.7900 50.1744 0.0000 0.0000 0.0000
# 2 46.7900 44.0702 22.6388 0.0000 0.0000 0.0000
# 3 50.1744 22.6388 176.2699 0.0000 0.0000 0.0000
# 4 0.0000 0.0000 0.0000 14.8563 0.0000 0.0000
# 5 0.0000 0.0000 0.0000 0.0000 39.9809 0.0000
# 6 0.0000 0.0000 0.0000 0.0000 0.0000 34.1820
#
#
#
# Elastic Compliance Matrix: (Units=1/GPa)
#
#
# Indices 1 2 3 4 5 6 
#
# 1 0.014215 -0.013933 -0.002257 0.000000 0.000000 0.000000
# 2 -0.013933 0.037951 -0.000908 0.000000 0.000000 0.000000
# 3 -0.002257 -0.000908 0.006432 0.000000 0.000000 0.000000
# 4 0.000000 0.000000 0.000000 0.067312 0.000000 0.000000
# 5 0.000000 0.000000 0.000000 0.000000 0.025012 0.000000
# 6 0.000000 0.000000 0.000000 0.000000 0.000000 0.029255
#
#
# Mechanical properties :
#
#
# Convention : Reuss Voigt Hill
#
# Bulk Modulus (GPa) = 40.98055 64.85785 52.91920
# Shear Modulus (GPa) = 22.47119 32.79792 27.63455
#
# Velocity S-wave (km/s) = 3.24683 3.92256 3.60058
# Velocity P-wave (km/s) = 5.76898 7.13737 6.48934
#
# Compressibility (1/GPa) = 0.02440182
#
# Stress axis : x y z
#
# Youngs Moduli (GPa) = 70.34674 26.34995 155.46925
#
# Poissons Ratio (x) = 0.36714 0.35087
# Poissons Ratio (y) = 0.98016 0.14118
# Poissons Ratio (z) = 0.15876 0.02393
#
# Static dielectric constant tensor:
#      x y z
#    x 3.675000 0.000000 0.000000 
#    y 0.000000 3.498640 0.000000 
#    z 0.000000 0.000000 1.140410 
# 
# 
# High freq. dielectric constant tensor:
#      x y z
#    x 1.834830 0.000000 0.000000 
#    y 0.000000 1.806660 0.000000 
#    z 0.000000 0.000000 1.872050 
# 
# From -- ./inp_files/1099.got.cif
#   From: 2010.03.12/outbox.cif.g09.slc.cpg/sg68_1_cif.got.tgz:1099.got - 2010.04.10 23:14:56.
