data_PCOD8282369
_publ_section_title
;
Structure prediction by ZEFSAII (Michael W. Deem and Ramdas Pophale) SiO2 
 PCOD8282369
Probable space group: C C C A
;
_chemical_formula_sum "Si O2"
_cell_formula_units_Z 108
_cell_length_a 25.570752
_cell_length_b 17.362779
_cell_length_c 11.899682
_cell_angle_alpha 90.000000
_cell_angle_beta 90.000000
_cell_angle_gamma 90.000000
_cell_volume 5283.212673
_symmetry_space_group_name_H-M "C C C A"
_symmetry_group_IT_number 68
_space_group.IT_coordinate_system_code '2'
_symmetry_cell_setting 'orthorhombic'
loop_
_space_group_symop_operation_xyz
x,y,z
-x,1/2-y,z
x,1/2-y,1/2-z
-x,y,1/2-z
-x,-y,-z
x,1/2+y,-z
-x,1/2+y,1/2+z
x,-y,1/2+z
1/2+x,1/2+y,z
1/2-x,-y,z
1/2+x,-y,1/2-z
1/2-x,1/2+y,1/2-z
1/2-x,1/2-y,-z
1/2+x,y,-z
1/2-x,y,1/2+z
1/2+x,1/2-y,1/2+z
loop_
_atom_site_type_symbol
_atom_site_label
_atom_site_fract_x
_atom_site_fract_y
_atom_site_fract_z
Si Si1 0.846011 0.585990 0.390462
Si Si2 0.000000 0.750000 0.750000
Si Si3 0.723247 0.920105 0.822532
Si Si4 0.559331 0.539863 0.747433
Si Si5 0.145621 0.750000 0.750000
Si Si6 0.425199 0.130485 0.831730
Si Si7 0.292833 0.698904 0.441962
Si Si8 0.125850 0.939517 0.034487
O O1 0.796685 0.579090 0.305954
O O2 0.901433 0.593347 0.322695
O O3 0.832260 0.658201 0.469772
O O4 0.850247 0.510077 0.464978
O O5 0.028853 0.806663 0.837743
O O6 0.767175 0.857648 0.849609
O O7 0.673927 0.901010 0.901036
O O8 0.750000 0.000000 0.852893
O O9 0.500000 0.573821 0.750000
O O10 0.556410 0.453394 0.794251
O O11 0.580712 0.533859 0.620794
O O12 0.113784 0.830652 0.740776
O O13 0.175773 0.741189 0.633601
O O14 0.399148 0.124590 0.954139
O O15 0.250000 0.750000 0.500000
#
# Coordination Sequence:
#
# PCOD8282369 Si02
#       8
#    16   4  16  16   8  16  16  16
#     4  10  23  37  61  95 126 164 209 265 316 385
#     4  10  20  40  56  96 114 172 204 258 318 402
#     4  11  23  37  62  91 130 161 217 259 313 379
#     4  10  21  41  65  95 124 156 210 275 328 379
#     4  11  24  39  60  86 128 164 207 254 301 384
#     4  10  21  38  61  86 130 154 207 259 317 380
#     4  12  24  41  61  93 125 178 209 255 321 380
#     4  10  21  39  61  94 120 162 205 267 319 376
#
# _framework density 20.442107
#
# number of rings (size 3 to 8) (size 9 to 14) (size 15 to 20)
#    0.000    1.481    2.222    2.667    6.222    2.370 
#    5.333    0.000    0.000    0.000    0.000    0.000 
#    0.000    0.000    0.000    0.000    0.000    0.000 
#
# Total GULP energy -669190.840267 kJ/mol
# GULP energy per Si atom -12392.422968 kJ/mol
# Density = 2.039558 g / cm^3
# Si number density = 20.442107 Si / 1000 Ang^3
#
#
#
# Elastic Constant Matrix: (Units=GPa)
#
#
# Indices 1 2 3 4 5 6 
#
# 1 119.5346 39.3201 50.3482 0.0000 0.0000 0.0000
# 2 39.3201 78.3549 33.8148 0.0000 0.0000 0.0000
# 3 50.3482 33.8148 117.2038 0.0000 0.0000 0.0000
# 4 0.0000 0.0000 0.0000 31.3376 0.0000 0.0000
# 5 0.0000 0.0000 0.0000 0.0000 26.2861 0.0000
# 6 0.0000 0.0000 0.0000 0.0000 0.0000 22.2344
#
#
#
# Elastic Compliance Matrix: (Units=1/GPa)
#
#
# Indices 1 2 3 4 5 6 
#
# 1 0.011243 -0.004064 -0.003657 0.000000 0.000000 0.000000
# 2 -0.004064 0.016046 -0.002884 0.000000 0.000000 0.000000
# 3 -0.003657 -0.002884 0.010935 0.000000 0.000000 0.000000
# 4 0.000000 0.000000 0.000000 0.031911 0.000000 0.000000
# 5 0.000000 0.000000 0.000000 0.000000 0.038043 0.000000
# 6 0.000000 0.000000 0.000000 0.000000 0.000000 0.044975
#
#
# Mechanical properties :
#
#
# Convention : Reuss Voigt Hill
#
# Bulk Modulus (GPa) = 58.77233 62.45106 60.61170
# Shear Modulus (GPa) = 27.77246 28.74564 28.25905
#
# Velocity S-wave (km/s) = 3.68991 3.75400 3.72209
# Velocity P-wave (km/s) = 6.85324 7.02898 6.94167
#
# Compressibility (1/GPa) = 0.01701481
#
# Stress axis : x y z
#
# Youngs Moduli (GPa) = 88.94461 62.32002 91.44697
#
# Poissons Ratio (x) = 0.25324 0.33445
# Poissons Ratio (y) = 0.36143 0.26372
# Poissons Ratio (z) = 0.32530 0.17972
#
# Static dielectric constant tensor:
#      x y z
#    x 4.675860 0.000000 0.000000 
#    y 0.000000 3.182240 0.000000 
#    z 0.000000 0.000000 3.855960 
# 
# 
# High freq. dielectric constant tensor:
#      x y z
#    x 1.810090 0.000000 0.000000 
#    y 0.000000 1.782000 0.000000 
#    z 0.000000 0.000000 1.804660 
# 
# From -- ./inp_files/16590.got.cif
#   From: 2010.03.12/outbox.cif.g09.slc.cpg/sg68_9_cif.got.tgz:16590.got - 2010.04.10 23:14:56.
