data_PCOD8282120
_publ_section_title
;
Structure prediction by ZEFSAII (Michael W. Deem and Ramdas Pophale) SiO2 
 PCOD8282120
Probable space group: C C C A
;
_chemical_formula_sum "Si O2"
_cell_formula_units_Z 120
_cell_length_a 24.807289
_cell_length_b 11.985734
_cell_length_c 21.919674
_cell_angle_alpha 90.000000
_cell_angle_beta 90.000000
_cell_angle_gamma 90.000000
_cell_volume 6517.454863
_symmetry_space_group_name_H-M "C C C A"
_symmetry_group_IT_number 68
_space_group.IT_coordinate_system_code '2'
_symmetry_cell_setting 'orthorhombic'
loop_
_space_group_symop_operation_xyz
x,y,z
-x,1/2-y,z
x,1/2-y,1/2-z
-x,y,1/2-z
-x,-y,-z
x,1/2+y,-z
-x,1/2+y,1/2+z
x,-y,1/2+z
1/2+x,1/2+y,z
1/2-x,-y,z
1/2+x,-y,1/2-z
1/2-x,1/2+y,1/2-z
1/2-x,1/2-y,-z
1/2+x,y,-z
1/2-x,y,1/2+z
1/2+x,1/2-y,1/2+z
loop_
_atom_site_type_symbol
_atom_site_label
_atom_site_fract_x
_atom_site_fract_y
_atom_site_fract_z
Si Si1 0.858563 0.080344 0.567247
Si Si2 0.940396 0.777202 0.441757
Si Si3 0.854145 0.634153 0.863753
Si Si4 0.748241 0.781445 0.570003
Si Si5 0.056594 0.725868 0.922737
Si Si6 0.673357 0.750000 0.250000
Si Si7 0.285741 0.095707 0.646773
Si Si8 0.115845 0.509535 0.933777
O O1 0.904878 0.170722 0.573527
O O2 0.802616 0.140500 0.582699
O O3 0.857323 0.018763 0.501222
O O4 0.871996 0.990812 0.620248
O O5 0.945539 0.794048 0.514077
O O6 0.000000 0.750000 0.413791
O O7 0.909885 0.888727 0.417720
O O8 0.799384 0.653862 0.902125
O O9 0.894578 0.729581 0.883931
O O10 0.855562 0.652786 0.790103
O O11 0.750000 0.750000 0.500000
O O12 0.746450 0.658139 0.599025
O O13 0.065320 0.594158 0.932040
O O14 0.000000 0.750000 0.888577
O O15 0.706478 0.815458 0.300274
O O16 0.340009 0.046255 0.616427
O O17 0.250000 0.000000 0.676570
#
# Coordination Sequence:
#
# PCOD8282120 Si02
#       8
#    16  16  16  16  16   8  16  16
#     4  11  22  33  58  89 123 158 198 244 304 366
#     4  10  22  35  55  90 127 156 191 242 317 381
#     4  11  22  40  58  86 120 157 201 256 289 357
#     4  11  20  34  55  90 124 151 194 243 307 360
#     4  10  20  34  59  87 115 159 200 247 305 361
#     4  10  24  44  57  82 122 160 217 242 292 346
#     4  11  23  37  62  83 123 163 199 252 298 363
#     4  11  20  37  57  89 126 157 196 246 307 366
#
# _framework density 18.412095000000001
#
# number of rings (size 3 to 8) (size 9 to 14) (size 15 to 20)
#    0.000    1.333    5.333    2.000    3.733    3.733 
#    0.000    0.333    0.000    0.000    0.000    0.933 
#    0.000    0.000    0.000    0.000    0.000    0.000 
#
# Total GULP energy -743331.014587 kJ/mol
# GULP energy per Si atom -12388.850243 kJ/mol
# Density = 1.837019 g / cm^3
# Si number density = 18.412095 Si / 1000 Ang^3
#
#
#
# Elastic Constant Matrix: (Units=GPa)
#
#
# Indices 1 2 3 4 5 6 
#
# 1 106.2367 42.5539 30.3049 0.0000 0.0000 0.0000
# 2 42.5539 122.6790 39.5953 0.0000 0.0000 0.0000
# 3 30.3049 39.5953 92.8591 0.0000 0.0000 0.0000
# 4 0.0000 0.0000 0.0000 31.4699 0.0000 0.0000
# 5 0.0000 0.0000 0.0000 0.0000 0.9362 0.0000
# 6 0.0000 0.0000 0.0000 0.0000 0.0000 30.4059
#
#
#
# Elastic Compliance Matrix: (Units=1/GPa)
#
#
# Indices 1 2 3 4 5 6 
#
# 1 0.011358 -0.003181 -0.002350 0.000000 0.000000 0.000000
# 2 -0.003181 0.010343 -0.003372 0.000000 0.000000 0.000000
# 3 -0.002350 -0.003372 0.012974 0.000000 0.000000 0.000000
# 4 0.000000 0.000000 0.000000 0.031776 0.000000 0.000000
# 5 0.000000 0.000000 0.000000 0.000000 1.068160 0.000000
# 6 0.000000 0.000000 0.000000 0.000000 0.000000 0.032888
#
#
# Mechanical properties :
#
#
# Convention : Reuss Voigt Hill
#
# Bulk Modulus (GPa) = 59.28472 60.74255 60.01363
# Shear Modulus (GPa) = 4.19841 26.51711 15.35776
#
# Velocity S-wave (km/s) = 1.51169 3.79911 2.89123
# Velocity P-wave (km/s) = 5.94269 7.23233 6.61899
#
# Compressibility (1/GPa) = 0.01686775
#
# Stress axis : x y z
#
# Youngs Moduli (GPa) = 88.04715 96.68209 77.07788
#
# Poissons Ratio (x) = 0.30755 0.18114
# Poissons Ratio (y) = 0.28009 0.25992
# Poissons Ratio (z) = 0.20692 0.32603
#
# Static dielectric constant tensor:
#      x y z
#    x 5.236780 0.000000 0.000000 
#    y 0.000000 -5.904880 0.000000 
#    z 0.000000 0.000000 3.353220 
# 
# 
# High freq. dielectric constant tensor:
#      x y z
#    x 1.713210 0.000000 0.000000 
#    y 0.000000 1.734710 0.000000 
#    z 0.000000 0.000000 1.676060 
# 
# From -- ./inp_files/40939.got.cif
#   From: 2010.03.12/outbox.cif.g09.slc.cpg/sg68_21_cif.got.tgz:40939.got - 2010.04.10 23:14:56.
