data_PCOD8282316
_publ_section_title
;
Structure prediction by ZEFSAII (Michael W. Deem and Ramdas Pophale) SiO2 
 PCOD8282316
Probable space group: C C C A
;
_chemical_formula_sum "Si O2"
_cell_formula_units_Z 88
_cell_length_a 16.899717
_cell_length_b 8.536012
_cell_length_c 29.214890
_cell_angle_alpha 90.000000
_cell_angle_beta 90.000000
_cell_angle_gamma 90.000000
_cell_volume 4214.428638
_symmetry_space_group_name_H-M "C C C A"
_symmetry_group_IT_number 68
_space_group.IT_coordinate_system_code '2'
_symmetry_cell_setting 'orthorhombic'
loop_
_space_group_symop_operation_xyz
x,y,z
-x,1/2-y,z
x,1/2-y,1/2-z
-x,y,1/2-z
-x,-y,-z
x,1/2+y,-z
-x,1/2+y,1/2+z
x,-y,1/2+z
1/2+x,1/2+y,z
1/2-x,-y,z
1/2+x,-y,1/2-z
1/2-x,1/2+y,1/2-z
1/2-x,1/2-y,-z
1/2+x,y,-z
1/2-x,y,1/2+z
1/2+x,1/2-y,1/2+z
loop_
_atom_site_type_symbol
_atom_site_label
_atom_site_fract_x
_atom_site_fract_y
_atom_site_fract_z
Si Si1 0.678063 0.711110 0.966926
Si Si2 0.651697 0.750000 0.250000
Si Si3 0.705190 0.223621 0.361943
Si Si4 0.125368 0.412812 0.338101
Si Si5 0.000000 0.250000 0.101232
Si Si6 0.423189 0.424747 0.521729
Si Si7 0.250000 0.000000 0.806280
O O1 0.694237 0.767955 0.915977
O O2 0.654936 0.529225 0.969580
O O3 0.750000 0.750000 0.000000
O O4 0.599411 0.795492 0.984651
O O5 0.601501 0.847499 0.287572
O O6 0.703700 0.882228 0.225998
O O7 0.795601 0.174240 0.354295
O O8 0.691998 0.393887 0.338400
O O9 0.643075 0.099553 0.339818
O O10 0.050812 0.372750 0.369482
O O11 0.059639 0.350451 0.070825
O O12 0.500000 0.500000 0.500000
#
# Coordination Sequence:
#
# PCOD8282316 Si02
#       7
#    16   8  16  16   8  16   8
#     4  12  26  39  65  95 132 173 226 275 317 381
#     4  10  20  39  66  96 124 165 216 270 354 388
#     4  10  23  39  65  99 128 167 222 274 331 380
#     4  10  23  40  66  94 128 171 214 278 328 414
#     4  12  24  43  66  90 138 178 228 259 346 404
#     4  12  25  43  62  91 132 183 218 268 324 395
#     4  10  20  38  66 100 132 162 214 288 342 406
#
# _framework density 20.880647
#
# number of rings (size 3 to 8) (size 9 to 14) (size 15 to 20)
#    0.000    1.091    1.818    4.909   12.727    0.364 
#    0.000    0.000    0.000    0.000    4.727    0.000 
#    0.000    0.000    0.000    0.000    0.000    0.000 
#
# Total GULP energy -545455.705623 kJ/mol
# GULP energy per Si atom -12396.720582 kJ/mol
# Density = 2.083312 g / cm^3
# Si number density = 20.880647 Si / 1000 Ang^3
#
#
#
# Elastic Constant Matrix: (Units=GPa)
#
#
# Indices 1 2 3 4 5 6 
#
# 1 69.7642 38.4381 34.6667 0.0000 0.0000 0.0000
# 2 38.4381 145.9614 68.3279 0.0000 0.0000 0.0000
# 3 34.6667 68.3279 166.3050 0.0000 0.0000 0.0000
# 4 0.0000 0.0000 0.0000 33.5088 0.0000 0.0000
# 5 0.0000 0.0000 0.0000 0.0000 41.8206 0.0000
# 6 0.0000 0.0000 0.0000 0.0000 0.0000 40.5998
#
#
#
# Elastic Compliance Matrix: (Units=1/GPa)
#
#
# Indices 1 2 3 4 5 6 
#
# 1 0.017370 -0.003565 -0.002156 0.000000 0.000000 0.000000
# 2 -0.003565 0.009214 -0.003043 0.000000 0.000000 0.000000
# 3 -0.002156 -0.003043 0.007713 0.000000 0.000000 0.000000
# 4 0.000000 0.000000 0.000000 0.029843 0.000000 0.000000
# 5 0.000000 0.000000 0.000000 0.000000 0.023912 0.000000
# 6 0.000000 0.000000 0.000000 0.000000 0.000000 0.024631
#
#
# Mechanical properties :
#
#
# Convention : Reuss Voigt Hill
#
# Bulk Modulus (GPa) = 59.63315 73.87734 66.75524
# Shear Modulus (GPa) = 36.81926 39.22569 38.02247
#
# Velocity S-wave (km/s) = 4.20375 4.33895 4.27188
# Velocity P-wave (km/s) = 7.22378 7.78200 7.50808
#
# Compressibility (1/GPa) = 0.01676920
#
# Stress axis : x y z
#
# Youngs Moduli (GPa) = 57.57212 108.52758 129.65810
#
# Poissons Ratio (x) = 0.38688 0.27955
# Poissons Ratio (y) = 0.20524 0.39450
# Poissons Ratio (z) = 0.12413 0.33021
#
# Static dielectric constant tensor:
#      x y z
#    x 3.524150 0.000000 0.000000 
#    y 0.000000 4.261090 0.000000 
#    z 0.000000 0.000000 -7.425020 
# 
# 
# High freq. dielectric constant tensor:
#      x y z
#    x 1.795680 0.000000 0.000000 
#    y 0.000000 1.835730 0.000000 
#    z 0.000000 0.000000 1.832640 
# 
# From -- ./inp_files/55592.got.cif
#   From: 2010.03.12/outbox.cif.g09.slc.cpg/sg68_28_cif.got.tgz:55592.got - 2010.04.10 23:14:56.
