data_PCOD8282932
_publ_section_title
;
Structure prediction by ZEFSAII (Michael W. Deem and Ramdas Pophale) SiO2 
 PCOD8282932
Probable space group: C C C A
;
_chemical_formula_sum "Si O2"
_cell_formula_units_Z 80
_cell_length_a 24.065712
_cell_length_b 9.422606
_cell_length_c 16.304186
_cell_angle_alpha 90.000000
_cell_angle_beta 90.000000
_cell_angle_gamma 90.000000
_cell_volume 3697.165298
_symmetry_space_group_name_H-M "C C C A"
_symmetry_group_IT_number 68
_space_group.IT_coordinate_system_code '2'
_symmetry_cell_setting 'orthorhombic'
loop_
_space_group_symop_operation_xyz
x,y,z
-x,1/2-y,z
x,1/2-y,1/2-z
-x,y,1/2-z
-x,-y,-z
x,1/2+y,-z
-x,1/2+y,1/2+z
x,-y,1/2+z
1/2+x,1/2+y,z
1/2-x,-y,z
1/2+x,-y,1/2-z
1/2-x,1/2+y,1/2-z
1/2-x,1/2-y,-z
1/2+x,y,-z
1/2-x,y,1/2+z
1/2+x,1/2-y,1/2+z
loop_
_atom_site_type_symbol
_atom_site_label
_atom_site_fract_x
_atom_site_fract_y
_atom_site_fract_z
Si Si1 0.111981 0.785671 0.077611
Si Si2 0.075355 0.021960 0.427170
Si Si3 0.879398 0.096968 0.243094
Si Si4 0.795585 0.117481 0.805309
Si Si5 0.970086 0.455606 0.666266
O O1 0.109809 0.621216 0.055283
O O2 0.173248 0.828154 0.112048
O O3 0.065256 0.814014 0.146550
O O4 0.092323 0.877397 0.000711
O O5 0.093230 0.097739 0.344880
O O6 0.008982 0.995776 0.412134
O O7 0.849384 0.250000 0.250000
O O8 0.837239 0.966717 0.246194
O O9 0.926404 0.083435 0.314719
O O10 0.772976 0.250000 0.750000
O O11 0.750000 0.000000 0.832329
O O12 0.000000 0.416090 0.750000
#
# Coordination Sequence:
#
# PCOD8282932 Si02
#       5
#    16  16  16  16  16
#     4  11  24  41  62  95 134 173 215 270 332 397
#     4  11  23  40  62  93 138 175 215 264 331 392
#     4  10  22  41  67  94 132 172 227 278 317 386
#     4  11  23  46  73  98 121 167 223 281 335 394
#     4   9  21  37  63  92 131 181 228 269 315 383
#
# _framework density 21.638200000000001
#
# number of rings (size 3 to 8) (size 9 to 14) (size 15 to 20)
#    0.000    1.600    2.000    1.800    5.600    6.000 
#    0.000    2.000    0.000    0.000    0.000    0.000 
#    0.000    0.000    0.000    0.000    0.000    0.000 
#
# Total GULP energy -495651.610699 kJ/mol
# GULP energy per Si atom -12391.290267 kJ/mol
# Density = 2.158895 g / cm^3
# Si number density = 21.638200 Si / 1000 Ang^3
#
#
#
# Elastic Constant Matrix: (Units=GPa)
#
#
# Indices 1 2 3 4 5 6 
#
# 1 87.5627 23.0152 24.7191 0.0000 0.0000 0.0000
# 2 23.0152 136.6735 27.2929 0.0000 0.0000 0.0000
# 3 24.7191 27.2929 71.2350 0.0000 0.0000 0.0000
# 4 0.0000 0.0000 0.0000 28.1351 0.0000 0.0000
# 5 0.0000 0.0000 0.0000 0.0000 20.3544 0.0000
# 6 0.0000 0.0000 0.0000 0.0000 0.0000 24.9990
#
#
#
# Elastic Compliance Matrix: (Units=1/GPa)
#
#
# Indices 1 2 3 4 5 6 
#
# 1 0.012898 -0.001384 -0.003945 0.000000 0.000000 0.000000
# 2 -0.001384 0.008071 -0.002612 0.000000 0.000000 0.000000
# 3 -0.003945 -0.002612 0.016408 0.000000 0.000000 0.000000
# 4 0.000000 0.000000 0.000000 0.035543 0.000000 0.000000
# 5 0.000000 0.000000 0.000000 0.000000 0.049129 0.000000
# 6 0.000000 0.000000 0.000000 0.000000 0.000000 0.040002
#
#
# Mechanical properties :
#
#
# Convention : Reuss Voigt Hill
#
# Bulk Modulus (GPa) = 46.52460 49.50285 48.01372
# Shear Modulus (GPa) = 27.01252 29.39394 28.20323
#
# Velocity S-wave (km/s) = 3.53706 3.68968 3.61418
# Velocity P-wave (km/s) = 6.18295 6.40928 6.29713
#
# Compressibility (1/GPa) = 0.02149400
#
# Stress axis : x y z
#
# Youngs Moduli (GPa) = 77.53152 123.89390 60.94599
#
# Poissons Ratio (x) = 0.17148 0.24046
# Poissons Ratio (y) = 0.10731 0.15920
# Poissons Ratio (z) = 0.30589 0.32363
#
# Static dielectric constant tensor:
#      x y z
#    x 3.946580 0.000000 0.000000 
#    y 0.000000 3.908940 0.000000 
#    z 0.000000 0.000000 3.854920 
# 
# 
# High freq. dielectric constant tensor:
#      x y z
#    x 1.832130 0.000000 0.000000 
#    y 0.000000 1.860040 0.000000 
#    z 0.000000 0.000000 1.843870 
# 
# From -- ./inp_files/28302.got.cif
#   From: 2010.03.12/outbox.cif.g09.slc.cpg/sg68_15_cif.got.tgz:28302.got - 2010.04.10 23:14:56.
