data_PCOD8282101
_publ_section_title
;
Structure prediction by ZEFSAII (Michael W. Deem and Ramdas Pophale) SiO2 
 PCOD8282101
Probable space group: C C C A
;
_chemical_formula_sum "Si O2"
_cell_formula_units_Z 64
_cell_length_a 11.166993
_cell_length_b 8.797227
_cell_length_c 33.212041
_cell_angle_alpha 90.000000
_cell_angle_beta 90.000000
_cell_angle_gamma 90.000000
_cell_volume 3262.703492
_symmetry_space_group_name_H-M "C C C A"
_symmetry_group_IT_number 68
_space_group.IT_coordinate_system_code '2'
_symmetry_cell_setting 'orthorhombic'
loop_
_space_group_symop_operation_xyz
x,y,z
-x,1/2-y,z
x,1/2-y,1/2-z
-x,y,1/2-z
-x,-y,-z
x,1/2+y,-z
-x,1/2+y,1/2+z
x,-y,1/2+z
1/2+x,1/2+y,z
1/2-x,-y,z
1/2+x,-y,1/2-z
1/2-x,1/2+y,1/2-z
1/2-x,1/2-y,-z
1/2+x,y,-z
1/2-x,y,1/2+z
1/2+x,1/2-y,1/2+z
loop_
_atom_site_type_symbol
_atom_site_label
_atom_site_fract_x
_atom_site_fract_y
_atom_site_fract_z
Si Si1 0.847556 0.129887 0.315861
Si Si2 0.500000 0.750000 0.511371
Si Si3 0.000000 0.504021 0.250000
Si Si4 0.886236 0.461186 0.449051
Si Si5 0.500000 0.750000 0.384900
Si Si6 0.304658 0.250000 0.250000
O O1 0.887651 0.195085 0.358532
O O2 0.778966 0.253347 0.289108
O O3 0.750000 0.000000 0.324502
O O4 0.968852 0.087170 0.290823
O O5 0.398745 0.834074 0.484223
O O6 0.443291 0.622101 0.539407
O O7 0.117963 0.601495 0.242368
O O8 0.750000 0.500000 0.438932
O O9 0.954913 0.394103 0.410502
#
# Coordination Sequence:
#
# PCOD8282101 Si02
#       6
#    16   8   8  16   8   8
#     4  10  20  34  52  75 108 144 182 231 273 318
#     4   9  20  40  64  87 106 138 188 225 260 322
#     4   9  18  33  54  76  96 136 194 232 268 318
#     4  10  21  38  61  85 112 144 179 223 270 320
#     4  11  24  35  50  85 118 146 180 213 274 341
#     4   9  18  33  54  74  96 139 190 233 272 310
#
# _framework density 19.615635000000001
#
# number of rings (size 3 to 8) (size 9 to 14) (size 15 to 20)
#    0.000    2.250    0.000    2.250    0.000    4.000 
#    0.000    5.000    0.000    0.000    0.000    0.000 
#    0.000    0.000    0.000    0.000    0.000    0.000 
#
# Total GULP energy -396600.395509 kJ/mol
# GULP energy per Si atom -12393.762360 kJ/mol
# Density = 1.957099 g / cm^3
# Si number density = 19.615635 Si / 1000 Ang^3
#
#
#
# Elastic Constant Matrix: (Units=GPa)
#
#
# Indices 1 2 3 4 5 6 
#
# 1 125.3367 47.5480 64.7754 0.0000 0.0000 0.0000
# 2 47.5480 111.6782 68.0334 0.0000 0.0000 0.0000
# 3 64.7754 68.0334 133.7853 0.0000 0.0000 0.0000
# 4 0.0000 0.0000 0.0000 10.5385 0.0000 0.0000
# 5 0.0000 0.0000 0.0000 0.0000 31.6007 0.0000
# 6 0.0000 0.0000 0.0000 0.0000 0.0000 17.2401
#
#
#
# Elastic Compliance Matrix: (Units=1/GPa)
#
#
# Indices 1 2 3 4 5 6 
#
# 1 0.010964 -0.002078 -0.004252 0.000000 0.000000 0.000000
# 2 -0.002078 0.013367 -0.005791 0.000000 0.000000 0.000000
# 3 -0.004252 -0.005791 0.012478 0.000000 0.000000 0.000000
# 4 0.000000 0.000000 0.000000 0.094890 0.000000 0.000000
# 5 0.000000 0.000000 0.000000 0.000000 0.031645 0.000000
# 6 0.000000 0.000000 0.000000 0.000000 0.000000 0.058004
#
#
# Mechanical properties :
#
#
# Convention : Reuss Voigt Hill
#
# Bulk Modulus (GPa) = 79.57220 81.27933 80.42577
# Shear Modulus (GPa) = 20.01756 24.57207 22.29482
#
# Velocity S-wave (km/s) = 3.19798 3.54316 3.37498
# Velocity P-wave (km/s) = 7.36816 7.63312 7.50181
#
# Compressibility (1/GPa) = 0.01256720
#
# Stress axis : x y z
#
# Youngs Moduli (GPa) = 91.20562 74.81059 80.13801
#
# Poissons Ratio (x) = 0.15545 0.34074
# Poissons Ratio (y) = 0.18951 0.46412
# Poissons Ratio (z) = 0.38780 0.43326
#
# Static dielectric constant tensor:
#      x y z
#    x 3.663800 0.000000 0.000000 
#    y 0.000000 3.685380 0.000000 
#    z 0.000000 0.000000 3.437440 
# 
# 
# High freq. dielectric constant tensor:
#      x y z
#    x 1.776070 0.000000 0.000000 
#    y 0.000000 1.776490 0.000000 
#    z 0.000000 0.000000 1.750450 
# 
# From -- ./inp_files/53855.got.cif
#   From: 2010.03.12/outbox.cif.g09.slc.cpg/sg68_27_cif.got.tgz:53855.got - 2010.04.10 23:14:56.
