data_PCOD8282644
_publ_section_title
;
Structure prediction by ZEFSAII (Michael W. Deem and Ramdas Pophale) SiO2 
 PCOD8282644
Probable space group: C C C A
;
_chemical_formula_sum "Si O2"
_cell_formula_units_Z 52
_cell_length_a 8.837836
_cell_length_b 28.954950
_cell_length_c 9.748376
_cell_angle_alpha 90.000000
_cell_angle_beta 90.000000
_cell_angle_gamma 90.000000
_cell_volume 2494.600640
_symmetry_space_group_name_H-M "C C C A"
_symmetry_group_IT_number 68
_space_group.IT_coordinate_system_code '2'
_symmetry_cell_setting 'orthorhombic'
loop_
_space_group_symop_operation_xyz
x,y,z
-x,1/2-y,z
x,1/2-y,1/2-z
-x,y,1/2-z
-x,-y,-z
x,1/2+y,-z
-x,1/2+y,1/2+z
x,-y,1/2+z
1/2+x,1/2+y,z
1/2-x,-y,z
1/2+x,-y,1/2-z
1/2-x,1/2+y,1/2-z
1/2-x,1/2-y,-z
1/2+x,y,-z
1/2-x,y,1/2+z
1/2+x,1/2-y,1/2+z
loop_
_atom_site_type_symbol
_atom_site_label
_atom_site_fract_x
_atom_site_fract_y
_atom_site_fract_z
Si Si1 0.180492 0.332946 0.154858
Si Si2 0.618962 0.870711 0.438118
Si Si3 0.597326 0.973428 0.387375
Si Si4 0.000000 0.250000 0.250000
O O1 0.209901 0.349124 0.309875
O O2 0.110048 0.281211 0.154616
O O3 0.060323 0.366417 0.081218
O O4 0.334295 0.340086 0.070545
O O5 0.651674 0.924919 0.453021
O O6 0.500000 0.965634 0.250000
O O7 0.500000 0.000000 0.500000
O O8 0.750000 0.000000 0.347657
#
# Coordination Sequence:
#
# PCOD8282644 Si02
#       4
#    16  16  16   4
#     4  10  21  39  64  85 127 154 204 257 311 380
#     4  10  22  41  58  89 123 164 201 256 318 367
#     4  12  25  41  63  92 129 171 219 266 315 382
#     4   8  20  40  64  96 116 160 204 264 316 376
#
# _framework density 20.845020000000002
#
# number of rings (size 3 to 8) (size 9 to 14) (size 15 to 20)
#    0.000    1.846    3.077    2.769    4.308    6.154 
#    0.000    0.000    0.000   14.769    0.000    0.000 
#    0.000    0.000    0.000    0.000    0.000    0.000 
#
# Total GULP energy -322340.377230 kJ/mol
# GULP energy per Si atom -12397.706817 kJ/mol
# Density = 2.079758 g / cm^3
# Si number density = 20.845020 Si / 1000 Ang^3
#
#
#
# Elastic Constant Matrix: (Units=GPa)
#
#
# Indices 1 2 3 4 5 6 
#
# 1 53.2081 20.2176 19.0966 0.0000 0.0000 0.0000
# 2 20.2176 153.7112 22.2540 0.0000 0.0000 0.0000
# 3 19.0966 22.2540 92.4083 0.0000 0.0000 0.0000
# 4 0.0000 0.0000 0.0000 21.3807 0.0000 0.0000
# 5 0.0000 0.0000 0.0000 0.0000 31.3760 0.0000
# 6 0.0000 0.0000 0.0000 0.0000 0.0000 27.3858
#
#
#
# Elastic Compliance Matrix: (Units=1/GPa)
#
#
# Indices 1 2 3 4 5 6 
#
# 1 0.021001 -0.002211 -0.003807 0.000000 0.000000 0.000000
# 2 -0.002211 0.006974 -0.001222 0.000000 0.000000 0.000000
# 3 -0.003807 -0.001222 0.011903 0.000000 0.000000 0.000000
# 4 0.000000 0.000000 0.000000 0.046771 0.000000 0.000000
# 5 0.000000 0.000000 0.000000 0.000000 0.031871 0.000000
# 6 0.000000 0.000000 0.000000 0.000000 0.000000 0.036515
#
#
# Mechanical properties :
#
#
# Convention : Reuss Voigt Hill
#
# Bulk Modulus (GPa) = 39.37748 46.94045 43.15896
# Shear Modulus (GPa) = 28.09277 31.87914 29.98596
#
# Velocity S-wave (km/s) = 3.67508 3.91492 3.79690
# Velocity P-wave (km/s) = 6.07782 6.55768 6.32230
#
# Compressibility (1/GPa) = 0.02539523
#
# Stress axis : x y z
#
# Youngs Moduli (GPa) = 47.61730 143.39995 84.01417
#
# Poissons Ratio (x) = 0.31706 0.31988
# Poissons Ratio (y) = 0.10528 0.10270
# Poissons Ratio (z) = 0.18130 0.17530
#
# Static dielectric constant tensor:
#      x y z
#    x 3.607630 0.000000 0.000000 
#    y 0.000000 3.857440 0.000000 
#    z 0.000000 0.000000 3.794780 
# 
# 
# High freq. dielectric constant tensor:
#      x y z
#    x 1.803710 0.000000 0.000000 
#    y 0.000000 1.826600 0.000000 
#    z 0.000000 0.000000 1.810610 
# 
# From -- ./inp_files/8481.got.cif
#   From: 2010.03.12/outbox.cif.g09.slc.cpg/sg68_5_cif.got.tgz:8481.got - 2010.04.10 23:14:56.
