data_PCOD8282991
_publ_section_title
;
Structure prediction by ZEFSAII (Michael W. Deem and Ramdas Pophale) SiO2 
 PCOD8282991
Probable space group: C C C A
;
_chemical_formula_sum "Si O2"
_cell_formula_units_Z 88
_cell_length_a 23.788516
_cell_length_b 14.904774
_cell_length_c 11.077165
_cell_angle_alpha 90.000000
_cell_angle_beta 90.000000
_cell_angle_gamma 90.000000
_cell_volume 3927.546814
_symmetry_space_group_name_H-M "C C C A"
_symmetry_group_IT_number 68
_space_group.IT_coordinate_system_code '2'
_symmetry_cell_setting 'orthorhombic'
loop_
_space_group_symop_operation_xyz
x,y,z
-x,1/2-y,z
x,1/2-y,1/2-z
-x,y,1/2-z
-x,-y,-z
x,1/2+y,-z
-x,1/2+y,1/2+z
x,-y,1/2+z
1/2+x,1/2+y,z
1/2-x,-y,z
1/2+x,-y,1/2-z
1/2-x,1/2+y,1/2-z
1/2-x,1/2-y,-z
1/2+x,y,-z
1/2-x,y,1/2+z
1/2+x,1/2-y,1/2+z
loop_
_atom_site_type_symbol
_atom_site_label
_atom_site_fract_x
_atom_site_fract_y
_atom_site_fract_z
Si Si1 0.006874 0.854847 0.113500
Si Si2 0.907773 0.611977 0.560151
Si Si3 0.820779 0.097571 0.640911
Si Si4 0.194044 0.892522 0.888458
Si Si5 0.879937 0.750000 0.750000
Si Si6 0.625505 0.582452 0.617649
O O1 0.000000 0.750000 0.114054
O O2 0.000000 0.894424 0.250000
O O3 0.069818 0.870370 0.066068
O O4 0.963329 0.902065 0.021614
O O5 0.854885 0.632813 0.474159
O O6 0.917569 0.694114 0.653948
O O7 0.891861 0.521932 0.632366
O O8 0.758659 0.137752 0.625965
O O9 0.854847 0.130022 0.758649
O O10 0.816841 0.991147 0.663169
O O11 0.158210 0.820809 0.817984
O O12 0.177229 0.898774 0.028543
#
# Coordination Sequence:
#
# PCOD8282991 Si02
#       6
#    16  16  16  16   8  16
#     4  11  23  43  67  99 137 178 233 286 344 420
#     4  11  24  43  70 101 138 180 230 290 353 411
#     4  10  22  43  68  96 134 191 234 283 336 430
#     4  10  24  40  67  99 140 182 232 282 354 408
#     4  12  24  44  63 108 148 169 230 296 350 410
#     4  11  22  45  72  99 134 188 235 282 348 426
#
# _framework density 22.405842
#
# number of rings (size 3 to 8) (size 9 to 14) (size 15 to 20)
#    0.000    1.273    3.636    1.636    2.545    2.182 
#    3.273    4.091    0.000    0.000    0.000    0.000 
#    0.000    0.000    0.000    0.000    0.000    0.000 
#
# Total GULP energy -545552.003081 kJ/mol
# GULP energy per Si atom -12398.909161 kJ/mol
# Density = 2.235485 g / cm^3
# Si number density = 22.405842 Si / 1000 Ang^3
#
#
#
# Elastic Constant Matrix: (Units=GPa)
#
#
# Indices 1 2 3 4 5 6 
#
# 1 145.2413 18.8138 50.4278 0.0000 0.0000 0.0000
# 2 18.8138 58.1029 37.6772 0.0000 0.0000 0.0000
# 3 50.4278 37.6772 103.5950 0.0000 0.0000 0.0000
# 4 0.0000 0.0000 0.0000 29.6463 0.0000 0.0000
# 5 0.0000 0.0000 0.0000 0.0000 42.2377 0.0000
# 6 0.0000 0.0000 0.0000 0.0000 0.0000 31.3574
#
#
#
# Elastic Compliance Matrix: (Units=1/GPa)
#
#
# Indices 1 2 3 4 5 6 
#
# 1 0.008286 -0.000088 -0.004001 0.000000 0.000000 0.000000
# 2 -0.000088 0.022524 -0.008149 0.000000 0.000000 0.000000
# 3 -0.004001 -0.008149 0.014564 0.000000 0.000000 0.000000
# 4 0.000000 0.000000 0.000000 0.033731 0.000000 0.000000
# 5 0.000000 0.000000 0.000000 0.000000 0.023676 0.000000
# 6 0.000000 0.000000 0.000000 0.000000 0.000000 0.031890
#
#
# Mechanical properties :
#
#
# Convention : Reuss Voigt Hill
#
# Bulk Modulus (GPa) = 47.85356 57.86408 52.85882
# Shear Modulus (GPa) = 30.10002 33.98298 32.04150
#
# Velocity S-wave (km/s) = 3.66922 3.89871 3.78570
# Velocity P-wave (km/s) = 6.27335 6.79324 6.53846
#
# Compressibility (1/GPa) = 0.02089709
#
# Stress axis : x y z
#
# Youngs Moduli (GPa) = 120.68916 44.39800 68.66086
#
# Poissons Ratio (x) = 0.00392 0.27473
# Poissons Ratio (y) = 0.01066 0.55950
# Poissons Ratio (z) = 0.48290 0.36179
#
# Static dielectric constant tensor:
#      x y z
#    x 4.119480 0.000000 0.000000 
#    y 0.000000 4.013860 0.000000 
#    z 0.000000 0.000000 4.142980 
# 
# 
# High freq. dielectric constant tensor:
#      x y z
#    x 1.885870 0.000000 0.000000 
#    y 0.000000 1.873550 0.000000 
#    z 0.000000 0.000000 1.886650 
# 
# From -- ./inp_files/15441.got.cif
#   From: 2010.03.12/outbox.cif.g09.slc.cpg/sg68_8_cif.got.tgz:15441.got - 2010.04.10 23:14:56.
