data_PCOD8282717
_publ_section_title
;
Structure prediction by ZEFSAII (Michael W. Deem and Ramdas Pophale) SiO2 
 PCOD8282717
Probable space group: C C C A
;
_chemical_formula_sum "Si O2"
_cell_formula_units_Z 80
_cell_length_a 26.051784
_cell_length_b 15.766633
_cell_length_c 9.855059
_cell_angle_alpha 90.000000
_cell_angle_beta 90.000000
_cell_angle_gamma 90.000000
_cell_volume 4047.954814
_symmetry_space_group_name_H-M "C C C A"
_symmetry_group_IT_number 68
_space_group.IT_coordinate_system_code '2'
_symmetry_cell_setting 'orthorhombic'
loop_
_space_group_symop_operation_xyz
x,y,z
-x,1/2-y,z
x,1/2-y,1/2-z
-x,y,1/2-z
-x,-y,-z
x,1/2+y,-z
-x,1/2+y,1/2+z
x,-y,1/2+z
1/2+x,1/2+y,z
1/2-x,-y,z
1/2+x,-y,1/2-z
1/2-x,1/2+y,1/2-z
1/2-x,1/2-y,-z
1/2+x,y,-z
1/2-x,y,1/2+z
1/2+x,1/2-y,1/2+z
loop_
_atom_site_type_symbol
_atom_site_label
_atom_site_fract_x
_atom_site_fract_y
_atom_site_fract_z
Si Si1 0.777910 0.084836 0.797555
Si Si2 0.220790 0.325578 0.068465
Si Si3 0.109925 0.668037 0.668270
Si Si4 0.443778 0.461280 0.499044
Si Si5 0.615325 0.485799 0.262731
O O1 0.749368 0.157111 0.710748
O O2 0.836337 0.075525 0.749092
O O3 0.750000 0.000000 0.758071
O O4 0.776220 0.098039 0.959574
O O5 0.161134 0.301897 0.089716
O O6 0.250000 0.250000 0.000000
O O7 0.088643 0.750000 0.750000
O O8 0.064152 0.632827 0.568361
O O9 0.127153 0.586984 0.762102
O O10 0.500000 0.500000 0.500000
O O11 0.426861 0.455583 0.344363
O O12 0.407683 0.525721 0.585616
#
# Coordination Sequence:
#
# PCOD8282717 Si02
#       5
#    16  16  16  16  16
#     4  12  22  39  60  92 129 173 218 266 318 399
#     4  12  25  38  61  92 136 174 216 260 333 391
#     4  10  22  40  62  95 134 168 217 265 329 395
#     4  10  21  41  67  94 123 166 226 277 324 383
#     4  10  22  38  65  93 126 166 222 272 322 394
#
# _framework density 19.763065999999998
#
# number of rings (size 3 to 8) (size 9 to 14) (size 15 to 20)
#    1.200    0.000    4.000    3.000    2.800    0.000 
#    0.000    2.000    0.000    0.000    0.000    2.800 
#    0.000    0.000    0.000    0.000    0.000    0.000 
#
# Total GULP energy -495563.279843 kJ/mol
# GULP energy per Si atom -12389.081996 kJ/mol
# Density = 1.971808 g / cm^3
# Si number density = 19.763066 Si / 1000 Ang^3
#
#
#
# Elastic Constant Matrix: (Units=GPa)
#
#
# Indices 1 2 3 4 5 6 
#
# 1 116.4046 21.3762 6.4281 0.0000 0.0000 0.0000
# 2 21.3762 72.5977 2.5659 0.0000 0.0000 0.0000
# 3 6.4281 2.5659 66.7577 0.0000 0.0000 0.0000
# 4 0.0000 0.0000 0.0000 37.2869 0.0000 0.0000
# 5 0.0000 0.0000 0.0000 0.0000 29.9868 0.0000
# 6 0.0000 0.0000 0.0000 0.0000 0.0000 25.7103
#
#
#
# Elastic Compliance Matrix: (Units=1/GPa)
#
#
# Indices 1 2 3 4 5 6 
#
# 1 0.009122 -0.002658 -0.000776 0.000000 0.000000 0.000000
# 2 -0.002658 0.014568 -0.000304 0.000000 0.000000 0.000000
# 3 -0.000776 -0.000304 0.015066 0.000000 0.000000 0.000000
# 4 0.000000 0.000000 0.000000 0.026819 0.000000 0.000000
# 5 0.000000 0.000000 0.000000 0.000000 0.033348 0.000000
# 6 0.000000 0.000000 0.000000 0.000000 0.000000 0.038895
#
#
# Mechanical properties :
#
#
# Convention : Reuss Voigt Hill
#
# Bulk Modulus (GPa) = 31.97067 35.16671 33.56869
# Shear Modulus (GPa) = 32.10867 33.62278 32.86573
#
# Velocity S-wave (km/s) = 4.03511 4.12915 4.08240
# Velocity P-wave (km/s) = 6.15805 6.36914 6.26448
#
# Compressibility (1/GPa) = 0.03127867
#
# Stress axis : x y z
#
# Youngs Moduli (GPa) = 109.62775 68.64334 66.37478
#
# Poissons Ratio (x) = 0.18248 0.05152
# Poissons Ratio (y) = 0.29144 0.02018
# Poissons Ratio (z) = 0.08509 0.02086
#
# Static dielectric constant tensor:
#      x y z
#    x 26.360090 0.000000 0.000000 
#    y 0.000000 3.368220 0.000000 
#    z 0.000000 0.000000 3.972310 
# 
# 
# High freq. dielectric constant tensor:
#      x y z
#    x 1.763440 0.000000 0.000000 
#    y 0.000000 1.749030 0.000000 
#    z 0.000000 0.000000 1.775620 
# 
# From -- ./inp_files/8765.got.cif
#   From: 2010.03.12/outbox.cif.g09.slc.cpg/sg68_5_cif.got.tgz:8765.got - 2010.04.10 23:14:56.
