data_PCOD8282906
_publ_section_title
;
Structure prediction by ZEFSAII (Michael W. Deem and Ramdas Pophale) SiO2 
 PCOD8282906
Probable space group: C C C A
;
_chemical_formula_sum "Si O2"
_cell_formula_units_Z 56
_cell_length_a 5.577268
_cell_length_b 13.679551
_cell_length_c 28.682211
_cell_angle_alpha 90.000000
_cell_angle_beta 90.000000
_cell_angle_gamma 90.000000
_cell_volume 2188.295579
_symmetry_space_group_name_H-M "C C C A"
_symmetry_group_IT_number 68
_space_group.IT_coordinate_system_code '2'
_symmetry_cell_setting 'orthorhombic'
loop_
_space_group_symop_operation_xyz
x,y,z
-x,1/2-y,z
x,1/2-y,1/2-z
-x,y,1/2-z
-x,-y,-z
x,1/2+y,-z
-x,1/2+y,1/2+z
x,-y,1/2+z
1/2+x,1/2+y,z
1/2-x,-y,z
1/2+x,-y,1/2-z
1/2-x,1/2+y,1/2-z
1/2-x,1/2-y,-z
1/2+x,y,-z
1/2-x,y,1/2+z
1/2+x,1/2-y,1/2+z
loop_
_atom_site_type_symbol
_atom_site_label
_atom_site_fract_x
_atom_site_fract_y
_atom_site_fract_z
Si Si1 0.162705 0.395846 0.209454
Si Si2 0.136379 0.602741 0.882375
Si Si3 0.500000 0.750000 0.660951
Si Si4 0.514023 0.610404 0.482067
O O1 0.250000 0.500000 0.229131
O O2 0.377274 0.324110 0.196902
O O3 0.000000 0.347652 0.250000
O O4 0.018183 0.415714 0.162838
O O5 0.250000 0.500000 0.896490
O O6 0.320031 0.691328 0.872700
O O7 0.968069 0.627138 0.926357
O O8 0.500000 0.500000 0.500000
O O9 0.759888 0.659767 0.501681
#
# Coordination Sequence:
#
# PCOD8282906 Si02
#       4
#    16  16   8  16
#     4  12  29  53  81 116 157 210 264 331 410 489
#     4  12  25  48  81 112 160 212 265 334 405 483
#     4  12  30  51  80 114 160 204 270 332 407 486
#     4  10  22  40  76 116 157 219 268 332 410 474
#
# _framework density 25.590691
#
# number of rings (size 3 to 8) (size 9 to 14) (size 15 to 20)
#    0.000    0.571    5.714    1.714    8.000    3.429 
#    0.000    1.429    0.000    0.000    0.000    0.000 
#    0.000    0.000    0.000    0.000    0.000    0.000 
#
# Total GULP energy -347097.615502 kJ/mol
# GULP energy per Si atom -12396.343411 kJ/mol
# Density = 2.553245 g / cm^3
# Si number density = 25.590691 Si / 1000 Ang^3
#
#
#
# Elastic Constant Matrix: (Units=GPa)
#
#
# Indices 1 2 3 4 5 6 
#
# 1 143.4823 3.0442 36.4980 0.0000 0.0000 0.0000
# 2 3.0442 127.7760 -8.3056 0.0000 0.0000 0.0000
# 3 36.4980 -8.3056 174.6913 0.0000 0.0000 0.0000
# 4 0.0000 0.0000 0.0000 7.0026 0.0000 0.0000
# 5 0.0000 0.0000 0.0000 0.0000 47.9094 0.0000
# 6 0.0000 0.0000 0.0000 0.0000 0.0000 -31.8212
#
#
#
# Elastic Compliance Matrix: (Units=1/GPa)
#
#
# Indices 1 2 3 4 5 6 
#
# 1 0.007370 -0.000277 -0.001553 0.000000 0.000000 0.000000
# 2 -0.000277 0.007861 0.000432 0.000000 0.000000 0.000000
# 3 -0.001553 0.000432 0.006069 0.000000 0.000000 0.000000
# 4 0.000000 0.000000 0.000000 0.142805 0.000000 0.000000
# 5 0.000000 0.000000 0.000000 0.000000 0.020873 0.000000
# 6 0.000000 0.000000 0.000000 0.000000 0.000000 -0.031426
#
#
# Mechanical properties :
#
#
# Convention : Reuss Voigt Hill
#
# Bulk Modulus (GPa) = 54.04095 56.49143 55.26619
# Shear Modulus (GPa) = 30.76599 32.26568 31.51583
#
# Velocity S-wave (km/s) = 3.47109 3.55468 3.51313
# Velocity P-wave (km/s) = 6.10146 6.24264 6.17246
#
# Compressibility (1/GPa) = 0.01850449
#
# Stress axis : x y z
#
# Youngs Moduli (GPa) = 135.67746 127.21295 164.76165
#
# Poissons Ratio (x) = 0.03518 0.25588
# Poissons Ratio (y) = 0.03752 -0.07110
# Poissons Ratio (z) = 0.21071 -0.05489
#
# Static dielectric constant tensor:
#      x y z
#    x 5.758940 0.000000 0.000000 
#    y 0.000000 4.771360 0.000000 
#    z 0.000000 0.000000 4.552740 
# 
# 
# High freq. dielectric constant tensor:
#      x y z
#    x 2.032230 0.000000 0.000000 
#    y 0.000000 2.025950 0.000000 
#    z 0.000000 0.000000 2.035100 
# 
# From -- ./inp_files/52779.got.cif
#   From: 2010.03.12/outbox.cif.g09.slc.cpg/sg68_27_cif.got.tgz:52779.got - 2010.04.10 23:14:56.
