data_PCOD8282571
_publ_section_title
;
Structure prediction by ZEFSAII (Michael W. Deem and Ramdas Pophale) SiO2 
 PCOD8282571
Probable space group: C C C A
;
_chemical_formula_sum "Si O2"
_cell_formula_units_Z 72
_cell_length_a 18.848029
_cell_length_b 8.226879
_cell_length_c 22.319359
_cell_angle_alpha 90.000000
_cell_angle_beta 90.000000
_cell_angle_gamma 90.000000
_cell_volume 3460.849939
_symmetry_space_group_name_H-M "C C C A"
_symmetry_group_IT_number 68
_space_group.IT_coordinate_system_code '2'
_symmetry_cell_setting 'orthorhombic'
loop_
_space_group_symop_operation_xyz
x,y,z
-x,1/2-y,z
x,1/2-y,1/2-z
-x,y,1/2-z
-x,-y,-z
x,1/2+y,-z
-x,1/2+y,1/2+z
x,-y,1/2+z
1/2+x,1/2+y,z
1/2-x,-y,z
1/2+x,-y,1/2-z
1/2-x,1/2+y,1/2-z
1/2-x,1/2-y,-z
1/2+x,y,-z
1/2-x,y,1/2+z
1/2+x,1/2-y,1/2+z
loop_
_atom_site_type_symbol
_atom_site_label
_atom_site_fract_x
_atom_site_fract_y
_atom_site_fract_z
Si Si1 0.637120 0.706859 0.916902
Si Si2 0.500000 0.250000 0.349321
Si Si3 0.821112 0.106623 0.034286
Si Si4 0.271718 0.188542 0.637921
Si Si5 0.500000 0.991859 0.250000
Si Si6 0.128255 0.250000 0.250000
O O1 0.566468 0.782490 0.891141
O O2 0.621670 0.522292 0.939545
O O3 0.698019 0.709112 0.865116
O O4 0.660119 0.828875 0.969364
O O5 0.511184 0.407482 0.309694
O O6 0.814537 0.264563 0.077268
O O7 0.750000 0.000000 0.030342
O O8 0.319508 0.248363 0.693131
O O9 0.250000 0.000000 0.641876
O O10 0.574646 0.900059 0.254572
#
# Coordination Sequence:
#
# PCOD8282571 Si02
#       6
#    16   8  16  16   8   8
#     4  11  22  38  61  89 123 161 202 247 301 359
#     4  11  24  42  62  86 122 165 204 250 302 361
#     4  10  21  38  60  89 124 157 195 253 307 351
#     4  11  22  38  63  91 119 155 203 251 300 359
#     4  10  24  44  60  86 126 158 194 254 314 350
#     4  11  24  42  66  89 118 160 202 249 304 368
#
# _framework density 20.804137999999998
#
# number of rings (size 3 to 8) (size 9 to 14) (size 15 to 20)
#    0.000    1.333    0.000    7.333    0.000    7.111 
#    0.000    2.222    0.000    0.000    0.000    0.000 
#    0.000    0.000    0.000    0.000    0.000    0.000 
#
# Total GULP energy -446170.455042 kJ/mol
# GULP energy per Si atom -12393.623751 kJ/mol
# Density = 2.075679 g / cm^3
# Si number density = 20.804138 Si / 1000 Ang^3
#
#
#
# Elastic Constant Matrix: (Units=GPa)
#
#
# Indices 1 2 3 4 5 6 
#
# 1 118.9586 15.7046 75.3642 0.0000 0.0000 0.0000
# 2 15.7046 85.5994 32.1796 0.0000 0.0000 0.0000
# 3 75.3642 32.1796 130.6391 0.0000 0.0000 0.0000
# 4 0.0000 0.0000 0.0000 48.3630 0.0000 0.0000
# 5 0.0000 0.0000 0.0000 0.0000 -36.1958 0.0000
# 6 0.0000 0.0000 0.0000 0.0000 0.0000 -348.9791
#
#
#
# Elastic Compliance Matrix: (Units=1/GPa)
#
#
# Indices 1 2 3 4 5 6 
#
# 1 0.013267 0.000488 -0.007774 0.000000 0.000000 0.000000
# 2 0.000488 0.012893 -0.003457 0.000000 0.000000 0.000000
# 3 -0.007774 -0.003457 0.012991 0.000000 0.000000 0.000000
# 4 0.000000 0.000000 0.000000 0.020677 0.000000 0.000000
# 5 0.000000 0.000000 0.000000 0.000000 -0.027628 0.000000
# 6 0.000000 0.000000 0.000000 0.000000 0.000000 -0.002866
#
#
# Mechanical properties :
#
#
# Convention : Reuss Voigt Hill
#
# Bulk Modulus (GPa) = 56.61070 64.63267 60.62168
# Shear Modulus (GPa) = 88.17117 -53.23247 17.46935
#
# Velocity S-wave (km/s) = 6.51717 -5.06389 2.90091
# Velocity P-wave (km/s) = 9.15979 1.74814 6.35790
#
# Compressibility (1/GPa) = 0.01766450
#
# Stress axis : x y z
#
# Youngs Moduli (GPa) = 75.37656 77.56445 76.97692
#
# Poissons Ratio (x) = -0.03788 0.59840
# Poissons Ratio (y) = -0.03681 0.26615
# Poissons Ratio (z) = 0.58596 0.26818
#
# Static dielectric constant tensor:
#      x y z
#    x 3.743060 0.000000 0.000000 
#    y 0.000000 4.118970 0.000000 
#    z 0.000000 0.000000 3.795200 
# 
# 
# High freq. dielectric constant tensor:
#      x y z
#    x 1.803450 0.000000 0.000000 
#    y 0.000000 1.828310 0.000000 
#    z 0.000000 0.000000 1.819760 
# 
# From -- ./inp_files/45925.got.cif
#   From: 2010.03.12/outbox.cif.g09.slc.cpg/sg68_23_cif.got.tgz:45925.got - 2010.04.10 23:14:56.
