data_PCOD8282030
_publ_section_title
;
Structure prediction by ZEFSAII (Michael W. Deem and Ramdas Pophale) SiO2 
 PCOD8282030
Probable space group: C C C A
;
_chemical_formula_sum "Si O2"
_cell_formula_units_Z 96
_cell_length_a 20.915525
_cell_length_b 22.444293
_cell_length_c 10.290125
_cell_angle_alpha 90.000000
_cell_angle_beta 90.000000
_cell_angle_gamma 90.000000
_cell_volume 4830.536302
_symmetry_space_group_name_H-M "C C C A"
_symmetry_group_IT_number 68
_space_group.IT_coordinate_system_code '2'
_symmetry_cell_setting 'orthorhombic'
loop_
_space_group_symop_operation_xyz
x,y,z
-x,1/2-y,z
x,1/2-y,1/2-z
-x,y,1/2-z
-x,-y,-z
x,1/2+y,-z
-x,1/2+y,1/2+z
x,-y,1/2+z
1/2+x,1/2+y,z
1/2-x,-y,z
1/2+x,-y,1/2-z
1/2-x,1/2+y,1/2-z
1/2-x,1/2-y,-z
1/2+x,y,-z
1/2-x,y,1/2+z
1/2+x,1/2-y,1/2+z
loop_
_atom_site_type_symbol
_atom_site_label
_atom_site_fract_x
_atom_site_fract_y
_atom_site_fract_z
Si Si1 0.936839 0.139146 0.795198
Si Si2 0.789185 0.250000 0.750000
Si Si3 0.720220 0.135406 0.850059
Si Si4 0.842967 0.438771 0.576194
Si Si5 0.374337 0.191266 0.444250
Si Si6 0.500000 0.250000 0.073338
Si Si7 0.818443 0.973767 0.698380
O O1 0.900804 0.107740 0.913177
O O2 0.888478 0.145693 0.673938
O O3 0.961176 0.203822 0.838593
O O4 0.000000 0.102165 0.750000
O O5 0.746382 0.191604 0.770318
O O6 0.831514 0.244068 0.618848
O O7 0.775003 0.095950 0.920922
O O8 0.684367 0.094118 0.746634
O O9 0.666491 0.156598 0.950206
O O10 0.852459 0.485071 0.694487
O O11 0.853742 0.473418 0.440923
O O12 0.442267 0.216170 0.505029
O O13 0.750000 0.000000 0.667982
#
# Coordination Sequence:
#
# PCOD8282030 Si02
#       7
#    16   8  16  16  16   8  16
#     4  10  20  37  64  90 122 166 218 258 308 386
#     4  12  20  33  54  93 128 160 206 268 324 386
#     4  11  23  34  57  92 130 161 207 269 334 380
#     4  11  22  40  64  90 125 163 217 264 326 382
#     4  11  19  34  58  89 124 165 211 258 308 383
#     4  10  19  38  62  89 124 173 218 251 306 387
#     4  10  23  40  61  88 128 171 205 261 331 394
#
# _framework density 19.873570000000001
#
# number of rings (size 3 to 8) (size 9 to 14) (size 15 to 20)
#    0.000    1.333    3.333    4.750    4.667    1.333 
#    0.000    0.833    0.000    5.500    0.000    0.000 
#    0.000    0.000    0.000    0.000    0.000    0.000 
#
# Total GULP energy -594840.460098 kJ/mol
# GULP energy per Si atom -12392.509585 kJ/mol
# Density = 1.982834 g / cm^3
# Si number density = 19.873570 Si / 1000 Ang^3
#
#
#
# Elastic Constant Matrix: (Units=GPa)
#
#
# Indices 1 2 3 4 5 6 
#
# 1 104.3600 43.3858 52.2517 0.0000 0.0000 0.0000
# 2 43.3858 105.4323 54.2128 0.0000 0.0000 0.0000
# 3 52.2517 54.2128 114.7874 0.0000 0.0000 0.0000
# 4 0.0000 0.0000 0.0000 26.8018 0.0000 0.0000
# 5 0.0000 0.0000 0.0000 0.0000 31.1082 0.0000
# 6 0.0000 0.0000 0.0000 0.0000 0.0000 15.5830
#
#
#
# Elastic Compliance Matrix: (Units=1/GPa)
#
#
# Indices 1 2 3 4 5 6 
#
# 1 0.013125 -0.003076 -0.004522 0.000000 0.000000 0.000000
# 2 -0.003076 0.013248 -0.004857 0.000000 0.000000 0.000000
# 3 -0.004522 -0.004857 0.013064 0.000000 0.000000 0.000000
# 4 0.000000 0.000000 0.000000 0.037311 0.000000 0.000000
# 5 0.000000 0.000000 0.000000 0.000000 0.032146 0.000000
# 6 0.000000 0.000000 0.000000 0.000000 0.000000 0.064173
#
#
# Mechanical properties :
#
#
# Convention : Reuss Voigt Hill
#
# Bulk Modulus (GPa) = 68.83301 69.36447 69.09874
# Shear Modulus (GPa) = 24.65275 26.34724 25.49999
#
# Velocity S-wave (km/s) = 3.52586 3.64502 3.58594
# Velocity P-wave (km/s) = 7.16144 7.25903 7.21040
#
# Compressibility (1/GPa) = 0.01452791
#
# Stress axis : x y z
#
# Youngs Moduli (GPa) = 76.19056 75.48457 76.54712
#
# Poissons Ratio (x) = 0.23218 0.34613
# Poissons Ratio (y) = 0.23435 0.37176
# Poissons Ratio (z) = 0.34452 0.36660
#
# Static dielectric constant tensor:
#      x y z
#    x 3.942590 0.000000 0.000000 
#    y 0.000000 3.703050 0.000000 
#    z 0.000000 0.000000 3.390560 
# 
# 
# High freq. dielectric constant tensor:
#      x y z
#    x 1.767870 0.000000 0.000000 
#    y 0.000000 1.776800 0.000000 
#    z 0.000000 0.000000 1.749180 
# 
# From -- ./inp_files/8189.got.cif
#   From: 2010.03.12/outbox.cif.g09.slc.cpg/sg68_5_cif.got.tgz:8189.got - 2010.04.10 23:14:56.
