data_PCOD8282711
_publ_section_title
;
Structure prediction by ZEFSAII (Michael W. Deem and Ramdas Pophale) SiO2 
 PCOD8282711
Probable space group: C C C A
;
_chemical_formula_sum "Si O2"
_cell_formula_units_Z 116
_cell_length_a 11.933341
_cell_length_b 25.508149
_cell_length_c 16.800828
_cell_angle_alpha 90.000000
_cell_angle_beta 90.000000
_cell_angle_gamma 90.000000
_cell_volume 5114.129038
_symmetry_space_group_name_H-M "C C C A"
_symmetry_group_IT_number 68
_space_group.IT_coordinate_system_code '2'
_symmetry_cell_setting 'orthorhombic'
loop_
_space_group_symop_operation_xyz
x,y,z
-x,1/2-y,z
x,1/2-y,1/2-z
-x,y,1/2-z
-x,-y,-z
x,1/2+y,-z
-x,1/2+y,1/2+z
x,-y,1/2+z
1/2+x,1/2+y,z
1/2-x,-y,z
1/2+x,-y,1/2-z
1/2-x,1/2+y,1/2-z
1/2-x,1/2-y,-z
1/2+x,y,-z
1/2-x,y,1/2+z
1/2+x,1/2-y,1/2+z
loop_
_atom_site_type_symbol
_atom_site_label
_atom_site_fract_x
_atom_site_fract_y
_atom_site_fract_z
Si Si1 0.537271 0.425917 0.339004
Si Si2 0.173449 0.627602 0.817436
Si Si3 0.500000 0.250000 0.250000
Si Si4 0.509959 0.962848 0.343697
Si Si5 0.884574 0.777747 0.912486
Si Si6 0.709930 0.091385 0.644685
Si Si7 0.096980 0.167731 0.625757
Si Si8 0.226318 0.816103 0.970912
O O1 0.500000 0.413709 0.250000
O O2 0.471379 0.477166 0.374593
O O3 0.671239 0.436921 0.341169
O O4 0.507601 0.372206 0.385951
O O5 0.113664 0.683485 0.836797
O O6 0.167497 0.622030 0.722868
O O7 0.301107 0.630077 0.845788
O O8 0.109317 0.578908 0.862168
O O9 0.425441 0.286762 0.308517
O O10 0.500000 0.968557 0.250000
O O11 0.389725 0.947334 0.380196
O O12 0.791475 0.731091 0.907039
O O13 0.000000 0.750000 0.925192
O O14 0.849746 0.812229 0.989744
O O15 0.719941 0.128836 0.570080
O O16 0.130658 0.191009 0.539887
#
# Coordination Sequence:
#
# PCOD8282711 Si02
#       8
#    16  16   4  16  16  16  16  16
#     4  11  21  40  69 103 126 174 228 287 337 392
#     4  10  21  41  65  94 135 172 234 275 335 395
#     4  12  24  44  72 104 146 166 240 292 328 404
#     4   9  21  38  66  97 132 176 223 280 337 398
#     4  10  22  40  61  88 126 182 219 265 324 403
#     4  11  21  41  65  98 136 173 220 287 339 412
#     4  11  24  42  66 103 131 178 222 286 335 400
#     4  10  25  39  61  96 134 176 217 267 350 408
#
# _framework density 22.682261
#
# number of rings (size 3 to 8) (size 9 to 14) (size 15 to 20)
#    0.000    1.655    2.069    1.241    2.897    6.621 
#    0.000    1.379    6.069    0.000    0.000    0.000 
#    0.000    0.000    0.000    0.000    0.000    0.000 
#
# Total GULP energy -718567.753185 kJ/mol
# GULP energy per Si atom -12389.099193 kJ/mol
# Density = 2.263063 g / cm^3
# Si number density = 22.682261 Si / 1000 Ang^3
#
#
#
# Elastic Constant Matrix: (Units=GPa)
#
#
# Indices 1 2 3 4 5 6 
#
# 1 117.4304 45.5665 14.5810 0.0000 0.0000 0.0000
# 2 45.5665 138.7925 33.0436 0.0000 0.0000 0.0000
# 3 14.5810 33.0436 51.4196 0.0000 0.0000 0.0000
# 4 0.0000 0.0000 0.0000 16.9772 0.0000 0.0000
# 5 0.0000 0.0000 0.0000 0.0000 15.8830 0.0000
# 6 0.0000 0.0000 0.0000 0.0000 0.0000 38.0090
#
#
#
# Elastic Compliance Matrix: (Units=1/GPa)
#
#
# Indices 1 2 3 4 5 6 
#
# 1 0.009789 -0.003014 -0.000839 0.000000 0.000000 0.000000
# 2 -0.003014 0.009435 -0.005208 0.000000 0.000000 0.000000
# 3 -0.000839 -0.005208 0.023033 0.000000 0.000000 0.000000
# 4 0.000000 0.000000 0.000000 0.058903 0.000000 0.000000
# 5 0.000000 0.000000 0.000000 0.000000 0.062960 0.000000
# 6 0.000000 0.000000 0.000000 0.000000 0.000000 0.026310
#
#
# Mechanical properties :
#
#
# Convention : Reuss Voigt Hill
#
# Bulk Modulus (GPa) = 41.43537 54.89162 48.16350
# Shear Modulus (GPa) = 23.08441 28.47061 25.77751
#
# Velocity S-wave (km/s) = 3.19365 3.54671 3.37480
# Velocity P-wave (km/s) = 5.64859 6.40508 6.03869
#
# Compressibility (1/GPa) = 0.02413397
#
# Stress axis : x y z
#
# Youngs Moduli (GPa) = 102.15076 105.99364 43.41666
#
# Poissons Ratio (x) = 0.31949 0.03643
# Poissons Ratio (y) = 0.30790 0.22612
# Poissons Ratio (z) = 0.08570 0.55203
#
# Static dielectric constant tensor:
#      x y z
#    x 4.293870 0.000000 0.000000 
#    y 0.000000 4.461800 0.000000 
#    z 0.000000 0.000000 3.832200 
# 
# 
# High freq. dielectric constant tensor:
#      x y z
#    x 1.898880 0.000000 0.000000 
#    y 0.000000 1.907060 0.000000 
#    z 0.000000 0.000000 1.859750 
# 
# From -- ./inp_files/30035.got.cif
#   From: 2010.03.12/outbox.cif.g09.slc.cpg/sg68_16_cif.got.tgz:30035.got - 2010.04.10 23:14:56.
