data_PCOD8282443
_publ_section_title
;
Structure prediction by ZEFSAII (Michael W. Deem and Ramdas Pophale) SiO2 
 PCOD8282443
Probable space group: C C C A
;
_chemical_formula_sum "Si O2"
_cell_formula_units_Z 92
_cell_length_a 8.035144
_cell_length_b 24.013188
_cell_length_c 23.199612
_cell_angle_alpha 90.000000
_cell_angle_beta 90.000000
_cell_angle_gamma 90.000000
_cell_volume 4476.351760
_symmetry_space_group_name_H-M "C C C A"
_symmetry_group_IT_number 68
_space_group.IT_coordinate_system_code '2'
_symmetry_cell_setting 'orthorhombic'
loop_
_space_group_symop_operation_xyz
x,y,z
-x,1/2-y,z
x,1/2-y,1/2-z
-x,y,1/2-z
-x,-y,-z
x,1/2+y,-z
-x,1/2+y,1/2+z
x,-y,1/2+z
1/2+x,1/2+y,z
1/2-x,-y,z
1/2+x,-y,1/2-z
1/2-x,1/2+y,1/2-z
1/2-x,1/2-y,-z
1/2+x,y,-z
1/2-x,y,1/2+z
1/2+x,1/2-y,1/2+z
loop_
_atom_site_type_symbol
_atom_site_label
_atom_site_fract_x
_atom_site_fract_y
_atom_site_fract_z
Si Si1 0.100838 0.955777 0.141054
Si Si2 0.817795 0.383343 0.431762
Si Si3 0.750000 0.500000 0.395571
Si Si4 0.000000 0.250000 0.250000
Si Si5 0.500000 0.750000 0.891319
Si Si6 0.550949 0.858281 0.947714
Si Si7 0.500000 0.605069 0.750000
Si Si8 0.755934 0.177488 0.176558
O O1 0.127261 0.908330 0.091398
O O2 0.110827 0.930416 0.204933
O O3 0.250000 0.000000 0.132128
O O4 0.914440 0.982196 0.140079
O O5 0.809139 0.449872 0.435930
O O6 0.643261 0.354791 0.440248
O O7 0.932851 0.364922 0.483923
O O8 0.866095 0.360783 0.368059
O O9 0.890259 0.209176 0.212876
O O10 0.605034 0.796402 0.927866
O O11 0.359668 0.776863 0.852272
O O12 0.635739 0.639966 0.784698
#
# Coordination Sequence:
#
# PCOD8282443 Si02
#       8
#    16  16   8   4   8  16   8  16
#     4  11  26  42  70 102 130 189 232 281 366 418
#     4  10  23  40  66  94 134 169 226 285 341 416
#     4  10  22  46  62  98 144 174 228 294 338 418
#     4  12  28  36  70 104 130 188 224 286 356 412
#     4  10  20  46  68  86 137 179 220 276 348 418
#     4  10  23  41  64 101 125 179 223 280 356 409
#     4  12  22  49  67  96 140 179 235 286 352 428
#     4  11  24  44  65  97 132 176 229 280 344 421
#
# _framework density 20.552451999999999
#
# number of rings (size 3 to 8) (size 9 to 14) (size 15 to 20)
#    0.000    1.391    5.217    1.043    4.870    7.652 
#    0.000    0.000    0.000    0.000    0.000    0.000 
#    0.000    0.000    0.000    0.000    0.000    0.000 
#
# Total GULP energy -569925.176370 kJ/mol
# GULP energy per Si atom -12389.677747 kJ/mol
# Density = 2.050567 g / cm^3
# Si number density = 20.552452 Si / 1000 Ang^3
#
#
#
# Elastic Constant Matrix: (Units=GPa)
#
#
# Indices 1 2 3 4 5 6 
#
# 1 58.4530 60.1283 40.7400 0.0000 0.0000 0.0000
# 2 60.1283 147.6976 74.4112 0.0000 0.0000 0.0000
# 3 40.7400 74.4112 152.6259 0.0000 0.0000 0.0000
# 4 0.0000 0.0000 0.0000 29.2595 0.0000 0.0000
# 5 0.0000 0.0000 0.0000 0.0000 13.1693 0.0000
# 6 0.0000 0.0000 0.0000 0.0000 0.0000 -60.8157
#
#
#
# Elastic Compliance Matrix: (Units=1/GPa)
#
#
# Indices 1 2 3 4 5 6 
#
# 1 0.030279 -0.010942 -0.002747 0.000000 0.000000 0.000000
# 2 -0.010942 0.012930 -0.003383 0.000000 0.000000 0.000000
# 3 -0.002747 -0.003383 0.008935 0.000000 0.000000 0.000000
# 4 0.000000 0.000000 0.000000 0.034177 0.000000 0.000000
# 5 0.000000 0.000000 0.000000 0.000000 0.075934 0.000000
# 6 0.000000 0.000000 0.000000 0.000000 0.000000 -0.016443
#
#
# Mechanical properties :
#
#
# Convention : Reuss Voigt Hill
#
# Bulk Modulus (GPa) = 55.56301 78.81507 67.18904
# Shear Modulus (GPa) = 26.88816 8.55573 17.72195
#
# Velocity S-wave (km/s) = 3.62093 2.04253 2.93964
# Velocity P-wave (km/s) = 6.67644 6.63280 6.65466
#
# Compressibility (1/GPa) = 0.01799759
#
# Stress axis : x y z
#
# Youngs Moduli (GPa) = 33.02660 77.34176 111.92460
#
# Poissons Ratio (x) = 0.84631 0.30749
# Poissons Ratio (y) = 0.36139 0.37863
# Poissons Ratio (z) = 0.09073 0.26164
#
# Static dielectric constant tensor:
#      x y z
#    x 3.566590 0.000000 0.000000 
#    y 0.000000 4.828580 0.000000 
#    z 0.000000 0.000000 43.642760 
# 
# 
# High freq. dielectric constant tensor:
#      x y z
#    x 1.789420 0.000000 0.000000 
#    y 0.000000 1.824700 0.000000 
#    z 0.000000 0.000000 1.812560 
# 
# From -- ./inp_files/36358.got.cif
#   From: 2010.03.12/outbox.cif.g09.slc.cpg/sg68_19_cif.got.tgz:36358.got - 2010.04.10 23:14:56.
