data_PCOD8282127
_publ_section_title
;
Structure prediction by ZEFSAII (Michael W. Deem and Ramdas Pophale) SiO2 
 PCOD8282127
Probable space group: C C C A
;
_chemical_formula_sum "Si O2"
_cell_formula_units_Z 80
_cell_length_a 12.517561
_cell_length_b 12.874794
_cell_length_c 22.932048
_cell_angle_alpha 90.000000
_cell_angle_beta 90.000000
_cell_angle_gamma 90.000000
_cell_volume 3695.752229
_symmetry_space_group_name_H-M "C C C A"
_symmetry_group_IT_number 68
_space_group.IT_coordinate_system_code '2'
_symmetry_cell_setting 'orthorhombic'
loop_
_space_group_symop_operation_xyz
x,y,z
-x,1/2-y,z
x,1/2-y,1/2-z
-x,y,1/2-z
-x,-y,-z
x,1/2+y,-z
-x,1/2+y,1/2+z
x,-y,1/2+z
1/2+x,1/2+y,z
1/2-x,-y,z
1/2+x,-y,1/2-z
1/2-x,1/2+y,1/2-z
1/2-x,1/2-y,-z
1/2+x,y,-z
1/2-x,y,1/2+z
1/2+x,1/2-y,1/2+z
loop_
_atom_site_type_symbol
_atom_site_label
_atom_site_fract_x
_atom_site_fract_y
_atom_site_fract_z
Si Si1 0.619524 0.865225 0.996732
Si Si2 0.211931 0.665253 0.198516
Si Si3 0.924056 0.963987 0.699650
Si Si4 0.668808 0.665383 0.931656
Si Si5 0.505048 0.490348 0.578513
O O1 0.725982 0.871671 0.034611
O O2 0.517745 0.888420 0.038802
O O3 0.606995 0.753456 0.967369
O O4 0.612860 0.952538 0.944465
O O5 0.203497 0.750000 0.250000
O O6 0.123018 0.578260 0.212041
O O7 0.329541 0.617973 0.194192
O O8 0.191537 0.710777 0.133533
O O9 0.000000 0.925443 0.750000
O O10 0.007370 0.959575 0.645699
O O11 0.597554 0.564285 0.928440
#
# Coordination Sequence:
#
# PCOD8282127 Si02
#       5
#    16  16  16  16  16
#     4  10  20  34  62  90 118 154 194 242 308 366
#     4  10  22  41  64  87 121 164 207 257 308 360
#     4  10  22  41  64  87 121 164 207 257 308 360
#     4  10  20  38  60  87 123 156 200 250 305 359
#     4  10  20  38  60  87 123 156 200 250 305 359
#
# _framework density 21.646473
#
# number of rings (size 3 to 8) (size 9 to 14) (size 15 to 20)
#    0.000    2.000    2.000    1.200    2.800    0.800 
#    0.000   12.000    0.000    0.000    0.000    0.000 
#    0.000    0.000    0.000    0.000    0.000    0.000 
#
# Total GULP energy -495692.236033 kJ/mol
# GULP energy per Si atom -12392.305901 kJ/mol
# Density = 2.159720 g / cm^3
# Si number density = 21.646473 Si / 1000 Ang^3
#
#
#
# Elastic Constant Matrix: (Units=GPa)
#
#
# Indices 1 2 3 4 5 6 
#
# 1 47.0380 9.4497 34.8605 0.0000 0.0000 0.0000
# 2 9.4497 82.4396 45.5977 0.0000 0.0000 0.0000
# 3 34.8605 45.5977 169.7909 0.0000 0.0000 0.0000
# 4 0.0000 0.0000 0.0000 33.5246 0.0000 0.0000
# 5 0.0000 0.0000 0.0000 0.0000 29.2048 0.0000
# 6 0.0000 0.0000 0.0000 0.0000 0.0000 22.1933
#
#
#
# Elastic Compliance Matrix: (Units=1/GPa)
#
#
# Indices 1 2 3 4 5 6 
#
# 1 0.025075 -0.000031 -0.005140 0.000000 0.000000 0.000000
# 2 -0.000031 0.014246 -0.003819 0.000000 0.000000 0.000000
# 3 -0.005140 -0.003819 0.007971 0.000000 0.000000 0.000000
# 4 0.000000 0.000000 0.000000 0.029829 0.000000 0.000000
# 5 0.000000 0.000000 0.000000 0.000000 0.034241 0.000000
# 6 0.000000 0.000000 0.000000 0.000000 0.000000 0.045059
#
#
# Mechanical properties :
#
#
# Convention : Reuss Voigt Hill
#
# Bulk Modulus (GPa) = 34.11748 53.23158 43.67453
# Shear Modulus (GPa) = 27.14861 30.94191 29.04526
#
# Velocity S-wave (km/s) = 3.54528 3.78487 3.66703
# Velocity P-wave (km/s) = 5.70563 6.61400 6.17654
#
# Compressibility (1/GPa) = 0.02931049
#
# Stress axis : x y z
#
# Youngs Moduli (GPa) = 39.88055 70.19406 125.46137
#
# Poissons Ratio (x) = 0.00220 0.64485
# Poissons Ratio (y) = 0.00125 0.47919
# Poissons Ratio (z) = 0.20498 0.26810
#
# Static dielectric constant tensor:
#      x y z
#    x 3.804160 0.000000 0.000000 
#    y 0.000000 3.802210 0.000000 
#    z 0.000000 0.000000 4.322040 
# 
# 
# High freq. dielectric constant tensor:
#      x y z
#    x 1.839480 0.000000 0.000000 
#    y 0.000000 1.838990 0.000000 
#    z 0.000000 0.000000 1.866670 
# 
# From -- ./inp_files/44098.got.cif
#   From: 2010.03.12/outbox.cif.g09.slc.cpg/sg68_23_cif.got.tgz:44098.got - 2010.04.10 23:14:56.
