data_PCOD8282331
_publ_section_title
;
Structure prediction by ZEFSAII (Michael W. Deem and Ramdas Pophale) SiO2 
 PCOD8282331
Probable space group: C C C A
;
_chemical_formula_sum "Si O2"
_cell_formula_units_Z 116
_cell_length_a 11.183301
_cell_length_b 28.775411
_cell_length_c 18.395228
_cell_angle_alpha 90.000000
_cell_angle_beta 90.000000
_cell_angle_gamma 90.000000
_cell_volume 5919.659471
_symmetry_space_group_name_H-M "C C C A"
_symmetry_group_IT_number 68
_space_group.IT_coordinate_system_code '2'
_symmetry_cell_setting 'orthorhombic'
loop_
_space_group_symop_operation_xyz
x,y,z
-x,1/2-y,z
x,1/2-y,1/2-z
-x,y,1/2-z
-x,-y,-z
x,1/2+y,-z
-x,1/2+y,1/2+z
x,-y,1/2+z
1/2+x,1/2+y,z
1/2-x,-y,z
1/2+x,-y,1/2-z
1/2-x,1/2+y,1/2-z
1/2-x,1/2-y,-z
1/2+x,y,-z
1/2-x,y,1/2+z
1/2+x,1/2-y,1/2+z
loop_
_atom_site_type_symbol
_atom_site_label
_atom_site_fract_x
_atom_site_fract_y
_atom_site_fract_z
Si Si1 0.988436 0.108288 0.414404
Si Si2 0.756431 0.945121 0.945839
Si Si3 0.320203 0.316349 0.320927
Si Si4 0.724913 0.553666 0.390956
Si Si5 0.943064 0.877521 0.424207
Si Si6 0.449997 0.202351 0.670135
Si Si7 0.109403 0.608357 0.205265
Si Si8 0.000000 0.250000 0.750000
O O1 0.864586 0.080191 0.403777
O O2 0.991583 0.155005 0.367797
O O3 0.088089 0.071025 0.389039
O O4 0.008844 0.128099 0.494971
O O5 0.627977 0.926609 0.918170
O O6 0.750000 0.000000 0.931889
O O7 0.779136 0.932154 0.030653
O O8 0.346769 0.338458 0.400367
O O9 0.192249 0.292672 0.326186
O O10 0.326834 0.353216 0.254775
O O11 0.419502 0.278468 0.305320
O O12 0.750000 0.500000 0.382331
O O13 0.789312 0.573292 0.319663
O O14 0.053309 0.871507 0.368952
O O15 0.500000 0.250000 0.632345
O O16 0.500000 0.199407 0.750000
O O17 0.000000 0.584436 0.250000
#
# Coordination Sequence:
#
# PCOD8282331 Si02
#       8
#    16  16  16  16  16  16  16   4
#     4  11  22  40  66  92 128 164 206 264 314 367
#     4  10  21  35  64  94 125 167 203 249 311 376
#     4  11  22  40  63  87 121 160 204 256 313 378
#     4  10  22  36  60  94 126 165 209 252 309 373
#     4  10  20  39  62  91 126 155 205 253 311 369
#     4  11  24  45  65  88 120 166 210 256 315 383
#     4  10  20  39  59  83 124 167 201 252 308 357
#     4  12  20  36  62  96 108 160 206 246 320 372
#
# _framework density 19.595721999999999
#
# number of rings (size 3 to 8) (size 9 to 14) (size 15 to 20)
#    0.000    1.517    4.828    1.655    1.931    1.655 
#    1.241    5.517    0.000    0.000    0.000    0.000 
#    0.000    0.000    0.000    0.000    0.000    0.000 
#
# Total GULP energy -718732.125854 kJ/mol
# GULP energy per Si atom -12391.933204 kJ/mol
# Density = 1.955112 g / cm^3
# Si number density = 19.595722 Si / 1000 Ang^3
#
#
#
# Elastic Constant Matrix: (Units=GPa)
#
#
# Indices 1 2 3 4 5 6 
#
# 1 96.3773 43.0190 22.1241 0.0000 0.0000 0.0000
# 2 43.0190 126.0808 33.7842 0.0000 0.0000 0.0000
# 3 22.1241 33.7842 63.0091 0.0000 0.0000 0.0000
# 4 0.0000 0.0000 0.0000 49.3597 0.0000 0.0000
# 5 0.0000 0.0000 0.0000 0.0000 29.1830 0.0000
# 6 0.0000 0.0000 0.0000 0.0000 0.0000 42.1296
#
#
#
# Elastic Compliance Matrix: (Units=1/GPa)
#
#
# Indices 1 2 3 4 5 6 
#
# 1 0.012560 -0.003625 -0.002467 0.000000 0.000000 0.000000
# 2 -0.003625 0.010308 -0.004254 0.000000 0.000000 0.000000
# 3 -0.002467 -0.004254 0.019018 0.000000 0.000000 0.000000
# 4 0.000000 0.000000 0.000000 0.020259 0.000000 0.000000
# 5 0.000000 0.000000 0.000000 0.000000 0.034267 0.000000
# 6 0.000000 0.000000 0.000000 0.000000 0.000000 0.023736
#
#
# Mechanical properties :
#
#
# Convention : Reuss Voigt Hill
#
# Bulk Modulus (GPa) = 47.18124 53.70240 50.44182
# Shear Modulus (GPa) = 33.80563 36.57046 35.18805
#
# Velocity S-wave (km/s) = 4.15800 4.32470 4.24217
# Velocity P-wave (km/s) = 6.86888 7.23892 7.05633
#
# Compressibility (1/GPa) = 0.02119487
#
# Stress axis : x y z
#
# Youngs Moduli (GPa) = 79.61795 97.01120 52.58190
#
# Poissons Ratio (x) = 0.35162 0.12971
# Poissons Ratio (y) = 0.28858 0.22370
# Poissons Ratio (z) = 0.19640 0.41272
#
# Static dielectric constant tensor:
#      x y z
#    x 3.589280 0.000000 0.000000 
#    y 0.000000 3.734850 0.000000 
#    z 0.000000 0.000000 3.795710 
# 
# 
# High freq. dielectric constant tensor:
#      x y z
#    x 1.777530 0.000000 0.000000 
#    y 0.000000 1.756120 0.000000 
#    z 0.000000 0.000000 1.755970 
# 
# From -- ./inp_files/30046.got.cif
#   From: 2010.03.12/outbox.cif.g09.slc.cpg/sg68_16_cif.got.tgz:30046.got - 2010.04.10 23:14:56.
