data_PCOD8282089
_publ_section_title
;
Structure prediction by ZEFSAII (Michael W. Deem and Ramdas Pophale) SiO2 
 PCOD8282089
Probable space group: C C C A
;
_chemical_formula_sum "Si O2"
_cell_formula_units_Z 72
_cell_length_a 10.466727
_cell_length_b 10.466725
_cell_length_c 34.588257
_cell_angle_alpha 90.000000
_cell_angle_beta 90.000000
_cell_angle_gamma 90.000000
_cell_volume 3789.224946
_symmetry_space_group_name_H-M "C C C A"
_symmetry_group_IT_number 68
_space_group.IT_coordinate_system_code '2'
_symmetry_cell_setting 'orthorhombic'
loop_
_space_group_symop_operation_xyz
x,y,z
-x,1/2-y,z
x,1/2-y,1/2-z
-x,y,1/2-z
-x,-y,-z
x,1/2+y,-z
-x,1/2+y,1/2+z
x,-y,1/2+z
1/2+x,1/2+y,z
1/2-x,-y,z
1/2+x,-y,1/2-z
1/2-x,1/2+y,1/2-z
1/2-x,1/2-y,-z
1/2+x,y,-z
1/2-x,y,1/2+z
1/2+x,1/2-y,1/2+z
loop_
_atom_site_type_symbol
_atom_site_label
_atom_site_fract_x
_atom_site_fract_y
_atom_site_fract_z
Si Si1 0.953037 0.991967 0.043464
Si Si2 0.646617 0.603383 0.738838
Si Si3 0.250000 0.500000 0.334592
Si Si4 0.258033 0.296963 0.043464
Si Si5 0.607971 0.857971 0.399928
O O1 0.843554 0.093554 0.049535
O O2 0.059809 0.021224 0.075181
O O3 0.900143 0.849857 0.051183
O O4 0.000000 0.000000 0.000000
O O5 0.680683 0.750000 0.750000
O O6 0.500000 0.569317 0.750000
O O7 0.750000 0.500000 0.757410
O O8 0.659992 0.590008 0.692291
O O9 0.341874 0.591874 0.359171
O O10 0.228777 0.190191 0.075181
O O11 0.250000 0.250000 0.000000
O O12 0.500000 0.750000 0.393106
#
# Coordination Sequence:
#
# PCOD8282089 Si02
#       5
#    16  16   8  16  16
#     4  10  20  33  52  77 111 164 218 261 305 359
#     4   9  21  44  71 103 135 166 216 258 331 431
#     4  10  24  42  70 100 126 168 200 266 342 386
#     4  10  20  33  52  77 111 164 218 261 305 359
#     4  10  22  40  54  86 131 157 211 266 312 373
#
# _framework density 19.001245999999998
#
# number of rings (size 3 to 8) (size 9 to 14) (size 15 to 20)
#    0.667    1.556    2.222    0.000    3.111    2.222 
#    8.000    0.000    0.000    0.000    0.000    0.000 
#    0.000    0.000    0.000    0.000    0.000    0.000 
#
# Total GULP energy -445978.299580 kJ/mol
# GULP energy per Si atom -12388.286099 kJ/mol
# Density = 1.895800 g / cm^3
# Si number density = 19.001246 Si / 1000 Ang^3
#
#
#
# Elastic Constant Matrix: (Units=GPa)
#
#
# Indices 1 2 3 4 5 6 
#
# 1 113.3028 71.9500 58.7103 0.0000 0.0000 0.0000
# 2 71.9500 113.3026 58.7102 0.0000 0.0000 0.0000
# 3 58.7103 58.7102 147.6677 0.0000 0.0000 0.0000
# 4 0.0000 0.0000 0.0000 39.6011 0.0000 0.0000
# 5 0.0000 0.0000 0.0000 0.0000 39.6011 0.0000
# 6 0.0000 0.0000 0.0000 0.0000 0.0000 43.8039
#
#
#
# Elastic Compliance Matrix: (Units=1/GPa)
#
#
# Indices 1 2 3 4 5 6 
#
# 1 0.015699 -0.008483 -0.002869 0.000000 0.000000 0.000000
# 2 -0.008483 0.015699 -0.002869 0.000000 0.000000 0.000000
# 3 -0.002869 -0.002869 0.009053 0.000000 0.000000 0.000000
# 4 0.000000 0.000000 0.000000 0.025252 0.000000 0.000000
# 5 0.000000 0.000000 0.000000 0.000000 0.025252 0.000000
# 6 0.000000 0.000000 0.000000 0.000000 0.000000 0.022829
#
#
# Mechanical properties :
#
#
# Convention : Reuss Voigt Hill
#
# Bulk Modulus (GPa) = 83.26466 83.66822 83.46644
# Shear Modulus (GPa) = 34.19253 36.92804 35.56028
#
# Velocity S-wave (km/s) = 4.24664 4.41324 4.33074
# Velocity P-wave (km/s) = 8.24385 8.37243 8.30839
#
# Compressibility (1/GPa) = 0.01200990
#
# Stress axis : x y z
#
# Youngs Moduli (GPa) = 63.69664 63.69654 110.45477
#
# Poissons Ratio (x) = 0.54032 0.31692
# Poissons Ratio (y) = 0.54032 0.31692
# Poissons Ratio (z) = 0.18276 0.18276
#
# Static dielectric constant tensor:
#      x y z
#    x 3.760370 0.000000 0.000000 
#    y 0.000000 3.760370 0.000000 
#    z 0.000000 0.000000 3.252350 
# 
# 
# High freq. dielectric constant tensor:
#      x y z
#    x 1.747900 0.000000 0.000000 
#    y 0.000000 1.747900 0.000000 
#    z 0.000000 0.000000 1.714230 
# 
# From -- ./inp_files/54473.got.cif
#   From: 2010.03.12/outbox.cif.g09.slc.cpg/sg68_28_cif.got.tgz:54473.got - 2010.04.10 23:14:56.
