data_PCOD8282706
_publ_section_title
;
Structure prediction by ZEFSAII (Michael W. Deem and Ramdas Pophale) SiO2 
 PCOD8282706
Probable space group: C C C A
;
_chemical_formula_sum "Si O2"
_cell_formula_units_Z 64
_cell_length_a 20.812999
_cell_length_b 9.781517
_cell_length_c 15.652886
_cell_angle_alpha 90.000000
_cell_angle_beta 90.000000
_cell_angle_gamma 90.000000
_cell_volume 3186.656850
_symmetry_space_group_name_H-M "C C C A"
_symmetry_group_IT_number 68
_space_group.IT_coordinate_system_code '2'
_symmetry_cell_setting 'orthorhombic'
loop_
_space_group_symop_operation_xyz
x,y,z
-x,1/2-y,z
x,1/2-y,1/2-z
-x,y,1/2-z
-x,-y,-z
x,1/2+y,-z
-x,1/2+y,1/2+z
x,-y,1/2+z
1/2+x,1/2+y,z
1/2-x,-y,z
1/2+x,-y,1/2-z
1/2-x,1/2+y,1/2-z
1/2-x,1/2-y,-z
1/2+x,y,-z
1/2-x,y,1/2+z
1/2+x,1/2-y,1/2+z
loop_
_atom_site_type_symbol
_atom_site_label
_atom_site_fract_x
_atom_site_fract_y
_atom_site_fract_z
Si Si1 0.826673 0.097784 0.453835
Si Si2 0.000000 0.966673 0.250000
Si Si3 0.608638 0.250000 0.250000
Si Si4 0.299579 0.304802 0.405186
Si Si5 0.973771 0.103382 0.428160
O O1 0.776391 0.166550 0.385131
O O2 0.810089 0.163739 0.545242
O O3 0.898207 0.127034 0.426048
O O4 0.819717 0.934538 0.463462
O O5 0.062873 0.877068 0.271273
O O6 0.006732 0.058991 0.166531
O O7 0.655589 0.200283 0.323705
O O8 0.000000 0.250000 0.453397
O O9 0.000000 0.000000 0.500000
#
# Coordination Sequence:
#
# PCOD8282706 Si02
#       5
#    16   8   8  16  16
#     4  10  21  41  63  95 125 167 215 264 322 390
#     4  11  25  42  64  94 136 164 226 272 324 396
#     4  11  22  42  66  94 123 176 216 272 331 380
#     4  10  21  41  67  91 129 166 218 269 320 393
#     4  12  25  42  68  98 133 175 215 272 330 391
#
# _framework density 20.083742999999998
#
# number of rings (size 3 to 8) (size 9 to 14) (size 15 to 20)
#    0.000    1.250    2.500    3.375    3.500    0.000 
#    4.500   10.000    0.000    0.000    0.000    0.000 
#    0.000    0.000    0.000    0.000    0.000    0.000 
#
# Total GULP energy -396561.749816 kJ/mol
# GULP energy per Si atom -12392.554682 kJ/mol
# Density = 2.003803 g / cm^3
# Si number density = 20.083743 Si / 1000 Ang^3
#
#
#
# Elastic Constant Matrix: (Units=GPa)
#
#
# Indices 1 2 3 4 5 6 
#
# 1 192.6402 59.2475 60.4218 0.0000 0.0000 0.0000
# 2 59.2475 147.0731 62.9674 0.0000 0.0000 0.0000
# 3 60.4218 62.9674 102.2201 0.0000 0.0000 0.0000
# 4 0.0000 0.0000 0.0000 31.4723 0.0000 0.0000
# 5 0.0000 0.0000 0.0000 0.0000 43.8788 0.0000
# 6 0.0000 0.0000 0.0000 0.0000 0.0000 28.2552
#
#
#
# Elastic Compliance Matrix: (Units=1/GPa)
#
#
# Indices 1 2 3 4 5 6 
#
# 1 0.006560 -0.001334 -0.003055 0.000000 0.000000 0.000000
# 2 -0.001334 0.009506 -0.005067 0.000000 0.000000 0.000000
# 3 -0.003055 -0.005067 0.014710 0.000000 0.000000 0.000000
# 4 0.000000 0.000000 0.000000 0.031774 0.000000 0.000000
# 5 0.000000 0.000000 0.000000 0.000000 0.022790 0.000000
# 6 0.000000 0.000000 0.000000 0.000000 0.000000 0.035392
#
#
# Mechanical properties :
#
#
# Convention : Reuss Voigt Hill
#
# Bulk Modulus (GPa) = 84.30037 89.68963 86.99500
# Shear Modulus (GPa) = 34.81891 38.00770 36.41331
#
# Velocity S-wave (km/s) = 4.16827 4.35496 4.26264
# Velocity P-wave (km/s) = 8.07661 8.36913 8.22417
#
# Compressibility (1/GPa) = 0.01186234
#
# Stress axis : x y z
#
# Youngs Moduli (GPa) = 152.44423 105.19318 67.98000
#
# Poissons Ratio (x) = 0.14037 0.20771
# Poissons Ratio (y) = 0.20342 0.34446
# Poissons Ratio (z) = 0.46579 0.53303
#
# Static dielectric constant tensor:
#      x y z
#    x 4.125020 0.000000 0.000000 
#    y 0.000000 4.991810 0.000000 
#    z 0.000000 0.000000 3.438030 
# 
# 
# High freq. dielectric constant tensor:
#      x y z
#    x 1.815520 0.000000 0.000000 
#    y 0.000000 1.799190 0.000000 
#    z 0.000000 0.000000 1.756640 
# 
# From -- ./inp_files/25041.got.cif
#   From: 2010.03.12/outbox.cif.g09.slc.cpg/sg68_13_cif.got.tgz:25041.got - 2010.04.10 23:14:56.
