data_PCOD8282281
_publ_section_title
;
Structure prediction by ZEFSAII (Michael W. Deem and Ramdas Pophale) SiO2 
 PCOD8282281
Probable space group: C C C A
;
_chemical_formula_sum "Si O2"
_cell_formula_units_Z 112
_cell_length_a 14.666658
_cell_length_b 24.034723
_cell_length_c 16.819022
_cell_angle_alpha 90.000000
_cell_angle_beta 90.000000
_cell_angle_gamma 90.000000
_cell_volume 5928.857675
_symmetry_space_group_name_H-M "C C C A"
_symmetry_group_IT_number 68
_space_group.IT_coordinate_system_code '2'
_symmetry_cell_setting 'orthorhombic'
loop_
_space_group_symop_operation_xyz
x,y,z
-x,1/2-y,z
x,1/2-y,1/2-z
-x,y,1/2-z
-x,-y,-z
x,1/2+y,-z
-x,1/2+y,1/2+z
x,-y,1/2+z
1/2+x,1/2+y,z
1/2-x,-y,z
1/2+x,-y,1/2-z
1/2-x,1/2+y,1/2-z
1/2-x,1/2-y,-z
1/2+x,y,-z
1/2-x,y,1/2+z
1/2+x,1/2-y,1/2+z
loop_
_atom_site_type_symbol
_atom_site_label
_atom_site_fract_x
_atom_site_fract_y
_atom_site_fract_z
Si Si1 0.923739 0.914724 0.698291
Si Si2 0.397958 0.314842 0.264846
Si Si3 0.156384 0.018029 0.716377
Si Si4 0.388554 0.106443 0.097190
Si Si5 0.725940 0.892857 0.667688
Si Si6 0.719494 0.436450 0.504876
Si Si7 0.513670 0.438471 0.531075
O O1 0.831733 0.879435 0.687960
O O2 0.958964 0.931225 0.611850
O O3 0.000000 0.880847 0.750000
O O4 0.906050 0.968375 0.753705
O O5 0.385814 0.250000 0.250000
O O6 0.500000 0.335125 0.250000
O O7 0.378754 0.334809 0.355784
O O8 0.331990 0.341769 0.200059
O O9 0.094117 0.056811 0.660741
O O10 0.194607 0.049994 0.792797
O O11 0.250000 0.000000 0.668583
O O12 0.291500 0.096497 0.057277
O O13 0.471745 0.104979 0.033915
O O14 0.711003 0.901058 0.575121
O O15 0.750000 0.500000 0.487888
O O16 0.621135 0.431182 0.547364
O O17 0.500000 0.500000 0.500000
#
# Coordination Sequence:
#
# PCOD8282281 Si02
#       7
#    16  16  16  16  16  16  16
#     4  11  22  33  51  83 122 167 202 230 287 370
#     4  10  23  44  69  89 107 144 207 270 314 356
#     4   9  19  32  51  76 116 160 201 235 278 351
#     4  11  22  37  58  87 119 159 201 249 302 355
#     4  10  20  38  58  83 118 156 194 249 305 357
#     4  12  22  35  54  88 133 162 195 234 292 368
#     4  12  22  33  54  83 125 170 199 235 286 364
#
# _framework density 18.890653
#
# number of rings (size 3 to 8) (size 9 to 14) (size 15 to 20)
#    0.000    1.286    2.857    4.286    6.000    3.429 
#    0.000    0.714    0.000    0.429    0.000    0.000 
#    0.000    0.000    0.000    0.000    0.000    0.000 
#
# Total GULP energy -694236.080428 kJ/mol
# GULP energy per Si atom -12397.072865 kJ/mol
# Density = 1.884766 g / cm^3
# Si number density = 18.890653 Si / 1000 Ang^3
#
#
#
# Elastic Constant Matrix: (Units=GPa)
#
#
# Indices 1 2 3 4 5 6 
#
# 1 147.6448 37.9073 38.9239 0.0000 0.0000 0.0000
# 2 37.9073 57.5254 26.6765 0.0000 0.0000 0.0000
# 3 38.9239 26.6765 90.5278 0.0000 0.0000 0.0000
# 4 0.0000 0.0000 0.0000 15.1108 0.0000 0.0000
# 5 0.0000 0.0000 0.0000 0.0000 35.6186 0.0000
# 6 0.0000 0.0000 0.0000 0.0000 0.0000 20.5279
#
#
#
# Elastic Compliance Matrix: (Units=1/GPa)
#
#
# Indices 1 2 3 4 5 6 
#
# 1 0.008559 -0.004556 -0.002338 0.000000 0.000000 0.000000
# 2 -0.004556 0.022560 -0.004689 0.000000 0.000000 0.000000
# 3 -0.002338 -0.004689 0.013433 0.000000 0.000000 0.000000
# 4 0.000000 0.000000 0.000000 0.066178 0.000000 0.000000
# 5 0.000000 0.000000 0.000000 0.000000 0.028075 0.000000
# 6 0.000000 0.000000 0.000000 0.000000 0.000000 0.048714
#
#
# Mechanical properties :
#
#
# Convention : Reuss Voigt Hill
#
# Bulk Modulus (GPa) = 46.75695 55.85706 51.30700
# Shear Modulus (GPa) = 22.95534 27.06414 25.00974
#
# Velocity S-wave (km/s) = 3.48971 3.78917 3.64252
# Velocity P-wave (km/s) = 6.40644 6.98402 6.70146
#
# Compressibility (1/GPa) = 0.02138719
#
# Stress axis : x y z
#
# Youngs Moduli (GPa) = 116.83575 44.32537 74.44267
#
# Poissons Ratio (x) = 0.20195 0.17401
# Poissons Ratio (y) = 0.53232 0.34907
# Poissons Ratio (z) = 0.27310 0.20785
#
# Static dielectric constant tensor:
#      x y z
#    x 3.932450 0.000000 0.000000 
#    y 0.000000 2.959410 0.000000 
#    z 0.000000 0.000000 3.747870 
# 
# 
# High freq. dielectric constant tensor:
#      x y z
#    x 1.761250 0.000000 0.000000 
#    y 0.000000 1.663900 0.000000 
#    z 0.000000 0.000000 1.753900 
# 
# From -- ./inp_files/22624.got.cif
#   From: 2010.03.12/outbox.cif.g09.slc.cpg/sg68_12_cif.got.tgz:22624.got - 2010.04.10 23:14:56.
