data_PCOD8282345
_publ_section_title
;
Structure prediction by ZEFSAII (Michael W. Deem and Ramdas Pophale) SiO2 
 PCOD8282345
Probable space group: C C C A
;
_chemical_formula_sum "Si O2"
_cell_formula_units_Z 112
_cell_length_a 10.540800
_cell_length_b 32.476684
_cell_length_c 13.790553
_cell_angle_alpha 90.000000
_cell_angle_beta 90.000000
_cell_angle_gamma 90.000000
_cell_volume 4720.923190
_symmetry_space_group_name_H-M "C C C A"
_symmetry_group_IT_number 68
_space_group.IT_coordinate_system_code '2'
_symmetry_cell_setting 'orthorhombic'
loop_
_space_group_symop_operation_xyz
x,y,z
-x,1/2-y,z
x,1/2-y,1/2-z
-x,y,1/2-z
-x,-y,-z
x,1/2+y,-z
-x,1/2+y,1/2+z
x,-y,1/2+z
1/2+x,1/2+y,z
1/2-x,-y,z
1/2+x,-y,1/2-z
1/2-x,1/2+y,1/2-z
1/2-x,1/2-y,-z
1/2+x,y,-z
1/2-x,y,1/2+z
1/2+x,1/2-y,1/2+z
loop_
_atom_site_type_symbol
_atom_site_label
_atom_site_fract_x
_atom_site_fract_y
_atom_site_fract_z
Si Si1 0.886792 0.486541 0.175147
Si Si2 0.924527 0.906865 0.943576
Si Si3 0.275947 0.360087 0.345957
Si Si4 0.969712 0.071655 0.863674
Si Si5 0.392562 0.639671 0.172062
Si Si6 0.628858 0.730412 0.619691
Si Si7 0.623992 0.728605 0.395343
O O1 0.750000 0.500000 0.223373
O O2 0.864671 0.446297 0.110504
O O3 0.930270 0.525128 0.109081
O O4 0.000000 0.476847 0.250000
O O5 0.845808 0.864892 0.918181
O O6 0.066595 0.898111 0.899108
O O7 0.921199 0.915371 0.059098
O O8 0.360436 0.396581 0.385397
O O9 0.235844 0.369000 0.233760
O O10 0.353019 0.317733 0.356005
O O11 0.000000 0.074504 0.750000
O O12 0.500000 0.649340 0.250000
O O13 0.374692 0.679653 0.107070
O O14 0.500000 0.750000 0.666435
O O15 0.625940 0.740891 0.507052
O O16 0.752412 0.754052 0.661403
O O17 0.500000 0.750000 0.347111
#
# Coordination Sequence:
#
# PCOD8282345 Si02
#       7
#    16  16  16  16  16  16  16
#     4  11  23  47  76 113 150 188 238 296 352 430
#     4  11  23  45  71  99 141 193 240 291 359 423
#     4  11  23  42  64  98 139 183 241 290 357 432
#     4  11  26  43  66 104 140 184 238 296 354 431
#     4  10  22  38  67  96 125 177 236 289 339 415
#     4  10  23  39  62  93 136 178 221 288 355 416
#     4  10  20  39  63  92 123 174 237 280 338 416
#
# _framework density 23.724174999999999
#
# number of rings (size 3 to 8) (size 9 to 14) (size 15 to 20)
#    0.000    1.429    1.429    4.286    0.000    7.714 
#    2.571    1.429    0.000    0.000    0.000    0.000 
#    0.000    0.000    0.000    0.286    0.000    0.000 
#
# Total GULP energy -693828.956009 kJ/mol
# GULP energy per Si atom -12389.802786 kJ/mol
# Density = 2.367018 g / cm^3
# Si number density = 23.724175 Si / 1000 Ang^3
#
#
#
# Elastic Constant Matrix: (Units=GPa)
#
#
# Indices 1 2 3 4 5 6 
#
# 1 132.1817 42.2953 39.6127 0.0000 0.0000 0.0000
# 2 42.2953 137.0309 33.2764 0.0000 0.0000 0.0000
# 3 39.6127 33.2764 97.7554 0.0000 0.0000 0.0000
# 4 0.0000 0.0000 0.0000 26.5396 0.0000 0.0000
# 5 0.0000 0.0000 0.0000 0.0000 3.3408 0.0000
# 6 0.0000 0.0000 0.0000 0.0000 0.0000 45.1498
#
#
#
# Elastic Compliance Matrix: (Units=1/GPa)
#
#
# Indices 1 2 3 4 5 6 
#
# 1 0.009130 -0.002093 -0.002987 0.000000 0.000000 0.000000
# 2 -0.002093 0.008435 -0.002023 0.000000 0.000000 0.000000
# 3 -0.002987 -0.002023 0.012129 0.000000 0.000000 0.000000
# 4 0.000000 0.000000 0.000000 0.037680 0.000000 0.000000
# 5 0.000000 0.000000 0.000000 0.000000 0.299331 0.000000
# 6 0.000000 0.000000 0.000000 0.000000 0.000000 0.022149
#
#
# Mechanical properties :
#
#
# Convention : Reuss Voigt Hill
#
# Bulk Modulus (GPa) = 64.56895 66.37073 65.46984
# Shear Modulus (GPa) = 12.24823 31.79161 22.01992
#
# Velocity S-wave (km/s) = 2.27464 3.66464 3.04988
# Velocity P-wave (km/s) = 5.84587 6.77812 6.32918
#
# Compressibility (1/GPa) = 0.01548732
#
# Stress axis : x y z
#
# Youngs Moduli (GPa) = 109.52636 118.55566 82.44754
#
# Poissons Ratio (x) = 0.24809 0.24631
# Poissons Ratio (y) = 0.22920 0.16681
# Poissons Ratio (z) = 0.32720 0.23987
#
# Static dielectric constant tensor:
#      x y z
#    x 4.704860 0.000000 0.000000 
#    y 0.000000 4.248600 0.000000 
#    z 0.000000 0.000000 4.096430 
# 
# 
# High freq. dielectric constant tensor:
#      x y z
#    x 1.940260 0.000000 0.000000 
#    y 0.000000 1.943520 0.000000 
#    z 0.000000 0.000000 1.928190 
# 
# From -- ./inp_files/21254.got.cif
#   From: 2010.03.12/outbox.cif.g09.slc.cpg/sg68_11_cif.got.tgz:21254.got - 2010.04.10 23:14:56.
