data_PCOD8282947
_publ_section_title
;
Structure prediction by ZEFSAII (Michael W. Deem and Ramdas Pophale) SiO2 
 PCOD8282947
Probable space group: C C C A
;
_chemical_formula_sum "Si O2"
_cell_formula_units_Z 96
_cell_length_a 18.563241
_cell_length_b 21.971947
_cell_length_c 11.718399
_cell_angle_alpha 90.000000
_cell_angle_beta 90.000000
_cell_angle_gamma 90.000000
_cell_volume 4779.589815
_symmetry_space_group_name_H-M "C C C A"
_symmetry_group_IT_number 68
_space_group.IT_coordinate_system_code '2'
_symmetry_cell_setting 'orthorhombic'
loop_
_space_group_symop_operation_xyz
x,y,z
-x,1/2-y,z
x,1/2-y,1/2-z
-x,y,1/2-z
-x,-y,-z
x,1/2+y,-z
-x,1/2+y,1/2+z
x,-y,1/2+z
1/2+x,1/2+y,z
1/2-x,-y,z
1/2+x,-y,1/2-z
1/2-x,1/2+y,1/2-z
1/2-x,1/2-y,-z
1/2+x,y,-z
1/2-x,y,1/2+z
1/2+x,1/2-y,1/2+z
loop_
_atom_site_type_symbol
_atom_site_label
_atom_site_fract_x
_atom_site_fract_y
_atom_site_fract_z
Si Si1 0.571476 0.816231 0.802731
Si Si2 0.107972 0.394321 0.441153
Si Si3 0.313662 0.876025 0.839613
Si Si4 0.031535 0.684442 0.560798
Si Si5 0.653341 0.878637 0.187228
Si Si6 0.328952 0.502840 0.564832
O O1 0.577838 0.750000 0.750000
O O2 0.500000 0.848394 0.750000
O O3 0.642564 0.852769 0.769353
O O4 0.567896 0.812750 0.937728
O O5 0.150315 0.355297 0.539142
O O6 0.147602 0.390056 0.321108
O O7 0.112182 0.466056 0.479115
O O8 0.027100 0.369395 0.433218
O O9 0.232316 0.850938 0.835784
O O10 0.314622 0.949776 0.830136
O O11 0.093585 0.670329 0.651859
O O12 0.000000 0.750000 0.594292
O O13 0.640611 0.939588 0.112073
O O14 0.250000 0.500000 0.503029
#
# Coordination Sequence:
#
# PCOD8282947 Si02
#       6
#    16  16  16  16  16  16
#     4  11  19  40  69  92 124 171 214 271 323 387
#     4  10  22  42  63  93 134 165 226 258 328 411
#     4   9  21  41  63 100 125 168 218 270 326 391
#     4  12  25  44  66  92 135 179 220 270 339 390
#     4  11  24  40  65  99 131 176 215 271 342 391
#     4   8  19  40  64  95 130 172 207 276 328 388
#
# _framework density 20.085405999999999
#
# number of rings (size 3 to 8) (size 9 to 14) (size 15 to 20)
#    1.000    0.833    3.333    0.500    2.333    5.333 
#    3.000    5.000    0.000    0.000    0.000    0.000 
#    0.000    0.000    0.000    0.000    0.000    0.000 
#
# Total GULP energy -594838.847182 kJ/mol
# GULP energy per Si atom -12392.475983 kJ/mol
# Density = 2.003969 g / cm^3
# Si number density = 20.085406 Si / 1000 Ang^3
#
#
#
# Elastic Constant Matrix: (Units=GPa)
#
#
# Indices 1 2 3 4 5 6 
#
# 1 141.9227 53.9178 30.3458 0.0000 0.0000 0.0000
# 2 53.9178 74.9055 19.2566 0.0000 0.0000 0.0000
# 3 30.3458 19.2566 87.7032 0.0000 0.0000 0.0000
# 4 0.0000 0.0000 0.0000 22.8087 0.0000 0.0000
# 5 0.0000 0.0000 0.0000 0.0000 27.5704 0.0000
# 6 0.0000 0.0000 0.0000 0.0000 0.0000 32.5058
#
#
#
# Elastic Compliance Matrix: (Units=1/GPa)
#
#
# Indices 1 2 3 4 5 6 
#
# 1 0.010017 -0.006698 -0.001995 0.000000 0.000000 0.000000
# 2 -0.006698 0.018627 -0.001772 0.000000 0.000000 0.000000
# 3 -0.001995 -0.001772 0.012482 0.000000 0.000000 0.000000
# 4 0.000000 0.000000 0.000000 0.043843 0.000000 0.000000
# 5 0.000000 0.000000 0.000000 0.000000 0.036271 0.000000
# 6 0.000000 0.000000 0.000000 0.000000 0.000000 0.030764
#
#
# Mechanical properties :
#
#
# Convention : Reuss Voigt Hill
#
# Bulk Modulus (GPa) = 49.51754 56.84131 53.17943
# Shear Modulus (GPa) = 27.82951 29.97773 28.90362
#
# Velocity S-wave (km/s) = 3.72635 3.86750 3.79758
# Velocity P-wave (km/s) = 6.57429 6.95015 6.76483
#
# Compressibility (1/GPa) = 0.02019486
#
# Stress axis : x y z
#
# Youngs Moduli (GPa) = 99.82826 53.68623 80.11732
#
# Poissons Ratio (x) = 0.35956 0.15987
# Poissons Ratio (y) = 0.66860 0.14200
# Poissons Ratio (z) = 0.19920 0.09515
#
# Static dielectric constant tensor:
#      x y z
#    x 3.735620 0.000000 0.000000 
#    y 0.000000 3.288180 0.000000 
#    z 0.000000 0.000000 3.767030 
# 
# 
# High freq. dielectric constant tensor:
#      x y z
#    x 1.787020 0.000000 0.000000 
#    y 0.000000 1.764440 0.000000 
#    z 0.000000 0.000000 1.779900 
# 
# From -- ./inp_files/14631.got.cif
#   From: 2010.03.12/outbox.cif.g09.slc.cpg/sg68_8_cif.got.tgz:14631.got - 2010.04.10 23:14:56.
