data_PCOD8282762
_publ_section_title
;
Structure prediction by ZEFSAII (Michael W. Deem and Ramdas Pophale) SiO2 
 PCOD8282762
Probable space group: C C C A
;
_chemical_formula_sum "Si O2"
_cell_formula_units_Z 96
_cell_length_a 24.270243
_cell_length_b 14.616481
_cell_length_c 14.809384
_cell_angle_alpha 90.000000
_cell_angle_beta 90.000000
_cell_angle_gamma 90.000000
_cell_volume 5253.563008
_symmetry_space_group_name_H-M "C C C A"
_symmetry_group_IT_number 68
_space_group.IT_coordinate_system_code '2'
_symmetry_cell_setting 'orthorhombic'
loop_
_space_group_symop_operation_xyz
x,y,z
-x,1/2-y,z
x,1/2-y,1/2-z
-x,y,1/2-z
-x,-y,-z
x,1/2+y,-z
-x,1/2+y,1/2+z
x,-y,1/2+z
1/2+x,1/2+y,z
1/2-x,-y,z
1/2+x,-y,1/2-z
1/2-x,1/2+y,1/2-z
1/2-x,1/2-y,-z
1/2+x,y,-z
1/2-x,y,1/2+z
1/2+x,1/2-y,1/2+z
loop_
_atom_site_type_symbol
_atom_site_label
_atom_site_fract_x
_atom_site_fract_y
_atom_site_fract_z
Si Si1 0.937757 0.767878 0.513942
Si Si2 0.862933 0.178077 0.174511
Si Si3 0.592087 0.411688 0.425564
Si Si4 0.405350 0.450372 0.430270
Si Si5 0.938366 0.516896 0.759669
Si Si6 0.688833 0.533528 0.444281
O O1 0.897810 0.766354 0.600367
O O2 0.913754 0.695673 0.441549
O O3 0.939873 0.862963 0.461147
O O4 0.000000 0.750000 0.546028
O O5 0.840145 0.250000 0.250000
O O6 0.902683 0.105564 0.220753
O O7 0.813791 0.120088 0.125716
O O8 0.569606 0.462642 0.515800
O O9 0.557033 0.442493 0.339378
O O10 0.654972 0.445894 0.405276
O O11 0.411180 0.465366 0.324708
O O12 0.340928 0.436680 0.461238
O O13 0.000000 0.553666 0.750000
O O14 0.750000 0.500000 0.463303
#
# Coordination Sequence:
#
# PCOD8282762 Si02
#       6
#    16  16  16  16  16  16
#     4  11  21  34  57  83 120 158 187 232 300 345
#     4  10  22  33  56  91 116 142 199 254 276 356
#     4   9  21  37  56  82 118 149 192 246 271 359
#     4   9  21  37  54  83 118 148 200 237 279 355
#     4  11  21  34  57  83 121 159 188 230 295 349
#     4   8  18  41  63  74 113 159 187 243 305 326
#
# _framework density 18.273312000000001
#
# number of rings (size 3 to 8) (size 9 to 14) (size 15 to 20)
#    1.000    1.333    1.667    2.000    4.667    2.000 
#    0.000    8.333    7.333    0.000    0.000    0.000 
#    0.000    0.000    0.000    0.000    0.000    0.000 
#
# Total GULP energy -594725.731131 kJ/mol
# GULP energy per Si atom -12390.119399 kJ/mol
# Density = 1.823172 g / cm^3
# Si number density = 18.273312 Si / 1000 Ang^3
#
#
#
# Elastic Constant Matrix: (Units=GPa)
#
#
# Indices 1 2 3 4 5 6 
#
# 1 77.2014 23.7547 7.6187 0.0000 0.0000 0.0000
# 2 23.7547 75.0074 25.3532 0.0000 0.0000 0.0000
# 3 7.6187 25.3532 85.2913 0.0000 0.0000 0.0000
# 4 0.0000 0.0000 0.0000 28.3766 0.0000 0.0000
# 5 0.0000 0.0000 0.0000 0.0000 7.4398 0.0000
# 6 0.0000 0.0000 0.0000 0.0000 0.0000 21.4028
#
#
#
# Elastic Compliance Matrix: (Units=1/GPa)
#
#
# Indices 1 2 3 4 5 6 
#
# 1 0.014352 -0.004571 0.000077 0.000000 0.000000 0.000000
# 2 -0.004571 0.016277 -0.004430 0.000000 0.000000 0.000000
# 3 0.000077 -0.004430 0.013035 0.000000 0.000000 0.000000
# 4 0.000000 0.000000 0.000000 0.035240 0.000000 0.000000
# 5 0.000000 0.000000 0.000000 0.000000 0.134412 0.000000
# 6 0.000000 0.000000 0.000000 0.000000 0.000000 0.046723
#
#
# Mechanical properties :
#
#
# Convention : Reuss Voigt Hill
#
# Bulk Modulus (GPa) = 38.73766 38.99482 38.86624
# Shear Modulus (GPa) = 17.45243 23.49540 20.47392
#
# Velocity S-wave (km/s) = 3.09379 3.58966 3.35091
# Velocity P-wave (km/s) = 5.83156 6.21023 6.02387
#
# Compressibility (1/GPa) = 0.02581467
#
# Stress axis : x y z
#
# Youngs Moduli (GPa) = 69.67616 61.43578 76.71924
#
# Poissons Ratio (x) = 0.28084 -0.00589
# Poissons Ratio (y) = 0.31851 0.33988
# Poissons Ratio (z) = -0.00535 0.27217
#
# Static dielectric constant tensor:
#      x y z
#    x 3.003040 0.000000 0.000000 
#    y 0.000000 3.339590 0.000000 
#    z 0.000000 0.000000 3.451270 
# 
# 
# High freq. dielectric constant tensor:
#      x y z
#    x 1.677620 0.000000 0.000000 
#    y 0.000000 1.710830 0.000000 
#    z 0.000000 0.000000 1.705950 
# 
# From -- ./inp_files/24475.got.cif
#   From: 2010.03.12/outbox.cif.g09.slc.cpg/sg68_13_cif.got.tgz:24475.got - 2010.04.10 23:14:56.
