data_PCOD8282560
_publ_section_title
;
Structure prediction by ZEFSAII (Michael W. Deem and Ramdas Pophale) SiO2 
 PCOD8282560
Probable space group: C C C A
;
_chemical_formula_sum "Si O2"
_cell_formula_units_Z 88
_cell_length_a 9.331392
_cell_length_b 19.009778
_cell_length_c 22.840342
_cell_angle_alpha 90.000000
_cell_angle_beta 90.000000
_cell_angle_gamma 90.000000
_cell_volume 4051.595514
_symmetry_space_group_name_H-M "C C C A"
_symmetry_group_IT_number 68
_space_group.IT_coordinate_system_code '2'
_symmetry_cell_setting 'orthorhombic'
loop_
_space_group_symop_operation_xyz
x,y,z
-x,1/2-y,z
x,1/2-y,1/2-z
-x,y,1/2-z
-x,-y,-z
x,1/2+y,-z
-x,1/2+y,1/2+z
x,-y,1/2+z
1/2+x,1/2+y,z
1/2-x,-y,z
1/2+x,-y,1/2-z
1/2-x,1/2+y,1/2-z
1/2-x,1/2-y,-z
1/2+x,y,-z
1/2-x,y,1/2+z
1/2+x,1/2-y,1/2+z
loop_
_atom_site_type_symbol
_atom_site_label
_atom_site_fract_x
_atom_site_fract_y
_atom_site_fract_z
Si Si1 0.250000 0.000000 0.082630
Si Si2 0.508017 0.901055 0.957907
Si Si3 0.469301 0.392597 0.908816
Si Si4 0.292796 0.286886 0.191872
Si Si5 0.000000 0.750000 0.853006
Si Si6 0.278353 0.425353 0.138696
Si Si7 0.500000 0.250000 0.406892
O O1 0.156367 0.944206 0.044894
O O2 0.359562 0.950014 0.121020
O O3 0.398838 0.934295 0.911010
O O4 0.526363 0.817867 0.946874
O O5 0.445213 0.908678 0.022688
O O6 0.430904 0.312331 0.892409
O O7 0.634228 0.399759 0.892135
O O8 0.356554 0.250000 0.250000
O O9 0.326936 0.370733 0.189509
O O10 0.360478 0.253625 0.133894
O O11 0.122646 0.277648 0.190151
O O12 0.250000 0.500000 0.169641
#
# Coordination Sequence:
#
# PCOD8282560 Si02
#       7
#     8  16  16  16   8  16   8
#     4  12  22  32  56  88 122 158 204 234 284 338
#     4  11  22  35  58  87 127 165 197 237 286 359
#     4  11  22  35  58  87 127 165 197 237 286 359
#     4  10  21  39  66  84 112 151 200 258 308 353
#     4  10  22  40  60  88 118 158 204 246 298 358
#     4  10  21  38  57  86 122 161 194 235 302 357
#     4  10  22  40  60  88 118 158 204 246 298 358
#
# _framework density 21.719836999999998
#
# number of rings (size 3 to 8) (size 9 to 14) (size 15 to 20)
#    0.000    1.455    1.818    3.818    2.545    0.000 
#    0.000    7.273    8.000    4.364    0.000    0.000 
#    0.000    0.000    0.000    0.000    0.000    0.000 
#
# Total GULP energy -545289.827569 kJ/mol
# GULP energy per Si atom -12392.950627 kJ/mol
# Density = 2.167040 g / cm^3
# Si number density = 21.719837 Si / 1000 Ang^3
#
#
#
# Elastic Constant Matrix: (Units=GPa)
#
#
# Indices 1 2 3 4 5 6 
#
# 1 90.1693 30.6046 10.9712 0.0000 0.0000 0.0000
# 2 30.6046 162.8558 37.1671 0.0000 0.0000 0.0000
# 3 10.9712 37.1671 64.0712 0.0000 0.0000 0.0000
# 4 0.0000 0.0000 0.0000 19.0660 0.0000 0.0000
# 5 0.0000 0.0000 0.0000 0.0000 4.3697 0.0000
# 6 0.0000 0.0000 0.0000 0.0000 0.0000 36.0926
#
#
#
# Elastic Compliance Matrix: (Units=1/GPa)
#
#
# Indices 1 2 3 4 5 6 
#
# 1 0.011886 -0.002039 -0.000852 0.000000 0.000000 0.000000
# 2 -0.002039 0.007427 -0.003959 0.000000 0.000000 0.000000
# 3 -0.000852 -0.003959 0.018050 0.000000 0.000000 0.000000
# 4 0.000000 0.000000 0.000000 0.052449 0.000000 0.000000
# 5 0.000000 0.000000 0.000000 0.000000 0.228850 0.000000
# 6 0.000000 0.000000 0.000000 0.000000 0.000000 0.027706
#
#
# Mechanical properties :
#
#
# Convention : Reuss Voigt Hill
#
# Bulk Modulus (GPa) = 42.26198 52.73135 47.49666
# Shear Modulus (GPa) = 13.58850 27.79589 20.69220
#
# Velocity S-wave (km/s) = 2.50397 3.58124 3.08991
# Velocity P-wave (km/s) = 5.27824 6.43669 5.88603
#
# Compressibility (1/GPa) = 0.02366193
#
# Stress axis : x y z
#
# Youngs Moduli (GPa) = 84.13210 134.64027 55.40059
#
# Poissons Ratio (x) = 0.27455 0.04722
# Poissons Ratio (y) = 0.17156 0.21935
# Poissons Ratio (z) = 0.07172 0.53308
#
# Static dielectric constant tensor:
#      x y z
#    x 4.013900 0.000000 0.000000 
#    y 0.000000 4.847750 0.000000 
#    z 0.000000 0.000000 3.364150 
# 
# 
# High freq. dielectric constant tensor:
#      x y z
#    x 1.871600 0.000000 0.000000 
#    y 0.000000 1.879670 0.000000 
#    z 0.000000 0.000000 1.793610 
# 
# From -- ./inp_files/43178.got.cif
#   From: 2010.03.12/outbox.cif.g09.slc.cpg/sg68_22_cif.got.tgz:43178.got - 2010.04.10 23:14:56.
