data_PCOD8282886
_publ_section_title
;
Structure prediction by ZEFSAII (Michael W. Deem and Ramdas Pophale) SiO2 
 PCOD8282886
Probable space group: C C C A
;
_chemical_formula_sum "Si O2"
_cell_formula_units_Z 92
_cell_length_a 20.817862
_cell_length_b 22.180536
_cell_length_c 8.888387
_cell_angle_alpha 90.000000
_cell_angle_beta 90.000000
_cell_angle_gamma 90.000000
_cell_volume 4104.224586
_symmetry_space_group_name_H-M "C C C A"
_symmetry_group_IT_number 68
_space_group.IT_coordinate_system_code '2'
_symmetry_cell_setting 'orthorhombic'
loop_
_space_group_symop_operation_xyz
x,y,z
-x,1/2-y,z
x,1/2-y,1/2-z
-x,y,1/2-z
-x,-y,-z
x,1/2+y,-z
-x,1/2+y,1/2+z
x,-y,1/2+z
1/2+x,1/2+y,z
1/2-x,-y,z
1/2+x,-y,1/2-z
1/2-x,1/2+y,1/2-z
1/2-x,1/2-y,-z
1/2+x,y,-z
1/2-x,y,1/2+z
1/2+x,1/2-y,1/2+z
loop_
_atom_site_type_symbol
_atom_site_label
_atom_site_fract_x
_atom_site_fract_y
_atom_site_fract_z
Si Si1 0.000000 0.250000 0.250000
Si Si2 0.447541 0.072928 0.966918
Si Si3 0.607809 0.804501 0.038365
Si Si4 0.421989 0.456402 0.865274
Si Si5 0.263447 0.149579 0.844945
Si Si6 0.218148 0.064854 0.089050
Si Si7 0.664755 0.250000 0.250000
O O1 0.047394 0.287719 0.142935
O O2 0.410619 0.130758 0.030461
O O3 0.522333 0.087333 0.929856
O O4 0.413632 0.049572 0.813810
O O5 0.442526 0.024798 0.100280
O O6 0.671570 0.810603 0.141908
O O7 0.620409 0.759634 0.898223
O O8 0.356731 0.440550 0.950680
O O9 0.272192 0.085892 0.759726
O O10 0.208356 0.191372 0.775081
O O11 0.244859 0.124169 0.006990
O O12 0.250000 0.000000 0.058387
#
# Coordination Sequence:
#
# PCOD8282886 Si02
#       7
#     4  16  16  16  16  16   8
#     4  12  30  46  84  96 142 186 256 298 356 440
#     4  10  22  42  67  99 138 187 228 298 356 429
#     4  12  26  49  70 106 139 194 251 299 362 436
#     4  10  22  40  67 101 140 180 235 282 370 436
#     4  12  26  47  73 105 150 191 243 308 367 442
#     4  12  26  42  72 111 144 193 239 306 374 438
#     4  12  29  47  74 105 149 196 250 302 376 420
#
# _framework density 22.415928000000001
#
# number of rings (size 3 to 8) (size 9 to 14) (size 15 to 20)
#    0.000    0.696    3.478    3.652    4.870    0.348 
#    0.000    5.217    0.000    0.000    0.000    0.000 
#    0.000    0.000    0.000    0.000    0.000    0.000 
#
# Total GULP energy -570270.028493 kJ/mol
# GULP energy per Si atom -12397.174532 kJ/mol
# Density = 2.236491 g / cm^3
# Si number density = 22.415928 Si / 1000 Ang^3
#
#
#
# Elastic Constant Matrix: (Units=GPa)
#
#
# Indices 1 2 3 4 5 6 
#
# 1 153.7963 42.2434 44.8337 0.0000 0.0000 0.0000
# 2 42.2434 92.8230 37.3112 0.0000 0.0000 0.0000
# 3 44.8337 37.3112 71.5253 0.0000 0.0000 0.0000
# 4 0.0000 0.0000 0.0000 43.3328 0.0000 0.0000
# 5 0.0000 0.0000 0.0000 0.0000 28.8675 0.0000
# 6 0.0000 0.0000 0.0000 0.0000 0.0000 32.6823
#
#
#
# Elastic Compliance Matrix: (Units=1/GPa)
#
#
# Indices 1 2 3 4 5 6 
#
# 1 0.008275 -0.002127 -0.004077 0.000000 0.000000 0.000000
# 2 -0.002127 0.014178 -0.006063 0.000000 0.000000 0.000000
# 3 -0.004077 -0.006063 0.019700 0.000000 0.000000 0.000000
# 4 0.000000 0.000000 0.000000 0.023077 0.000000 0.000000
# 5 0.000000 0.000000 0.000000 0.000000 0.034641 0.000000
# 6 0.000000 0.000000 0.000000 0.000000 0.000000 0.030598
#
#
# Mechanical properties :
#
#
# Convention : Reuss Voigt Hill
#
# Bulk Modulus (GPa) = 56.75912 62.99124 59.87518
# Shear Modulus (GPa) = 31.07989 33.89360 32.48675
#
# Velocity S-wave (km/s) = 3.72763 3.89270 3.81106
# Velocity P-wave (km/s) = 6.62592 6.95459 6.79224
#
# Compressibility (1/GPa) = 0.01761831
#
# Stress axis : x y z
#
# Youngs Moduli (GPa) = 120.84691 70.53092 50.76255
#
# Poissons Ratio (x) = 0.15001 0.20698
# Poissons Ratio (y) = 0.25703 0.30777
# Poissons Ratio (z) = 0.49274 0.42762
#
# Static dielectric constant tensor:
#      x y z
#    x 4.262510 0.000000 0.000000 
#    y 0.000000 3.870940 0.000000 
#    z 0.000000 0.000000 3.896540 
# 
# 
# High freq. dielectric constant tensor:
#      x y z
#    x 1.898040 0.000000 0.000000 
#    y 0.000000 1.879440 0.000000 
#    z 0.000000 0.000000 1.877270 
# 
# From -- ./inp_files/7177.got.cif
#   From: 2010.03.12/outbox.cif.g09.slc.cpg/sg68_4_cif.got.tgz:7177.got - 2010.04.10 23:14:56.
