data_PCOD8282442
_publ_section_title
;
Structure prediction by ZEFSAII (Michael W. Deem and Ramdas Pophale) SiO2 
 PCOD8282442
Probable space group: C C C A
;
_chemical_formula_sum "Si O2"
_cell_formula_units_Z 72
_cell_length_a 27.423567
_cell_length_b 8.066380
_cell_length_c 14.186846
_cell_angle_alpha 90.000000
_cell_angle_beta 90.000000
_cell_angle_gamma 90.000000
_cell_volume 3138.256774
_symmetry_space_group_name_H-M "C C C A"
_symmetry_group_IT_number 68
_space_group.IT_coordinate_system_code '2'
_symmetry_cell_setting 'orthorhombic'
loop_
_space_group_symop_operation_xyz
x,y,z
-x,1/2-y,z
x,1/2-y,1/2-z
-x,y,1/2-z
-x,-y,-z
x,1/2+y,-z
-x,1/2+y,1/2+z
x,-y,1/2+z
1/2+x,1/2+y,z
1/2-x,-y,z
1/2+x,-y,1/2-z
1/2-x,1/2+y,1/2-z
1/2-x,1/2-y,-z
1/2+x,y,-z
1/2-x,y,1/2+z
1/2+x,1/2-y,1/2+z
loop_
_atom_site_type_symbol
_atom_site_label
_atom_site_fract_x
_atom_site_fract_y
_atom_site_fract_z
Si Si1 0.500000 0.750000 0.250000
Si Si2 0.571801 0.503936 0.304342
Si Si3 0.362942 0.489874 0.366536
Si Si4 0.294598 0.250000 0.250000
Si Si5 0.250000 0.500000 0.613881
Si Si6 0.849524 0.361158 0.438639
Si Si7 0.500000 0.750000 0.750000
O O1 0.534711 0.652894 0.321874
O O2 0.588035 0.507534 0.194138
O O3 0.618328 0.518555 0.371913
O O4 0.537019 0.346172 0.319971
O O5 0.325000 0.398172 0.297835
O O6 0.345993 0.674299 0.399125
O O7 0.372199 0.370676 0.456569
O O8 0.260277 0.336150 0.174027
O O9 0.203584 0.552691 0.551122
#
# Coordination Sequence:
#
# PCOD8282442 Si02
#       7
#     4  16  16   8   8  16   4
#     4  10  20  44  78  96 136 196 238 298 390 412
#     4  11  23  49  72 107 146 191 240 309 365 437
#     4  12  26  47  75 104 151 194 239 307 359 432
#     4  12  25  43  74 103 144 199 245 291 360 424
#     4  12  26  44  72 110 146 204 242 298 352 440
#     4  12  27  46  73 109 153 193 247 298 363 427
#     4  10  26  42  86 104 140 192 248 300 378 440
#
# _framework density 22.942672999999999
#
# number of rings (size 3 to 8) (size 9 to 14) (size 15 to 20)
#    0.000    0.444    4.444    3.333    3.111    4.444 
#    0.000    6.667    0.000    0.000    0.000    0.000 
#    0.000    0.000    0.000    0.000    0.000    0.000 
#
# Total GULP energy -446119.338658 kJ/mol
# GULP energy per Si atom -12392.203852 kJ/mol
# Density = 2.289045 g / cm^3
# Si number density = 22.942673 Si / 1000 Ang^3
#
#
#
# Elastic Constant Matrix: (Units=GPa)
#
#
# Indices 1 2 3 4 5 6 
#
# 1 131.2186 53.2392 44.1412 0.0000 0.0000 0.0000
# 2 53.2392 123.8563 26.7978 0.0000 0.0000 0.0000
# 3 44.1412 26.7978 115.8794 0.0000 0.0000 0.0000
# 4 0.0000 0.0000 0.0000 37.6606 0.0000 0.0000
# 5 0.0000 0.0000 0.0000 0.0000 3.7813 0.0000
# 6 0.0000 0.0000 0.0000 0.0000 0.0000 70.4692
#
#
#
# Elastic Compliance Matrix: (Units=1/GPa)
#
#
# Indices 1 2 3 4 5 6 
#
# 1 0.010135 -0.003707 -0.003004 0.000000 0.000000 0.000000
# 2 -0.003707 0.009855 -0.000867 0.000000 0.000000 0.000000
# 3 -0.003004 -0.000867 0.009974 0.000000 0.000000 0.000000
# 4 0.000000 0.000000 0.000000 0.026553 0.000000 0.000000
# 5 0.000000 0.000000 0.000000 0.000000 0.264463 0.000000
# 6 0.000000 0.000000 0.000000 0.000000 0.000000 0.014191
#
#
# Mechanical properties :
#
#
# Convention : Reuss Voigt Hill
#
# Bulk Modulus (GPa) = 67.52316 68.81232 68.16774
# Shear Modulus (GPa) = 14.07415 38.83395 26.45405
#
# Velocity S-wave (km/s) = 2.47948 4.11865 3.39934
# Velocity P-wave (km/s) = 6.13940 7.25782 6.72191
#
# Compressibility (1/GPa) = 0.01480973
#
# Stress axis : x y z
#
# Youngs Moduli (GPa) = 98.66639 101.47363 100.25793
#
# Poissons Ratio (x) = 0.37613 0.30113
# Poissons Ratio (y) = 0.36573 0.08692
# Poissons Ratio (z) = 0.29635 0.08798
#
# Static dielectric constant tensor:
#      x y z
#    x 4.249200 0.000000 0.000000 
#    y 0.000000 4.462180 0.000000 
#    z 0.000000 0.000000 3.938630 
# 
# 
# High freq. dielectric constant tensor:
#      x y z
#    x 1.914670 0.000000 0.000000 
#    y 0.000000 1.930830 0.000000 
#    z 0.000000 0.000000 1.879070 
# 
# From -- ./inp_files/25887.got.cif
#   From: 2010.03.12/outbox.cif.g09.slc.cpg/sg68_13_cif.got.tgz:25887.got - 2010.04.10 23:14:56.
