data_PCOD8282459
_publ_section_title
;
Structure prediction by ZEFSAII (Michael W. Deem and Ramdas Pophale) SiO2 
 PCOD8282459
Probable space group: C C C A
;
_chemical_formula_sum "Si O2"
_cell_formula_units_Z 116
_cell_length_a 21.377308
_cell_length_b 28.199614
_cell_length_c 9.806379
_cell_angle_alpha 90.000000
_cell_angle_beta 90.000000
_cell_angle_gamma 90.000000
_cell_volume 5911.597437
_symmetry_space_group_name_H-M "C C C A"
_symmetry_group_IT_number 68
_space_group.IT_coordinate_system_code '2'
_symmetry_cell_setting 'orthorhombic'
loop_
_space_group_symop_operation_xyz
x,y,z
-x,1/2-y,z
x,1/2-y,1/2-z
-x,y,1/2-z
-x,-y,-z
x,1/2+y,-z
-x,1/2+y,1/2+z
x,-y,1/2+z
1/2+x,1/2+y,z
1/2-x,-y,z
1/2+x,-y,1/2-z
1/2-x,1/2+y,1/2-z
1/2-x,1/2-y,-z
1/2+x,y,-z
1/2-x,y,1/2+z
1/2+x,1/2-y,1/2+z
loop_
_atom_site_type_symbol
_atom_site_label
_atom_site_fract_x
_atom_site_fract_y
_atom_site_fract_z
Si Si1 0.649950 0.712253 0.635899
Si Si2 0.595423 0.711585 0.044329
Si Si3 0.000000 0.750000 0.750000
Si Si4 0.569542 0.857726 0.697671
Si Si5 0.181415 0.022568 0.496337
Si Si6 0.244552 0.606660 0.629789
Si Si7 0.721257 0.332901 0.614050
Si Si8 0.857478 0.049522 0.718654
O O1 0.667956 0.750000 0.750000
O O2 0.602723 0.737570 0.530579
O O3 0.616392 0.666011 0.694645
O O4 0.715619 0.695267 0.573843
O O5 0.542754 0.715691 0.158865
O O6 0.662490 0.701705 0.110780
O O7 0.575030 0.668732 0.946417
O O8 0.500000 0.851926 0.750000
O O9 0.587041 0.913206 0.688573
O O10 0.188190 0.074850 0.429473
O O11 0.139206 0.025988 0.631961
O O12 0.250000 0.000000 0.525270
O O13 0.139662 0.990851 0.395831
O O14 0.285154 0.627827 0.504691
O O15 0.219649 0.646431 0.733087
O O16 0.290043 0.574233 0.718511
#
# Coordination Sequence:
#
# PCOD8282459 Si02
#       8
#    16  16   4  16  16  16  16  16
#     4  10  21  39  64  94 119 162 212 261 316 368
#     4  11  25  41  61  89 127 170 210 266 308 382
#     4  12  28  44  54  88 132 172 218 246 324 368
#     4  11  22  43  68  85 120 168 222 254 302 375
#     4  10  21  34  62  90 131 159 197 252 324 377
#     4  11  20  36  59  95 127 160 198 254 316 378
#     4  12  22  37  64  96 132 157 208 264 323 366
#     4  11  21  39  58  93 120 163 204 255 307 382
#
# _framework density 19.622446
#
# number of rings (size 3 to 8) (size 9 to 14) (size 15 to 20)
#    0.000    1.103    4.138    3.310    4.828    1.931 
#    2.483    0.690    0.000    0.000    0.000    0.000 
#    0.000    0.000    0.000    0.000    0.000    0.000 
#
# Total GULP energy -719356.384239 kJ/mol
# GULP energy per Si atom -12402.696280 kJ/mol
# Density = 1.957778 g / cm^3
# Si number density = 19.622446 Si / 1000 Ang^3
#
#
#
# Elastic Constant Matrix: (Units=GPa)
#
#
# Indices 1 2 3 4 5 6 
#
# 1 88.9576 27.9520 45.5640 0.0000 0.0000 0.0000
# 2 27.9520 87.3606 49.9137 0.0000 0.0000 0.0000
# 3 45.5640 49.9137 126.2644 0.0000 0.0000 0.0000
# 4 0.0000 0.0000 0.0000 15.9320 0.0000 0.0000
# 5 0.0000 0.0000 0.0000 0.0000 25.0969 0.0000
# 6 0.0000 0.0000 0.0000 0.0000 0.0000 22.0588
#
#
#
# Elastic Compliance Matrix: (Units=1/GPa)
#
#
# Indices 1 2 3 4 5 6 
#
# 1 0.014074 -0.002069 -0.004261 0.000000 0.000000 0.000000
# 2 -0.002069 0.015091 -0.005219 0.000000 0.000000 0.000000
# 3 -0.004261 -0.005219 0.011521 0.000000 0.000000 0.000000
# 4 0.000000 0.000000 0.000000 0.062767 0.000000 0.000000
# 5 0.000000 0.000000 0.000000 0.000000 0.039846 0.000000
# 6 0.000000 0.000000 0.000000 0.000000 0.000000 0.045333
#
#
# Mechanical properties :
#
#
# Convention : Reuss Voigt Hill
#
# Bulk Modulus (GPa) = 56.85719 61.04912 58.95315
# Shear Modulus (GPa) = 22.97897 24.56107 23.77002
#
# Velocity S-wave (km/s) = 3.42578 3.54175 3.48425
# Velocity P-wave (km/s) = 6.68479 6.92133 6.80409
#
# Compressibility (1/GPa) = 0.01758793
#
# Stress axis : x y z
#
# Youngs Moduli (GPa) = 71.05431 66.26661 86.80073
#
# Poissons Ratio (x) = 0.13707 0.36985
# Poissons Ratio (y) = 0.14698 0.45301
# Poissons Ratio (z) = 0.30276 0.34585
#
# Static dielectric constant tensor:
#      x y z
#    x 3.279050 0.000000 0.000000 
#    y 0.000000 3.717120 0.000000 
#    z 0.000000 0.000000 3.716690 
# 
# 
# High freq. dielectric constant tensor:
#      x y z
#    x 1.733130 0.000000 0.000000 
#    y 0.000000 1.769140 0.000000 
#    z 0.000000 0.000000 1.774440 
# 
# From -- ./inp_files/8342.got.cif
#   From: 2010.03.12/outbox.cif.g09.slc.cpg/sg68_5_cif.got.tgz:8342.got - 2010.04.10 23:14:56.
