data_PCOD8282032
_publ_section_title
;
Structure prediction by ZEFSAII (Michael W. Deem and Ramdas Pophale) SiO2 
 PCOD8282032
Probable space group: C C C A
;
_chemical_formula_sum "Si O2"
_cell_formula_units_Z 104
_cell_length_a 8.733483
_cell_length_b 20.281665
_cell_length_c 27.744087
_cell_angle_alpha 90.000000
_cell_angle_beta 90.000000
_cell_angle_gamma 90.000000
_cell_volume 4914.298380
_symmetry_space_group_name_H-M "C C C A"
_symmetry_group_IT_number 68
_space_group.IT_coordinate_system_code '2'
_symmetry_cell_setting 'orthorhombic'
loop_
_space_group_symop_operation_xyz
x,y,z
-x,1/2-y,z
x,1/2-y,1/2-z
-x,y,1/2-z
-x,-y,-z
x,1/2+y,-z
-x,1/2+y,1/2+z
x,-y,1/2+z
1/2+x,1/2+y,z
1/2-x,-y,z
1/2+x,-y,1/2-z
1/2-x,1/2+y,1/2-z
1/2-x,1/2-y,-z
1/2+x,y,-z
1/2-x,y,1/2+z
1/2+x,1/2-y,1/2+z
loop_
_atom_site_type_symbol
_atom_site_label
_atom_site_fract_x
_atom_site_fract_y
_atom_site_fract_z
Si Si1 0.865732 0.615077 0.518629
Si Si2 0.177213 0.067716 0.739516
Si Si3 0.261685 0.922178 0.843700
Si Si4 0.837445 0.779141 0.431576
Si Si5 0.895366 0.386636 0.641537
Si Si6 0.319262 0.145347 0.934672
Si Si7 0.750000 0.000000 0.421228
O O1 0.733416 0.667961 0.531862
O O2 0.828396 0.609651 0.461106
O O3 0.855806 0.543943 0.543847
O O4 0.032746 0.641698 0.530948
O O5 0.267995 0.095005 0.786947
O O6 0.187233 0.116484 0.693861
O O7 0.000000 0.053123 0.750000
O O8 0.250000 0.000000 0.721772
O O9 0.424141 0.891503 0.855781
O O10 0.146536 0.889206 0.882601
O O11 0.250000 0.000000 0.849930
O O12 0.856361 0.816210 0.380934
O O13 0.715508 0.721386 0.424226
O O14 0.000000 0.750000 0.450715
O O15 0.845531 0.450378 0.611394
#
# Coordination Sequence:
#
# PCOD8282032 Si02
#       7
#    16  16  16  16  16  16   8
#     4  11  26  40  65  92 124 168 214 260 320 377
#     4   9  18  35  61  94 126 163 202 247 316 379
#     4  10  21  36  61  91 130 161 202 255 318 370
#     4  11  22  42  64  87 123 170 214 260 305 370
#     4  10  19  38  64  92 125 161 206 259 307 380
#     4  12  24  42  61  89 128 168 215 264 310 382
#     4  10  22  38  62  94 128 160 204 258 324 366
#
# _framework density 21.162735999999999
#
# number of rings (size 3 to 8) (size 9 to 14) (size 15 to 20)
#    0.000    1.538    2.308    2.769    3.231    0.615 
#    0.000    0.769    0.000    0.000    0.000    4.308 
#    0.000    0.000    0.000    0.000    0.000    0.000 
#
# Total GULP energy -644394.399759 kJ/mol
# GULP energy per Si atom -12392.199995 kJ/mol
# Density = 2.111457 g / cm^3
# Si number density = 21.162736 Si / 1000 Ang^3
#
#
#
# Elastic Constant Matrix: (Units=GPa)
#
#
# Indices 1 2 3 4 5 6 
#
# 1 71.7429 31.5714 31.2222 0.0000 0.0000 0.0000
# 2 31.5714 101.0411 42.6445 0.0000 0.0000 0.0000
# 3 31.2222 42.6445 124.2113 0.0000 0.0000 0.0000
# 4 0.0000 0.0000 0.0000 17.5680 0.0000 0.0000
# 5 0.0000 0.0000 0.0000 0.0000 26.8231 0.0000
# 6 0.0000 0.0000 0.0000 0.0000 0.0000 33.5037
#
#
#
# Elastic Compliance Matrix: (Units=1/GPa)
#
#
# Indices 1 2 3 4 5 6 
#
# 1 0.016989 -0.004100 -0.002863 0.000000 0.000000 0.000000
# 2 -0.004100 0.012564 -0.003283 0.000000 0.000000 0.000000
# 3 -0.002863 -0.003283 0.009897 0.000000 0.000000 0.000000
# 4 0.000000 0.000000 0.000000 0.056922 0.000000 0.000000
# 5 0.000000 0.000000 0.000000 0.000000 0.037281 0.000000
# 6 0.000000 0.000000 0.000000 0.000000 0.000000 0.029847
#
#
# Mechanical properties :
#
#
# Convention : Reuss Voigt Hill
#
# Bulk Modulus (GPa) = 52.74632 56.43018 54.58825
# Shear Modulus (GPa) = 26.27279 28.34943 27.31111
#
# Velocity S-wave (km/s) = 3.52726 3.66401 3.59629
# Velocity P-wave (km/s) = 6.44725 6.68003 6.56467
#
# Compressibility (1/GPa) = 0.01895867
#
# Stress axis : x y z
#
# Youngs Moduli (GPa) = 58.86223 79.59519 101.03650
#
# Poissons Ratio (x) = 0.32635 0.28924
# Poissons Ratio (y) = 0.24134 0.33168
# Poissons Ratio (z) = 0.16851 0.26129
#
# Static dielectric constant tensor:
#      x y z
#    x 3.714790 0.000000 0.000000 
#    y 0.000000 3.764140 0.000000 
#    z 0.000000 0.000000 4.329800 
# 
# 
# High freq. dielectric constant tensor:
#      x y z
#    x 1.819220 0.000000 0.000000 
#    y 0.000000 1.816570 0.000000 
#    z 0.000000 0.000000 1.845010 
# 
# From -- ./inp_files/49442.got.cif
#   From: 2010.03.12/outbox.cif.g09.slc.cpg/sg68_25_cif.got.tgz:49442.got - 2010.04.10 23:14:56.
