data_PCOD8282875
_publ_section_title
;
Structure prediction by ZEFSAII (Michael W. Deem and Ramdas Pophale) SiO2 
 PCOD8282875
Probable space group: C C C A
;
_chemical_formula_sum "Si O2"
_cell_formula_units_Z 48
_cell_length_a 13.456095
_cell_length_b 17.175240
_cell_length_c 8.920950
_cell_angle_alpha 90.000000
_cell_angle_beta 90.000000
_cell_angle_gamma 90.000000
_cell_volume 2061.735573
_symmetry_space_group_name_H-M "C C C A"
_symmetry_group_IT_number 68
_space_group.IT_coordinate_system_code '2'
_symmetry_cell_setting 'orthorhombic'
loop_
_space_group_symop_operation_xyz
x,y,z
-x,1/2-y,z
x,1/2-y,1/2-z
-x,y,1/2-z
-x,-y,-z
x,1/2+y,-z
-x,1/2+y,1/2+z
x,-y,1/2+z
1/2+x,1/2+y,z
1/2-x,-y,z
1/2+x,-y,1/2-z
1/2-x,1/2+y,1/2-z
1/2-x,1/2-y,-z
1/2+x,y,-z
1/2-x,y,1/2+z
1/2+x,1/2-y,1/2+z
loop_
_atom_site_type_symbol
_atom_site_label
_atom_site_fract_x
_atom_site_fract_y
_atom_site_fract_z
Si Si1 0.230503 0.659637 0.740816
Si Si2 0.562749 0.578586 0.105351
Si Si3 0.869471 0.413235 0.543577
O O1 0.255098 0.750000 0.750000
O O2 0.137211 0.647352 0.851927
O O3 0.204606 0.624866 0.578671
O O4 0.329719 0.614872 0.795593
O O5 0.500000 0.548735 0.250000
O O6 0.628854 0.507574 0.039517
O O7 0.484051 0.612775 0.984617
#
# Coordination Sequence:
#
# PCOD8282875 Si02
#       3
#    16  16  16
#     4  11  23  41  65  96 129 165 210 268 329 377
#     4   9  21  40  64  93 126 168 214 260 313 382
#     4  10  22  40  63  92 126 169 215 259 318 386
#
# _framework density 23.281357
#
# number of rings (size 3 to 8) (size 9 to 14) (size 15 to 20)
#    0.000    2.000    0.000    2.000    0.000   19.333 
#    0.000    3.333    0.000    2.000    0.000    0.000 
#    0.000    0.000    0.000    0.000    0.000    0.000 
#
# Total GULP energy -297493.842702 kJ/mol
# GULP energy per Si atom -12395.576779 kJ/mol
# Density = 2.322837 g / cm^3
# Si number density = 23.281357 Si / 1000 Ang^3
#
#
#
# Elastic Constant Matrix: (Units=GPa)
#
#
# Indices 1 2 3 4 5 6 
#
# 1 84.9250 47.5020 35.8997 0.0000 0.0000 0.0000
# 2 47.5020 94.4396 36.0290 0.0000 0.0000 0.0000
# 3 35.8997 36.0290 42.3672 0.0000 0.0000 0.0000
# 4 0.0000 0.0000 0.0000 29.2965 0.0000 0.0000
# 5 0.0000 0.0000 0.0000 0.0000 39.0149 0.0000
# 6 0.0000 0.0000 0.0000 0.0000 0.0000 26.3513
#
#
#
# Elastic Compliance Matrix: (Units=1/GPa)
#
#
# Indices 1 2 3 4 5 6 
#
# 1 0.020004 -0.005322 -0.012425 0.000000 0.000000 0.000000
# 2 -0.005322 0.017090 -0.010024 0.000000 0.000000 0.000000
# 3 -0.012425 -0.010024 0.042655 0.000000 0.000000 0.000000
# 4 0.000000 0.000000 0.000000 0.034134 0.000000 0.000000
# 5 0.000000 0.000000 0.000000 0.000000 0.025631 0.000000
# 6 0.000000 0.000000 0.000000 0.000000 0.000000 0.037949
#
#
# Mechanical properties :
#
#
# Convention : Reuss Voigt Hill
#
# Bulk Modulus (GPa) = 41.30742 51.17702 46.24222
# Shear Modulus (GPa) = 20.74068 25.75261 23.24665
#
# Velocity S-wave (km/s) = 2.98798 3.32949 3.16335
# Velocity P-wave (km/s) = 5.44842 6.06715 5.76609
#
# Compressibility (1/GPa) = 0.02420872
#
# Stress axis : x y z
#
# Youngs Moduli (GPa) = 49.99013 58.51530 23.44377
#
# Poissons Ratio (x) = 0.31140 0.29128
# Poissons Ratio (y) = 0.26603 0.23499
# Poissons Ratio (z) = 0.62111 0.58653
#
# Static dielectric constant tensor:
#      x y z
#    x 4.391720 0.000000 0.000000 
#    y 0.000000 3.729000 0.000000 
#    z 0.000000 0.000000 4.379870 
# 
# 
# High freq. dielectric constant tensor:
#      x y z
#    x 1.934930 0.000000 0.000000 
#    y 0.000000 1.890180 0.000000 
#    z 0.000000 0.000000 1.920040 
# 
# From -- ./inp_files/4405.got.cif
#   From: 2010.03.12/outbox.cif.g09.slc.cpg/sg68_3_cif.got.tgz:4405.got - 2010.04.10 23:14:56.
