data_PCOD8282856
_publ_section_title
;
Structure prediction by ZEFSAII (Michael W. Deem and Ramdas Pophale) SiO2 
 PCOD8282856
Probable space group: C C C A
;
_chemical_formula_sum "Si O2"
_cell_formula_units_Z 80
_cell_length_a 25.268386
_cell_length_b 5.095129
_cell_length_c 29.062800
_cell_angle_alpha 90.000000
_cell_angle_beta 90.000000
_cell_angle_gamma 90.000000
_cell_volume 3741.710132
_symmetry_space_group_name_H-M "C C C A"
_symmetry_group_IT_number 68
_space_group.IT_coordinate_system_code '2'
_symmetry_cell_setting 'orthorhombic'
loop_
_space_group_symop_operation_xyz
x,y,z
-x,1/2-y,z
x,1/2-y,1/2-z
-x,y,1/2-z
-x,-y,-z
x,1/2+y,-z
-x,1/2+y,1/2+z
x,-y,1/2+z
1/2+x,1/2+y,z
1/2-x,-y,z
1/2+x,-y,1/2-z
1/2-x,1/2+y,1/2-z
1/2-x,1/2-y,-z
1/2+x,y,-z
1/2-x,y,1/2+z
1/2+x,1/2-y,1/2+z
loop_
_atom_site_type_symbol
_atom_site_label
_atom_site_fract_x
_atom_site_fract_y
_atom_site_fract_z
Si Si1 0.673102 0.250000 0.250000
Si Si2 0.845281 0.125227 0.123992
Si Si3 0.612080 0.751251 0.471119
Si Si4 0.500000 0.750000 0.423911
Si Si5 0.000000 0.250000 0.859972
Si Si6 0.610138 0.888780 0.830735
Si Si7 0.750000 0.000000 0.176743
O O1 0.634253 0.436702 0.220407
O O2 0.709069 0.130767 0.210956
O O3 0.847604 0.167791 0.069468
O O4 0.887479 0.329711 0.144827
O O5 0.785745 0.187132 0.143640
O O6 0.859089 0.827055 0.138215
O O7 0.623674 0.545135 0.511816
O O8 0.551127 0.752076 0.456147
O O9 0.507178 0.496954 0.392637
O O10 0.950173 0.205398 0.826574
#
# Coordination Sequence:
#
# PCOD8282856 Si02
#       7
#     8  16  16   8   8  16   8
#     4  10  22  39  68 100 118 159 216 268 300 374
#     4  11  23  42  63  91 126 170 204 268 324 370
#     4  12  23  39  61  94 126 160 216 265 306 378
#     4  12  22  39  62  91 123 174 213 247 316 375
#     4  12  20  38  62  90 131 174 203 242 316 400
#     4  11  22  39  63  91 133 164 207 255 318 375
#     4  10  22  42  70  94 124 164 222 268 326 380
#
# _framework density 21.380597999999999
#
# number of rings (size 3 to 8) (size 9 to 14) (size 15 to 20)
#    0.000    0.800    4.000    4.200    0.000    5.200 
#    0.000    1.000    0.000    6.000    0.000    0.000 
#    0.000    0.000    0.000    0.000    0.000    0.000 
#
# Total GULP energy -495683.655031 kJ/mol
# GULP energy per Si atom -12392.091376 kJ/mol
# Density = 2.133193 g / cm^3
# Si number density = 21.380598 Si / 1000 Ang^3
#
#
#
# Elastic Constant Matrix: (Units=GPa)
#
#
# Indices 1 2 3 4 5 6 
#
# 1 114.3697 19.0001 68.8059 0.0000 0.0000 0.0000
# 2 19.0001 86.3041 13.5027 0.0000 0.0000 0.0000
# 3 68.8059 13.5027 114.3227 0.0000 0.0000 0.0000
# 4 0.0000 0.0000 0.0000 20.7146 0.0000 0.0000
# 5 0.0000 0.0000 0.0000 0.0000 48.3405 0.0000
# 6 0.0000 0.0000 0.0000 0.0000 0.0000 20.0460
#
#
#
# Elastic Compliance Matrix: (Units=1/GPa)
#
#
# Indices 1 2 3 4 5 6 
#
# 1 0.013974 -0.001794 -0.008198 0.000000 0.000000 0.000000
# 2 -0.001794 0.012035 -0.000342 0.000000 0.000000 0.000000
# 3 -0.008198 -0.000342 0.013722 0.000000 0.000000 0.000000
# 4 0.000000 0.000000 0.000000 0.048275 0.000000 0.000000
# 5 0.000000 0.000000 0.000000 0.000000 0.020687 0.000000
# 6 0.000000 0.000000 0.000000 0.000000 0.000000 0.049885
#
#
# Mechanical properties :
#
#
# Convention : Reuss Voigt Hill
#
# Bulk Modulus (GPa) = 52.45793 57.51264 54.98529
# Shear Modulus (GPa) = 26.93964 32.06608 29.50286
#
# Velocity S-wave (km/s) = 3.55350 3.87689 3.71872
# Velocity P-wave (km/s) = 6.43623 6.85553 6.64919
#
# Compressibility (1/GPa) = 0.01906289
#
# Stress axis : x y z
#
# Youngs Moduli (GPa) = 71.56270 83.08875 72.87676
#
# Poissons Ratio (x) = 0.14904 0.59747
# Poissons Ratio (y) = 0.12836 0.02492
# Poissons Ratio (z) = 0.58670 0.02841
#
# Static dielectric constant tensor:
#      x y z
#    x 4.730140 0.000000 0.000000 
#    y 0.000000 4.160430 0.000000 
#    z 0.000000 0.000000 4.247510 
# 
# 
# High freq. dielectric constant tensor:
#      x y z
#    x 1.839410 0.000000 0.000000 
#    y 0.000000 1.835730 0.000000 
#    z 0.000000 0.000000 1.841790 
# 
# From -- ./inp_files/47447.got.cif
#   From: 2010.03.12/outbox.cif.g09.slc.cpg/sg68_24_cif.got.tgz:47447.got - 2010.04.10 23:14:56.
