data_PCOD8282656
_publ_section_title
;
Structure prediction by ZEFSAII (Michael W. Deem and Ramdas Pophale) SiO2 
 PCOD8282656
Probable space group: C C C A
;
_chemical_formula_sum "Si O2"
_cell_formula_units_Z 116
_cell_length_a 27.814269
_cell_length_b 11.466505
_cell_length_c 16.515133
_cell_angle_alpha 90.000000
_cell_angle_beta 90.000000
_cell_angle_gamma 90.000000
_cell_volume 5267.211905
_symmetry_space_group_name_H-M "C C C A"
_symmetry_group_IT_number 68
_space_group.IT_coordinate_system_code '2'
_symmetry_cell_setting 'orthorhombic'
loop_
_space_group_symop_operation_xyz
x,y,z
-x,1/2-y,z
x,1/2-y,1/2-z
-x,y,1/2-z
-x,-y,-z
x,1/2+y,-z
-x,1/2+y,1/2+z
x,-y,1/2+z
1/2+x,1/2+y,z
1/2-x,-y,z
1/2+x,-y,1/2-z
1/2-x,1/2+y,1/2-z
1/2-x,1/2-y,-z
1/2+x,y,-z
1/2-x,y,1/2+z
1/2+x,1/2-y,1/2+z
loop_
_atom_site_type_symbol
_atom_site_label
_atom_site_fract_x
_atom_site_fract_y
_atom_site_fract_z
Si Si1 0.728292 0.294742 0.661319
Si Si2 0.641412 0.591102 0.907486
Si Si3 0.789012 0.585598 0.942872
Si Si4 0.327281 0.345041 0.394290
Si Si5 0.534529 0.083702 0.110271
Si Si6 0.027897 0.362860 0.424384
Si Si7 0.135037 0.084108 0.097061
Si Si8 0.000000 0.750000 0.250000
O O1 0.727079 0.250000 0.750000
O O2 0.739536 0.184512 0.604307
O O3 0.775729 0.374107 0.647667
O O4 0.676406 0.349631 0.645463
O O5 0.679161 0.491722 0.879087
O O6 0.650724 0.719419 0.868964
O O7 0.589404 0.541959 0.883759
O O8 0.648894 0.594303 0.003702
O O9 0.750000 0.500000 0.985052
O O10 0.821777 0.649943 0.008813
O O11 0.364466 0.448929 0.371735
O O12 0.529251 0.168566 0.187542
O O13 0.498419 0.975259 0.113101
O O14 0.527652 0.144319 0.022404
O O15 0.082060 0.362604 0.388861
O O16 0.000000 0.250000 0.391318
#
# Coordination Sequence:
#
# PCOD8282656 Si02
#       8
#    16  16  16  16  16  16  16   4
#     4  12  25  42  60  91 135 172 212 273 336 404
#     4  10  21  39  68  96 123 170 222 276 316 402
#     4  11  21  38  66  93 123 166 221 268 322 389
#     4  11  21  41  66  92 128 166 221 269 324 388
#     4  10  24  41  69 102 139 178 226 282 357 414
#     4  10  22  44  73 101 130 180 238 290 328 422
#     4  10  23  39  68  96 124 171 224 274 327 388
#     4  12  24  48  66 104 148 178 212 306 372 408
#
# _framework density 22.023036999999999
#
# number of rings (size 3 to 8) (size 9 to 14) (size 15 to 20)
#    0.000    1.379    3.448    2.483    3.862    3.310 
#    3.724    0.345    0.000    0.000    0.000    0.000 
#    0.000    0.000    0.000    0.000    0.000    0.000 
#
# Total GULP energy -718750.382030 kJ/mol
# GULP energy per Si atom -12392.247966 kJ/mol
# Density = 2.197291 g / cm^3
# Si number density = 22.023037 Si / 1000 Ang^3
#
#
#
# Elastic Constant Matrix: (Units=GPa)
#
#
# Indices 1 2 3 4 5 6 
#
# 1 147.1306 45.6446 16.3029 0.0000 0.0000 0.0000
# 2 45.6446 72.4432 16.0418 0.0000 0.0000 0.0000
# 3 16.3029 16.0418 64.3840 0.0000 0.0000 0.0000
# 4 0.0000 0.0000 0.0000 18.3753 0.0000 0.0000
# 5 0.0000 0.0000 0.0000 0.0000 20.2510 0.0000
# 6 0.0000 0.0000 0.0000 0.0000 0.0000 46.7055
#
#
#
# Elastic Compliance Matrix: (Units=1/GPa)
#
#
# Indices 1 2 3 4 5 6 
#
# 1 0.008493 -0.005160 -0.000865 0.000000 0.000000 0.000000
# 2 -0.005160 0.017745 -0.003115 0.000000 0.000000 0.000000
# 3 -0.000865 -0.003115 0.016527 0.000000 0.000000 0.000000
# 4 0.000000 0.000000 0.000000 0.054421 0.000000 0.000000
# 5 0.000000 0.000000 0.000000 0.000000 0.049380 0.000000
# 6 0.000000 0.000000 0.000000 0.000000 0.000000 0.021411
#
#
# Mechanical properties :
#
#
# Convention : Reuss Voigt Hill
#
# Bulk Modulus (GPa) = 40.83999 48.88182 44.86091
# Shear Modulus (GPa) = 25.71783 30.79762 28.25772
#
# Velocity S-wave (km/s) = 3.42097 3.74361 3.58592
# Velocity P-wave (km/s) = 5.84710 6.39767 6.12857
#
# Compressibility (1/GPa) = 0.02448580
#
# Stress axis : x y z
#
# Youngs Moduli (GPa) = 117.74016 56.35481 60.50749
#
# Poissons Ratio (x) = 0.29078 0.05234
# Poissons Ratio (y) = 0.60752 0.18846
# Poissons Ratio (z) = 0.10184 0.17553
#
# Static dielectric constant tensor:
#      x y z
#    x 4.127590 0.000000 0.000000 
#    y 0.000000 6.680180 0.000000 
#    z 0.000000 0.000000 3.538970 
# 
# 
# High freq. dielectric constant tensor:
#      x y z
#    x 1.876330 0.000000 0.000000 
#    y 0.000000 1.874440 0.000000 
#    z 0.000000 0.000000 1.821510 
# 
# From -- ./inp_files/34175.got.cif
#   From: 2010.03.12/outbox.cif.g09.slc.cpg/sg68_18_cif.got.tgz:34175.got - 2010.04.10 23:14:56.
