data_PCOD8282561
_publ_section_title
;
Structure prediction by ZEFSAII (Michael W. Deem and Ramdas Pophale) SiO2 
 PCOD8282561
Probable space group: C C C A
;
_chemical_formula_sum "Si O2"
_cell_formula_units_Z 80
_cell_length_a 17.667069
_cell_length_b 9.787111
_cell_length_c 25.236454
_cell_angle_alpha 90.000000
_cell_angle_beta 90.000000
_cell_angle_gamma 90.000000
_cell_volume 4363.624292
_symmetry_space_group_name_H-M "C C C A"
_symmetry_group_IT_number 68
_space_group.IT_coordinate_system_code '2'
_symmetry_cell_setting 'orthorhombic'
loop_
_space_group_symop_operation_xyz
x,y,z
-x,1/2-y,z
x,1/2-y,1/2-z
-x,y,1/2-z
-x,-y,-z
x,1/2+y,-z
-x,1/2+y,1/2+z
x,-y,1/2+z
1/2+x,1/2+y,z
1/2-x,-y,z
1/2+x,-y,1/2-z
1/2-x,1/2+y,1/2-z
1/2-x,1/2-y,-z
1/2+x,y,-z
1/2-x,y,1/2+z
1/2+x,1/2-y,1/2+z
loop_
_atom_site_type_symbol
_atom_site_label
_atom_site_fract_x
_atom_site_fract_y
_atom_site_fract_z
Si Si1 0.245164 0.341183 0.698429
Si Si2 0.664562 0.736717 0.602671
Si Si3 0.925993 0.015041 0.427710
Si Si4 0.170100 0.235468 0.397035
Si Si5 0.404544 0.487962 0.051089
O O1 0.237343 0.250000 0.750000
O O2 0.250000 0.500000 0.714437
O O3 0.172328 0.310819 0.660300
O O4 0.320870 0.296317 0.665956
O O5 0.616157 0.598543 0.607749
O O6 0.749705 0.703817 0.581323
O O7 0.622113 0.834044 0.561217
O O8 0.898238 0.162301 0.408180
O O9 0.015714 0.010580 0.419185
O O10 0.908659 0.987257 0.488815
O O11 0.156452 0.092580 0.426221
#
# Coordination Sequence:
#
# PCOD8282561 Si02
#       5
#    16  16  16  16  16
#     4  10  22  40  65  87 112 146 193 251 309 344
#     4  10  21  38  57  89 113 151 198 247 278 337
#     4  11  23  33  59  86 122 166 191 221 289 347
#     4  10  21  38  57  89 113 151 198 247 278 337
#     4  11  21  39  53  84 128 164 189 227 283 347
#
# _framework density 18.333385
#
# number of rings (size 3 to 8) (size 9 to 14) (size 15 to 20)
#    1.200    0.400    2.000    3.600    2.800    8.000 
#    0.000    0.000    0.000    7.200    0.000    0.000 
#    0.000    0.000    0.000    0.000    0.000    0.000 
#
# Total GULP energy -495874.754800 kJ/mol
# GULP energy per Si atom -12396.868870 kJ/mol
# Density = 1.829166 g / cm^3
# Si number density = 18.333385 Si / 1000 Ang^3
#
#
#
# Elastic Constant Matrix: (Units=GPa)
#
#
# Indices 1 2 3 4 5 6 
#
# 1 78.3503 18.0943 20.6824 0.0000 0.0000 0.0000
# 2 18.0943 92.4000 22.6462 0.0000 0.0000 0.0000
# 3 20.6824 22.6462 67.7822 0.0000 0.0000 0.0000
# 4 0.0000 0.0000 0.0000 36.9396 0.0000 0.0000
# 5 0.0000 0.0000 0.0000 0.0000 11.9987 0.0000
# 6 0.0000 0.0000 0.0000 0.0000 0.0000 32.4570
#
#
#
# Elastic Compliance Matrix: (Units=1/GPa)
#
#
# Indices 1 2 3 4 5 6 
#
# 1 0.014171 -0.001868 -0.003700 0.000000 0.000000 0.000000
# 2 -0.001868 0.012034 -0.003451 0.000000 0.000000 0.000000
# 3 -0.003700 -0.003451 0.017035 0.000000 0.000000 0.000000
# 4 0.000000 0.000000 0.000000 0.027071 0.000000 0.000000
# 5 0.000000 0.000000 0.000000 0.000000 0.083342 0.000000
# 6 0.000000 0.000000 0.000000 0.000000 0.000000 0.030810
#
#
# Mechanical properties :
#
#
# Convention : Reuss Voigt Hill
#
# Bulk Modulus (GPa) = 39.67807 40.15314 39.91561
# Shear Modulus (GPa) = 23.70765 28.08635 25.89700
#
# Velocity S-wave (km/s) = 3.59993 3.91830 3.76248
# Velocity P-wave (km/s) = 6.24250 6.51306 6.37921
#
# Compressibility (1/GPa) = 0.02520284
#
# Stress axis : x y z
#
# Youngs Moduli (GPa) = 70.56495 83.09742 58.70295
#
# Poissons Ratio (x) = 0.15525 0.21719
# Poissons Ratio (y) = 0.13184 0.20256
# Poissons Ratio (z) = 0.26108 0.28673
#
# Static dielectric constant tensor:
#      x y z
#    x 3.333810 0.000000 0.000000 
#    y 0.000000 3.325280 0.000000 
#    z 0.000000 0.000000 3.089770 
# 
# 
# High freq. dielectric constant tensor:
#      x y z
#    x 1.703800 0.000000 0.000000 
#    y 0.000000 1.725920 0.000000 
#    z 0.000000 0.000000 1.684400 
# 
# From -- ./inp_files/49094.got.cif
#   From: 2010.03.12/outbox.cif.g09.slc.cpg/sg68_25_cif.got.tgz:49094.got - 2010.04.10 23:14:56.
