data_PCOD8282913
_publ_section_title
;
Structure prediction by ZEFSAII (Michael W. Deem and Ramdas Pophale) SiO2 
 PCOD8282913
Probable space group: C C C A
;
_chemical_formula_sum "Si O2"
_cell_formula_units_Z 104
_cell_length_a 9.041894
_cell_length_b 25.096157
_cell_length_c 22.887862
_cell_angle_alpha 90.000000
_cell_angle_beta 90.000000
_cell_angle_gamma 90.000000
_cell_volume 5193.640207
_symmetry_space_group_name_H-M "C C C A"
_symmetry_group_IT_number 68
_space_group.IT_coordinate_system_code '2'
_symmetry_cell_setting 'orthorhombic'
loop_
_space_group_symop_operation_xyz
x,y,z
-x,1/2-y,z
x,1/2-y,1/2-z
-x,y,1/2-z
-x,-y,-z
x,1/2+y,-z
-x,1/2+y,1/2+z
x,-y,1/2+z
1/2+x,1/2+y,z
1/2-x,-y,z
1/2+x,-y,1/2-z
1/2-x,1/2+y,1/2-z
1/2-x,1/2-y,-z
1/2+x,y,-z
1/2-x,y,1/2+z
1/2+x,1/2-y,1/2+z
loop_
_atom_site_type_symbol
_atom_site_label
_atom_site_fract_x
_atom_site_fract_y
_atom_site_fract_z
Si Si1 0.350451 0.162245 0.352170
Si Si2 0.250000 0.000000 0.838703
Si Si3 0.639288 0.925407 0.562714
Si Si4 0.315955 0.632471 0.840242
Si Si5 0.670120 0.258667 0.681249
Si Si6 0.162746 0.907001 0.766215
Si Si7 0.314658 0.055769 0.052149
O O1 0.350005 0.136208 0.417013
O O2 0.518115 0.154517 0.328897
O O3 0.290824 0.222860 0.354483
O O4 0.230552 0.135121 0.310621
O O5 0.343744 0.960623 0.878848
O O6 0.145915 0.964820 0.796471
O O7 0.486351 0.946120 0.537299
O O8 0.755253 0.932882 0.512108
O O9 0.203062 0.681101 0.836753
O O10 0.271212 0.590337 0.789887
O O11 0.288256 0.603113 0.901828
O O12 0.500000 0.250000 0.662437
O O13 0.694695 0.250000 0.750000
O O14 0.000000 0.886128 0.750000
O O15 0.250000 0.000000 0.076639
#
# Coordination Sequence:
#
# PCOD8282913 Si02
#       7
#    16   8  16  16  16  16  16
#     4  10  22  41  62  88 126 159 201 254 301 369
#     4  10  24  38  58  84 126 162 206 252 302 352
#     4  10  23  42  62  89 117 163 206 249 306 356
#     4  11  24  38  62  94 123 163 204 244 313 359
#     4  11  22  39  62  93 123 161 203 250 299 360
#     4  11  23  36  58  87 124 163 204 249 300 364
#     4  11  24  40  65  90 123 159 205 253 298 367
#
# _framework density 20.024491000000001
#
# number of rings (size 3 to 8) (size 9 to 14) (size 15 to 20)
#    0.000    1.385    2.308    2.308    3.231    5.538 
#    0.000    0.769    0.000    0.000    0.000    0.000 
#    0.000    0.000    0.000    0.000    0.000    0.000 
#
# Total GULP energy -644562.610749 kJ/mol
# GULP energy per Si atom -12395.434822 kJ/mol
# Density = 1.997891 g / cm^3
# Si number density = 20.024491 Si / 1000 Ang^3
#
#
#
# Elastic Constant Matrix: (Units=GPa)
#
#
# Indices 1 2 3 4 5 6 
#
# 1 149.1900 40.4830 49.1925 0.0000 0.0000 0.0000
# 2 40.4830 98.2977 45.4399 0.0000 0.0000 0.0000
# 3 49.1925 45.4399 86.0187 0.0000 0.0000 0.0000
# 4 0.0000 0.0000 0.0000 22.0076 0.0000 0.0000
# 5 0.0000 0.0000 0.0000 0.0000 6.9947 0.0000
# 6 0.0000 0.0000 0.0000 0.0000 0.0000 27.9094
#
#
#
# Elastic Compliance Matrix: (Units=1/GPa)
#
#
# Indices 1 2 3 4 5 6 
#
# 1 0.008458 -0.001650 -0.003965 0.000000 0.000000 0.000000
# 2 -0.001650 0.013782 -0.006337 0.000000 0.000000 0.000000
# 3 -0.003965 -0.006337 0.017240 0.000000 0.000000 0.000000
# 4 0.000000 0.000000 0.000000 0.045439 0.000000 0.000000
# 5 0.000000 0.000000 0.000000 0.000000 0.142965 0.000000
# 6 0.000000 0.000000 0.000000 0.000000 0.000000 0.035830
#
#
# Mechanical properties :
#
#
# Convention : Reuss Voigt Hill
#
# Bulk Modulus (GPa) = 64.20096 67.08193 65.64145
# Shear Modulus (GPa) = 17.07586 24.60843 20.84214
#
# Velocity S-wave (km/s) = 2.92335 3.50939 3.22969
# Velocity P-wave (km/s) = 6.59739 7.07063 6.83810
#
# Compressibility (1/GPa) = 0.01557609
#
# Stress axis : x y z
#
# Youngs Moduli (GPa) = 118.22907 72.55780 58.00337
#
# Poissons Ratio (x) = 0.11975 0.23000
# Poissons Ratio (y) = 0.19513 0.36755
# Poissons Ratio (z) = 0.46880 0.45977
#
# Static dielectric constant tensor:
#      x y z
#    x 3.709100 0.000000 0.000000 
#    y 0.000000 3.948080 0.000000 
#    z 0.000000 0.000000 3.555140 
# 
# 
# High freq. dielectric constant tensor:
#      x y z
#    x 1.792360 0.000000 0.000000 
#    y 0.000000 1.785180 0.000000 
#    z 0.000000 0.000000 1.769390 
# 
# From -- ./inp_files/36550.got.cif
#   From: 2010.03.12/outbox.cif.g09.slc.cpg/sg68_19_cif.got.tgz:36550.got - 2010.04.10 23:14:56.
