data_PCOD8282146
_publ_section_title
;
Structure prediction by ZEFSAII (Michael W. Deem and Ramdas Pophale) SiO2 
 PCOD8282146
Probable space group: C C C A
;
_chemical_formula_sum "Si O2"
_cell_formula_units_Z 116
_cell_length_a 31.776828
_cell_length_b 8.993206
_cell_length_c 21.864035
_cell_angle_alpha 90.000000
_cell_angle_beta 90.000000
_cell_angle_gamma 90.000000
_cell_volume 6248.206851
_symmetry_space_group_name_H-M "C C C A"
_symmetry_group_IT_number 68
_space_group.IT_coordinate_system_code '2'
_symmetry_cell_setting 'orthorhombic'
loop_
_space_group_symop_operation_xyz
x,y,z
-x,1/2-y,z
x,1/2-y,1/2-z
-x,y,1/2-z
-x,-y,-z
x,1/2+y,-z
-x,1/2+y,1/2+z
x,-y,1/2+z
1/2+x,1/2+y,z
1/2-x,-y,z
1/2+x,-y,1/2-z
1/2-x,1/2+y,1/2-z
1/2-x,1/2-y,-z
1/2+x,y,-z
1/2-x,y,1/2+z
1/2+x,1/2-y,1/2+z
loop_
_atom_site_type_symbol
_atom_site_label
_atom_site_fract_x
_atom_site_fract_y
_atom_site_fract_z
Si Si1 0.080119 0.652862 0.196122
Si Si2 0.729217 0.161158 0.555555
Si Si3 0.133310 0.281807 0.061759
Si Si4 0.726622 0.847603 0.193289
Si Si5 0.500000 0.750000 0.750000
Si Si6 0.083679 0.028236 0.005936
Si Si7 0.370184 0.149746 0.804475
Si Si8 0.047505 0.731442 0.422157
O O1 0.102521 0.750000 0.250000
O O2 0.102183 0.496521 0.191052
O O3 0.081950 0.736286 0.130861
O O4 0.030131 0.638446 0.211430
O O5 0.750000 0.250000 0.500000
O O6 0.679484 0.161543 0.542508
O O7 0.734988 0.226255 0.625456
O O8 0.750000 0.000000 0.553625
O O9 0.101249 0.409828 0.041913
O O10 0.126770 0.256908 0.133553
O O11 0.122993 0.121379 0.033018
O O12 0.743695 0.750000 0.250000
O O13 0.678337 0.890017 0.205958
O O14 0.750000 0.000000 0.196285
O O15 0.052305 0.146049 0.975292
O O16 0.057109 0.936927 0.056399
O O17 0.388389 0.250000 0.750000
O O18 0.000000 0.750000 0.397920
#
# Coordination Sequence:
#
# PCOD8282146 Si02
#       8
#    16  16  16  16   4  16  16  16
#     4  10  20  37  59  80 109 147 189 237 286 336
#     4  10  20  35  57  81 112 150 183 228 280 335
#     4  10  20  37  55  82 114 142 188 228 279 333
#     4   9  20  38  57  82 115 147 185 235 282 334
#     4   8  20  36  58  76 112 140 186 240 282 324
#     4  10  22  34  56  82 108 151 179 235 277 340
#     4  10  21  37  59  81 114 149 185 236 284 338
#     4  11  20  38  57  80 113 144 191 232 288 342
#
# _framework density 18.565327
#
# number of rings (size 3 to 8) (size 9 to 14) (size 15 to 20)
#    0.414    1.655    2.069    1.241    1.931    1.103 
#    0.000    1.724    0.000    0.000    0.000    0.000 
#    0.000    0.000    0.000    0.000    0.000    0.000 
#
# Total GULP energy -718629.862519 kJ/mol
# GULP energy per Si atom -12390.170043 kJ/mol
# Density = 1.852307 g / cm^3
# Si number density = 18.565327 Si / 1000 Ang^3
#
#
#
# Elastic Constant Matrix: (Units=GPa)
#
#
# Indices 1 2 3 4 5 6 
#
# 1 62.6073 28.1149 28.4716 0.0000 0.0000 0.0000
# 2 28.1149 89.3405 50.2385 0.0000 0.0000 0.0000
# 3 28.4716 50.2385 124.5015 0.0000 0.0000 0.0000
# 4 0.0000 0.0000 0.0000 32.4224 0.0000 0.0000
# 5 0.0000 0.0000 0.0000 0.0000 26.6112 0.0000
# 6 0.0000 0.0000 0.0000 0.0000 0.0000 32.0500
#
#
#
# Elastic Compliance Matrix: (Units=1/GPa)
#
#
# Indices 1 2 3 4 5 6 
#
# 1 0.019196 -0.004621 -0.002525 0.000000 0.000000 0.000000
# 2 -0.004621 0.015591 -0.005234 0.000000 0.000000 0.000000
# 3 -0.002525 -0.005234 0.010722 0.000000 0.000000 0.000000
# 4 0.000000 0.000000 0.000000 0.030843 0.000000 0.000000
# 5 0.000000 0.000000 0.000000 0.000000 0.037578 0.000000
# 6 0.000000 0.000000 0.000000 0.000000 0.000000 0.031201
#
#
# Mechanical properties :
#
#
# Convention : Reuss Voigt Hill
#
# Bulk Modulus (GPa) = 48.19873 54.45548 51.32710
# Shear Modulus (GPa) = 28.27932 29.52500 28.90216
#
# Velocity S-wave (km/s) = 3.90710 3.99222 3.94989
# Velocity P-wave (km/s) = 6.80969 7.11660 6.96483
#
# Compressibility (1/GPa) = 0.02074743
#
# Stress axis : x y z
#
# Youngs Moduli (GPa) = 52.09407 64.14071 93.26891
#
# Poissons Ratio (x) = 0.29639 0.23553
# Poissons Ratio (y) = 0.24072 0.48821
# Poissons Ratio (z) = 0.13155 0.33574
#
# Static dielectric constant tensor:
#      x y z
#    x 3.407170 0.000000 0.000000 
#    y 0.000000 3.207590 0.000000 
#    z 0.000000 0.000000 3.853150 
# 
# 
# High freq. dielectric constant tensor:
#      x y z
#    x 1.713080 0.000000 0.000000 
#    y 0.000000 1.704760 0.000000 
#    z 0.000000 0.000000 1.739650 
# 
# From -- ./inp_files/47304.got.cif
#   From: 2010.03.12/outbox.cif.g09.slc.cpg/sg68_24_cif.got.tgz:47304.got - 2010.04.10 23:14:56.
