data_PCOD8282092
_publ_section_title
;
Structure prediction by ZEFSAII (Michael W. Deem and Ramdas Pophale) SiO2 
 PCOD8282092
Probable space group: C C C A
;
_chemical_formula_sum "Si O2"
_cell_formula_units_Z 112
_cell_length_a 23.971721
_cell_length_b 14.583131
_cell_length_c 16.888241
_cell_angle_alpha 90.000000
_cell_angle_beta 90.000000
_cell_angle_gamma 90.000000
_cell_volume 5903.837692
_symmetry_space_group_name_H-M "C C C A"
_symmetry_group_IT_number 68
_space_group.IT_coordinate_system_code '2'
_symmetry_cell_setting 'orthorhombic'
loop_
_space_group_symop_operation_xyz
x,y,z
-x,1/2-y,z
x,1/2-y,1/2-z
-x,y,1/2-z
-x,-y,-z
x,1/2+y,-z
-x,1/2+y,1/2+z
x,-y,1/2+z
1/2+x,1/2+y,z
1/2-x,-y,z
1/2+x,-y,1/2-z
1/2-x,1/2+y,1/2-z
1/2-x,1/2-y,-z
1/2+x,y,-z
1/2-x,y,1/2+z
1/2+x,1/2-y,1/2+z
loop_
_atom_site_type_symbol
_atom_site_label
_atom_site_fract_x
_atom_site_fract_y
_atom_site_fract_z
Si Si1 0.311683 0.240336 0.966443
Si Si2 0.221101 0.348482 0.726996
Si Si3 0.852378 0.030106 0.827717
Si Si4 0.643547 0.630593 0.908929
Si Si5 0.813570 0.035572 0.004778
Si Si6 0.337619 0.672210 0.298939
Si Si7 0.562605 0.856457 0.736543
O O1 0.323228 0.133188 0.953118
O O2 0.315476 0.293680 0.883552
O O3 0.250000 0.250000 0.000000
O O4 0.356607 0.285755 0.027607
O O5 0.193197 0.250000 0.750000
O O6 0.199703 0.434964 0.776701
O O7 0.202913 0.363858 0.636689
O O8 0.286953 0.344766 0.737496
O O9 0.905058 0.091426 0.805798
O O10 0.868861 0.924093 0.809726
O O11 0.834361 0.046460 0.916258
O O12 0.644064 0.534201 0.953946
O O13 0.589826 0.627301 0.850598
O O14 0.750000 0.000000 0.006775
O O15 0.373638 0.750000 0.250000
O O16 0.565734 0.750000 0.750000
O O17 0.500000 0.892666 0.750000
#
# Coordination Sequence:
#
# PCOD8282092 Si02
#       7
#    16  16  16  16  16  16  16
#     4  12  21  36  52  81 131 165 201 237 285 366
#     4  10  20  33  54  79 116 159 205 241 285 348
#     4  11  20  38  58  83 119 155 195 248 306 358
#     4  11  22  37  58  89 116 161 203 247 303 357
#     4  12  23  33  56  89 129 167 194 233 294 367
#     4  11  23  33  50  83 123 170 199 231 288 370
#     4  10  23  44  70  90 107 143 206 273 317 351
#
# _framework density 18.970711000000001
#
# number of rings (size 3 to 8) (size 9 to 14) (size 15 to 20)
#    0.000    1.000    2.857    7.286    4.000    0.000 
#    0.000    0.714    0.000    0.429    0.000    0.000 
#    0.000    0.000    0.000    0.000    0.000    0.000 
#
# Total GULP energy -693972.392329 kJ/mol
# GULP energy per Si atom -12392.364149 kJ/mol
# Density = 1.892753 g / cm^3
# Si number density = 18.970711 Si / 1000 Ang^3
#
#
#
# Elastic Constant Matrix: (Units=GPa)
#
#
# Indices 1 2 3 4 5 6 
#
# 1 68.7720 10.0739 15.9726 0.0000 0.0000 0.0000
# 2 10.0739 121.8883 19.5276 0.0000 0.0000 0.0000
# 3 15.9726 19.5276 79.7824 0.0000 0.0000 0.0000
# 4 0.0000 0.0000 0.0000 38.4902 0.0000 0.0000
# 5 0.0000 0.0000 0.0000 0.0000 12.9873 0.0000
# 6 0.0000 0.0000 0.0000 0.0000 0.0000 157.6688
#
#
#
# Elastic Compliance Matrix: (Units=1/GPa)
#
#
# Indices 1 2 3 4 5 6 
#
# 1 0.015326 -0.000807 -0.002871 0.000000 0.000000 0.000000
# 2 -0.000807 0.008582 -0.001939 0.000000 0.000000 0.000000
# 3 -0.002871 -0.001939 0.013583 0.000000 0.000000 0.000000
# 4 0.000000 0.000000 0.000000 0.025981 0.000000 0.000000
# 5 0.000000 0.000000 0.000000 0.000000 0.076998 0.000000
# 6 0.000000 0.000000 0.000000 0.000000 0.000000 0.006342
#
#
# Mechanical properties :
#
#
# Convention : Reuss Voigt Hill
#
# Bulk Modulus (GPa) = 38.08392 40.17679 39.13035
# Shear Modulus (GPa) = 29.97647 56.82049 43.39848
#
# Velocity S-wave (km/s) = 3.97942 5.47875 4.78813
# Velocity P-wave (km/s) = 6.42130 7.82602 7.15820
#
# Compressibility (1/GPa) = 0.02625780
#
# Stress axis : x y z
#
# Youngs Moduli (GPa) = 65.24975 116.52923 73.61928
#
# Poissons Ratio (x) = 0.09401 0.21135
# Poissons Ratio (y) = 0.05264 0.14274
# Poissons Ratio (z) = 0.18732 0.22594
#
# Static dielectric constant tensor:
#      x y z
#    x 3.141920 0.000000 0.000000 
#    y 0.000000 4.095930 0.000000 
#    z 0.000000 0.000000 3.695470 
# 
# 
# High freq. dielectric constant tensor:
#      x y z
#    x 1.665210 0.000000 0.000000 
#    y 0.000000 1.766250 0.000000 
#    z 0.000000 0.000000 1.754690 
# 
# From -- ./inp_files/26070.got.cif
#   From: 2010.03.12/outbox.cif.g09.slc.cpg/sg68_14_cif.got.tgz:26070.got - 2010.04.10 23:14:56.
