data_PCOD8282803
_publ_section_title
;
Structure prediction by ZEFSAII (Michael W. Deem and Ramdas Pophale) SiO2 
 PCOD8282803
Probable space group: C C C A
;
_chemical_formula_sum "Si O2"
_cell_formula_units_Z 88
_cell_length_a 24.187304
_cell_length_b 19.702657
_cell_length_c 9.019088
_cell_angle_alpha 90.000000
_cell_angle_beta 90.000000
_cell_angle_gamma 90.000000
_cell_volume 4298.083856
_symmetry_space_group_name_H-M "C C C A"
_symmetry_group_IT_number 68
_space_group.IT_coordinate_system_code '2'
_symmetry_cell_setting 'orthorhombic'
loop_
_space_group_symop_operation_xyz
x,y,z
-x,1/2-y,z
x,1/2-y,1/2-z
-x,y,1/2-z
-x,-y,-z
x,1/2+y,-z
-x,1/2+y,1/2+z
x,-y,1/2+z
1/2+x,1/2+y,z
1/2-x,-y,z
1/2+x,-y,1/2-z
1/2-x,1/2+y,1/2-z
1/2-x,1/2-y,-z
1/2+x,y,-z
1/2-x,y,1/2+z
1/2+x,1/2-y,1/2+z
loop_
_atom_site_type_symbol
_atom_site_label
_atom_site_fract_x
_atom_site_fract_y
_atom_site_fract_z
Si Si1 0.532617 0.414622 0.951173
Si Si2 0.586631 0.867495 0.501518
Si Si3 0.250000 0.000000 0.869128
Si Si4 0.936692 0.268408 0.408262
Si Si5 0.922566 0.531437 0.240739
Si Si6 0.324647 0.048200 0.626276
O O1 0.571555 0.347067 0.953296
O O2 0.556502 0.466937 0.832816
O O3 0.469331 0.393285 0.915700
O O4 0.532107 0.448964 0.115161
O O5 0.588342 0.785946 0.526444
O O6 0.590563 0.903506 0.659341
O O7 0.637756 0.885273 0.393156
O O8 0.281378 0.054335 0.762137
O O9 0.206060 0.038598 0.970057
O O10 0.908969 0.250000 0.250000
O O11 0.000000 0.250000 0.398757
O O12 0.865520 0.515355 0.155080
#
# Coordination Sequence:
#
# PCOD8282803 Si02
#       6
#    16  16   8  16  16  16
#     4  11  24  35  59  91 134 168 201 251 305 373
#     4  11  22  36  60  89 126 166 212 249 304 389
#     4  10  22  38  56  86 124 152 206 280 324 360
#     4   9  20  38  55  80 125 175 206 236 300 376
#     4  12  22  36  57  95 122 162 204 258 310 371
#     4  11  21  36  58  87 119 157 206 262 318 364
#
# _framework density 20.474239000000001
#
# number of rings (size 3 to 8) (size 9 to 14) (size 15 to 20)
#    0.000    1.273    3.636    2.182    2.545    2.182 
#    0.000    2.727    0.000    0.000    0.000   34.364 
#    0.000    0.000    0.000    0.000    0.000    0.000 
#
# Total GULP energy -545338.509616 kJ/mol
# GULP energy per Si atom -12394.057037 kJ/mol
# Density = 2.042764 g / cm^3
# Si number density = 20.474239 Si / 1000 Ang^3
#
#
#
# Elastic Constant Matrix: (Units=GPa)
#
#
# Indices 1 2 3 4 5 6 
#
# 1 94.3927 41.2324 42.3890 0.0000 0.0000 0.0000
# 2 41.2324 162.4306 68.9287 0.0000 0.0000 0.0000
# 3 42.3890 68.9287 115.8983 0.0000 0.0000 0.0000
# 4 0.0000 0.0000 0.0000 22.7426 0.0000 0.0000
# 5 0.0000 0.0000 0.0000 0.0000 35.9175 0.0000
# 6 0.0000 0.0000 0.0000 0.0000 0.0000 18.8688
#
#
#
# Elastic Compliance Matrix: (Units=1/GPa)
#
#
# Indices 1 2 3 4 5 6 
#
# 1 0.013025 -0.001719 -0.003742 0.000000 0.000000 0.000000
# 2 -0.001719 0.008462 -0.004404 0.000000 0.000000 0.000000
# 3 -0.003742 -0.004404 0.012616 0.000000 0.000000 0.000000
# 4 0.000000 0.000000 0.000000 0.043970 0.000000 0.000000
# 5 0.000000 0.000000 0.000000 0.000000 0.027842 0.000000
# 6 0.000000 0.000000 0.000000 0.000000 0.000000 0.052998
#
#
# Mechanical properties :
#
#
# Convention : Reuss Voigt Hill
#
# Bulk Modulus (GPa) = 69.56887 75.31353 72.44120
# Shear Modulus (GPa) = 27.25813 30.18388 28.72100
#
# Velocity S-wave (km/s) = 3.65271 3.84374 3.74944
# Velocity P-wave (km/s) = 7.20015 7.52087 7.36226
#
# Compressibility (1/GPa) = 0.01437424
#
# Stress axis : x y z
#
# Youngs Moduli (GPa) = 76.77530 118.18230 79.26522
#
# Poissons Ratio (x) = 0.20310 0.29659
# Poissons Ratio (y) = 0.13194 0.34907
# Poissons Ratio (z) = 0.28727 0.52045
#
# Static dielectric constant tensor:
#      x y z
#    x 3.792180 0.000000 0.000000 
#    y 0.000000 3.980140 0.000000 
#    z 0.000000 0.000000 3.947330 
# 
# 
# High freq. dielectric constant tensor:
#      x y z
#    x 1.774940 0.000000 0.000000 
#    y 0.000000 1.782820 0.000000 
#    z 0.000000 0.000000 1.811480 
# 
# From -- ./inp_files/7996.got.cif
#   From: 2010.03.12/outbox.cif.g09.slc.cpg/sg68_4_cif.got.tgz:7996.got - 2010.04.10 23:14:56.
