data_PCOD8282182
_publ_section_title
;
Structure prediction by ZEFSAII (Michael W. Deem and Ramdas Pophale) SiO2 
 PCOD8282182
Probable space group: C C C A
;
_chemical_formula_sum "Si O2"
_cell_formula_units_Z 48
_cell_length_a 7.658566
_cell_length_b 13.884040
_cell_length_c 17.714175
_cell_angle_alpha 90.000000
_cell_angle_beta 90.000000
_cell_angle_gamma 90.000000
_cell_volume 1883.580763
_symmetry_space_group_name_H-M "C C C A"
_symmetry_group_IT_number 68
_space_group.IT_coordinate_system_code '2'
_symmetry_cell_setting 'orthorhombic'
loop_
_space_group_symop_operation_xyz
x,y,z
-x,1/2-y,z
x,1/2-y,1/2-z
-x,y,1/2-z
-x,-y,-z
x,1/2+y,-z
-x,1/2+y,1/2+z
x,-y,1/2+z
1/2+x,1/2+y,z
1/2-x,-y,z
1/2+x,-y,1/2-z
1/2-x,1/2+y,1/2-z
1/2-x,1/2-y,-z
1/2+x,y,-z
1/2-x,y,1/2+z
1/2+x,1/2-y,1/2+z
loop_
_atom_site_type_symbol
_atom_site_label
_atom_site_fract_x
_atom_site_fract_y
_atom_site_fract_z
Si Si1 0.327808 0.636740 0.088888
Si Si2 0.006923 0.023234 0.837899
Si Si3 0.332569 0.322209 0.419339
O O1 0.175151 0.584128 0.136015
O O2 0.501400 0.579538 0.116747
O O3 0.329031 0.752385 0.104793
O O4 0.300304 0.625346 0.999217
O O5 0.000000 0.001414 0.750000
O O6 0.844165 0.092203 0.858119
O O7 0.500000 0.250000 0.424891
#
# Coordination Sequence:
#
# PCOD8282182 Si02
#       3
#    16  16  16
#     4   9  19  36  55  82 111 150 206 243 295 369
#     4  10  20  36  57  83 119 156 193 248 311 365
#     4   9  18  35  60  83 112 152 198 255 301 357
#
# _framework density 25.483378999999999
#
# number of rings (size 3 to 8) (size 9 to 14) (size 15 to 20)
#    0.000    2.667    0.000    1.000    0.000    6.000 
#    0.000   30.000    0.000    0.000    0.000    0.000 
#    0.000    0.000    0.000    0.000    0.000    0.000 
#
# Total GULP energy -297314.972661 kJ/mol
# GULP energy per Si atom -12388.123861 kJ/mol
# Density = 2.542538 g / cm^3
# Si number density = 25.483379 Si / 1000 Ang^3
#
#
#
# Elastic Constant Matrix: (Units=GPa)
#
#
# Indices 1 2 3 4 5 6 
#
# 1 44.6258 27.3755 10.1383 0.0000 0.0000 0.0000
# 2 27.3755 228.1756 122.0040 0.0000 0.0000 0.0000
# 3 10.1383 122.0040 173.2372 0.0000 0.0000 0.0000
# 4 0.0000 0.0000 0.0000 32.1782 0.0000 0.0000
# 5 0.0000 0.0000 0.0000 0.0000 30.7282 0.0000
# 6 0.0000 0.0000 0.0000 0.0000 0.0000 33.9019
#
#
#
# Elastic Compliance Matrix: (Units=1/GPa)
#
#
# Indices 1 2 3 4 5 6 
#
# 1 0.024299 -0.003457 0.001012 0.000000 0.000000 0.000000
# 2 -0.003457 0.007521 -0.005095 0.000000 0.000000 0.000000
# 3 0.001012 -0.005095 0.009301 0.000000 0.000000 0.000000
# 4 0.000000 0.000000 0.000000 0.031077 0.000000 0.000000
# 5 0.000000 0.000000 0.000000 0.000000 0.032543 0.000000
# 6 0.000000 0.000000 0.000000 0.000000 0.000000 0.029497
#
#
# Mechanical properties :
#
#
# Convention : Reuss Voigt Hill
#
# Bulk Modulus (GPa) = 38.39720 85.00823 61.70271
# Shear Modulus (GPa) = 31.64595 38.46304 35.05450
#
# Velocity S-wave (km/s) = 3.52778 3.88924 3.71291
# Velocity P-wave (km/s) = 5.62973 7.32113 6.53042
#
# Compressibility (1/GPa) = 0.02604357
#
# Stress axis : x y z
#
# Youngs Moduli (GPa) = 41.15401 132.95378 107.51282
#
# Poissons Ratio (x) = 0.45956 -0.10883
# Poissons Ratio (y) = 0.14225 0.54775
# Poissons Ratio (z) = -0.04166 0.67737
#
# Static dielectric constant tensor:
#      x y z
#    x 5.324440 0.000000 0.000000 
#    y 0.000000 6.122910 0.000000 
#    z 0.000000 0.000000 4.123060 
# 
# 
# High freq. dielectric constant tensor:
#      x y z
#    x 2.025670 0.000000 0.000000 
#    y 0.000000 2.051110 0.000000 
#    z 0.000000 0.000000 1.982000 
# 
# From -- ./inp_files/12411.got.cif
#   From: 2010.03.12/outbox.cif.g09.slc.cpg/sg68_7_cif.got.tgz:12411.got - 2010.04.10 23:14:56.
