data_PCOD8282074
_publ_section_title
;
Structure prediction by ZEFSAII (Michael W. Deem and Ramdas Pophale) SiO2 
 PCOD8282074
Probable space group: C C C A
;
_chemical_formula_sum "Si O2"
_cell_formula_units_Z 80
_cell_length_a 5.230415
_cell_length_b 29.217075
_cell_length_c 28.229559
_cell_angle_alpha 90.000000
_cell_angle_beta 90.000000
_cell_angle_gamma 90.000000
_cell_volume 4313.968581
_symmetry_space_group_name_H-M "C C C A"
_symmetry_group_IT_number 68
_space_group.IT_coordinate_system_code '2'
_symmetry_cell_setting 'orthorhombic'
loop_
_space_group_symop_operation_xyz
x,y,z
-x,1/2-y,z
x,1/2-y,1/2-z
-x,y,1/2-z
-x,-y,-z
x,1/2+y,-z
-x,1/2+y,1/2+z
x,-y,1/2+z
1/2+x,1/2+y,z
1/2-x,-y,z
1/2+x,-y,1/2-z
1/2-x,1/2+y,1/2-z
1/2-x,1/2-y,-z
1/2+x,y,-z
1/2-x,y,1/2+z
1/2+x,1/2-y,1/2+z
loop_
_atom_site_type_symbol
_atom_site_label
_atom_site_fract_x
_atom_site_fract_y
_atom_site_fract_z
Si Si1 0.242390 0.947239 0.030046
Si Si2 0.252486 0.769821 0.802934
Si Si3 0.182798 0.590572 0.870787
Si Si4 0.000000 0.561012 0.250000
Si Si5 0.800660 0.124759 0.679592
Si Si6 0.250000 0.000000 0.175265
O O1 0.266404 0.911316 0.073215
O O2 0.250000 0.000000 0.047445
O O3 0.470957 0.937029 0.993922
O O4 0.500000 0.750000 0.830384
O O5 0.250709 0.750000 0.750000
O O6 0.274675 0.824038 0.802071
O O7 0.000000 0.750000 0.829189
O O8 0.424405 0.613508 0.844229
O O9 0.114623 0.538263 0.856547
O O10 0.926137 0.617896 0.858050
O O11 0.777247 0.593659 0.272339
O O12 0.944942 0.527520 0.207189
#
# Coordination Sequence:
#
# PCOD8282074 Si02
#       6
#    16  16  16   8  16   8
#     4  10  20  36  58  82 108 147 189 229 285 343
#     4  10  20  35  55  76 104 142 183 229 278 331
#     4  11  22  37  53  80 115 142 190 232 274 324
#     4  10  20  34  49  72 106 154 203 222 258 320
#     4  11  23  35  55  79 110 149 187 237 273 319
#     4  10  20  32  48  70 104 156 186 228 256 300
#
# _framework density 18.544409000000002
#
# number of rings (size 3 to 8) (size 9 to 14) (size 15 to 20)
#    0.000    1.600    1.000    4.800    0.000    9.600 
#    0.000    0.000    0.000    0.000    0.000    0.000 
#    0.000   56.000    0.000    0.000    0.000    0.000 
#
# Total GULP energy -495556.282944 kJ/mol
# GULP energy per Si atom -12388.907074 kJ/mol
# Density = 1.850220 g / cm^3
# Si number density = 18.544409 Si / 1000 Ang^3
#
#
#
# Elastic Constant Matrix: (Units=GPa)
#
#
# Indices 1 2 3 4 5 6 
#
# 1 130.4507 40.5975 20.0819 0.0000 0.0000 0.0000
# 2 40.5975 132.0471 32.5772 0.0000 0.0000 0.0000
# 3 20.0819 32.5772 74.0691 0.0000 0.0000 0.0000
# 4 0.0000 0.0000 0.0000 29.3260 0.0000 0.0000
# 5 0.0000 0.0000 0.0000 0.0000 16.3910 0.0000
# 6 0.0000 0.0000 0.0000 0.0000 0.0000 20.5711
#
#
#
# Elastic Compliance Matrix: (Units=1/GPa)
#
#
# Indices 1 2 3 4 5 6 
#
# 1 0.008589 -0.002318 -0.001309 0.000000 0.000000 0.000000
# 2 -0.002318 0.009120 -0.003383 0.000000 0.000000 0.000000
# 3 -0.001309 -0.003383 0.015344 0.000000 0.000000 0.000000
# 4 0.000000 0.000000 0.000000 0.034099 0.000000 0.000000
# 5 0.000000 0.000000 0.000000 0.000000 0.061009 0.000000
# 6 0.000000 0.000000 0.000000 0.000000 0.000000 0.048612
#
#
# Mechanical properties :
#
#
# Convention : Reuss Voigt Hill
#
# Bulk Modulus (GPa) = 52.54012 58.12000 55.33006
# Shear Modulus (GPa) = 25.36312 29.47830 27.42071
#
# Velocity S-wave (km/s) = 3.70225 3.99131 3.84950
# Velocity P-wave (km/s) = 6.83148 7.25602 7.04695
#
# Compressibility (1/GPa) = 0.01903307
#
# Stress axis : x y z
#
# Youngs Moduli (GPa) = 116.43458 109.64719 65.17311
#
# Poissons Ratio (x) = 0.25411 0.08533
# Poissons Ratio (y) = 0.26984 0.22047
# Poissons Ratio (z) = 0.15244 0.37093
#
# Static dielectric constant tensor:
#      x y z
#    x 0.404960 0.000000 0.000000 
#    y 0.000000 3.470100 0.000000 
#    z 0.000000 0.000000 3.375140 
# 
# 
# High freq. dielectric constant tensor:
#      x y z
#    x 1.733040 0.000000 0.000000 
#    y 0.000000 1.709210 0.000000 
#    z 0.000000 0.000000 1.688960 
# 
# From -- ./inp_files/48442.got.cif
#   From: 2010.03.12/outbox.cif.g09.slc.cpg/sg68_25_cif.got.tgz:48442.got - 2010.04.10 23:14:56.
