data_PCOD8282654
_publ_section_title
;
Structure prediction by ZEFSAII (Michael W. Deem and Ramdas Pophale) SiO2 
 PCOD8282654
Probable space group: C C C A
;
_chemical_formula_sum "Si O2"
_cell_formula_units_Z 80
_cell_length_a 20.550394
_cell_length_b 7.693253
_cell_length_c 21.354446
_cell_angle_alpha 90.000000
_cell_angle_beta 90.000000
_cell_angle_gamma 90.000000
_cell_volume 3376.124679
_symmetry_space_group_name_H-M "C C C A"
_symmetry_group_IT_number 68
_space_group.IT_coordinate_system_code '2'
_symmetry_cell_setting 'orthorhombic'
loop_
_space_group_symop_operation_xyz
x,y,z
-x,1/2-y,z
x,1/2-y,1/2-z
-x,y,1/2-z
-x,-y,-z
x,1/2+y,-z
-x,1/2+y,1/2+z
x,-y,1/2+z
1/2+x,1/2+y,z
1/2-x,-y,z
1/2+x,-y,1/2-z
1/2-x,1/2+y,1/2-z
1/2-x,1/2-y,-z
1/2+x,y,-z
1/2-x,y,1/2+z
1/2+x,1/2-y,1/2+z
loop_
_atom_site_type_symbol
_atom_site_label
_atom_site_fract_x
_atom_site_fract_y
_atom_site_fract_z
Si Si1 0.553816 0.602771 0.178468
Si Si2 0.629185 0.275555 0.566083
Si Si3 0.000000 0.750000 0.150810
Si Si4 0.751657 0.191709 0.128010
Si Si5 0.170148 0.250000 0.250000
Si Si6 0.878128 0.867477 0.077947
O O1 0.500000 0.750000 0.195773
O O2 0.574400 0.620279 0.105166
O O3 0.522415 0.414502 0.192671
O O4 0.620195 0.610519 0.219814
O O5 0.702717 0.324256 0.588687
O O6 0.623581 0.311508 0.493822
O O7 0.623557 0.074148 0.585445
O O8 0.054616 0.691168 0.104051
O O9 0.780205 0.173616 0.198457
O O10 0.675718 0.241654 0.119065
O O11 0.750000 0.000000 0.096657
#
# Coordination Sequence:
#
# PCOD8282654 Si02
#       6
#    16  16   8  16   8  16
#     4  11  23  45  68 103 141 180 230 282 348 416
#     4  10  21  39  67  96 142 182 228 288 346 413
#     4  12  26  40  71 106 142 179 230 282 348 438
#     4   9  21  41  65  93 133 180 236 293 346 404
#     4  10  23  44  74  91 130 194 232 296 352 403
#     4  11  22  39  64 105 141 184 231 285 353 422
#
# _framework density 23.695806999999999
#
# number of rings (size 3 to 8) (size 9 to 14) (size 15 to 20)
#    0.000    1.600    2.000    2.100    1.400    3.200 
#    0.000    9.000    0.000    0.000    0.000    0.000 
#    0.000    0.000    0.000    0.000    0.000    0.000 
#
# Total GULP energy -495531.720703 kJ/mol
# GULP energy per Si atom -12388.293018 kJ/mol
# Density = 2.364187 g / cm^3
# Si number density = 23.695807 Si / 1000 Ang^3
#
#
#
# Elastic Constant Matrix: (Units=GPa)
#
#
# Indices 1 2 3 4 5 6 
#
# 1 142.9198 27.5997 53.1024 0.0000 0.0000 0.0000
# 2 27.5997 111.5057 12.2333 0.0000 0.0000 0.0000
# 3 53.1024 12.2333 125.2950 0.0000 0.0000 0.0000
# 4 0.0000 0.0000 0.0000 5.5588 0.0000 0.0000
# 5 0.0000 0.0000 0.0000 0.0000 38.3879 0.0000
# 6 0.0000 0.0000 0.0000 0.0000 0.0000 20.2724
#
#
#
# Elastic Compliance Matrix: (Units=1/GPa)
#
#
# Indices 1 2 3 4 5 6 
#
# 1 0.008631 -0.001754 -0.003487 0.000000 0.000000 0.000000
# 2 -0.001754 0.009422 -0.000177 0.000000 0.000000 0.000000
# 3 -0.003487 -0.000177 0.009476 0.000000 0.000000 0.000000
# 4 0.000000 0.000000 0.000000 0.179897 0.000000 0.000000
# 5 0.000000 0.000000 0.000000 0.000000 0.026050 0.000000
# 6 0.000000 0.000000 0.000000 0.000000 0.000000 0.049328
#
#
# Mechanical properties :
#
#
# Convention : Reuss Voigt Hill
#
# Bulk Modulus (GPa) = 59.89989 62.84347 61.37168
# Shear Modulus (GPa) = 16.71107 31.96280 24.33693
#
# Velocity S-wave (km/s) = 2.65850 3.67669 3.20825
# Velocity P-wave (km/s) = 5.89551 6.67852 6.29919
#
# Compressibility (1/GPa) = 0.01669452
#
# Stress axis : x y z
#
# Youngs Moduli (GPa) = 115.85931 106.13876 105.52766
#
# Poissons Ratio (x) = 0.18615 0.36796
# Poissons Ratio (y) = 0.20320 0.01863
# Poissons Ratio (z) = 0.40398 0.01874
#
# Static dielectric constant tensor:
#      x y z
#    x 4.845090 0.000000 0.000000 
#    y 0.000000 -1.595200 0.000000 
#    z 0.000000 0.000000 4.106570 
# 
# 
# High freq. dielectric constant tensor:
#      x y z
#    x 1.964740 0.000000 0.000000 
#    y 0.000000 1.920050 0.000000 
#    z 0.000000 0.000000 1.938250 
# 
# From -- ./inp_files/46408.got.cif
#   From: 2010.03.12/outbox.cif.g09.slc.cpg/sg68_24_cif.got.tgz:46408.got - 2010.04.10 23:14:56.
