data_PCOD8282291
_publ_section_title
;
Structure prediction by ZEFSAII (Michael W. Deem and Ramdas Pophale) SiO2 
 PCOD8282291
Probable space group: C C C A
;
_chemical_formula_sum "Si O2"
_cell_formula_units_Z 84
_cell_length_a 13.904915
_cell_length_b 22.923468
_cell_length_c 12.698929
_cell_angle_alpha 90.000000
_cell_angle_beta 90.000000
_cell_angle_gamma 90.000000
_cell_volume 4047.769320
_symmetry_space_group_name_H-M "C C C A"
_symmetry_group_IT_number 68
_space_group.IT_coordinate_system_code '2'
_symmetry_cell_setting 'orthorhombic'
loop_
_space_group_symop_operation_xyz
x,y,z
-x,1/2-y,z
x,1/2-y,1/2-z
-x,y,1/2-z
-x,-y,-z
x,1/2+y,-z
-x,1/2+y,1/2+z
x,-y,1/2+z
1/2+x,1/2+y,z
1/2-x,-y,z
1/2+x,-y,1/2-z
1/2-x,1/2+y,1/2-z
1/2-x,1/2-y,-z
1/2+x,y,-z
1/2-x,y,1/2+z
1/2+x,1/2-y,1/2+z
loop_
_atom_site_type_symbol
_atom_site_label
_atom_site_fract_x
_atom_site_fract_y
_atom_site_fract_z
Si Si1 0.497970 0.671007 0.367649
Si Si2 0.000000 0.250000 0.750000
Si Si3 0.813188 0.337484 0.486249
Si Si4 0.156925 0.532730 0.491228
Si Si5 0.973750 0.040472 0.363451
Si Si6 0.621481 0.781707 0.561459
O O1 0.500000 0.698883 0.250000
O O2 0.610038 0.662745 0.392740
O O3 0.444783 0.608660 0.367094
O O4 0.443324 0.710680 0.455206
O O5 0.061865 0.290974 0.669938
O O6 0.817978 0.400646 0.541985
O O7 0.707353 0.328231 0.437468
O O8 0.837128 0.284530 0.566370
O O9 0.250000 0.500000 0.539269
O O10 0.121122 0.496578 0.390568
O O11 0.068426 0.528046 0.569820
O O12 0.000000 0.018147 0.250000
#
# Coordination Sequence:
#
# PCOD8282291 Si02
#       6
#    16   4  16  16  16  16
#     4  10  20  40  67  92 123 166 212 269 323 384
#     4  12  24  44  62  88 138 172 208 274 336 394
#     4  10  22  39  62  91 122 166 213 261 321 387
#     4  10  20  38  61  86 123 162 204 260 310 378
#     4   9  20  38  62  92 122 158 209 262 316 376
#     4  11  23  41  61  92 130 164 213 265 328 394
#
# _framework density 20.752172000000002
#
# number of rings (size 3 to 8) (size 9 to 14) (size 15 to 20)
#    0.000    1.905    1.905    1.143    0.000    5.333 
#    1.714    3.810    0.000    0.000    0.000    0.000 
#    0.000    0.000    0.000    0.000    0.000    0.000 
#
# Total GULP energy -520429.179125 kJ/mol
# GULP energy per Si atom -12391.170932 kJ/mol
# Density = 2.070494 g / cm^3
# Si number density = 20.752172 Si / 1000 Ang^3
#
#
#
# Elastic Constant Matrix: (Units=GPa)
#
#
# Indices 1 2 3 4 5 6 
#
# 1 121.0746 52.6998 31.5639 0.0000 0.0000 0.0000
# 2 52.6998 148.2378 34.6342 0.0000 0.0000 0.0000
# 3 31.5639 34.6342 114.8073 0.0000 0.0000 0.0000
# 4 0.0000 0.0000 0.0000 21.6473 0.0000 0.0000
# 5 0.0000 0.0000 0.0000 0.0000 20.0394 0.0000
# 6 0.0000 0.0000 0.0000 0.0000 0.0000 44.5433
#
#
#
# Elastic Compliance Matrix: (Units=1/GPa)
#
#
# Indices 1 2 3 4 5 6 
#
# 1 0.010115 -0.003170 -0.001825 0.000000 0.000000 0.000000
# 2 -0.003170 0.008251 -0.001618 0.000000 0.000000 0.000000
# 3 -0.001825 -0.001618 0.009700 0.000000 0.000000 0.000000
# 4 0.000000 0.000000 0.000000 0.046195 0.000000 0.000000
# 5 0.000000 0.000000 0.000000 0.000000 0.049902 0.000000
# 6 0.000000 0.000000 0.000000 0.000000 0.000000 0.022450
#
#
# Mechanical properties :
#
#
# Convention : Reuss Voigt Hill
#
# Bulk Modulus (GPa) = 67.37812 69.10173 68.23992
# Shear Modulus (GPa) = 30.34299 34.92747 32.63523
#
# Velocity S-wave (km/s) = 3.82797 4.10698 3.96993
# Velocity P-wave (km/s) = 7.21639 7.47399 7.34632
#
# Compressibility (1/GPa) = 0.01484161
#
# Stress axis : x y z
#
# Youngs Moduli (GPa) = 98.86646 121.20261 103.09404
#
# Poissons Ratio (x) = 0.38416 0.18811
# Poissons Ratio (y) = 0.31336 0.16676
# Poissons Ratio (z) = 0.18040 0.19606
#
# Static dielectric constant tensor:
#      x y z
#    x 4.004600 0.000000 0.000000 
#    y 0.000000 3.987090 0.000000 
#    z 0.000000 0.000000 3.570920 
# 
# 
# High freq. dielectric constant tensor:
#      x y z
#    x 1.824790 0.000000 0.000000 
#    y 0.000000 1.819300 0.000000 
#    z 0.000000 0.000000 1.783410 
# 
# From -- ./inp_files/13304.got.cif
#   From: 2010.03.12/outbox.cif.g09.slc.cpg/sg68_7_cif.got.tgz:13304.got - 2010.04.10 23:14:56.
