data_PCOD8282315
_publ_section_title
;
Structure prediction by ZEFSAII (Michael W. Deem and Ramdas Pophale) SiO2 
 PCOD8282315
Probable space group: C C C A
;
_chemical_formula_sum "Si O2"
_cell_formula_units_Z 104
_cell_length_a 21.335931
_cell_length_b 9.156045
_cell_length_c 26.609031
_cell_angle_alpha 90.000000
_cell_angle_beta 90.000000
_cell_angle_gamma 90.000000
_cell_volume 5198.147230
_symmetry_space_group_name_H-M "C C C A"
_symmetry_group_IT_number 68
_space_group.IT_coordinate_system_code '2'
_symmetry_cell_setting 'orthorhombic'
loop_
_space_group_symop_operation_xyz
x,y,z
-x,1/2-y,z
x,1/2-y,1/2-z
-x,y,1/2-z
-x,-y,-z
x,1/2+y,-z
-x,1/2+y,1/2+z
x,-y,1/2+z
1/2+x,1/2+y,z
1/2-x,-y,z
1/2+x,-y,1/2-z
1/2-x,1/2+y,1/2-z
1/2-x,1/2-y,-z
1/2+x,y,-z
1/2-x,y,1/2+z
1/2+x,1/2-y,1/2+z
loop_
_atom_site_type_symbol
_atom_site_label
_atom_site_fract_x
_atom_site_fract_y
_atom_site_fract_z
Si Si1 0.565554 0.795658 0.456614
Si Si2 0.500000 0.250000 0.142093
Si Si3 0.684653 0.813319 0.601340
Si Si4 0.676616 0.856352 0.100018
Si Si5 0.617679 0.348161 0.298384
Si Si6 0.308134 0.111103 0.786037
Si Si7 0.919698 0.629184 0.057408
O O1 0.500000 0.750000 0.429531
O O2 0.622965 0.739430 0.423988
O O3 0.559997 0.733484 0.512493
O O4 0.577552 0.966427 0.462843
O O5 0.549172 0.161752 0.176278
O O6 0.464600 0.136315 0.105963
O O7 0.755312 0.805255 0.580509
O O8 0.672663 0.800807 0.661867
O O9 0.649409 0.682304 0.573345
O O10 0.659583 0.975676 0.587341
O O11 0.685133 0.824446 0.158620
O O12 0.622367 0.250000 0.250000
O O13 0.629108 0.513124 0.278362
O O14 0.304193 0.250000 0.750000
O O15 0.250000 0.000000 0.778764
#
# Coordination Sequence:
#
# PCOD8282315 Si02
#       7
#    16   8  16  16  16  16  16
#     4  12  26  40  66  92 129 165 218 267 329 392
#     4  10  23  40  70  84 132 170 225 254 322 398
#     4   9  20  40  67  90 127 165 214 262 328 377
#     4  10  21  42  64  94 128 171 208 274 324 382
#     4  10  20  38  65  96 126 174 213 263 320 387
#     4  11  22  39  67  99 131 171 214 268 327 386
#     4  11  24  42  64  95 117 175 215 271 321 397
#
# _framework density 20.00713
#
# number of rings (size 3 to 8) (size 9 to 14) (size 15 to 20)
#    0.000    1.538    3.846    2.077    6.462    3.692 
#    0.000    0.000    0.000    0.000    0.000    0.000 
#    0.000    0.000    0.000    0.000    0.000    0.000 
#
# Total GULP energy -644357.024381 kJ/mol
# GULP energy per Si atom -12391.481238 kJ/mol
# Density = 1.996159 g / cm^3
# Si number density = 20.007130 Si / 1000 Ang^3
#
#
#
# Elastic Constant Matrix: (Units=GPa)
#
#
# Indices 1 2 3 4 5 6 
#
# 1 121.1482 56.2383 55.7713 0.0000 0.0000 0.0000
# 2 56.2383 139.6276 68.1105 0.0000 0.0000 0.0000
# 3 55.7713 68.1105 77.0359 0.0000 0.0000 0.0000
# 4 0.0000 0.0000 0.0000 34.8782 0.0000 0.0000
# 5 0.0000 0.0000 0.0000 0.0000 -34.9864 0.0000
# 6 0.0000 0.0000 0.0000 0.0000 0.0000 23.2788
#
#
#
# Elastic Compliance Matrix: (Units=1/GPa)
#
#
# Indices 1 2 3 4 5 6 
#
# 1 0.012474 -0.001088 -0.008068 0.000000 0.000000 0.000000
# 2 -0.001088 0.012688 -0.010430 0.000000 0.000000 0.000000
# 3 -0.008068 -0.010430 0.028044 0.000000 0.000000 0.000000
# 4 0.000000 0.000000 0.000000 0.028671 0.000000 0.000000
# 5 0.000000 0.000000 0.000000 0.000000 -0.028583 0.000000
# 6 0.000000 0.000000 0.000000 0.000000 0.000000 0.042957
#
#
# Mechanical properties :
#
#
# Convention : Reuss Voigt Hill
#
# Bulk Modulus (GPa) = 71.26508 77.56132 74.41320
# Shear Modulus (GPa) = 35.68799 15.14690 25.41744
#
# Velocity S-wave (km/s) = 4.22804 2.75448 3.56816
# Velocity P-wave (km/s) = 7.71572 6.99766 7.36544
#
# Compressibility (1/GPa) = 0.01403212
#
# Stress axis : x y z
#
# Youngs Moduli (GPa) = 80.16712 78.81410 35.65845
#
# Poissons Ratio (x) = 0.08578 0.28771
# Poissons Ratio (y) = 0.08725 0.37192
# Poissons Ratio (z) = 0.64682 0.82204
#
# Static dielectric constant tensor:
#      x y z
#    x 3.929060 0.000000 0.000000 
#    y 0.000000 3.643820 0.000000 
#    z 0.000000 0.000000 3.633120 
# 
# 
# High freq. dielectric constant tensor:
#      x y z
#    x 1.791450 0.000000 0.000000 
#    y 0.000000 1.770000 0.000000 
#    z 0.000000 0.000000 1.776890 
# 
# From -- ./inp_files/51865.got.cif
#   From: 2010.03.12/outbox.cif.g09.slc.cpg/sg68_26_cif.got.tgz:51865.got - 2010.04.10 23:14:56.
