data_PCOD8282586
_publ_section_title
;
Structure prediction by ZEFSAII (Michael W. Deem and Ramdas Pophale) SiO2 
 PCOD8282586
Probable space group: C C C A
;
_chemical_formula_sum "Si O2"
_cell_formula_units_Z 96
_cell_length_a 23.056089
_cell_length_b 17.753269
_cell_length_c 11.713945
_cell_angle_alpha 90.000000
_cell_angle_beta 90.000000
_cell_angle_gamma 90.000000
_cell_volume 4794.763097
_symmetry_space_group_name_H-M "C C C A"
_symmetry_group_IT_number 68
_space_group.IT_coordinate_system_code '2'
_symmetry_cell_setting 'orthorhombic'
loop_
_space_group_symop_operation_xyz
x,y,z
-x,1/2-y,z
x,1/2-y,1/2-z
-x,y,1/2-z
-x,-y,-z
x,1/2+y,-z
-x,1/2+y,1/2+z
x,-y,1/2+z
1/2+x,1/2+y,z
1/2-x,-y,z
1/2+x,-y,1/2-z
1/2-x,1/2+y,1/2-z
1/2-x,1/2-y,-z
1/2+x,y,-z
1/2-x,y,1/2+z
1/2+x,1/2-y,1/2+z
loop_
_atom_site_type_symbol
_atom_site_label
_atom_site_fract_x
_atom_site_fract_y
_atom_site_fract_z
Si Si1 0.173881 0.926841 0.146734
Si Si2 0.378055 0.909253 0.891480
Si Si3 0.302430 0.903680 0.103556
Si Si4 0.523030 0.335588 0.509296
Si Si5 0.903091 0.665459 0.722914
Si Si6 0.085289 0.073686 0.451939
O O1 0.143095 0.899583 0.262357
O O2 0.235056 0.885599 0.123126
O O3 0.181928 0.015989 0.158557
O O4 0.136017 0.904125 0.038479
O O5 0.412937 0.985678 0.921569
O O6 0.320204 0.903114 0.969853
O O7 0.425125 0.843505 0.916402
O O8 0.338849 0.840878 0.170276
O O9 0.500000 0.250000 0.505346
O O10 0.548764 0.360291 0.632038
O O11 0.473366 0.397809 0.486495
O O12 0.917534 0.750000 0.750000
O O13 0.906998 0.617545 0.835583
#
# Coordination Sequence:
#
# PCOD8282586 Si02
#       6
#    16  16  16  16  16  16
#     4  10  21  38  62  93 124 162 202 262 316 368
#     4  10  22  40  61  94 128 160 208 260 318 372
#     4   9  21  37  63  90 122 162 205 254 314 372
#     4  11  23  41  63  89 124 167 210 255 313 374
#     4  11  21  39  65  91 119 162 212 261 301 366
#     4  11  22  38  62  95 123 160 218 256 309 371
#
# _framework density 20.021844999999999
#
# number of rings (size 3 to 8) (size 9 to 14) (size 15 to 20)
#    0.000    1.667    3.333    1.000    2.333    2.000 
#    3.000    4.167    0.000    0.000    0.000    0.000 
#    0.000    0.000    0.000    0.000    0.000    0.000 
#
# Total GULP energy -595114.917356 kJ/mol
# GULP energy per Si atom -12398.227445 kJ/mol
# Density = 1.997627 g / cm^3
# Si number density = 20.021845 Si / 1000 Ang^3
#
#
#
# Elastic Constant Matrix: (Units=GPa)
#
#
# Indices 1 2 3 4 5 6 
#
# 1 152.2565 39.3794 55.4960 0.0000 0.0000 0.0000
# 2 39.3794 45.7121 26.9675 0.0000 0.0000 0.0000
# 3 55.4960 26.9675 104.5968 0.0000 0.0000 0.0000
# 4 0.0000 0.0000 0.0000 24.0574 0.0000 0.0000
# 5 0.0000 0.0000 0.0000 0.0000 29.9616 0.0000
# 6 0.0000 0.0000 0.0000 0.0000 0.0000 32.2250
#
#
#
# Elastic Compliance Matrix: (Units=1/GPa)
#
#
# Indices 1 2 3 4 5 6 
#
# 1 0.009381 -0.006068 -0.003413 0.000000 0.000000 0.000000
# 2 -0.006068 0.029726 -0.004444 0.000000 0.000000 0.000000
# 3 -0.003413 -0.004444 0.012517 0.000000 0.000000 0.000000
# 4 0.000000 0.000000 0.000000 0.041567 0.000000 0.000000
# 5 0.000000 0.000000 0.000000 0.000000 0.033376 0.000000
# 6 0.000000 0.000000 0.000000 0.000000 0.000000 0.031032
#
#
# Mechanical properties :
#
#
# Convention : Reuss Voigt Hill
#
# Bulk Modulus (GPa) = 42.06442 60.69458 51.37950
# Shear Modulus (GPa) = 25.85658 29.29698 27.57678
#
# Velocity S-wave (km/s) = 3.59753 3.82940 3.71527
# Velocity P-wave (km/s) = 6.18960 7.06628 6.64242
#
# Compressibility (1/GPa) = 0.02377306
#
# Stress axis : x y z
#
# Youngs Moduli (GPa) = 106.59470 33.64110 79.89036
#
# Poissons Ratio (x) = 0.20414 0.27266
# Poissons Ratio (y) = 0.64685 0.35506
# Poissons Ratio (z) = 0.36380 0.14951
#
# Static dielectric constant tensor:
#      x y z
#    x 3.887510 0.000000 0.000000 
#    y 0.000000 3.175610 0.000000 
#    z 0.000000 0.000000 3.538480 
# 
# 
# High freq. dielectric constant tensor:
#      x y z
#    x 1.794400 0.000000 0.000000 
#    y 0.000000 1.759060 0.000000 
#    z 0.000000 0.000000 1.784320 
# 
# From -- ./inp_files/14601.got.cif
#   From: 2010.03.12/outbox.cif.g09.slc.cpg/sg68_8_cif.got.tgz:14601.got - 2010.04.10 23:14:56.
