data_PCOD8282257
_publ_section_title
;
Structure prediction by ZEFSAII (Michael W. Deem and Ramdas Pophale) SiO2 
 PCOD8282257
Probable space group: C C C A
;
_chemical_formula_sum "Si O2"
_cell_formula_units_Z 96
_cell_length_a 11.702658
_cell_length_b 26.911050
_cell_length_c 14.332482
_cell_angle_alpha 90.000000
_cell_angle_beta 90.000000
_cell_angle_gamma 90.000000
_cell_volume 4513.740231
_symmetry_space_group_name_H-M "C C C A"
_symmetry_group_IT_number 68
_space_group.IT_coordinate_system_code '2'
_symmetry_cell_setting 'orthorhombic'
loop_
_space_group_symop_operation_xyz
x,y,z
-x,1/2-y,z
x,1/2-y,1/2-z
-x,y,1/2-z
-x,-y,-z
x,1/2+y,-z
-x,1/2+y,1/2+z
x,-y,1/2+z
1/2+x,1/2+y,z
1/2-x,-y,z
1/2+x,-y,1/2-z
1/2-x,1/2+y,1/2-z
1/2-x,1/2-y,-z
1/2+x,y,-z
1/2-x,y,1/2+z
1/2+x,1/2-y,1/2+z
loop_
_atom_site_type_symbol
_atom_site_label
_atom_site_fract_x
_atom_site_fract_y
_atom_site_fract_z
Si Si1 0.119288 0.492362 0.601149
Si Si2 0.222961 0.250000 0.250000
Si Si3 0.920066 0.364151 0.608469
Si Si4 0.021394 0.917581 0.550613
Si Si5 0.828705 0.826191 0.894663
Si Si6 0.500000 0.062878 0.250000
Si Si7 0.602124 0.711561 0.904762
O O1 0.250000 0.500000 0.582914
O O2 0.086852 0.453728 0.520203
O O3 0.097121 0.468597 0.700266
O O4 0.052170 0.544708 0.612085
O O5 0.142436 0.209190 0.195626
O O6 0.300566 0.274965 0.169426
O O7 0.807659 0.331306 0.615965
O O8 0.929673 0.383071 0.502309
O O9 0.915827 0.408999 0.679976
O O10 0.038887 0.336877 0.635231
O O11 0.105981 0.879831 0.608059
O O12 0.847259 0.797876 0.992171
O O13 0.500000 0.750000 0.916324
#
# Coordination Sequence:
#
# PCOD8282257 Si02
#       7
#    16   8  16  16  16   8  16
#     4  10  20  39  65  89 128 167 216 262 343 401
#     4  12  23  38  65  98 128 180 227 285 328 392
#     4  10  20  37  62  87 123 162 222 265 326 383
#     4   9  21  39  61  93 121 171 213 270 323 415
#     4  11  23  39  65  93 132 170 222 272 340 382
#     4  10  22  36  59  94 120 155 214 278 314 404
#     4  11  23  40  66  90 127 177 232 268 316 390
#
# _framework density 21.268391999999999
#
# number of rings (size 3 to 8) (size 9 to 14) (size 15 to 20)
#    0.000    1.667    1.667    2.750    0.000    1.333 
#    0.000    3.750    3.667    0.000    0.000    0.000 
#    0.000    0.000    0.000    0.000    0.000    0.000 
#
# Total GULP energy -594629.093977 kJ/mol
# GULP energy per Si atom -12388.106125 kJ/mol
# Density = 2.121998 g / cm^3
# Si number density = 21.268392 Si / 1000 Ang^3
#
#
#
# Elastic Constant Matrix: (Units=GPa)
#
#
# Indices 1 2 3 4 5 6 
#
# 1 69.4461 35.3463 43.2450 0.0000 0.0000 0.0000
# 2 35.3463 126.1288 59.4406 0.0000 0.0000 0.0000
# 3 43.2450 59.4406 92.1294 0.0000 0.0000 0.0000
# 4 0.0000 0.0000 0.0000 -6.0545 0.0000 0.0000
# 5 0.0000 0.0000 0.0000 0.0000 32.7101 0.0000
# 6 0.0000 0.0000 0.0000 0.0000 0.0000 19.0096
#
#
#
# Elastic Compliance Matrix: (Units=1/GPa)
#
#
# Indices 1 2 3 4 5 6 
#
# 1 0.020612 -0.001748 -0.008547 0.000000 0.000000 0.000000
# 2 -0.001748 0.011541 -0.006625 0.000000 0.000000 0.000000
# 3 -0.008547 -0.006625 0.019141 0.000000 0.000000 0.000000
# 4 0.000000 0.000000 0.000000 -0.165167 0.000000 0.000000
# 5 0.000000 0.000000 0.000000 0.000000 0.030572 0.000000
# 6 0.000000 0.000000 0.000000 0.000000 0.000000 0.052605
#
#
# Mechanical properties :
#
#
# Convention : Reuss Voigt Hill
#
# Bulk Modulus (GPa) = 57.29991 62.64089 59.97040
# Shear Modulus (GPa) = 557.92096 19.11120 288.51608
#
# Velocity S-wave (km/s) = 16.21399 3.00087 11.65973
# Velocity P-wave (km/s) = 19.42999 6.44387 14.47494
#
# Compressibility (1/GPa) = 0.01745203
#
# Stress axis : x y z
#
# Youngs Moduli (GPa) = 48.51565 86.65061 52.24454
#
# Poissons Ratio (x) = 0.15149 0.44654
# Poissons Ratio (y) = 0.08482 0.34613
# Poissons Ratio (z) = 0.41467 0.57408
#
# Static dielectric constant tensor:
#      x y z
#    x 3.697480 0.000000 0.000000 
#    y 0.000000 4.479960 0.000000 
#    z 0.000000 0.000000 3.747280 
# 
# 
# High freq. dielectric constant tensor:
#      x y z
#    x 1.819140 0.000000 0.000000 
#    y 0.000000 1.855860 0.000000 
#    z 0.000000 0.000000 1.828490 
# 
# From -- ./inp_files/21207.got.cif
#   From: 2010.03.12/outbox.cif.g09.slc.cpg/sg68_11_cif.got.tgz:21207.got - 2010.04.10 23:14:56.
