data_PCOD8282659
_publ_section_title
;
Structure prediction by ZEFSAII (Michael W. Deem and Ramdas Pophale) SiO2 
 PCOD8282659
Probable space group: C C C A
;
_chemical_formula_sum "Si O2"
_cell_formula_units_Z 68
_cell_length_a 22.477920
_cell_length_b 29.568993
_cell_length_c 5.168023
_cell_angle_alpha 90.000000
_cell_angle_beta 90.000000
_cell_angle_gamma 90.000000
_cell_volume 3434.923692
_symmetry_space_group_name_H-M "C C C A"
_symmetry_group_IT_number 68
_space_group.IT_coordinate_system_code '2'
_symmetry_cell_setting 'orthorhombic'
loop_
_space_group_symop_operation_xyz
x,y,z
-x,1/2-y,z
x,1/2-y,1/2-z
-x,y,1/2-z
-x,-y,-z
x,1/2+y,-z
-x,1/2+y,1/2+z
x,-y,1/2+z
1/2+x,1/2+y,z
1/2-x,-y,z
1/2+x,-y,1/2-z
1/2-x,1/2+y,1/2-z
1/2-x,1/2-y,-z
1/2+x,y,-z
1/2-x,y,1/2+z
1/2+x,1/2-y,1/2+z
loop_
_atom_site_type_symbol
_atom_site_label
_atom_site_fract_x
_atom_site_fract_y
_atom_site_fract_z
Si Si1 0.905793 0.680446 0.133345
Si Si2 0.500000 0.750000 0.750000
Si Si3 0.429538 0.975634 0.220884
Si Si4 0.932593 0.626340 0.656076
Si Si5 0.274697 0.700249 0.934709
O O1 0.956396 0.718485 0.077938
O O2 0.924939 0.650017 0.378259
O O3 0.841946 0.703501 0.171872
O O4 0.895386 0.651265 0.876636
O O5 0.500000 0.979624 0.250000
O O6 0.410031 0.925141 0.142305
O O7 0.403504 0.991327 0.497715
O O8 0.000000 0.628081 0.750000
O O9 0.235507 0.675009 0.710310
O O10 0.250000 0.750000 0.000000
#
# Coordination Sequence:
#
# PCOD8282659 Si02
#       5
#    16   4  16  16  16
#     4  12  24  37  58  81 117 157 197 237 294 345
#     4  12  24  38  52  82 112 162 192 216 288 358
#     4   9  17  30  53  78 109 155 188 216 270 347
#     4  11  21  38  52  85 125 150 187 236 286 350
#     4  10  21  40  58  78 102 145 200 259 284 316
#
# _framework density 19.796657
#
# number of rings (size 3 to 8) (size 9 to 14) (size 15 to 20)
#    0.000    1.412    2.353    4.235    0.000    7.529 
#    0.000    0.000    0.000    0.000    0.000    0.000 
#    0.000   65.882    0.000    0.000    0.000    0.000 
#
# Total GULP energy -421239.065386 kJ/mol
# GULP energy per Si atom -12389.384276 kJ/mol
# Density = 1.975160 g / cm^3
# Si number density = 19.796657 Si / 1000 Ang^3
#
#
#
# Elastic Constant Matrix: (Units=GPa)
#
#
# Indices 1 2 3 4 5 6 
#
# 1 90.4495 29.2579 15.0517 0.0000 0.0000 0.0000
# 2 29.2579 112.6366 48.0258 0.0000 0.0000 0.0000
# 3 15.0517 48.0258 152.5229 0.0000 0.0000 0.0000
# 4 0.0000 0.0000 0.0000 22.8004 0.0000 0.0000
# 5 0.0000 0.0000 0.0000 0.0000 21.4666 0.0000
# 6 0.0000 0.0000 0.0000 0.0000 0.0000 9.8057
#
#
#
# Elastic Compliance Matrix: (Units=1/GPa)
#
#
# Indices 1 2 3 4 5 6 
#
# 1 0.012077 -0.003037 -0.000236 0.000000 0.000000 0.000000
# 2 -0.003037 0.011018 -0.003170 0.000000 0.000000 0.000000
# 3 -0.000236 -0.003170 0.007578 0.000000 0.000000 0.000000
# 4 0.000000 0.000000 0.000000 0.043859 0.000000 0.000000
# 5 0.000000 0.000000 0.000000 0.000000 0.046584 0.000000
# 6 0.000000 0.000000 0.000000 0.000000 0.000000 0.101981
#
#
# Mechanical properties :
#
#
# Convention : Reuss Voigt Hill
#
# Bulk Modulus (GPa) = 56.21353 60.03109 58.12231
# Shear Modulus (GPa) = 20.66870 28.36612 24.51741
#
# Velocity S-wave (km/s) = 3.23468 3.78944 3.52300
# Velocity P-wave (km/s) = 6.51214 7.03819 6.78027
#
# Compressibility (1/GPa) = 0.01778931
#
# Stress axis : x y z
#
# Youngs Moduli (GPa) = 82.79939 90.75715 131.96562
#
# Poissons Ratio (x) = 0.27560 0.03110
# Poissons Ratio (y) = 0.25143 0.41830
# Poissons Ratio (z) = 0.01951 0.28768
#
# Static dielectric constant tensor:
#      x y z
#    x 3.354920 0.000000 0.000000 
#    y 0.000000 3.533640 0.000000 
#    z 0.000000 0.000000 0.223130 
# 
# 
# High freq. dielectric constant tensor:
#      x y z
#    x 1.731860 0.000000 0.000000 
#    y 0.000000 1.751360 0.000000 
#    z 0.000000 0.000000 1.797900 
# 
# From -- ./inp_files/1524.got.cif
#   From: 2010.03.12/outbox.cif.g09.slc.cpg/sg68_1_cif.got.tgz:1524.got - 2010.04.10 23:14:56.
