data_PCOD8282567
_publ_section_title
;
Structure prediction by ZEFSAII (Michael W. Deem and Ramdas Pophale) SiO2 
 PCOD8282567
Probable space group: C C C A
;
_chemical_formula_sum "Si O2"
_cell_formula_units_Z 80
_cell_length_a 25.491065
_cell_length_b 28.656378
_cell_length_c 5.235589
_cell_angle_alpha 90.000000
_cell_angle_beta 90.000000
_cell_angle_gamma 90.000000
_cell_volume 3824.501400
_symmetry_space_group_name_H-M "C C C A"
_symmetry_group_IT_number 68
_space_group.IT_coordinate_system_code '2'
_symmetry_cell_setting 'orthorhombic'
loop_
_space_group_symop_operation_xyz
x,y,z
-x,1/2-y,z
x,1/2-y,1/2-z
-x,y,1/2-z
-x,-y,-z
x,1/2+y,-z
-x,1/2+y,1/2+z
x,-y,1/2+z
1/2+x,1/2+y,z
1/2-x,-y,z
1/2+x,-y,1/2-z
1/2-x,1/2+y,1/2-z
1/2-x,1/2-y,-z
1/2+x,y,-z
1/2-x,y,1/2+z
1/2+x,1/2-y,1/2+z
loop_
_atom_site_type_symbol
_atom_site_label
_atom_site_fract_x
_atom_site_fract_y
_atom_site_fract_z
Si Si1 0.780567 0.828335 0.751813
Si Si2 0.283762 0.062652 0.746360
Si Si3 0.500000 0.665105 0.750000
Si Si4 0.075281 0.250000 0.750000
Si Si5 0.000000 0.101286 0.250000
Si Si6 0.639245 0.250000 0.750000
Si Si7 0.595717 0.029570 0.765449
O O1 0.750210 0.812850 0.501184
O O2 0.793416 0.882558 0.753253
O O3 0.832442 0.799103 0.752025
O O4 0.250031 0.047060 0.496293
O O5 0.342464 0.042471 0.748002
O O6 0.547866 0.700238 0.748588
O O7 0.499296 0.632926 0.500719
O O8 0.106615 0.249865 0.498055
O O9 0.054281 0.071793 0.256709
O O10 0.583744 0.994614 0.534558
#
# Coordination Sequence:
#
# PCOD8282567 Si02
#       7
#    16  16   8   8   8   8  16
#     4  10  21  38  59  92 135 174 220 267 321 390
#     4  10  23  41  64  99 135 177 220 269 328 402
#     4  11  26  47  66  97 134 173 218 273 334 395
#     4  11  26  41  64 101 134 167 224 277 316 395
#     4  12  26  48  76  97 134 179 222 276 342 404
#     4  12  22  38  66  95 132 177 218 272 336 378
#     4  12  26  45  71 103 134 171 223 284 341 404
#
# _framework density 20.917760999999999
#
# number of rings (size 3 to 8) (size 9 to 14) (size 15 to 20)
#    0.000    1.000    0.000    6.000    5.600    4.000 
#    0.000    0.000    0.000    0.000    0.000    0.000 
#    0.000    0.000    0.000    0.000    0.000    0.000 
#
# Total GULP energy -495703.991799 kJ/mol
# GULP energy per Si atom -12392.599795 kJ/mol
# Density = 2.087015 g / cm^3
# Si number density = 20.917761 Si / 1000 Ang^3
#
#
#
# Elastic Constant Matrix: (Units=GPa)
#
#
# Indices 1 2 3 4 5 6 
#
# 1 142.5327 77.4459 74.6114 0.0000 0.0000 0.0000
# 2 77.4459 117.9938 56.9696 0.0000 0.0000 0.0000
# 3 74.6114 56.9696 201.8376 0.0000 0.0000 0.0000
# 4 0.0000 0.0000 0.0000 50.2000 0.0000 0.0000
# 5 0.0000 0.0000 0.0000 0.0000 22.4090 0.0000
# 6 0.0000 0.0000 0.0000 0.0000 0.0000 72.7931
#
#
#
# Elastic Compliance Matrix: (Units=1/GPa)
#
#
# Indices 1 2 3 4 5 6 
#
# 1 0.011940 -0.006606 -0.002549 0.000000 0.000000 0.000000
# 2 -0.006606 0.013467 -0.001359 0.000000 0.000000 0.000000
# 3 -0.002549 -0.001359 0.006280 0.000000 0.000000 0.000000
# 4 0.000000 0.000000 0.000000 0.019920 0.000000 0.000000
# 5 0.000000 0.000000 0.000000 0.000000 0.044625 0.000000
# 6 0.000000 0.000000 0.000000 0.000000 0.000000 0.013738
#
#
# Mechanical properties :
#
#
# Convention : Reuss Voigt Hill
#
# Bulk Modulus (GPa) = 93.81935 97.82421 95.82178
# Shear Modulus (GPa) = 37.16054 45.96957 41.56506
#
# Velocity S-wave (km/s) = 4.21944 4.69298 4.46249
# Velocity P-wave (km/s) = 8.28777 8.73115 8.51235
#
# Compressibility (1/GPa) = 0.01065878
#
# Stress axis : x y z
#
# Youngs Moduli (GPa) = 83.75450 74.25502 159.22532
#
# Poissons Ratio (x) = 0.49052 0.40588
# Poissons Ratio (y) = 0.55328 0.21642
# Poissons Ratio (z) = 0.21350 0.10093
#
# Static dielectric constant tensor:
#      x y z
#    x 4.000700 0.000000 0.000000 
#    y 0.000000 4.072530 0.000000 
#    z 0.000000 0.000000 4.118740 
# 
# 
# High freq. dielectric constant tensor:
#      x y z
#    x 1.827480 0.000000 0.000000 
#    y 0.000000 1.843590 0.000000 
#    z 0.000000 0.000000 1.849040 
# 
# From -- ./inp_files/2056.got.cif
#   From: 2010.03.12/outbox.cif.g09.slc.cpg/sg68_2_cif.got.tgz:2056.got - 2010.04.10 23:14:56.
