data_PCOD8282286
_publ_section_title
;
Structure prediction by ZEFSAII (Michael W. Deem and Ramdas Pophale) SiO2 
 PCOD8282286
Probable space group: C C C A
;
_chemical_formula_sum "Si O2"
_cell_formula_units_Z 60
_cell_length_a 11.612591
_cell_length_b 9.472232
_cell_length_c 24.049112
_cell_angle_alpha 90.000000
_cell_angle_beta 90.000000
_cell_angle_gamma 90.000000
_cell_volume 2645.333926
_symmetry_space_group_name_H-M "C C C A"
_symmetry_group_IT_number 68
_space_group.IT_coordinate_system_code '2'
_symmetry_cell_setting 'orthorhombic'
loop_
_space_group_symop_operation_xyz
x,y,z
-x,1/2-y,z
x,1/2-y,1/2-z
-x,y,1/2-z
-x,-y,-z
x,1/2+y,-z
-x,1/2+y,1/2+z
x,-y,1/2+z
1/2+x,1/2+y,z
1/2-x,-y,z
1/2+x,-y,1/2-z
1/2-x,1/2+y,1/2-z
1/2-x,1/2-y,-z
1/2+x,y,-z
1/2-x,y,1/2+z
1/2+x,1/2-y,1/2+z
loop_
_atom_site_type_symbol
_atom_site_label
_atom_site_fract_x
_atom_site_fract_y
_atom_site_fract_z
Si Si1 0.000000 0.750000 0.360180
Si Si2 0.000000 0.750000 0.750000
Si Si3 0.570634 0.115185 0.561757
Si Si4 0.138586 0.409364 0.944560
Si Si5 0.624953 0.978253 0.176737
O O1 0.112261 0.710410 0.398453
O O2 0.957807 0.618171 0.321977
O O3 0.926859 0.649377 0.789043
O O4 0.500000 0.250000 0.579902
O O5 0.652526 0.148807 0.508054
O O6 0.648872 0.071422 0.613523
O O7 0.479061 0.993831 0.551367
O O8 0.250000 0.500000 0.926454
O O9 0.750000 0.000000 0.204062
#
# Coordination Sequence:
#
# PCOD8282286 Si02
#       5
#     8   4  16  16  16
#     4  10  24  42  64 102 132 170 224 258 314 410
#     4  12  28  48  68  98 120 156 232 284 332 414
#     4  10  20  38  59  96 135 170 225 257 303 400
#     4  10  21  35  60  94 138 181 210 255 312 377
#     4  11  26  46  71  96 130 171 214 280 340 383
#
# _framework density 22.681446999999999
#
# number of rings (size 3 to 8) (size 9 to 14) (size 15 to 20)
#    0.000    1.600    2.667    0.800    3.733    3.733 
#    0.000    1.333    0.000    0.000    0.000    0.000 
#    0.000    0.000    0.000    0.000    0.000    0.000 
#
# Total GULP energy -371764.680059 kJ/mol
# GULP energy per Si atom -12392.156002 kJ/mol
# Density = 2.262982 g / cm^3
# Si number density = 22.681447 Si / 1000 Ang^3
#
#
#
# Elastic Constant Matrix: (Units=GPa)
#
#
# Indices 1 2 3 4 5 6 
#
# 1 118.8990 47.4188 50.7618 0.0000 0.0000 0.0000
# 2 47.4188 136.7232 54.2745 0.0000 0.0000 0.0000
# 3 50.7618 54.2745 88.2334 0.0000 0.0000 0.0000
# 4 0.0000 0.0000 0.0000 25.4114 0.0000 0.0000
# 5 0.0000 0.0000 0.0000 0.0000 33.1752 0.0000
# 6 0.0000 0.0000 0.0000 0.0000 0.0000 42.1445
#
#
#
# Elastic Compliance Matrix: (Units=1/GPa)
#
#
# Indices 1 2 3 4 5 6 
#
# 1 0.011474 -0.001798 -0.005495 0.000000 0.000000 0.000000
# 2 -0.001798 0.009959 -0.005091 0.000000 0.000000 0.000000
# 3 -0.005495 -0.005091 0.017627 0.000000 0.000000 0.000000
# 4 0.000000 0.000000 0.000000 0.039352 0.000000 0.000000
# 5 0.000000 0.000000 0.000000 0.000000 0.030143 0.000000
# 6 0.000000 0.000000 0.000000 0.000000 0.000000 0.023728
#
#
# Mechanical properties :
#
#
# Convention : Reuss Voigt Hill
#
# Bulk Modulus (GPa) = 69.97730 72.08507 71.03118
# Shear Modulus (GPa) = 30.89962 32.90627 31.90294
#
# Velocity S-wave (km/s) = 3.69498 3.81307 3.75449
# Velocity P-wave (km/s) = 7.00878 7.15797 7.08377
#
# Compressibility (1/GPa) = 0.01429035
#
# Stress axis : x y z
#
# Youngs Moduli (GPa) = 87.15734 100.41397 56.73208
#
# Poissons Ratio (x) = 0.18055 0.31173
# Poissons Ratio (y) = 0.15671 0.28885
# Poissons Ratio (z) = 0.47892 0.51125
#
# Static dielectric constant tensor:
#      x y z
#    x 3.812630 0.000000 0.000000 
#    y 0.000000 3.787850 0.000000 
#    z 0.000000 0.000000 4.343460 
# 
# 
# High freq. dielectric constant tensor:
#      x y z
#    x 1.884740 0.000000 0.000000 
#    y 0.000000 1.906830 0.000000 
#    z 0.000000 0.000000 1.879660 
# 
# From -- ./inp_files/48770.got.cif
#   From: 2010.03.12/outbox.cif.g09.slc.cpg/sg68_25_cif.got.tgz:48770.got - 2010.04.10 23:14:56.
