data_PCOD8282478
_publ_section_title
;
Structure prediction by ZEFSAII (Michael W. Deem and Ramdas Pophale) SiO2 
 PCOD8282478
Probable space group: C C C A
;
_chemical_formula_sum "Si O2"
_cell_formula_units_Z 80
_cell_length_a 16.726167
_cell_length_b 14.532699
_cell_length_c 16.791352
_cell_angle_alpha 90.000000
_cell_angle_beta 90.000000
_cell_angle_gamma 90.000000
_cell_volume 4081.580563
_symmetry_space_group_name_H-M "C C C A"
_symmetry_group_IT_number 68
_space_group.IT_coordinate_system_code '2'
_symmetry_cell_setting 'orthorhombic'
loop_
_space_group_symop_operation_xyz
x,y,z
-x,1/2-y,z
x,1/2-y,1/2-z
-x,y,1/2-z
-x,-y,-z
x,1/2+y,-z
-x,1/2+y,1/2+z
x,-y,1/2+z
1/2+x,1/2+y,z
1/2-x,-y,z
1/2+x,-y,1/2-z
1/2-x,1/2+y,1/2-z
1/2-x,1/2-y,-z
1/2+x,y,-z
1/2-x,y,1/2+z
1/2+x,1/2-y,1/2+z
loop_
_atom_site_type_symbol
_atom_site_label
_atom_site_fract_x
_atom_site_fract_y
_atom_site_fract_z
Si Si1 0.094234 0.389917 0.993337
Si Si2 0.819971 0.219034 0.556198
Si Si3 0.914195 0.144639 0.270739
Si Si4 0.210573 0.902340 0.858180
Si Si5 0.920879 0.594329 0.552382
O O1 0.158280 0.396237 0.062744
O O2 0.009925 0.369421 0.035180
O O3 0.119547 0.306310 0.932981
O O4 0.086839 0.483899 0.943578
O O5 0.750000 0.250000 0.500000
O O6 0.779170 0.178546 0.637267
O O7 0.864797 0.132779 0.516614
O O8 0.921153 0.250000 0.250000
O O9 0.842135 0.102654 0.220738
O O10 0.892572 0.133450 0.363132
O O11 0.000000 0.096739 0.250000
O O12 0.250000 0.000000 0.854376
#
# Coordination Sequence:
#
# PCOD8282478 Si02
#       5
#    16  16  16  16  16
#     4  10  21  37  65  92 119 163 205 256 313 378
#     4  10  21  35  61  88 123 154 203 257 312 367
#     4  11  23  39  62  88 123 162 208 258 315 375
#     4  11  21  42  57  87 129 158 200 265 313 375
#     4  11  21  39  63  91 123 161 215 255 311 388
#
# _framework density 19.600249999999999
#
# number of rings (size 3 to 8) (size 9 to 14) (size 15 to 20)
#    0.000    1.400    4.000    3.000    2.800    0.000 
#   10.800    0.000    0.000    0.000    0.000    0.000 
#    0.000    0.000    0.000    0.000    0.000    0.000 
#
# Total GULP energy -495823.741736 kJ/mol
# GULP energy per Si atom -12395.593543 kJ/mol
# Density = 1.955564 g / cm^3
# Si number density = 19.600250 Si / 1000 Ang^3
#
#
#
# Elastic Constant Matrix: (Units=GPa)
#
#
# Indices 1 2 3 4 5 6 
#
# 1 121.2029 58.5578 45.8248 0.0000 0.0000 0.0000
# 2 58.5578 110.2171 25.3521 0.0000 0.0000 0.0000
# 3 45.8248 25.3521 71.7915 0.0000 0.0000 0.0000
# 4 0.0000 0.0000 0.0000 18.9945 0.0000 0.0000
# 5 0.0000 0.0000 0.0000 0.0000 42.5388 0.0000
# 6 0.0000 0.0000 0.0000 0.0000 0.0000 39.2826
#
#
#
# Elastic Compliance Matrix: (Units=1/GPa)
#
#
# Indices 1 2 3 4 5 6 
#
# 1 0.013473 -0.005638 -0.006609 0.000000 0.000000 0.000000
# 2 -0.005638 0.012234 -0.000722 0.000000 0.000000 0.000000
# 3 -0.006609 -0.000722 0.018403 0.000000 0.000000 0.000000
# 4 0.000000 0.000000 0.000000 0.052647 0.000000 0.000000
# 5 0.000000 0.000000 0.000000 0.000000 0.023508 0.000000
# 6 0.000000 0.000000 0.000000 0.000000 0.000000 0.025457
#
#
# Mechanical properties :
#
#
# Convention : Reuss Voigt Hill
#
# Bulk Modulus (GPa) = 55.02698 62.52011 58.77355
# Shear Modulus (GPa) = 28.13456 31.72828 29.93142
#
# Velocity S-wave (km/s) = 3.79280 4.02776 3.91204
# Velocity P-wave (km/s) = 6.87867 7.32102 7.10329
#
# Compressibility (1/GPa) = 0.01817290
#
# Stress axis : x y z
#
# Youngs Moduli (GPa) = 74.22019 81.73611 54.33996
#
# Poissons Ratio (x) = 0.46084 0.35914
# Poissons Ratio (y) = 0.41846 0.03921
# Poissons Ratio (z) = 0.49053 0.05898
#
# Static dielectric constant tensor:
#      x y z
#    x 3.852560 0.000000 0.000000 
#    y 0.000000 3.977860 0.000000 
#    z 0.000000 0.000000 3.354080 
# 
# 
# High freq. dielectric constant tensor:
#      x y z
#    x 1.782960 0.000000 0.000000 
#    y 0.000000 1.773650 0.000000 
#    z 0.000000 0.000000 1.724110 
# 
# From -- ./inp_files/31756.got.cif
#   From: 2010.03.12/outbox.cif.g09.slc.cpg/sg68_16_cif.got.tgz:31756.got - 2010.04.10 23:14:56.
