data_PCOD8282583
_publ_section_title
;
Structure prediction by ZEFSAII (Michael W. Deem and Ramdas Pophale) SiO2 
 PCOD8282583
Probable space group: C C C A
;
_chemical_formula_sum "Si O2"
_cell_formula_units_Z 88
_cell_length_a 15.759649
_cell_length_b 10.855404
_cell_length_c 24.367843
_cell_angle_alpha 90.000000
_cell_angle_beta 90.000000
_cell_angle_gamma 90.000000
_cell_volume 4168.786171
_symmetry_space_group_name_H-M "C C C A"
_symmetry_group_IT_number 68
_space_group.IT_coordinate_system_code '2'
_symmetry_cell_setting 'orthorhombic'
loop_
_space_group_symop_operation_xyz
x,y,z
-x,1/2-y,z
x,1/2-y,1/2-z
-x,y,1/2-z
-x,-y,-z
x,1/2+y,-z
-x,1/2+y,1/2+z
x,-y,1/2+z
1/2+x,1/2+y,z
1/2-x,-y,z
1/2+x,-y,1/2-z
1/2-x,1/2+y,1/2-z
1/2-x,1/2-y,-z
1/2+x,y,-z
1/2-x,y,1/2+z
1/2+x,1/2-y,1/2+z
loop_
_atom_site_type_symbol
_atom_site_label
_atom_site_fract_x
_atom_site_fract_y
_atom_site_fract_z
Si Si1 0.590972 0.507613 0.772966
Si Si2 0.151202 0.486007 0.606491
Si Si3 0.163830 0.250000 0.250000
Si Si4 0.052643 0.378340 0.017075
Si Si5 0.401643 0.730184 0.911814
Si Si6 0.794139 0.379347 0.683853
O O1 0.500000 0.548463 0.750000
O O2 0.598066 0.532048 0.837579
O O3 0.603421 0.363215 0.763164
O O4 0.661955 0.586916 0.741766
O O5 0.250000 0.500000 0.619755
O O6 0.110336 0.596820 0.570786
O O7 0.140980 0.360023 0.572839
O O8 0.222484 0.277393 0.303279
O O9 0.000000 0.250000 0.026956
O O10 0.113470 0.355863 0.964743
O O11 0.000000 0.500000 0.000000
O O12 0.500000 0.750000 0.899348
O O13 0.361915 0.669618 0.858436
O O14 0.750000 0.500000 0.658187
#
# Coordination Sequence:
#
# PCOD8282583 Si02
#       6
#    16  16   8  16  16  16
#     4  11  23  39  63  95 131 173 222 265 334 401
#     4  12  25  44  69 102 138 178 227 290 343 400
#     4  10  21  40  57  90 138 168 210 276 331 406
#     4  11  24  48  72  97 136 178 230 286 337 408
#     4  11  22  43  68  93 133 172 230 276 334 411
#     4  10  21  38  62  91 129 170 213 274 331 396
#
# _framework density 21.109261
#
# number of rings (size 3 to 8) (size 9 to 14) (size 15 to 20)
#    0.000    1.091    3.636    5.182    0.000    2.909 
#    6.545    1.818    0.000    0.000    0.000    0.000 
#    0.000    0.000    0.000    0.000    0.000    0.000 
#
# Total GULP energy -545525.928856 kJ/mol
# GULP energy per Si atom -12398.316565 kJ/mol
# Density = 2.106122 g / cm^3
# Si number density = 21.109261 Si / 1000 Ang^3
#
#
#
# Elastic Constant Matrix: (Units=GPa)
#
#
# Indices 1 2 3 4 5 6 
#
# 1 95.0133 21.5008 32.1425 0.0000 0.0000 0.0000
# 2 21.5008 100.3750 30.2788 0.0000 0.0000 0.0000
# 3 32.1425 30.2788 132.9561 0.0000 0.0000 0.0000
# 4 0.0000 0.0000 0.0000 16.9929 0.0000 0.0000
# 5 0.0000 0.0000 0.0000 0.0000 22.8624 0.0000
# 6 0.0000 0.0000 0.0000 0.0000 0.0000 25.9275
#
#
#
# Elastic Compliance Matrix: (Units=1/GPa)
#
#
# Indices 1 2 3 4 5 6 
#
# 1 0.011752 -0.001783 -0.002435 0.000000 0.000000 0.000000
# 2 -0.001783 0.010968 -0.002067 0.000000 0.000000 0.000000
# 3 -0.002435 -0.002067 0.008581 0.000000 0.000000 0.000000
# 4 0.000000 0.000000 0.000000 0.058848 0.000000 0.000000
# 5 0.000000 0.000000 0.000000 0.000000 0.043740 0.000000
# 6 0.000000 0.000000 0.000000 0.000000 0.000000 0.038569
#
#
# Mechanical properties :
#
#
# Convention : Reuss Voigt Hill
#
# Bulk Modulus (GPa) = 53.38648 55.13207 54.25927
# Shear Modulus (GPa) = 26.14095 29.45138 27.79616
#
# Velocity S-wave (km/s) = 3.52286 3.73927 3.63268
# Velocity P-wave (km/s) = 6.47247 6.69456 6.58445
#
# Compressibility (1/GPa) = 0.01873134
#
# Stress axis : x y z
#
# Youngs Moduli (GPa) = 85.09150 91.17440 116.54126
#
# Poissons Ratio (x) = 0.16254 0.28379
# Poissons Ratio (y) = 0.15170 0.24087
# Poissons Ratio (z) = 0.20721 0.18844
#
# Static dielectric constant tensor:
#      x y z
#    x 3.915940 0.000000 0.000000 
#    y 0.000000 4.140890 0.000000 
#    z 0.000000 0.000000 3.817420 
# 
# 
# High freq. dielectric constant tensor:
#      x y z
#    x 1.822770 0.000000 0.000000 
#    y 0.000000 1.845780 0.000000 
#    z 0.000000 0.000000 1.823390 
# 
# From -- ./inp_files/44249.got.cif
#   From: 2010.03.12/outbox.cif.g09.slc.cpg/sg68_23_cif.got.tgz:44249.got - 2010.04.10 23:14:56.
