data_PCOD8282602
_publ_section_title
;
Structure prediction by ZEFSAII (Michael W. Deem and Ramdas Pophale) SiO2 
 PCOD8282602
Probable space group: C C C A
;
_chemical_formula_sum "Si O2"
_cell_formula_units_Z 120
_cell_length_a 27.369601
_cell_length_b 11.003002
_cell_length_c 18.259239
_cell_angle_alpha 90.000000
_cell_angle_beta 90.000000
_cell_angle_gamma 90.000000
_cell_volume 5498.729190
_symmetry_space_group_name_H-M "C C C A"
_symmetry_group_IT_number 68
_space_group.IT_coordinate_system_code '2'
_symmetry_cell_setting 'orthorhombic'
loop_
_space_group_symop_operation_xyz
x,y,z
-x,1/2-y,z
x,1/2-y,1/2-z
-x,y,1/2-z
-x,-y,-z
x,1/2+y,-z
-x,1/2+y,1/2+z
x,-y,1/2+z
1/2+x,1/2+y,z
1/2-x,-y,z
1/2+x,-y,1/2-z
1/2-x,1/2+y,1/2-z
1/2-x,1/2-y,-z
1/2+x,y,-z
1/2-x,y,1/2+z
1/2+x,1/2-y,1/2+z
loop_
_atom_site_type_symbol
_atom_site_label
_atom_site_fract_x
_atom_site_fract_y
_atom_site_fract_z
Si Si1 0.344214 0.634468 0.566723
Si Si2 0.215004 0.259974 0.171552
Si Si3 0.081899 0.034699 0.357907
Si Si4 0.397575 0.483894 0.809104
Si Si5 0.682309 0.172770 0.320662
Si Si6 0.491240 0.117154 0.164447
Si Si7 0.750000 0.000000 0.602726
Si Si8 0.878034 0.721462 0.585218
O O1 0.378477 0.565823 0.623316
O O2 0.331598 0.762819 0.603207
O O3 0.295165 0.551281 0.552890
O O4 0.376106 0.663047 0.494950
O O5 0.186828 0.250000 0.250000
O O6 0.258876 0.161356 0.177054
O O7 0.235521 0.394398 0.158871
O O8 0.178758 0.234596 0.105590
O O9 0.089208 0.061648 0.272060
O O10 0.091901 0.152339 0.408973
O O11 0.027404 0.982552 0.372313
O O12 0.343174 0.540816 0.815342
O O13 0.434769 0.581657 0.844213
O O14 0.404448 0.367235 0.859118
O O15 0.665012 0.250000 0.250000
O O16 0.500000 0.250000 0.128364
O O17 0.500000 0.124742 0.250000
#
# Coordination Sequence:
#
# PCOD8282602 Si02
#       8
#    16  16  16  16  16  16   8  16
#     4  11  24  41  65  91 134 180 220 273 330 387
#     4  10  22  38  62  95 130 174 220 268 332 382
#     4  11  22  45  68  91 135 169 216 286 326 390
#     4  11  23  40  69 103 127 166 226 272 330 400
#     4  10  21  38  67  97 126 173 227 275 316 381
#     4   9  20  39  72 104 124 161 218 276 329 389
#     4  10  22  42  64  86 132 176 232 266 318 388
#     4  12  27  39  63  97 136 177 213 265 345 402
#
# _framework density 21.823225000000001
#
# number of rings (size 3 to 8) (size 9 to 14) (size 15 to 20)
#    0.000    1.467    2.667    2.000    3.733    4.267 
#    0.000    2.667    2.933    0.000    0.000    0.000 
#    0.000    0.000    0.000    0.000    0.000    0.000 
#
# Total GULP energy -743802.974585 kJ/mol
# GULP energy per Si atom -12396.716243 kJ/mol
# Density = 2.177355 g / cm^3
# Si number density = 21.823225 Si / 1000 Ang^3
#
#
#
# Elastic Constant Matrix: (Units=GPa)
#
#
# Indices 1 2 3 4 5 6 
#
# 1 89.5416 29.6008 13.8101 0.0000 0.0000 0.0000
# 2 29.6008 75.8930 18.6552 0.0000 0.0000 0.0000
# 3 13.8101 18.6552 86.3846 0.0000 0.0000 0.0000
# 4 0.0000 0.0000 0.0000 28.1550 0.0000 0.0000
# 5 0.0000 0.0000 0.0000 0.0000 12.3583 0.0000
# 6 0.0000 0.0000 0.0000 0.0000 0.0000 29.6420
#
#
#
# Elastic Compliance Matrix: (Units=1/GPa)
#
#
# Indices 1 2 3 4 5 6 
#
# 1 0.012907 -0.004781 -0.001031 0.000000 0.000000 0.000000
# 2 -0.004781 0.015686 -0.002623 0.000000 0.000000 0.000000
# 3 -0.001031 -0.002623 0.012307 0.000000 0.000000 0.000000
# 4 0.000000 0.000000 0.000000 0.035518 0.000000 0.000000
# 5 0.000000 0.000000 0.000000 0.000000 0.080917 0.000000
# 6 0.000000 0.000000 0.000000 0.000000 0.000000 0.033736
#
#
# Mechanical properties :
#
#
# Convention : Reuss Voigt Hill
#
# Bulk Modulus (GPa) = 41.61343 41.77239 41.69291
# Shear Modulus (GPa) = 23.15326 26.68125 24.91725
#
# Velocity S-wave (km/s) = 3.26075 3.50037 3.38268
# Velocity P-wave (km/s) = 5.76944 5.95984 5.86541
#
# Compressibility (1/GPa) = 0.02403070
#
# Stress axis : x y z
#
# Youngs Moduli (GPa) = 77.47437 63.75127 81.25157
#
# Poissons Ratio (x) = 0.30479 0.08377
# Poissons Ratio (y) = 0.37040 0.21314
# Poissons Ratio (z) = 0.07988 0.16723
#
# Static dielectric constant tensor:
#      x y z
#    x 4.188460 0.000000 0.000000 
#    y 0.000000 3.972160 0.000000 
#    z 0.000000 0.000000 3.612310 
# 
# 
# High freq. dielectric constant tensor:
#      x y z
#    x 1.854850 0.000000 0.000000 
#    y 0.000000 1.858320 0.000000 
#    z 0.000000 0.000000 1.833240 
# 
# From -- ./inp_files/41429.got.cif
#   From: 2010.03.12/outbox.cif.g09.slc.cpg/sg68_21_cif.got.tgz:41429.got - 2010.04.10 23:14:56.
