data_PCOD8282857
_publ_section_title
;
Structure prediction by ZEFSAII (Michael W. Deem and Ramdas Pophale) SiO2 
 PCOD8282857
Probable space group: C C C A
;
_chemical_formula_sum "Si O2"
_cell_formula_units_Z 116
_cell_length_a 17.967322
_cell_length_b 10.987882
_cell_length_c 27.769775
_cell_angle_alpha 90.000000
_cell_angle_beta 90.000000
_cell_angle_gamma 90.000000
_cell_volume 5482.387124
_symmetry_space_group_name_H-M "C C C A"
_symmetry_group_IT_number 68
_space_group.IT_coordinate_system_code '2'
_symmetry_cell_setting 'orthorhombic'
loop_
_space_group_symop_operation_xyz
x,y,z
-x,1/2-y,z
x,1/2-y,1/2-z
-x,y,1/2-z
-x,-y,-z
x,1/2+y,-z
-x,1/2+y,1/2+z
x,-y,1/2+z
1/2+x,1/2+y,z
1/2-x,-y,z
1/2+x,-y,1/2-z
1/2-x,1/2+y,1/2-z
1/2-x,1/2-y,-z
1/2+x,y,-z
1/2-x,y,1/2+z
1/2+x,1/2-y,1/2+z
loop_
_atom_site_type_symbol
_atom_site_label
_atom_site_fract_x
_atom_site_fract_y
_atom_site_fract_z
Si Si1 0.897700 0.839835 0.671263
Si Si2 0.897339 0.924950 0.411019
Si Si3 0.067352 0.522748 0.092636
Si Si4 0.424322 0.821345 0.487881
Si Si5 0.817737 0.708325 0.380488
Si Si6 0.657586 0.810429 0.409365
Si Si7 0.757617 0.138591 0.716163
Si Si8 0.500000 0.750000 0.250000
O O1 0.902503 0.732396 0.631214
O O2 0.821465 0.819397 0.698273
O O3 0.956428 0.838196 0.714183
O O4 0.905689 0.963754 0.642311
O O5 0.885650 0.870583 0.464256
O O6 0.861647 0.833912 0.372030
O O7 0.984071 0.931317 0.398397
O O8 0.846123 0.044670 0.406869
O O9 0.060961 0.435841 0.046763
O O10 0.130157 0.626972 0.083348
O O11 0.500000 0.750000 0.500665
O O12 0.368787 0.728025 0.462309
O O13 0.736950 0.743778 0.402024
O O14 0.811501 0.635295 0.330276
O O15 0.786150 0.250000 0.750000
O O16 0.750000 0.000000 0.738609
#
# Coordination Sequence:
#
# PCOD8282857 Si02
#       8
#    16  16  16  16  16  16  16   4
#     4  10  22  39  68  94 126 165 217 266 330 382
#     4  12  24  41  65  94 135 177 223 275 333 397
#     4  11  22  43  67  89 135 174 217 277 330 403
#     4  11  23  40  66  93 125 184 232 270 328 402
#     4  11  25  43  66  98 131 175 218 268 349 398
#     4  10  24  43  62  94 134 172 222 283 327 393
#     4  11  23  46  71  97 131 173 217 266 335 412
#     4  12  20  36  64 112 118 156 222 272 314 408
#
# _framework density 21.158666
#
# number of rings (size 3 to 8) (size 9 to 14) (size 15 to 20)
#    0.000    1.103    3.448    2.897    3.862    2.759 
#    4.966    0.000    0.000    0.828    0.000    0.000 
#    0.000    0.000    0.000    0.000    0.000    0.000 
#
# Total GULP energy -718642.580462 kJ/mol
# GULP energy per Si atom -12390.389318 kJ/mol
# Density = 2.111051 g / cm^3
# Si number density = 21.158666 Si / 1000 Ang^3
#
#
#
# Elastic Constant Matrix: (Units=GPa)
#
#
# Indices 1 2 3 4 5 6 
#
# 1 77.9486 25.0464 17.7900 0.0000 0.0000 0.0000
# 2 25.0464 133.9283 28.8125 0.0000 0.0000 0.0000
# 3 17.7900 28.8125 67.3951 0.0000 0.0000 0.0000
# 4 0.0000 0.0000 0.0000 5.0555 0.0000 0.0000
# 5 0.0000 0.0000 0.0000 0.0000 33.0875 0.0000
# 6 0.0000 0.0000 0.0000 0.0000 0.0000 38.0339
#
#
#
# Elastic Compliance Matrix: (Units=1/GPa)
#
#
# Indices 1 2 3 4 5 6 
#
# 1 0.014134 -0.002027 -0.002864 0.000000 0.000000 0.000000
# 2 -0.002027 0.008514 -0.003105 0.000000 0.000000 0.000000
# 3 -0.002864 -0.003105 0.016921 0.000000 0.000000 0.000000
# 4 0.000000 0.000000 0.000000 0.197802 0.000000 0.000000
# 5 0.000000 0.000000 0.000000 0.000000 0.030223 0.000000
# 6 0.000000 0.000000 0.000000 0.000000 0.000000 0.026292
#
#
# Mechanical properties :
#
#
# Convention : Reuss Voigt Hill
#
# Bulk Modulus (GPa) = 42.41436 46.95220 44.68328
# Shear Modulus (GPa) = 15.73625 29.07693 22.40659
#
# Velocity S-wave (km/s) = 2.73009 3.71109 3.25773
# Velocity P-wave (km/s) = 5.47971 6.37194 5.94259
#
# Compressibility (1/GPa) = 0.02357692
#
# Stress axis : x y z
#
# Youngs Moduli (GPa) = 70.75142 117.45796 59.09725
#
# Poissons Ratio (x) = 0.23809 0.16927
# Poissons Ratio (y) = 0.14342 0.18348
# Poissons Ratio (z) = 0.20265 0.36467
#
# Static dielectric constant tensor:
#      x y z
#    x 3.952800 0.000000 0.000000 
#    y 0.000000 3.979720 0.000000 
#    z 0.000000 0.000000 3.902940 
# 
# 
# High freq. dielectric constant tensor:
#      x y z
#    x 1.830880 0.000000 0.000000 
#    y 0.000000 1.841250 0.000000 
#    z 0.000000 0.000000 1.817630 
# 
# From -- ./inp_files/55667.got.cif
#   From: 2010.03.12/outbox.cif.g09.slc.cpg/sg68_28_cif.got.tgz:55667.got - 2010.04.10 23:14:56.
