data_PCOD8282884
_publ_section_title
;
Structure prediction by ZEFSAII (Michael W. Deem and Ramdas Pophale) SiO2 
 PCOD8282884
Probable space group: C C C A
;
_chemical_formula_sum "Si O2"
_cell_formula_units_Z 88
_cell_length_a 15.574191
_cell_length_b 14.383203
_cell_length_c 19.060892
_cell_angle_alpha 90.000000
_cell_angle_beta 90.000000
_cell_angle_gamma 90.000000
_cell_volume 4269.768483
_symmetry_space_group_name_H-M "C C C A"
_symmetry_group_IT_number 68
_space_group.IT_coordinate_system_code '2'
_symmetry_cell_setting 'orthorhombic'
loop_
_space_group_symop_operation_xyz
x,y,z
-x,1/2-y,z
x,1/2-y,1/2-z
-x,y,1/2-z
-x,-y,-z
x,1/2+y,-z
-x,1/2+y,1/2+z
x,-y,1/2+z
1/2+x,1/2+y,z
1/2-x,-y,z
1/2+x,-y,1/2-z
1/2-x,1/2+y,1/2-z
1/2-x,1/2-y,-z
1/2+x,y,-z
1/2-x,y,1/2+z
1/2+x,1/2-y,1/2+z
loop_
_atom_site_type_symbol
_atom_site_label
_atom_site_fract_x
_atom_site_fract_y
_atom_site_fract_z
Si Si1 0.728440 0.900702 0.965700
Si Si2 0.634263 0.754960 0.453459
Si Si3 0.273738 0.250000 0.250000
Si Si4 0.893448 0.682509 0.808438
Si Si5 0.500000 0.250000 0.430756
Si Si6 0.000000 0.522318 0.750000
Si Si7 0.107106 0.882579 0.158074
O O1 0.809423 0.844914 0.934182
O O2 0.666078 0.927584 0.901634
O O3 0.750000 0.000000 0.001026
O O4 0.688500 0.836034 0.025525
O O5 0.582428 0.724865 0.384307
O O6 0.575745 0.785681 0.518808
O O7 0.211343 0.317455 0.202909
O O8 0.335753 0.189320 0.201748
O O9 0.934720 0.750000 0.750000
O O10 0.938341 0.582354 0.800924
O O11 0.527987 0.167323 0.380164
O O12 0.933568 0.461744 0.705637
#
# Coordination Sequence:
#
# PCOD8282884 Si02
#       7
#    16  16   8  16   8   8  16
#     4  10  22  40  66  93 130 169 224 275 326 406
#     4  10  22  43  65  96 128 179 220 273 343 403
#     4  10  22  42  72  88 140 180 222 264 340 416
#     4  10  24  43  65  95 127 184 218 274 335 412
#     4  10  24  41  73  90 140 172 218 280 346 396
#     4  12  27  39  68  98 142 162 232 287 333 398
#     4  11  23  43  64 102 127 179 219 277 336 401
#
# _framework density 20.610016000000002
#
# number of rings (size 3 to 8) (size 9 to 14) (size 15 to 20)
#    0.545    1.091    1.818    1.364    7.636    1.455 
#    3.273    3.636    0.000    0.000    0.000    0.000 
#    0.000    0.000    0.000    0.000    0.000    0.000 
#
# Total GULP energy -545409.317616 kJ/mol
# GULP energy per Si atom -12395.666309 kJ/mol
# Density = 2.056311 g / cm^3
# Si number density = 20.610016 Si / 1000 Ang^3
#
#
#
# Elastic Constant Matrix: (Units=GPa)
#
#
# Indices 1 2 3 4 5 6 
#
# 1 108.0248 65.7527 29.6213 0.0000 0.0000 0.0000
# 2 65.7527 130.4651 41.7027 0.0000 0.0000 0.0000
# 3 29.6213 41.7027 80.8921 0.0000 0.0000 0.0000
# 4 0.0000 0.0000 0.0000 11.0884 0.0000 0.0000
# 5 0.0000 0.0000 0.0000 0.0000 -467.1519 0.0000
# 6 0.0000 0.0000 0.0000 0.0000 0.0000 17.9413
#
#
#
# Elastic Compliance Matrix: (Units=1/GPa)
#
#
# Indices 1 2 3 4 5 6 
#
# 1 0.013552 -0.006278 -0.001726 0.000000 0.000000 0.000000
# 2 -0.006278 0.012086 -0.003932 0.000000 0.000000 0.000000
# 3 -0.001726 -0.003932 0.015021 0.000000 0.000000 0.000000
# 4 0.000000 0.000000 0.000000 0.090185 0.000000 0.000000
# 5 0.000000 0.000000 0.000000 0.000000 -0.002141 0.000000
# 6 0.000000 0.000000 0.000000 0.000000 0.000000 0.055737
#
#
# Mechanical properties :
#
#
# Convention : Reuss Voigt Hill
#
# Bulk Modulus (GPa) = 59.56923 65.94840 62.75881
# Shear Modulus (GPa) = 23.37461 -75.47078 -26.04808
#
# Velocity S-wave (km/s) = 3.37135 -6.05789 -3.55893
# Velocity P-wave (km/s) = 6.64232 4.10645 3.69171
#
# Compressibility (1/GPa) = 0.01678719
#
# Stress axis : x y z
#
# Youngs Moduli (GPa) = 73.79060 82.74161 66.57351
#
# Poissons Ratio (x) = 0.51948 0.11489
# Poissons Ratio (y) = 0.46328 0.26174
# Poissons Ratio (z) = 0.12735 0.32531
#
# Static dielectric constant tensor:
#      x y z
#    x 3.891250 0.000000 0.000000 
#    y 0.000000 3.457940 0.000000 
#    z 0.000000 0.000000 3.748630 
# 
# 
# High freq. dielectric constant tensor:
#      x y z
#    x 1.821910 0.000000 0.000000 
#    y 0.000000 1.790240 0.000000 
#    z 0.000000 0.000000 1.809360 
# 
# From -- ./inp_files/31890.got.cif
#   From: 2010.03.12/outbox.cif.g09.slc.cpg/sg68_16_cif.got.tgz:31890.got - 2010.04.10 23:14:56.
