data_PCOD8282128
_publ_section_title
;
Structure prediction by ZEFSAII (Michael W. Deem and Ramdas Pophale) SiO2 
 PCOD8282128
Probable space group: C C C A
;
_chemical_formula_sum "Si O2"
_cell_formula_units_Z 88
_cell_length_a 13.594108
_cell_length_b 13.945691
_cell_length_c 23.390208
_cell_angle_alpha 90.000000
_cell_angle_beta 90.000000
_cell_angle_gamma 90.000000
_cell_volume 4434.297613
_symmetry_space_group_name_H-M "C C C A"
_symmetry_group_IT_number 68
_space_group.IT_coordinate_system_code '2'
_symmetry_cell_setting 'orthorhombic'
loop_
_space_group_symop_operation_xyz
x,y,z
-x,1/2-y,z
x,1/2-y,1/2-z
-x,y,1/2-z
-x,-y,-z
x,1/2+y,-z
-x,1/2+y,1/2+z
x,-y,1/2+z
1/2+x,1/2+y,z
1/2-x,-y,z
1/2+x,-y,1/2-z
1/2-x,1/2+y,1/2-z
1/2-x,1/2-y,-z
1/2+x,y,-z
1/2-x,y,1/2+z
1/2+x,1/2-y,1/2+z
loop_
_atom_site_type_symbol
_atom_site_label
_atom_site_fract_x
_atom_site_fract_y
_atom_site_fract_z
Si Si1 0.090854 0.959839 0.635181
Si Si2 0.091638 0.818079 0.140288
Si Si3 0.301547 0.283170 0.813273
Si Si4 0.427325 0.172043 0.892900
Si Si5 0.250000 0.000000 0.544130
Si Si6 0.840835 0.317171 0.510844
O O1 0.141622 0.885682 0.679681
O O2 0.165100 0.951066 0.581956
O O3 0.979043 0.930183 0.618293
O O4 0.076105 0.069357 0.655515
O O5 0.185047 0.790953 0.178056
O O6 0.110328 0.802768 0.072679
O O7 0.000000 0.750000 0.158241
O O8 0.326424 0.250000 0.750000
O O9 0.328973 0.196100 0.857336
O O10 0.500000 0.250000 0.866385
O O11 0.418920 0.193091 0.960396
O O12 0.298769 0.923454 0.502998
O O13 0.750000 0.250000 0.500000
#
# Coordination Sequence:
#
# PCOD8282128 Si02
#       6
#    16  16  16  16   8  16
#     4  10  20  42  63  90 125 165 205 252 312 381
#     4  11  23  40  65  93 126 167 202 250 325 382
#     4  11  22  43  66  87 119 167 218 263 307 366
#     4  10  21  36  61  94 122 158 215 261 309 369
#     4  10  20  34  64  84 128 174 196 234 322 394
#     4  11  19  36  61  91 128 163 200 256 311 374
#
# _framework density 19.845307999999999
#
# number of rings (size 3 to 8) (size 9 to 14) (size 15 to 20)
#    0.000    1.455    5.455    1.636    0.000    8.000 
#    0.000    5.455    0.000    0.000    0.000    0.000 
#    0.000    0.000    0.000    0.000    0.000    0.000 
#
# Total GULP energy -545103.433591 kJ/mol
# GULP energy per Si atom -12388.714400 kJ/mol
# Density = 1.980014 g / cm^3
# Si number density = 19.845308 Si / 1000 Ang^3
#
#
#
# Elastic Constant Matrix: (Units=GPa)
#
#
# Indices 1 2 3 4 5 6 
#
# 1 98.1014 69.6971 16.0819 0.0000 0.0000 0.0000
# 2 69.6971 113.8404 44.1499 0.0000 0.0000 0.0000
# 3 16.0819 44.1499 90.1123 0.0000 0.0000 0.0000
# 4 0.0000 0.0000 0.0000 28.9430 0.0000 0.0000
# 5 0.0000 0.0000 0.0000 0.0000 17.0327 0.0000
# 6 0.0000 0.0000 0.0000 0.0000 0.0000 39.3560
#
#
#
# Elastic Compliance Matrix: (Units=1/GPa)
#
#
# Indices 1 2 3 4 5 6 
#
# 1 0.018591 -0.012464 0.002789 0.000000 0.000000 0.000000
# 2 -0.012464 0.019201 -0.007183 0.000000 0.000000 0.000000
# 3 0.002789 -0.007183 0.014119 0.000000 0.000000 0.000000
# 4 0.000000 0.000000 0.000000 0.034551 0.000000 0.000000
# 5 0.000000 0.000000 0.000000 0.000000 0.058711 0.000000
# 6 0.000000 0.000000 0.000000 0.000000 0.000000 0.025409
#
#
# Mechanical properties :
#
#
# Convention : Reuss Voigt Hill
#
# Bulk Modulus (GPa) = 54.96080 62.43466 58.69773
# Shear Modulus (GPa) = 23.76848 28.54134 26.15491
#
# Velocity S-wave (km/s) = 3.46452 3.79646 3.63428
# Velocity P-wave (km/s) = 6.61503 7.12366 6.87405
#
# Compressibility (1/GPa) = 0.01819479
#
# Stress axis : x y z
#
# Youngs Moduli (GPa) = 53.78809 52.08132 70.82753
#
# Poissons Ratio (x) = 0.64913 -0.19751
# Poissons Ratio (y) = 0.67041 0.50875
# Poissons Ratio (z) = -0.15000 0.37410
#
# Static dielectric constant tensor:
#      x y z
#    x 3.756130 0.000000 0.000000 
#    y 0.000000 3.771020 0.000000 
#    z 0.000000 0.000000 3.345570 
# 
# 
# High freq. dielectric constant tensor:
#      x y z
#    x 1.781230 0.000000 0.000000 
#    y 0.000000 1.778460 0.000000 
#    z 0.000000 0.000000 1.749580 
# 
# From -- ./inp_files/44250.got.cif
#   From: 2010.03.12/outbox.cif.g09.slc.cpg/sg68_23_cif.got.tgz:44250.got - 2010.04.10 23:14:56.
