data_PCOD8282556
_publ_section_title
;
Structure prediction by ZEFSAII (Michael W. Deem and Ramdas Pophale) SiO2 
 PCOD8282556
Probable space group: C C C A
;
_chemical_formula_sum "Si O2"
_cell_formula_units_Z 68
_cell_length_a 22.811131
_cell_length_b 5.146554
_cell_length_c 29.861268
_cell_angle_alpha 90.000000
_cell_angle_beta 90.000000
_cell_angle_gamma 90.000000
_cell_volume 3505.674566
_symmetry_space_group_name_H-M "C C C A"
_symmetry_group_IT_number 68
_space_group.IT_coordinate_system_code '2'
_symmetry_cell_setting 'orthorhombic'
loop_
_space_group_symop_operation_xyz
x,y,z
-x,1/2-y,z
x,1/2-y,1/2-z
-x,y,1/2-z
-x,-y,-z
x,1/2+y,-z
-x,1/2+y,1/2+z
x,-y,1/2+z
1/2+x,1/2+y,z
1/2-x,-y,z
1/2+x,-y,1/2-z
1/2-x,1/2+y,1/2-z
1/2-x,1/2-y,-z
1/2+x,y,-z
1/2-x,y,1/2+z
1/2+x,1/2-y,1/2+z
loop_
_atom_site_type_symbol
_atom_site_label
_atom_site_fract_x
_atom_site_fract_y
_atom_site_fract_z
Si Si1 0.930259 0.230545 0.974952
Si Si2 0.000000 0.250000 0.250000
Si Si3 0.721106 0.749032 0.301194
Si Si4 0.066219 0.342263 0.874939
Si Si5 0.590383 0.856855 0.178049
O O1 0.907811 0.163526 0.925078
O O2 0.000000 0.250000 0.976172
O O3 0.905659 0.506221 0.992146
O O4 0.956719 0.084615 0.217796
O O5 0.742223 0.750000 0.250000
O O6 0.750000 0.500000 0.325467
O O7 0.651108 0.749841 0.302896
O O8 0.750000 0.000000 0.325219
O O9 0.067297 0.634042 0.855677
O O10 0.000000 0.250000 0.875428
O O11 0.897786 0.367323 0.845707
#
# Coordination Sequence:
#
# PCOD8282556 Si02
#       5
#    16   4  16  16  16
#     4   9  17  30  49  71 103 144 177 206 258 325
#     4  12  24  38  52  82 112 162 176 216 264 334
#     4  10  21  38  56  74  98 141 192 238 269 298
#     4  11  21  34  51  80 114 144 176 223 266 325
#     4  12  23  37  54  79 114 145 191 219 264 324
#
# _framework density 19.397124000000002
#
# number of rings (size 3 to 8) (size 9 to 14) (size 15 to 20)
#    0.000    1.412    3.529    2.824    0.000    5.647 
#    0.000    0.000    0.000    0.000    0.000    0.000 
#    0.000   65.882    0.000    0.000    0.000    0.000 
#
# Total GULP energy -421427.483244 kJ/mol
# GULP energy per Si atom -12394.925978 kJ/mol
# Density = 1.935298 g / cm^3
# Si number density = 19.397124 Si / 1000 Ang^3
#
#
#
# Elastic Constant Matrix: (Units=GPa)
#
#
# Indices 1 2 3 4 5 6 
#
# 1 78.8721 17.3466 11.1296 0.0000 0.0000 0.0000
# 2 17.3466 130.7506 42.1924 0.0000 0.0000 0.0000
# 3 11.1296 42.1924 102.1011 0.0000 0.0000 0.0000
# 4 0.0000 0.0000 0.0000 16.4242 0.0000 0.0000
# 5 0.0000 0.0000 0.0000 0.0000 8.9280 0.0000
# 6 0.0000 0.0000 0.0000 0.0000 0.0000 26.1304
#
#
#
# Elastic Compliance Matrix: (Units=1/GPa)
#
#
# Indices 1 2 3 4 5 6 
#
# 1 0.013119 -0.001476 -0.000820 0.000000 0.000000 0.000000
# 2 -0.001476 0.008991 -0.003555 0.000000 0.000000 0.000000
# 3 -0.000820 -0.003555 0.011353 0.000000 0.000000 0.000000
# 4 0.000000 0.000000 0.000000 0.060886 0.000000 0.000000
# 5 0.000000 0.000000 0.000000 0.000000 0.112007 0.000000
# 6 0.000000 0.000000 0.000000 0.000000 0.000000 0.038270
#
#
# Mechanical properties :
#
#
# Convention : Reuss Voigt Hill
#
# Bulk Modulus (GPa) = 45.95292 50.34012 48.14652
# Shear Modulus (GPa) = 18.96957 26.36687 22.66822
#
# Velocity S-wave (km/s) = 3.13062 3.69089 3.42224
# Velocity P-wave (km/s) = 6.06710 6.64622 6.36326
#
# Compressibility (1/GPa) = 0.02176140
#
# Stress axis : x y z
#
# Youngs Moduli (GPa) = 76.22486 111.22257 88.08626
#
# Poissons Ratio (x) = 0.16415 0.07225
# Poissons Ratio (y) = 0.11250 0.31311
# Poissons Ratio (z) = 0.06252 0.39535
#
# Static dielectric constant tensor:
#      x y z
#    x 3.099220 0.000000 0.000000 
#    y 0.000000 3.974740 0.000000 
#    z 0.000000 0.000000 3.632270 
# 
# 
# High freq. dielectric constant tensor:
#      x y z
#    x 1.709080 0.000000 0.000000 
#    y 0.000000 1.772330 0.000000 
#    z 0.000000 0.000000 1.738690 
# 
# From -- ./inp_files/55725.got.cif
#   From: 2010.03.12/outbox.cif.g09.slc.cpg/sg68_28_cif.got.tgz:55725.got - 2010.04.10 23:14:56.
