data_PCOD8282001
_publ_section_title
;
Structure prediction by ZEFSAII (Michael W. Deem and Ramdas Pophale) SiO2 
 PCOD8282001
Probable space group: C C C A
;
_chemical_formula_sum "Si O2"
_cell_formula_units_Z 88
_cell_length_a 26.784187
_cell_length_b 4.957147
_cell_length_c 30.838550
_cell_angle_alpha 90.000000
_cell_angle_beta 90.000000
_cell_angle_gamma 90.000000
_cell_volume 4094.531494
_symmetry_space_group_name_H-M "C C C A"
_symmetry_group_IT_number 68
_space_group.IT_coordinate_system_code '2'
_symmetry_cell_setting 'orthorhombic'
loop_
_space_group_symop_operation_xyz
x,y,z
-x,1/2-y,z
x,1/2-y,1/2-z
-x,y,1/2-z
-x,-y,-z
x,1/2+y,-z
-x,1/2+y,1/2+z
x,-y,1/2+z
1/2+x,1/2+y,z
1/2-x,-y,z
1/2+x,-y,1/2-z
1/2-x,1/2+y,1/2-z
1/2-x,1/2-y,-z
1/2+x,y,-z
1/2-x,y,1/2+z
1/2+x,1/2-y,1/2+z
loop_
_atom_site_type_symbol
_atom_site_label
_atom_site_fract_x
_atom_site_fract_y
_atom_site_fract_z
Si Si1 0.443722 0.759216 0.633908
Si Si2 0.693549 0.419203 0.620003
Si Si3 0.943864 0.262686 0.423663
Si Si4 0.784470 0.250000 0.750000
Si Si5 0.346668 0.161447 0.528246
Si Si6 0.846393 0.901065 0.166222
O O1 0.500000 0.750000 0.652644
O O2 0.435559 0.567116 0.592249
O O3 0.406380 0.643048 0.671297
O O4 0.433760 0.063847 0.617328
O O5 0.750000 0.500000 0.630173
O O6 0.685878 0.304628 0.571824
O O7 0.664185 0.698033 0.626248
O O8 0.672889 0.198591 0.654190
O O9 0.905566 0.191521 0.461805
O O10 0.000000 0.250000 0.442260
O O11 0.750000 0.500000 0.737056
O O12 0.819693 0.314540 0.790119
O O13 0.331747 0.379400 0.492647
#
# Coordination Sequence:
#
# PCOD8282001 Si02
#       6
#    16  16  16   8  16  16
#     4  10  19  36  64  91 119 160 207 248 304 379
#     4  12  25  42  65  88 119 171 217 253 313 380
#     4  10  20  37  59  87 120 159 207 258 311 372
#     4  12  26  42  65 102 133 158 202 260 310 356
#     4  12  24  38  59  87 125 158 211 268 313 366
#     4  12  22  43  67  93 127 163 202 258 313 377
#
# _framework density 21.492079
#
# number of rings (size 3 to 8) (size 9 to 14) (size 15 to 20)
#    0.000    0.727    3.636    5.455    0.000    1.455 
#    0.000    0.455    0.000    0.000    0.000    7.636 
#    0.000    0.000    0.000    0.000    0.000    0.000 
#
# Total GULP energy -545536.251968 kJ/mol
# GULP energy per Si atom -12398.551181 kJ/mol
# Density = 2.144316 g / cm^3
# Si number density = 21.492079 Si / 1000 Ang^3
#
#
#
# Elastic Constant Matrix: (Units=GPa)
#
#
# Indices 1 2 3 4 5 6 
#
# 1 118.8050 39.7851 34.7852 0.0000 0.0000 0.0000
# 2 39.7851 99.6976 14.9369 0.0000 0.0000 0.0000
# 3 34.7852 14.9369 82.1186 0.0000 0.0000 0.0000
# 4 0.0000 0.0000 0.0000 25.5954 0.0000 0.0000
# 5 0.0000 0.0000 0.0000 0.0000 34.9341 0.0000
# 6 0.0000 0.0000 0.0000 0.0000 0.0000 35.4888
#
#
#
# Elastic Compliance Matrix: (Units=1/GPa)
#
#
# Indices 1 2 3 4 5 6 
#
# 1 0.010808 -0.003729 -0.003900 0.000000 0.000000 0.000000
# 2 -0.003729 0.011598 -0.000530 0.000000 0.000000 0.000000
# 3 -0.003900 -0.000530 0.013926 0.000000 0.000000 0.000000
# 4 0.000000 0.000000 0.000000 0.039070 0.000000 0.000000
# 5 0.000000 0.000000 0.000000 0.000000 0.028625 0.000000
# 6 0.000000 0.000000 0.000000 0.000000 0.000000 0.028178
#
#
# Mechanical properties :
#
#
# Convention : Reuss Voigt Hill
#
# Bulk Modulus (GPa) = 49.96495 53.29287 51.62891
# Shear Modulus (GPa) = 32.21805 33.27792 32.74798
#
# Velocity S-wave (km/s) = 3.87598 3.93922 3.90772
# Velocity P-wave (km/s) = 6.58251 6.74835 6.66595
#
# Compressibility (1/GPa) = 0.02001403
#
# Stress axis : x y z
#
# Youngs Moduli (GPa) = 92.52731 86.22418 71.80859
#
# Poissons Ratio (x) = 0.32149 0.28004
# Poissons Ratio (y) = 0.34500 0.03807
# Poissons Ratio (z) = 0.36084 0.04571
#
# Static dielectric constant tensor:
#      x y z
#    x 4.444040 0.000000 0.000000 
#    y 0.000000 4.148540 0.000000 
#    z 0.000000 0.000000 3.403840 
# 
# 
# High freq. dielectric constant tensor:
#      x y z
#    x 1.859350 0.000000 0.000000 
#    y 0.000000 1.866250 0.000000 
#    z 0.000000 0.000000 1.802490 
# 
# From -- ./inp_files/52473.got.cif
#   From: 2010.03.12/outbox.cif.g09.slc.cpg/sg68_27_cif.got.tgz:52473.got - 2010.04.10 23:14:56.
