data_PCOD8282295
_publ_section_title
;
Structure prediction by ZEFSAII (Michael W. Deem and Ramdas Pophale) SiO2 
 PCOD8282295
Probable space group: C C C A
;
_chemical_formula_sum "Si O2"
_cell_formula_units_Z 112
_cell_length_a 15.778476
_cell_length_b 12.226382
_cell_length_c 26.874201
_cell_angle_alpha 90.000000
_cell_angle_beta 90.000000
_cell_angle_gamma 90.000000
_cell_volume 5184.400876
_symmetry_space_group_name_H-M "C C C A"
_symmetry_group_IT_number 68
_space_group.IT_coordinate_system_code '2'
_symmetry_cell_setting 'orthorhombic'
loop_
_space_group_symop_operation_xyz
x,y,z
-x,1/2-y,z
x,1/2-y,1/2-z
-x,y,1/2-z
-x,-y,-z
x,1/2+y,-z
-x,1/2+y,1/2+z
x,-y,1/2+z
1/2+x,1/2+y,z
1/2-x,-y,z
1/2+x,-y,1/2-z
1/2-x,1/2+y,1/2-z
1/2-x,1/2-y,-z
1/2+x,y,-z
1/2-x,y,1/2+z
1/2+x,1/2-y,1/2+z
loop_
_atom_site_type_symbol
_atom_site_label
_atom_site_fract_x
_atom_site_fract_y
_atom_site_fract_z
Si Si1 0.095299 0.278066 0.907527
Si Si2 0.678555 0.200848 0.697210
Si Si3 0.376000 0.207252 0.303863
Si Si4 0.066230 0.484395 0.160614
Si Si5 0.658018 0.049314 0.065083
Si Si6 0.150682 0.995704 0.547596
Si Si7 0.571007 0.160896 0.875000
O O1 0.105542 0.294781 0.847701
O O2 0.157801 0.180664 0.926145
O O3 0.114062 0.389901 0.934836
O O4 0.000000 0.250000 0.922136
O O5 0.653297 0.250000 0.750000
O O6 0.777694 0.175544 0.693731
O O7 0.631623 0.086090 0.692539
O O8 0.648591 0.284411 0.654511
O O9 0.402952 0.250000 0.250000
O O10 0.435660 0.103282 0.314718
O O11 0.093208 0.491820 0.102777
O O12 0.973010 0.430137 0.160639
O O13 0.750000 0.000000 0.076326
O O14 0.627853 0.020361 0.009931
O O15 0.250000 0.000000 0.557259
O O16 0.109965 0.893589 0.576164
O O17 0.500000 0.250000 0.890364
#
# Coordination Sequence:
#
# PCOD8282295 Si02
#       7
#    16  16  16  16  16  16  16
#     4  11  24  41  61  91 127 157 197 253 304 355
#     4  10  21  38  63  91 119 156 203 251 296 352
#     4  10  21  39  63  87 118 163 204 241 295 362
#     4  10  20  38  62  87 121 159 198 243 298 363
#     4  10  23  41  64  88 119 165 206 241 296 368
#     4  11  24  41  64  92 122 157 201 256 302 346
#     4  10  23  40  62  92 123 157 198 249 306 359
#
# _framework density 21.603269000000001
#
# number of rings (size 3 to 8) (size 9 to 14) (size 15 to 20)
#    0.000    1.714    0.000    4.714    0.000   12.571 
#    0.000    4.286    0.000    0.000    0.000    0.000 
#    0.000    0.000    0.000    0.000    0.000    0.000 
#
# Total GULP energy -694524.054812 kJ/mol
# GULP energy per Si atom -12402.215265 kJ/mol
# Density = 2.155410 g / cm^3
# Si number density = 21.603269 Si / 1000 Ang^3
#
#
#
# Elastic Constant Matrix: (Units=GPa)
#
#
# Indices 1 2 3 4 5 6 
#
# 1 71.5830 22.4421 28.6402 0.0000 0.0000 0.0000
# 2 22.4421 94.4996 73.0316 0.0000 0.0000 0.0000
# 3 28.6402 73.0316 136.8397 0.0000 0.0000 0.0000
# 4 0.0000 0.0000 0.0000 28.4487 0.0000 0.0000
# 5 0.0000 0.0000 0.0000 0.0000 11.3995 0.0000
# 6 0.0000 0.0000 0.0000 0.0000 0.0000 29.4896
#
#
#
# Elastic Compliance Matrix: (Units=1/GPa)
#
#
# Indices 1 2 3 4 5 6 
#
# 1 0.015464 -0.001993 -0.002173 0.000000 0.000000 0.000000
# 2 -0.001993 0.018268 -0.009332 0.000000 0.000000 0.000000
# 3 -0.002173 -0.009332 0.012743 0.000000 0.000000 0.000000
# 4 0.000000 0.000000 0.000000 0.035151 0.000000 0.000000
# 5 0.000000 0.000000 0.000000 0.000000 0.087723 0.000000
# 6 0.000000 0.000000 0.000000 0.000000 0.000000 0.033910
#
#
# Mechanical properties :
#
#
# Convention : Reuss Voigt Hill
#
# Bulk Modulus (GPa) = 51.33932 61.23888 56.28910
# Shear Modulus (GPa) = 21.11942 25.78812 23.45377
#
# Velocity S-wave (km/s) = 3.13006 3.45876 3.29851
# Velocity P-wave (km/s) = 6.07282 6.66028 6.37332
#
# Compressibility (1/GPa) = 0.01947825
#
# Stress axis : x y z
#
# Youngs Moduli (GPa) = 64.66619 54.74151 78.47292
#
# Poissons Ratio (x) = 0.10912 0.17050
# Poissons Ratio (y) = 0.12890 0.73233
# Poissons Ratio (z) = 0.14050 0.51086
#
# Static dielectric constant tensor:
#      x y z
#    x 3.819070 0.000000 0.000000 
#    y 0.000000 4.023130 0.000000 
#    z 0.000000 0.000000 3.974200 
# 
# 
# High freq. dielectric constant tensor:
#      x y z
#    x 1.856790 0.000000 0.000000 
#    y 0.000000 1.854650 0.000000 
#    z 0.000000 0.000000 1.850030 
# 
# From -- ./inp_files/55257.got.cif
#   From: 2010.03.12/outbox.cif.g09.slc.cpg/sg68_28_cif.got.tgz:55257.got - 2010.04.10 23:14:56.
