data_PCOD8282970
_publ_section_title
;
Structure prediction by ZEFSAII (Michael W. Deem and Ramdas Pophale) SiO2 
 PCOD8282970
Probable space group: C C C A
;
_chemical_formula_sum "Si O2"
_cell_formula_units_Z 108
_cell_length_a 29.710895
_cell_length_b 10.660893
_cell_length_c 15.285010
_cell_angle_alpha 90.000000
_cell_angle_beta 90.000000
_cell_angle_gamma 90.000000
_cell_volume 4841.445487
_symmetry_space_group_name_H-M "C C C A"
_symmetry_group_IT_number 68
_space_group.IT_coordinate_system_code '2'
_symmetry_cell_setting 'orthorhombic'
loop_
_space_group_symop_operation_xyz
x,y,z
-x,1/2-y,z
x,1/2-y,1/2-z
-x,y,1/2-z
-x,-y,-z
x,1/2+y,-z
-x,1/2+y,1/2+z
x,-y,1/2+z
1/2+x,1/2+y,z
1/2-x,-y,z
1/2+x,-y,1/2-z
1/2-x,1/2+y,1/2-z
1/2-x,1/2-y,-z
1/2+x,y,-z
1/2-x,y,1/2+z
1/2+x,1/2-y,1/2+z
loop_
_atom_site_type_symbol
_atom_site_label
_atom_site_fract_x
_atom_site_fract_y
_atom_site_fract_z
Si Si1 0.639128 0.482466 0.677845
Si Si2 0.500000 0.750000 0.250000
Si Si3 0.618396 0.149709 0.173996
Si Si4 0.186652 0.807409 0.072861
Si Si5 0.471717 0.131555 0.421533
Si Si6 0.044208 0.922630 0.611014
Si Si7 0.729529 0.862519 0.102277
Si Si8 0.678627 0.750000 0.250000
O O1 0.639781 0.528265 0.779220
O O2 0.675771 0.562510 0.623222
O O3 0.590212 0.497983 0.631795
O O4 0.650377 0.334123 0.680867
O O5 0.466523 0.668683 0.309063
O O6 0.613345 0.250000 0.250000
O O7 0.648502 0.203314 0.094295
O O8 0.570038 0.110009 0.141162
O O9 0.234115 0.749412 0.101536
O O10 0.190583 0.838572 0.970154
O O11 0.500000 0.250000 0.390969
O O12 0.452259 0.152438 0.519589
O O13 0.502649 0.012954 0.405936
O O14 0.707839 0.852041 0.197549
O O15 0.750000 0.000000 0.087475
#
# Coordination Sequence:
#
# PCOD8282970 Si02
#       8
#    16   4  16  16  16  16  16   8
#     4  11  25  45  66 107 143 183 235 287 359 421
#     4  12  22  48  66  96 150 180 240 286 360 422
#     4  10  22  42  72 100 136 180 232 297 348 417
#     4  10  25  46  72  99 140 178 229 294 352 415
#     4  11  23  43  68 103 135 185 245 287 355 416
#     4  11  25  41  69 100 142 193 226 298 348 424
#     4  11  27  46  73 103 134 186 233 288 361 425
#     4  12  29  42  74 105 138 188 233 288 354 427
#
# _framework density 22.307388
#
# number of rings (size 3 to 8) (size 9 to 14) (size 15 to 20)
#    0.000    1.185    0.741    4.000   11.407    2.667 
#    0.000    0.000    0.000    0.000    0.000    0.000 
#    0.000    0.000    0.000    0.000    0.000    0.000 
#
# Total GULP energy -669590.185131 kJ/mol
# GULP energy per Si atom -12399.818243 kJ/mol
# Density = 2.225662 g / cm^3
# Si number density = 22.307388 Si / 1000 Ang^3
#
#
#
# Elastic Constant Matrix: (Units=GPa)
#
#
# Indices 1 2 3 4 5 6 
#
# 1 110.4382 42.0235 59.5892 0.0000 0.0000 0.0000
# 2 42.0235 99.1925 40.6886 0.0000 0.0000 0.0000
# 3 59.5892 40.6886 119.7066 0.0000 0.0000 0.0000
# 4 0.0000 0.0000 0.0000 36.3927 0.0000 0.0000
# 5 0.0000 0.0000 0.0000 0.0000 43.1022 0.0000
# 6 0.0000 0.0000 0.0000 0.0000 0.0000 34.0702
#
#
#
# Elastic Compliance Matrix: (Units=1/GPa)
#
#
# Indices 1 2 3 4 5 6 
#
# 1 0.013294 -0.003390 -0.005465 0.000000 0.000000 0.000000
# 2 -0.003390 0.012579 -0.002588 0.000000 0.000000 0.000000
# 3 -0.005465 -0.002588 0.011954 0.000000 0.000000 0.000000
# 4 0.000000 0.000000 0.000000 0.027478 0.000000 0.000000
# 5 0.000000 0.000000 0.000000 0.000000 0.023201 0.000000
# 6 0.000000 0.000000 0.000000 0.000000 0.000000 0.029351
#
#
# Mechanical properties :
#
#
# Convention : Reuss Voigt Hill
#
# Bulk Modulus (GPa) = 66.93419 68.21554 67.57486
# Shear Modulus (GPa) = 34.31146 35.18209 34.74678
#
# Velocity S-wave (km/s) = 3.92614 3.97564 3.95097
# Velocity P-wave (km/s) = 7.11501 7.19170 7.15345
#
# Compressibility (1/GPa) = 0.01494005
#
# Stress axis : x y z
#
# Youngs Moduli (GPa) = 75.22368 79.49555 83.65387
#
# Poissons Ratio (x) = 0.26950 0.45718
# Poissons Ratio (y) = 0.25502 0.21651
# Poissons Ratio (z) = 0.41111 0.20575
#
# Static dielectric constant tensor:
#      x y z
#    x 3.991630 0.000000 0.000000 
#    y 0.000000 4.040680 0.000000 
#    z 0.000000 0.000000 4.323780 
# 
# 
# High freq. dielectric constant tensor:
#      x y z
#    x 1.880540 0.000000 0.000000 
#    y 0.000000 1.883180 0.000000 
#    z 0.000000 0.000000 1.884770 
# 
# From -- ./inp_files/26449.got.cif
#   From: 2010.03.12/outbox.cif.g09.slc.cpg/sg68_14_cif.got.tgz:26449.got - 2010.04.10 23:14:56.
