data_PCOD8282018
_publ_section_title
;
Structure prediction by ZEFSAII (Michael W. Deem and Ramdas Pophale) SiO2 
 PCOD8282018
Probable space group: C C C A
;
_chemical_formula_sum "Si O2"
_cell_formula_units_Z 112
_cell_length_a 16.800436
_cell_length_b 9.850861
_cell_length_c 32.272801
_cell_angle_alpha 90.000000
_cell_angle_beta 90.000000
_cell_angle_gamma 90.000000
_cell_volume 5341.108540
_symmetry_space_group_name_H-M "C C C A"
_symmetry_group_IT_number 68
_space_group.IT_coordinate_system_code '2'
_symmetry_cell_setting 'orthorhombic'
loop_
_space_group_symop_operation_xyz
x,y,z
-x,1/2-y,z
x,1/2-y,1/2-z
-x,y,1/2-z
-x,-y,-z
x,1/2+y,-z
-x,1/2+y,1/2+z
x,-y,1/2+z
1/2+x,1/2+y,z
1/2-x,-y,z
1/2+x,-y,1/2-z
1/2-x,1/2+y,1/2-z
1/2-x,1/2-y,-z
1/2+x,y,-z
1/2-x,y,1/2+z
1/2+x,1/2-y,1/2+z
loop_
_atom_site_type_symbol
_atom_site_label
_atom_site_fract_x
_atom_site_fract_y
_atom_site_fract_z
Si Si1 0.468741 0.595982 0.463022
Si Si2 0.911158 0.740339 0.337335
Si Si3 0.092309 0.231076 0.296314
Si Si4 0.842770 0.997921 0.813911
Si Si5 0.941140 0.628926 0.425168
Si Si6 0.158643 0.965837 0.279394
Si Si7 0.690537 0.876334 0.504180
O O1 0.500000 0.750000 0.464637
O O2 0.500000 0.500000 0.500000
O O3 0.507476 0.513399 0.424242
O O4 0.371693 0.605428 0.465341
O O5 0.879825 0.893130 0.345638
O O6 0.907904 0.653836 0.379293
O O7 0.855358 0.677086 0.301716
O O8 0.000000 0.750000 0.319827
O O9 0.128109 0.250000 0.250000
O O10 0.130155 0.345343 0.326121
O O11 0.114690 0.077739 0.308637
O O12 0.000000 0.250000 0.297336
O O13 0.750000 0.000000 0.818099
O O14 0.874543 0.035690 0.767592
O O15 0.864485 0.630770 0.454966
O O16 0.000000 0.750000 0.439261
O O17 0.250000 0.000000 0.277984
O O18 0.750000 0.750000 0.500000
O O19 0.750000 0.000000 0.507225
#
# Coordination Sequence:
#
# PCOD8282018 Si02
#       7
#    16  16  16  16  16  16  16
#     4  10  19  37  63  88 120 160 195 236 291 354
#     4  11  23  38  57  82 115 157 199 243 292 354
#     4   9  17  30  50  76 104 134 177 236 289 339
#     4  10  20  36  57  82 109 146 195 245 302 360
#     4  10  22  41  56  80 124 164 194 234 295 356
#     4  10  20  35  57  82 110 145 191 248 306 359
#     4  11  20  34  62  95 115 142 194 247 287 336
#
# _framework density 20.969429000000002
#
# number of rings (size 3 to 8) (size 9 to 14) (size 15 to 20)
#    0.000    1.857    0.000    6.429    0.000    5.143 
#    0.000    7.143    0.000    0.000    0.000    0.000 
#    0.000    0.000    0.000    0.000    0.000    0.000 
#
# Total GULP energy -693906.039342 kJ/mol
# GULP energy per Si atom -12391.179274 kJ/mol
# Density = 2.092170 g / cm^3
# Si number density = 20.969429 Si / 1000 Ang^3
#
#
#
# Elastic Constant Matrix: (Units=GPa)
#
#
# Indices 1 2 3 4 5 6 
#
# 1 124.6989 49.9125 21.6188 0.0000 0.0000 0.0000
# 2 49.9125 146.8373 16.1068 0.0000 0.0000 0.0000
# 3 21.6188 16.1068 51.9279 0.0000 0.0000 0.0000
# 4 0.0000 0.0000 0.0000 25.6102 0.0000 0.0000
# 5 0.0000 0.0000 0.0000 0.0000 3.0236 0.0000
# 6 0.0000 0.0000 0.0000 0.0000 0.0000 51.5885
#
#
#
# Elastic Compliance Matrix: (Units=1/GPa)
#
#
# Indices 1 2 3 4 5 6 
#
# 1 0.009753 -0.002971 -0.003139 0.000000 0.000000 0.000000
# 2 -0.002971 0.007955 -0.001231 0.000000 0.000000 0.000000
# 3 -0.003139 -0.001231 0.020946 0.000000 0.000000 0.000000
# 4 0.000000 0.000000 0.000000 0.039047 0.000000 0.000000
# 5 0.000000 0.000000 0.000000 0.000000 0.330730 0.000000
# 6 0.000000 0.000000 0.000000 0.000000 0.000000 0.019384
#
#
# Mechanical properties :
#
#
# Convention : Reuss Voigt Hill
#
# Bulk Modulus (GPa) = 41.71332 55.41561 48.56447
# Shear Modulus (GPa) = 11.09913 31.76619 21.43266
#
# Velocity S-wave (km/s) = 2.30315 3.89637 3.20048
# Velocity P-wave (km/s) = 5.19695 6.83568 6.07185
#
# Compressibility (1/GPa) = 0.02397315
#
# Stress axis : x y z
#
# Youngs Moduli (GPa) = 102.53700 125.70605 47.74197
#
# Poissons Ratio (x) = 0.37344 0.14985
# Poissons Ratio (y) = 0.30461 0.05875
# Poissons Ratio (z) = 0.32184 0.15470
#
# Static dielectric constant tensor:
#      x y z
#    x 3.990880 0.000000 0.000000 
#    y 0.000000 7.095100 0.000000 
#    z 0.000000 0.000000 3.602880 
# 
# 
# High freq. dielectric constant tensor:
#      x y z
#    x 1.832340 0.000000 0.000000 
#    y 0.000000 1.846300 0.000000 
#    z 0.000000 0.000000 1.772790 
# 
# From -- ./inp_files/55285.got.cif
#   From: 2010.03.12/outbox.cif.g09.slc.cpg/sg68_28_cif.got.tgz:55285.got - 2010.04.10 23:14:56.
