data_PCOD8282264
_publ_section_title
;
Structure prediction by ZEFSAII (Michael W. Deem and Ramdas Pophale) SiO2 
 PCOD8282264
Probable space group: C C C A
;
_chemical_formula_sum "Si O2"
_cell_formula_units_Z 88
_cell_length_a 11.315870
_cell_length_b 23.434650
_cell_length_c 14.900273
_cell_angle_alpha 90.000000
_cell_angle_beta 90.000000
_cell_angle_gamma 90.000000
_cell_volume 3951.305843
_symmetry_space_group_name_H-M "C C C A"
_symmetry_group_IT_number 68
_space_group.IT_coordinate_system_code '2'
_symmetry_cell_setting 'orthorhombic'
loop_
_space_group_symop_operation_xyz
x,y,z
-x,1/2-y,z
x,1/2-y,1/2-z
-x,y,1/2-z
-x,-y,-z
x,1/2+y,-z
-x,1/2+y,1/2+z
x,-y,1/2+z
1/2+x,1/2+y,z
1/2-x,-y,z
1/2+x,-y,1/2-z
1/2-x,1/2+y,1/2-z
1/2-x,1/2-y,-z
1/2+x,y,-z
1/2-x,y,1/2+z
1/2+x,1/2-y,1/2+z
loop_
_atom_site_type_symbol
_atom_site_label
_atom_site_fract_x
_atom_site_fract_y
_atom_site_fract_z
Si Si1 0.000000 0.670131 0.250000
Si Si2 0.132619 0.295605 0.913799
Si Si3 0.395447 0.716050 0.417760
Si Si4 0.414089 0.451469 0.671739
Si Si5 0.002418 0.108309 0.007173
Si Si6 0.348526 0.421332 0.161566
O O1 0.043901 0.710550 0.330235
O O2 0.108604 0.629299 0.224846
O O3 0.265296 0.285874 0.874940
O O4 0.109381 0.244366 0.982897
O O5 0.108221 0.358239 0.959356
O O6 0.500000 0.750000 0.362848
O O7 0.434095 0.651244 0.425303
O O8 0.500000 0.427002 0.750000
O O9 0.465025 0.444435 0.570640
O O10 0.391658 0.517275 0.695934
O O11 0.292343 0.416308 0.667898
O O12 0.100055 0.086195 0.938000
#
# Coordination Sequence:
#
# PCOD8282264 Si02
#       6
#     8  16  16  16  16  16
#     4  10  20  38  65  92 132 172 215 264 328 374
#     4   9  19  35  60  94 126 167 214 262 316 386
#     4   9  18  35  60  90 122 162 212 265 311 379
#     4  11  23  39  60  93 130 166 211 273 326 369
#     4  10  20  37  63  87 120 170 218 257 325 385
#     4  10  22  41  58  92 128 164 216 264 316 401
#
# _framework density 22.271118999999999
#
# number of rings (size 3 to 8) (size 9 to 14) (size 15 to 20)
#    0.000    2.182    0.909    1.636    2.545    0.000 
#    0.000   13.182    0.000    4.909    0.000    0.000 
#    0.000    0.000    0.000    0.000    0.000    0.000 
#
# Total GULP energy -545169.003152 kJ/mol
# GULP energy per Si atom -12390.204617 kJ/mol
# Density = 2.222043 g / cm^3
# Si number density = 22.271119 Si / 1000 Ang^3
#
#
#
# Elastic Constant Matrix: (Units=GPa)
#
#
# Indices 1 2 3 4 5 6 
#
# 1 161.4627 36.0437 31.2251 0.0000 0.0000 0.0000
# 2 36.0437 57.5845 16.1084 0.0000 0.0000 0.0000
# 3 31.2251 16.1084 87.1953 0.0000 0.0000 0.0000
# 4 0.0000 0.0000 0.0000 16.2050 0.0000 0.0000
# 5 0.0000 0.0000 0.0000 0.0000 24.4482 0.0000
# 6 0.0000 0.0000 0.0000 0.0000 0.0000 29.0392
#
#
#
# Elastic Compliance Matrix: (Units=1/GPa)
#
#
# Indices 1 2 3 4 5 6 
#
# 1 0.007491 -0.004153 -0.001915 0.000000 0.000000 0.000000
# 2 -0.004153 0.020615 -0.002321 0.000000 0.000000 0.000000
# 3 -0.001915 -0.002321 0.012583 0.000000 0.000000 0.000000
# 4 0.000000 0.000000 0.000000 0.061709 0.000000 0.000000
# 5 0.000000 0.000000 0.000000 0.000000 0.040903 0.000000
# 6 0.000000 0.000000 0.000000 0.000000 0.000000 0.034436
#
#
# Mechanical properties :
#
#
# Convention : Reuss Voigt Hill
#
# Bulk Modulus (GPa) = 41.82383 52.55523 47.18953
# Shear Modulus (GPa) = 24.69313 28.79618 26.74465
#
# Velocity S-wave (km/s) = 3.33340 3.59971 3.46911
# Velocity P-wave (km/s) = 5.79962 6.39737 6.10582
#
# Compressibility (1/GPa) = 0.02390981
#
# Stress axis : x y z
#
# Youngs Moduli (GPa) = 133.49614 48.50947 79.47111
#
# Poissons Ratio (x) = 0.20146 0.15221
# Poissons Ratio (y) = 0.55440 0.18446
# Poissons Ratio (z) = 0.25568 0.11260
#
# Static dielectric constant tensor:
#      x y z
#    x 4.455460 0.000000 0.000000 
#    y 0.000000 3.915080 0.000000 
#    z 0.000000 0.000000 3.699680 
# 
# 
# High freq. dielectric constant tensor:
#      x y z
#    x 1.889950 0.000000 0.000000 
#    y 0.000000 1.878450 0.000000 
#    z 0.000000 0.000000 1.847190 
# 
# From -- ./inp_files/20951.got.cif
#   From: 2010.03.12/outbox.cif.g09.slc.cpg/sg68_11_cif.got.tgz:20951.got - 2010.04.10 23:14:56.
