data_PCOD8282277
_publ_section_title
;
Structure prediction by ZEFSAII (Michael W. Deem and Ramdas Pophale) SiO2 
 PCOD8282277
Probable space group: C C C A
;
_chemical_formula_sum "Si O2"
_cell_formula_units_Z 72
_cell_length_a 28.951729
_cell_length_b 4.961041
_cell_length_c 24.214213
_cell_angle_alpha 90.000000
_cell_angle_beta 90.000000
_cell_angle_gamma 90.000000
_cell_volume 3477.904716
_symmetry_space_group_name_H-M "C C C A"
_symmetry_group_IT_number 68
_space_group.IT_coordinate_system_code '2'
_symmetry_cell_setting 'orthorhombic'
loop_
_space_group_symop_operation_xyz
x,y,z
-x,1/2-y,z
x,1/2-y,1/2-z
-x,y,1/2-z
-x,-y,-z
x,1/2+y,-z
-x,1/2+y,1/2+z
x,-y,1/2+z
1/2+x,1/2+y,z
1/2-x,-y,z
1/2+x,-y,1/2-z
1/2-x,1/2+y,1/2-z
1/2-x,1/2-y,-z
1/2+x,y,-z
1/2-x,y,1/2+z
1/2+x,1/2-y,1/2+z
loop_
_atom_site_type_symbol
_atom_site_label
_atom_site_fract_x
_atom_site_fract_y
_atom_site_fract_z
Si Si1 0.696190 0.486151 0.534123
Si Si2 0.626294 0.126203 0.874050
Si Si3 0.348920 0.127841 0.310239
Si Si4 0.946274 0.241315 0.036050
Si Si5 0.750000 0.000000 0.213802
O O1 0.681918 0.287157 0.483639
O O2 0.750000 0.500000 0.547683
O O3 0.671315 0.366076 0.587501
O O4 0.630817 0.330919 0.822213
O O5 0.580381 0.195409 0.907774
O O6 0.624216 0.822635 0.851943
O O7 0.358337 0.250000 0.250000
O O8 0.293377 0.111965 0.321549
O O9 0.000000 0.250000 0.051319
O O10 0.932660 0.451217 0.987968
O O11 0.730419 0.750000 0.250000
#
# Coordination Sequence:
#
# PCOD8282277 Si02
#       5
#    16  16  16  16   8
#     4  10  21  35  51  78 115 148 183 229 283 354
#     4  12  22  36  62  84 114 157 197 241 295 363
#     4  11  24  38  57  83 117 155 202 256 290 339
#     4  10  21  39  64  93 121 148 190 246 299 359
#     4  10  20  38  56  76 110 154 206 256 296 330
#
# _framework density 20.702120000000001
#
# number of rings (size 3 to 8) (size 9 to 14) (size 15 to 20)
#    0.000    1.333    0.000    7.333    3.111    0.000 
#    0.000    0.000    0.000    4.000    0.000    0.000 
#    0.000    0.000    0.000    0.000    0.000    0.000 
#
# Total GULP energy -446280.953492 kJ/mol
# GULP energy per Si atom -12396.693153 kJ/mol
# Density = 2.065500 g / cm^3
# Si number density = 20.702120 Si / 1000 Ang^3
#
#
#
# Elastic Constant Matrix: (Units=GPa)
#
#
# Indices 1 2 3 4 5 6 
#
# 1 79.6597 33.4772 41.0273 0.0000 0.0000 0.0000
# 2 33.4772 105.6661 19.2988 0.0000 0.0000 0.0000
# 3 41.0273 19.2988 73.4549 0.0000 0.0000 0.0000
# 4 0.0000 0.0000 0.0000 31.4126 0.0000 0.0000
# 5 0.0000 0.0000 0.0000 0.0000 8.8750 0.0000
# 6 0.0000 0.0000 0.0000 0.0000 0.0000 26.5393
#
#
#
# Elastic Compliance Matrix: (Units=1/GPa)
#
#
# Indices 1 2 3 4 5 6 
#
# 1 0.019371 -0.004371 -0.009671 0.000000 0.000000 0.000000
# 2 -0.004371 0.010927 -0.000430 0.000000 0.000000 0.000000
# 3 -0.009671 -0.000430 0.019128 0.000000 0.000000 0.000000
# 4 0.000000 0.000000 0.000000 0.031834 0.000000 0.000000
# 5 0.000000 0.000000 0.000000 0.000000 0.112676 0.000000
# 6 0.000000 0.000000 0.000000 0.000000 0.000000 0.037680
#
#
# Mechanical properties :
#
#
# Convention : Reuss Voigt Hill
#
# Bulk Modulus (GPa) = 48.82010 49.59860 49.20935
# Shear Modulus (GPa) = 18.69941 24.36386 21.53163
#
# Velocity S-wave (km/s) = 3.00869 3.43429 3.22851
# Velocity P-wave (km/s) = 5.97520 6.30365 6.14162
#
# Compressibility (1/GPa) = 0.02048336
#
# Stress axis : x y z
#
# Youngs Moduli (GPa) = 51.62293 91.51631 52.27841
#
# Poissons Ratio (x) = 0.40001 0.50559
# Poissons Ratio (y) = 0.22564 0.02246
# Poissons Ratio (z) = 0.49925 0.03931
#
# Static dielectric constant tensor:
#      x y z
#    x 3.578590 0.000000 0.000000 
#    y 0.000000 4.163720 0.000000 
#    z 0.000000 0.000000 3.564420 
# 
# 
# High freq. dielectric constant tensor:
#      x y z
#    x 1.785340 0.000000 0.000000 
#    y 0.000000 1.839120 0.000000 
#    z 0.000000 0.000000 1.792200 
# 
# From -- ./inp_files/47140.got.cif
#   From: 2010.03.12/outbox.cif.g09.slc.cpg/sg68_24_cif.got.tgz:47140.got - 2010.04.10 23:14:56.
