data_PCOD8282397
_publ_section_title
;
Structure prediction by ZEFSAII (Michael W. Deem and Ramdas Pophale) SiO2 
 PCOD8282397
Probable space group: C C C A
;
_chemical_formula_sum "Si O2"
_cell_formula_units_Z 116
_cell_length_a 21.159556
_cell_length_b 27.076235
_cell_length_c 9.633830
_cell_angle_alpha 90.000000
_cell_angle_beta 90.000000
_cell_angle_gamma 90.000000
_cell_volume 5519.424584
_symmetry_space_group_name_H-M "C C C A"
_symmetry_group_IT_number 68
_space_group.IT_coordinate_system_code '2'
_symmetry_cell_setting 'orthorhombic'
loop_
_space_group_symop_operation_xyz
x,y,z
-x,1/2-y,z
x,1/2-y,1/2-z
-x,y,1/2-z
-x,-y,-z
x,1/2+y,-z
-x,1/2+y,1/2+z
x,-y,1/2+z
1/2+x,1/2+y,z
1/2-x,-y,z
1/2+x,-y,1/2-z
1/2-x,1/2+y,1/2-z
1/2-x,1/2-y,-z
1/2+x,y,-z
1/2-x,y,1/2+z
1/2+x,1/2-y,1/2+z
loop_
_atom_site_type_symbol
_atom_site_label
_atom_site_fract_x
_atom_site_fract_y
_atom_site_fract_z
Si Si1 0.929278 0.330188 0.932915
Si Si2 0.000000 0.250000 0.750000
Si Si3 0.011618 0.077905 0.085348
Si Si4 0.843246 0.762008 0.898223
Si Si5 0.899475 0.987717 0.476049
Si Si6 0.807732 0.868488 0.193445
Si Si7 0.815415 0.476970 0.783780
Si Si8 0.724871 0.317939 0.037313
O O1 0.881332 0.356517 0.828172
O O2 0.962363 0.286300 0.850556
O O3 0.975563 0.370130 0.006407
O O4 0.888404 0.304927 0.051191
O O5 0.000000 0.086269 0.250000
O O6 0.950676 0.053439 0.015105
O O7 0.070310 0.041097 0.058948
O O8 0.872342 0.750000 0.750000
O O9 0.771754 0.781566 0.880489
O O10 0.838436 0.712838 0.994787
O O11 0.863534 0.968503 0.341518
O O12 0.849162 0.990331 0.599762
O O13 0.796961 0.924679 0.150877
O O14 0.794058 0.861093 0.356940
O O15 0.759498 0.837340 0.100283
O O16 0.750000 0.500000 0.730387
#
# Coordination Sequence:
#
# PCOD8282397 Si02
#       8
#    16   4  16  16  16  16  16  16
#     4  11  26  43  70  98 140 174 249 300 346 424
#     4  12  28  48  66 100 132 188 236 310 356 416
#     4  11  24  48  77 102 136 193 251 297 356 435
#     4  10  20  40  65  96 133 178 225 290 351 412
#     4  11  25  48  74 103 145 188 237 301 360 433
#     4  11  24  42  65 101 134 185 232 278 350 435
#     4  12  27  44  69 107 150 178 227 297 366 429
#     4  10  21  39  66  93 136 185 228 273 344 433
#
# _framework density 21.016683
#
# number of rings (size 3 to 8) (size 9 to 14) (size 15 to 20)
#    0.000    1.103    4.138    1.241    5.793    1.103 
#    2.483    0.000    0.000    0.000    0.000    0.000 
#    0.000    0.000    0.000    0.000    0.000    0.000 
#
# Total GULP energy -719110.217819 kJ/mol
# GULP energy per Si atom -12398.452031 kJ/mol
# Density = 2.096885 g / cm^3
# Si number density = 21.016683 Si / 1000 Ang^3
#
#
#
# Elastic Constant Matrix: (Units=GPa)
#
#
# Indices 1 2 3 4 5 6 
#
# 1 74.1662 51.5377 30.4408 0.0000 0.0000 0.0000
# 2 51.5377 128.0548 39.4088 0.0000 0.0000 0.0000
# 3 30.4408 39.4088 109.5367 0.0000 0.0000 0.0000
# 4 0.0000 0.0000 0.0000 28.2431 0.0000 0.0000
# 5 0.0000 0.0000 0.0000 0.0000 25.2023 0.0000
# 6 0.0000 0.0000 0.0000 0.0000 0.0000 59.0025
#
#
#
# Elastic Compliance Matrix: (Units=1/GPa)
#
#
# Indices 1 2 3 4 5 6 
#
# 1 0.019515 -0.006955 -0.002921 0.000000 0.000000 0.000000
# 2 -0.006955 0.011260 -0.002118 0.000000 0.000000 0.000000
# 3 -0.002921 -0.002118 0.010703 0.000000 0.000000 0.000000
# 4 0.000000 0.000000 0.000000 0.035407 0.000000 0.000000
# 5 0.000000 0.000000 0.000000 0.000000 0.039679 0.000000
# 6 0.000000 0.000000 0.000000 0.000000 0.000000 0.016948
#
#
# Mechanical properties :
#
#
# Convention : Reuss Voigt Hill
#
# Bulk Modulus (GPa) = 57.17678 61.61471 59.39575
# Shear Modulus (GPa) = 30.61243 35.18095 32.89669
#
# Velocity S-wave (km/s) = 3.82065 4.09584 3.96064
# Velocity P-wave (km/s) = 6.83577 7.19364 7.01699
#
# Compressibility (1/GPa) = 0.01748962
#
# Stress axis : x y z
#
# Youngs Moduli (GPa) = 51.24170 88.80730 93.42962
#
# Poissons Ratio (x) = 0.61768 0.27291
# Poissons Ratio (y) = 0.35640 0.19791
# Poissons Ratio (z) = 0.14968 0.18812
#
# Static dielectric constant tensor:
#      x y z
#    x 3.322830 0.000000 0.000000 
#    y 0.000000 4.784220 0.000000 
#    z 0.000000 0.000000 3.793350 
# 
# 
# High freq. dielectric constant tensor:
#      x y z
#    x 1.817210 0.000000 0.000000 
#    y 0.000000 1.830280 0.000000 
#    z 0.000000 0.000000 1.832750 
# 
# From -- ./inp_files/8333.got.cif
#   From: 2010.03.12/outbox.cif.g09.slc.cpg/sg68_5_cif.got.tgz:8333.got - 2010.04.10 23:14:56.
