data_PCOD8282696
_publ_section_title
;
Structure prediction by ZEFSAII (Michael W. Deem and Ramdas Pophale) SiO2 
 PCOD8282696
Probable space group: C C C A
;
_chemical_formula_sum "Si O2"
_cell_formula_units_Z 104
_cell_length_a 18.050552
_cell_length_b 14.324303
_cell_length_c 20.796277
_cell_angle_alpha 90.000000
_cell_angle_beta 90.000000
_cell_angle_gamma 90.000000
_cell_volume 5377.118159
_symmetry_space_group_name_H-M "C C C A"
_symmetry_group_IT_number 68
_space_group.IT_coordinate_system_code '2'
_symmetry_cell_setting 'orthorhombic'
loop_
_space_group_symop_operation_xyz
x,y,z
-x,1/2-y,z
x,1/2-y,1/2-z
-x,y,1/2-z
-x,-y,-z
x,1/2+y,-z
-x,1/2+y,1/2+z
x,-y,1/2+z
1/2+x,1/2+y,z
1/2-x,-y,z
1/2+x,-y,1/2-z
1/2-x,1/2+y,1/2-z
1/2-x,1/2-y,-z
1/2+x,y,-z
1/2-x,y,1/2+z
1/2+x,1/2-y,1/2+z
loop_
_atom_site_type_symbol
_atom_site_label
_atom_site_fract_x
_atom_site_fract_y
_atom_site_fract_z
Si Si1 0.416240 0.119834 0.760195
Si Si2 0.580043 0.786192 0.594091
Si Si3 0.821352 0.851102 0.332123
Si Si4 0.077942 0.094484 0.781054
Si Si5 0.184501 0.819216 0.520891
Si Si6 0.661416 0.277188 0.659279
Si Si7 0.250000 0.000000 0.084704
O O1 0.500000 0.153969 0.750000
O O2 0.376284 0.131256 0.691186
O O3 0.372553 0.183736 0.810968
O O4 0.412343 0.015849 0.786148
O O5 0.500000 0.750000 0.571961
O O6 0.620056 0.696127 0.621398
O O7 0.578681 0.867023 0.647261
O O8 0.622783 0.829180 0.533458
O O9 0.855168 0.863093 0.260891
O O10 0.749200 0.785351 0.327359
O O11 0.807139 0.950180 0.366592
O O12 0.000000 0.123374 0.750000
O O13 0.250000 0.750000 0.500000
O O14 0.145338 0.775343 0.583593
O O15 0.213262 0.922751 0.538459
#
# Coordination Sequence:
#
# PCOD8282696 Si02
#       7
#    16  16  16  16  16  16   8
#     4  10  23  41  65  97 127 164 218 269 321 371
#     4  12  25  42  63  95 128 171 211 258 328 382
#     4  11  22  41  64  91 126 168 214 259 319 375
#     4  11  23  40  64  92 129 167 213 267 314 377
#     4  11  23  43  65  93 131 170 213 262 318 386
#     4  10  21  40  67  93 127 167 206 266 322 372
#     4  10  22  44  70  88 126 172 212 272 316 380
#
# _framework density 19.341214999999998
#
# number of rings (size 3 to 8) (size 9 to 14) (size 15 to 20)
#    0.000    1.231    4.615    3.231    4.308    2.462 
#    0.000    0.769    0.000    0.000    0.000    0.000 
#    0.000    0.000    0.000    0.000    0.000    0.000 
#
# Total GULP energy -644720.905890 kJ/mol
# GULP energy per Si atom -12398.478959 kJ/mol
# Density = 1.929719 g / cm^3
# Si number density = 19.341215 Si / 1000 Ang^3
#
#
#
# Elastic Constant Matrix: (Units=GPa)
#
#
# Indices 1 2 3 4 5 6 
#
# 1 129.2967 43.9256 64.2297 0.0000 0.0000 0.0000
# 2 43.9256 96.5361 50.9614 0.0000 0.0000 0.0000
# 3 64.2297 50.9614 166.4696 0.0000 0.0000 0.0000
# 4 0.0000 0.0000 0.0000 22.0778 0.0000 0.0000
# 5 0.0000 0.0000 0.0000 0.0000 38.5112 0.0000
# 6 0.0000 0.0000 0.0000 0.0000 0.0000 33.8887
#
#
#
# Elastic Compliance Matrix: (Units=1/GPa)
#
#
# Indices 1 2 3 4 5 6 
#
# 1 0.010284 -0.003083 -0.003024 0.000000 0.000000 0.000000
# 2 -0.003083 0.013280 -0.002876 0.000000 0.000000 0.000000
# 3 -0.003024 -0.002876 0.008054 0.000000 0.000000 0.000000
# 4 0.000000 0.000000 0.000000 0.045294 0.000000 0.000000
# 5 0.000000 0.000000 0.000000 0.000000 0.025966 0.000000
# 6 0.000000 0.000000 0.000000 0.000000 0.000000 0.029508
#
#
# Mechanical properties :
#
#
# Convention : Reuss Voigt Hill
#
# Bulk Modulus (GPa) = 73.24839 78.94841 76.09840
# Shear Modulus (GPa) = 32.27824 34.44127 33.35976
#
# Velocity S-wave (km/s) = 4.08963 4.22443 4.15758
# Velocity P-wave (km/s) = 7.76234 8.04374 7.90430
#
# Compressibility (1/GPa) = 0.01365218
#
# Stress axis : x y z
#
# Youngs Moduli (GPa) = 97.24108 75.30260 124.15781
#
# Poissons Ratio (x) = 0.23215 0.37546
# Poissons Ratio (y) = 0.29978 0.35706
# Poissons Ratio (z) = 0.29406 0.21656
#
# Static dielectric constant tensor:
#      x y z
#    x 3.937590 0.000000 0.000000 
#    y 0.000000 3.525080 0.000000 
#    z 0.000000 0.000000 3.644200 
# 
# 
# High freq. dielectric constant tensor:
#      x y z
#    x 1.761730 0.000000 0.000000 
#    y 0.000000 1.759110 0.000000 
#    z 0.000000 0.000000 1.754160 
# 
# From -- ./inp_files/39605.got.cif
#   From: 2010.03.12/outbox.cif.g09.slc.cpg/sg68_20_cif.got.tgz:39605.got - 2010.04.10 23:14:56.
