data_PCOD8282487
_publ_section_title
;
Structure prediction by ZEFSAII (Michael W. Deem and Ramdas Pophale) SiO2 
 PCOD8282487
Probable space group: C C C A
;
_chemical_formula_sum "Si O2"
_cell_formula_units_Z 68
_cell_length_a 20.175990
_cell_length_b 4.883320
_cell_length_c 33.448341
_cell_angle_alpha 90.000000
_cell_angle_beta 90.000000
_cell_angle_gamma 90.000000
_cell_volume 3295.525074
_symmetry_space_group_name_H-M "C C C A"
_symmetry_group_IT_number 68
_space_group.IT_coordinate_system_code '2'
_symmetry_cell_setting 'orthorhombic'
loop_
_space_group_symop_operation_xyz
x,y,z
-x,1/2-y,z
x,1/2-y,1/2-z
-x,y,1/2-z
-x,-y,-z
x,1/2+y,-z
-x,1/2+y,1/2+z
x,-y,1/2+z
1/2+x,1/2+y,z
1/2-x,-y,z
1/2+x,-y,1/2-z
1/2-x,1/2+y,1/2-z
1/2-x,1/2-y,-z
1/2+x,y,-z
1/2-x,y,1/2+z
1/2+x,1/2-y,1/2+z
loop_
_atom_site_type_symbol
_atom_site_label
_atom_site_fract_x
_atom_site_fract_y
_atom_site_fract_z
Si Si1 0.324162 0.468565 0.612416
Si Si2 0.591218 0.978863 0.868851
Si Si3 0.130651 0.118894 0.472187
Si Si4 0.500000 0.750000 0.802437
Si Si5 0.500000 0.250000 0.569948
Si Si6 0.000000 0.750000 0.750000
O O1 0.250000 0.500000 0.629482
O O2 0.358982 0.760174 0.613084
O O3 0.322020 0.367335 0.566506
O O4 0.366756 0.255668 0.639061
O O5 0.559793 0.879637 0.827475
O O6 0.533543 0.023166 0.901496
O O7 0.147522 0.371985 0.499482
O O8 0.054205 0.104540 0.457827
O O9 0.534009 0.487319 0.778476
#
# Coordination Sequence:
#
# PCOD8282487 Si02
#       6
#    16  16  16   8   8   4
#     4  11  24  40  56  81 113 156 210 251 288 338
#     4  11  22  38  63  86 117 152 189 248 288 335
#     4  11  22  34  52  75 108 151 192 251 313 362
#     4  11  20  38  61  98 127 151 182 213 287 344
#     4  10  21  36  55  83 111 142 196 250 307 357
#     4  10  22  34  60  98 140 156 160 208 276 368
#
# _framework density 20.634042000000001
#
# number of rings (size 3 to 8) (size 9 to 14) (size 15 to 20)
#    0.000    1.176    0.000    9.176    0.000    4.706 
#    0.000    0.000    0.000    0.000    0.000   46.118 
#    0.000    0.000    0.000    0.000    0.000    0.000 
#
# Total GULP energy -421212.497696 kJ/mol
# GULP energy per Si atom -12388.602873 kJ/mol
# Density = 2.058708 g / cm^3
# Si number density = 20.634042 Si / 1000 Ang^3
#
#
#
# Elastic Constant Matrix: (Units=GPa)
#
#
# Indices 1 2 3 4 5 6 
#
# 1 82.9012 29.1512 18.9349 0.0000 0.0000 0.0000
# 2 29.1512 135.7482 25.6475 0.0000 0.0000 0.0000
# 3 18.9349 25.6475 78.0440 0.0000 0.0000 0.0000
# 4 0.0000 0.0000 0.0000 41.0238 0.0000 0.0000
# 5 0.0000 0.0000 0.0000 0.0000 2.0499 0.0000
# 6 0.0000 0.0000 0.0000 0.0000 0.0000 28.9693
#
#
#
# Elastic Compliance Matrix: (Units=1/GPa)
#
#
# Indices 1 2 3 4 5 6 
#
# 1 0.013481 -0.002428 -0.002473 0.000000 0.000000 0.000000
# 2 -0.002428 0.008291 -0.002136 0.000000 0.000000 0.000000
# 3 -0.002473 -0.002136 0.014115 0.000000 0.000000 0.000000
# 4 0.000000 0.000000 0.000000 0.024376 0.000000 0.000000
# 5 0.000000 0.000000 0.000000 0.000000 0.487830 0.000000
# 6 0.000000 0.000000 0.000000 0.000000 0.000000 0.034519
#
#
# Mechanical properties :
#
#
# Convention : Reuss Voigt Hill
#
# Bulk Modulus (GPa) = 45.84064 49.35119 47.59591
# Shear Modulus (GPa) = 8.27873 29.27260 18.77566
#
# Velocity S-wave (km/s) = 2.00521 3.77059 3.01979
# Velocity P-wave (km/s) = 5.25599 6.55178 5.93933
#
# Compressibility (1/GPa) = 0.02181470
#
# Stress axis : x y z
#
# Youngs Moduli (GPa) = 74.17808 120.60605 70.84594
#
# Poissons Ratio (x) = 0.29280 0.17520
# Poissons Ratio (y) = 0.18009 0.15131
# Poissons Ratio (z) = 0.18344 0.25759
#
# Static dielectric constant tensor:
#      x y z
#    x 3.712640 0.000000 0.000000 
#    y 0.000000 4.202750 0.000000 
#    z 0.000000 0.000000 3.861200 
# 
# 
# High freq. dielectric constant tensor:
#      x y z
#    x 1.775170 0.000000 0.000000 
#    y 0.000000 1.837600 0.000000 
#    z 0.000000 0.000000 1.794850 
# 
# From -- ./inp_files/55744.got.cif
#   From: 2010.03.12/outbox.cif.g09.slc.cpg/sg68_28_cif.got.tgz:55744.got - 2010.04.10 23:14:56.
