data_PCOD8282501
_publ_section_title
;
Structure prediction by ZEFSAII (Michael W. Deem and Ramdas Pophale) SiO2 
 PCOD8282501
Probable space group: C C C A
;
_chemical_formula_sum "Si O2"
_cell_formula_units_Z 80
_cell_length_a 22.706782
_cell_length_b 4.920697
_cell_length_c 32.850049
_cell_angle_alpha 90.000000
_cell_angle_beta 90.000000
_cell_angle_gamma 90.000000
_cell_volume 3670.440900
_symmetry_space_group_name_H-M "C C C A"
_symmetry_group_IT_number 68
_space_group.IT_coordinate_system_code '2'
_symmetry_cell_setting 'orthorhombic'
loop_
_space_group_symop_operation_xyz
x,y,z
-x,1/2-y,z
x,1/2-y,1/2-z
-x,y,1/2-z
-x,-y,-z
x,1/2+y,-z
-x,1/2+y,1/2+z
x,-y,1/2+z
1/2+x,1/2+y,z
1/2-x,-y,z
1/2+x,-y,1/2-z
1/2-x,1/2+y,1/2-z
1/2-x,1/2-y,-z
1/2+x,y,-z
1/2-x,y,1/2+z
1/2+x,1/2-y,1/2+z
loop_
_atom_site_type_symbol
_atom_site_label
_atom_site_fract_x
_atom_site_fract_y
_atom_site_fract_z
Si Si1 0.682307 0.999312 0.778151
Si Si2 0.376300 0.417854 0.362479
Si Si3 0.442135 0.080222 0.890446
Si Si4 0.709992 0.749775 0.570154
Si Si5 0.406895 0.858153 0.974097
O O1 0.667613 0.750000 0.750000
O O2 0.639414 0.993399 0.816596
O O3 0.666400 0.250000 0.750000
O O4 0.750000 0.000000 0.792996
O O5 0.391553 0.694788 0.386445
O O6 0.320155 0.310287 0.386666
O O7 0.427975 0.185361 0.362440
O O8 0.500000 0.250000 0.877500
O O9 0.445732 0.956996 0.935947
O O10 0.750000 0.500000 0.553986
O O11 0.750000 0.000000 0.580483
O O12 0.662314 0.845302 0.536735
O O13 0.422635 0.053656 0.011959
#
# Coordination Sequence:
#
# PCOD8282501 Si02
#       5
#    16  16  16  16  16
#     4  10  21  36  60  95 129 159 187 224 284 350
#     4  11  22  40  63  88 122 155 198 249 288 352
#     4  11  24  42  64  86 111 155 208 255 305 349
#     4  11  22  36  57  85 119 162 199 235 294 365
#     4  11  23  38  56  84 117 151 199 254 306 359
#
# _framework density 21.795746999999999
#
# number of rings (size 3 to 8) (size 9 to 14) (size 15 to 20)
#    0.000    1.200    0.000    8.400    0.000    5.600 
#    0.000    0.000    0.000    9.000    0.000    0.000 
#    0.000    0.000    0.000    0.000    0.000    0.000 
#
# Total GULP energy -495854.625982 kJ/mol
# GULP energy per Si atom -12396.365650 kJ/mol
# Density = 2.174614 g / cm^3
# Si number density = 21.795747 Si / 1000 Ang^3
#
#
#
# Elastic Constant Matrix: (Units=GPa)
#
#
# Indices 1 2 3 4 5 6 
#
# 1 52.1858 28.2680 31.1328 0.0000 0.0000 0.0000
# 2 28.2680 153.8877 50.3556 0.0000 0.0000 0.0000
# 3 31.1328 50.3556 108.4893 0.0000 0.0000 0.0000
# 4 0.0000 0.0000 0.0000 55.3257 0.0000 0.0000
# 5 0.0000 0.0000 0.0000 0.0000 17.1994 0.0000
# 6 0.0000 0.0000 0.0000 0.0000 0.0000 43.5073
#
#
#
# Elastic Compliance Matrix: (Units=1/GPa)
#
#
# Indices 1 2 3 4 5 6 
#
# 1 0.023930 -0.002533 -0.005691 0.000000 0.000000 0.000000
# 2 -0.002533 0.007930 -0.002954 0.000000 0.000000 0.000000
# 3 -0.005691 -0.002954 0.012222 0.000000 0.000000 0.000000
# 4 0.000000 0.000000 0.000000 0.018075 0.000000 0.000000
# 5 0.000000 0.000000 0.000000 0.000000 0.058142 0.000000
# 6 0.000000 0.000000 0.000000 0.000000 0.000000 0.022985
#
#
# Mechanical properties :
#
#
# Convention : Reuss Voigt Hill
#
# Bulk Modulus (GPa) = 46.03016 59.34172 52.68594
# Shear Modulus (GPa) = 28.92160 36.86024 32.89092
#
# Velocity S-wave (km/s) = 3.64667 4.11684 3.88887
# Velocity P-wave (km/s) = 6.23664 7.06281 6.66254
#
# Compressibility (1/GPa) = 0.02172488
#
# Stress axis : x y z
#
# Youngs Moduli (GPa) = 41.78887 126.10074 81.82185
#
# Poissons Ratio (x) = 0.31947 0.46566
# Poissons Ratio (y) = 0.10587 0.24168
# Poissons Ratio (z) = 0.23783 0.37248
#
# Static dielectric constant tensor:
#      x y z
#    x 3.810110 0.000000 0.000000 
#    y 0.000000 4.335340 0.000000 
#    z 0.000000 0.000000 3.643940 
# 
# 
# High freq. dielectric constant tensor:
#      x y z
#    x 1.844570 0.000000 0.000000 
#    y 0.000000 1.889810 0.000000 
#    z 0.000000 0.000000 1.835840 
# 
# From -- ./inp_files/55919.got.cif
#   From: 2010.03.12/outbox.cif.g09.slc.cpg/sg68_28_cif.got.tgz:55919.got - 2010.04.10 23:14:56.
