data_PCOD8282056
_publ_section_title
;
Structure prediction by ZEFSAII (Michael W. Deem and Ramdas Pophale) SiO2 
 PCOD8282056
Probable space group: C C C A
;
_chemical_formula_sum "Si O2"
_cell_formula_units_Z 88
_cell_length_a 9.104852
_cell_length_b 23.264204
_cell_length_c 19.478601
_cell_angle_alpha 90.000000
_cell_angle_beta 90.000000
_cell_angle_gamma 90.000000
_cell_volume 4125.901444
_symmetry_space_group_name_H-M "C C C A"
_symmetry_group_IT_number 68
_space_group.IT_coordinate_system_code '2'
_symmetry_cell_setting 'orthorhombic'
loop_
_space_group_symop_operation_xyz
x,y,z
-x,1/2-y,z
x,1/2-y,1/2-z
-x,y,1/2-z
-x,-y,-z
x,1/2+y,-z
-x,1/2+y,1/2+z
x,-y,1/2+z
1/2+x,1/2+y,z
1/2-x,-y,z
1/2+x,-y,1/2-z
1/2-x,1/2+y,1/2-z
1/2-x,1/2-y,-z
1/2+x,y,-z
1/2-x,y,1/2+z
1/2+x,1/2-y,1/2+z
loop_
_atom_site_type_symbol
_atom_site_label
_atom_site_fract_x
_atom_site_fract_y
_atom_site_fract_z
Si Si1 0.184088 0.883060 0.015847
Si Si2 0.750000 0.000000 0.174389
Si Si3 0.578435 0.456563 0.449222
Si Si4 0.671976 0.116592 0.735675
Si Si5 0.842542 0.691254 0.885666
Si Si6 0.678598 0.816425 0.365507
O O1 0.294798 0.859202 0.072062
O O2 0.032304 0.901879 0.053119
O O3 0.262551 0.936948 0.978350
O O4 0.156052 0.831221 0.963169
O O5 0.608786 0.015072 0.125566
O O6 0.780530 0.050786 0.228165
O O7 0.500000 0.500000 0.500000
O O8 0.500000 0.117682 0.750000
O O9 0.731599 0.145469 0.665389
O O10 0.746104 0.152339 0.798166
O O11 0.756017 0.752293 0.879100
O O12 0.007075 0.695260 0.857700
#
# Coordination Sequence:
#
# PCOD8282056 Si02
#       6
#    16   8  16  16  16  16
#     4  12  22  40  65  99 128 162 221 269 329 391
#     4  12  24  42  66  94 136 178 218 282 330 396
#     4  12  23  40  65  93 133 171 212 267 331 390
#     4  10  22  40  62  91 126 171 217 261 321 391
#     4  10  19  40  64  92 129 169 211 265 324 389
#     4  10  22  37  64  96 126 165 218 266 318 393
#
# _framework density 21.328671
#
# number of rings (size 3 to 8) (size 9 to 14) (size 15 to 20)
#    0.000    1.091    5.455    1.091    2.545    3.636 
#    0.000    0.000    0.000    0.000    4.727    0.000 
#    0.000    0.000    0.000    0.000    0.000    0.000 
#
# Total GULP energy -545342.438411 kJ/mol
# GULP energy per Si atom -12394.146328 kJ/mol
# Density = 2.128013 g / cm^3
# Si number density = 21.328671 Si / 1000 Ang^3
#
#
#
# Elastic Constant Matrix: (Units=GPa)
#
#
# Indices 1 2 3 4 5 6 
#
# 1 49.8491 19.2869 14.2792 0.0000 0.0000 0.0000
# 2 19.2869 139.1392 56.2446 0.0000 0.0000 0.0000
# 3 14.2792 56.2446 104.8892 0.0000 0.0000 0.0000
# 4 0.0000 0.0000 0.0000 44.7353 0.0000 0.0000
# 5 0.0000 0.0000 0.0000 0.0000 19.2902 0.0000
# 6 0.0000 0.0000 0.0000 0.0000 0.0000 27.5215
#
#
#
# Elastic Compliance Matrix: (Units=1/GPa)
#
#
# Indices 1 2 3 4 5 6 
#
# 1 0.021430 -0.002287 -0.001691 0.000000 0.000000 0.000000
# 2 -0.002287 0.009420 -0.004740 0.000000 0.000000 0.000000
# 3 -0.001691 -0.004740 0.012306 0.000000 0.000000 0.000000
# 4 0.000000 0.000000 0.000000 0.022354 0.000000 0.000000
# 5 0.000000 0.000000 0.000000 0.000000 0.051840 0.000000
# 6 0.000000 0.000000 0.000000 0.000000 0.000000 0.036335
#
#
# Mechanical properties :
#
#
# Convention : Reuss Voigt Hill
#
# Bulk Modulus (GPa) = 38.88063 52.61098 45.74581
# Shear Modulus (GPa) = 27.82511 31.91383 29.86947
#
# Velocity S-wave (km/s) = 3.61583 3.87238 3.74630
# Velocity P-wave (km/s) = 5.97504 6.68686 6.34095
#
# Compressibility (1/GPa) = 0.02571975
#
# Stress axis : x y z
#
# Youngs Moduli (GPa) = 46.66403 106.15579 81.26251
#
# Poissons Ratio (x) = 0.24277 0.13742
# Poissons Ratio (y) = 0.10672 0.38518
# Poissons Ratio (z) = 0.07891 0.50318
#
# Static dielectric constant tensor:
#      x y z
#    x 3.588790 0.000000 0.000000 
#    y 0.000000 4.262210 0.000000 
#    z 0.000000 0.000000 3.870060 
# 
# 
# High freq. dielectric constant tensor:
#      x y z
#    x 1.796240 0.000000 0.000000 
#    y 0.000000 1.859540 0.000000 
#    z 0.000000 0.000000 1.834670 
# 
# From -- ./inp_files/36293.got.cif
#   From: 2010.03.12/outbox.cif.g09.slc.cpg/sg68_19_cif.got.tgz:36293.got - 2010.04.10 23:14:56.
