data_PCOD8282787
_publ_section_title
;
Structure prediction by ZEFSAII (Michael W. Deem and Ramdas Pophale) SiO2 
 PCOD8282787
Probable space group: C C C A
;
_chemical_formula_sum "Si O2"
_cell_formula_units_Z 120
_cell_length_a 23.944682
_cell_length_b 24.547310
_cell_length_c 10.086395
_cell_angle_alpha 90.000000
_cell_angle_beta 90.000000
_cell_angle_gamma 90.000000
_cell_volume 5928.556359
_symmetry_space_group_name_H-M "C C C A"
_symmetry_group_IT_number 68
_space_group.IT_coordinate_system_code '2'
_symmetry_cell_setting 'orthorhombic'
loop_
_space_group_symop_operation_xyz
x,y,z
-x,1/2-y,z
x,1/2-y,1/2-z
-x,y,1/2-z
-x,-y,-z
x,1/2+y,-z
-x,1/2+y,1/2+z
x,-y,1/2+z
1/2+x,1/2+y,z
1/2-x,-y,z
1/2+x,-y,1/2-z
1/2-x,1/2+y,1/2-z
1/2-x,1/2-y,-z
1/2+x,y,-z
1/2-x,y,1/2+z
1/2+x,1/2-y,1/2+z
loop_
_atom_site_type_symbol
_atom_site_label
_atom_site_fract_x
_atom_site_fract_y
_atom_site_fract_z
Si Si1 0.203497 0.812910 0.896694
Si Si2 0.429606 0.967362 0.622006
Si Si3 0.000000 0.858969 0.750000
Si Si4 0.558219 0.556518 0.915026
Si Si5 0.435995 0.735823 0.892078
Si Si6 0.090929 0.370896 0.041170
Si Si7 0.708051 0.312789 0.605259
Si Si8 0.589887 0.165080 0.952622
O O1 0.145818 0.846545 0.890442
O O2 0.232572 0.818172 0.753282
O O3 0.192804 0.749706 0.930082
O O4 0.245831 0.837344 0.005614
O O5 0.413759 0.967780 0.779216
O O6 0.492602 0.947696 0.603071
O O7 0.391604 0.923670 0.543974
O O8 0.421152 0.025541 0.549238
O O9 0.957815 0.890403 0.647641
O O10 0.956576 0.825195 0.838415
O O11 0.572502 0.619765 0.938934
O O12 0.500000 0.750000 0.891178
O O13 0.409189 0.750000 0.750000
O O14 0.431643 0.673483 0.936806
O O15 0.402788 0.775169 0.988820
O O16 0.651638 0.349158 0.600118
#
# Coordination Sequence:
#
# PCOD8282787 Si02
#       8
#    16  16   8  16  16  16  16  16
#     4  10  22  39  58  83 117 161 209 248 292 352
#     4  10  22  37  58  84 120 159 202 246 301 367
#     4  12  24  33  62  92 126 158 196 249 318 366
#     4  10  22  37  58  84 120 159 202 246 301 367
#     4  11  22  34  51  80 121 156 189 238 301 364
#     4  12  22  37  59  88 121 158 197 247 305 364
#     4  10  22  39  58  83 117 161 209 248 292 352
#     4  12  22  37  59  88 121 158 197 247 305 364
#
# _framework density 20.241014
#
# number of rings (size 3 to 8) (size 9 to 14) (size 15 to 20)
#    0.000    1.200    5.333    0.800    1.867    5.333 
#    0.000    0.000    0.000    0.800    0.000    3.733 
#    0.000    0.000    0.000    0.000    0.000    0.000 
#
# Total GULP energy -743372.136530 kJ/mol
# GULP energy per Si atom -12389.535609 kJ/mol
# Density = 2.019494 g / cm^3
# Si number density = 20.241014 Si / 1000 Ang^3
#
#
#
# Elastic Constant Matrix: (Units=GPa)
#
#
# Indices 1 2 3 4 5 6 
#
# 1 93.8809 3.1460 41.3481 0.0000 0.0000 0.0000
# 2 3.1460 47.5221 12.2682 0.0000 0.0000 0.0000
# 3 41.3481 12.2682 136.5359 0.0000 0.0000 0.0000
# 4 0.0000 0.0000 0.0000 46.3699 0.0000 0.0000
# 5 0.0000 0.0000 0.0000 0.0000 19.5741 0.0000
# 6 0.0000 0.0000 0.0000 0.0000 0.0000 12.9708
#
#
#
# Elastic Compliance Matrix: (Units=1/GPa)
#
#
# Indices 1 2 3 4 5 6 
#
# 1 0.012292 0.000151 -0.003736 0.000000 0.000000 0.000000
# 2 0.000151 0.021544 -0.001981 0.000000 0.000000 0.000000
# 3 -0.003736 -0.001981 0.008634 0.000000 0.000000 0.000000
# 4 0.000000 0.000000 0.000000 0.021566 0.000000 0.000000
# 5 0.000000 0.000000 0.000000 0.000000 0.051088 0.000000
# 6 0.000000 0.000000 0.000000 0.000000 0.000000 0.077096
#
#
# Mechanical properties :
#
#
# Convention : Reuss Voigt Hill
#
# Bulk Modulus (GPa) = 31.91166 43.49594 37.70380
# Shear Modulus (GPa) = 23.38646 30.52808 26.95727
#
# Velocity S-wave (km/s) = 3.40280 3.88781 3.65336
# Velocity P-wave (km/s) = 5.58917 6.45670 6.03854
#
# Compressibility (1/GPa) = 0.03133651
#
# Stress axis : x y z
#
# Youngs Moduli (GPa) = 81.35225 46.41579 115.82722
#
# Poissons Ratio (x) = -0.00700 0.43274
# Poissons Ratio (y) = -0.01226 0.22951
# Poissons Ratio (z) = 0.30394 0.09197
#
# Static dielectric constant tensor:
#      x y z
#    x 3.499080 0.000000 0.000000 
#    y 0.000000 3.533420 0.000000 
#    z 0.000000 0.000000 4.287910 
# 
# 
# High freq. dielectric constant tensor:
#      x y z
#    x 1.757070 0.000000 0.000000 
#    y 0.000000 1.757800 0.000000 
#    z 0.000000 0.000000 1.813570 
# 
# From -- ./inp_files/9216.got.cif
#   From: 2010.03.12/outbox.cif.g09.slc.cpg/sg68_5_cif.got.tgz:9216.got - 2010.04.10 23:14:56.
