data_PCOD8282988
_publ_section_title
;
Structure prediction by ZEFSAII (Michael W. Deem and Ramdas Pophale) SiO2 
 PCOD8282988
Probable space group: C C C A
;
_chemical_formula_sum "Si O2"
_cell_formula_units_Z 56
_cell_length_a 16.111521
_cell_length_b 12.197025
_cell_length_c 13.121949
_cell_angle_alpha 90.000000
_cell_angle_beta 90.000000
_cell_angle_gamma 90.000000
_cell_volume 2578.628636
_symmetry_space_group_name_H-M "C C C A"
_symmetry_group_IT_number 68
_space_group.IT_coordinate_system_code '2'
_symmetry_cell_setting 'orthorhombic'
loop_
_space_group_symop_operation_xyz
x,y,z
-x,1/2-y,z
x,1/2-y,1/2-z
-x,y,1/2-z
-x,-y,-z
x,1/2+y,-z
-x,1/2+y,1/2+z
x,-y,1/2+z
1/2+x,1/2+y,z
1/2-x,-y,z
1/2+x,-y,1/2-z
1/2-x,1/2+y,1/2-z
1/2-x,1/2-y,-z
1/2+x,y,-z
1/2-x,y,1/2+z
1/2+x,1/2-y,1/2+z
loop_
_atom_site_type_symbol
_atom_site_label
_atom_site_fract_x
_atom_site_fract_y
_atom_site_fract_z
Si Si1 0.329567 0.927649 0.876525
Si Si2 0.746723 0.250000 0.250000
Si Si3 0.532508 0.579183 0.413277
Si Si4 0.622736 0.297861 0.578391
O O1 0.312366 0.850335 0.780377
O O2 0.250000 0.000000 0.902939
O O3 0.407450 0.004788 0.842400
O O4 0.348511 0.857292 0.976517
O O5 0.801454 0.212045 0.344928
O O6 0.500000 0.500000 0.500000
O O7 0.450236 0.633102 0.362376
O O8 0.589018 0.678820 0.456089
#
# Coordination Sequence:
#
# PCOD8282988 Si02
#       4
#    16   8  16  16
#     4  11  23  43  65  96 131 173 218 271 332 389
#     4  12  24  39  66 105 134 164 222 278 329 396
#     4   9  20  42  68  91 129 176 219 262 334 392
#     4  10  22  43  67  93 132 172 220 268 327 409
#
# _framework density 21.71697
#
# number of rings (size 3 to 8) (size 9 to 14) (size 15 to 20)
#    0.000    1.714    2.857    0.857    0.000    3.429 
#    5.143    0.000    6.286    0.000    0.000    0.000 
#    0.000    0.000    0.000    0.000    0.000    0.000 
#
# Total GULP energy -346946.942575 kJ/mol
# GULP energy per Si atom -12390.962235 kJ/mol
# Density = 2.166754 g / cm^3
# Si number density = 21.716970 Si / 1000 Ang^3
#
#
#
# Elastic Constant Matrix: (Units=GPa)
#
#
# Indices 1 2 3 4 5 6 
#
# 1 127.0834 86.3275 30.3733 0.0000 0.0000 0.0000
# 2 86.3275 170.2179 49.6831 0.0000 0.0000 0.0000
# 3 30.3733 49.6831 54.7491 0.0000 0.0000 0.0000
# 4 0.0000 0.0000 0.0000 36.0838 0.0000 0.0000
# 5 0.0000 0.0000 0.0000 0.0000 13.2235 0.0000
# 6 0.0000 0.0000 0.0000 0.0000 0.0000 59.7494
#
#
#
# Elastic Compliance Matrix: (Units=1/GPa)
#
#
# Indices 1 2 3 4 5 6 
#
# 1 0.012101 -0.005683 -0.001556 0.000000 0.000000 0.000000
# 2 -0.005683 0.010660 -0.006521 0.000000 0.000000 0.000000
# 3 -0.001556 -0.006521 0.025046 0.000000 0.000000 0.000000
# 4 0.000000 0.000000 0.000000 0.027713 0.000000 0.000000
# 5 0.000000 0.000000 0.000000 0.000000 0.075623 0.000000
# 6 0.000000 0.000000 0.000000 0.000000 0.000000 0.016737
#
#
# Mechanical properties :
#
#
# Convention : Reuss Voigt Hill
#
# Bulk Modulus (GPa) = 49.29270 76.09089 62.69180
# Shear Modulus (GPa) = 24.73240 34.18911 29.46076
#
# Velocity S-wave (km/s) = 3.37835 3.97205 3.68717
# Velocity P-wave (km/s) = 6.16155 7.49332 6.85983
#
# Compressibility (1/GPa) = 0.02028698
#
# Stress axis : x y z
#
# Youngs Moduli (GPa) = 82.63600 93.80488 39.92596
#
# Poissons Ratio (x) = 0.53309 0.06214
# Poissons Ratio (y) = 0.46962 0.26037
# Poissons Ratio (z) = 0.12861 0.61172
#
# Static dielectric constant tensor:
#      x y z
#    x 4.722350 0.000000 0.000000 
#    y 0.000000 4.588380 0.000000 
#    z 0.000000 0.000000 3.112260 
# 
# 
# High freq. dielectric constant tensor:
#      x y z
#    x 1.878020 0.000000 0.000000 
#    y 0.000000 1.884820 0.000000 
#    z 0.000000 0.000000 1.805890 
# 
# From -- ./inp_files/20080.got.cif
#   From: 2010.03.12/outbox.cif.g09.slc.cpg/sg68_11_cif.got.tgz:20080.got - 2010.04.10 23:14:56.
