data_PCOD8282837
_publ_section_title
;
Structure prediction by ZEFSAII (Michael W. Deem and Ramdas Pophale) SiO2 
 PCOD8282837
Probable space group: C C C A
;
_chemical_formula_sum "Si O2"
_cell_formula_units_Z 68
_cell_length_a 4.995449
_cell_length_b 27.400793
_cell_length_c 21.829858
_cell_angle_alpha 90.000000
_cell_angle_beta 90.000000
_cell_angle_gamma 90.000000
_cell_volume 2988.054896
_symmetry_space_group_name_H-M "C C C A"
_symmetry_group_IT_number 68
_space_group.IT_coordinate_system_code '2'
_symmetry_cell_setting 'orthorhombic'
loop_
_space_group_symop_operation_xyz
x,y,z
-x,1/2-y,z
x,1/2-y,1/2-z
-x,y,1/2-z
-x,-y,-z
x,1/2+y,-z
-x,1/2+y,1/2+z
x,-y,1/2+z
1/2+x,1/2+y,z
1/2-x,-y,z
1/2+x,-y,1/2-z
1/2-x,1/2+y,1/2-z
1/2-x,1/2-y,-z
1/2+x,y,-z
1/2-x,y,1/2+z
1/2+x,1/2-y,1/2+z
loop_
_atom_site_type_symbol
_atom_site_label
_atom_site_fract_x
_atom_site_fract_y
_atom_site_fract_z
Si Si1 0.705747 0.053583 0.960651
Si Si2 0.881721 0.886629 0.348993
Si Si3 0.500000 0.250000 0.955401
Si Si4 0.600549 0.677801 0.348042
Si Si5 0.000000 0.750000 0.750000
Si Si6 0.500000 0.033300 0.250000
O O1 0.770151 0.096088 0.913819
O O2 0.750000 0.000000 0.930799
O O3 0.397342 0.059135 0.980242
O O4 0.656214 0.851123 0.320938
O O5 0.922424 0.933243 0.306819
O O6 0.155683 0.858243 0.359339
O O7 0.483944 0.202438 0.912231
O O8 0.750000 0.250000 0.000000
O O9 0.682651 0.717161 0.295740
O O10 0.750000 0.000000 0.230739
#
# Coordination Sequence:
#
# PCOD8282837 Si02
#       6
#    16  16   8  16   4   8
#     4  10  22  39  61  89 125 166 203 248 302 359
#     4  12  24  42  65  97 125 162 217 259 309 375
#     4  11  24  43  64  95 134 167 206 256 326 385
#     4  11  25  41  68  92 124 168 206 265 313 369
#     4  10  24  48  64  90 124 160 212 254 320 384
#     4  12  26  43  66  93 130 171 206 265 324 370
#
# _framework density 22.757282
#
# number of rings (size 3 to 8) (size 9 to 14) (size 15 to 20)
#    0.000    0.941    0.000    6.353    0.000   12.235 
#    0.000    0.000    0.000    0.000    0.000    0.000 
#    0.000    0.000    0.000    0.000    0.000    0.000 
#
# Total GULP energy -421727.825315 kJ/mol
# GULP energy per Si atom -12403.759568 kJ/mol
# Density = 2.270549 g / cm^3
# Si number density = 22.757282 Si / 1000 Ang^3
#
#
#
# Elastic Constant Matrix: (Units=GPa)
#
#
# Indices 1 2 3 4 5 6 
#
# 1 143.2546 54.8599 28.9566 0.0000 0.0000 0.0000
# 2 54.8599 129.8393 56.7041 0.0000 0.0000 0.0000
# 3 28.9566 56.7041 105.1181 0.0000 0.0000 0.0000
# 4 0.0000 0.0000 0.0000 17.1739 0.0000 0.0000
# 5 0.0000 0.0000 0.0000 0.0000 26.3226 0.0000
# 6 0.0000 0.0000 0.0000 0.0000 0.0000 35.6613
#
#
#
# Elastic Compliance Matrix: (Units=1/GPa)
#
#
# Indices 1 2 3 4 5 6 
#
# 1 0.008350 -0.003301 -0.000519 0.000000 0.000000 0.000000
# 2 -0.003301 0.011381 -0.005230 0.000000 0.000000 0.000000
# 3 -0.000519 -0.005230 0.012477 0.000000 0.000000 0.000000
# 4 0.000000 0.000000 0.000000 0.058228 0.000000 0.000000
# 5 0.000000 0.000000 0.000000 0.000000 0.037990 0.000000
# 6 0.000000 0.000000 0.000000 0.000000 0.000000 0.028042
#
#
# Mechanical properties :
#
#
# Convention : Reuss Voigt Hill
#
# Bulk Modulus (GPa) = 70.88577 73.25038 72.06807
# Shear Modulus (GPa) = 27.89088 31.67764 29.78426
#
# Velocity S-wave (km/s) = 3.50463 3.73497 3.62163
# Velocity P-wave (km/s) = 6.89875 7.13145 7.01606
#
# Compressibility (1/GPa) = 0.01410720
#
# Stress axis : x y z
#
# Youngs Moduli (GPa) = 119.76426 87.86906 80.14588
#
# Poissons Ratio (x) = 0.29007 0.04162
# Poissons Ratio (y) = 0.39536 0.41914
# Poissons Ratio (z) = 0.06220 0.45953
#
# Static dielectric constant tensor:
#      x y z
#    x 4.082900 0.000000 0.000000 
#    y 0.000000 4.494250 0.000000 
#    z 0.000000 0.000000 4.049890 
# 
# 
# High freq. dielectric constant tensor:
#      x y z
#    x 1.902160 0.000000 0.000000 
#    y 0.000000 1.918260 0.000000 
#    z 0.000000 0.000000 1.899330 
# 
# From -- ./inp_files/35106.got.cif
#   From: 2010.03.12/outbox.cif.g09.slc.cpg/sg68_18_cif.got.tgz:35106.got - 2010.04.10 23:14:56.
