data_PCOD8282190
_publ_section_title
;
Structure prediction by ZEFSAII (Michael W. Deem and Ramdas Pophale) SiO2 
 PCOD8282190
Probable space group: C C C A
;
_chemical_formula_sum "Si O2"
_cell_formula_units_Z 108
_cell_length_a 15.227682
_cell_length_b 16.430897
_cell_length_c 21.508999
_cell_angle_alpha 90.000000
_cell_angle_beta 90.000000
_cell_angle_gamma 90.000000
_cell_volume 5381.647792
_symmetry_space_group_name_H-M "C C C A"
_symmetry_group_IT_number 68
_space_group.IT_coordinate_system_code '2'
_symmetry_cell_setting 'orthorhombic'
loop_
_space_group_symop_operation_xyz
x,y,z
-x,1/2-y,z
x,1/2-y,1/2-z
-x,y,1/2-z
-x,-y,-z
x,1/2+y,-z
-x,1/2+y,1/2+z
x,-y,1/2+z
1/2+x,1/2+y,z
1/2-x,-y,z
1/2+x,-y,1/2-z
1/2-x,1/2+y,1/2-z
1/2-x,1/2-y,-z
1/2+x,y,-z
1/2-x,y,1/2+z
1/2+x,1/2-y,1/2+z
loop_
_atom_site_type_symbol
_atom_site_label
_atom_site_fract_x
_atom_site_fract_y
_atom_site_fract_z
Si Si1 0.964878 0.159302 0.342543
Si Si2 0.774084 0.189307 0.308507
Si Si3 0.414768 0.593509 0.471151
Si Si4 0.564403 0.088615 0.440612
Si Si5 0.500000 0.031933 0.750000
Si Si6 0.000000 0.750000 0.250000
Si Si7 0.241151 0.184977 0.552439
Si Si8 0.897505 0.603326 0.196411
O O1 0.871201 0.152829 0.307702
O O2 0.965487 0.135670 0.414164
O O3 0.022819 0.090772 0.308125
O O4 0.000000 0.250000 0.332832
O O5 0.759622 0.250000 0.250000
O O6 0.758172 0.225296 0.378792
O O7 0.707449 0.113170 0.303876
O O8 0.413516 0.496542 0.472496
O O9 0.471438 0.622409 0.531674
O O10 0.313257 0.617986 0.466799
O O11 0.643340 0.150673 0.453225
O O12 0.557652 0.073926 0.367307
O O13 0.582418 0.969782 0.756056
O O14 0.937694 0.692314 0.209481
O O15 0.250000 0.250000 0.500000
#
# Coordination Sequence:
#
# PCOD8282190 Si02
#       8
#    16  16  16  16   8   4  16  16
#     4  11  23  39  64  90 124 165 207 267 310 382
#     4  10  21  40  61  92 126 162 208 257 322 370
#     4  10  22  40  63  88 123 164 212 254 316 374
#     4  10  21  40  63  88 121 165 207 256 314 371
#     4  11  21  39  59  90 122 158 211 245 329 363
#     4  10  20  36  58  88 124 152 198 254 300 370
#     4  10  23  38  62  95 124 162 210 262 309 382
#     4  10  21  38  63  88 123 163 205 261 304 393
#
# _framework density 20.068203
#
# number of rings (size 3 to 8) (size 9 to 14) (size 15 to 20)
#    0.000    1.778    2.222    1.556    4.148    2.963 
#    0.000    0.000    0.000    0.000    0.000    0.000 
#    0.000    0.000    0.000    0.000    0.000    0.000 
#
# Total GULP energy -669113.254555 kJ/mol
# GULP energy per Si atom -12390.986195 kJ/mol
# Density = 2.002253 g / cm^3
# Si number density = 20.068203 Si / 1000 Ang^3
#
#
#
# Elastic Constant Matrix: (Units=GPa)
#
#
# Indices 1 2 3 4 5 6 
#
# 1 76.7708 14.3267 36.1751 0.0000 0.0000 0.0000
# 2 14.3267 93.2374 33.7010 0.0000 0.0000 0.0000
# 3 36.1751 33.7010 98.3070 0.0000 0.0000 0.0000
# 4 0.0000 0.0000 0.0000 36.7090 0.0000 0.0000
# 5 0.0000 0.0000 0.0000 0.0000 33.7403 0.0000
# 6 0.0000 0.0000 0.0000 0.0000 0.0000 20.2240
#
#
#
# Elastic Compliance Matrix: (Units=1/GPa)
#
#
# Indices 1 2 3 4 5 6 
#
# 1 0.015769 -0.000372 -0.005675 0.000000 0.000000 0.000000
# 2 -0.000372 0.012251 -0.004063 0.000000 0.000000 0.000000
# 3 -0.005675 -0.004063 0.013654 0.000000 0.000000 0.000000
# 4 0.000000 0.000000 0.000000 0.027241 0.000000 0.000000
# 5 0.000000 0.000000 0.000000 0.000000 0.029638 0.000000
# 6 0.000000 0.000000 0.000000 0.000000 0.000000 0.049446
#
#
# Mechanical properties :
#
#
# Convention : Reuss Voigt Hill
#
# Bulk Modulus (GPa) = 46.61210 48.52454 47.56832
# Shear Modulus (GPa) = 28.51094 30.40882 29.45988
#
# Velocity S-wave (km/s) = 3.77331 3.89687 3.83559
# Velocity P-wave (km/s) = 6.50085 6.66932 6.58562
#
# Compressibility (1/GPa) = 0.02145366
#
# Stress axis : x y z
#
# Youngs Moduli (GPa) = 63.41371 81.62588 73.24115
#
# Poissons Ratio (x) = 0.03034 0.41568
# Poissons Ratio (y) = 0.02357 0.29758
# Poissons Ratio (z) = 0.35990 0.33165
#
# Static dielectric constant tensor:
#      x y z
#    x 4.562860 0.000000 0.000000 
#    y 0.000000 4.886740 0.000000 
#    z 0.000000 0.000000 3.808890 
# 
# 
# High freq. dielectric constant tensor:
#      x y z
#    x 1.783640 0.000000 0.000000 
#    y 0.000000 1.780080 0.000000 
#    z 0.000000 0.000000 1.785960 
# 
# From -- ./inp_files/45569.got.cif
#   From: 2010.03.12/outbox.cif.g09.slc.cpg/sg68_23_cif.got.tgz:45569.got - 2010.04.10 23:14:56.
