data_PCOD8282327
_publ_section_title
;
Structure prediction by ZEFSAII (Michael W. Deem and Ramdas Pophale) SiO2 
 PCOD8282327
Probable space group: C C C A
;
_chemical_formula_sum "Si O2"
_cell_formula_units_Z 104
_cell_length_a 9.800665
_cell_length_b 18.606091
_cell_length_c 27.293725
_cell_angle_alpha 90.000000
_cell_angle_beta 90.000000
_cell_angle_gamma 90.000000
_cell_volume 4977.067111
_symmetry_space_group_name_H-M "C C C A"
_symmetry_group_IT_number 68
_space_group.IT_coordinate_system_code '2'
_symmetry_cell_setting 'orthorhombic'
loop_
_space_group_symop_operation_xyz
x,y,z
-x,1/2-y,z
x,1/2-y,1/2-z
-x,y,1/2-z
-x,-y,-z
x,1/2+y,-z
-x,1/2+y,1/2+z
x,-y,1/2+z
1/2+x,1/2+y,z
1/2-x,-y,z
1/2+x,-y,1/2-z
1/2-x,1/2+y,1/2-z
1/2-x,1/2-y,-z
1/2+x,y,-z
1/2-x,y,1/2+z
1/2+x,1/2-y,1/2+z
loop_
_atom_site_type_symbol
_atom_site_label
_atom_site_fract_x
_atom_site_fract_y
_atom_site_fract_z
Si Si1 0.788145 0.830432 0.162486
Si Si2 0.999573 0.590031 0.523364
Si Si3 0.224192 0.838205 0.157300
Si Si4 0.994381 0.331591 0.578868
Si Si5 0.250000 0.500000 0.998342
Si Si6 0.349088 0.067322 0.248071
Si Si7 0.007189 0.166490 0.379388
O O1 0.787635 0.745113 0.174413
O O2 0.831780 0.872973 0.210273
O O3 0.641786 0.862186 0.147108
O O4 0.887124 0.847761 0.117504
O O5 0.857878 0.546665 0.534189
O O6 0.990829 0.617725 0.467864
O O7 0.142124 0.546291 0.530955
O O8 0.006189 0.652643 0.562710
O O9 0.148363 0.847438 0.105414
O O10 0.163632 0.891256 0.197074
O O11 0.377818 0.865980 0.148790
O O12 0.000000 0.250000 0.559927
O O13 0.500000 0.034467 0.250000
O O14 0.250000 0.000000 0.253994
O O15 0.000000 0.250000 0.372924
#
# Coordination Sequence:
#
# PCOD8282327 Si02
#       7
#    16  16  16  16   8  16  16
#     4  10  22  42  68  96 124 165 213 261 319 375
#     4  11  21  42  58  90 129 169 212 252 302 365
#     4  10  22  42  68  96 124 165 213 261 319 375
#     4  10  20  38  67  95 117 159 217 263 310 361
#     4  10  24  38  54  82 124 176 220 232 300 386
#     4  12  27  47  64  96 126 165 208 263 317 379
#     4  10  22  40  65  97 127 159 207 265 316 359
#
# _framework density 20.89584
#
# number of rings (size 3 to 8) (size 9 to 14) (size 15 to 20)
#    0.000    1.538    1.538    2.769    2.154    0.615 
#   16.615    8.462    0.000    0.000    0.000    0.000 
#    0.000    0.000    0.000    0.000    0.000    0.000 
#
# Total GULP energy -644520.716494 kJ/mol
# GULP energy per Si atom -12394.629163 kJ/mol
# Density = 2.084828 g / cm^3
# Si number density = 20.895840 Si / 1000 Ang^3
#
#
#
# Elastic Constant Matrix: (Units=GPa)
#
#
# Indices 1 2 3 4 5 6 
#
# 1 154.9625 22.6142 6.7187 0.0000 0.0000 0.0000
# 2 22.6142 56.2850 24.9887 0.0000 0.0000 0.0000
# 3 6.7187 24.9887 68.4693 0.0000 0.0000 0.0000
# 4 0.0000 0.0000 0.0000 8.6029 0.0000 0.0000
# 5 0.0000 0.0000 0.0000 0.0000 18.4886 0.0000
# 6 0.0000 0.0000 0.0000 0.0000 0.0000 22.6792
#
#
#
# Elastic Compliance Matrix: (Units=1/GPa)
#
#
# Indices 1 2 3 4 5 6 
#
# 1 0.006864 -0.002934 0.000397 0.000000 0.000000 0.000000
# 2 -0.002934 0.022456 -0.007908 0.000000 0.000000 0.000000
# 3 0.000397 -0.007908 0.017452 0.000000 0.000000 0.000000
# 4 0.000000 0.000000 0.000000 0.116240 0.000000 0.000000
# 5 0.000000 0.000000 0.000000 0.000000 0.054087 0.000000
# 6 0.000000 0.000000 0.000000 0.000000 0.000000 0.044093
#
#
# Mechanical properties :
#
#
# Convention : Reuss Voigt Hill
#
# Bulk Modulus (GPa) = 38.63503 43.15109 40.89306
# Shear Modulus (GPa) = 17.19921 24.98047 21.08984
#
# Velocity S-wave (km/s) = 2.87207 3.46132 3.18037
# Velocity P-wave (km/s) = 5.43396 6.05555 5.75315
#
# Compressibility (1/GPa) = 0.02588325
#
# Stress axis : x y z
#
# Youngs Moduli (GPa) = 145.68428 44.53064 57.29952
#
# Poissons Ratio (x) = 0.13067 -0.02277
# Poissons Ratio (y) = 0.42748 0.45311
# Poissons Ratio (z) = -0.05789 0.35214
#
# Static dielectric constant tensor:
#      x y z
#    x 4.834630 0.000000 0.000000 
#    y 0.000000 3.746960 0.000000 
#    z 0.000000 0.000000 3.481790 
# 
# 
# High freq. dielectric constant tensor:
#      x y z
#    x 1.846120 0.000000 0.000000 
#    y 0.000000 1.810200 0.000000 
#    z 0.000000 0.000000 1.807090 
# 
# From -- ./inp_files/7385.got.cif
#   From: 2010.03.12/outbox.cif.g09.slc.cpg/sg68_4_cif.got.tgz:7385.got - 2010.04.10 23:14:56.
