data_PCOD8282907
_publ_section_title
;
Structure prediction by ZEFSAII (Michael W. Deem and Ramdas Pophale) SiO2 
 PCOD8282907
Probable space group: C C C A
;
_chemical_formula_sum "Si O2"
_cell_formula_units_Z 88
_cell_length_a 28.928959
_cell_length_b 17.633076
_cell_length_c 8.191108
_cell_angle_alpha 90.000000
_cell_angle_beta 90.000000
_cell_angle_gamma 90.000000
_cell_volume 4178.337700
_symmetry_space_group_name_H-M "C C C A"
_symmetry_group_IT_number 68
_space_group.IT_coordinate_system_code '2'
_symmetry_cell_setting 'orthorhombic'
loop_
_space_group_symop_operation_xyz
x,y,z
-x,1/2-y,z
x,1/2-y,1/2-z
-x,y,1/2-z
-x,-y,-z
x,1/2+y,-z
-x,1/2+y,1/2+z
x,-y,1/2+z
1/2+x,1/2+y,z
1/2-x,-y,z
1/2+x,-y,1/2-z
1/2-x,1/2+y,1/2-z
1/2-x,1/2-y,-z
1/2+x,y,-z
1/2-x,y,1/2+z
1/2+x,1/2-y,1/2+z
loop_
_atom_site_type_symbol
_atom_site_label
_atom_site_fract_x
_atom_site_fract_y
_atom_site_fract_z
Si Si1 0.629192 0.326535 0.336186
Si Si2 0.790345 0.943248 0.741044
Si Si3 0.500000 0.982392 0.250000
Si Si4 0.209771 0.706248 0.908909
Si Si5 0.065791 0.443417 0.505496
Si Si6 0.351339 0.051437 0.059499
O O1 0.610933 0.250000 0.250000
O O2 0.670999 0.307915 0.456597
O O3 0.589600 0.364626 0.445449
O O4 0.643725 0.384213 0.194470
O O5 0.768707 0.871971 0.837581
O O6 0.821187 0.914742 0.588879
O O7 0.750000 0.000000 0.681969
O O8 0.824484 0.980588 0.868825
O O9 0.539993 0.930865 0.332450
O O10 0.475310 0.039747 0.371752
O O11 0.189962 0.750000 0.750000
O O12 0.250000 0.750000 0.000000
O O13 0.100093 0.516400 0.500827
#
# Coordination Sequence:
#
# PCOD8282907 Si02
#       6
#    16  16   8  16  16  16
#     4  12  26  47  70 103 145 191 239 294 372 437
#     4  12  26  40  67 101 135 187 253 306 346 421
#     4  10  22  40  79 115 142 168 248 296 360 444
#     4  12  29  47  66  95 143 192 242 302 365 419
#     4  11  21  44  75 111 141 188 230 303 365 438
#     4  12  23  45  72 101 141 189 245 296 363 436
#
# _framework density 21.061007
#
# number of rings (size 3 to 8) (size 9 to 14) (size 15 to 20)
#    0.000    0.364    5.455    2.182   10.182    0.000 
#    0.000    0.455    0.000    1.091    0.000    0.000 
#    0.000    0.000    0.000    0.000    0.000    0.000 
#
# Total GULP energy -545548.732777 kJ/mol
# GULP energy per Si atom -12398.834836 kJ/mol
# Density = 2.101307 g / cm^3
# Si number density = 21.061007 Si / 1000 Ang^3
#
#
#
# Elastic Constant Matrix: (Units=GPa)
#
#
# Indices 1 2 3 4 5 6 
#
# 1 119.8053 49.9588 52.2152 0.0000 0.0000 0.0000
# 2 49.9588 139.1999 57.8975 0.0000 0.0000 0.0000
# 3 52.2152 57.8975 112.6970 0.0000 0.0000 0.0000
# 4 0.0000 0.0000 0.0000 46.8303 0.0000 0.0000
# 5 0.0000 0.0000 0.0000 0.0000 29.1024 0.0000
# 6 0.0000 0.0000 0.0000 0.0000 0.0000 33.3142
#
#
#
# Elastic Compliance Matrix: (Units=1/GPa)
#
#
# Indices 1 2 3 4 5 6 
#
# 1 0.011023 -0.002330 -0.003910 0.000000 0.000000 0.000000
# 2 -0.002330 0.009629 -0.003867 0.000000 0.000000 0.000000
# 3 -0.003910 -0.003867 0.012672 0.000000 0.000000 0.000000
# 4 0.000000 0.000000 0.000000 0.021354 0.000000 0.000000
# 5 0.000000 0.000000 0.000000 0.000000 0.034361 0.000000
# 6 0.000000 0.000000 0.000000 0.000000 0.000000 0.030017
#
#
# Mechanical properties :
#
#
# Convention : Reuss Voigt Hill
#
# Bulk Modulus (GPa) = 76.28467 76.87167 76.57817
# Shear Modulus (GPa) = 34.80952 35.95807 35.38379
#
# Velocity S-wave (km/s) = 4.06987 4.13647 4.10330
# Velocity P-wave (km/s) = 7.64098 7.70666 7.67389
#
# Compressibility (1/GPa) = 0.01310879
#
# Stress axis : x y z
#
# Youngs Moduli (GPa) = 90.72347 103.85820 78.91542
#
# Poissons Ratio (x) = 0.24195 0.30857
# Poissons Ratio (y) = 0.21135 0.30518
# Poissons Ratio (z) = 0.35474 0.40164
#
# Static dielectric constant tensor:
#      x y z
#    x 4.092800 0.000000 0.000000 
#    y 0.000000 4.067240 0.000000 
#    z 0.000000 0.000000 4.433330 
# 
# 
# High freq. dielectric constant tensor:
#      x y z
#    x 1.821670 0.000000 0.000000 
#    y 0.000000 1.811890 0.000000 
#    z 0.000000 0.000000 1.856140 
# 
# From -- ./inp_files/9513.got.cif
#   From: 2010.03.12/outbox.cif.g09.slc.cpg/sg68_5_cif.got.tgz:9513.got - 2010.04.10 23:14:56.
