data_PCOD8282957
_publ_section_title
;
Structure prediction by ZEFSAII (Michael W. Deem and Ramdas Pophale) SiO2 
 PCOD8282957
Probable space group: C C C A
;
_chemical_formula_sum "Si O2"
_cell_formula_units_Z 116
_cell_length_a 9.052450
_cell_length_b 24.892530
_cell_length_c 25.612793
_cell_angle_alpha 90.000000
_cell_angle_beta 90.000000
_cell_angle_gamma 90.000000
_cell_volume 5771.545364
_symmetry_space_group_name_H-M "C C C A"
_symmetry_group_IT_number 68
_space_group.IT_coordinate_system_code '2'
_symmetry_cell_setting 'orthorhombic'
loop_
_space_group_symop_operation_xyz
x,y,z
-x,1/2-y,z
x,1/2-y,1/2-z
-x,y,1/2-z
-x,-y,-z
x,1/2+y,-z
-x,1/2+y,1/2+z
x,-y,1/2+z
1/2+x,1/2+y,z
1/2-x,-y,z
1/2+x,-y,1/2-z
1/2-x,1/2+y,1/2-z
1/2-x,1/2-y,-z
1/2+x,y,-z
1/2-x,y,1/2+z
1/2+x,1/2-y,1/2+z
loop_
_atom_site_type_symbol
_atom_site_label
_atom_site_fract_x
_atom_site_fract_y
_atom_site_fract_z
Si Si1 0.500000 0.250000 0.750000
Si Si2 0.179045 0.559725 0.532651
Si Si3 0.797748 0.836875 0.701396
Si Si4 0.982884 0.415811 0.362657
Si Si5 0.595418 0.022886 0.352880
Si Si6 0.764850 0.378216 0.688493
Si Si7 0.480651 0.096491 0.438154
Si Si8 0.002357 0.811087 0.358320
O O1 0.400690 0.285127 0.710510
O O2 0.250000 0.500000 0.527208
O O3 0.056803 0.566399 0.578383
O O4 0.315376 0.599705 0.540366
O O5 0.100909 0.581583 0.481212
O O6 0.854913 0.877981 0.658024
O O7 0.801338 0.870777 0.754576
O O8 0.638894 0.819665 0.680821
O O9 0.003404 0.471954 0.330022
O O10 0.138345 0.384043 0.356096
O O11 0.630963 0.068607 0.309928
O O12 0.491789 0.048895 0.396425
O O13 0.750000 0.000000 0.376693
O O14 0.857703 0.324929 0.675490
O O15 0.506530 0.153742 0.410837
O O16 0.000000 0.750000 0.377069
#
# Coordination Sequence:
#
# PCOD8282957 Si02
#       8
#     4  16  16  16  16  16  16  16
#     4  12  24  40  74  92 128 172 230 284 326 384
#     4  12  24  40  69 100 130 174 216 269 333 416
#     4  12  23  43  67  99 128 173 230 272 331 389
#     4  11  22  41  64  98 135 169 215 269 331 394
#     4   9  20  38  61  92 132 172 207 256 329 393
#     4  10  22  42  66  94 133 177 213 271 324 399
#     4  11  24  41  64  96 128 168 218 273 331 399
#     4  11  25  45  68  92 129 170 227 280 332 389
#
# _framework density 20.098604000000002
#
# number of rings (size 3 to 8) (size 9 to 14) (size 15 to 20)
#    0.000    1.103    4.138    2.069    5.793    0.552 
#    0.000   19.310    1.517    0.000    0.000    0.000 
#    0.000    0.000    0.000    0.000    0.000    0.000 
#
# Total GULP energy -718773.356236 kJ/mol
# GULP energy per Si atom -12392.644073 kJ/mol
# Density = 2.005286 g / cm^3
# Si number density = 20.098604 Si / 1000 Ang^3
#
#
#
# Elastic Constant Matrix: (Units=GPa)
#
#
# Indices 1 2 3 4 5 6 
#
# 1 98.2540 46.3177 33.0975 0.0000 0.0000 0.0000
# 2 46.3177 132.1651 46.4901 0.0000 0.0000 0.0000
# 3 33.0975 46.4901 79.0104 0.0000 0.0000 0.0000
# 4 0.0000 0.0000 0.0000 21.1382 0.0000 0.0000
# 5 0.0000 0.0000 0.0000 0.0000 28.1576 0.0000
# 6 0.0000 0.0000 0.0000 0.0000 0.0000 33.3001
#
#
#
# Elastic Compliance Matrix: (Units=1/GPa)
#
#
# Indices 1 2 3 4 5 6 
#
# 1 0.012901 -0.003304 -0.003460 0.000000 0.000000 0.000000
# 2 -0.003304 0.010387 -0.004728 0.000000 0.000000 0.000000
# 3 -0.003460 -0.004728 0.016888 0.000000 0.000000 0.000000
# 4 0.000000 0.000000 0.000000 0.047308 0.000000 0.000000
# 5 0.000000 0.000000 0.000000 0.000000 0.035514 0.000000
# 6 0.000000 0.000000 0.000000 0.000000 0.000000 0.030030
#
#
# Mechanical properties :
#
#
# Convention : Reuss Voigt Hill
#
# Bulk Modulus (GPa) = 58.16636 62.36001 60.26318
# Shear Modulus (GPa) = 27.51147 28.75414 28.13280
#
# Velocity S-wave (km/s) = 3.70378 3.78650 3.74537
# Velocity P-wave (km/s) = 6.87706 7.08599 6.98230
#
# Compressibility (1/GPa) = 0.01719207
#
# Stress axis : x y z
#
# Youngs Moduli (GPa) = 77.51463 96.27174 59.21403
#
# Poissons Ratio (x) = 0.31808 0.20488
# Poissons Ratio (y) = 0.25611 0.27996
# Poissons Ratio (z) = 0.26820 0.45516
#
# Static dielectric constant tensor:
#      x y z
#    x 3.914110 0.000000 0.000000 
#    y 0.000000 3.812650 0.000000 
#    z 0.000000 0.000000 3.418570 
# 
# 
# High freq. dielectric constant tensor:
#      x y z
#    x 1.803970 0.000000 0.000000 
#    y 0.000000 1.787230 0.000000 
#    z 0.000000 0.000000 1.759960 
# 
# From -- ./inp_files/49659.got.cif
#   From: 2010.03.12/outbox.cif.g09.slc.cpg/sg68_25_cif.got.tgz:49659.got - 2010.04.10 23:14:56.
