data_PCOD8282469
_publ_section_title
;
Structure prediction by ZEFSAII (Michael W. Deem and Ramdas Pophale) SiO2 
 PCOD8282469
Probable space group: C C C A
;
_chemical_formula_sum "Si O2"
_cell_formula_units_Z 80
_cell_length_a 12.033663
_cell_length_b 25.319869
_cell_length_c 13.464895
_cell_angle_alpha 90.000000
_cell_angle_beta 90.000000
_cell_angle_gamma 90.000000
_cell_volume 4102.629236
_symmetry_space_group_name_H-M "C C C A"
_symmetry_group_IT_number 68
_space_group.IT_coordinate_system_code '2'
_symmetry_cell_setting 'orthorhombic'
loop_
_space_group_symop_operation_xyz
x,y,z
-x,1/2-y,z
x,1/2-y,1/2-z
-x,y,1/2-z
-x,-y,-z
x,1/2+y,-z
-x,1/2+y,1/2+z
x,-y,1/2+z
1/2+x,1/2+y,z
1/2-x,-y,z
1/2+x,-y,1/2-z
1/2-x,1/2+y,1/2-z
1/2-x,1/2-y,-z
1/2+x,y,-z
1/2-x,y,1/2+z
1/2+x,1/2-y,1/2+z
loop_
_atom_site_type_symbol
_atom_site_label
_atom_site_fract_x
_atom_site_fract_y
_atom_site_fract_z
Si Si1 0.849405 0.192774 0.203369
Si Si2 0.897800 0.440519 0.458273
Si Si3 0.052747 0.852023 0.610916
Si Si4 0.810073 0.368314 0.924303
Si Si5 0.039868 0.958471 0.359239
O O1 0.834931 0.250000 0.250000
O O2 0.870721 0.149450 0.290350
O O3 0.736922 0.177546 0.146546
O O4 0.954039 0.191308 0.126790
O O5 0.787529 0.405757 0.465026
O O6 0.879331 0.494450 0.397022
O O7 0.998589 0.409564 0.403685
O O8 0.931736 0.454884 0.570498
O O9 0.128204 0.838833 0.515253
O O10 0.895059 0.403159 0.860483
O O11 0.000000 0.971644 0.250000
#
# Coordination Sequence:
#
# PCOD8282469 Si02
#       5
#    16  16  16  16  16
#     4  10  21  38  62  86 111 151 202 241 296 354
#     4   9  20  37  52  85 119 154 193 232 284 353
#     4   9  19  36  59  81 118 149 188 242 290 347
#     4  10  21  36  58  86 115 153 196 241 289 349
#     4  10  21  35  56  82 121 155 191 238 289 340
#
# _framework density 19.499690999999999
#
# number of rings (size 3 to 8) (size 9 to 14) (size 15 to 20)
#    0.000    2.400    0.000    1.800    8.400    0.800 
#    0.000    2.000    0.000    0.000    0.000    0.000 
#    0.000    0.000    0.000    0.000    0.000    0.000 
#
# Total GULP energy -495924.736483 kJ/mol
# GULP energy per Si atom -12398.118412 kJ/mol
# Density = 1.945531 g / cm^3
# Si number density = 19.499691 Si / 1000 Ang^3
#
#
#
# Elastic Constant Matrix: (Units=GPa)
#
#
# Indices 1 2 3 4 5 6 
#
# 1 78.7646 36.0926 57.3285 0.0000 0.0000 0.0000
# 2 36.0926 91.6607 56.9625 0.0000 0.0000 0.0000
# 3 57.3285 56.9625 137.6349 0.0000 0.0000 0.0000
# 4 0.0000 0.0000 0.0000 34.9467 0.0000 0.0000
# 5 0.0000 0.0000 0.0000 0.0000 38.3463 0.0000
# 6 0.0000 0.0000 0.0000 0.0000 0.0000 23.5750
#
#
#
# Elastic Compliance Matrix: (Units=1/GPa)
#
#
# Indices 1 2 3 4 5 6 
#
# 1 0.018997 -0.003450 -0.006485 0.000000 0.000000 0.000000
# 2 -0.003450 0.015314 -0.004901 0.000000 0.000000 0.000000
# 3 -0.006485 -0.004901 0.011995 0.000000 0.000000 0.000000
# 4 0.000000 0.000000 0.000000 0.028615 0.000000 0.000000
# 5 0.000000 0.000000 0.000000 0.000000 0.026078 0.000000
# 6 0.000000 0.000000 0.000000 0.000000 0.000000 0.042418
#
#
# Mechanical properties :
#
#
# Convention : Reuss Voigt Hill
#
# Bulk Modulus (GPa) = 60.11728 67.64749 63.88239
# Shear Modulus (GPa) = 27.99026 29.88537 28.93782
#
# Velocity S-wave (km/s) = 3.79280 3.91910 3.85647
# Velocity P-wave (km/s) = 7.07653 7.43277 7.25683
#
# Compressibility (1/GPa) = 0.01663415
#
# Stress axis : x y z
#
# Youngs Moduli (GPa) = 52.63969 65.29960 83.36832
#
# Poissons Ratio (x) = 0.22531 0.54063
# Poissons Ratio (y) = 0.18163 0.40857
# Poissons Ratio (z) = 0.34136 0.32002
#
# Static dielectric constant tensor:
#      x y z
#    x 3.545690 0.000000 0.000000 
#    y 0.000000 3.412440 0.000000 
#    z 0.000000 0.000000 3.567060 
# 
# 
# High freq. dielectric constant tensor:
#      x y z
#    x 1.751200 0.000000 0.000000 
#    y 0.000000 1.748520 0.000000 
#    z 0.000000 0.000000 1.757650 
# 
# From -- ./inp_files/11966.got.cif
#   From: 2010.03.12/outbox.cif.g09.slc.cpg/sg68_6_cif.got.tgz:11966.got - 2010.04.10 23:14:56.
