data_PCOD8282999
_publ_section_title
;
Structure prediction by ZEFSAII (Michael W. Deem and Ramdas Pophale) SiO2 
 PCOD8282999
Probable space group: C C C A
;
_chemical_formula_sum "Si O2"
_cell_formula_units_Z 80
_cell_length_a 9.440713
_cell_length_b 26.060842
_cell_length_c 14.912241
_cell_angle_alpha 90.000000
_cell_angle_beta 90.000000
_cell_angle_gamma 90.000000
_cell_volume 3668.902344
_symmetry_space_group_name_H-M "C C C A"
_symmetry_group_IT_number 68
_space_group.IT_coordinate_system_code '2'
_symmetry_cell_setting 'orthorhombic'
loop_
_space_group_symop_operation_xyz
x,y,z
-x,1/2-y,z
x,1/2-y,1/2-z
-x,y,1/2-z
-x,-y,-z
x,1/2+y,-z
-x,1/2+y,1/2+z
x,-y,1/2+z
1/2+x,1/2+y,z
1/2-x,-y,z
1/2+x,-y,1/2-z
1/2-x,1/2+y,1/2-z
1/2-x,1/2-y,-z
1/2+x,y,-z
1/2-x,y,1/2+z
1/2+x,1/2-y,1/2+z
loop_
_atom_site_type_symbol
_atom_site_label
_atom_site_fract_x
_atom_site_fract_y
_atom_site_fract_z
Si Si1 0.282095 0.861425 0.709096
Si Si2 0.500000 0.940257 0.750000
Si Si3 0.000000 0.750000 0.606759
Si Si4 0.090072 0.352882 0.459126
Si Si5 0.727818 0.250000 0.750000
Si Si6 0.250000 0.500000 0.649998
Si Si7 0.300780 0.893645 0.403374
O O1 0.416298 0.898455 0.687360
O O2 0.175508 0.870700 0.627914
O O3 0.319540 0.799950 0.718655
O O4 0.201204 0.879904 0.798500
O O5 0.616345 0.977311 0.705839
O O6 0.934053 0.707926 0.541220
O O7 0.872906 0.771175 0.669642
O O8 0.163384 0.368476 0.551304
O O9 0.936428 0.377194 0.458039
O O10 0.303176 0.455009 0.585878
#
# Coordination Sequence:
#
# PCOD8282999 Si02
#       7
#    16   8   8  16   8   8  16
#     4  10  22  43  69  97 136 178 229 274 343 407
#     4  10  24  43  70  98 132 179 228 290 338 402
#     4   9  18  38  66  98 135 184 220 261 348 396
#     4  11  24  42  70  98 142 178 228 284 335 411
#     4   9  16  37  70  98 128 182 224 268 332 422
#     4  10  26  46  68 100 134 176 240 280 352 406
#     4  11  25  44  66 100 134 181 230 287 337 407
#
# _framework density 21.804886
#
# number of rings (size 3 to 8) (size 9 to 14) (size 15 to 20)
#    0.000    1.800    2.000    0.600   11.200    2.000 
#    0.000    0.000    0.000    0.000    0.000    0.000 
#    0.000    0.000    0.000    0.000    0.000    0.000 
#
# Total GULP energy -495600.544668 kJ/mol
# GULP energy per Si atom -12390.013617 kJ/mol
# Density = 2.175526 g / cm^3
# Si number density = 21.804886 Si / 1000 Ang^3
#
#
#
# Elastic Constant Matrix: (Units=GPa)
#
#
# Indices 1 2 3 4 5 6 
#
# 1 118.0693 41.6272 14.0916 0.0000 0.0000 0.0000
# 2 41.6272 131.3981 14.1063 0.0000 0.0000 0.0000
# 3 14.0916 14.1063 48.4779 0.0000 0.0000 0.0000
# 4 0.0000 0.0000 0.0000 92.0175 0.0000 0.0000
# 5 0.0000 0.0000 0.0000 0.0000 20.8275 0.0000
# 6 0.0000 0.0000 0.0000 0.0000 0.0000 55.5240
#
#
#
# Elastic Compliance Matrix: (Units=1/GPa)
#
#
# Indices 1 2 3 4 5 6 
#
# 1 0.009717 -0.002865 -0.001991 0.000000 0.000000 0.000000
# 2 -0.002865 0.008700 -0.001699 0.000000 0.000000 0.000000
# 3 -0.001991 -0.001699 0.021701 0.000000 0.000000 0.000000
# 4 0.000000 0.000000 0.000000 0.010868 0.000000 0.000000
# 5 0.000000 0.000000 0.000000 0.000000 0.048013 0.000000
# 6 0.000000 0.000000 0.000000 0.000000 0.000000 0.018010
#
#
# Mechanical properties :
#
#
# Convention : Reuss Voigt Hill
#
# Bulk Modulus (GPa) = 37.02422 48.62171 42.82296
# Shear Modulus (GPa) = 35.93958 48.88180 42.41069
#
# Velocity S-wave (km/s) = 4.06425 4.73988 4.41501
# Velocity P-wave (km/s) = 6.24827 7.23203 6.75807
#
# Compressibility (1/GPa) = 0.02700935
#
# Stress axis : x y z
#
# Youngs Moduli (GPa) = 102.91001 114.93730 46.08062
#
# Poissons Ratio (x) = 0.32926 0.09175
# Poissons Ratio (y) = 0.29481 0.07829
# Poissons Ratio (z) = 0.20490 0.19527
#
# Static dielectric constant tensor:
#      x y z
#    x 4.093690 0.000000 0.000000 
#    y 0.000000 4.340790 0.000000 
#    z 0.000000 0.000000 3.546390 
# 
# 
# High freq. dielectric constant tensor:
#      x y z
#    x 1.857070 0.000000 0.000000 
#    y 0.000000 1.873050 0.000000 
#    z 0.000000 0.000000 1.832020 
# 
# From -- ./inp_files/28498.got.cif
#   From: 2010.03.12/outbox.cif.g09.slc.cpg/sg68_15_cif.got.tgz:28498.got - 2010.04.10 23:14:56.
