data_PCOD8282879
_publ_section_title
;
Structure prediction by ZEFSAII (Michael W. Deem and Ramdas Pophale) SiO2 
 PCOD8282879
Probable space group: C C C A
;
_chemical_formula_sum "Si O2"
_cell_formula_units_Z 112
_cell_length_a 30.356324
_cell_length_b 14.081817
_cell_length_c 12.920006
_cell_angle_alpha 90.000000
_cell_angle_beta 90.000000
_cell_angle_gamma 90.000000
_cell_volume 5522.943381
_symmetry_space_group_name_H-M "C C C A"
_symmetry_group_IT_number 68
_space_group.IT_coordinate_system_code '2'
_symmetry_cell_setting 'orthorhombic'
loop_
_space_group_symop_operation_xyz
x,y,z
-x,1/2-y,z
x,1/2-y,1/2-z
-x,y,1/2-z
-x,-y,-z
x,1/2+y,-z
-x,1/2+y,1/2+z
x,-y,1/2+z
1/2+x,1/2+y,z
1/2-x,-y,z
1/2+x,-y,1/2-z
1/2-x,1/2+y,1/2-z
1/2-x,1/2-y,-z
1/2+x,y,-z
1/2-x,y,1/2+z
1/2+x,1/2-y,1/2+z
loop_
_atom_site_type_symbol
_atom_site_label
_atom_site_fract_x
_atom_site_fract_y
_atom_site_fract_z
Si Si1 0.519913 0.845801 0.507729
Si Si2 0.028257 0.025439 0.352220
Si Si3 0.729722 0.312794 0.154326
Si Si4 0.611278 0.297510 0.593323
Si Si5 0.698330 0.152893 0.007606
Si Si6 0.619571 0.604762 0.307067
Si Si7 0.298418 0.532871 0.705470
O O1 0.500000 0.750000 0.556204
O O2 0.520851 0.925399 0.594064
O O3 0.567678 0.816137 0.470037
O O4 0.488810 0.883388 0.415451
O O5 0.000000 0.022707 0.250000
O O6 0.080656 0.032483 0.335653
O O7 0.749447 0.250000 0.250000
O O8 0.704798 0.251688 0.067974
O O9 0.694078 0.385144 0.206977
O O10 0.770080 0.361470 0.092322
O O11 0.649003 0.352063 0.532090
O O12 0.624194 0.185801 0.604526
O O13 0.604433 0.344115 0.703828
O O14 0.704170 0.067349 0.087406
O O15 0.665297 0.549316 0.288901
O O16 0.250000 0.500000 0.736746
#
# Coordination Sequence:
#
# PCOD8282879 Si02
#       7
#    16  16  16  16  16  16  16
#     4  11  23  43  69  99 130 172 216 264 332 388
#     4  11  23  44  70  99 134 170 215 272 323 393
#     4   9  21  41  62  86 124 166 210 263 324 383
#     4  11  23  40  66  93 125 172 213 267 314 393
#     4  10  22  40  65  87 122 169 210 263 324 385
#     4  11  24  40  66  95 129 168 217 263 322 383
#     4  11  24  41  61  94 128 164 212 271 322 379
#
# _framework density 20.279043000000001
#
# number of rings (size 3 to 8) (size 9 to 14) (size 15 to 20)
#    0.000    1.429    2.857    1.714    8.000    2.286 
#    5.143    0.000    0.000    0.000    0.000    0.000 
#    0.000    0.000    0.000    0.000    0.000    0.000 
#
# Total GULP energy -694259.163013 kJ/mol
# GULP energy per Si atom -12397.485054 kJ/mol
# Density = 2.023289 g / cm^3
# Si number density = 20.279043 Si / 1000 Ang^3
#
#
#
# Elastic Constant Matrix: (Units=GPa)
#
#
# Indices 1 2 3 4 5 6 
#
# 1 91.0625 29.1360 2.8805 0.0000 0.0000 0.0000
# 2 29.1360 89.4546 34.9333 0.0000 0.0000 0.0000
# 3 2.8805 34.9333 69.7449 0.0000 0.0000 0.0000
# 4 0.0000 0.0000 0.0000 13.1706 0.0000 0.0000
# 5 0.0000 0.0000 0.0000 0.0000 35.6732 0.0000
# 6 0.0000 0.0000 0.0000 0.0000 0.0000 34.3583
#
#
#
# Elastic Compliance Matrix: (Units=1/GPa)
#
#
# Indices 1 2 3 4 5 6 
#
# 1 0.012456 -0.004794 0.001887 0.000000 0.000000 0.000000
# 2 -0.004794 0.015742 -0.007687 0.000000 0.000000 0.000000
# 3 0.001887 -0.007687 0.018110 0.000000 0.000000 0.000000
# 4 0.000000 0.000000 0.000000 0.075927 0.000000 0.000000
# 5 0.000000 0.000000 0.000000 0.000000 0.028032 0.000000
# 6 0.000000 0.000000 0.000000 0.000000 0.000000 0.029105
#
#
# Mechanical properties :
#
#
# Convention : Reuss Voigt Hill
#
# Bulk Modulus (GPa) = 39.80879 42.68461 41.24670
# Shear Modulus (GPa) = 23.93121 28.86126 26.39623
#
# Velocity S-wave (km/s) = 3.43898 3.77663 3.61175
# Velocity P-wave (km/s) = 5.95331 6.33337 6.14628
#
# Compressibility (1/GPa) = 0.02512008
#
# Stress axis : x y z
#
# Youngs Moduli (GPa) = 80.28568 63.52460 55.21776
#
# Poissons Ratio (x) = 0.30451 -0.10417
# Poissons Ratio (y) = 0.38486 0.42444
# Poissons Ratio (z) = -0.15146 0.48830
#
# Static dielectric constant tensor:
#      x y z
#    x 3.624090 0.000000 0.000000 
#    y 0.000000 3.762240 0.000000 
#    z 0.000000 0.000000 3.746300 
# 
# 
# High freq. dielectric constant tensor:
#      x y z
#    x 1.790030 0.000000 0.000000 
#    y 0.000000 1.797480 0.000000 
#    z 0.000000 0.000000 1.798030 
# 
# From -- ./inp_files/17791.got.cif
#   From: 2010.03.12/outbox.cif.g09.slc.cpg/sg68_9_cif.got.tgz:17791.got - 2010.04.10 23:14:56.
