data_PCOD8282606
_publ_section_title
;
Structure prediction by ZEFSAII (Michael W. Deem and Ramdas Pophale) SiO2 
 PCOD8282606
Probable space group: C C C A
;
_chemical_formula_sum "Si O2"
_cell_formula_units_Z 104
_cell_length_a 9.386138
_cell_length_b 26.045090
_cell_length_c 19.477656
_cell_angle_alpha 90.000000
_cell_angle_beta 90.000000
_cell_angle_gamma 90.000000
_cell_volume 4761.562498
_symmetry_space_group_name_H-M "C C C A"
_symmetry_group_IT_number 68
_space_group.IT_coordinate_system_code '2'
_symmetry_cell_setting 'orthorhombic'
loop_
_space_group_symop_operation_xyz
x,y,z
-x,1/2-y,z
x,1/2-y,1/2-z
-x,y,1/2-z
-x,-y,-z
x,1/2+y,-z
-x,1/2+y,1/2+z
x,-y,1/2+z
1/2+x,1/2+y,z
1/2-x,-y,z
1/2+x,-y,1/2-z
1/2-x,1/2+y,1/2-z
1/2-x,1/2-y,-z
1/2+x,y,-z
1/2-x,y,1/2+z
1/2+x,1/2-y,1/2+z
loop_
_atom_site_type_symbol
_atom_site_label
_atom_site_fract_x
_atom_site_fract_y
_atom_site_fract_z
Si Si1 0.000000 0.833096 0.750000
Si Si2 0.066189 0.401285 0.132243
Si Si3 0.000000 0.250000 0.991028
Si Si4 0.129184 0.153828 0.042506
Si Si5 0.584449 0.994243 0.570095
Si Si6 0.764757 0.750000 0.750000
Si Si7 0.123425 0.616596 0.107184
Si Si8 0.629376 0.188426 0.373234
O O1 0.967853 0.872203 0.812149
O O2 0.134897 0.797806 0.770973
O O3 0.043410 0.462795 0.127321
O O4 0.230473 0.387651 0.149976
O O5 0.010893 0.379651 0.059537
O O6 0.109786 0.279847 0.942806
O O7 0.086478 0.213426 0.041720
O O8 0.247279 0.148494 0.103284
O O9 0.176821 0.135399 0.967505
O O10 0.500000 0.000000 0.500000
O O11 0.750000 0.000000 0.550729
O O12 0.549397 0.939119 0.603269
O O13 0.666448 0.728522 0.687785
O O14 0.014829 0.656280 0.144276
#
# Coordination Sequence:
#
# PCOD8282606 Si02
#       8
#     8  16   8  16  16   8  16  16
#     4  11  26  46  68  86 128 182 228 275 316 410
#     4  11  23  42  67  94 132 175 228 266 334 402
#     4  10  24  35  58  95 132 166 208 276 344 388
#     4  11  21  38  64  95 134 172 215 270 332 409
#     4  10  21  38  68 103 136 171 216 273 340 407
#     4  11  26  45  66  90 121 183 234 268 325 409
#     4  10  22  40  67 101 136 167 211 288 346 388
#     4  11  24  41  62  96 131 174 218 276 335 398
#
# _framework density 21.841569
#
# number of rings (size 3 to 8) (size 9 to 14) (size 15 to 20)
#    0.000    1.385    3.077    2.308    8.615    0.308 
#    0.000    0.000   10.154    0.000    0.000    0.000 
#    0.000    0.000    0.000    0.000    0.000    0.000 
#
# Total GULP energy -644405.335968 kJ/mol
# GULP energy per Si atom -12392.410307 kJ/mol
# Density = 2.179186 g / cm^3
# Si number density = 21.841569 Si / 1000 Ang^3
#
#
#
# Elastic Constant Matrix: (Units=GPa)
#
#
# Indices 1 2 3 4 5 6 
#
# 1 80.1865 34.4466 23.0750 0.0000 0.0000 0.0000
# 2 34.4466 137.3878 31.8134 0.0000 0.0000 0.0000
# 3 23.0750 31.8134 64.8952 0.0000 0.0000 0.0000
# 4 0.0000 0.0000 0.0000 25.4363 0.0000 0.0000
# 5 0.0000 0.0000 0.0000 0.0000 22.4086 0.0000
# 6 0.0000 0.0000 0.0000 0.0000 0.0000 31.2648
#
#
#
# Elastic Compliance Matrix: (Units=1/GPa)
#
#
# Indices 1 2 3 4 5 6 
#
# 1 0.014796 -0.002810 -0.003883 0.000000 0.000000 0.000000
# 2 -0.002810 0.008745 -0.003287 0.000000 0.000000 0.000000
# 3 -0.003883 -0.003287 0.018402 0.000000 0.000000 0.000000
# 4 0.000000 0.000000 0.000000 0.039314 0.000000 0.000000
# 5 0.000000 0.000000 0.000000 0.000000 0.044626 0.000000
# 6 0.000000 0.000000 0.000000 0.000000 0.000000 0.031985
#
#
# Mechanical properties :
#
#
# Convention : Reuss Voigt Hill
#
# Bulk Modulus (GPa) = 45.49634 51.23775 48.36705
# Shear Modulus (GPa) = 27.00433 28.69758 27.85095
#
# Velocity S-wave (km/s) = 3.52002 3.62870 3.57478
# Velocity P-wave (km/s) = 6.11524 6.40831 6.26349
#
# Compressibility (1/GPa) = 0.02197979
#
# Stress axis : x y z
#
# Youngs Moduli (GPa) = 67.58719 114.35667 54.34237
#
# Poissons Ratio (x) = 0.32140 0.21102
# Poissons Ratio (y) = 0.18995 0.17865
# Poissons Ratio (z) = 0.26245 0.37595
#
# Static dielectric constant tensor:
#      x y z
#    x 4.043780 0.000000 0.000000 
#    y 0.000000 4.250900 0.000000 
#    z 0.000000 0.000000 3.519710 
# 
# 
# High freq. dielectric constant tensor:
#      x y z
#    x 1.864400 0.000000 0.000000 
#    y 0.000000 1.867390 0.000000 
#    z 0.000000 0.000000 1.824590 
# 
# From -- ./inp_files/36631.got.cif
#   From: 2010.03.12/outbox.cif.g09.slc.cpg/sg68_19_cif.got.tgz:36631.got - 2010.04.10 23:14:56.
