data_PCOD8282741
_publ_section_title
;
Structure prediction by ZEFSAII (Michael W. Deem and Ramdas Pophale) SiO2 
 PCOD8282741
Probable space group: C C C A
;
_chemical_formula_sum "Si O2"
_cell_formula_units_Z 120
_cell_length_a 11.508168
_cell_length_b 22.234293
_cell_length_c 21.425403
_cell_angle_alpha 90.000000
_cell_angle_beta 90.000000
_cell_angle_gamma 90.000000
_cell_volume 5482.245972
_symmetry_space_group_name_H-M "C C C A"
_symmetry_group_IT_number 68
_space_group.IT_coordinate_system_code '2'
_symmetry_cell_setting 'orthorhombic'
loop_
_space_group_symop_operation_xyz
x,y,z
-x,1/2-y,z
x,1/2-y,1/2-z
-x,y,1/2-z
-x,-y,-z
x,1/2+y,-z
-x,1/2+y,1/2+z
x,-y,1/2+z
1/2+x,1/2+y,z
1/2-x,-y,z
1/2+x,-y,1/2-z
1/2-x,1/2+y,1/2-z
1/2-x,1/2-y,-z
1/2+x,y,-z
1/2-x,y,1/2+z
1/2+x,1/2-y,1/2+z
loop_
_atom_site_type_symbol
_atom_site_label
_atom_site_fract_x
_atom_site_fract_y
_atom_site_fract_z
Si Si1 0.984981 0.454971 0.607137
Si Si2 0.616974 0.860159 0.528881
Si Si3 0.286722 0.266612 0.320796
Si Si4 0.951200 0.588374 0.597059
Si Si5 0.000000 0.250000 0.588632
Si Si6 0.731569 0.095155 0.331976
Si Si7 0.678735 0.942890 0.697268
Si Si8 0.688940 0.345210 0.878250
O O1 0.989022 0.521607 0.576961
O O2 0.857800 0.424248 0.612996
O O3 0.065085 0.419215 0.559670
O O4 0.045936 0.451755 0.675362
O O5 0.618647 0.873547 0.455154
O O6 0.531432 0.804811 0.543254
O O7 0.748153 0.846870 0.553539
O O8 0.319919 0.250000 0.250000
O O9 0.396501 0.264256 0.365247
O O10 0.246105 0.334677 0.322172
O O11 0.187306 0.222477 0.349652
O O12 0.861397 0.573001 0.652702
O O13 0.060059 0.628377 0.618909
O O14 0.684144 0.061574 0.271382
O O15 0.730832 0.882173 0.668950
O O16 0.750000 0.000000 0.672328
#
# Coordination Sequence:
#
# PCOD8282741 Si02
#       8
#    16  16  16  16   8  16  16  16
#     4  11  23  44  67 100 131 178 230 285 340 403
#     4  10  24  41  71  96 130 177 233 291 332 405
#     4  11  22  42  68 101 138 171 233 289 347 420
#     4  12  26  45  64  98 143 182 227 277 344 418
#     4  10  21  42  70 100 132 177 234 294 352 394
#     4  12  26  40  67 104 135 179 226 283 346 408
#     4  11  21  42  67  97 136 170 224 282 341 409
#     4  10  24  43  67  99 126 184 224 273 354 398
#
# _framework density 21.888839000000001
#
# number of rings (size 3 to 8) (size 9 to 14) (size 15 to 20)
#    0.000    1.067    4.000    2.200    1.867    3.200 
#    2.400    3.333    0.000    0.000    0.000    0.000 
#    0.000    0.000    0.000    0.000    0.000    0.000 
#
# Total GULP energy -743905.713630 kJ/mol
# GULP energy per Si atom -12398.428560 kJ/mol
# Density = 2.183902 g / cm^3
# Si number density = 21.888839 Si / 1000 Ang^3
#
#
#
# Elastic Constant Matrix: (Units=GPa)
#
#
# Indices 1 2 3 4 5 6 
#
# 1 115.0668 20.8950 19.4937 0.0000 0.0000 0.0000
# 2 20.8950 111.9060 7.7636 0.0000 0.0000 0.0000
# 3 19.4937 7.7636 74.9246 0.0000 0.0000 0.0000
# 4 0.0000 0.0000 0.0000 28.5425 0.0000 0.0000
# 5 0.0000 0.0000 0.0000 0.0000 22.8028 0.0000
# 6 0.0000 0.0000 0.0000 0.0000 0.0000 32.8834
#
#
#
# Elastic Compliance Matrix: (Units=1/GPa)
#
#
# Indices 1 2 3 4 5 6 
#
# 1 0.009364 -0.001591 -0.002272 0.000000 0.000000 0.000000
# 2 -0.001591 0.009271 -0.000547 0.000000 0.000000 0.000000
# 3 -0.002272 -0.000547 0.013994 0.000000 0.000000 0.000000
# 4 0.000000 0.000000 0.000000 0.035035 0.000000 0.000000
# 5 0.000000 0.000000 0.000000 0.000000 0.043854 0.000000
# 6 0.000000 0.000000 0.000000 0.000000 0.000000 0.030411
#
#
# Mechanical properties :
#
#
# Convention : Reuss Voigt Hill
#
# Bulk Modulus (GPa) = 41.99667 44.24467 43.12067
# Shear Modulus (GPa) = 31.50887 33.76209 32.63548
#
# Velocity S-wave (km/s) = 3.79818 3.93164 3.86549
# Velocity P-wave (km/s) = 6.20185 6.39278 6.29804
#
# Compressibility (1/GPa) = 0.02381141
#
# Stress axis : x y z
#
# Youngs Moduli (GPa) = 106.78833 107.86261 71.45713
#
# Poissons Ratio (x) = 0.17160 0.16232
# Poissons Ratio (y) = 0.16989 0.03907
# Poissons Ratio (z) = 0.24257 0.05897
#
# Static dielectric constant tensor:
#      x y z
#    x 3.807740 0.000000 0.000000 
#    y 0.000000 4.184350 0.000000 
#    z 0.000000 0.000000 3.874070 
# 
# 
# High freq. dielectric constant tensor:
#      x y z
#    x 1.851960 0.000000 0.000000 
#    y 0.000000 1.880640 0.000000 
#    z 0.000000 0.000000 1.851400 
# 
# From -- ./inp_files/37891.got.cif
#   From: 2010.03.12/outbox.cif.g09.slc.cpg/sg68_19_cif.got.tgz:37891.got - 2010.04.10 23:14:56.
