data_PCOD8282017
_publ_section_title
;
Structure prediction by ZEFSAII (Michael W. Deem and Ramdas Pophale) SiO2 
 PCOD8282017
Probable space group: C C C A
;
_chemical_formula_sum "Si O2"
_cell_formula_units_Z 80
_cell_length_a 21.534207
_cell_length_b 10.064869
_cell_length_c 17.743918
_cell_angle_alpha 90.000000
_cell_angle_beta 90.000000
_cell_angle_gamma 90.000000
_cell_volume 3845.798555
_symmetry_space_group_name_H-M "C C C A"
_symmetry_group_IT_number 68
_space_group.IT_coordinate_system_code '2'
_symmetry_cell_setting 'orthorhombic'
loop_
_space_group_symop_operation_xyz
x,y,z
-x,1/2-y,z
x,1/2-y,1/2-z
-x,y,1/2-z
-x,-y,-z
x,1/2+y,-z
-x,1/2+y,1/2+z
x,-y,1/2+z
1/2+x,1/2+y,z
1/2-x,-y,z
1/2+x,-y,1/2-z
1/2-x,1/2+y,1/2-z
1/2-x,1/2-y,-z
1/2+x,y,-z
1/2-x,y,1/2+z
1/2+x,1/2-y,1/2+z
loop_
_atom_site_type_symbol
_atom_site_label
_atom_site_fract_x
_atom_site_fract_y
_atom_site_fract_z
Si Si1 0.425487 0.983487 0.674043
Si Si2 0.189501 0.064789 0.568576
Si Si3 0.066043 0.455522 0.655925
Si Si4 0.069232 0.253139 0.107406
Si Si5 0.149449 0.336635 0.531963
O O1 0.492355 0.934517 0.642237
O O2 0.416061 0.925838 0.757527
O O3 0.424932 0.144433 0.674489
O O4 0.371143 0.933424 0.620407
O O5 0.200205 0.221064 0.550239
O O6 0.250000 0.000000 0.609954
O O7 0.180946 0.975722 0.492479
O O8 0.087816 0.604794 0.639430
O O9 0.104091 0.355872 0.603198
O O10 0.000000 0.250000 0.074746
O O11 0.112168 0.218015 0.038351
#
# Coordination Sequence:
#
# PCOD8282017 Si02
#       5
#    16  16  16  16  16
#     4   9  21  36  62  89 126 161 194 258 309 378
#     4  11  24  42  60  85 122 165 207 249 300 363
#     4  10  19  37  61  96 122 154 203 252 327 362
#     4   9  18  32  59  92 124 156 196 246 309 374
#     4  11  22  37  65  88 120 156 204 258 301 359
#
# _framework density 20.801922000000001
#
# number of rings (size 3 to 8) (size 9 to 14) (size 15 to 20)
#    0.000    2.000    2.000    1.200    2.800    5.600 
#    0.000    3.000    8.800    0.000    0.000    0.000 
#    0.000    0.000    0.000    0.000    0.000    0.000 
#
# Total GULP energy -495759.397929 kJ/mol
# GULP energy per Si atom -12393.984948 kJ/mol
# Density = 2.075458 g / cm^3
# Si number density = 20.801922 Si / 1000 Ang^3
#
#
#
# Elastic Constant Matrix: (Units=GPa)
#
#
# Indices 1 2 3 4 5 6 
#
# 1 81.6817 37.4333 38.2009 0.0000 0.0000 0.0000
# 2 37.4333 110.1039 29.8886 0.0000 0.0000 0.0000
# 3 38.2009 29.8886 88.9379 0.0000 0.0000 0.0000
# 4 0.0000 0.0000 0.0000 2.0960 0.0000 0.0000
# 5 0.0000 0.0000 0.0000 0.0000 18.9717 0.0000
# 6 0.0000 0.0000 0.0000 0.0000 0.0000 28.0588
#
#
#
# Elastic Compliance Matrix: (Units=1/GPa)
#
#
# Indices 1 2 3 4 5 6 
#
# 1 0.016884 -0.004150 -0.005857 0.000000 0.000000 0.000000
# 2 -0.004150 0.011014 -0.001919 0.000000 0.000000 0.000000
# 3 -0.005857 -0.001919 0.014405 0.000000 0.000000 0.000000
# 4 0.000000 0.000000 0.000000 0.477091 0.000000 0.000000
# 5 0.000000 0.000000 0.000000 0.000000 0.052710 0.000000
# 6 0.000000 0.000000 0.000000 0.000000 0.000000 0.035639
#
#
# Mechanical properties :
#
#
# Convention : Reuss Voigt Hill
#
# Bulk Modulus (GPa) = 54.20076 54.64100 54.42088
# Shear Modulus (GPa) = 7.84011 21.50535 14.67273
#
# Velocity S-wave (km/s) = 1.94348 3.21879 2.65873
# Velocity P-wave (km/s) = 5.58107 6.33549 5.97021
#
# Compressibility (1/GPa) = 0.01844992
#
# Stress axis : x y z
#
# Youngs Moduli (GPa) = 59.22775 90.79171 69.42272
#
# Poissons Ratio (x) = 0.37681 0.40663
# Poissons Ratio (y) = 0.24581 0.13321
# Poissons Ratio (z) = 0.34692 0.17421
#
# Static dielectric constant tensor:
#      x y z
#    x 3.705040 0.000000 0.000000 
#    y 0.000000 4.079540 0.000000 
#    z 0.000000 0.000000 3.618740 
# 
# 
# High freq. dielectric constant tensor:
#      x y z
#    x 1.799330 0.000000 0.000000 
#    y 0.000000 1.830810 0.000000 
#    z 0.000000 0.000000 1.795210 
# 
# From -- ./inp_files/25143.got.cif
#   From: 2010.03.12/outbox.cif.g09.slc.cpg/sg68_13_cif.got.tgz:25143.got - 2010.04.10 23:14:56.
