data_PCOD8282355
_publ_section_title
;
Structure prediction by ZEFSAII (Michael W. Deem and Ramdas Pophale) SiO2 
 PCOD8282355
Probable space group: C C C A
;
_chemical_formula_sum "Si O2"
_cell_formula_units_Z 80
_cell_length_a 8.960425
_cell_length_b 17.292652
_cell_length_c 24.909051
_cell_angle_alpha 90.000000
_cell_angle_beta 90.000000
_cell_angle_gamma 90.000000
_cell_volume 3859.645279
_symmetry_space_group_name_H-M "C C C A"
_symmetry_group_IT_number 68
_space_group.IT_coordinate_system_code '2'
_symmetry_cell_setting 'orthorhombic'
loop_
_space_group_symop_operation_xyz
x,y,z
-x,1/2-y,z
x,1/2-y,1/2-z
-x,y,1/2-z
-x,-y,-z
x,1/2+y,-z
-x,1/2+y,1/2+z
x,-y,1/2+z
1/2+x,1/2+y,z
1/2-x,-y,z
1/2+x,-y,1/2-z
1/2-x,1/2+y,1/2-z
1/2-x,1/2-y,-z
1/2+x,y,-z
1/2-x,y,1/2+z
1/2+x,1/2-y,1/2+z
loop_
_atom_site_type_symbol
_atom_site_label
_atom_site_fract_x
_atom_site_fract_y
_atom_site_fract_z
Si Si1 0.419458 0.671976 0.961197
Si Si2 0.410752 0.328115 0.339772
Si Si3 0.803226 0.917377 0.157254
Si Si4 0.838508 0.837722 0.751856
Si Si5 0.289691 0.585405 0.536358
O O1 0.500000 0.750000 0.980735
O O2 0.355234 0.685057 0.900941
O O3 0.533322 0.599691 0.964941
O O4 0.284789 0.652281 0.000831
O O5 0.500000 0.250000 0.320273
O O6 0.518682 0.403447 0.340857
O O7 0.271311 0.353416 0.302493
O O8 0.740622 0.852607 0.195898
O O9 0.734530 0.906116 0.097855
O O10 0.750000 0.000000 0.180050
O O11 0.880030 0.750000 0.750000
O O12 0.000000 0.882655 0.750000
O O13 0.250000 0.500000 0.514310
#
# Coordination Sequence:
#
# PCOD8282355 Si02
#       5
#    16  16  16  16  16
#     4  10  21  37  61  93 119 158 210 251 299 364
#     4  10  20  39  65  86 119 166 208 249 313 377
#     4  10  22  39  60  88 121 161 208 252 306 372
#     4  11  23  38  59  91 119 154 208 260 311 372
#     4  10  21  39  59  86 125 163 200 249 308 365
#
# _framework density 20.727293
#
# number of rings (size 3 to 8) (size 9 to 14) (size 15 to 20)
#    0.000    1.800    2.000    1.800    0.000    3.200 
#    3.600    1.000    0.000    0.000    0.000    0.000 
#    0.000    0.000    0.000    0.000    0.000    0.000 
#
# Total GULP energy -495657.379211 kJ/mol
# GULP energy per Si atom -12391.434480 kJ/mol
# Density = 2.068012 g / cm^3
# Si number density = 20.727293 Si / 1000 Ang^3
#
#
#
# Elastic Constant Matrix: (Units=GPa)
#
#
# Indices 1 2 3 4 5 6 
#
# 1 107.8702 24.3160 57.8067 0.0000 0.0000 0.0000
# 2 24.3160 72.8362 24.5280 0.0000 0.0000 0.0000
# 3 57.8067 24.5280 105.7725 0.0000 0.0000 0.0000
# 4 0.0000 0.0000 0.0000 29.1986 0.0000 0.0000
# 5 0.0000 0.0000 0.0000 0.0000 37.0293 0.0000
# 6 0.0000 0.0000 0.0000 0.0000 0.0000 28.2082
#
#
#
# Elastic Compliance Matrix: (Units=1/GPa)
#
#
# Indices 1 2 3 4 5 6 
#
# 1 0.013422 -0.002181 -0.006830 0.000000 0.000000 0.000000
# 2 -0.002181 0.015247 -0.002344 0.000000 0.000000 0.000000
# 3 -0.006830 -0.002344 0.013730 0.000000 0.000000 0.000000
# 4 0.000000 0.000000 0.000000 0.034248 0.000000 0.000000
# 5 0.000000 0.000000 0.000000 0.000000 0.027006 0.000000
# 6 0.000000 0.000000 0.000000 0.000000 0.000000 0.035451
#
#
# Mechanical properties :
#
#
# Convention : Reuss Voigt Hill
#
# Bulk Modulus (GPa) = 50.78595 55.53114 53.15855
# Shear Modulus (GPa) = 29.69550 30.87575 30.28563
#
# Velocity S-wave (km/s) = 3.78918 3.86374 3.82664
# Velocity P-wave (km/s) = 6.61052 6.83770 6.72507
#
# Compressibility (1/GPa) = 0.01969048
#
# Stress axis : x y z
#
# Youngs Moduli (GPa) = 74.50481 65.58758 72.83186
#
# Poissons Ratio (x) = 0.14304 0.49741
# Poissons Ratio (y) = 0.16249 0.17070
# Poissons Ratio (z) = 0.50884 0.15372
#
# Static dielectric constant tensor:
#      x y z
#    x 3.738220 0.000000 0.000000 
#    y 0.000000 3.709220 0.000000 
#    z 0.000000 0.000000 3.762950 
# 
# 
# High freq. dielectric constant tensor:
#      x y z
#    x 1.803490 0.000000 0.000000 
#    y 0.000000 1.801390 0.000000 
#    z 0.000000 0.000000 1.812640 
# 
# From -- ./inp_files/49106.got.cif
#   From: 2010.03.12/outbox.cif.g09.slc.cpg/sg68_25_cif.got.tgz:49106.got - 2010.04.10 23:14:56.
