data_PCOD8282905
_publ_section_title
;
Structure prediction by ZEFSAII (Michael W. Deem and Ramdas Pophale) SiO2 
 PCOD8282905
Probable space group: C C C A
;
_chemical_formula_sum "Si O2"
_cell_formula_units_Z 88
_cell_length_a 17.483763
_cell_length_b 27.827499
_cell_length_c 9.073477
_cell_angle_alpha 90.000000
_cell_angle_beta 90.000000
_cell_angle_gamma 90.000000
_cell_volume 4414.513297
_symmetry_space_group_name_H-M "C C C A"
_symmetry_group_IT_number 68
_space_group.IT_coordinate_system_code '2'
_symmetry_cell_setting 'orthorhombic'
loop_
_space_group_symop_operation_xyz
x,y,z
-x,1/2-y,z
x,1/2-y,1/2-z
-x,y,1/2-z
-x,-y,-z
x,1/2+y,-z
-x,1/2+y,1/2+z
x,-y,1/2+z
1/2+x,1/2+y,z
1/2-x,-y,z
1/2+x,-y,1/2-z
1/2-x,1/2+y,1/2-z
1/2-x,1/2-y,-z
1/2+x,y,-z
1/2-x,y,1/2+z
1/2+x,1/2-y,1/2+z
loop_
_atom_site_type_symbol
_atom_site_label
_atom_site_fract_x
_atom_site_fract_y
_atom_site_fract_z
Si Si1 0.777183 0.896375 0.619093
Si Si2 0.693937 0.456981 0.153884
Si Si3 0.582420 0.877572 0.323364
Si Si4 0.315469 0.187989 0.511825
Si Si5 0.728564 0.250000 0.250000
Si Si6 0.053945 0.479614 0.378184
O O1 0.712134 0.913557 0.734590
O O2 0.799328 0.940829 0.514887
O O3 0.853748 0.877685 0.696372
O O4 0.745299 0.853772 0.519556
O O5 0.750000 0.500000 0.189329
O O6 0.609546 0.478348 0.177445
O O7 0.500000 0.867065 0.250000
O O8 0.603003 0.835065 0.439680
O O9 0.592746 0.928029 0.416108
O O10 0.325216 0.219786 0.362978
O O11 0.283390 0.217098 0.651143
O O12 0.000000 0.461966 0.250000
O O13 0.000000 0.500000 0.500000
#
# Coordination Sequence:
#
# PCOD8282905 Si02
#       6
#    16  16  16  16   8  16
#     4  12  22  39  63  95 124 169 223 269 322 387
#     4  12  23  35  61  87 127 170 224 266 301 373
#     4  11  23  41  64  94 134 172 221 268 332 391
#     4  11  21  42  69 101 126 167 210 279 337 404
#     4  10  22  40  75 101 126 154 222 272 344 410
#     4  11  25  41  57  88 133 180 218 261 318 369
#
# _framework density 19.934246999999999
#
# number of rings (size 3 to 8) (size 9 to 14) (size 15 to 20)
#    0.000    0.727    5.455    2.727    5.091    0.000 
#    0.000    0.455    0.000    1.091    0.000    0.000 
#    0.000    0.000    0.000    0.000    0.000    0.000 
#
# Total GULP energy -545423.184336 kJ/mol
# GULP energy per Si atom -12395.981462 kJ/mol
# Density = 1.988888 g / cm^3
# Si number density = 19.934247 Si / 1000 Ang^3
#
#
#
# Elastic Constant Matrix: (Units=GPa)
#
#
# Indices 1 2 3 4 5 6 
#
# 1 116.0969 52.7902 41.3551 0.0000 0.0000 0.0000
# 2 52.7902 114.2897 60.1403 0.0000 0.0000 0.0000
# 3 41.3551 60.1403 112.1756 0.0000 0.0000 0.0000
# 4 0.0000 0.0000 0.0000 51.3616 0.0000 0.0000
# 5 0.0000 0.0000 0.0000 0.0000 26.6827 0.0000
# 6 0.0000 0.0000 0.0000 0.0000 0.0000 30.2349
#
#
#
# Elastic Compliance Matrix: (Units=1/GPa)
#
#
# Indices 1 2 3 4 5 6 
#
# 1 0.011183 -0.004173 -0.001885 0.000000 0.000000 0.000000
# 2 -0.004173 0.013746 -0.005831 0.000000 0.000000 0.000000
# 3 -0.001885 -0.005831 0.012736 0.000000 0.000000 0.000000
# 4 0.000000 0.000000 0.000000 0.019470 0.000000 0.000000
# 5 0.000000 0.000000 0.000000 0.000000 0.037477 0.000000
# 6 0.000000 0.000000 0.000000 0.000000 0.000000 0.033074
#
#
# Mechanical properties :
#
#
# Convention : Reuss Voigt Hill
#
# Bulk Modulus (GPa) = 72.01884 72.34813 72.18349
# Shear Modulus (GPa) = 32.03230 34.20763 33.11997
#
# Velocity S-wave (km/s) = 4.01296 4.14698 4.08052
# Velocity P-wave (km/s) = 7.59463 7.70079 7.64790
#
# Compressibility (1/GPa) = 0.01388526
#
# Stress axis : x y z
#
# Youngs Moduli (GPa) = 89.42437 72.75096 78.51945
#
# Poissons Ratio (x) = 0.30360 0.14803
# Poissons Ratio (y) = 0.37318 0.45783
# Poissons Ratio (z) = 0.16859 0.42420
#
# Static dielectric constant tensor:
#      x y z
#    x 3.410800 0.000000 0.000000 
#    y 0.000000 3.855880 0.000000 
#    z 0.000000 0.000000 3.765370 
# 
# 
# High freq. dielectric constant tensor:
#      x y z
#    x 1.758230 0.000000 0.000000 
#    y 0.000000 1.787120 0.000000 
#    z 0.000000 0.000000 1.787440 
# 
# From -- ./inp_files/6395.got.cif
#   From: 2010.03.12/outbox.cif.g09.slc.cpg/sg68_4_cif.got.tgz:6395.got - 2010.04.10 23:14:56.
