data_PCOD8282203
_publ_section_title
;
Structure prediction by ZEFSAII (Michael W. Deem and Ramdas Pophale) SiO2 
 PCOD8282203
Probable space group: C C C A
;
_chemical_formula_sum "Si O2"
_cell_formula_units_Z 116
_cell_length_a 23.641975
_cell_length_b 23.932035
_cell_length_c 9.476257
_cell_angle_alpha 90.000000
_cell_angle_beta 90.000000
_cell_angle_gamma 90.000000
_cell_volume 5361.671642
_symmetry_space_group_name_H-M "C C C A"
_symmetry_group_IT_number 68
_space_group.IT_coordinate_system_code '2'
_symmetry_cell_setting 'orthorhombic'
loop_
_space_group_symop_operation_xyz
x,y,z
-x,1/2-y,z
x,1/2-y,1/2-z
-x,y,1/2-z
-x,-y,-z
x,1/2+y,-z
-x,1/2+y,1/2+z
x,-y,1/2+z
1/2+x,1/2+y,z
1/2-x,-y,z
1/2+x,-y,1/2-z
1/2-x,1/2+y,1/2-z
1/2-x,1/2-y,-z
1/2+x,y,-z
1/2-x,y,1/2+z
1/2+x,1/2-y,1/2+z
loop_
_atom_site_type_symbol
_atom_site_label
_atom_site_fract_x
_atom_site_fract_y
_atom_site_fract_z
Si Si1 0.088752 0.173908 0.899173
Si Si2 0.857697 0.571251 0.260650
Si Si3 0.636949 0.476704 0.561984
Si Si4 0.336922 0.839426 0.312381
Si Si5 0.000000 0.750000 0.250000
Si Si6 0.734013 0.560672 0.264805
Si Si7 0.812528 0.768065 0.958304
Si Si8 0.559638 0.614205 0.176897
O O1 0.100726 0.122606 0.792087
O O2 0.040679 0.212815 0.842111
O O3 0.149631 0.204364 0.918503
O O4 0.060678 0.156261 0.046027
O O5 0.859784 0.527021 0.392510
O O6 0.874969 0.539576 0.116390
O O7 0.793408 0.591275 0.232682
O O8 0.695793 0.451314 0.625299
O O9 0.582807 0.444138 0.619868
O O10 0.299396 0.893621 0.360103
O O11 0.310346 0.812346 0.169864
O O12 0.342054 0.791106 0.427001
O O13 0.400512 0.860178 0.296383
O O14 0.750000 0.500000 0.336479
O O15 0.750000 0.750000 0.000000
O O16 0.500000 0.605091 0.250000
#
# Coordination Sequence:
#
# PCOD8282203 Si02
#       8
#    16  16  16  16   4  16  16  16
#     4  10  24  43  62  85 127 165 208 265 313 381
#     4  10  20  40  60  89 128 170 201 261 316 374
#     4   9  20  37  59  94 124 157 211 246 312 384
#     4   9  19  34  55  93 116 149 213 246 307 370
#     4  12  28  48  54  88 128 172 224 248 328 398
#     4   9  18  32  57  86 129 160 190 250 311 381
#     4  10  20  36  60  88 121 159 202 261 309 369
#     4   9  19  40  65  86 113 152 202 268 302 356
#
# _framework density 21.635044000000001
#
# number of rings (size 3 to 8) (size 9 to 14) (size 15 to 20)
#    0.000    2.483    0.000    1.655    1.931    7.172 
#    3.724    5.517    0.000    0.000    0.000    0.000 
#    0.000    0.000    0.000    0.000    0.000    0.000 
#
# Total GULP energy -718533.231830 kJ/mol
# GULP energy per Si atom -12388.503997 kJ/mol
# Density = 2.158580 g / cm^3
# Si number density = 21.635044 Si / 1000 Ang^3
#
#
#
# Elastic Constant Matrix: (Units=GPa)
#
#
# Indices 1 2 3 4 5 6 
#
# 1 146.1608 43.5771 33.1383 0.0000 0.0000 0.0000
# 2 43.5771 116.6996 25.4900 0.0000 0.0000 0.0000
# 3 33.1383 25.4900 43.2857 0.0000 0.0000 0.0000
# 4 0.0000 0.0000 0.0000 29.8125 0.0000 0.0000
# 5 0.0000 0.0000 0.0000 0.0000 16.8555 0.0000
# 6 0.0000 0.0000 0.0000 0.0000 0.0000 50.8177
#
#
#
# Elastic Compliance Matrix: (Units=1/GPa)
#
#
# Indices 1 2 3 4 5 6 
#
# 1 0.008688 -0.002056 -0.005441 0.000000 0.000000 0.000000
# 2 -0.002056 0.010320 -0.004503 0.000000 0.000000 0.000000
# 3 -0.005441 -0.004503 0.029920 0.000000 0.000000 0.000000
# 4 0.000000 0.000000 0.000000 0.033543 0.000000 0.000000
# 5 0.000000 0.000000 0.000000 0.000000 0.059328 0.000000
# 6 0.000000 0.000000 0.000000 0.000000 0.000000 0.019678
#
#
# Mechanical properties :
#
#
# Convention : Reuss Voigt Hill
#
# Bulk Modulus (GPa) = 40.11572 56.72855 48.42214
# Shear Modulus (GPa) = 25.80149 33.09318 29.44733
#
# Velocity S-wave (km/s) = 3.45712 3.91527 3.69330
# Velocity P-wave (km/s) = 5.87519 6.83496 6.37317
#
# Compressibility (1/GPa) = 0.02492788
#
# Stress axis : x y z
#
# Youngs Moduli (GPa) = 115.09705 96.89555 33.42278
#
# Poissons Ratio (x) = 0.19921 0.18185
# Poissons Ratio (y) = 0.23663 0.15052
# Poissons Ratio (z) = 0.62623 0.43637
#
# Static dielectric constant tensor:
#      x y z
#    x 3.723430 0.000000 0.000000 
#    y 0.000000 3.513100 0.000000 
#    z 0.000000 0.000000 3.708310 
# 
# 
# High freq. dielectric constant tensor:
#      x y z
#    x 1.842380 0.000000 0.000000 
#    y 0.000000 1.861230 0.000000 
#    z 0.000000 0.000000 1.823070 
# 
# From -- ./inp_files/8335.got.cif
#   From: 2010.03.12/outbox.cif.g09.slc.cpg/sg68_5_cif.got.tgz:8335.got - 2010.04.10 23:14:56.
