data_PCOD8282823
_publ_section_title
;
Structure prediction by ZEFSAII (Michael W. Deem and Ramdas Pophale) SiO2 
 PCOD8282823
Probable space group: C C C A
;
_chemical_formula_sum "Si O2"
_cell_formula_units_Z 108
_cell_length_a 14.689767
_cell_length_b 28.061836
_cell_length_c 10.696379
_cell_angle_alpha 90.000000
_cell_angle_beta 90.000000
_cell_angle_gamma 90.000000
_cell_volume 4409.280952
_symmetry_space_group_name_H-M "C C C A"
_symmetry_group_IT_number 68
_space_group.IT_coordinate_system_code '2'
_symmetry_cell_setting 'orthorhombic'
loop_
_space_group_symop_operation_xyz
x,y,z
-x,1/2-y,z
x,1/2-y,1/2-z
-x,y,1/2-z
-x,-y,-z
x,1/2+y,-z
-x,1/2+y,1/2+z
x,-y,1/2+z
1/2+x,1/2+y,z
1/2-x,-y,z
1/2+x,-y,1/2-z
1/2-x,1/2+y,1/2-z
1/2-x,1/2-y,-z
1/2+x,y,-z
1/2-x,y,1/2+z
1/2+x,1/2-y,1/2+z
loop_
_atom_site_type_symbol
_atom_site_label
_atom_site_fract_x
_atom_site_fract_y
_atom_site_fract_z
Si Si1 0.262461 0.669106 0.085167
Si Si2 0.294848 0.250000 0.250000
Si Si3 0.000000 0.250000 0.250000
Si Si4 0.910676 0.824070 0.391835
Si Si5 0.424797 0.323972 0.942645
Si Si6 0.155036 0.901992 0.283669
Si Si7 0.446556 0.072304 0.532486
Si Si8 0.575718 0.976864 0.857020
O O1 0.271043 0.716451 0.168876
O O2 0.248509 0.625508 0.184360
O O3 0.355621 0.658407 0.014599
O O4 0.180000 0.675533 0.986016
O O5 0.361900 0.277044 0.343725
O O6 0.062745 0.215623 0.164596
O O7 0.912965 0.865277 0.287445
O O8 0.013156 0.811935 0.435333
O O9 0.455918 0.377172 0.894944
O O10 0.116750 0.917448 0.415812
O O11 0.165300 0.948549 0.194422
O O12 0.542126 0.049368 0.484708
O O13 0.399865 0.032199 0.620615
O O14 0.500000 0.971458 0.750000
#
# Coordination Sequence:
#
# PCOD8282823 Si02
#       8
#    16   8   4  16  16  16  16  16
#     4  10  23  38  62  91 122 169 219 269 326 391
#     4  10  22  38  66  90 124 162 220 282 332 388
#     4  12  28  38  56  84 140 186 216 258 314 388
#     4  11  22  39  63  89 124 172 217 270 332 386
#     4  11  24  41  58  88 129 170 219 265 322 404
#     4   9  19  36  62  88 120 155 206 271 320 385
#     4   9  18  33  60  96 120 153 210 265 326 395
#     4   9  16  31  62  97 123 152 204 266 333 393
#
# _framework density 24.493790000000001
#
# number of rings (size 3 to 8) (size 9 to 14) (size 15 to 20)
#    0.000    2.074    1.481    1.333    3.111    5.926 
#    0.000    0.000    0.000    7.111    0.000    0.000 
#    0.000    0.000    0.000    0.296    0.000    0.000 
#
# Total GULP energy -669178.106596 kJ/mol
# GULP energy per Si atom -12392.187159 kJ/mol
# Density = 2.443804 g / cm^3
# Si number density = 24.493790 Si / 1000 Ang^3
#
#
#
# Elastic Constant Matrix: (Units=GPa)
#
#
# Indices 1 2 3 4 5 6 
#
# 1 41.8587 7.4734 9.6070 0.0000 0.0000 0.0000
# 2 7.4734 178.8616 53.7755 0.0000 0.0000 0.0000
# 3 9.6070 53.7755 85.3961 0.0000 0.0000 0.0000
# 4 0.0000 0.0000 0.0000 62.5388 0.0000 0.0000
# 5 0.0000 0.0000 0.0000 0.0000 21.1005 0.0000
# 6 0.0000 0.0000 0.0000 0.0000 0.0000 3.4442
#
#
#
# Elastic Compliance Matrix: (Units=1/GPa)
#
#
# Indices 1 2 3 4 5 6 
#
# 1 0.024531 -0.000241 -0.002608 0.000000 0.000000 0.000000
# 2 -0.000241 0.006899 -0.004317 0.000000 0.000000 0.000000
# 3 -0.002608 -0.004317 0.014722 0.000000 0.000000 0.000000
# 4 0.000000 0.000000 0.000000 0.015990 0.000000 0.000000
# 5 0.000000 0.000000 0.000000 0.000000 0.047392 0.000000
# 6 0.000000 0.000000 0.000000 0.000000 0.000000 0.290342
#
#
# Mechanical properties :
#
#
# Convention : Reuss Voigt Hill
#
# Bulk Modulus (GPa) = 31.42663 49.75870 40.59266
# Shear Modulus (GPa) = 11.76979 33.10076 22.43527
#
# Velocity S-wave (km/s) = 2.19446 3.68012 3.02976
# Velocity P-wave (km/s) = 4.39080 6.19811 5.37102
#
# Compressibility (1/GPa) = 0.03182015
#
# Stress axis : x y z
#
# Youngs Moduli (GPa) = 40.76397 144.94847 67.92443
#
# Poissons Ratio (x) = 0.03491 0.17715
# Poissons Ratio (y) = 0.00982 0.29325
# Poissons Ratio (z) = 0.10632 0.62579
#
# Static dielectric constant tensor:
#      x y z
#    x 3.841370 0.000000 0.000000 
#    y 0.000000 5.135250 0.000000 
#    z 0.000000 0.000000 4.554130 
# 
# 
# High freq. dielectric constant tensor:
#      x y z
#    x 1.924860 0.000000 0.000000 
#    y 0.000000 1.990320 0.000000 
#    z 0.000000 0.000000 1.973640 
# 
# From -- ./inp_files/13645.got.cif
#   From: 2010.03.12/outbox.cif.g09.slc.cpg/sg68_7_cif.got.tgz:13645.got - 2010.04.10 23:14:56.
