data_PCOD8282183
_publ_section_title
;
Structure prediction by ZEFSAII (Michael W. Deem and Ramdas Pophale) SiO2 
 PCOD8282183
Probable space group: C C C A
;
_chemical_formula_sum "Si O2"
_cell_formula_units_Z 80
_cell_length_a 24.167220
_cell_length_b 8.687881
_cell_length_c 18.369063
_cell_angle_alpha 90.000000
_cell_angle_beta 90.000000
_cell_angle_gamma 90.000000
_cell_volume 3856.803947
_symmetry_space_group_name_H-M "C C C A"
_symmetry_group_IT_number 68
_space_group.IT_coordinate_system_code '2'
_symmetry_cell_setting 'orthorhombic'
loop_
_space_group_symop_operation_xyz
x,y,z
-x,1/2-y,z
x,1/2-y,1/2-z
-x,y,1/2-z
-x,-y,-z
x,1/2+y,-z
-x,1/2+y,1/2+z
x,-y,1/2+z
1/2+x,1/2+y,z
1/2-x,-y,z
1/2+x,-y,1/2-z
1/2-x,1/2+y,1/2-z
1/2-x,1/2-y,-z
1/2+x,y,-z
1/2-x,y,1/2+z
1/2+x,1/2-y,1/2+z
loop_
_atom_site_type_symbol
_atom_site_label
_atom_site_fract_x
_atom_site_fract_y
_atom_site_fract_z
Si Si1 0.750000 0.500000 0.658769
Si Si2 0.117513 0.477483 0.710792
Si Si3 0.313933 0.250000 0.750000
Si Si4 0.144804 0.171985 0.641980
Si Si5 0.521665 0.410498 0.882667
Si Si6 0.949385 0.364098 0.538754
O O1 0.724985 0.363415 0.706009
O O2 0.798976 0.413997 0.614589
O O3 0.147083 0.642537 0.699239
O O4 0.154274 0.344461 0.672479
O O5 0.114202 0.432695 0.796385
O O6 0.055202 0.491659 0.678066
O O7 0.107640 0.197166 0.571016
O O8 0.500000 0.250000 0.848702
O O9 0.465812 0.486504 0.914347
O O10 0.561648 0.392654 0.953337
O O11 0.000000 0.250000 0.550722
#
# Coordination Sequence:
#
# PCOD8282183 Si02
#       6
#     8  16   8  16  16  16
#     4  10  20  36  60  82 114 154 194 240 296 346
#     4  10  21  37  57  88 116 151 191 246 288 344
#     4  10  20  36  57  84 113 152 190 240 292 340
#     4  10  21  38  60  84 116 155 195 240 292 351
#     4  10  22  36  59  86 117 155 193 237 286 349
#     4  10  20  40  59  84 117 161 193 228 294 357
#
# _framework density 20.742562
#
# number of rings (size 3 to 8) (size 9 to 14) (size 15 to 20)
#    0.000    2.000    2.000    2.400    5.600    0.800 
#    0.000    0.000    0.000    9.600    0.000    0.000 
#    0.000    0.000    0.000    0.000    0.000    0.000 
#
# Total GULP energy -495606.522810 kJ/mol
# GULP energy per Si atom -12390.163070 kJ/mol
# Density = 2.069535 g / cm^3
# Si number density = 20.742562 Si / 1000 Ang^3
#
#
#
# Elastic Constant Matrix: (Units=GPa)
#
#
# Indices 1 2 3 4 5 6 
#
# 1 94.0000 27.4073 36.2181 0.0000 0.0000 0.0000
# 2 27.4073 119.1725 10.3805 0.0000 0.0000 0.0000
# 3 36.2181 10.3805 55.3592 0.0000 0.0000 0.0000
# 4 0.0000 0.0000 0.0000 15.0732 0.0000 0.0000
# 5 0.0000 0.0000 0.0000 0.0000 9.6749 0.0000
# 6 0.0000 0.0000 0.0000 0.0000 0.0000 42.2798
#
#
#
# Elastic Compliance Matrix: (Units=1/GPa)
#
#
# Indices 1 2 3 4 5 6 
#
# 1 0.014997 -0.002637 -0.009317 0.000000 0.000000 0.000000
# 2 -0.002637 0.008994 0.000039 0.000000 0.000000 0.000000
# 3 -0.009317 0.000039 0.024152 0.000000 0.000000 0.000000
# 4 0.000000 0.000000 0.000000 0.066343 0.000000 0.000000
# 5 0.000000 0.000000 0.000000 0.000000 0.103361 0.000000
# 6 0.000000 0.000000 0.000000 0.000000 0.000000 0.023652
#
#
# Mechanical properties :
#
#
# Convention : Reuss Voigt Hill
#
# Bulk Modulus (GPa) = 41.13125 46.28261 43.70693
# Shear Modulus (GPa) = 18.28588 26.37396 22.32992
#
# Velocity S-wave (km/s) = 2.97233 3.56966 3.28461
# Velocity P-wave (km/s) = 5.62602 6.27306 5.95833
#
# Compressibility (1/GPa) = 0.02431242
#
# Stress axis : x y z
#
# Youngs Moduli (GPa) = 66.67909 111.18064 41.40410
#
# Poissons Ratio (x) = 0.29324 0.38577
# Poissons Ratio (y) = 0.17587 -0.00161
# Poissons Ratio (z) = 0.62126 -0.00434
#
# Static dielectric constant tensor:
#      x y z
#    x 3.774640 0.000000 0.000000 
#    y 0.000000 4.188640 0.000000 
#    z 0.000000 0.000000 3.515110 
# 
# 
# High freq. dielectric constant tensor:
#      x y z
#    x 1.794060 0.000000 0.000000 
#    y 0.000000 1.836370 0.000000 
#    z 0.000000 0.000000 1.774220 
# 
# From -- ./inp_files/33996.got.cif
#   From: 2010.03.12/outbox.cif.g09.slc.cpg/sg68_17_cif.got.tgz:33996.got - 2010.04.10 23:14:56.
