data_PCOD8282024
_publ_section_title
;
Structure prediction by ZEFSAII (Michael W. Deem and Ramdas Pophale) SiO2 
 PCOD8282024
Probable space group: C C C A
;
_chemical_formula_sum "Si O2"
_cell_formula_units_Z 116
_cell_length_a 12.242675
_cell_length_b 16.908279
_cell_length_c 28.805802
_cell_angle_alpha 90.000000
_cell_angle_beta 90.000000
_cell_angle_gamma 90.000000
_cell_volume 5962.874890
_symmetry_space_group_name_H-M "C C C A"
_symmetry_group_IT_number 68
_space_group.IT_coordinate_system_code '2'
_symmetry_cell_setting 'orthorhombic'
loop_
_space_group_symop_operation_xyz
x,y,z
-x,1/2-y,z
x,1/2-y,1/2-z
-x,y,1/2-z
-x,-y,-z
x,1/2+y,-z
-x,1/2+y,1/2+z
x,-y,1/2+z
1/2+x,1/2+y,z
1/2-x,-y,z
1/2+x,-y,1/2-z
1/2-x,1/2+y,1/2-z
1/2-x,1/2-y,-z
1/2+x,y,-z
1/2-x,y,1/2+z
1/2+x,1/2-y,1/2+z
loop_
_atom_site_type_symbol
_atom_site_label
_atom_site_fract_x
_atom_site_fract_y
_atom_site_fract_z
Si Si1 0.361620 0.047449 0.616923
Si Si2 0.078190 0.874853 0.318285
Si Si3 0.018171 0.099749 0.588353
Si Si4 0.258380 0.836339 0.554126
Si Si5 0.500000 0.250000 0.250000
Si Si6 0.487414 0.449778 0.698064
Si Si7 0.707908 0.912276 0.138414
Si Si8 0.285625 0.348977 0.049738
O O1 0.333572 0.128544 0.589391
O O2 0.398223 0.060694 0.670412
O O3 0.250000 0.000000 0.617684
O O4 0.458464 0.995475 0.592167
O O5 0.197890 0.859167 0.339044
O O6 0.989559 0.865187 0.359451
O O7 0.074277 0.806258 0.280826
O O8 0.057707 0.960942 0.295729
O O9 0.118038 0.140258 0.563548
O O10 0.907408 0.120086 0.561257
O O11 0.259049 0.742727 0.556910
O O12 0.232214 0.871655 0.503525
O O13 0.500000 0.414283 0.750000
O O14 0.403013 0.398739 0.666872
O O15 0.697719 0.891551 0.083624
O O16 0.750000 0.000000 0.143285
#
# Coordination Sequence:
#
# PCOD8282024 Si02
#       8
#    16  16  16  16   4  16  16  16
#     4   9  20  37  58  85 112 145 194 242 291 344
#     4   9  20  34  55  88 113 141 189 244 295 333
#     4   9  19  37  57  79 115 145 180 240 291 341
#     4  10  21  36  56  87 115 145 188 244 300 343
#     4  12  20  32  60  96 110 136 190 260 300 340
#     4  10  19  38  56  79 117 158 195 229 282 347
#     4   9  20  37  56  81 116 155 194 234 281 349
#     4  10  21  36  58  84 111 151 193 236 293 348
#
# _framework density 19.453703999999998
#
# number of rings (size 3 to 8) (size 9 to 14) (size 15 to 20)
#    0.000    2.483    0.690    1.241    3.862    4.966 
#    2.483    2.069    0.000    0.828    0.000    0.000 
#    0.000    0.000    0.000    0.000    0.000    0.000 
#
# Total GULP energy -718671.994238 kJ/mol
# GULP energy per Si atom -12390.896452 kJ/mol
# Density = 1.940943 g / cm^3
# Si number density = 19.453704 Si / 1000 Ang^3
#
#
#
# Elastic Constant Matrix: (Units=GPa)
#
#
# Indices 1 2 3 4 5 6 
#
# 1 76.6279 30.2814 53.2022 0.0000 0.0000 0.0000
# 2 30.2814 47.5412 32.3861 0.0000 0.0000 0.0000
# 3 53.2022 32.3861 136.7472 0.0000 0.0000 0.0000
# 4 0.0000 0.0000 0.0000 36.2545 0.0000 0.0000
# 5 0.0000 0.0000 0.0000 0.0000 8.9909 0.0000
# 6 0.0000 0.0000 0.0000 0.0000 0.0000 22.4579
#
#
#
# Elastic Compliance Matrix: (Units=1/GPa)
#
#
# Indices 1 2 3 4 5 6 
#
# 1 0.020795 -0.009222 -0.005906 0.000000 0.000000 0.000000
# 2 -0.009222 0.029170 -0.003321 0.000000 0.000000 0.000000
# 3 -0.005906 -0.003321 0.010397 0.000000 0.000000 0.000000
# 4 0.000000 0.000000 0.000000 0.027583 0.000000 0.000000
# 5 0.000000 0.000000 0.000000 0.000000 0.111223 0.000000
# 6 0.000000 0.000000 0.000000 0.000000 0.000000 0.044528
#
#
# Mechanical properties :
#
#
# Convention : Reuss Voigt Hill
#
# Bulk Modulus (GPa) = 42.61717 54.73953 48.67835
# Shear Modulus (GPa) = 17.33607 23.21044 20.27326
#
# Velocity S-wave (km/s) = 2.98844 3.45789 3.23170
# Velocity P-wave (km/s) = 5.81913 6.64395 6.24517
#
# Compressibility (1/GPa) = 0.02346472
#
# Stress axis : x y z
#
# Youngs Moduli (GPa) = 48.08826 34.28133 96.18049
#
# Poissons Ratio (x) = 0.31614 0.56808
# Poissons Ratio (y) = 0.44346 0.31938
# Poissons Ratio (z) = 0.28403 0.11384
#
# Static dielectric constant tensor:
#      x y z
#    x 3.923370 0.000000 0.000000 
#    y 0.000000 3.545820 0.000000 
#    z 0.000000 0.000000 3.770790 
# 
# 
# High freq. dielectric constant tensor:
#      x y z
#    x 1.753050 0.000000 0.000000 
#    y 0.000000 1.736790 0.000000 
#    z 0.000000 0.000000 1.765100 
# 
# From -- ./inp_files/50357.got.cif
#   From: 2010.03.12/outbox.cif.g09.slc.cpg/sg68_26_cif.got.tgz:50357.got - 2010.04.10 23:14:56.
