data_PCOD8282756
_publ_section_title
;
Structure prediction by ZEFSAII (Michael W. Deem and Ramdas Pophale) SiO2 
 PCOD8282756
Probable space group: C C C A
;
_chemical_formula_sum "Si O2"
_cell_formula_units_Z 80
_cell_length_a 23.455698
_cell_length_b 16.645107
_cell_length_c 8.786313
_cell_angle_alpha 90.000000
_cell_angle_beta 90.000000
_cell_angle_gamma 90.000000
_cell_volume 3430.375192
_symmetry_space_group_name_H-M "C C C A"
_symmetry_group_IT_number 68
_space_group.IT_coordinate_system_code '2'
_symmetry_cell_setting 'orthorhombic'
loop_
_space_group_symop_operation_xyz
x,y,z
-x,1/2-y,z
x,1/2-y,1/2-z
-x,y,1/2-z
-x,-y,-z
x,1/2+y,-z
-x,1/2+y,1/2+z
x,-y,1/2+z
1/2+x,1/2+y,z
1/2-x,-y,z
1/2+x,-y,1/2-z
1/2-x,1/2+y,1/2-z
1/2-x,1/2-y,-z
1/2+x,y,-z
1/2-x,y,1/2+z
1/2+x,1/2-y,1/2+z
loop_
_atom_site_type_symbol
_atom_site_label
_atom_site_fract_x
_atom_site_fract_y
_atom_site_fract_z
Si Si1 0.515515 0.838496 0.426762
Si Si2 0.413415 0.084528 0.061972
Si Si3 0.285360 0.680876 0.631981
Si Si4 0.611318 0.422423 0.403437
Si Si5 0.335359 0.709295 0.103635
O O1 0.500000 0.750000 0.487908
O O2 0.500000 0.845265 0.250000
O O3 0.478183 0.906472 0.508448
O O4 0.580491 0.859769 0.478242
O O5 0.420464 0.073900 0.241966
O O6 0.379186 0.163988 0.005862
O O7 0.384313 0.008207 0.983749
O O8 0.303283 0.750000 0.750000
O O9 0.325094 0.602905 0.646881
O O10 0.301274 0.715881 0.467409
O O11 0.219063 0.652721 0.649578
O O12 0.367743 0.750000 0.250000
#
# Coordination Sequence:
#
# PCOD8282756 Si02
#       5
#    16  16  16  16  16
#     4  11  26  45  71 100 129 174 225 279 336 406
#     4  12  26  44  66  98 135 179 219 278 341 401
#     4  10  21  44  67 100 130 177 226 276 332 400
#     4  12  26  44  67  96 139 175 223 276 340 406
#     4  10  23  40  71  98 135 173 226 278 330 401
#
# _framework density 23.321065000000001
#
# number of rings (size 3 to 8) (size 9 to 14) (size 15 to 20)
#    0.000    1.000    2.000    3.600    8.400    1.600 
#    0.000    2.000    0.000    0.000    0.000    0.000 
#    0.000    0.000    0.000    0.000    0.000    0.000 
#
# Total GULP energy -495728.509636 kJ/mol
# GULP energy per Si atom -12393.212741 kJ/mol
# Density = 2.326799 g / cm^3
# Si number density = 23.321065 Si / 1000 Ang^3
#
#
#
# Elastic Constant Matrix: (Units=GPa)
#
#
# Indices 1 2 3 4 5 6 
#
# 1 71.9261 1.2002 2.9839 0.0000 0.0000 0.0000
# 2 1.2002 70.3974 16.7254 0.0000 0.0000 0.0000
# 3 2.9839 16.7254 127.3730 0.0000 0.0000 0.0000
# 4 0.0000 0.0000 0.0000 33.5313 0.0000 0.0000
# 5 0.0000 0.0000 0.0000 0.0000 34.6241 0.0000
# 6 0.0000 0.0000 0.0000 0.0000 0.0000 11.0840
#
#
#
# Elastic Compliance Matrix: (Units=1/GPa)
#
#
# Indices 1 2 3 4 5 6 
#
# 1 0.013919 -0.000165 -0.000304 0.000000 0.000000 0.000000
# 2 -0.000165 0.014664 -0.001922 0.000000 0.000000 0.000000
# 3 -0.000304 -0.001922 0.008110 0.000000 0.000000 0.000000
# 4 0.000000 0.000000 0.000000 0.029823 0.000000 0.000000
# 5 0.000000 0.000000 0.000000 0.000000 0.028882 0.000000
# 6 0.000000 0.000000 0.000000 0.000000 0.000000 0.090220
#
#
# Mechanical properties :
#
#
# Convention : Reuss Voigt Hill
#
# Bulk Modulus (GPa) = 31.33694 34.61283 32.97489
# Shear Modulus (GPa) = 24.87097 32.43365 28.65231
#
# Velocity S-wave (km/s) = 3.26921 3.73332 3.50894
# Velocity P-wave (km/s) = 5.26466 5.78426 5.53056
#
# Compressibility (1/GPa) = 0.03191122
#
# Stress axis : x y z
#
# Youngs Moduli (GPa) = 71.84657 68.19206 123.29796
#
# Poissons Ratio (x) = 0.01125 0.03753
# Poissons Ratio (y) = 0.01185 0.23695
# Poissons Ratio (z) = 0.02187 0.13105
#
# Static dielectric constant tensor:
#      x y z
#    x 4.594060 0.000000 0.000000 
#    y 0.000000 3.940910 0.000000 
#    z 0.000000 0.000000 4.324520 
# 
# 
# High freq. dielectric constant tensor:
#      x y z
#    x 1.931510 0.000000 0.000000 
#    y 0.000000 1.897610 0.000000 
#    z 0.000000 0.000000 1.936150 
# 
# From -- ./inp_files/8795.got.cif
#   From: 2010.03.12/outbox.cif.g09.slc.cpg/sg68_5_cif.got.tgz:8795.got - 2010.04.10 23:14:56.
