data_PCOD8282014
_publ_section_title
;
Structure prediction by ZEFSAII (Michael W. Deem and Ramdas Pophale) SiO2 
 PCOD8282014
Probable space group: C C C A
;
_chemical_formula_sum "Si O2"
_cell_formula_units_Z 92
_cell_length_a 12.501530
_cell_length_b 18.239855
_cell_length_c 22.252381
_cell_angle_alpha 90.000000
_cell_angle_beta 90.000000
_cell_angle_gamma 90.000000
_cell_volume 5074.123532
_symmetry_space_group_name_H-M "C C C A"
_symmetry_group_IT_number 68
_space_group.IT_coordinate_system_code '2'
_symmetry_cell_setting 'orthorhombic'
loop_
_space_group_symop_operation_xyz
x,y,z
-x,1/2-y,z
x,1/2-y,1/2-z
-x,y,1/2-z
-x,-y,-z
x,1/2+y,-z
-x,1/2+y,1/2+z
x,-y,1/2+z
1/2+x,1/2+y,z
1/2-x,-y,z
1/2+x,-y,1/2-z
1/2-x,1/2+y,1/2-z
1/2-x,1/2-y,-z
1/2+x,y,-z
1/2-x,y,1/2+z
1/2+x,1/2-y,1/2+z
loop_
_atom_site_type_symbol
_atom_site_label
_atom_site_fract_x
_atom_site_fract_y
_atom_site_fract_z
Si Si1 0.038875 0.606625 0.013554
Si Si2 0.124776 0.488518 0.926934
Si Si3 0.500000 0.750000 0.053054
Si Si4 0.886419 0.160213 0.150850
Si Si5 0.312797 0.572914 0.622104
Si Si6 0.000000 0.250000 0.250000
Si Si7 0.488985 0.011831 0.820263
O O1 0.131627 0.601160 0.062333
O O2 0.922005 0.585950 0.042174
O O3 0.060286 0.554576 0.957101
O O4 0.047240 0.689140 0.990759
O O5 0.250000 0.500000 0.936564
O O6 0.097317 0.487666 0.855257
O O7 0.408525 0.713381 0.094458
O O8 0.761714 0.136875 0.149908
O O9 0.917951 0.201453 0.211686
O O10 0.955506 0.086570 0.146661
O O11 0.250000 0.500000 0.602807
O O12 0.399939 0.551481 0.672439
O O13 0.500000 0.025573 0.750000
#
# Coordination Sequence:
#
# PCOD8282014 Si02
#       7
#    16  16   8  16  16   4  16
#     4  10  21  37  55  82 117 145 185 231 275 346
#     4  10  21  36  58  83 111 148 187 234 284 331
#     4  11  22  35  54  82 115 150 183 230 280 346
#     4  10  20  36  55  84 113 147 185 227 288 333
#     4   9  20  36  60  82 106 149 185 227 288 334
#     4  10  20  36  56  76 122 140 182 250 270 340
#     4  10  19  37  58  83 111 139 192 239 275 335
#
# _framework density 18.131209999999999
#
# number of rings (size 3 to 8) (size 9 to 14) (size 15 to 20)
#    0.000    2.087    2.609    0.522    4.870    2.783 
#    0.000    0.000    3.826    0.000    0.000    0.000 
#    0.000    0.000    0.000    0.000    0.000    0.000 
#
# Total GULP energy -570129.703084 kJ/mol
# GULP energy per Si atom -12394.123980 kJ/mol
# Density = 1.808994 g / cm^3
# Si number density = 18.131210 Si / 1000 Ang^3
#
#
#
# Elastic Constant Matrix: (Units=GPa)
#
#
# Indices 1 2 3 4 5 6 
#
# 1 118.8495 40.3455 49.2209 0.0000 0.0000 0.0000
# 2 40.3455 96.5253 41.7158 0.0000 0.0000 0.0000
# 3 49.2209 41.7158 106.9330 0.0000 0.0000 0.0000
# 4 0.0000 0.0000 0.0000 30.5097 0.0000 0.0000
# 5 0.0000 0.0000 0.0000 0.0000 17.6637 0.0000
# 6 0.0000 0.0000 0.0000 0.0000 0.0000 27.9305
#
#
#
# Elastic Compliance Matrix: (Units=1/GPa)
#
#
# Indices 1 2 3 4 5 6 
#
# 1 0.011035 -0.002907 -0.003945 0.000000 0.000000 0.000000
# 2 -0.002907 0.013227 -0.003822 0.000000 0.000000 0.000000
# 3 -0.003945 -0.003822 0.012658 0.000000 0.000000 0.000000
# 4 0.000000 0.000000 0.000000 0.032776 0.000000 0.000000
# 5 0.000000 0.000000 0.000000 0.000000 0.056613 0.000000
# 6 0.000000 0.000000 0.000000 0.000000 0.000000 0.035803
#
#
# Mechanical properties :
#
#
# Convention : Reuss Voigt Hill
#
# Bulk Modulus (GPa) = 64.21863 64.98582 64.60223
# Shear Modulus (GPa) = 26.50385 27.95582 27.22984
#
# Velocity S-wave (km/s) = 3.82747 3.93091 3.87954
# Velocity P-wave (km/s) = 7.41812 7.51815 7.46830
#
# Compressibility (1/GPa) = 0.01557181
#
# Stress axis : x y z
#
# Youngs Moduli (GPa) = 90.62245 75.60391 78.99854
#
# Poissons Ratio (x) = 0.21981 0.31166
# Poissons Ratio (y) = 0.26347 0.30191
# Poissons Ratio (z) = 0.35751 0.28894
#
# Static dielectric constant tensor:
#      x y z
#    x 3.250870 0.000000 0.000000 
#    y 0.000000 3.374520 0.000000 
#    z 0.000000 0.000000 3.350700 
# 
# 
# High freq. dielectric constant tensor:
#      x y z
#    x 1.690320 0.000000 0.000000 
#    y 0.000000 1.691870 0.000000 
#    z 0.000000 0.000000 1.708750 
# 
# From -- ./inp_files/38747.got.cif
#   From: 2010.03.12/outbox.cif.g09.slc.cpg/sg68_20_cif.got.tgz:38747.got - 2010.04.10 23:14:56.
