data_PCOD8282374
_publ_section_title
;
Structure prediction by ZEFSAII (Michael W. Deem and Ramdas Pophale) SiO2 
 PCOD8282374
Probable space group: C C C A
;
_chemical_formula_sum "Si O2"
_cell_formula_units_Z 88
_cell_length_a 22.014284
_cell_length_b 8.883734
_cell_length_c 20.316147
_cell_angle_alpha 90.000000
_cell_angle_beta 90.000000
_cell_angle_gamma 90.000000
_cell_volume 3973.209431
_symmetry_space_group_name_H-M "C C C A"
_symmetry_group_IT_number 68
_space_group.IT_coordinate_system_code '2'
_symmetry_cell_setting 'orthorhombic'
loop_
_space_group_symop_operation_xyz
x,y,z
-x,1/2-y,z
x,1/2-y,1/2-z
-x,y,1/2-z
-x,-y,-z
x,1/2+y,-z
-x,1/2+y,1/2+z
x,-y,1/2+z
1/2+x,1/2+y,z
1/2-x,-y,z
1/2+x,-y,1/2-z
1/2-x,1/2+y,1/2-z
1/2-x,1/2-y,-z
1/2+x,y,-z
1/2-x,y,1/2+z
1/2+x,1/2-y,1/2+z
loop_
_atom_site_type_symbol
_atom_site_label
_atom_site_fract_x
_atom_site_fract_y
_atom_site_fract_z
Si Si1 0.566187 0.297198 0.446331
Si Si2 0.738832 0.719028 0.675313
Si Si3 0.750000 0.000000 0.092206
Si Si4 0.107436 0.349136 0.816020
Si Si5 0.629143 0.676367 0.178479
Si Si6 0.877595 0.884403 0.557400
O O1 0.500000 0.250000 0.472749
O O2 0.571919 0.237180 0.372318
O O3 0.615262 0.221671 0.494237
O O4 0.576142 0.475841 0.446936
O O5 0.752160 0.750000 0.750000
O O6 0.678368 0.621957 0.667975
O O7 0.801640 0.642121 0.651920
O O8 0.722337 0.872292 0.638259
O O9 0.692715 0.938034 0.051115
O O10 0.097154 0.250000 0.750000
O O11 0.087335 0.525305 0.814962
O O12 0.627469 0.750000 0.250000
O O13 0.604262 0.794144 0.124025
#
# Coordination Sequence:
#
# PCOD8282374 Si02
#       6
#    16  16   8  16  16  16
#     4  12  26  46  68  90 126 177 227 276 327 397
#     4   9  19  30  60  91 135 169 209 247 329 391
#     4  10  20  40  60 100 136 170 208 280 320 410
#     4  11  22  39  64  95 129 170 222 270 328 391
#     4  10  21  37  63  98 134 171 209 265 329 401
#     4  11  24  44  66  98 131 173 220 270 338 393
#
# _framework density 22.148340999999999
#
# number of rings (size 3 to 8) (size 9 to 14) (size 15 to 20)
#    0.000    1.455    1.818    3.273   12.727    1.091 
#    3.273    0.000    0.000    3.818    0.000    0.000 
#    0.000    0.000    0.000    0.000    0.000    0.000 
#
# Total GULP energy -545165.926684 kJ/mol
# GULP energy per Si atom -12390.134697 kJ/mol
# Density = 2.209793 g / cm^3
# Si number density = 22.148341 Si / 1000 Ang^3
#
#
#
# Elastic Constant Matrix: (Units=GPa)
#
#
# Indices 1 2 3 4 5 6 
#
# 1 52.5641 31.5945 36.8506 0.0000 0.0000 0.0000
# 2 31.5945 145.1358 51.0169 0.0000 0.0000 0.0000
# 3 36.8506 51.0169 118.6099 0.0000 0.0000 0.0000
# 4 0.0000 0.0000 0.0000 16.2715 0.0000 0.0000
# 5 0.0000 0.0000 0.0000 0.0000 14.3315 0.0000
# 6 0.0000 0.0000 0.0000 0.0000 0.0000 25.1577
#
#
#
# Elastic Compliance Matrix: (Units=1/GPa)
#
#
# Indices 1 2 3 4 5 6 
#
# 1 0.025574 -0.003268 -0.006540 0.000000 0.000000 0.000000
# 2 -0.003268 0.008535 -0.002656 0.000000 0.000000 0.000000
# 3 -0.006540 -0.002656 0.011605 0.000000 0.000000 0.000000
# 4 0.000000 0.000000 0.000000 0.061457 0.000000 0.000000
# 5 0.000000 0.000000 0.000000 0.000000 0.069776 0.000000
# 6 0.000000 0.000000 0.000000 0.000000 0.000000 0.039749
#
#
# Mechanical properties :
#
#
# Convention : Reuss Voigt Hill
#
# Bulk Modulus (GPa) = 48.10837 61.69265 54.90051
# Shear Modulus (GPa) = 20.11648 24.27533 22.19590
#
# Velocity S-wave (km/s) = 3.01701 3.31423 3.16911
# Velocity P-wave (km/s) = 5.82276 6.52382 6.18324
#
# Compressibility (1/GPa) = 0.02078640
#
# Stress axis : x y z
#
# Youngs Moduli (GPa) = 39.10290 117.16331 86.16935
#
# Poissons Ratio (x) = 0.38293 0.56351
# Poissons Ratio (y) = 0.12780 0.22884
# Poissons Ratio (z) = 0.25572 0.31115
#
# Static dielectric constant tensor:
#      x y z
#    x 4.500380 0.000000 0.000000 
#    y 0.000000 4.095770 0.000000 
#    z 0.000000 0.000000 3.862180 
# 
# 
# High freq. dielectric constant tensor:
#      x y z
#    x 1.848930 0.000000 0.000000 
#    y 0.000000 1.889340 0.000000 
#    z 0.000000 0.000000 1.864600 
# 
# From -- ./inp_files/46481.got.cif
#   From: 2010.03.12/outbox.cif.g09.slc.cpg/sg68_24_cif.got.tgz:46481.got - 2010.04.10 23:14:56.
