data_PCOD8282204
_publ_section_title
;
Structure prediction by ZEFSAII (Michael W. Deem and Ramdas Pophale) SiO2 
 PCOD8282204
Probable space group: C C C A
;
_chemical_formula_sum "Si O2"
_cell_formula_units_Z 96
_cell_length_a 18.832573
_cell_length_b 27.010678
_cell_length_c 9.584750
_cell_angle_alpha 90.000000
_cell_angle_beta 90.000000
_cell_angle_gamma 90.000000
_cell_volume 4875.576047
_symmetry_space_group_name_H-M "C C C A"
_symmetry_group_IT_number 68
_space_group.IT_coordinate_system_code '2'
_symmetry_cell_setting 'orthorhombic'
loop_
_space_group_symop_operation_xyz
x,y,z
-x,1/2-y,z
x,1/2-y,1/2-z
-x,y,1/2-z
-x,-y,-z
x,1/2+y,-z
-x,1/2+y,1/2+z
x,-y,1/2+z
1/2+x,1/2+y,z
1/2-x,-y,z
1/2+x,-y,1/2-z
1/2-x,1/2+y,1/2-z
1/2-x,1/2-y,-z
1/2+x,y,-z
1/2-x,y,1/2+z
1/2+x,1/2-y,1/2+z
loop_
_atom_site_type_symbol
_atom_site_label
_atom_site_fract_x
_atom_site_fract_y
_atom_site_fract_z
Si Si1 0.553088 0.107871 0.639391
Si Si2 0.443172 0.781693 0.391397
Si Si3 0.297136 0.953182 0.637599
Si Si4 0.715512 0.893640 0.135638
Si Si5 0.459832 0.962301 0.604148
Si Si6 0.711172 0.218353 0.611698
O O1 0.500000 0.080166 0.750000
O O2 0.526479 0.164072 0.635656
O O3 0.634472 0.101836 0.693888
O O4 0.541998 0.088473 0.482660
O O5 0.500000 0.750000 0.484827
O O6 0.434055 0.750000 0.250000
O O7 0.366329 0.787652 0.459122
O O8 0.285088 0.911152 0.523135
O O9 0.270903 0.928187 0.781517
O O10 0.377822 0.974281 0.643377
O O11 0.250000 0.000000 0.599461
O O12 0.742350 0.836590 0.139771
O O13 0.500000 0.955773 0.750000
O O14 0.500000 0.000000 0.500000
O O15 0.711511 0.250000 0.750000
O O16 0.750000 0.250000 0.500000
#
# Coordination Sequence:
#
# PCOD8282204 Si02
#       6
#    16  16  16  16  16  16
#     4  10  20  37  65  91 124 160 203 257 302 361
#     4   9  16  33  59  92 117 155 209 240 282 365
#     4  11  25  42  65  89 125 162 206 256 309 370
#     4  10  23  39  60  93 123 160 207 251 305 370
#     4  11  27  44  63  91 124 161 209 258 315 376
#     4  10  20  36  60  88 122 158 197 248 304 359
#
# _framework density 19.689982000000001
#
# number of rings (size 3 to 8) (size 9 to 14) (size 15 to 20)
#    0.000    1.833    1.667    2.000    9.333    0.000 
#    3.000    0.000    0.000    0.000    0.000    0.000 
#    0.000    0.000    0.000    0.000    0.000    0.000 
#
# Total GULP energy -594633.638424 kJ/mol
# GULP energy per Si atom -12388.200800 kJ/mol
# Density = 1.964517 g / cm^3
# Si number density = 19.689982 Si / 1000 Ang^3
#
#
#
# Elastic Constant Matrix: (Units=GPa)
#
#
# Indices 1 2 3 4 5 6 
#
# 1 127.3806 44.6815 50.1730 0.0000 0.0000 0.0000
# 2 44.6815 107.7272 27.7266 0.0000 0.0000 0.0000
# 3 50.1730 27.7266 91.6291 0.0000 0.0000 0.0000
# 4 0.0000 0.0000 0.0000 24.4025 0.0000 0.0000
# 5 0.0000 0.0000 0.0000 0.0000 29.0186 0.0000
# 6 0.0000 0.0000 0.0000 0.0000 0.0000 32.3980
#
#
#
# Elastic Compliance Matrix: (Units=1/GPa)
#
#
# Indices 1 2 3 4 5 6 
#
# 1 0.010971 -0.003258 -0.005022 0.000000 0.000000 0.000000
# 2 -0.003258 0.011034 -0.001555 0.000000 0.000000 0.000000
# 3 -0.005022 -0.001555 0.014134 0.000000 0.000000 0.000000
# 4 0.000000 0.000000 0.000000 0.040979 0.000000 0.000000
# 5 0.000000 0.000000 0.000000 0.000000 0.034461 0.000000
# 6 0.000000 0.000000 0.000000 0.000000 0.000000 0.030866
#
#
# Mechanical properties :
#
#
# Convention : Reuss Voigt Hill
#
# Bulk Modulus (GPa) = 60.71621 63.54436 62.13029
# Shear Modulus (GPa) = 29.83213 30.77421 30.30317
#
# Velocity S-wave (km/s) = 3.89664 3.95769 3.92728
# Velocity P-wave (km/s) = 7.15179 7.29568 7.22409
#
# Compressibility (1/GPa) = 0.01647007
#
# Stress axis : x y z
#
# Youngs Moduli (GPa) = 91.14737 90.62710 70.75266
#
# Poissons Ratio (x) = 0.29527 0.35529
# Poissons Ratio (y) = 0.29696 0.11001
# Poissons Ratio (z) = 0.45771 0.14092
#
# Static dielectric constant tensor:
#      x y z
#    x 4.735640 0.000000 0.000000 
#    y 0.000000 3.781080 0.000000 
#    z 0.000000 0.000000 3.340240 
# 
# 
# High freq. dielectric constant tensor:
#      x y z
#    x 1.779800 0.000000 0.000000 
#    y 0.000000 1.782440 0.000000 
#    z 0.000000 0.000000 1.741040 
# 
# From -- ./inp_files/7270.got.cif
#   From: 2010.03.12/outbox.cif.g09.slc.cpg/sg68_4_cif.got.tgz:7270.got - 2010.04.10 23:14:56.
