data_PCOD8282781
_publ_section_title
;
Structure prediction by ZEFSAII (Michael W. Deem and Ramdas Pophale) SiO2 
 PCOD8282781
Probable space group: C C C A
;
_chemical_formula_sum "Si O2"
_cell_formula_units_Z 80
_cell_length_a 5.007978
_cell_length_b 23.489574
_cell_length_c 30.815665
_cell_angle_alpha 90.000000
_cell_angle_beta 90.000000
_cell_angle_gamma 90.000000
_cell_volume 3625.009067
_symmetry_space_group_name_H-M "C C C A"
_symmetry_group_IT_number 68
_space_group.IT_coordinate_system_code '2'
_symmetry_cell_setting 'orthorhombic'
loop_
_space_group_symop_operation_xyz
x,y,z
-x,1/2-y,z
x,1/2-y,1/2-z
-x,y,1/2-z
-x,-y,-z
x,1/2+y,-z
-x,1/2+y,1/2+z
x,-y,1/2+z
1/2+x,1/2+y,z
1/2-x,-y,z
1/2+x,-y,1/2-z
1/2-x,1/2+y,1/2-z
1/2-x,1/2-y,-z
1/2+x,y,-z
1/2-x,y,1/2+z
1/2+x,1/2-y,1/2+z
loop_
_atom_site_type_symbol
_atom_site_label
_atom_site_fract_x
_atom_site_fract_y
_atom_site_fract_z
Si Si1 0.982015 0.963834 0.614106
Si Si2 0.248208 0.313234 0.270218
Si Si3 0.738759 0.590197 0.472166
Si Si4 0.621933 0.310344 0.416556
Si Si5 0.120064 0.158505 0.134707
O O1 0.848430 0.948180 0.567959
O O2 0.033488 0.906908 0.642011
O O3 0.750000 0.000000 0.638541
O O4 0.250000 0.000000 0.608032
O O5 0.250381 0.250000 0.250000
O O6 0.500000 0.346315 0.250000
O O7 0.235300 0.312227 0.322063
O O8 0.000000 0.347244 0.250000
O O9 0.537090 0.577186 0.511456
O O10 0.746937 0.656600 0.457270
O O11 0.500000 0.250000 0.430769
O O12 0.367722 0.345163 0.398565
O O13 0.863622 0.304505 0.381499
#
# Coordination Sequence:
#
# PCOD8282781 Si02
#       5
#    16  16  16  16  16
#     4  11  23  41  65  91 120 168 220 263 326 373
#     4  10  22  36  60  95 131 162 190 248 311 374
#     4  11  23  40  60  90 128 159 216 279 320 372
#     4  11  24  38  62  90 126 181 211 247 316 396
#     4  11  23  41  62  93 134 163 211 263 305 381
#
# _framework density 22.068912000000001
#
# number of rings (size 3 to 8) (size 9 to 14) (size 15 to 20)
#    0.000    1.200    0.000    7.800    8.400    3.200 
#    0.000    0.000    0.000    2.400    0.000    0.000 
#    0.000    0.000    0.000    0.000    0.000    0.000 
#
# Total GULP energy -495636.322594 kJ/mol
# GULP energy per Si atom -12390.908065 kJ/mol
# Density = 2.201868 g / cm^3
# Si number density = 22.068912 Si / 1000 Ang^3
#
#
#
# Elastic Constant Matrix: (Units=GPa)
#
#
# Indices 1 2 3 4 5 6 
#
# 1 177.6405 28.5025 20.3735 0.0000 0.0000 0.0000
# 2 28.5025 102.0872 17.0447 0.0000 0.0000 0.0000
# 3 20.3735 17.0447 55.7458 0.0000 0.0000 0.0000
# 4 0.0000 0.0000 0.0000 16.2179 0.0000 0.0000
# 5 0.0000 0.0000 0.0000 0.0000 35.8585 0.0000
# 6 0.0000 0.0000 0.0000 0.0000 0.0000 40.8612
#
#
#
# Elastic Compliance Matrix: (Units=1/GPa)
#
#
# Indices 1 2 3 4 5 6 
#
# 1 0.006058 -0.001393 -0.001788 0.000000 0.000000 0.000000
# 2 -0.001393 0.010643 -0.002745 0.000000 0.000000 0.000000
# 3 -0.001788 -0.002745 0.019431 0.000000 0.000000 0.000000
# 4 0.000000 0.000000 0.000000 0.061660 0.000000 0.000000
# 5 0.000000 0.000000 0.000000 0.000000 0.027887 0.000000
# 6 0.000000 0.000000 0.000000 0.000000 0.000000 0.024473
#
#
# Mechanical properties :
#
#
# Convention : Reuss Voigt Hill
#
# Bulk Modulus (GPa) = 41.18610 51.92388 46.55499
# Shear Modulus (GPa) = 29.39481 36.55770 32.97625
#
# Velocity S-wave (km/s) = 3.65356 4.07446 3.86973
# Velocity P-wave (km/s) = 6.04160 6.76122 6.41152
#
# Compressibility (1/GPa) = 0.02428004
#
# Stress axis : x y z
#
# Youngs Moduli (GPa) = 165.07360 93.96077 51.46311
#
# Poissons Ratio (x) = 0.13087 0.09202
# Poissons Ratio (y) = 0.22992 0.14127
# Poissons Ratio (z) = 0.29517 0.25793
#
# Static dielectric constant tensor:
#      x y z
#    x 4.052540 0.000000 0.000000 
#    y 0.000000 3.900540 0.000000 
#    z 0.000000 0.000000 3.636350 
# 
# 
# High freq. dielectric constant tensor:
#      x y z
#    x 1.910730 0.000000 0.000000 
#    y 0.000000 1.851170 0.000000 
#    z 0.000000 0.000000 1.830820 
# 
# From -- ./inp_files/53175.got.cif
#   From: 2010.03.12/outbox.cif.g09.slc.cpg/sg68_27_cif.got.tgz:53175.got - 2010.04.10 23:14:56.
