data_PCOD8282532
_publ_section_title
;
Structure prediction by ZEFSAII (Michael W. Deem and Ramdas Pophale) SiO2 
 PCOD8282532
Probable space group: C C C A
;
_chemical_formula_sum "Si O2"
_cell_formula_units_Z 116
_cell_length_a 18.523006
_cell_length_b 24.362307
_cell_length_c 12.042205
_cell_angle_alpha 90.000000
_cell_angle_beta 90.000000
_cell_angle_gamma 90.000000
_cell_volume 5434.203466
_symmetry_space_group_name_H-M "C C C A"
_symmetry_group_IT_number 68
_space_group.IT_coordinate_system_code '2'
_symmetry_cell_setting 'orthorhombic'
loop_
_space_group_symop_operation_xyz
x,y,z
-x,1/2-y,z
x,1/2-y,1/2-z
-x,y,1/2-z
-x,-y,-z
x,1/2+y,-z
-x,1/2+y,1/2+z
x,-y,1/2+z
1/2+x,1/2+y,z
1/2-x,-y,z
1/2+x,-y,1/2-z
1/2-x,1/2+y,1/2-z
1/2-x,1/2-y,-z
1/2+x,y,-z
1/2-x,y,1/2+z
1/2+x,1/2-y,1/2+z
loop_
_atom_site_type_symbol
_atom_site_label
_atom_site_fract_x
_atom_site_fract_y
_atom_site_fract_z
Si Si1 0.178937 0.228942 0.559924
Si Si2 0.502624 0.087551 0.565087
Si Si3 0.298432 0.947676 0.600835
Si Si4 0.500000 0.250000 0.750000
Si Si5 0.846851 0.371487 0.416939
Si Si6 0.047869 0.021775 0.650200
Si Si7 0.095545 0.687683 0.932162
Si Si8 0.265880 0.157479 0.701270
O O1 0.250000 0.250000 0.500000
O O2 0.142929 0.175120 0.507897
O O3 0.115052 0.274388 0.541469
O O4 0.204936 0.206174 0.682755
O O5 0.573384 0.112390 0.628425
O O6 0.525845 0.054734 0.457670
O O7 0.449668 0.135860 0.526011
O O8 0.462911 0.044095 0.644037
O O9 0.312307 0.924392 0.476661
O O10 0.368290 0.967181 0.669538
O O11 0.262838 0.903149 0.680065
O O12 0.250000 0.000000 0.581013
O O13 0.552264 0.216053 0.831279
O O14 0.795038 0.343326 0.326135
O O15 0.000000 0.045453 0.750000
O O16 0.171075 0.667326 0.885822
#
# Coordination Sequence:
#
# PCOD8282532 Si02
#       8
#    16  16  16   4  16  16  16  16
#     4   9  20  37  55  83 128 161 196 266 318 375
#     4  10  22  38  64  91 123 167 205 276 322 384
#     4  10  22  40  58  91 124 159 217 269 322 389
#     4  12  24  32  64 108 122 176 210 284 344 386
#     4  10  21  38  59  89 124 162 215 263 319 385
#     4  10  23  43  62  87 130 164 209 264 333 396
#     4  11  20  35  58  92 128 155 218 261 329 394
#     4  10  21  37  60  86 124 169 208 261 324 391
#
# _framework density 21.346274999999999
#
# number of rings (size 3 to 8) (size 9 to 14) (size 15 to 20)
#    0.000    1.931    0.000    3.310    4.828    2.207 
#   12.414    0.000    3.034    0.000    0.000    0.966 
#    0.000    0.000    0.000    0.000    0.000    0.000 
#
# Total GULP energy -718542.874864 kJ/mol
# GULP energy per Si atom -12388.670256 kJ/mol
# Density = 2.129769 g / cm^3
# Si number density = 21.346275 Si / 1000 Ang^3
#
#
#
# Elastic Constant Matrix: (Units=GPa)
#
#
# Indices 1 2 3 4 5 6 
#
# 1 115.7727 62.2456 35.0209 0.0000 0.0000 0.0000
# 2 62.2456 124.9407 23.6123 0.0000 0.0000 0.0000
# 3 35.0209 23.6123 61.1053 0.0000 0.0000 0.0000
# 4 0.0000 0.0000 0.0000 23.5330 0.0000 0.0000
# 5 0.0000 0.0000 0.0000 0.0000 32.9429 0.0000
# 6 0.0000 0.0000 0.0000 0.0000 0.0000 52.4408
#
#
#
# Elastic Compliance Matrix: (Units=1/GPa)
#
#
# Indices 1 2 3 4 5 6 
#
# 1 0.013296 -0.005592 -0.005459 0.000000 0.000000 0.000000
# 2 -0.005592 0.010986 -0.001040 0.000000 0.000000 0.000000
# 3 -0.005459 -0.001040 0.019896 0.000000 0.000000 0.000000
# 4 0.000000 0.000000 0.000000 0.042494 0.000000 0.000000
# 5 0.000000 0.000000 0.000000 0.000000 0.030356 0.000000
# 6 0.000000 0.000000 0.000000 0.000000 0.000000 0.019069
#
#
# Mechanical properties :
#
#
# Convention : Reuss Voigt Hill
#
# Bulk Modulus (GPa) = 50.01321 60.39735 55.20528
# Shear Modulus (GPa) = 29.95007 33.84600 31.89804
#
# Velocity S-wave (km/s) = 3.74981 3.98624 3.86983
# Velocity P-wave (km/s) = 6.49834 7.03863 6.77387
#
# Compressibility (1/GPa) = 0.01999472
#
# Stress axis : x y z
#
# Youngs Moduli (GPa) = 75.21259 91.02112 50.26148
#
# Poissons Ratio (x) = 0.50901 0.27438
# Poissons Ratio (y) = 0.42060 0.05229
# Poissons Ratio (z) = 0.41059 0.09469
#
# Static dielectric constant tensor:
#      x y z
#    x 4.263710 0.000000 0.000000 
#    y 0.000000 4.257410 0.000000 
#    z 0.000000 0.000000 3.688500 
# 
# 
# High freq. dielectric constant tensor:
#      x y z
#    x 1.842320 0.000000 0.000000 
#    y 0.000000 1.858950 0.000000 
#    z 0.000000 0.000000 1.806760 
# 
# From -- ./inp_files/14848.got.cif
#   From: 2010.03.12/outbox.cif.g09.slc.cpg/sg68_8_cif.got.tgz:14848.got - 2010.04.10 23:14:56.
