data_PCOD8282070
_publ_section_title
;
Structure prediction by ZEFSAII (Michael W. Deem and Ramdas Pophale) SiO2 
 PCOD8282070
Probable space group: C C C A
;
_chemical_formula_sum "Si O2"
_cell_formula_units_Z 92
_cell_length_a 20.375972
_cell_length_b 9.417891
_cell_length_c 27.459598
_cell_angle_alpha 90.000000
_cell_angle_beta 90.000000
_cell_angle_gamma 90.000000
_cell_volume 5269.460701
_symmetry_space_group_name_H-M "C C C A"
_symmetry_group_IT_number 68
_space_group.IT_coordinate_system_code '2'
_symmetry_cell_setting 'orthorhombic'
loop_
_space_group_symop_operation_xyz
x,y,z
-x,1/2-y,z
x,1/2-y,1/2-z
-x,y,1/2-z
-x,-y,-z
x,1/2+y,-z
-x,1/2+y,1/2+z
x,-y,1/2+z
1/2+x,1/2+y,z
1/2-x,-y,z
1/2+x,-y,1/2-z
1/2-x,1/2+y,1/2-z
1/2-x,1/2-y,-z
1/2+x,y,-z
1/2-x,y,1/2+z
1/2+x,1/2-y,1/2+z
loop_
_atom_site_type_symbol
_atom_site_label
_atom_site_fract_x
_atom_site_fract_y
_atom_site_fract_z
Si Si1 0.435761 0.177282 0.342960
Si Si2 0.902385 0.570280 0.910103
Si Si3 0.000000 0.750000 0.966848
Si Si4 0.665221 0.353965 0.102311
Si Si5 0.500000 0.750000 0.750000
Si Si6 0.371525 0.664083 0.517390
Si Si7 0.815191 0.669260 0.585960
O O1 0.500000 0.250000 0.368390
O O2 0.373083 0.278396 0.353237
O O3 0.451359 0.158879 0.285130
O O4 0.422367 0.021327 0.363433
O O5 0.862464 0.476115 0.949630
O O6 0.856256 0.699293 0.892773
O O7 0.968649 0.629177 0.933265
O O8 0.054075 0.669939 0.998741
O O9 0.637881 0.303921 0.050158
O O10 0.741417 0.310912 0.104212
O O11 0.655242 0.522814 0.106970
O O12 0.319703 0.664480 0.473069
#
# Coordination Sequence:
#
# PCOD8282070 Si02
#       7
#    16  16   8  16   4  16  16
#     4   9  21  37  59  80  98 130 172 217 277 335
#     4  10  21  31  52  75 106 141 183 225 255 315
#     4  10  20  29  46  71 112 143 180 221 268 298
#     4  10  21  34  53  72 111 146 184 219 259 318
#     4   8  20  38  64  82 100 124 168 210 284 336
#     4  10  20  30  46  71 109 151 194 219 251 299
#     4  10  20  34  49  77 109 152 180 216 259 293
#
# _framework density 17.459091999999998
#
# number of rings (size 3 to 8) (size 9 to 14) (size 15 to 20)
#    0.522    1.739    0.000    3.130    9.739    4.174 
#    0.000    0.000    0.000    8.870    0.000    0.000 
#    0.000    0.000    0.000    0.000    0.000    0.000 
#
# Total GULP energy -570176.374103 kJ/mol
# GULP energy per Si atom -12395.138567 kJ/mol
# Density = 1.741935 g / cm^3
# Si number density = 17.459092 Si / 1000 Ang^3
#
#
#
# Elastic Constant Matrix: (Units=GPa)
#
#
# Indices 1 2 3 4 5 6 
#
# 1 105.9261 63.0100 33.1129 0.0000 0.0000 0.0000
# 2 63.0100 135.0460 48.3770 0.0000 0.0000 0.0000
# 3 33.1129 48.3770 89.3541 0.0000 0.0000 0.0000
# 4 0.0000 0.0000 0.0000 1.3516 0.0000 0.0000
# 5 0.0000 0.0000 0.0000 0.0000 16.6678 0.0000
# 6 0.0000 0.0000 0.0000 0.0000 0.0000 30.9546
#
#
#
# Elastic Compliance Matrix: (Units=1/GPa)
#
#
# Indices 1 2 3 4 5 6 
#
# 1 0.013336 -0.005523 -0.001952 0.000000 0.000000 0.000000
# 2 -0.005523 0.011474 -0.004165 0.000000 0.000000 0.000000
# 3 -0.001952 -0.004165 0.014170 0.000000 0.000000 0.000000
# 4 0.000000 0.000000 0.000000 0.739842 0.000000 0.000000
# 5 0.000000 0.000000 0.000000 0.000000 0.059996 0.000000
# 6 0.000000 0.000000 0.000000 0.000000 0.000000 0.032305
#
#
# Mechanical properties :
#
#
# Convention : Reuss Voigt Hill
#
# Bulk Modulus (GPa) = 63.69689 68.81399 66.25544
# Shear Modulus (GPa) = 5.55780 22.18322 13.87051
#
# Velocity S-wave (km/s) = 1.78612 3.56839 2.82167
# Velocity P-wave (km/s) = 6.38877 7.51518 6.97475
#
# Compressibility (1/GPa) = 0.01569935
#
# Stress axis : x y z
#
# Youngs Moduli (GPa) = 74.98413 87.15313 70.57222
#
# Poissons Ratio (x) = 0.48137 0.13774
# Poissons Ratio (y) = 0.41415 0.29396
# Poissons Ratio (z) = 0.14635 0.36302
#
# Static dielectric constant tensor:
#      x y z
#    x 3.292880 0.000000 0.000000 
#    y 0.000000 3.365170 0.000000 
#    z 0.000000 0.000000 2.820890 
# 
# 
# High freq. dielectric constant tensor:
#      x y z
#    x 1.681600 0.000000 0.000000 
#    y 0.000000 1.684830 0.000000 
#    z 0.000000 0.000000 1.622050 
# 
# From -- ./inp_files/55790.got.cif
#   From: 2010.03.12/outbox.cif.g09.slc.cpg/sg68_28_cif.got.tgz:55790.got - 2010.04.10 23:14:56.
