data_PCOD8282454
_publ_section_title
;
Structure prediction by ZEFSAII (Michael W. Deem and Ramdas Pophale) SiO2 
 PCOD8282454
Probable space group: C C C A
;
_chemical_formula_sum "Si O2"
_cell_formula_units_Z 56
_cell_length_a 14.202797
_cell_length_b 5.035784
_cell_length_c 32.536949
_cell_angle_alpha 90.000000
_cell_angle_beta 90.000000
_cell_angle_gamma 90.000000
_cell_volume 2327.114756
_symmetry_space_group_name_H-M "C C C A"
_symmetry_group_IT_number 68
_space_group.IT_coordinate_system_code '2'
_symmetry_cell_setting 'orthorhombic'
loop_
_space_group_symop_operation_xyz
x,y,z
-x,1/2-y,z
x,1/2-y,1/2-z
-x,y,1/2-z
-x,-y,-z
x,1/2+y,-z
-x,1/2+y,1/2+z
x,-y,1/2+z
1/2+x,1/2+y,z
1/2-x,-y,z
1/2+x,-y,1/2-z
1/2-x,1/2+y,1/2-z
1/2-x,1/2-y,-z
1/2+x,y,-z
1/2-x,y,1/2+z
1/2+x,1/2-y,1/2+z
loop_
_atom_site_type_symbol
_atom_site_label
_atom_site_fract_x
_atom_site_fract_y
_atom_site_fract_z
Si Si1 0.853616 0.425553 0.518907
Si Si2 0.750000 0.000000 0.724399
Si Si3 0.389598 0.740054 0.891079
Si Si4 0.611144 0.737740 0.340675
O O1 0.906917 0.702704 0.508992
O O2 0.750000 0.500000 0.501098
O O3 0.844098 0.343447 0.566174
O O4 0.792794 0.250000 0.750000
O O5 0.665239 0.138439 0.699473
O O6 0.500000 0.750000 0.897672
O O7 0.357392 0.530027 0.855870
O O8 0.640576 0.466456 0.876969
O O9 0.500000 0.750000 0.331040
#
# Coordination Sequence:
#
# PCOD8282454 Si02
#       4
#    16   8  16  16
#     4  10  21  34  51  83 122 161 210 264 319 372
#     4  12  26  44  70 102 130 168 214 262 334 414
#     4  10  21  38  61  87 120 167 215 260 320 380
#     4  10  23  42  64  95 128 164 213 265 320 390
#
# _framework density 24.064131
#
# number of rings (size 3 to 8) (size 9 to 14) (size 15 to 20)
#    0.000    1.714    0.000    3.429    4.000    1.714 
#    0.000    1.429    0.000    0.000    0.000    0.000 
#    0.000    0.000    0.000    0.000    0.000    0.000 
#
# Total GULP energy -346951.435823 kJ/mol
# GULP energy per Si atom -12391.122708 kJ/mol
# Density = 2.400936 g / cm^3
# Si number density = 24.064131 Si / 1000 Ang^3
#
#
#
# Elastic Constant Matrix: (Units=GPa)
#
#
# Indices 1 2 3 4 5 6 
#
# 1 53.2421 31.4314 36.4874 0.0000 0.0000 0.0000
# 2 31.4314 183.9182 48.2399 0.0000 0.0000 0.0000
# 3 36.4874 48.2399 121.5683 0.0000 0.0000 0.0000
# 4 0.0000 0.0000 0.0000 42.3120 0.0000 0.0000
# 5 0.0000 0.0000 0.0000 0.0000 -1.7860 0.0000
# 6 0.0000 0.0000 0.0000 0.0000 0.0000 19.4975
#
#
#
# Elastic Compliance Matrix: (Units=1/GPa)
#
#
# Indices 1 2 3 4 5 6 
#
# 1 0.024663 -0.002537 -0.006395 0.000000 0.000000 0.000000
# 2 -0.002537 0.006330 -0.001750 0.000000 0.000000 0.000000
# 3 -0.006395 -0.001750 0.010840 0.000000 0.000000 0.000000
# 4 0.000000 0.000000 0.000000 0.023634 0.000000 0.000000
# 5 0.000000 0.000000 0.000000 0.000000 -0.559896 0.000000
# 6 0.000000 0.000000 0.000000 0.000000 0.000000 0.051289
#
#
# Mechanical properties :
#
#
# Convention : Reuss Voigt Hill
#
# Bulk Modulus (GPa) = 48.86013 65.67177 57.26595
# Shear Modulus (GPa) = -12.04957 28.17603 8.06323
#
# Velocity S-wave (km/s) = -2.24012 3.42551 1.83248
# Velocity P-wave (km/s) = 3.69559 6.55706 5.32224
#
# Compressibility (1/GPa) = 0.02046658
#
# Stress axis : x y z
#
# Youngs Moduli (GPa) = 40.54671 157.98036 92.25215
#
# Poissons Ratio (x) = 0.40086 0.58999
# Poissons Ratio (y) = 0.10288 0.16146
# Poissons Ratio (z) = 0.25931 0.27650
#
# Static dielectric constant tensor:
#      x y z
#    x 4.109080 0.000000 0.000000 
#    y 0.000000 5.492950 0.000000 
#    z 0.000000 0.000000 4.047630 
# 
# 
# High freq. dielectric constant tensor:
#      x y z
#    x 1.941200 0.000000 0.000000 
#    y 0.000000 1.993450 0.000000 
#    z 0.000000 0.000000 1.938420 
# 
# From -- ./inp_files/55037.got.cif
#   From: 2010.03.12/outbox.cif.g09.slc.cpg/sg68_28_cif.got.tgz:55037.got - 2010.04.10 23:14:56.
