data_PCOD8282294
_publ_section_title
;
Structure prediction by ZEFSAII (Michael W. Deem and Ramdas Pophale) SiO2 
 PCOD8282294
Probable space group: C C C A
;
_chemical_formula_sum "Si O2"
_cell_formula_units_Z 112
_cell_length_a 24.223645
_cell_length_b 15.959139
_cell_length_c 13.960947
_cell_angle_alpha 90.000000
_cell_angle_beta 90.000000
_cell_angle_gamma 90.000000
_cell_volume 5397.141806
_symmetry_space_group_name_H-M "C C C A"
_symmetry_group_IT_number 68
_space_group.IT_coordinate_system_code '2'
_symmetry_cell_setting 'orthorhombic'
loop_
_space_group_symop_operation_xyz
x,y,z
-x,1/2-y,z
x,1/2-y,1/2-z
-x,y,1/2-z
-x,-y,-z
x,1/2+y,-z
-x,1/2+y,1/2+z
x,-y,1/2+z
1/2+x,1/2+y,z
1/2-x,-y,z
1/2+x,-y,1/2-z
1/2-x,1/2+y,1/2-z
1/2-x,1/2-y,-z
1/2+x,y,-z
1/2-x,y,1/2+z
1/2+x,1/2-y,1/2+z
loop_
_atom_site_type_symbol
_atom_site_label
_atom_site_fract_x
_atom_site_fract_y
_atom_site_fract_z
Si Si1 0.846296 0.177934 0.179403
Si Si2 0.605670 0.045607 0.364215
Si Si3 0.944076 0.382411 0.196131
Si Si4 0.435831 0.268797 0.358213
Si Si5 0.808598 0.002312 0.205568
Si Si6 0.689862 0.964884 0.494190
Si Si7 0.877776 0.696442 0.535377
O O1 0.823367 0.250000 0.250000
O O2 0.901475 0.136192 0.220043
O O3 0.806388 0.099661 0.173831
O O4 0.853035 0.215882 0.073098
O O5 0.576145 0.133915 0.377571
O O6 0.557486 0.977620 0.344282
O O7 0.645815 0.037047 0.273344
O O8 0.641754 0.028369 0.459453
O O9 0.930101 0.324053 0.104618
O O10 0.000000 0.360587 0.250000
O O11 0.500000 0.250000 0.375682
O O12 0.417872 0.250000 0.250000
O O13 0.399601 0.209423 0.427555
O O14 0.750000 0.000000 0.259817
O O15 0.811367 0.950856 0.107430
O O16 0.670637 0.873877 0.452758
O O17 0.750000 0.000000 0.459995
#
# Coordination Sequence:
#
# PCOD8282294 Si02
#       7
#    16  16  16  16  16  16  16
#     4   9  19  35  58  87 121 142 191 261 302 345
#     4  10  21  40  60  85 120 158 201 243 301 366
#     4   9  20  35  62  90 113 152 200 249 299 356
#     4  11  25  40  56  81 125 167 200 245 296 362
#     4  10  20  38  62  86 117 157 200 246 299 366
#     4  10  21  40  62  88 119 156 199 250 305 366
#     4  10  21  39  60  90 121 153 201 253 305 356
#
# _framework density 20.751723999999999
#
# number of rings (size 3 to 8) (size 9 to 14) (size 15 to 20)
#    0.000    2.143    0.000    3.000    4.000    2.000 
#    0.000   12.857    0.000    0.000    0.000    0.000 
#    0.000    0.000    0.000    0.000    0.000    0.000 
#
# Total GULP energy -693772.865602 kJ/mol
# GULP energy per Si atom -12388.801171 kJ/mol
# Density = 2.070449 g / cm^3
# Si number density = 20.751724 Si / 1000 Ang^3
#
#
#
# Elastic Constant Matrix: (Units=GPa)
#
#
# Indices 1 2 3 4 5 6 
#
# 1 79.7002 48.6631 35.2051 0.0000 0.0000 0.0000
# 2 48.6631 114.6129 4.6049 0.0000 0.0000 0.0000
# 3 35.2051 4.6049 81.3076 0.0000 0.0000 0.0000
# 4 0.0000 0.0000 0.0000 20.4189 0.0000 0.0000
# 5 0.0000 0.0000 0.0000 0.0000 -15.8892 0.0000
# 6 0.0000 0.0000 0.0000 0.0000 0.0000 21.0256
#
#
#
# Elastic Compliance Matrix: (Units=1/GPa)
#
#
# Indices 1 2 3 4 5 6 
#
# 1 0.022021 -0.008987 -0.009026 0.000000 0.000000 0.000000
# 2 -0.008987 0.012413 0.003188 0.000000 0.000000 0.000000
# 3 -0.009026 0.003188 0.016027 0.000000 0.000000 0.000000
# 4 0.000000 0.000000 0.000000 0.048974 0.000000 0.000000
# 5 0.000000 0.000000 0.000000 0.000000 -0.062936 0.000000
# 6 0.000000 0.000000 0.000000 0.000000 0.000000 0.047561
#
#
# Mechanical properties :
#
#
# Convention : Reuss Voigt Hill
#
# Bulk Modulus (GPa) = 48.05173 50.28520 49.16847
# Shear Modulus (GPa) = 41.44320 17.58757 29.51538
#
# Velocity S-wave (km/s) = 4.47374 2.91438 3.77544
# Velocity P-wave (km/s) = 7.06340 5.96735 6.53838
#
# Compressibility (1/GPa) = 0.02081090
#
# Stress axis : x y z
#
# Youngs Moduli (GPa) = 45.41036 80.56185 62.39662
#
# Poissons Ratio (x) = 0.72404 0.56319
# Poissons Ratio (y) = 0.40812 -0.19894
# Poissons Ratio (z) = 0.40987 -0.25686
#
# Static dielectric constant tensor:
#      x y z
#    x 3.677250 0.000000 0.000000 
#    y 0.000000 3.950670 0.000000 
#    z 0.000000 0.000000 3.837590 
# 
# 
# High freq. dielectric constant tensor:
#      x y z
#    x 1.792190 0.000000 0.000000 
#    y 0.000000 1.818050 0.000000 
#    z 0.000000 0.000000 1.821410 
# 
# From -- ./inp_files/25476.got.cif
#   From: 2010.03.12/outbox.cif.g09.slc.cpg/sg68_13_cif.got.tgz:25476.got - 2010.04.10 23:14:56.
