data_PCOD8282372
_publ_section_title
;
Structure prediction by ZEFSAII (Michael W. Deem and Ramdas Pophale) SiO2 
 PCOD8282372
Probable space group: C C C A
;
_chemical_formula_sum "Si O2"
_cell_formula_units_Z 88
_cell_length_a 22.116438
_cell_length_b 13.761647
_cell_length_c 14.820773
_cell_angle_alpha 90.000000
_cell_angle_beta 90.000000
_cell_angle_gamma 90.000000
_cell_volume 4510.829909
_symmetry_space_group_name_H-M "C C C A"
_symmetry_group_IT_number 68
_space_group.IT_coordinate_system_code '2'
_symmetry_cell_setting 'orthorhombic'
loop_
_space_group_symop_operation_xyz
x,y,z
-x,1/2-y,z
x,1/2-y,1/2-z
-x,y,1/2-z
-x,-y,-z
x,1/2+y,-z
-x,1/2+y,1/2+z
x,-y,1/2+z
1/2+x,1/2+y,z
1/2-x,-y,z
1/2+x,-y,1/2-z
1/2-x,1/2+y,1/2-z
1/2-x,1/2-y,-z
1/2+x,y,-z
1/2-x,y,1/2+z
1/2+x,1/2-y,1/2+z
loop_
_atom_site_type_symbol
_atom_site_label
_atom_site_fract_x
_atom_site_fract_y
_atom_site_fract_z
Si Si1 0.250000 0.000000 0.862118
Si Si2 0.000000 0.250000 0.890055
Si Si3 0.447790 0.443341 0.049590
Si Si4 0.097200 0.750000 0.250000
Si Si5 0.346391 0.490363 0.912708
Si Si6 0.254119 0.636681 0.978671
Si Si7 0.127116 0.541810 0.220349
O O1 0.189889 0.989373 0.802947
O O2 0.241288 0.094022 0.923187
O O3 0.971891 0.333734 0.951393
O O4 0.945841 0.207338 0.828884
O O5 0.428985 0.480002 0.151483
O O6 0.500000 0.500000 0.000000
O O7 0.387721 0.451912 0.992520
O O8 0.137815 0.658872 0.219365
O O9 0.318430 0.596664 0.940041
O O10 0.295069 0.405858 0.907174
O O11 0.385680 0.501122 0.821105
O O12 0.250000 0.750000 0.000000
#
# Coordination Sequence:
#
# PCOD8282372 Si02
#       7
#     8   8  16   8  16  16  16
#     4  10  20  40  58  90 122 156 196 248 296 368
#     4   9  20  38  58  91 112 152 214 245 304 371
#     4  11  22  39  62  84 120 160 194 257 309 357
#     4   9  20  34  62  90 114 154 200 261 302 362
#     4  10  22  39  59  92 120 160 202 254 301 363
#     4  10  21  39  63  88 125 165 202 242 308 370
#     4  11  21  39  60  90 124 150 207 248 307 366
#
# _framework density 19.508606
#
# number of rings (size 3 to 8) (size 9 to 14) (size 15 to 20)
#    0.000    2.000    3.636    2.182    2.545    3.636 
#    0.000    0.000    0.000    1.091    0.000    0.000 
#    0.000    0.000    0.000    0.000    0.000    0.000 
#
# Total GULP energy -545095.903278 kJ/mol
# GULP energy per Si atom -12388.543256 kJ/mol
# Density = 1.946420 g / cm^3
# Si number density = 19.508606 Si / 1000 Ang^3
#
#
#
# Elastic Constant Matrix: (Units=GPa)
#
#
# Indices 1 2 3 4 5 6 
#
# 1 90.9192 45.3526 38.4511 0.0000 0.0000 0.0000
# 2 45.3526 131.0584 49.5913 0.0000 0.0000 0.0000
# 3 38.4511 49.5913 117.6375 0.0000 0.0000 0.0000
# 4 0.0000 0.0000 0.0000 20.0896 0.0000 0.0000
# 5 0.0000 0.0000 0.0000 0.0000 31.3312 0.0000
# 6 0.0000 0.0000 0.0000 0.0000 0.0000 25.6355
#
#
#
# Elastic Compliance Matrix: (Units=1/GPa)
#
#
# Indices 1 2 3 4 5 6 
#
# 1 0.014156 -0.003745 -0.003048 0.000000 0.000000 0.000000
# 2 -0.003745 0.010069 -0.003021 0.000000 0.000000 0.000000
# 3 -0.003048 -0.003021 0.010770 0.000000 0.000000 0.000000
# 4 0.000000 0.000000 0.000000 0.049777 0.000000 0.000000
# 5 0.000000 0.000000 0.000000 0.000000 0.031917 0.000000
# 6 0.000000 0.000000 0.000000 0.000000 0.000000 0.039008
#
#
# Mechanical properties :
#
#
# Convention : Reuss Voigt Hill
#
# Bulk Modulus (GPa) = 65.07223 67.37834 66.22528
# Shear Modulus (GPa) = 27.70865 29.15926 28.43396
#
# Velocity S-wave (km/s) = 3.77281 3.87031 3.82187
# Velocity P-wave (km/s) = 7.23926 7.38818 7.31410
#
# Compressibility (1/GPa) = 0.01536754
#
# Stress axis : x y z
#
# Youngs Moduli (GPa) = 70.64065 99.31269 92.84707
#
# Poissons Ratio (x) = 0.37196 0.28302
# Poissons Ratio (y) = 0.26457 0.28045
# Poissons Ratio (z) = 0.21533 0.29998
#
# Static dielectric constant tensor:
#      x y z
#    x 3.767800 0.000000 0.000000 
#    y 0.000000 3.357110 0.000000 
#    z 0.000000 0.000000 3.426220 
# 
# 
# High freq. dielectric constant tensor:
#      x y z
#    x 1.762760 0.000000 0.000000 
#    y 0.000000 1.735750 0.000000 
#    z 0.000000 0.000000 1.763500 
# 
# From -- ./inp_files/22512.got.cif
#   From: 2010.03.12/outbox.cif.g09.slc.cpg/sg68_12_cif.got.tgz:22512.got - 2010.04.10 23:14:56.
