data_PCOD8282121
_publ_section_title
;
Structure prediction by ZEFSAII (Michael W. Deem and Ramdas Pophale) SiO2 
 PCOD8282121
Probable space group: C C C A
;
_chemical_formula_sum "Si O2"
_cell_formula_units_Z 72
_cell_length_a 7.245184
_cell_length_b 22.676249
_cell_length_c 21.505661
_cell_angle_alpha 90.000000
_cell_angle_beta 90.000000
_cell_angle_gamma 90.000000
_cell_volume 3533.242389
_symmetry_space_group_name_H-M "C C C A"
_symmetry_group_IT_number 68
_space_group.IT_coordinate_system_code '2'
_symmetry_cell_setting 'orthorhombic'
loop_
_space_group_symop_operation_xyz
x,y,z
-x,1/2-y,z
x,1/2-y,1/2-z
-x,y,1/2-z
-x,-y,-z
x,1/2+y,-z
-x,1/2+y,1/2+z
x,-y,1/2+z
1/2+x,1/2+y,z
1/2-x,-y,z
1/2+x,-y,1/2-z
1/2-x,1/2+y,1/2-z
1/2-x,1/2-y,-z
1/2+x,y,-z
1/2-x,y,1/2+z
1/2+x,1/2-y,1/2+z
loop_
_atom_site_type_symbol
_atom_site_label
_atom_site_fract_x
_atom_site_fract_y
_atom_site_fract_z
Si Si1 0.250000 0.500000 0.892127
Si Si2 0.706649 0.363172 0.412190
Si Si3 0.789243 0.260081 0.071213
Si Si4 0.624681 0.882827 0.448810
Si Si5 0.920576 0.457311 0.815198
O O1 0.269920 0.443265 0.935800
O O2 0.429392 0.503118 0.849751
O O3 0.677942 0.292938 0.394132
O O4 0.601604 0.376383 0.476840
O O5 0.626851 0.400265 0.355648
O O6 0.920887 0.380524 0.420268
O O7 0.749862 0.329854 0.083041
O O8 0.000000 0.250000 0.087793
O O9 0.750000 0.250000 0.000000
O O10 0.750000 0.500000 0.802695
O O11 0.000000 0.433784 0.750000
#
# Coordination Sequence:
#
# PCOD8282121 Si02
#       5
#     8  16  16  16  16
#     4  12  24  38  62  92 124 160 200 260 316 378
#     4  10  20  36  60  90 126 165 205 255 311 377
#     4   8  16  32  54  85 125 162 191 234 300 365
#     4  10  20  34  59  96 131 160 197 253 322 382
#     4  12  25  43  62  87 118 165 217 260 307 368
#
# _framework density 20.377882
#
# number of rings (size 3 to 8) (size 9 to 14) (size 15 to 20)
#    0.000    1.778    3.333    1.333    1.556    3.556 
#    0.000    0.000    0.000    2.667    0.000    6.222 
#    0.000    0.000    0.000    0.000    0.000    0.000 
#
# Total GULP energy -446002.255237 kJ/mol
# GULP energy per Si atom -12388.951534 kJ/mol
# Density = 2.033150 g / cm^3
# Si number density = 20.377882 Si / 1000 Ang^3
#
#
#
# Elastic Constant Matrix: (Units=GPa)
#
#
# Indices 1 2 3 4 5 6 
#
# 1 62.5273 46.7683 37.2835 0.0000 0.0000 0.0000
# 2 46.7683 204.4447 72.1906 0.0000 0.0000 0.0000
# 3 37.2835 72.1906 105.5773 0.0000 0.0000 0.0000
# 4 0.0000 0.0000 0.0000 4.3978 0.0000 0.0000
# 5 0.0000 0.0000 0.0000 0.0000 28.7086 0.0000
# 6 0.0000 0.0000 0.0000 0.0000 0.0000 30.6615
#
#
#
# Elastic Compliance Matrix: (Units=1/GPa)
#
#
# Indices 1 2 3 4 5 6 
#
# 1 0.021532 -0.002954 -0.005584 0.000000 0.000000 0.000000
# 2 -0.002954 0.006853 -0.003643 0.000000 0.000000 0.000000
# 3 -0.005584 -0.003643 0.013935 0.000000 0.000000 0.000000
# 4 0.000000 0.000000 0.000000 0.227388 0.000000 0.000000
# 5 0.000000 0.000000 0.000000 0.000000 0.034833 0.000000
# 6 0.000000 0.000000 0.000000 0.000000 0.000000 0.032614
#
#
# Mechanical properties :
#
#
# Convention : Reuss Voigt Hill
#
# Bulk Modulus (GPa) = 55.68477 76.11493 65.89985
# Shear Modulus (GPa) = 13.60531 27.17402 20.38967
#
# Velocity S-wave (km/s) = 2.58670 3.65568 3.16662
# Velocity P-wave (km/s) = 6.02551 7.43313 6.76603
#
# Compressibility (1/GPa) = 0.01795823
#
# Stress axis : x y z
#
# Youngs Moduli (GPa) = 46.44245 145.91327 71.76347
#
# Poissons Ratio (x) = 0.43101 0.40073
# Poissons Ratio (y) = 0.13718 0.26144
# Poissons Ratio (z) = 0.25934 0.53156
#
# Static dielectric constant tensor:
#      x y z
#    x 3.940930 0.000000 0.000000 
#    y 0.000000 4.335170 0.000000 
#    z 0.000000 0.000000 3.283220 
# 
# 
# High freq. dielectric constant tensor:
#      x y z
#    x 1.814320 0.000000 0.000000 
#    y 0.000000 1.818900 0.000000 
#    z 0.000000 0.000000 1.737170 
# 
# From -- ./inp_files/33437.got.cif
#   From: 2010.03.12/outbox.cif.g09.slc.cpg/sg68_17_cif.got.tgz:33437.got - 2010.04.10 23:14:56.
