data_PCOD8282667
_publ_section_title
;
Structure prediction by ZEFSAII (Michael W. Deem and Ramdas Pophale) SiO2 
 PCOD8282667
Probable space group: C C C A
;
_chemical_formula_sum "Si O2"
_cell_formula_units_Z 120
_cell_length_a 27.576143
_cell_length_b 19.322949
_cell_length_c 11.020549
_cell_angle_alpha 90.000000
_cell_angle_beta 90.000000
_cell_angle_gamma 90.000000
_cell_volume 5872.326037
_symmetry_space_group_name_H-M "C C C A"
_symmetry_group_IT_number 68
_space_group.IT_coordinate_system_code '2'
_symmetry_cell_setting 'orthorhombic'
loop_
_space_group_symop_operation_xyz
x,y,z
-x,1/2-y,z
x,1/2-y,1/2-z
-x,y,1/2-z
-x,-y,-z
x,1/2+y,-z
-x,1/2+y,1/2+z
x,-y,1/2+z
1/2+x,1/2+y,z
1/2-x,-y,z
1/2+x,-y,1/2-z
1/2-x,1/2+y,1/2-z
1/2-x,1/2-y,-z
1/2+x,y,-z
1/2-x,y,1/2+z
1/2+x,1/2-y,1/2+z
loop_
_atom_site_type_symbol
_atom_site_label
_atom_site_fract_x
_atom_site_fract_y
_atom_site_fract_z
Si Si1 0.459898 0.810237 0.438440
Si Si2 0.113261 0.250000 0.250000
Si Si3 0.444877 0.175242 0.211096
Si Si4 0.767669 0.423777 0.109270
Si Si5 0.453065 0.948622 0.311506
Si Si6 0.390551 0.427694 0.122371
Si Si7 0.278572 0.428749 0.154273
Si Si8 0.127406 0.387359 0.361845
O O1 0.500000 0.750000 0.445283
O O2 0.417703 0.781837 0.356832
O O3 0.438905 0.829466 0.568046
O O4 0.477171 0.883809 0.383842
O O5 0.143570 0.311566 0.311948
O O6 0.425522 0.250000 0.250000
O O7 0.500000 0.163504 0.250000
O O8 0.411216 0.116970 0.267782
O O9 0.750000 0.500000 0.081630
O O10 0.737080 0.387493 0.220306
O O11 0.823835 0.431642 0.146430
O O12 0.764122 0.388462 0.972729
O O13 0.500000 0.985348 0.250000
O O14 0.414661 0.922188 0.214184
O O15 0.424053 0.003692 0.394725
O O16 0.335420 0.446448 0.155313
O O17 0.392685 0.383067 0.999218
O O18 0.250000 0.500000 0.169044
#
# Coordination Sequence:
#
# PCOD8282667 Si02
#       8
#    16   8  16  16  16  16  16  16
#     4  11  21  40  62  88 119 172 226 256 307 380
#     4  10  21  40  62  90 118 164 224 264 305 380
#     4  11  23  40  63  87 123 174 219 262 317 389
#     4   9  17  34  59  87 115 154 203 254 320 384
#     4  11  24  36  57  92 127 166 208 266 314 368
#     4  11  24  40  61  93 132 164 210 271 332 374
#     4   9  18  36  60  87 120 159 203 255 322 398
#     4  10  22  39  62  87 127 165 207 264 317 384
#
# _framework density 20.434832
#
# number of rings (size 3 to 8) (size 9 to 14) (size 15 to 20)
#    0.000    1.733    1.333    4.600    3.733    0.533 
#    4.800    0.000    1.467    1.600    0.000    0.000 
#    0.000    0.000    0.000    0.000    0.000    0.000 
#
# Total GULP energy -743346.945958 kJ/mol
# GULP energy per Si atom -12389.115766 kJ/mol
# Density = 2.038832 g / cm^3
# Si number density = 20.434832 Si / 1000 Ang^3
#
#
#
# Elastic Constant Matrix: (Units=GPa)
#
#
# Indices 1 2 3 4 5 6 
#
# 1 89.8325 49.5229 37.0616 0.0000 0.0000 0.0000
# 2 49.5229 88.5579 37.2800 0.0000 0.0000 0.0000
# 3 37.0616 37.2800 156.1354 0.0000 0.0000 0.0000
# 4 0.0000 0.0000 0.0000 39.6494 0.0000 0.0000
# 5 0.0000 0.0000 0.0000 0.0000 30.3579 0.0000
# 6 0.0000 0.0000 0.0000 0.0000 0.0000 15.5819
#
#
#
# Elastic Compliance Matrix: (Units=1/GPa)
#
#
# Indices 1 2 3 4 5 6 
#
# 1 0.016593 -0.008473 -0.001916 0.000000 0.000000 0.000000
# 2 -0.008473 0.016880 -0.002019 0.000000 0.000000 0.000000
# 3 -0.001916 -0.002019 0.007342 0.000000 0.000000 0.000000
# 4 0.000000 0.000000 0.000000 0.025221 0.000000 0.000000
# 5 0.000000 0.000000 0.000000 0.000000 0.032940 0.000000
# 6 0.000000 0.000000 0.000000 0.000000 0.000000 0.064177
#
#
# Mechanical properties :
#
#
# Convention : Reuss Voigt Hill
#
# Bulk Modulus (GPa) = 62.50191 64.69499 63.59845
# Shear Modulus (GPa) = 25.86633 31.16191 28.51412
#
# Velocity S-wave (km/s) = 3.56166 3.90929 3.73952
# Velocity P-wave (km/s) = 6.89683 7.21835 7.05942
#
# Compressibility (1/GPa) = 0.01599951
#
# Stress axis : x y z
#
# Youngs Moduli (GPa) = 60.26659 59.24132 136.21086
#
# Poissons Ratio (x) = 0.50193 0.26093
# Poissons Ratio (y) = 0.51061 0.27505
# Poissons Ratio (z) = 0.11545 0.11963
#
# Static dielectric constant tensor:
#      x y z
#    x 3.643710 0.000000 0.000000 
#    y 0.000000 4.595980 0.000000 
#    z 0.000000 0.000000 4.458980 
# 
# 
# High freq. dielectric constant tensor:
#      x y z
#    x 1.790890 0.000000 0.000000 
#    y 0.000000 1.767540 0.000000 
#    z 0.000000 0.000000 1.825890 
# 
# From -- ./inp_files/16627.got.cif
#   From: 2010.03.12/outbox.cif.g09.slc.cpg/sg68_9_cif.got.tgz:16627.got - 2010.04.10 23:14:56.
