data_PCOD8282343
_publ_section_title
;
Structure prediction by ZEFSAII (Michael W. Deem and Ramdas Pophale) SiO2 
 PCOD8282343
Probable space group: C C C A
;
_chemical_formula_sum "Si O2"
_cell_formula_units_Z 52
_cell_length_a 5.393209
_cell_length_b 18.973835
_cell_length_c 22.538897
_cell_angle_alpha 90.000000
_cell_angle_beta 90.000000
_cell_angle_gamma 90.000000
_cell_volume 2306.402122
_symmetry_space_group_name_H-M "C C C A"
_symmetry_group_IT_number 68
_space_group.IT_coordinate_system_code '2'
_symmetry_cell_setting 'orthorhombic'
loop_
_space_group_symop_operation_xyz
x,y,z
-x,1/2-y,z
x,1/2-y,1/2-z
-x,y,1/2-z
-x,-y,-z
x,1/2+y,-z
-x,1/2+y,1/2+z
x,-y,1/2+z
1/2+x,1/2+y,z
1/2-x,-y,z
1/2+x,-y,1/2-z
1/2-x,1/2+y,1/2-z
1/2-x,1/2-y,-z
1/2+x,y,-z
1/2-x,y,1/2+z
1/2+x,1/2-y,1/2+z
loop_
_atom_site_type_symbol
_atom_site_label
_atom_site_fract_x
_atom_site_fract_y
_atom_site_fract_z
Si Si1 0.500000 0.750000 0.750000
Si Si2 0.282620 0.328837 0.023918
Si Si3 0.167428 0.816694 0.846566
Si Si4 0.000751 0.465897 0.319237
O O1 0.339854 0.802553 0.790078
O O2 0.329080 0.330994 0.094614
O O3 0.250000 0.250000 0.000000
O O4 0.521137 0.366931 0.993445
O O5 0.992464 0.882596 0.831646
O O6 0.000000 0.750000 0.860595
O O7 0.750000 0.500000 0.347517
O O8 0.000000 0.482762 0.250000
O O9 0.250000 0.500000 0.347634
#
# Coordination Sequence:
#
# PCOD8282343 Si02
#       4
#     4  16  16  16
#     4  12  26  36  64 114 136 168 220 306 354 388
#     4  10  20  39  62  95 124 175 220 273 329 402
#     4  12  25  40  69 100 138 170 230 290 336 405
#     4  10  24  43  63  89 134 185 217 259 337 420
#
# _framework density 22.545936999999999
#
# number of rings (size 3 to 8) (size 9 to 14) (size 15 to 20)
#    0.000    1.231    3.077    4.154   10.769    0.000 
#    0.000    0.000    0.000    5.538    0.000    0.000 
#    0.000    0.000    0.000    0.000    0.000    0.000 
#
# Total GULP energy -322356.429279 kJ/mol
# GULP energy per Si atom -12398.324203 kJ/mol
# Density = 2.249462 g / cm^3
# Si number density = 22.545937 Si / 1000 Ang^3
#
#
#
# Elastic Constant Matrix: (Units=GPa)
#
#
# Indices 1 2 3 4 5 6 
#
# 1 193.9780 56.3677 53.5331 0.0000 0.0000 0.0000
# 2 56.3677 112.8760 9.0620 0.0000 0.0000 0.0000
# 3 53.5331 9.0620 136.0985 0.0000 0.0000 0.0000
# 4 0.0000 0.0000 0.0000 -8.4932 0.0000 0.0000
# 5 0.0000 0.0000 0.0000 0.0000 45.9857 0.0000
# 6 0.0000 0.0000 0.0000 0.0000 0.0000 36.6950
#
#
#
# Elastic Compliance Matrix: (Units=1/GPa)
#
#
# Indices 1 2 3 4 5 6 
#
# 1 0.006753 -0.003176 -0.002445 0.000000 0.000000 0.000000
# 2 -0.003176 0.010401 0.000557 0.000000 0.000000 0.000000
# 3 -0.002445 0.000557 0.008272 0.000000 0.000000 0.000000
# 4 0.000000 0.000000 0.000000 -0.117742 0.000000 0.000000
# 5 0.000000 0.000000 0.000000 0.000000 0.021746 0.000000
# 6 0.000000 0.000000 0.000000 0.000000 0.000000 0.027252
#
#
# Mechanical properties :
#
#
# Convention : Reuss Voigt Hill
#
# Bulk Modulus (GPa) = 65.36926 75.65310 70.51118
# Shear Modulus (GPa) = -177.98978 36.43681 -70.77648
#
# Velocity S-wave (km/s) = -8.89476 4.02445 -5.60895
# Velocity P-wave (km/s) = 8.74256 7.43121 3.25648
#
# Compressibility (1/GPa) = 0.01529771
#
# Stress axis : x y z
#
# Youngs Moduli (GPa) = 148.08723 96.14865 120.88767
#
# Poissons Ratio (x) = 0.30536 0.29553
# Poissons Ratio (y) = 0.47031 -0.06730
# Poissons Ratio (z) = 0.36203 -0.05353
#
# Static dielectric constant tensor:
#      x y z
#    x 7.066010 0.000000 0.000000 
#    y 0.000000 3.607510 0.000000 
#    z 0.000000 0.000000 4.015930 
# 
# 
# High freq. dielectric constant tensor:
#      x y z
#    x 1.908470 0.000000 0.000000 
#    y 0.000000 1.844170 0.000000 
#    z 0.000000 0.000000 1.878890 
# 
# From -- ./inp_files/34812.got.cif
#   From: 2010.03.12/outbox.cif.g09.slc.cpg/sg68_18_cif.got.tgz:34812.got - 2010.04.10 23:14:56.
