data_PCOD8282241
_publ_section_title
;
Structure prediction by ZEFSAII (Michael W. Deem and Ramdas Pophale) SiO2 
 PCOD8282241
Probable space group: C C C A
;
_chemical_formula_sum "Si O2"
_cell_formula_units_Z 88
_cell_length_a 17.062442
_cell_length_b 15.898589
_cell_length_c 16.370921
_cell_angle_alpha 90.000000
_cell_angle_beta 90.000000
_cell_angle_gamma 90.000000
_cell_volume 4440.919320
_symmetry_space_group_name_H-M "C C C A"
_symmetry_group_IT_number 68
_space_group.IT_coordinate_system_code '2'
_symmetry_cell_setting 'orthorhombic'
loop_
_space_group_symop_operation_xyz
x,y,z
-x,1/2-y,z
x,1/2-y,1/2-z
-x,y,1/2-z
-x,-y,-z
x,1/2+y,-z
-x,1/2+y,1/2+z
x,-y,1/2+z
1/2+x,1/2+y,z
1/2-x,-y,z
1/2+x,-y,1/2-z
1/2-x,1/2+y,1/2-z
1/2-x,1/2-y,-z
1/2+x,y,-z
1/2-x,y,1/2+z
1/2+x,1/2-y,1/2+z
loop_
_atom_site_type_symbol
_atom_site_label
_atom_site_fract_x
_atom_site_fract_y
_atom_site_fract_z
Si Si1 0.000000 0.750000 0.541642
Si Si2 0.697287 0.256768 0.156845
Si Si3 0.128883 0.799842 0.831895
Si Si4 0.612641 0.634354 0.958078
Si Si5 0.166281 0.533457 0.608074
Si Si6 0.238170 0.592084 0.444813
O O1 0.073095 0.724647 0.595428
O O2 0.028266 0.832610 0.490690
O O3 0.670952 0.250000 0.250000
O O4 0.783424 0.221218 0.143115
O O5 0.635437 0.204127 0.107075
O O6 0.696303 0.352375 0.124202
O O7 0.103229 0.750000 0.750000
O O8 0.127243 0.902771 0.825464
O O9 0.607169 0.543680 0.912438
O O10 0.677069 0.630157 0.030383
O O11 0.250000 0.500000 0.642149
O O12 0.183345 0.585493 0.524851
O O13 0.250000 0.500000 0.405736
#
# Coordination Sequence:
#
# PCOD8282241 Si02
#       6
#     8  16  16  16  16  16
#     4  12  23  36  63  86 122 170 202 238 303 374
#     4  11  20  36  58  86 118 154 201 255 305 349
#     4  11  22  37  58  92 126 159 192 251 316 366
#     4  10  20  37  60  89 114 161 204 244 295 352
#     4   9  18  37  63  89 118 151 206 262 288 344
#     4   9  17  34  56  86 117 146 205 251 288 345
#
# _framework density 19.815715999999998
#
# number of rings (size 3 to 8) (size 9 to 14) (size 15 to 20)
#    0.000    2.182    5.455    1.909    0.000    0.727 
#    6.545    0.455    0.000    2.182    0.000    0.000 
#    0.000    0.000    0.000    0.000    0.000    0.000 
#
# Total GULP energy -545250.904649 kJ/mol
# GULP energy per Si atom -12392.066015 kJ/mol
# Density = 1.977062 g / cm^3
# Si number density = 19.815716 Si / 1000 Ang^3
#
#
#
# Elastic Constant Matrix: (Units=GPa)
#
#
# Indices 1 2 3 4 5 6 
#
# 1 40.8464 19.0488 24.5560 0.0000 0.0000 0.0000
# 2 19.0488 163.9847 70.4177 0.0000 0.0000 0.0000
# 3 24.5560 70.4177 84.6603 0.0000 0.0000 0.0000
# 4 0.0000 0.0000 0.0000 136.0989 0.0000 0.0000
# 5 0.0000 0.0000 0.0000 0.0000 68.1029 0.0000
# 6 0.0000 0.0000 0.0000 0.0000 0.0000 30.1967
#
#
#
# Elastic Compliance Matrix: (Units=1/GPa)
#
#
# Indices 1 2 3 4 5 6 
#
# 1 0.029668 0.000387 -0.008928 0.000000 0.000000 0.000000
# 2 0.000387 0.009492 -0.008007 0.000000 0.000000 0.000000
# 3 -0.008928 -0.008007 0.021061 0.000000 0.000000 0.000000
# 4 0.000000 0.000000 0.000000 0.007348 0.000000 0.000000
# 5 0.000000 0.000000 0.000000 0.000000 0.014684 0.000000
# 6 0.000000 0.000000 0.000000 0.000000 0.000000 0.033116
#
#
# Mechanical properties :
#
#
# Convention : Reuss Voigt Hill
#
# Bulk Modulus (GPa) = 36.86410 57.50404 47.18407
# Shear Modulus (GPa) = 31.74489 58.57764 45.16126
#
# Velocity S-wave (km/s) = 4.00685 5.44292 4.77913
# Velocity P-wave (km/s) = 6.32853 8.28148 7.36998
#
# Compressibility (1/GPa) = 0.02712666
#
# Stress axis : x y z
#
# Youngs Moduli (GPa) = 33.70587 105.35732 47.48020
#
# Poissons Ratio (x) = -0.04081 0.42388
# Poissons Ratio (y) = -0.01305 0.38018
# Poissons Ratio (z) = 0.30091 0.84360
#
# Static dielectric constant tensor:
#      x y z
#    x 3.318500 0.000000 0.000000 
#    y 0.000000 4.274290 0.000000 
#    z 0.000000 0.000000 3.434810 
# 
# 
# High freq. dielectric constant tensor:
#      x y z
#    x 1.737920 0.000000 0.000000 
#    y 0.000000 1.791980 0.000000 
#    z 0.000000 0.000000 1.747880 
# 
# From -- ./inp_files/23602.got.cif
#   From: 2010.03.12/outbox.cif.g09.slc.cpg/sg68_12_cif.got.tgz:23602.got - 2010.04.10 23:14:56.
