data_PCOD8282782
_publ_section_title
;
Structure prediction by ZEFSAII (Michael W. Deem and Ramdas Pophale) SiO2 
 PCOD8282782
Probable space group: C C C A
;
_chemical_formula_sum "Si O2"
_cell_formula_units_Z 72
_cell_length_a 9.407240
_cell_length_b 20.792572
_cell_length_c 17.320515
_cell_angle_alpha 90.000000
_cell_angle_beta 90.000000
_cell_angle_gamma 90.000000
_cell_volume 3387.905119
_symmetry_space_group_name_H-M "C C C A"
_symmetry_group_IT_number 68
_space_group.IT_coordinate_system_code '2'
_symmetry_cell_setting 'orthorhombic'
loop_
_space_group_symop_operation_xyz
x,y,z
-x,1/2-y,z
x,1/2-y,1/2-z
-x,y,1/2-z
-x,-y,-z
x,1/2+y,-z
-x,1/2+y,1/2+z
x,-y,1/2+z
1/2+x,1/2+y,z
1/2-x,-y,z
1/2+x,-y,1/2-z
1/2-x,1/2+y,1/2-z
1/2-x,1/2-y,-z
1/2+x,y,-z
1/2-x,y,1/2+z
1/2+x,1/2-y,1/2+z
loop_
_atom_site_type_symbol
_atom_site_label
_atom_site_fract_x
_atom_site_fract_y
_atom_site_fract_z
Si Si1 0.750000 0.500000 0.157100
Si Si2 0.164630 0.874348 0.251266
Si Si3 0.443921 0.083530 0.554608
Si Si4 0.583133 0.682913 0.181064
Si Si5 0.257737 0.428494 0.091159
O O1 0.810738 0.557920 0.208172
O O2 0.619929 0.524220 0.103654
O O3 0.252352 0.816299 0.209931
O O4 0.220794 0.879060 0.339062
O O5 0.000000 0.855521 0.250000
O O6 0.414298 0.150149 0.598190
O O7 0.384057 0.083751 0.468740
O O8 0.612231 0.080309 0.544428
O O9 0.500000 0.750000 0.173592
O O10 0.500000 0.643267 0.250000
O O11 0.250000 0.500000 0.125945
#
# Coordination Sequence:
#
# PCOD8282782 Si02
#       5
#     8  16  16  16  16
#     4  10  22  36  62 100 138 178 220 258 344 402
#     4  11  23  38  68  99 131 173 232 276 325 404
#     4  11  24  39  61  97 135 179 207 269 335 411
#     4  10  22  46  71  85 121 175 228 277 334 376
#     4  12  23  38  60  97 142 172 206 265 346 409
#
# _framework density 21.252071000000001
#
# number of rings (size 3 to 8) (size 9 to 14) (size 15 to 20)
#    0.000    1.111    4.444    2.000    6.222    0.000 
#    0.000    3.333    0.000    0.000    0.000    0.000 
#    0.000    0.000    0.000    0.000    0.000    0.000 
#
# Total GULP energy -446174.532027 kJ/mol
# GULP energy per Si atom -12393.737001 kJ/mol
# Density = 2.120370 g / cm^3
# Si number density = 21.252071 Si / 1000 Ang^3
#
#
#
# Elastic Constant Matrix: (Units=GPa)
#
#
# Indices 1 2 3 4 5 6 
#
# 1 153.9068 42.9630 12.8049 0.0000 0.0000 0.0000
# 2 42.9630 92.5363 35.1294 0.0000 0.0000 0.0000
# 3 12.8049 35.1294 78.9143 0.0000 0.0000 0.0000
# 4 0.0000 0.0000 0.0000 12.2968 0.0000 0.0000
# 5 0.0000 0.0000 0.0000 0.0000 3.3314 0.0000
# 6 0.0000 0.0000 0.0000 0.0000 0.0000 35.1309
#
#
#
# Elastic Compliance Matrix: (Units=1/GPa)
#
#
# Indices 1 2 3 4 5 6 
#
# 1 0.007475 -0.003622 0.000400 0.000000 0.000000 0.000000
# 2 -0.003622 0.014760 -0.005983 0.000000 0.000000 0.000000
# 3 0.000400 -0.005983 0.015270 0.000000 0.000000 0.000000
# 4 0.000000 0.000000 0.000000 0.081322 0.000000 0.000000
# 5 0.000000 0.000000 0.000000 0.000000 0.300176 0.000000
# 6 0.000000 0.000000 0.000000 0.000000 0.000000 0.028465
#
#
# Mechanical properties :
#
#
# Convention : Reuss Voigt Hill
#
# Bulk Modulus (GPa) = 52.37115 56.35023 54.36069
# Shear Modulus (GPa) = 10.58775 25.78249 18.18512
#
# Velocity S-wave (km/s) = 2.23446 3.48685 2.92839
# Velocity P-wave (km/s) = 5.59941 6.54091 6.08839
#
# Compressibility (1/GPa) = 0.01909448
#
# Stress axis : x y z
#
# Youngs Moduli (GPa) = 133.77247 67.75287 65.48650
#
# Poissons Ratio (x) = 0.24543 -0.02617
# Poissons Ratio (y) = 0.48457 0.39178
# Poissons Ratio (z) = -0.05345 0.40534
#
# Static dielectric constant tensor:
#      x y z
#    x 4.091930 0.000000 0.000000 
#    y 0.000000 3.517060 0.000000 
#    z 0.000000 0.000000 3.915350 
# 
# 
# High freq. dielectric constant tensor:
#      x y z
#    x 1.852350 0.000000 0.000000 
#    y 0.000000 1.795860 0.000000 
#    z 0.000000 0.000000 1.840250 
# 
# From -- ./inp_files/28125.got.cif
#   From: 2010.03.12/outbox.cif.g09.slc.cpg/sg68_15_cif.got.tgz:28125.got - 2010.04.10 23:14:56.
