data_PCOD8282949
_publ_section_title
;
Structure prediction by ZEFSAII (Michael W. Deem and Ramdas Pophale) SiO2 
 PCOD8282949
Probable space group: C C C A
;
_chemical_formula_sum "Si O2"
_cell_formula_units_Z 88
_cell_length_a 17.652564
_cell_length_b 17.596331
_cell_length_c 13.640262
_cell_angle_alpha 90.000000
_cell_angle_beta 90.000000
_cell_angle_gamma 90.000000
_cell_volume 4236.943081
_symmetry_space_group_name_H-M "C C C A"
_symmetry_group_IT_number 68
_space_group.IT_coordinate_system_code '2'
_symmetry_cell_setting 'orthorhombic'
loop_
_space_group_symop_operation_xyz
x,y,z
-x,1/2-y,z
x,1/2-y,1/2-z
-x,y,1/2-z
-x,-y,-z
x,1/2+y,-z
-x,1/2+y,1/2+z
x,-y,1/2+z
1/2+x,1/2+y,z
1/2-x,-y,z
1/2+x,-y,1/2-z
1/2-x,1/2+y,1/2-z
1/2-x,1/2-y,-z
1/2+x,y,-z
1/2-x,y,1/2+z
1/2+x,1/2-y,1/2+z
loop_
_atom_site_type_symbol
_atom_site_label
_atom_site_fract_x
_atom_site_fract_y
_atom_site_fract_z
Si Si1 0.811652 0.062815 0.584867
Si Si2 0.275802 0.815436 0.073111
Si Si3 0.625210 0.750000 0.250000
Si Si4 0.526264 0.498488 0.392518
Si Si5 0.000000 0.628340 0.750000
Si Si6 0.669027 0.333854 0.235601
Si Si7 0.000000 0.873003 0.250000
O O1 0.818733 0.119223 0.490798
O O2 0.793844 0.111654 0.682717
O O3 0.750000 0.000000 0.562421
O O4 0.884062 0.011786 0.610268
O O5 0.329501 0.775892 0.153483
O O6 0.202944 0.855440 0.127970
O O7 0.250000 0.750000 0.000000
O O8 0.573319 0.822102 0.225304
O O9 0.500000 0.500000 0.500000
O O10 0.492719 0.574193 0.343908
O O11 0.488601 0.424825 0.344734
O O12 0.702761 0.250000 0.250000
O O13 0.577954 0.325750 0.248955
#
# Coordination Sequence:
#
# PCOD8282949 Si02
#       7
#    16  16   8  16   8  16   8
#     4  11  26  42  67 105 134 181 229 280 352 412
#     4  12  24  42  67 100 139 177 226 284 341 413
#     4  11  24  44  68  97 134 174 230 273 350 400
#     4  10  22  42  64  93 135 168 225 278 334 407
#     4  10  24  43  71  94 128 184 218 286 334 406
#     4  11  22  44  67  96 134 175 225 288 340 411
#     4   9  23  39  63  95 127 176 220 276 348 400
#
# _framework density 20.769691999999999
#
# number of rings (size 3 to 8) (size 9 to 14) (size 15 to 20)
#    0.000    1.273    2.727    1.364    7.636    0.727 
#    0.000    1.818    0.000    0.000    0.000    0.000 
#    0.000    0.000    0.000    0.000    0.000    0.000 
#
# Total GULP energy -545124.196557 kJ/mol
# GULP energy per Si atom -12389.186285 kJ/mol
# Density = 2.072242 g / cm^3
# Si number density = 20.769692 Si / 1000 Ang^3
#
#
#
# Elastic Constant Matrix: (Units=GPa)
#
#
# Indices 1 2 3 4 5 6 
#
# 1 59.0168 35.4099 34.3490 0.0000 0.0000 0.0000
# 2 35.4099 114.0510 53.6338 0.0000 0.0000 0.0000
# 3 34.3490 53.6338 157.9760 0.0000 0.0000 0.0000
# 4 0.0000 0.0000 0.0000 -82.6757 0.0000 0.0000
# 5 0.0000 0.0000 0.0000 0.0000 26.8586 0.0000
# 6 0.0000 0.0000 0.0000 0.0000 0.0000 -29.7191
#
#
#
# Elastic Compliance Matrix: (Units=1/GPa)
#
#
# Indices 1 2 3 4 5 6 
#
# 1 0.021899 -0.005426 -0.002919 0.000000 0.000000 0.000000
# 2 -0.005426 0.011778 -0.002819 0.000000 0.000000 0.000000
# 3 -0.002919 -0.002819 0.007922 0.000000 0.000000 0.000000
# 4 0.000000 0.000000 0.000000 -0.012095 0.000000 0.000000
# 5 0.000000 0.000000 0.000000 0.000000 0.037232 0.000000
# 6 0.000000 0.000000 0.000000 0.000000 0.000000 -0.033648
#
#
# Mechanical properties :
#
#
# Convention : Reuss Voigt Hill
#
# Bulk Modulus (GPa) = 51.89341 64.20326 58.04834
# Shear Modulus (GPa) = 80.85355 -3.26383 38.79486
#
# Velocity S-wave (km/s) = 6.24605 -1.25493 4.32656
# Velocity P-wave (km/s) = 8.77821 5.37395 7.27792
#
# Compressibility (1/GPa) = 0.01927027
#
# Stress axis : x y z
#
# Youngs Moduli (GPa) = 45.66380 84.90125 126.23242
#
# Poissons Ratio (x) = 0.46070 0.36851
# Poissons Ratio (y) = 0.24778 0.35585
# Poissons Ratio (z) = 0.13331 0.23934
#
# Static dielectric constant tensor:
#      x y z
#    x 3.823120 0.000000 0.000000 
#    y 0.000000 3.808020 0.000000 
#    z 0.000000 0.000000 3.736140 
# 
# 
# High freq. dielectric constant tensor:
#      x y z
#    x 1.815080 0.000000 0.000000 
#    y 0.000000 1.821020 0.000000 
#    z 0.000000 0.000000 1.821620 
# 
# From -- ./inp_files/14517.got.cif
#   From: 2010.03.12/outbox.cif.g09.slc.cpg/sg68_8_cif.got.tgz:14517.got - 2010.04.10 23:14:56.
