data_PCOD8282980
_publ_section_title
;
Structure prediction by ZEFSAII (Michael W. Deem and Ramdas Pophale) SiO2 
 PCOD8282980
Probable space group: C C C A
;
_chemical_formula_sum "Si O2"
_cell_formula_units_Z 88
_cell_length_a 17.965265
_cell_length_b 16.117866
_cell_length_c 13.448962
_cell_angle_alpha 90.000000
_cell_angle_beta 90.000000
_cell_angle_gamma 90.000000
_cell_volume 3894.304756
_symmetry_space_group_name_H-M "C C C A"
_symmetry_group_IT_number 68
_space_group.IT_coordinate_system_code '2'
_symmetry_cell_setting 'orthorhombic'
loop_
_space_group_symop_operation_xyz
x,y,z
-x,1/2-y,z
x,1/2-y,1/2-z
-x,y,1/2-z
-x,-y,-z
x,1/2+y,-z
-x,1/2+y,1/2+z
x,-y,1/2+z
1/2+x,1/2+y,z
1/2-x,-y,z
1/2+x,-y,1/2-z
1/2-x,1/2+y,1/2-z
1/2-x,1/2-y,-z
1/2+x,y,-z
1/2-x,y,1/2+z
1/2+x,1/2-y,1/2+z
loop_
_atom_site_type_symbol
_atom_site_label
_atom_site_fract_x
_atom_site_fract_y
_atom_site_fract_z
Si Si1 0.619331 0.309951 0.656721
Si Si2 0.071084 0.989957 0.932303
Si Si3 0.706791 0.915623 0.605545
Si Si4 0.222262 0.163474 0.696533
Si Si5 0.839073 0.328585 0.487144
Si Si6 0.000000 0.577442 0.750000
O O1 0.616925 0.250000 0.750000
O O2 0.695352 0.364369 0.658993
O O3 0.621422 0.254346 0.555827
O O4 0.547349 0.368694 0.669073
O O5 0.111351 0.905576 0.959029
O O6 0.051610 0.982244 0.815674
O O7 0.125555 0.070396 0.945615
O O8 0.000000 0.000000 0.000000
O O9 0.693713 0.903160 0.723355
O O10 0.754683 0.839188 0.558573
O O11 0.750000 0.000000 0.586097
O O12 0.229875 0.250000 0.750000
O O13 0.164561 0.173391 0.606266
#
# Coordination Sequence:
#
# PCOD8282980 Si02
#       6
#    16  16  16  16  16   8
#     4  11  20  40  66 100 122 161 220 278 332 381
#     4  11  27  42  62  95 133 182 221 265 333 400
#     4  10  22  43  63  95 130 174 226 266 324 399
#     4  11  23  39  69  99 131 166 217 281 333 391
#     4  11  23  42  67  98 130 171 221 278 332 392
#     4  12  25  42  70  94 137 176 222 278 331 406
#
# _framework density 22.597100999999999
#
# number of rings (size 3 to 8) (size 9 to 14) (size 15 to 20)
#    0.000    1.091    5.455    1.909    5.091    2.182 
#    0.000    0.000    0.000    1.091    0.000    0.000 
#    0.000    0.000    0.000    0.000    0.000    0.000 
#
# Total GULP energy -545414.290064 kJ/mol
# GULP energy per Si atom -12395.779320 kJ/mol
# Density = 2.254567 g / cm^3
# Si number density = 22.597101 Si / 1000 Ang^3
#
#
#
# Elastic Constant Matrix: (Units=GPa)
#
#
# Indices 1 2 3 4 5 6 
#
# 1 125.5760 32.3313 40.2165 0.0000 0.0000 0.0000
# 2 32.3313 36.6072 2.9183 0.0000 0.0000 0.0000
# 3 40.2165 2.9183 103.4205 0.0000 0.0000 0.0000
# 4 0.0000 0.0000 0.0000 22.6535 0.0000 0.0000
# 5 0.0000 0.0000 0.0000 0.0000 34.5170 0.0000
# 6 0.0000 0.0000 0.0000 0.0000 0.0000 80.7795
#
#
#
# Elastic Compliance Matrix: (Units=1/GPa)
#
#
# Indices 1 2 3 4 5 6 
#
# 1 0.012006 -0.010255 -0.004379 0.000000 0.000000 0.000000
# 2 -0.010255 0.036137 0.002968 0.000000 0.000000 0.000000
# 3 -0.004379 0.002968 0.011288 0.000000 0.000000 0.000000
# 4 0.000000 0.000000 0.000000 0.044143 0.000000 0.000000
# 5 0.000000 0.000000 0.000000 0.000000 0.028971 0.000000
# 6 0.000000 0.000000 0.000000 0.000000 0.000000 0.012379
#
#
# Mechanical properties :
#
#
# Convention : Reuss Voigt Hill
#
# Bulk Modulus (GPa) = 27.70101 46.28178 36.99140
# Shear Modulus (GPa) = 27.73297 40.26583 33.99940
#
# Velocity S-wave (km/s) = 3.50706 4.22584 3.88311
# Velocity P-wave (km/s) = 5.35579 6.65853 6.04237
#
# Compressibility (1/GPa) = 0.03609976
#
# Stress axis : x y z
#
# Youngs Moduli (GPa) = 83.29179 27.67230 88.58587
#
# Poissons Ratio (x) = 0.28377 0.38795
# Poissons Ratio (y) = 0.85412 -0.26291
# Poissons Ratio (z) = 0.36476 -0.08213
#
# Static dielectric constant tensor:
#      x y z
#    x 4.586800 0.000000 0.000000 
#    y 0.000000 4.020450 0.000000 
#    z 0.000000 0.000000 4.273490 
# 
# 
# High freq. dielectric constant tensor:
#      x y z
#    x 1.885460 0.000000 0.000000 
#    y 0.000000 1.877240 0.000000 
#    z 0.000000 0.000000 1.895720 
# 
# From -- ./inp_files/23585.got.cif
#   From: 2010.03.12/outbox.cif.g09.slc.cpg/sg68_12_cif.got.tgz:23585.got - 2010.04.10 23:14:56.
