data_PCOD8282653
_publ_section_title
;
Structure prediction by ZEFSAII (Michael W. Deem and Ramdas Pophale) SiO2 
 PCOD8282653
Probable space group: C C C A
;
_chemical_formula_sum "Si O2"
_cell_formula_units_Z 72
_cell_length_a 13.027185
_cell_length_b 9.067052
_cell_length_c 28.776036
_cell_angle_alpha 90.000000
_cell_angle_beta 90.000000
_cell_angle_gamma 90.000000
_cell_volume 3398.972534
_symmetry_space_group_name_H-M "C C C A"
_symmetry_group_IT_number 68
_space_group.IT_coordinate_system_code '2'
_symmetry_cell_setting 'orthorhombic'
loop_
_space_group_symop_operation_xyz
x,y,z
-x,1/2-y,z
x,1/2-y,1/2-z
-x,y,1/2-z
-x,-y,-z
x,1/2+y,-z
-x,1/2+y,1/2+z
x,-y,1/2+z
1/2+x,1/2+y,z
1/2-x,-y,z
1/2+x,-y,1/2-z
1/2-x,1/2+y,1/2-z
1/2-x,1/2-y,-z
1/2+x,y,-z
1/2-x,y,1/2+z
1/2+x,1/2-y,1/2+z
loop_
_atom_site_type_symbol
_atom_site_label
_atom_site_fract_x
_atom_site_fract_y
_atom_site_fract_z
Si Si1 0.344731 0.301047 0.646986
Si Si2 0.039098 0.092014 0.957671
Si Si3 0.466836 0.514603 0.357885
Si Si4 0.685411 0.852796 0.791083
Si Si5 0.750000 0.000000 0.071543
O O1 0.430810 0.416462 0.666706
O O2 0.391540 0.147602 0.629987
O O3 0.260484 0.266720 0.685486
O O4 0.292891 0.366990 0.601894
O O5 0.161852 0.074033 0.959379
O O6 0.000000 0.250000 0.971365
O O7 0.994996 0.056908 0.906729
O O8 0.000000 0.000000 0.000000
O O9 0.410538 0.397589 0.323996
O O10 0.640305 0.750000 0.750000
O O11 0.750000 0.000000 0.776267
#
# Coordination Sequence:
#
# PCOD8282653 Si02
#       5
#    16  16  16  16   8
#     4   9  19  38  69  90 128 174 211 269 337 394
#     4  11  25  42  65  99 132 168 228 275 331 409
#     4   9  20  42  66  92 129 174 218 271 339 394
#     4  10  21  39  67  96 127 172 220 273 332 407
#     4  10  22  40  68  92 130 176 210 278 342 382
#
# _framework density 21.182870999999999
#
# number of rings (size 3 to 8) (size 9 to 14) (size 15 to 20)
#    0.000    2.222    0.000    1.333    7.778    0.889 
#    6.000    8.889   19.556    0.000    0.000    0.000 
#    0.000    0.000    0.000    0.000    0.000    0.000 
#
# Total GULP energy -446126.708352 kJ/mol
# GULP energy per Si atom -12392.408565 kJ/mol
# Density = 2.113466 g / cm^3
# Si number density = 21.182871 Si / 1000 Ang^3
#
#
#
# Elastic Constant Matrix: (Units=GPa)
#
#
# Indices 1 2 3 4 5 6 
#
# 1 162.7940 77.6926 74.0594 0.0000 0.0000 0.0000
# 2 77.6926 132.2949 72.1725 0.0000 0.0000 0.0000
# 3 74.0594 72.1725 101.1847 0.0000 0.0000 0.0000
# 4 0.0000 0.0000 0.0000 38.1523 0.0000 0.0000
# 5 0.0000 0.0000 0.0000 0.0000 28.8979 0.0000
# 6 0.0000 0.0000 0.0000 0.0000 0.0000 22.2809
#
#
#
# Elastic Compliance Matrix: (Units=1/GPa)
#
#
# Indices 1 2 3 4 5 6 
#
# 1 0.009907 -0.003049 -0.005077 0.000000 0.000000 0.000000
# 2 -0.003049 0.013312 -0.007264 0.000000 0.000000 0.000000
# 3 -0.005077 -0.007264 0.018780 0.000000 0.000000 0.000000
# 4 0.000000 0.000000 0.000000 0.026211 0.000000 0.000000
# 5 0.000000 0.000000 0.000000 0.000000 0.034605 0.000000
# 6 0.000000 0.000000 0.000000 0.000000 0.000000 0.044881
#
#
# Mechanical properties :
#
#
# Convention : Reuss Voigt Hill
#
# Bulk Modulus (GPa) = 89.12149 93.79139 91.45644
# Shear Modulus (GPa) = 27.44022 29.35615 28.39819
#
# Velocity S-wave (km/s) = 3.60307 3.72673 3.66542
# Velocity P-wave (km/s) = 7.71189 7.93039 7.82190
#
# Compressibility (1/GPa) = 0.01122064
#
# Stress axis : x y z
#
# Youngs Moduli (GPa) = 100.93614 75.12102 53.24865
#
# Poissons Ratio (x) = 0.22901 0.27034
# Poissons Ratio (y) = 0.30771 0.38678
# Poissons Ratio (z) = 0.51244 0.54566
#
# Static dielectric constant tensor:
#      x y z
#    x 4.293780 0.000000 0.000000 
#    y 0.000000 3.993160 0.000000 
#    z 0.000000 0.000000 3.579470 
# 
# 
# High freq. dielectric constant tensor:
#      x y z
#    x 1.845110 0.000000 0.000000 
#    y 0.000000 1.848970 0.000000 
#    z 0.000000 0.000000 1.808640 
# 
# From -- ./inp_files/50743.got.cif
#   From: 2010.03.12/outbox.cif.g09.slc.cpg/sg68_26_cif.got.tgz:50743.got - 2010.04.10 23:14:56.
