data_PCOD8282512
_publ_section_title
;
Structure prediction by ZEFSAII (Michael W. Deem and Ramdas Pophale) SiO2 
 PCOD8282512
Probable space group: C C C A
;
_chemical_formula_sum "Si O2"
_cell_formula_units_Z 88
_cell_length_a 16.048378
_cell_length_b 16.856667
_cell_length_c 16.370420
_cell_angle_alpha 90.000000
_cell_angle_beta 90.000000
_cell_angle_gamma 90.000000
_cell_volume 4428.561441
_symmetry_space_group_name_H-M "C C C A"
_symmetry_group_IT_number 68
_space_group.IT_coordinate_system_code '2'
_symmetry_cell_setting 'orthorhombic'
loop_
_space_group_symop_operation_xyz
x,y,z
-x,1/2-y,z
x,1/2-y,1/2-z
-x,y,1/2-z
-x,-y,-z
x,1/2+y,-z
-x,1/2+y,1/2+z
x,-y,1/2+z
1/2+x,1/2+y,z
1/2-x,-y,z
1/2+x,-y,1/2-z
1/2-x,1/2+y,1/2-z
1/2-x,1/2-y,-z
1/2+x,y,-z
1/2-x,y,1/2+z
1/2+x,1/2-y,1/2+z
loop_
_atom_site_type_symbol
_atom_site_label
_atom_site_fract_x
_atom_site_fract_y
_atom_site_fract_z
Si Si1 0.651923 0.757820 0.347778
Si Si2 0.953505 0.912907 0.835474
Si Si3 0.500000 0.250000 0.067084
Si Si4 0.425777 0.877272 0.460387
Si Si5 0.164806 0.216277 0.661156
Si Si6 0.163379 0.544237 0.391739
O O1 0.650577 0.750000 0.250000
O O2 0.595117 0.834270 0.365793
O O3 0.619956 0.682450 0.397845
O O4 0.746541 0.764806 0.381252
O O5 0.000000 0.899318 0.750000
O O6 0.022328 0.936066 0.903206
O O7 0.892985 0.987269 0.836380
O O8 0.413736 0.256863 0.116987
O O9 0.507674 0.329408 0.014631
O O10 0.365945 0.930244 0.517176
O O11 0.163092 0.250000 0.750000
O O12 0.162836 0.121340 0.665014
O O13 0.250000 0.500000 0.403916
#
# Coordination Sequence:
#
# PCOD8282512 Si02
#       6
#    16  16   8  16  16  16
#     4  11  21  40  70  98 122 166 224 274 315 378
#     4  12  23  41  68  97 131 168 220 273 325 380
#     4  10  21  36  63  94 128 164 210 266 317 388
#     4  11  23  39  65 100 129 170 216 268 326 388
#     4  10  23  42  68  92 126 174 224 264 318 391
#     4  11  25  44  61  94 141 174 210 270 339 392
#
# _framework density 19.871013000000001
#
# number of rings (size 3 to 8) (size 9 to 14) (size 15 to 20)
#    0.000    1.091    5.455    0.818    0.000    7.273 
#    0.000    4.545    0.000    0.000    0.000    0.000 
#    0.000    0.000    0.000    0.000    0.000    0.000 
#
# Total GULP energy -545164.599436 kJ/mol
# GULP energy per Si atom -12390.104533 kJ/mol
# Density = 1.982579 g / cm^3
# Si number density = 19.871013 Si / 1000 Ang^3
#
#
#
# Elastic Constant Matrix: (Units=GPa)
#
#
# Indices 1 2 3 4 5 6 
#
# 1 155.2103 52.6798 56.8432 0.0000 0.0000 0.0000
# 2 52.6798 68.5576 19.2775 0.0000 0.0000 0.0000
# 3 56.8432 19.2775 82.4145 0.0000 0.0000 0.0000
# 4 0.0000 0.0000 0.0000 28.3844 0.0000 0.0000
# 5 0.0000 0.0000 0.0000 0.0000 20.5613 0.0000
# 6 0.0000 0.0000 0.0000 0.0000 0.0000 11.5092
#
#
#
# Elastic Compliance Matrix: (Units=1/GPa)
#
#
# Indices 1 2 3 4 5 6 
#
# 1 0.010895 -0.006699 -0.005947 0.000000 0.000000 0.000000
# 2 -0.006699 0.019733 0.000005 0.000000 0.000000 0.000000
# 3 -0.005947 0.000005 0.016235 0.000000 0.000000 0.000000
# 4 0.000000 0.000000 0.000000 0.035231 0.000000 0.000000
# 5 0.000000 0.000000 0.000000 0.000000 0.048635 0.000000
# 6 0.000000 0.000000 0.000000 0.000000 0.000000 0.086887
#
#
# Mechanical properties :
#
#
# Convention : Reuss Voigt Hill
#
# Bulk Modulus (GPa) = 46.34185 62.64260 54.49223
# Shear Modulus (GPa) = 19.99271 23.91644 21.95457
#
# Velocity S-wave (km/s) = 3.17539 3.47303 3.32754
# Velocity P-wave (km/s) = 6.06763 6.90476 6.49968
#
# Compressibility (1/GPa) = 0.02157877
#
# Stress axis : x y z
#
# Youngs Moduli (GPa) = 91.78714 50.67766 61.59661
#
# Poissons Ratio (x) = 0.33950 0.36634
# Poissons Ratio (y) = 0.61490 -0.00031
# Poissons Ratio (z) = 0.54589 -0.00025
#
# Static dielectric constant tensor:
#      x y z
#    x 4.194650 0.000000 0.000000 
#    y 0.000000 3.240240 0.000000 
#    z 0.000000 0.000000 3.701240 
# 
# 
# High freq. dielectric constant tensor:
#      x y z
#    x 1.795050 0.000000 0.000000 
#    y 0.000000 1.769810 0.000000 
#    z 0.000000 0.000000 1.777700 
# 
# From -- ./inp_files/30909.got.cif
#   From: 2010.03.12/outbox.cif.g09.slc.cpg/sg68_16_cif.got.tgz:30909.got - 2010.04.10 23:14:56.
