data_PCOD8282831
_publ_section_title
;
Structure prediction by ZEFSAII (Michael W. Deem and Ramdas Pophale) SiO2 
 PCOD8282831
Probable space group: C C C A
;
_chemical_formula_sum "Si O2"
_cell_formula_units_Z 116
_cell_length_a 26.825597
_cell_length_b 23.508170
_cell_length_c 8.685806
_cell_angle_alpha 90.000000
_cell_angle_beta 90.000000
_cell_angle_gamma 90.000000
_cell_volume 5477.449013
_symmetry_space_group_name_H-M "C C C A"
_symmetry_group_IT_number 68
_space_group.IT_coordinate_system_code '2'
_symmetry_cell_setting 'orthorhombic'
loop_
_space_group_symop_operation_xyz
x,y,z
-x,1/2-y,z
x,1/2-y,1/2-z
-x,y,1/2-z
-x,-y,-z
x,1/2+y,-z
-x,1/2+y,1/2+z
x,-y,1/2+z
1/2+x,1/2+y,z
1/2-x,-y,z
1/2+x,-y,1/2-z
1/2-x,1/2+y,1/2-z
1/2-x,1/2-y,-z
1/2+x,y,-z
1/2-x,y,1/2+z
1/2+x,1/2-y,1/2+z
loop_
_atom_site_type_symbol
_atom_site_label
_atom_site_fract_x
_atom_site_fract_y
_atom_site_fract_z
Si Si1 0.901738 0.316636 0.760165
Si Si2 0.136026 0.925615 0.805018
Si Si3 0.562484 0.657351 0.426071
Si Si4 0.818894 0.393917 0.852376
Si Si5 0.607210 0.524414 0.988232
Si Si6 0.022772 0.099769 0.908458
Si Si7 0.500000 0.750000 0.250000
Si Si8 0.764741 0.933667 0.845609
O O1 0.908701 0.250000 0.750000
O O2 0.907539 0.335645 0.584234
O O3 0.847375 0.333587 0.830035
O O4 0.943486 0.344320 0.871943
O O5 0.103809 0.867158 0.804079
O O6 0.125449 0.963846 0.657607
O O7 0.196340 0.921902 0.797116
O O8 0.115903 0.957778 0.957166
O O9 0.516891 0.614577 0.459420
O O10 0.537642 0.713776 0.356262
O O11 0.861160 0.442101 0.858613
O O12 0.785753 0.402301 0.701389
O O13 0.785847 0.400425 0.006369
O O14 0.550760 0.544857 0.974606
O O15 0.000000 0.077876 0.750000
O O16 0.750000 0.000000 0.875637
#
# Coordination Sequence:
#
# PCOD8282831 Si02
#       8
#    16  16  16  16  16  16   4  16
#     4  10  22  42  67  92 127 170 222 284 336 394
#     4  11  25  37  61  95 128 171 209 272 324 392
#     4  11  24  40  68  94 133 169 228 276 337 392
#     4  10  23  38  66  91 129 168 221 269 330 400
#     4  10  22  39  57  90 136 163 207 257 324 391
#     4   9  20  39  61  91 120 169 208 255 321 395
#     4  12  24  44  66  96 124 184 228 286 326 420
#     4  11  22  39  65  96 129 175 222 271 330 407
#
# _framework density 21.177741000000001
#
# number of rings (size 3 to 8) (size 9 to 14) (size 15 to 20)
#    0.000    1.655    1.379    2.069    9.655    4.690 
#    1.241    0.690    1.517    0.000    0.000    0.000 
#    0.000    0.000    0.000    0.000    0.000    0.000 
#
# Total GULP energy -718732.917955 kJ/mol
# GULP energy per Si atom -12391.946861 kJ/mol
# Density = 2.112954 g / cm^3
# Si number density = 21.177741 Si / 1000 Ang^3
#
#
#
# Elastic Constant Matrix: (Units=GPa)
#
#
# Indices 1 2 3 4 5 6 
#
# 1 104.2918 20.5328 25.4791 0.0000 0.0000 0.0000
# 2 20.5328 46.5761 8.6492 0.0000 0.0000 0.0000
# 3 25.4791 8.6492 58.8293 0.0000 0.0000 0.0000
# 4 0.0000 0.0000 0.0000 24.5914 0.0000 0.0000
# 5 0.0000 0.0000 0.0000 0.0000 28.6698 0.0000
# 6 0.0000 0.0000 0.0000 0.0000 0.0000 19.0219
#
#
#
# Elastic Compliance Matrix: (Units=1/GPa)
#
#
# Indices 1 2 3 4 5 6 
#
# 1 0.011489 -0.004257 -0.004350 0.000000 0.000000 0.000000
# 2 -0.004257 0.023650 -0.001633 0.000000 0.000000 0.000000
# 3 -0.004350 -0.001633 0.019123 0.000000 0.000000 0.000000
# 4 0.000000 0.000000 0.000000 0.040665 0.000000 0.000000
# 5 0.000000 0.000000 0.000000 0.000000 0.034880 0.000000
# 6 0.000000 0.000000 0.000000 0.000000 0.000000 0.052571
#
#
# Mechanical properties :
#
#
# Convention : Reuss Voigt Hill
#
# Bulk Modulus (GPa) = 29.60253 35.44657 32.52455
# Shear Modulus (GPa) = 23.35146 24.79237 24.07191
#
# Velocity S-wave (km/s) = 3.32421 3.42523 3.37510
# Velocity P-wave (km/s) = 5.36118 5.69359 5.52988
#
# Compressibility (1/GPa) = 0.03378089
#
# Stress axis : x y z
#
# Youngs Moduli (GPa) = 87.03675 42.28274 52.29432
#
# Poissons Ratio (x) = 0.18001 0.22749
# Poissons Ratio (y) = 0.37053 0.08541
# Poissons Ratio (z) = 0.37863 0.06906
#
# Static dielectric constant tensor:
#      x y z
#    x 4.320180 0.000000 0.000000 
#    y 0.000000 3.569960 0.000000 
#    z 0.000000 0.000000 3.832560 
# 
# 
# High freq. dielectric constant tensor:
#      x y z
#    x 1.844590 0.000000 0.000000 
#    y 0.000000 1.796570 0.000000 
#    z 0.000000 0.000000 1.835940 
# 
# From -- ./inp_files/9173.got.cif
#   From: 2010.03.12/outbox.cif.g09.slc.cpg/sg68_5_cif.got.tgz:9173.got - 2010.04.10 23:14:56.
