data_PCOD8282704
_publ_section_title
;
Structure prediction by ZEFSAII (Michael W. Deem and Ramdas Pophale) SiO2 
 PCOD8282704
Probable space group: C C C A
;
_chemical_formula_sum "Si O2"
_cell_formula_units_Z 108
_cell_length_a 24.041962
_cell_length_b 15.099712
_cell_length_c 14.206874
_cell_angle_alpha 90.000000
_cell_angle_beta 90.000000
_cell_angle_gamma 90.000000
_cell_volume 5157.474616
_symmetry_space_group_name_H-M "C C C A"
_symmetry_group_IT_number 68
_space_group.IT_coordinate_system_code '2'
_symmetry_cell_setting 'orthorhombic'
loop_
_space_group_symop_operation_xyz
x,y,z
-x,1/2-y,z
x,1/2-y,1/2-z
-x,y,1/2-z
-x,-y,-z
x,1/2+y,-z
-x,1/2+y,1/2+z
x,-y,1/2+z
1/2+x,1/2+y,z
1/2-x,-y,z
1/2+x,-y,1/2-z
1/2-x,1/2+y,1/2-z
1/2-x,1/2-y,-z
1/2+x,y,-z
1/2-x,y,1/2+z
1/2+x,1/2-y,1/2+z
loop_
_atom_site_type_symbol
_atom_site_label
_atom_site_fract_x
_atom_site_fract_y
_atom_site_fract_z
Si Si1 0.616648 0.250000 0.250000
Si Si2 0.063582 0.229556 0.939142
Si Si3 0.391122 0.030893 0.439931
Si Si4 0.311744 0.911695 0.790048
Si Si5 0.310733 0.020227 0.609550
Si Si6 0.085393 0.156551 0.386419
Si Si7 0.803554 0.152974 0.233738
Si Si8 0.000000 0.750000 0.750000
O O1 0.578347 0.276786 0.160651
O O2 0.656712 0.179868 0.202150
O O3 0.074199 0.122806 0.936972
O O4 0.000000 0.250000 0.960120
O O5 0.095437 0.277006 0.025597
O O6 0.341597 0.023900 0.363458
O O7 0.361567 0.018584 0.539005
O O8 0.429492 0.943957 0.421133
O O9 0.245984 0.904757 0.814159
O O10 0.321445 0.943596 0.684649
O O11 0.315009 0.114151 0.662591
O O12 0.250000 0.000000 0.563015
O O13 0.142823 0.156379 0.330709
O O14 0.036854 0.187535 0.316601
O O15 0.779188 0.250000 0.250000
#
# Coordination Sequence:
#
# PCOD8282704 Si02
#       8
#     8  16  16  16  16  16  16   4
#     4  10  21  43  66  92 135 175 216 286 346 404
#     4  11  25  47  67 101 136 178 241 293 340 415
#     4  11  25  42  70 102 132 184 227 281 357 411
#     4  10  21  41  61  98 138 168 226 270 339 425
#     4  10  22  37  62  99 138 173 220 275 329 420
#     4  12  25  46  72  98 140 183 233 295 344 416
#     4  11  21  39  68  95 137 187 215 279 348 409
#     4  12  28  50  68 102 140 172 248 300 346 398
#
# _framework density 20.940481999999999
#
# number of rings (size 3 to 8) (size 9 to 14) (size 15 to 20)
#    0.000    1.185    3.704    2.000    2.074    0.593 
#    5.333    2.222    0.000    0.000    0.000    0.000 
#    0.000    0.000    0.000    0.000    0.000    0.000 
#
# Total GULP energy -669269.845950 kJ/mol
# GULP energy per Si atom -12393.886036 kJ/mol
# Density = 2.089282 g / cm^3
# Si number density = 20.940482 Si / 1000 Ang^3
#
#
#
# Elastic Constant Matrix: (Units=GPa)
#
#
# Indices 1 2 3 4 5 6 
#
# 1 114.6022 46.2782 56.8532 0.0000 0.0000 0.0000
# 2 46.2782 124.7477 40.7717 0.0000 0.0000 0.0000
# 3 56.8532 40.7717 116.8646 0.0000 0.0000 0.0000
# 4 0.0000 0.0000 0.0000 29.9907 0.0000 0.0000
# 5 0.0000 0.0000 0.0000 0.0000 31.3030 0.0000
# 6 0.0000 0.0000 0.0000 0.0000 0.0000 32.4671
#
#
#
# Elastic Compliance Matrix: (Units=1/GPa)
#
#
# Indices 1 2 3 4 5 6 
#
# 1 0.012404 -0.002968 -0.004999 0.000000 0.000000 0.000000
# 2 -0.002968 0.009758 -0.001961 0.000000 0.000000 0.000000
# 3 -0.004999 -0.001961 0.011673 0.000000 0.000000 0.000000
# 4 0.000000 0.000000 0.000000 0.033344 0.000000 0.000000
# 5 0.000000 0.000000 0.000000 0.000000 0.031946 0.000000
# 6 0.000000 0.000000 0.000000 0.000000 0.000000 0.030800
#
#
# Mechanical properties :
#
#
# Convention : Reuss Voigt Hill
#
# Bulk Modulus (GPa) = 71.52975 71.55785 71.54380
# Shear Modulus (GPa) = 32.37503 32.90627 32.64065
#
# Velocity S-wave (km/s) = 3.93625 3.96841 3.95236
# Velocity P-wave (km/s) = 7.40888 7.43263 7.42076
#
# Compressibility (1/GPa) = 0.01398020
#
# Stress axis : x y z
#
# Youngs Moduli (GPa) = 80.61715 102.48075 85.66826
#
# Poissons Ratio (x) = 0.30414 0.42827
# Poissons Ratio (y) = 0.23925 0.16796
# Poissons Ratio (z) = 0.40302 0.20092
#
# Static dielectric constant tensor:
#      x y z
#    x 3.762280 0.000000 0.000000 
#    y 0.000000 4.225770 0.000000 
#    z 0.000000 0.000000 3.842050 
# 
# 
# High freq. dielectric constant tensor:
#      x y z
#    x 1.816250 0.000000 0.000000 
#    y 0.000000 1.833940 0.000000 
#    z 0.000000 0.000000 1.823420 
# 
# From -- ./inp_files/22646.got.cif
#   From: 2010.03.12/outbox.cif.g09.slc.cpg/sg68_12_cif.got.tgz:22646.got - 2010.04.10 23:14:56.
