data_PCOD8282839
_publ_section_title
;
Structure prediction by ZEFSAII (Michael W. Deem and Ramdas Pophale) SiO2 
 PCOD8282839
Probable space group: C C C A
;
_chemical_formula_sum "Si O2"
_cell_formula_units_Z 64
_cell_length_a 20.298766
_cell_length_b 4.909611
_cell_length_c 30.084971
_cell_angle_alpha 90.000000
_cell_angle_beta 90.000000
_cell_angle_gamma 90.000000
_cell_volume 2998.239474
_symmetry_space_group_name_H-M "C C C A"
_symmetry_group_IT_number 68
_space_group.IT_coordinate_system_code '2'
_symmetry_cell_setting 'orthorhombic'
loop_
_space_group_symop_operation_xyz
x,y,z
-x,1/2-y,z
x,1/2-y,1/2-z
-x,y,1/2-z
-x,-y,-z
x,1/2+y,-z
-x,1/2+y,1/2+z
x,-y,1/2+z
1/2+x,1/2+y,z
1/2-x,-y,z
1/2+x,-y,1/2-z
1/2-x,1/2+y,1/2-z
1/2-x,1/2-y,-z
1/2+x,y,-z
1/2-x,y,1/2+z
1/2+x,1/2-y,1/2+z
loop_
_atom_site_type_symbol
_atom_site_label
_atom_site_fract_x
_atom_site_fract_y
_atom_site_fract_z
Si Si1 0.074255 0.826642 0.377087
Si Si2 0.750000 0.500000 0.576650
Si Si3 0.250000 0.000000 0.722069
Si Si4 0.362805 0.707773 0.530236
Si Si5 0.346695 0.159584 0.648487
O O1 0.085196 0.772922 0.429563
O O2 0.121557 0.635646 0.348988
O O3 0.000000 0.750000 0.365309
O O4 0.094667 0.123834 0.358933
O O5 0.710656 0.720021 0.547220
O O6 0.701857 0.312945 0.606259
O O7 0.217849 0.250000 0.750000
O O8 0.304396 0.168992 0.693550
O O9 0.374914 0.408226 0.511071
#
# Coordination Sequence:
#
# PCOD8282839 Si02
#       5
#    16   8   8  16  16
#     4  11  23  40  59  81 117 167 212 246 284 343
#     4   9  20  36  56  81 116 154 196 249 310 364
#     4  11  22  40  70 103 130 146 174 241 314 372
#     4  11  22  34  53  81 115 155 203 261 310 344
#     4  10  22  39  62  90 118 154 198 237 293 370
#
# _framework density 21.345859999999998
#
# number of rings (size 3 to 8) (size 9 to 14) (size 15 to 20)
#    0.000    1.500    0.000    6.000    0.000   13.000 
#    0.000    0.000    0.000   11.250    0.000    0.000 
#    0.000    0.000    0.000    0.000    0.000    0.000 
#
# Total GULP energy -396591.855300 kJ/mol
# GULP energy per Si atom -12393.495478 kJ/mol
# Density = 2.129728 g / cm^3
# Si number density = 21.345860 Si / 1000 Ang^3
#
#
#
# Elastic Constant Matrix: (Units=GPa)
#
#
# Indices 1 2 3 4 5 6 
#
# 1 80.7632 7.0565 31.5099 0.0000 0.0000 0.0000
# 2 7.0565 70.1447 30.3179 0.0000 0.0000 0.0000
# 3 31.5099 30.3179 92.0081 0.0000 0.0000 0.0000
# 4 0.0000 0.0000 0.0000 32.2820 0.0000 0.0000
# 5 0.0000 0.0000 0.0000 0.0000 11.0211 0.0000
# 6 0.0000 0.0000 0.0000 0.0000 0.0000 38.9511
#
#
#
# Elastic Compliance Matrix: (Units=1/GPa)
#
#
# Indices 1 2 3 4 5 6 
#
# 1 0.014329 0.000792 -0.005168 0.000000 0.000000 0.000000
# 2 0.000792 0.016668 -0.005764 0.000000 0.000000 0.000000
# 3 -0.005168 -0.005764 0.014538 0.000000 0.000000 0.000000
# 4 0.000000 0.000000 0.000000 0.030977 0.000000 0.000000
# 5 0.000000 0.000000 0.000000 0.000000 0.090735 0.000000
# 6 0.000000 0.000000 0.000000 0.000000 0.000000 0.025673
#
#
# Mechanical properties :
#
#
# Convention : Reuss Voigt Hill
#
# Bulk Modulus (GPa) = 39.59549 42.29829 40.94689
# Shear Modulus (GPa) = 22.56143 28.05296 25.30719
#
# Velocity S-wave (km/s) = 3.25460 3.62914 3.44696
# Velocity P-wave (km/s) = 5.71953 6.11715 5.92168
#
# Compressibility (1/GPa) = 0.02525540
#
# Stress axis : x y z
#
# Youngs Moduli (GPa) = 69.78805 59.99644 68.78624
#
# Poissons Ratio (x) = -0.04754 0.35551
# Poissons Ratio (y) = -0.05530 0.39645
# Poissons Ratio (z) = 0.36069 0.34579
#
# Static dielectric constant tensor:
#      x y z
#    x 3.859210 0.000000 0.000000 
#    y 0.000000 3.960950 0.000000 
#    z 0.000000 0.000000 3.801150 
# 
# 
# High freq. dielectric constant tensor:
#      x y z
#    x 1.816000 0.000000 0.000000 
#    y 0.000000 1.850070 0.000000 
#    z 0.000000 0.000000 1.830580 
# 
# From -- ./inp_files/55477.got.cif
#   From: 2010.03.12/outbox.cif.g09.slc.cpg/sg68_28_cif.got.tgz:55477.got - 2010.04.10 23:14:56.
