data_PCOD8282612
_publ_section_title
;
Structure prediction by ZEFSAII (Michael W. Deem and Ramdas Pophale) SiO2 
 PCOD8282612
Probable space group: C C C A
;
_chemical_formula_sum "Si O2"
_cell_formula_units_Z 88
_cell_length_a 8.468921
_cell_length_b 18.997095
_cell_length_c 27.373583
_cell_angle_alpha 90.000000
_cell_angle_beta 90.000000
_cell_angle_gamma 90.000000
_cell_volume 4403.996076
_symmetry_space_group_name_H-M "C C C A"
_symmetry_group_IT_number 68
_space_group.IT_coordinate_system_code '2'
_symmetry_cell_setting 'orthorhombic'
loop_
_space_group_symop_operation_xyz
x,y,z
-x,1/2-y,z
x,1/2-y,1/2-z
-x,y,1/2-z
-x,-y,-z
x,1/2+y,-z
-x,1/2+y,1/2+z
x,-y,1/2+z
1/2+x,1/2+y,z
1/2-x,-y,z
1/2+x,-y,1/2-z
1/2-x,1/2+y,1/2-z
1/2-x,1/2-y,-z
1/2+x,y,-z
1/2-x,y,1/2+z
1/2+x,1/2-y,1/2+z
loop_
_atom_site_type_symbol
_atom_site_label
_atom_site_fract_x
_atom_site_fract_y
_atom_site_fract_z
Si Si1 0.065131 0.019173 0.610618
Si Si2 0.964564 0.385763 0.434571
Si Si3 0.849061 0.428418 0.970348
Si Si4 0.262501 0.751488 0.804745
Si Si5 0.480123 0.372519 0.304515
Si Si6 0.500000 0.750000 0.380183
O O1 0.017915 0.060435 0.659835
O O2 0.000569 0.066568 0.565557
O O3 0.250000 0.000000 0.607185
O O4 0.969332 0.945474 0.607927
O O5 0.080990 0.409317 0.477599
O O6 0.782202 0.372330 0.451317
O O7 0.041184 0.314946 0.414694
O O8 0.750000 0.500000 0.975123
O O9 0.191433 0.750000 0.750000
O O10 0.388719 0.812949 0.811240
O O11 0.320586 0.671453 0.814013
O O12 0.140909 0.772723 0.845717
O O13 0.500000 0.403857 0.250000
#
# Coordination Sequence:
#
# PCOD8282612 Si02
#       6
#    16  16  16  16  16   8
#     4  11  20  36  60  84 111 146 187 230 279 332
#     4  11  23  37  56  81 112 149 188 232 280 332
#     4  10  21  39  58  79 109 148 188 227 280 340
#     4   9  19  37  59  81 113 152 183 219 276 341
#     4   9  19  38  61  84 111 147 187 225 273 335
#     4  12  23  36  56  86 114 142 187 238 282 324
#
# _framework density 19.981852
#
# number of rings (size 3 to 8) (size 9 to 14) (size 15 to 20)
#    0.000    1.818    0.000    7.364    0.000    0.727 
#    0.000   10.000    0.000    0.000    0.000    0.000 
#    0.000    0.000    0.000    0.000    0.000    0.000 
#
# Total GULP energy -545228.930525 kJ/mol
# GULP energy per Si atom -12391.566603 kJ/mol
# Density = 1.993637 g / cm^3
# Si number density = 19.981852 Si / 1000 Ang^3
#
#
#
# Elastic Constant Matrix: (Units=GPa)
#
#
# Indices 1 2 3 4 5 6 
#
# 1 84.1858 21.3697 50.0065 0.0000 0.0000 0.0000
# 2 21.3697 101.6003 74.0737 0.0000 0.0000 0.0000
# 3 50.0065 74.0737 140.8034 0.0000 0.0000 0.0000
# 4 0.0000 0.0000 0.0000 25.4864 0.0000 0.0000
# 5 0.0000 0.0000 0.0000 0.0000 28.2300 0.0000
# 6 0.0000 0.0000 0.0000 0.0000 0.0000 11.9958
#
#
#
# Elastic Compliance Matrix: (Units=1/GPa)
#
#
# Indices 1 2 3 4 5 6 
#
# 1 0.015143 0.001194 -0.006006 0.000000 0.000000 0.000000
# 2 0.001194 0.016060 -0.008873 0.000000 0.000000 0.000000
# 3 -0.006006 -0.008873 0.013903 0.000000 0.000000 0.000000
# 4 0.000000 0.000000 0.000000 0.039237 0.000000 0.000000
# 5 0.000000 0.000000 0.000000 0.000000 0.035423 0.000000
# 6 0.000000 0.000000 0.000000 0.000000 0.000000 0.083363
#
#
# Mechanical properties :
#
#
# Convention : Reuss Voigt Hill
#
# Bulk Modulus (GPa) = 56.38263 68.60992 62.49628
# Shear Modulus (GPa) = 21.14951 25.21839 23.18395
#
# Velocity S-wave (km/s) = 3.25689 3.55641 3.40994
# Velocity P-wave (km/s) = 6.51316 7.16064 6.84456
#
# Compressibility (1/GPa) = 0.01773596
#
# Stress axis : x y z
#
# Youngs Moduli (GPa) = 66.03661 62.26461 71.92619
#
# Poissons Ratio (x) = -0.07433 0.43200
# Poissons Ratio (y) = -0.07884 0.63821
# Poissons Ratio (z) = 0.39663 0.55248
#
# Static dielectric constant tensor:
#      x y z
#    x 3.660300 0.000000 0.000000 
#    y 0.000000 3.238080 0.000000 
#    z 0.000000 0.000000 3.680980 
# 
# 
# High freq. dielectric constant tensor:
#      x y z
#    x 1.783900 0.000000 0.000000 
#    y 0.000000 1.761740 0.000000 
#    z 0.000000 0.000000 1.783340 
# 
# From -- ./inp_files/43145.got.cif
#   From: 2010.03.12/outbox.cif.g09.slc.cpg/sg68_22_cif.got.tgz:43145.got - 2010.04.10 23:14:56.
