data_PCOD8282083
_publ_section_title
;
Structure prediction by ZEFSAII (Michael W. Deem and Ramdas Pophale) SiO2 
 PCOD8282083
Probable space group: C C C A
;
_chemical_formula_sum "Si O2"
_cell_formula_units_Z 72
_cell_length_a 14.372348
_cell_length_b 14.966310
_cell_length_c 17.089621
_cell_angle_alpha 90.000000
_cell_angle_beta 90.000000
_cell_angle_gamma 90.000000
_cell_volume 3675.994833
_symmetry_space_group_name_H-M "C C C A"
_symmetry_group_IT_number 68
_space_group.IT_coordinate_system_code '2'
_symmetry_cell_setting 'orthorhombic'
loop_
_space_group_symop_operation_xyz
x,y,z
-x,1/2-y,z
x,1/2-y,1/2-z
-x,y,1/2-z
-x,-y,-z
x,1/2+y,-z
-x,1/2+y,1/2+z
x,-y,1/2+z
1/2+x,1/2+y,z
1/2-x,-y,z
1/2+x,-y,1/2-z
1/2-x,1/2+y,1/2-z
1/2-x,1/2-y,-z
1/2+x,y,-z
1/2-x,y,1/2+z
1/2+x,1/2-y,1/2+z
loop_
_atom_site_type_symbol
_atom_site_label
_atom_site_fract_x
_atom_site_fract_y
_atom_site_fract_z
Si Si1 0.250000 0.000000 0.788769
Si Si2 0.228746 0.377590 0.854859
Si Si3 0.403255 0.776690 0.838765
Si Si4 0.409671 0.974311 0.893051
Si Si5 0.110454 0.530100 0.924029
O O1 0.223615 0.085443 0.734320
O O2 0.166383 0.966670 0.846412
O O3 0.188740 0.277829 0.867094
O O4 0.165401 0.439282 0.909529
O O5 0.335554 0.385262 0.885429
O O6 0.500000 0.750000 0.883212
O O7 0.416399 0.750000 0.750000
O O8 0.393385 0.881132 0.849408
O O9 0.509709 0.021177 0.882822
O O10 0.392684 0.956569 0.983755
#
# Coordination Sequence:
#
# PCOD8282083 Si02
#       5
#     8  16  16  16  16
#     4  10  20  32  58  84 114 154 198 240 292 364
#     4  10  20  36  55  87 117 147 194 248 295 351
#     4  11  21  34  58  88 115 146 196 256 292 341
#     4  11  20  37  58  86 114 157 195 243 295 360
#     4   9  21  35  56  83 120 151 195 239 298 362
#
# _framework density 19.586534
#
# number of rings (size 3 to 8) (size 9 to 14) (size 15 to 20)
#    0.000    2.000    4.444    1.333    0.000    4.444 
#    0.000    0.000    0.000    0.000    0.000    0.000 
#    0.000    0.000    0.000    0.000    0.000    0.000 
#
# Total GULP energy -445969.786352 kJ/mol
# GULP energy per Si atom -12388.049621 kJ/mol
# Density = 1.954195 g / cm^3
# Si number density = 19.586534 Si / 1000 Ang^3
#
#
#
# Elastic Constant Matrix: (Units=GPa)
#
#
# Indices 1 2 3 4 5 6 
#
# 1 163.2926 38.3836 56.9602 0.0000 0.0000 0.0000
# 2 38.3836 55.5531 23.7832 0.0000 0.0000 0.0000
# 3 56.9602 23.7832 84.9860 0.0000 0.0000 0.0000
# 4 0.0000 0.0000 0.0000 7.1891 0.0000 0.0000
# 5 0.0000 0.0000 0.0000 0.0000 38.7781 0.0000
# 6 0.0000 0.0000 0.0000 0.0000 0.0000 -872.1288
#
#
#
# Elastic Compliance Matrix: (Units=1/GPa)
#
#
# Indices 1 2 3 4 5 6 
#
# 1 0.008710 -0.003998 -0.004719 0.000000 0.000000 0.000000
# 2 -0.003998 0.022286 -0.003557 0.000000 0.000000 0.000000
# 3 -0.004719 -0.003557 0.015925 0.000000 0.000000 0.000000
# 4 0.000000 0.000000 0.000000 0.139099 0.000000 0.000000
# 5 0.000000 0.000000 0.000000 0.000000 0.025788 0.000000
# 6 0.000000 0.000000 0.000000 0.000000 0.000000 -0.001147
#
#
# Mechanical properties :
#
#
# Convention : Reuss Voigt Hill
#
# Bulk Modulus (GPa) = 44.69696 60.23175 52.46435
# Shear Modulus (GPa) = 20.60452 -152.91866 -66.15707
#
# Velocity S-wave (km/s) = 3.24693 -8.84550 -5.81809
# Velocity P-wave (km/s) = 6.07672 8.57353 4.27662
#
# Compressibility (1/GPa) = 0.02237289
#
# Stress axis : x y z
#
# Youngs Moduli (GPa) = 114.81487 44.87152 62.79511
#
# Poissons Ratio (x) = 0.17938 0.29631
# Poissons Ratio (y) = 0.45899 0.22338
# Poissons Ratio (z) = 0.54178 0.15962
#
# Static dielectric constant tensor:
#      x y z
#    x 4.284350 0.000000 0.000000 
#    y 0.000000 3.585380 0.000000 
#    z 0.000000 0.000000 3.491720 
# 
# 
# High freq. dielectric constant tensor:
#      x y z
#    x 1.781650 0.000000 0.000000 
#    y 0.000000 1.723440 0.000000 
#    z 0.000000 0.000000 1.763150 
# 
# From -- ./inp_files/30656.got.cif
#   From: 2010.03.12/outbox.cif.g09.slc.cpg/sg68_16_cif.got.tgz:30656.got - 2010.04.10 23:14:56.
