data_PCOD8282638
_publ_section_title
;
Structure prediction by ZEFSAII (Michael W. Deem and Ramdas Pophale) SiO2 
 PCOD8282638
Probable space group: C C C A
;
_chemical_formula_sum "Si O2"
_cell_formula_units_Z 48
_cell_length_a 5.120162
_cell_length_b 13.885883
_cell_length_c 28.564946
_cell_angle_alpha 90.000000
_cell_angle_beta 90.000000
_cell_angle_gamma 90.000000
_cell_volume 2030.909687
_symmetry_space_group_name_H-M "C C C A"
_symmetry_group_IT_number 68
_space_group.IT_coordinate_system_code '2'
_symmetry_cell_setting 'orthorhombic'
loop_
_space_group_symop_operation_xyz
x,y,z
-x,1/2-y,z
x,1/2-y,1/2-z
-x,y,1/2-z
-x,-y,-z
x,1/2+y,-z
-x,1/2+y,1/2+z
x,-y,1/2+z
1/2+x,1/2+y,z
1/2-x,-y,z
1/2+x,-y,1/2-z
1/2-x,1/2+y,1/2-z
1/2-x,1/2-y,-z
1/2+x,y,-z
1/2-x,y,1/2+z
1/2+x,1/2-y,1/2+z
loop_
_atom_site_type_symbol
_atom_site_label
_atom_site_fract_x
_atom_site_fract_y
_atom_site_fract_z
Si Si1 0.747335 0.206899 0.697986
Si Si2 0.250000 0.000000 0.333893
Si Si3 0.750000 0.500000 0.104698
Si Si4 0.028567 0.636962 0.972029
O O1 0.500000 0.250000 0.670061
O O2 0.749413 0.250000 0.750000
O O3 0.000000 0.250000 0.671417
O O4 0.713702 0.091913 0.699614
O O5 0.503323 0.030019 0.363963
O O6 0.865431 0.411379 0.074937
O O7 0.000000 0.750000 0.963325
O O8 0.237277 0.604956 0.012332
#
# Coordination Sequence:
#
# PCOD8282638 Si02
#       4
#    16   8   8  16
#     4  10  23  43  68  92 123 167 215 268 322 395
#     4  12  26  41  63 100 132 168 216 272 338 385
#     4  12  24  39  63  94 136 168 206 276 332 377
#     4  10  21  39  63  90 124 173 222 258 308 385
#
# _framework density 23.634729
#
# number of rings (size 3 to 8) (size 9 to 14) (size 15 to 20)
#    0.000    1.333    0.000    5.000    0.000    9.333 
#    0.000    0.000    0.000    0.000    0.000    0.000 
#    0.000    0.000    0.000    0.000    0.000    0.000 
#
# Total GULP energy -297317.533046 kJ/mol
# GULP energy per Si atom -12388.230544 kJ/mol
# Density = 2.358094 g / cm^3
# Si number density = 23.634729 Si / 1000 Ang^3
#
#
#
# Elastic Constant Matrix: (Units=GPa)
#
#
# Indices 1 2 3 4 5 6 
#
# 1 206.6218 60.4653 28.0464 0.0000 0.0000 0.0000
# 2 60.4653 194.4623 51.4473 0.0000 0.0000 0.0000
# 3 28.0464 51.4473 79.4738 0.0000 0.0000 0.0000
# 4 0.0000 0.0000 0.0000 4.6679 0.0000 0.0000
# 5 0.0000 0.0000 0.0000 0.0000 -15.4112 0.0000
# 6 0.0000 0.0000 0.0000 0.0000 0.0000 32.3514
#
#
#
# Elastic Compliance Matrix: (Units=1/GPa)
#
#
# Indices 1 2 3 4 5 6 
#
# 1 0.005387 -0.001414 -0.000986 0.000000 0.000000 0.000000
# 2 -0.001414 0.006576 -0.003758 0.000000 0.000000 0.000000
# 3 -0.000986 -0.003758 0.015363 0.000000 0.000000 0.000000
# 4 0.000000 0.000000 0.000000 0.214230 0.000000 0.000000
# 5 0.000000 0.000000 0.000000 0.000000 -0.064888 0.000000
# 6 0.000000 0.000000 0.000000 0.000000 0.000000 0.030911
#
#
# Mechanical properties :
#
#
# Convention : Reuss Voigt Hill
#
# Bulk Modulus (GPa) = 66.61769 84.49731 75.55750
# Shear Modulus (GPa) = 22.23213 27.02821 24.63017
#
# Velocity S-wave (km/s) = 3.07034 3.38536 3.23169
# Velocity P-wave (km/s) = 6.38881 7.14911 6.77963
#
# Compressibility (1/GPa) = 0.01501103
#
# Stress axis : x y z
#
# Youngs Moduli (GPa) = 185.61656 152.05835 65.08972
#
# Poissons Ratio (x) = 0.21507 0.06415
# Poissons Ratio (y) = 0.26253 0.24461
# Poissons Ratio (z) = 0.18295 0.57145
#
# Static dielectric constant tensor:
#      x y z
#    x 5.760980 0.000000 0.000000 
#    y 0.000000 4.258340 0.000000 
#    z 0.000000 0.000000 3.820090 
# 
# 
# High freq. dielectric constant tensor:
#      x y z
#    x 1.977080 0.000000 0.000000 
#    y 0.000000 1.948270 0.000000 
#    z 0.000000 0.000000 1.897140 
# 
# From -- ./inp_files/47871.got.cif
#   From: 2010.03.12/outbox.cif.g09.slc.cpg/sg68_24_cif.got.tgz:47871.got - 2010.04.10 23:14:56.
