data_PCOD8282927
_publ_section_title
;
Structure prediction by ZEFSAII (Michael W. Deem and Ramdas Pophale) SiO2 
 PCOD8282927
Probable space group: C C C A
;
_chemical_formula_sum "Si O2"
_cell_formula_units_Z 96
_cell_length_a 25.335475
_cell_length_b 8.431649
_cell_length_c 22.828679
_cell_angle_alpha 90.000000
_cell_angle_beta 90.000000
_cell_angle_gamma 90.000000
_cell_volume 4876.658583
_symmetry_space_group_name_H-M "C C C A"
_symmetry_group_IT_number 68
_space_group.IT_coordinate_system_code '2'
_symmetry_cell_setting 'orthorhombic'
loop_
_space_group_symop_operation_xyz
x,y,z
-x,1/2-y,z
x,1/2-y,1/2-z
-x,y,1/2-z
-x,-y,-z
x,1/2+y,-z
-x,1/2+y,1/2+z
x,-y,1/2+z
1/2+x,1/2+y,z
1/2-x,-y,z
1/2+x,-y,1/2-z
1/2-x,1/2+y,1/2-z
1/2-x,1/2-y,-z
1/2+x,y,-z
1/2-x,y,1/2+z
1/2+x,1/2-y,1/2+z
loop_
_atom_site_type_symbol
_atom_site_label
_atom_site_fract_x
_atom_site_fract_y
_atom_site_fract_z
Si Si1 0.500000 0.250000 0.904664
Si Si2 0.409040 0.463396 0.953823
Si Si3 0.412559 0.440446 0.653306
Si Si4 0.764015 0.315917 0.936963
Si Si5 0.385516 0.806097 0.927902
Si Si6 0.131862 0.250000 0.250000
Si Si7 0.331372 0.700685 0.371536
O O1 0.461299 0.359367 0.942998
O O2 0.468982 0.129785 0.863193
O O3 0.419282 0.650725 0.945251
O O4 0.360597 0.433366 0.909261
O O5 0.392057 0.435727 0.020627
O O6 0.408909 0.624780 0.633793
O O7 0.403085 0.394667 0.721875
O O8 0.365221 0.360082 0.615312
O O9 0.750000 0.500000 0.933109
O O10 0.823570 0.272467 0.920605
O O11 0.728990 0.220576 0.889816
O O12 0.750000 0.250000 0.000000
O O13 0.166581 0.333069 0.301228
#
# Coordination Sequence:
#
# PCOD8282927 Si02
#       7
#     8  16  16  16  16   8  16
#     4  10  22  41  66  90 120 172 213 262 338 388
#     4  11  23  38  59  97 128 165 215 265 330 388
#     4   9  20  39  63  90 116 166 215 259 314 380
#     4  12  21  34  61  90 125 170 207 253 327 388
#     4  12  23  37  61  94 136 165 210 275 320 393
#     4   8  18  41  68  86 124 164 218 259 308 382
#     4   9  19  38  61  88 122 163 211 255 311 387
#
# _framework density 19.68561
#
# number of rings (size 3 to 8) (size 9 to 14) (size 15 to 20)
#    1.000    0.667    3.333    3.000    0.000    3.667 
#    0.000    0.833   11.000    0.000    4.333    0.000 
#    0.000    0.000    0.000    0.000    0.000    0.000 
#
# Total GULP energy -594701.545094 kJ/mol
# GULP energy per Si atom -12389.615523 kJ/mol
# Density = 1.964080 g / cm^3
# Si number density = 19.685610 Si / 1000 Ang^3
#
#
#
# Elastic Constant Matrix: (Units=GPa)
#
#
# Indices 1 2 3 4 5 6 
#
# 1 119.0065 30.7966 40.3910 0.0000 0.0000 0.0000
# 2 30.7966 104.1582 40.2220 0.0000 0.0000 0.0000
# 3 40.3910 40.2220 135.1399 0.0000 0.0000 0.0000
# 4 0.0000 0.0000 0.0000 31.2006 0.0000 0.0000
# 5 0.0000 0.0000 0.0000 0.0000 29.0798 0.0000
# 6 0.0000 0.0000 0.0000 0.0000 0.0000 24.2555
#
#
#
# Elastic Compliance Matrix: (Units=1/GPa)
#
#
# Indices 1 2 3 4 5 6 
#
# 1 0.009698 -0.001975 -0.002311 0.000000 0.000000 0.000000
# 2 -0.001975 0.011250 -0.002758 0.000000 0.000000 0.000000
# 3 -0.002311 -0.002758 0.008911 0.000000 0.000000 0.000000
# 4 0.000000 0.000000 0.000000 0.032051 0.000000 0.000000
# 5 0.000000 0.000000 0.000000 0.000000 0.034388 0.000000
# 6 0.000000 0.000000 0.000000 0.000000 0.000000 0.041228
#
#
# Mechanical properties :
#
#
# Convention : Reuss Voigt Hill
#
# Bulk Modulus (GPa) = 63.40536 64.56930 63.98733
# Shear Modulus (GPa) = 31.87333 33.36684 32.62008
#
# Velocity S-wave (km/s) = 4.02819 4.12149 4.07511
# Velocity P-wave (km/s) = 7.34262 7.45120 7.39711
#
# Compressibility (1/GPa) = 0.01577154
#
# Stress axis : x y z
#
# Youngs Moduli (GPa) = 103.11054 88.89050 112.21765
#
# Poissons Ratio (x) = 0.17557 0.25931
# Poissons Ratio (y) = 0.20366 0.30949
# Poissons Ratio (z) = 0.23827 0.24516
#
# Static dielectric constant tensor:
#      x y z
#    x 3.484960 0.000000 0.000000 
#    y 0.000000 3.473560 0.000000 
#    z 0.000000 0.000000 3.366650 
# 
# 
# High freq. dielectric constant tensor:
#      x y z
#    x 1.764700 0.000000 0.000000 
#    y 0.000000 1.756630 0.000000 
#    z 0.000000 0.000000 1.749420 
# 
# From -- ./inp_files/52125.got.cif
#   From: 2010.03.12/outbox.cif.g09.slc.cpg/sg68_27_cif.got.tgz:52125.got - 2010.04.10 23:14:56.
