data_PCOD8282285
_publ_section_title
;
Structure prediction by ZEFSAII (Michael W. Deem and Ramdas Pophale) SiO2 
 PCOD8282285
Probable space group: C C C A
;
_chemical_formula_sum "Si O2"
_cell_formula_units_Z 120
_cell_length_a 22.086557
_cell_length_b 13.444997
_cell_length_c 20.547984
_cell_angle_alpha 90.000000
_cell_angle_beta 90.000000
_cell_angle_gamma 90.000000
_cell_volume 6101.799724
_symmetry_space_group_name_H-M "C C C A"
_symmetry_group_IT_number 68
_space_group.IT_coordinate_system_code '2'
_symmetry_cell_setting 'orthorhombic'
loop_
_space_group_symop_operation_xyz
x,y,z
-x,1/2-y,z
x,1/2-y,1/2-z
-x,y,1/2-z
-x,-y,-z
x,1/2+y,-z
-x,1/2+y,1/2+z
x,-y,1/2+z
1/2+x,1/2+y,z
1/2-x,-y,z
1/2+x,-y,1/2-z
1/2-x,1/2+y,1/2-z
1/2-x,1/2-y,-z
1/2+x,y,-z
1/2-x,y,1/2+z
1/2+x,1/2-y,1/2+z
loop_
_atom_site_type_symbol
_atom_site_label
_atom_site_fract_x
_atom_site_fract_y
_atom_site_fract_z
Si Si1 0.000000 0.964927 0.750000
Si Si2 0.651769 0.077912 0.937408
Si Si3 0.807989 0.071046 0.574183
Si Si4 0.694095 0.567824 0.672709
Si Si5 0.122627 0.032162 0.793783
Si Si6 0.552831 0.680772 0.141240
Si Si7 0.842641 0.187586 0.194149
Si Si8 0.752829 0.262949 0.100107
O O1 0.970629 0.899366 0.807071
O O2 0.950294 0.035453 0.714072
O O3 0.588110 0.129434 0.919030
O O4 0.708138 0.154914 0.937865
O O5 0.661122 0.988315 0.886925
O O6 0.652379 0.036021 0.011370
O O7 0.852924 0.068900 0.636447
O O8 0.788804 0.186556 0.559448
O O9 0.750000 0.000000 0.583851
O O10 0.750000 0.500000 0.696443
O O11 0.651430 0.592048 0.733957
O O12 0.711723 0.677812 0.650775
O O13 0.142900 0.920090 0.780192
O O14 0.500000 0.750000 0.111324
O O15 0.595764 0.755160 0.179515
O O16 0.808211 0.250000 0.250000
O O17 0.798117 0.183882 0.133438
#
# Coordination Sequence:
#
# PCOD8282285 Si02
#       8
#     8  16  16  16  16  16  16  16
#     4  12  21  38  62  91 120 160 206 263 312 349
#     4  10  22  40  61  93 125 159 200 250 320 386
#     4  12  24  39  61  93 129 162 206 253 310 375
#     4  10  20  38  59  88 125 160 196 243 315 382
#     4  12  23  36  60  91 123 161 206 261 303 366
#     4  11  19  34  63  90 118 155 205 261 312 358
#     4  11  18  31  55  95 120 147 193 251 314 364
#     4  10  22  36  60  86 125 165 194 246 307 379
#
# _framework density 19.666328
#
# number of rings (size 3 to 8) (size 9 to 14) (size 15 to 20)
#    0.000    1.067    5.333    3.800    1.867    0.000 
#    0.000    0.667    2.933    0.800    0.000    0.000 
#    0.000    0.000    0.000    0.000    0.000    0.000 
#
# Total GULP energy -743569.384897 kJ/mol
# GULP energy per Si atom -12392.823082 kJ/mol
# Density = 1.962157 g / cm^3
# Si number density = 19.666328 Si / 1000 Ang^3
#
#
#
# Elastic Constant Matrix: (Units=GPa)
#
#
# Indices 1 2 3 4 5 6 
#
# 1 102.3010 24.1844 56.8891 0.0000 0.0000 0.0000
# 2 24.1844 47.1209 13.4698 0.0000 0.0000 0.0000
# 3 56.8891 13.4698 133.4740 0.0000 0.0000 0.0000
# 4 0.0000 0.0000 0.0000 7.3052 0.0000 0.0000
# 5 0.0000 0.0000 0.0000 0.0000 18.6836 0.0000
# 6 0.0000 0.0000 0.0000 0.0000 0.0000 13.4949
#
#
#
# Elastic Compliance Matrix: (Units=1/GPa)
#
#
# Indices 1 2 3 4 5 6 
#
# 1 0.014160 -0.005707 -0.005459 0.000000 0.000000 0.000000
# 2 -0.005707 0.024152 -0.000005 0.000000 0.000000 0.000000
# 3 -0.005459 -0.000005 0.009819 0.000000 0.000000 0.000000
# 4 0.000000 0.000000 0.000000 0.136889 0.000000 0.000000
# 5 0.000000 0.000000 0.000000 0.000000 0.053523 0.000000
# 6 0.000000 0.000000 0.000000 0.000000 0.000000 0.074102
#
#
# Mechanical properties :
#
#
# Convention : Reuss Voigt Hill
#
# Bulk Modulus (GPa) = 38.77555 52.44250 45.60903
# Shear Modulus (GPa) = 14.55241 20.45357 17.50299
#
# Velocity S-wave (km/s) = 2.72318 3.22845 2.98652
# Velocity P-wave (km/s) = 5.44492 6.37348 5.92741
#
# Compressibility (1/GPa) = 0.02578944
#
# Stress axis : x y z
#
# Youngs Moduli (GPa) = 70.62061 41.40359 101.83828
#
# Poissons Ratio (x) = 0.23629 0.55598
# Poissons Ratio (y) = 0.40303 0.00051
# Poissons Ratio (z) = 0.38555 0.00021
#
# Static dielectric constant tensor:
#      x y z
#    x 3.710890 0.000000 0.000000 
#    y 0.000000 3.229360 0.000000 
#    z 0.000000 0.000000 3.470630 
# 
# 
# High freq. dielectric constant tensor:
#      x y z
#    x 1.751990 0.000000 0.000000 
#    y 0.000000 1.753190 0.000000 
#    z 0.000000 0.000000 1.763480 
# 
# From -- ./inp_files/40400.got.cif
#   From: 2010.03.12/outbox.cif.g09.slc.cpg/sg68_21_cif.got.tgz:40400.got - 2010.04.10 23:14:56.
