data_PCOD8282882
_publ_section_title
;
Structure prediction by ZEFSAII (Michael W. Deem and Ramdas Pophale) SiO2 
 PCOD8282882
Probable space group: C C C A
;
_chemical_formula_sum "Si O2"
_cell_formula_units_Z 104
_cell_length_a 19.285114
_cell_length_b 20.195735
_cell_length_c 13.238387
_cell_angle_alpha 90.000000
_cell_angle_beta 90.000000
_cell_angle_gamma 90.000000
_cell_volume 5156.047939
_symmetry_space_group_name_H-M "C C C A"
_symmetry_group_IT_number 68
_space_group.IT_coordinate_system_code '2'
_symmetry_cell_setting 'orthorhombic'
loop_
_space_group_symop_operation_xyz
x,y,z
-x,1/2-y,z
x,1/2-y,1/2-z
-x,y,1/2-z
-x,-y,-z
x,1/2+y,-z
-x,1/2+y,1/2+z
x,-y,1/2+z
1/2+x,1/2+y,z
1/2-x,-y,z
1/2+x,-y,1/2-z
1/2-x,1/2+y,1/2-z
1/2-x,1/2-y,-z
1/2+x,y,-z
1/2-x,y,1/2+z
1/2+x,1/2-y,1/2+z
loop_
_atom_site_type_symbol
_atom_site_label
_atom_site_fract_x
_atom_site_fract_y
_atom_site_fract_z
Si Si1 0.298094 0.059228 0.237873
Si Si2 0.332353 0.335954 0.101821
Si Si3 0.751691 0.250000 0.750000
Si Si4 0.014166 0.671444 0.043872
Si Si5 0.042255 0.089438 0.147808
Si Si6 0.950090 0.443423 0.658898
Si Si7 0.691967 0.362187 0.628117
O O1 0.302479 0.101418 0.339741
O O2 0.373554 0.041601 0.198339
O O3 0.260552 0.093855 0.142867
O O4 0.250000 0.000000 0.274353
O O5 0.302308 0.271689 0.158313
O O6 0.415593 0.338463 0.107242
O O7 0.308527 0.336206 0.986110
O O8 0.698121 0.302890 0.707284
O O9 0.000000 0.750000 0.046072
O O10 0.954654 0.622663 0.089434
O O11 0.019885 0.646690 0.929348
O O12 0.124770 0.096494 0.162085
O O13 0.000000 0.102346 0.250000
O O14 0.027082 0.014011 0.107785
O O15 0.000000 0.427080 0.750000
#
# Coordination Sequence:
#
# PCOD8282882 Si02
#       7
#    16  16   8  16  16  16  16
#     4  11  22  42  65  94 126 172 220 270 332 387
#     4  10  23  41  62  95 131 167 218 268 326 392
#     4  10  22  40  66  88 132 174 208 268 328 388
#     4  11  25  40  65 100 132 172 217 269 333 396
#     4  10  23  44  65  91 131 174 222 271 320 389
#     4  11  22  43  68  94 129 168 221 274 330 387
#     4  10  22  41  62  95 127 171 216 272 320 394
#
# _framework density 20.170487000000001
#
# number of rings (size 3 to 8) (size 9 to 14) (size 15 to 20)
#    0.000    1.538    3.077    0.923    4.308    3.692 
#    5.538    0.000    0.000    0.000    0.000    0.000 
#    0.000    0.000    0.000    0.000    0.000    0.000 
#
# Total GULP energy -644378.804621 kJ/mol
# GULP energy per Si atom -12391.900089 kJ/mol
# Density = 2.012458 g / cm^3
# Si number density = 20.170487 Si / 1000 Ang^3
#
#
#
# Elastic Constant Matrix: (Units=GPa)
#
#
# Indices 1 2 3 4 5 6 
#
# 1 108.4259 41.2076 52.1986 0.0000 0.0000 0.0000
# 2 41.2076 143.5152 46.1605 0.0000 0.0000 0.0000
# 3 52.1986 46.1605 96.0133 0.0000 0.0000 0.0000
# 4 0.0000 0.0000 0.0000 17.6879 0.0000 0.0000
# 5 0.0000 0.0000 0.0000 0.0000 31.1613 0.0000
# 6 0.0000 0.0000 0.0000 0.0000 0.0000 29.7863
#
#
#
# Elastic Compliance Matrix: (Units=1/GPa)
#
#
# Indices 1 2 3 4 5 6 
#
# 1 0.012836 -0.001705 -0.006159 0.000000 0.000000 0.000000
# 2 -0.001705 0.008469 -0.003145 0.000000 0.000000 0.000000
# 3 -0.006159 -0.003145 0.015275 0.000000 0.000000 0.000000
# 4 0.000000 0.000000 0.000000 0.056536 0.000000 0.000000
# 5 0.000000 0.000000 0.000000 0.000000 0.032091 0.000000
# 6 0.000000 0.000000 0.000000 0.000000 0.000000 0.033572
#
#
# Mechanical properties :
#
#
# Convention : Reuss Voigt Hill
#
# Bulk Modulus (GPa) = 68.66438 69.67644 69.17041
# Shear Modulus (GPa) = 26.93236 29.61960 28.27598
#
# Velocity S-wave (km/s) = 3.65805 3.83621 3.74819
# Velocity P-wave (km/s) = 7.20817 7.36483 7.28692
#
# Compressibility (1/GPa) = 0.01456359
#
# Stress axis : x y z
#
# Youngs Moduli (GPa) = 77.90790 118.07949 65.46459
#
# Poissons Ratio (x) = 0.20128 0.40318
# Poissons Ratio (y) = 0.13280 0.20588
# Poissons Ratio (z) = 0.47981 0.37134
#
# Static dielectric constant tensor:
#      x y z
#    x 3.921170 0.000000 0.000000 
#    y 0.000000 3.900060 0.000000 
#    z 0.000000 0.000000 3.511210 
# 
# 
# High freq. dielectric constant tensor:
#      x y z
#    x 1.792200 0.000000 0.000000 
#    y 0.000000 1.801770 0.000000 
#    z 0.000000 0.000000 1.780180 
# 
# From -- ./inp_files/23802.got.cif
#   From: 2010.03.12/outbox.cif.g09.slc.cpg/sg68_12_cif.got.tgz:23802.got - 2010.04.10 23:14:56.
