data_PCOD8282626
_publ_section_title
;
Structure prediction by ZEFSAII (Michael W. Deem and Ramdas Pophale) SiO2 
 PCOD8282626
Probable space group: C C C A
;
_chemical_formula_sum "Si O2"
_cell_formula_units_Z 116
_cell_length_a 24.406132
_cell_length_b 12.541713
_cell_length_c 18.453460
_cell_angle_alpha 90.000000
_cell_angle_beta 90.000000
_cell_angle_gamma 90.000000
_cell_volume 5648.506358
_symmetry_space_group_name_H-M "C C C A"
_symmetry_group_IT_number 68
_space_group.IT_coordinate_system_code '2'
_symmetry_cell_setting 'orthorhombic'
loop_
_space_group_symop_operation_xyz
x,y,z
-x,1/2-y,z
x,1/2-y,1/2-z
-x,y,1/2-z
-x,-y,-z
x,1/2+y,-z
-x,1/2+y,1/2+z
x,-y,1/2+z
1/2+x,1/2+y,z
1/2-x,-y,z
1/2+x,-y,1/2-z
1/2-x,1/2+y,1/2-z
1/2-x,1/2-y,-z
1/2+x,y,-z
1/2-x,y,1/2+z
1/2+x,1/2-y,1/2+z
loop_
_atom_site_type_symbol
_atom_site_label
_atom_site_fract_x
_atom_site_fract_y
_atom_site_fract_z
Si Si1 0.643513 0.962718 0.444837
Si Si2 0.446825 0.555105 0.332730
Si Si3 0.289967 0.904502 0.664812
Si Si4 0.312092 0.965163 0.410904
Si Si5 0.000000 0.250000 0.250000
Si Si6 0.128223 0.066074 0.780753
Si Si7 0.718086 0.734704 0.073742
Si Si8 0.979359 0.357520 0.829441
O O1 0.584122 0.940973 0.409886
O O2 0.672760 0.851698 0.438444
O O3 0.676098 0.055803 0.404431
O O4 0.643539 0.996301 0.529188
O O5 0.466586 0.671556 0.304749
O O6 0.407479 0.514356 0.268393
O O7 0.496027 0.472492 0.352593
O O8 0.331843 0.867728 0.727627
O O9 0.257822 0.799246 0.639820
O O10 0.250000 0.000000 0.691742
O O11 0.313961 0.839111 0.402814
O O12 0.250000 0.000000 0.431582
O O13 0.330644 0.006267 0.333557
O O14 0.087119 0.139645 0.828216
O O15 0.750000 0.750000 0.000000
O O16 0.000000 0.250000 0.873684
O O17 0.000000 0.337611 0.750000
#
# Coordination Sequence:
#
# PCOD8282626 Si02
#       8
#    16  16  16  16   4  16  16  16
#     4  10  21  39  62  86 125 174 213 255 321 398
#     4  10  22  40  67  94 122 167 217 271 341 391
#     4   9  18  38  59  86 127 166 209 255 315 387
#     4  12  23  40  59  92 133 164 219 265 316 399
#     4  12  20  40  70  92 128 156 216 292 340 384
#     4  10  21  39  61  94 124 163 210 272 329 385
#     4  11  20  38  63  85 126 178 213 255 318 386
#     4   9  18  41  62  85 124 162 209 268 329 392
#
# _framework density 20.536401999999999
#
# number of rings (size 3 to 8) (size 9 to 14) (size 15 to 20)
#    0.000    1.793    4.828    0.828    1.931    0.000 
#   14.897    4.828    1.517    0.000    0.000    0.000 
#    0.000    0.000    0.000    0.000    0.000    0.000 
#
# Total GULP energy -718606.172930 kJ/mol
# GULP energy per Si atom -12389.761602 kJ/mol
# Density = 2.048966 g / cm^3
# Si number density = 20.536402 Si / 1000 Ang^3
#
#
#
# Elastic Constant Matrix: (Units=GPa)
#
#
# Indices 1 2 3 4 5 6 
#
# 1 103.6880 44.5272 48.9236 0.0000 0.0000 0.0000
# 2 44.5272 129.2721 42.7580 0.0000 0.0000 0.0000
# 3 48.9236 42.7580 84.5049 0.0000 0.0000 0.0000
# 4 0.0000 0.0000 0.0000 3.3379 0.0000 0.0000
# 5 0.0000 0.0000 0.0000 0.0000 25.0676 0.0000
# 6 0.0000 0.0000 0.0000 0.0000 0.0000 35.7492
#
#
#
# Elastic Compliance Matrix: (Units=1/GPa)
#
#
# Indices 1 2 3 4 5 6 
#
# 1 0.013941 -0.002561 -0.006775 0.000000 0.000000 0.000000
# 2 -0.002561 0.009761 -0.003456 0.000000 0.000000 0.000000
# 3 -0.006775 -0.003456 0.017505 0.000000 0.000000 0.000000
# 4 0.000000 0.000000 0.000000 0.299588 0.000000 0.000000
# 5 0.000000 0.000000 0.000000 0.000000 0.039892 0.000000
# 6 0.000000 0.000000 0.000000 0.000000 0.000000 0.027973
#
#
# Mechanical properties :
#
#
# Convention : Reuss Voigt Hill
#
# Bulk Modulus (GPa) = 64.01240 65.54251 64.77745
# Shear Modulus (GPa) = 11.37782 24.91471 18.14626
#
# Velocity S-wave (km/s) = 2.35634 3.48688 2.97579
# Velocity P-wave (km/s) = 6.21619 6.94231 6.58926
#
# Compressibility (1/GPa) = 0.01562197
#
# Stress axis : x y z
#
# Youngs Moduli (GPa) = 71.73184 102.44967 57.12695
#
# Poissons Ratio (x) = 0.26236 0.38705
# Poissons Ratio (y) = 0.18370 0.19744
# Poissons Ratio (z) = 0.48600 0.35409
#
# Static dielectric constant tensor:
#      x y z
#    x 3.840610 0.000000 0.000000 
#    y 0.000000 4.322510 0.000000 
#    z 0.000000 0.000000 3.422030 
# 
# 
# High freq. dielectric constant tensor:
#      x y z
#    x 1.798880 0.000000 0.000000 
#    y 0.000000 1.807050 0.000000 
#    z 0.000000 0.000000 1.780650 
# 
# From -- ./inp_files/34177.got.cif
#   From: 2010.03.12/outbox.cif.g09.slc.cpg/sg68_18_cif.got.tgz:34177.got - 2010.04.10 23:14:56.
