data_PCOD8282058
_publ_section_title
;
Structure prediction by ZEFSAII (Michael W. Deem and Ramdas Pophale) SiO2 
 PCOD8282058
Probable space group: C C C A
;
_chemical_formula_sum "Si O2"
_cell_formula_units_Z 56
_cell_length_a 11.579311
_cell_length_b 9.757311
_cell_length_c 21.889141
_cell_angle_alpha 90.000000
_cell_angle_beta 90.000000
_cell_angle_gamma 90.000000
_cell_volume 2473.099473
_symmetry_space_group_name_H-M "C C C A"
_symmetry_group_IT_number 68
_space_group.IT_coordinate_system_code '2'
_symmetry_cell_setting 'orthorhombic'
loop_
_space_group_symop_operation_xyz
x,y,z
-x,1/2-y,z
x,1/2-y,1/2-z
-x,y,1/2-z
-x,-y,-z
x,1/2+y,-z
-x,1/2+y,1/2+z
x,-y,1/2+z
1/2+x,1/2+y,z
1/2-x,-y,z
1/2+x,-y,1/2-z
1/2-x,1/2+y,1/2-z
1/2-x,1/2-y,-z
1/2+x,y,-z
1/2-x,y,1/2+z
1/2+x,1/2-y,1/2+z
loop_
_atom_site_type_symbol
_atom_site_label
_atom_site_fract_x
_atom_site_fract_y
_atom_site_fract_z
Si Si1 0.112309 0.990126 0.929809
Si Si2 0.750000 0.500000 0.126664
Si Si3 0.526029 0.592003 0.683189
Si Si4 0.864389 0.195410 0.469515
O O1 0.054024 0.014843 0.865119
O O2 0.250000 0.000000 0.922950
O O3 0.067513 0.835626 0.949029
O O4 0.069475 0.101464 0.979878
O O5 0.661912 0.418629 0.169348
O O6 0.828444 0.397944 0.087193
O O7 0.500000 0.750000 0.681304
O O8 0.500000 0.529152 0.750000
O O9 0.750000 0.250000 0.500000
#
# Coordination Sequence:
#
# PCOD8282058 Si02
#       4
#    16   8  16  16
#     4  10  21  41  70 105 142 184 235 294 366 428
#     4  12  24  46  70 104 146 180 246 300 358 440
#     4  11  27  48  72 102 141 200 240 293 356 431
#     4  10  19  40  67 107 144 178 228 298 367 426
#
# _framework density 22.643650000000001
#
# number of rings (size 3 to 8) (size 9 to 14) (size 15 to 20)
#    0.000    1.429    4.286    3.429    2.000    2.286 
#    5.143    1.429    0.000    0.000    0.000    0.000 
#    0.000    0.000    0.000    0.000    0.000    0.000 
#
# Total GULP energy -347223.774968 kJ/mol
# GULP energy per Si atom -12400.849106 kJ/mol
# Density = 2.259211 g / cm^3
# Si number density = 22.643650 Si / 1000 Ang^3
#
#
#
# Elastic Constant Matrix: (Units=GPa)
#
#
# Indices 1 2 3 4 5 6 
#
# 1 95.2693 45.7476 71.8600 0.0000 0.0000 0.0000
# 2 45.7476 161.6446 91.2429 0.0000 0.0000 0.0000
# 3 71.8600 91.2429 198.1391 0.0000 0.0000 0.0000
# 4 0.0000 0.0000 0.0000 35.9113 0.0000 0.0000
# 5 0.0000 0.0000 0.0000 0.0000 -18.6875 0.0000
# 6 0.0000 0.0000 0.0000 0.0000 0.0000 55.6182
#
#
#
# Elastic Compliance Matrix: (Units=1/GPa)
#
#
# Indices 1 2 3 4 5 6 
#
# 1 0.014734 -0.001559 -0.004626 0.000000 0.000000 0.000000
# 2 -0.001559 0.008524 -0.003360 0.000000 0.000000 0.000000
# 3 -0.004626 -0.003360 0.008272 0.000000 0.000000 0.000000
# 4 0.000000 0.000000 0.000000 0.027846 0.000000 0.000000
# 5 0.000000 0.000000 0.000000 0.000000 -0.053512 0.000000
# 6 0.000000 0.000000 0.000000 0.000000 0.000000 0.017980
#
#
# Mechanical properties :
#
#
# Convention : Reuss Voigt Hill
#
# Bulk Modulus (GPa) = 80.37999 96.97267 88.67633
# Shear Modulus (GPa) = 106.19871 30.98190 68.59031
#
# Velocity S-wave (km/s) = 6.85579 3.70298 5.50971
# Velocity P-wave (km/s) = 9.91181 7.82313 8.92875
#
# Compressibility (1/GPa) = 0.01244091
#
# Stress axis : x y z
#
# Youngs Moduli (GPa) = 67.86857 117.31288 120.89033
#
# Poissons Ratio (x) = 0.18287 0.55923
# Poissons Ratio (y) = 0.10580 0.40620
# Poissons Ratio (z) = 0.31395 0.39418
#
# Static dielectric constant tensor:
#      x y z
#    x 4.408480 0.000000 0.000000 
#    y 0.000000 4.775510 0.000000 
#    z 0.000000 0.000000 4.633560 
# 
# 
# High freq. dielectric constant tensor:
#      x y z
#    x 1.932300 0.000000 0.000000 
#    y 0.000000 1.912490 0.000000 
#    z 0.000000 0.000000 1.881310 
# 
# From -- ./inp_files/38106.got.cif
#   From: 2010.03.12/outbox.cif.g09.slc.cpg/sg68_20_cif.got.tgz:38106.got - 2010.04.10 23:14:56.
