data_PCOD8282143
_publ_section_title
;
Structure prediction by ZEFSAII (Michael W. Deem and Ramdas Pophale) SiO2 
 PCOD8282143
Probable space group: C C C A
;
_chemical_formula_sum "Si O2"
_cell_formula_units_Z 64
_cell_length_a 17.948465
_cell_length_b 21.107278
_cell_length_c 8.036263
_cell_angle_alpha 90.000000
_cell_angle_beta 90.000000
_cell_angle_gamma 90.000000
_cell_volume 3044.483916
_symmetry_space_group_name_H-M "C C C A"
_symmetry_group_IT_number 68
_space_group.IT_coordinate_system_code '2'
_symmetry_cell_setting 'orthorhombic'
loop_
_space_group_symop_operation_xyz
x,y,z
-x,1/2-y,z
x,1/2-y,1/2-z
-x,y,1/2-z
-x,-y,-z
x,1/2+y,-z
-x,1/2+y,1/2+z
x,-y,1/2+z
1/2+x,1/2+y,z
1/2-x,-y,z
1/2+x,-y,1/2-z
1/2-x,1/2+y,1/2-z
1/2-x,1/2-y,-z
1/2+x,y,-z
1/2-x,y,1/2+z
1/2+x,1/2-y,1/2+z
loop_
_atom_site_type_symbol
_atom_site_label
_atom_site_fract_x
_atom_site_fract_y
_atom_site_fract_z
Si Si1 0.579969 0.559423 0.297512
Si Si2 0.721443 0.617463 0.917430
Si Si3 0.836373 0.455228 0.619252
Si Si4 0.149089 0.821210 0.713342
O O1 0.500000 0.529125 0.250000
O O2 0.594451 0.556791 0.495521
O O3 0.648451 0.525153 0.197200
O O4 0.578765 0.632645 0.241381
O O5 0.663784 0.590940 0.780139
O O6 0.787414 0.658442 0.841747
O O7 0.757355 0.557817 0.023071
O O8 0.677090 0.668655 0.025926
O O9 0.123886 0.750000 0.750000
#
# Coordination Sequence:
#
# PCOD8282143 Si02
#       4
#    16  16  16  16
#     4  11  23  37  54  79 112 153 192 228 276 344
#     4   9  20  36  57  86 113 137 180 240 301 348
#     4  10  21  36  57  84 114 144 182 240 298 344
#     4  10  20  35  56  81 110 147 185 231 285 344
#
# _framework density 21.021625
#
# number of rings (size 3 to 8) (size 9 to 14) (size 15 to 20)
#    0.000    2.000    0.000    3.000    0.000   17.500 
#    0.000    0.000    0.000    0.000    0.000   17.500 
#    0.000    0.000    0.000    0.000    0.000    0.000 
#
# Total GULP energy -396482.331226 kJ/mol
# GULP energy per Si atom -12390.072851 kJ/mol
# Density = 2.097378 g / cm^3
# Si number density = 21.021625 Si / 1000 Ang^3
#
#
#
# Elastic Constant Matrix: (Units=GPa)
#
#
# Indices 1 2 3 4 5 6 
#
# 1 58.4461 9.3288 44.8423 0.0000 0.0000 0.0000
# 2 9.3288 114.5631 39.2311 0.0000 0.0000 0.0000
# 3 44.8423 39.2311 144.1855 0.0000 0.0000 0.0000
# 4 0.0000 0.0000 0.0000 25.5088 0.0000 0.0000
# 5 0.0000 0.0000 0.0000 0.0000 25.4322 0.0000
# 6 0.0000 0.0000 0.0000 0.0000 0.0000 16.0839
#
#
#
# Elastic Compliance Matrix: (Units=1/GPa)
#
#
# Indices 1 2 3 4 5 6 
#
# 1 0.022512 0.000622 -0.007171 0.000000 0.000000 0.000000
# 2 0.000622 0.009643 -0.002817 0.000000 0.000000 0.000000
# 3 -0.007171 -0.002817 0.009932 0.000000 0.000000 0.000000
# 4 0.000000 0.000000 0.000000 0.039202 0.000000 0.000000
# 5 0.000000 0.000000 0.000000 0.000000 0.039320 0.000000
# 6 0.000000 0.000000 0.000000 0.000000 0.000000 0.062174
#
#
# Mechanical properties :
#
#
# Convention : Reuss Voigt Hill
#
# Bulk Modulus (GPa) = 42.81554 55.99988 49.40771
# Shear Modulus (GPa) = 23.88916 28.32449 26.10682
#
# Velocity S-wave (km/s) = 3.37472 3.67467 3.52789
# Velocity P-wave (km/s) = 5.96629 6.68590 6.33632
#
# Compressibility (1/GPa) = 0.02335601
#
# Stress axis : x y z
#
# Youngs Moduli (GPa) = 44.42053 103.70340 100.68288
#
# Poissons Ratio (x) = -0.06455 0.72197
# Poissons Ratio (y) = -0.02765 0.28365
# Poissons Ratio (z) = 0.31853 0.29216
#
# Static dielectric constant tensor:
#      x y z
#    x 3.426820 0.000000 0.000000 
#    y 0.000000 3.678320 0.000000 
#    z 0.000000 0.000000 4.181750 
# 
# 
# High freq. dielectric constant tensor:
#      x y z
#    x 1.792120 0.000000 0.000000 
#    y 0.000000 1.806640 0.000000 
#    z 0.000000 0.000000 1.846440 
# 
# From -- ./inp_files/5782.got.cif
#   From: 2010.03.12/outbox.cif.g09.slc.cpg/sg68_3_cif.got.tgz:5782.got - 2010.04.10 23:14:56.
