data_PCOD8282049
_publ_section_title
;
Structure prediction by ZEFSAII (Michael W. Deem and Ramdas Pophale) SiO2 
 PCOD8282049
Probable space group: C C C A
;
_chemical_formula_sum "Si O2"
_cell_formula_units_Z 96
_cell_length_a 10.948954
_cell_length_b 19.258749
_cell_length_c 22.285356
_cell_angle_alpha 90.000000
_cell_angle_beta 90.000000
_cell_angle_gamma 90.000000
_cell_volume 4699.160519
_symmetry_space_group_name_H-M "C C C A"
_symmetry_group_IT_number 68
_space_group.IT_coordinate_system_code '2'
_symmetry_cell_setting 'orthorhombic'
loop_
_space_group_symop_operation_xyz
x,y,z
-x,1/2-y,z
x,1/2-y,1/2-z
-x,y,1/2-z
-x,-y,-z
x,1/2+y,-z
-x,1/2+y,1/2+z
x,-y,1/2+z
1/2+x,1/2+y,z
1/2-x,-y,z
1/2+x,-y,1/2-z
1/2-x,1/2+y,1/2-z
1/2-x,1/2-y,-z
1/2+x,y,-z
1/2-x,y,1/2+z
1/2+x,1/2-y,1/2+z
loop_
_atom_site_type_symbol
_atom_site_label
_atom_site_fract_x
_atom_site_fract_y
_atom_site_fract_z
Si Si1 0.500000 0.750000 0.063738
Si Si2 0.250000 0.500000 0.073838
Si Si3 0.696106 0.858101 0.010370
Si Si4 0.611711 0.206887 0.091432
Si Si5 0.723064 0.822931 0.382613
Si Si6 0.681984 0.430704 0.207707
Si Si7 0.414999 0.922906 0.834750
O O1 0.584501 0.806087 0.027023
O O2 0.582911 0.699181 0.105143
O O3 0.311340 0.562606 0.035132
O O4 0.359864 0.473401 0.115201
O O5 0.822569 0.825124 0.033599
O O6 0.711580 0.861746 0.938882
O O7 0.500000 0.250000 0.064093
O O8 0.704871 0.252199 0.130381
O O9 0.560141 0.151918 0.137693
O O10 0.740389 0.870115 0.324120
O O11 0.750000 0.500000 0.192735
O O12 0.547218 0.447911 0.184348
O O13 0.677655 0.415520 0.278824
#
# Coordination Sequence:
#
# PCOD8282049 Si02
#       7
#     8   8  16  16  16  16  16
#     4  10  22  42  62  91 130 173 202 262 328 380
#     4  10  22  44  60  94 120 176 214 252 316 390
#     4  10  24  36  66  90 134 170 206 256 322 387
#     4  10  19  39  64  91 122 158 212 256 308 374
#     4  11  24  38  63  96 130 162 211 260 319 381
#     4  11  24  40  62  92 122 162 210 266 313 371
#     4  10  22  43  66  84 123 168 209 261 315 371
#
# _framework density 20.429181
#
# number of rings (size 3 to 8) (size 9 to 14) (size 15 to 20)
#    0.000    1.667    2.500    2.000    8.167    0.667 
#    0.000    1.667    0.000    9.000    0.000    0.000 
#    0.000    0.000    0.000    0.000    0.000    0.000 
#
# Total GULP energy -594897.075214 kJ/mol
# GULP energy per Si atom -12393.689067 kJ/mol
# Density = 2.038268 g / cm^3
# Si number density = 20.429181 Si / 1000 Ang^3
#
#
#
# Elastic Constant Matrix: (Units=GPa)
#
#
# Indices 1 2 3 4 5 6 
#
# 1 96.9972 41.8154 32.8999 0.0000 0.0000 0.0000
# 2 41.8154 130.4851 57.0787 0.0000 0.0000 0.0000
# 3 32.8999 57.0787 85.5969 0.0000 0.0000 0.0000
# 4 0.0000 0.0000 0.0000 -29.6827 0.0000 0.0000
# 5 0.0000 0.0000 0.0000 0.0000 15.8856 0.0000
# 6 0.0000 0.0000 0.0000 0.0000 0.0000 39.6724
#
#
#
# Elastic Compliance Matrix: (Units=1/GPa)
#
#
# Indices 1 2 3 4 5 6 
#
# 1 0.012488 -0.002686 -0.003009 0.000000 0.000000 0.000000
# 2 -0.002686 0.011397 -0.006568 0.000000 0.000000 0.000000
# 3 -0.003009 -0.006568 0.017219 0.000000 0.000000 0.000000
# 4 0.000000 0.000000 0.000000 -0.033690 0.000000 0.000000
# 5 0.000000 0.000000 0.000000 0.000000 0.062950 0.000000
# 6 0.000000 0.000000 0.000000 0.000000 0.000000 0.025206
#
#
# Mechanical properties :
#
#
# Convention : Reuss Voigt Hill
#
# Bulk Modulus (GPa) = 60.31664 64.07413 62.19538
# Shear Modulus (GPa) = 39.80180 17.26074 28.53127
#
# Velocity S-wave (km/s) = 4.41872 2.90988 3.74116
# Velocity P-wave (km/s) = 7.45804 6.53621 7.01229
#
# Compressibility (1/GPa) = 0.01657917
#
# Stress axis : x y z
#
# Youngs Moduli (GPa) = 80.07716 87.73940 58.07587
#
# Poissons Ratio (x) = 0.23564 0.17475
# Poissons Ratio (y) = 0.21506 0.38144
# Poissons Ratio (z) = 0.24095 0.57626
#
# Static dielectric constant tensor:
#      x y z
#    x 3.836490 0.000000 0.000000 
#    y 0.000000 3.889460 0.000000 
#    z 0.000000 0.000000 3.651330 
# 
# 
# High freq. dielectric constant tensor:
#      x y z
#    x 1.808070 0.000000 0.000000 
#    y 0.000000 1.803210 0.000000 
#    z 0.000000 0.000000 1.790500 
# 
# From -- ./inp_files/37701.got.cif
#   From: 2010.03.12/outbox.cif.g09.slc.cpg/sg68_19_cif.got.tgz:37701.got - 2010.04.10 23:14:56.
