data_PCOD8282303
_publ_section_title
;
Structure prediction by ZEFSAII (Michael W. Deem and Ramdas Pophale) SiO2 
 PCOD8282303
Probable space group: C C C A
;
_chemical_formula_sum "Si O2"
_cell_formula_units_Z 72
_cell_length_a 8.580638
_cell_length_b 13.385474
_cell_length_c 29.586212
_cell_angle_alpha 90.000000
_cell_angle_beta 90.000000
_cell_angle_gamma 90.000000
_cell_volume 3398.151210
_symmetry_space_group_name_H-M "C C C A"
_symmetry_group_IT_number 68
_space_group.IT_coordinate_system_code '2'
_symmetry_cell_setting 'orthorhombic'
loop_
_space_group_symop_operation_xyz
x,y,z
-x,1/2-y,z
x,1/2-y,1/2-z
-x,y,1/2-z
-x,-y,-z
x,1/2+y,-z
-x,1/2+y,1/2+z
x,-y,1/2+z
1/2+x,1/2+y,z
1/2-x,-y,z
1/2+x,-y,1/2-z
1/2-x,1/2+y,1/2-z
1/2-x,1/2-y,-z
1/2+x,y,-z
1/2-x,y,1/2+z
1/2+x,1/2-y,1/2+z
loop_
_atom_site_type_symbol
_atom_site_label
_atom_site_fract_x
_atom_site_fract_y
_atom_site_fract_z
Si Si1 0.429779 0.027296 0.203290
Si Si2 0.522543 0.451743 0.935114
Si Si3 0.584622 0.849220 0.153481
Si Si4 0.060528 0.644416 0.125532
Si Si5 0.750000 0.500000 0.505855
O O1 0.500000 0.068716 0.250000
O O2 0.441174 0.112246 0.165054
O O3 0.250000 0.000000 0.209027
O O4 0.537740 0.934171 0.188880
O O5 0.516544 0.370622 0.896126
O O6 0.558326 0.562662 0.914637
O O7 0.359694 0.438666 0.960560
O O8 0.652071 0.426627 0.973054
O O9 0.500000 0.750000 0.171320
O O10 0.770611 0.844343 0.148911
O O11 0.000000 0.750000 0.105909
#
# Coordination Sequence:
#
# PCOD8282303 Si02
#       5
#    16  16  16  16   8
#     4  11  23  42  67  93 123 159 198 246 299 358
#     4  10  21  40  61  85 123 160 207 249 310 351
#     4  11  23  40  62  91 125 162 203 248 301 361
#     4  11  23  40  62  91 125 162 203 248 301 361
#     4  10  20  38  64  84 118 164 200 260 302 358
#
# _framework density 21.187992999999999
#
# number of rings (size 3 to 8) (size 9 to 14) (size 15 to 20)
#    0.000    1.333    2.222    4.667    9.333    0.889 
#    0.000   11.111    0.000    0.000    0.000    0.000 
#    0.000    0.000    0.000    0.000    0.000    0.000 
#
# Total GULP energy -446286.821106 kJ/mol
# GULP energy per Si atom -12396.856142 kJ/mol
# Density = 2.113977 g / cm^3
# Si number density = 21.187993 Si / 1000 Ang^3
#
#
#
# Elastic Constant Matrix: (Units=GPa)
#
#
# Indices 1 2 3 4 5 6 
#
# 1 131.6021 7.4389 26.1528 0.0000 0.0000 0.0000
# 2 7.4389 83.6695 -0.1134 0.0000 0.0000 0.0000
# 3 26.1528 -0.1134 86.3088 0.0000 0.0000 0.0000
# 4 0.0000 0.0000 0.0000 13.0735 0.0000 0.0000
# 5 0.0000 0.0000 0.0000 0.0000 -261.4491 0.0000
# 6 0.0000 0.0000 0.0000 0.0000 0.0000 26.7046
#
#
#
# Elastic Compliance Matrix: (Units=1/GPa)
#
#
# Indices 1 2 3 4 5 6 
#
# 1 0.008129 -0.000726 -0.002464 0.000000 0.000000 0.000000
# 2 -0.000726 0.012017 0.000236 0.000000 0.000000 0.000000
# 3 -0.002464 0.000236 0.012333 0.000000 0.000000 0.000000
# 4 0.000000 0.000000 0.000000 0.076491 0.000000 0.000000
# 5 0.000000 0.000000 0.000000 0.000000 -0.003825 0.000000
# 6 0.000000 0.000000 0.000000 0.000000 0.000000 0.037447
#
#
# Mechanical properties :
#
#
# Convention : Reuss Voigt Hill
#
# Bulk Modulus (GPa) = 37.63609 40.94856 39.29233
# Shear Modulus (GPa) = 31.77469 -26.46074 2.65698
#
# Velocity S-wave (km/s) = 3.87674 -3.53775 1.12104
# Velocity P-wave (km/s) = 6.15145 1.63729 4.50117
#
# Compressibility (1/GPa) = 0.02657024
#
# Stress axis : x y z
#
# Youngs Moduli (GPa) = 123.00992 83.21777 81.08110
#
# Poissons Ratio (x) = 0.06043 0.19981
# Poissons Ratio (y) = 0.08932 -0.01912
# Poissons Ratio (z) = 0.30313 -0.01962
#
# Static dielectric constant tensor:
#      x y z
#    x 4.043620 0.000000 0.000000 
#    y 0.000000 3.522070 0.000000 
#    z 0.000000 0.000000 3.910340 
# 
# 
# High freq. dielectric constant tensor:
#      x y z
#    x 1.853410 0.000000 0.000000 
#    y 0.000000 1.793900 0.000000 
#    z 0.000000 0.000000 1.839460 
# 
# From -- ./inp_files/53904.got.cif
#   From: 2010.03.12/outbox.cif.g09.slc.cpg/sg68_27_cif.got.tgz:53904.got - 2010.04.10 23:14:56.
