data_PCOD8282545
_publ_section_title
;
Structure prediction by ZEFSAII (Michael W. Deem and Ramdas Pophale) SiO2 
 PCOD8282545
Probable space group: C C C A
;
_chemical_formula_sum "Si O2"
_cell_formula_units_Z 108
_cell_length_a 11.343901
_cell_length_b 31.262922
_cell_length_c 14.921706
_cell_angle_alpha 90.000000
_cell_angle_beta 90.000000
_cell_angle_gamma 90.000000
_cell_volume 5291.885925
_symmetry_space_group_name_H-M "C C C A"
_symmetry_group_IT_number 68
_space_group.IT_coordinate_system_code '2'
_symmetry_cell_setting 'orthorhombic'
loop_
_space_group_symop_operation_xyz
x,y,z
-x,1/2-y,z
x,1/2-y,1/2-z
-x,y,1/2-z
-x,-y,-z
x,1/2+y,-z
-x,1/2+y,1/2+z
x,-y,1/2+z
1/2+x,1/2+y,z
1/2-x,-y,z
1/2+x,-y,1/2-z
1/2-x,1/2+y,1/2-z
1/2-x,1/2-y,-z
1/2+x,y,-z
1/2-x,y,1/2+z
1/2+x,1/2-y,1/2+z
loop_
_atom_site_type_symbol
_atom_site_label
_atom_site_fract_x
_atom_site_fract_y
_atom_site_fract_z
Si Si1 0.681974 0.570665 0.587150
Si Si2 0.510172 0.506079 0.852176
Si Si3 0.064788 0.082968 0.152875
Si Si4 0.653189 0.777867 0.098791
Si Si5 0.905453 0.718404 0.439966
Si Si6 0.250000 0.500000 0.553300
Si Si7 0.043359 0.355934 0.006990
Si Si8 0.500000 0.250000 0.750000
O O1 0.577774 0.545414 0.636348
O O2 0.790785 0.581934 0.655130
O O3 0.723449 0.541787 0.504465
O O4 0.624705 0.614199 0.553283
O O5 0.500000 0.493183 0.750000
O O6 0.469069 0.461589 0.898456
O O7 0.642269 0.515478 0.884117
O O8 0.000000 0.089073 0.250000
O O9 0.022521 0.120394 0.087796
O O10 0.791112 0.777861 0.121955
O O11 0.631793 0.820408 0.043039
O O12 0.582107 0.780451 0.190856
O O13 0.618779 0.735461 0.041989
O O14 0.000000 0.750000 0.394006
O O15 0.947102 0.669009 0.446011
#
# Coordination Sequence:
#
# PCOD8282545 Si02
#       8
#    16  16  16  16  16   8  16   4
#     4  12  23  41  65  89 124 166 224 265 313 387
#     4  11  25  40  62  87 122 166 210 268 330 376
#     4  11  24  38  60  90 127 166 209 269 326 371
#     4  10  21  37  66  95 130 165 205 255 311 382
#     4   9  19  41  64  89 126 168 207 247 309 380
#     4  12  22  40  64  88 118 164 218 262 314 388
#     4  11  21  38  62  98 125 164 217 260 311 378
#     4  12  20  40  66 104 124 166 204 254 312 380
#
# _framework density 20.408602999999999
#
# number of rings (size 3 to 8) (size 9 to 14) (size 15 to 20)
#    0.000    1.185    5.185    2.222    5.185    0.000 
#    0.000    0.370    0.000    0.000    0.000    0.000 
#    0.000    0.000    0.000    0.000    0.000    0.000 
#
# Total GULP energy -669256.296959 kJ/mol
# GULP energy per Si atom -12393.635129 kJ/mol
# Density = 2.036215 g / cm^3
# Si number density = 20.408603 Si / 1000 Ang^3
#
#
#
# Elastic Constant Matrix: (Units=GPa)
#
#
# Indices 1 2 3 4 5 6 
#
# 1 183.2643 47.9416 51.2286 0.0000 0.0000 0.0000
# 2 47.9416 128.2925 26.8754 0.0000 0.0000 0.0000
# 3 51.2286 26.8754 60.3768 0.0000 0.0000 0.0000
# 4 0.0000 0.0000 0.0000 15.7411 0.0000 0.0000
# 5 0.0000 0.0000 0.0000 0.0000 28.3747 0.0000
# 6 0.0000 0.0000 0.0000 0.0000 0.0000 11.1923
#
#
#
# Elastic Compliance Matrix: (Units=1/GPa)
#
#
# Indices 1 2 3 4 5 6 
#
# 1 0.007442 -0.001608 -0.005599 0.000000 0.000000 0.000000
# 2 -0.001608 0.008944 -0.002617 0.000000 0.000000 0.000000
# 3 -0.005599 -0.002617 0.022478 0.000000 0.000000 0.000000
# 4 0.000000 0.000000 0.000000 0.063528 0.000000 0.000000
# 5 0.000000 0.000000 0.000000 0.000000 0.035243 0.000000
# 6 0.000000 0.000000 0.000000 0.000000 0.000000 0.089347
#
#
# Mechanical properties :
#
#
# Convention : Reuss Voigt Hill
#
# Bulk Modulus (GPa) = 52.03800 69.33611 60.68705
# Shear Modulus (GPa) = 19.76017 27.45417 23.60717
#
# Velocity S-wave (km/s) = 3.11501 3.67171 3.40476
# Velocity P-wave (km/s) = 6.20412 7.21270 6.72734
#
# Compressibility (1/GPa) = 0.01921673
#
# Stress axis : x y z
#
# Youngs Moduli (GPa) = 134.36559 111.80914 44.48823
#
# Poissons Ratio (x) = 0.17982 0.24908
# Poissons Ratio (y) = 0.21610 0.11641
# Poissons Ratio (z) = 0.75229 0.29256
#
# Static dielectric constant tensor:
#      x y z
#    x 4.187090 0.000000 0.000000 
#    y 0.000000 3.777690 0.000000 
#    z 0.000000 0.000000 3.373850 
# 
# 
# High freq. dielectric constant tensor:
#      x y z
#    x 1.821250 0.000000 0.000000 
#    y 0.000000 1.803220 0.000000 
#    z 0.000000 0.000000 1.762660 
# 
# From -- ./inp_files/21297.got.cif
#   From: 2010.03.12/outbox.cif.g09.slc.cpg/sg68_11_cif.got.tgz:21297.got - 2010.04.10 23:14:56.
