data_PCOD8282971
_publ_section_title
;
Structure prediction by ZEFSAII (Michael W. Deem and Ramdas Pophale) SiO2 
 PCOD8282971
Probable space group: C C C A
;
_chemical_formula_sum "Si O2"
_cell_formula_units_Z 64
_cell_length_a 8.500237
_cell_length_b 29.002625
_cell_length_c 12.064162
_cell_angle_alpha 90.000000
_cell_angle_beta 90.000000
_cell_angle_gamma 90.000000
_cell_volume 2974.168039
_symmetry_space_group_name_H-M "C C C A"
_symmetry_group_IT_number 68
_space_group.IT_coordinate_system_code '2'
_symmetry_cell_setting 'orthorhombic'
loop_
_space_group_symop_operation_xyz
x,y,z
-x,1/2-y,z
x,1/2-y,1/2-z
-x,y,1/2-z
-x,-y,-z
x,1/2+y,-z
-x,1/2+y,1/2+z
x,-y,1/2+z
1/2+x,1/2+y,z
1/2-x,-y,z
1/2+x,-y,1/2-z
1/2-x,1/2+y,1/2-z
1/2-x,1/2-y,-z
1/2+x,y,-z
1/2-x,y,1/2+z
1/2+x,1/2-y,1/2+z
loop_
_atom_site_type_symbol
_atom_site_label
_atom_site_fract_x
_atom_site_fract_y
_atom_site_fract_z
Si Si1 0.000000 0.863741 0.750000
Si Si2 0.037461 0.459778 0.869927
Si Si3 0.000000 0.250000 0.539022
Si Si4 0.894594 0.559960 0.585928
Si Si5 0.204918 0.213367 0.345614
O O1 0.050222 0.894484 0.646833
O O2 0.153078 0.834764 0.789786
O O3 0.007345 0.515100 0.873008
O O4 0.213015 0.447778 0.899295
O O5 0.000000 0.439776 0.750000
O O6 0.922969 0.433703 0.954859
O O7 0.894617 0.281651 0.459001
O O8 0.888854 0.218027 0.618297
O O9 0.163529 0.250000 0.250000
#
# Coordination Sequence:
#
# PCOD8282971 Si02
#       5
#     8  16   8  16  16
#     4  12  23  42  68 104 146 174 238 300 339 406
#     4  10  22  44  66  93 136 189 236 278 358 414
#     4  10  22  42  74  94 128 190 220 262 360 432
#     4  10  24  39  68  97 135 183 235 291 345 411
#     4  11  22  45  68 100 137 181 220 283 354 419
#
# _framework density 21.518623999999999
#
# number of rings (size 3 to 8) (size 9 to 14) (size 15 to 20)
#    0.000    1.500    3.750    0.375    3.500    4.000 
#    0.000    0.000    0.000    0.000    0.000    0.000 
#    0.000    0.000    0.000    0.000    0.000    0.000 
#
# Total GULP energy -396689.226987 kJ/mol
# GULP energy per Si atom -12396.538343 kJ/mol
# Density = 2.146965 g / cm^3
# Si number density = 21.518624 Si / 1000 Ang^3
#
#
#
# Elastic Constant Matrix: (Units=GPa)
#
#
# Indices 1 2 3 4 5 6 
#
# 1 121.8476 55.1793 76.4567 0.0000 0.0000 0.0000
# 2 55.1793 123.7166 69.5471 0.0000 0.0000 0.0000
# 3 76.4567 69.5471 195.0752 0.0000 0.0000 0.0000
# 4 0.0000 0.0000 0.0000 41.3775 0.0000 0.0000
# 5 0.0000 0.0000 0.0000 0.0000 8.7657 0.0000
# 6 0.0000 0.0000 0.0000 0.0000 0.0000 17.8980
#
#
#
# Elastic Compliance Matrix: (Units=1/GPa)
#
#
# Indices 1 2 3 4 5 6 
#
# 1 0.011905 -0.003360 -0.003468 0.000000 0.000000 0.000000
# 2 -0.003360 0.011057 -0.002625 0.000000 0.000000 0.000000
# 3 -0.003468 -0.002625 0.007421 0.000000 0.000000 0.000000
# 4 0.000000 0.000000 0.000000 0.024168 0.000000 0.000000
# 5 0.000000 0.000000 0.000000 0.000000 0.114081 0.000000
# 6 0.000000 0.000000 0.000000 0.000000 0.000000 0.055872
#
#
# Mechanical properties :
#
#
# Convention : Reuss Voigt Hill
#
# Bulk Modulus (GPa) = 87.13121 93.66728 90.39925
# Shear Modulus (GPa) = 20.22356 29.57198 24.89777
#
# Velocity S-wave (km/s) = 3.06897 3.71111 3.40521
# Velocity P-wave (km/s) = 7.28952 7.87312 7.58693
#
# Compressibility (1/GPa) = 0.01147694
#
# Stress axis : x y z
#
# Youngs Moduli (GPa) = 84.00062 90.43713 134.74685
#
# Poissons Ratio (x) = 0.30388 0.46729
# Poissons Ratio (y) = 0.28226 0.35373
# Poissons Ratio (z) = 0.29131 0.23741
#
# Static dielectric constant tensor:
#      x y z
#    x 3.926720 0.000000 0.000000 
#    y 0.000000 3.785270 0.000000 
#    z 0.000000 0.000000 4.167510 
# 
# 
# High freq. dielectric constant tensor:
#      x y z
#    x 1.847310 0.000000 0.000000 
#    y 0.000000 1.813020 0.000000 
#    z 0.000000 0.000000 1.867360 
# 
# From -- ./inp_files/10778.got.cif
#   From: 2010.03.12/outbox.cif.g09.slc.cpg/sg68_6_cif.got.tgz:10778.got - 2010.04.10 23:14:56.
