data_PCOD8282317
_publ_section_title
;
Structure prediction by ZEFSAII (Michael W. Deem and Ramdas Pophale) SiO2 
 PCOD8282317
Probable space group: C C C A
;
_chemical_formula_sum "Si O2"
_cell_formula_units_Z 72
_cell_length_a 15.976420
_cell_length_b 12.405089
_cell_length_c 16.654404
_cell_angle_alpha 90.000000
_cell_angle_beta 90.000000
_cell_angle_gamma 90.000000
_cell_volume 3300.718209
_symmetry_space_group_name_H-M "C C C A"
_symmetry_group_IT_number 68
_space_group.IT_coordinate_system_code '2'
_symmetry_cell_setting 'orthorhombic'
loop_
_space_group_symop_operation_xyz
x,y,z
-x,1/2-y,z
x,1/2-y,1/2-z
-x,y,1/2-z
-x,-y,-z
x,1/2+y,-z
-x,1/2+y,1/2+z
x,-y,1/2+z
1/2+x,1/2+y,z
1/2-x,-y,z
1/2+x,-y,1/2-z
1/2-x,1/2+y,1/2-z
1/2-x,1/2-y,-z
1/2+x,y,-z
1/2-x,y,1/2+z
1/2+x,1/2-y,1/2+z
loop_
_atom_site_type_symbol
_atom_site_label
_atom_site_fract_x
_atom_site_fract_y
_atom_site_fract_z
Si Si1 0.219726 0.616973 0.686045
Si Si2 0.086853 0.554045 0.580068
Si Si3 0.281522 0.334099 0.360821
Si Si4 0.750000 0.500000 0.012661
Si Si5 0.536544 0.135311 0.415179
O O1 0.250000 0.500000 0.659896
O O2 0.121792 0.622875 0.656894
O O3 0.272961 0.704403 0.634073
O O4 0.232128 0.632471 0.780288
O O5 0.166570 0.499158 0.538822
O O6 0.046215 0.630688 0.512132
O O7 0.022820 0.463227 0.612216
O O8 0.235877 0.392509 0.434058
O O9 0.377762 0.373434 0.363853
O O10 0.500000 0.250000 0.390909
#
# Coordination Sequence:
#
# PCOD8282317 Si02
#       5
#    16  16  16   8  16
#     4  11  21  40  64  95 124 172 216 263 313 403
#     4  10  22  37  65  92 126 165 214 263 326 376
#     4  10  23  39  66  90 129 168 216 262 323 386
#     4  10  20  38  66  92 120 168 218 268 304 392
#     4  10  22  40  61  95 129 167 204 275 326 380
#
# _framework density 21.813434999999998
#
# number of rings (size 3 to 8) (size 9 to 14) (size 15 to 20)
#    0.000    1.778    2.222    1.333    3.111    1.778 
#    0.000    7.778    0.000    0.000    0.000    0.000 
#    0.000    0.000    0.000    0.000    0.000    0.000 
#
# Total GULP energy -446021.082978 kJ/mol
# GULP energy per Si atom -12389.474527 kJ/mol
# Density = 2.176379 g / cm^3
# Si number density = 21.813435 Si / 1000 Ang^3
#
#
#
# Elastic Constant Matrix: (Units=GPa)
#
#
# Indices 1 2 3 4 5 6 
#
# 1 114.3148 37.3547 40.8628 0.0000 0.0000 0.0000
# 2 37.3547 116.8098 28.9534 0.0000 0.0000 0.0000
# 3 40.8628 28.9534 97.9462 0.0000 0.0000 0.0000
# 4 0.0000 0.0000 0.0000 8.8468 0.0000 0.0000
# 5 0.0000 0.0000 0.0000 0.0000 23.5842 0.0000
# 6 0.0000 0.0000 0.0000 0.0000 0.0000 45.0978
#
#
#
# Elastic Compliance Matrix: (Units=1/GPa)
#
#
# Indices 1 2 3 4 5 6 
#
# 1 0.010945 -0.002556 -0.003811 0.000000 0.000000 0.000000
# 2 -0.002556 0.009834 -0.001841 0.000000 0.000000 0.000000
# 3 -0.003811 -0.001841 0.012344 0.000000 0.000000 0.000000
# 4 0.000000 0.000000 0.000000 0.113035 0.000000 0.000000
# 5 0.000000 0.000000 0.000000 0.000000 0.042401 0.000000
# 6 0.000000 0.000000 0.000000 0.000000 0.000000 0.022174
#
#
# Mechanical properties :
#
#
# Convention : Reuss Voigt Hill
#
# Bulk Modulus (GPa) = 59.84925 60.37919 60.11422
# Shear Modulus (GPa) = 21.48525 30.29908 25.89217
#
# Velocity S-wave (km/s) = 3.14180 3.73099 3.44900
# Velocity P-wave (km/s) = 6.37634 6.80443 6.59386
#
# Compressibility (1/GPa) = 0.01670865
#
# Stress axis : x y z
#
# Youngs Moduli (GPa) = 91.36543 101.68303 81.01275
#
# Poissons Ratio (x) = 0.25986 0.30872
# Poissons Ratio (y) = 0.23349 0.14914
# Poissons Ratio (z) = 0.34818 0.18719
#
# Static dielectric constant tensor:
#      x y z
#    x 4.344740 0.000000 0.000000 
#    y 0.000000 4.280130 0.000000 
#    z 0.000000 0.000000 4.007000 
# 
# 
# High freq. dielectric constant tensor:
#      x y z
#    x 1.848610 0.000000 0.000000 
#    y 0.000000 1.861520 0.000000 
#    z 0.000000 0.000000 1.852220 
# 
# From -- ./inp_files/31654.got.cif
#   From: 2010.03.12/outbox.cif.g09.slc.cpg/sg68_16_cif.got.tgz:31654.got - 2010.04.10 23:14:56.
