data_PCOD8282145
_publ_section_title
;
Structure prediction by ZEFSAII (Michael W. Deem and Ramdas Pophale) SiO2 
 PCOD8282145
Probable space group: C C C A
;
_chemical_formula_sum "Si O2"
_cell_formula_units_Z 72
_cell_length_a 13.454605
_cell_length_b 15.721911
_cell_length_c 17.651885
_cell_angle_alpha 90.000000
_cell_angle_beta 90.000000
_cell_angle_gamma 90.000000
_cell_volume 3733.940344
_symmetry_space_group_name_H-M "C C C A"
_symmetry_group_IT_number 68
_space_group.IT_coordinate_system_code '2'
_symmetry_cell_setting 'orthorhombic'
loop_
_space_group_symop_operation_xyz
x,y,z
-x,1/2-y,z
x,1/2-y,1/2-z
-x,y,1/2-z
-x,-y,-z
x,1/2+y,-z
-x,1/2+y,1/2+z
x,-y,1/2+z
1/2+x,1/2+y,z
1/2-x,-y,z
1/2+x,-y,1/2-z
1/2-x,1/2+y,1/2-z
1/2-x,1/2-y,-z
1/2+x,y,-z
1/2-x,y,1/2+z
1/2+x,1/2-y,1/2+z
loop_
_atom_site_type_symbol
_atom_site_label
_atom_site_fract_x
_atom_site_fract_y
_atom_site_fract_z
Si Si1 0.491368 0.075390 0.596661
Si Si2 0.652660 0.546518 0.971946
Si Si3 0.500000 0.476535 0.250000
Si Si4 0.324656 0.250000 0.750000
Si Si5 0.000000 0.250000 0.355161
Si Si6 0.696337 0.591955 0.811818
O O1 0.391673 0.089599 0.546998
O O2 0.539426 0.169009 0.599420
O O3 0.573542 0.021844 0.555027
O O4 0.470113 0.036148 0.679342
O O5 0.750000 0.500000 0.001223
O O6 0.676574 0.610044 0.901547
O O7 0.407888 0.414315 0.232137
O O8 0.402025 0.214478 0.687949
O O9 0.258449 0.170172 0.777389
O O10 0.750000 0.500000 0.804701
#
# Coordination Sequence:
#
# PCOD8282145 Si02
#       6
#    16  16   8   8   8  16
#     4  10  20  35  57  81 107 146 184 230 283 332
#     4   9  19  37  56  77 111 147 180 223 283 344
#     4  10  20  36  58  82 110 144 190 233 272 333
#     4  11  22  35  58  84 110 147 188 237 284 328
#     4  11  20  34  54  82 110 135 188 242 276 327
#     4  10  20  37  58  84 115 149 188 233 284 336
#
# _framework density 19.282578999999998
#
# number of rings (size 3 to 8) (size 9 to 14) (size 15 to 20)
#    0.000    2.000    0.000    6.667    0.000    3.111 
#    0.000   11.111    0.000    0.000    0.000    0.000 
#    0.000    0.000    0.000    0.000    0.000    0.000 
#
# Total GULP energy -445984.287799 kJ/mol
# GULP energy per Si atom -12388.452439 kJ/mol
# Density = 1.923869 g / cm^3
# Si number density = 19.282579 Si / 1000 Ang^3
#
#
#
# Elastic Constant Matrix: (Units=GPa)
#
#
# Indices 1 2 3 4 5 6 
#
# 1 123.0150 36.5627 58.2815 0.0000 0.0000 0.0000
# 2 36.5627 101.8102 46.0219 0.0000 0.0000 0.0000
# 3 58.2815 46.0219 112.4252 0.0000 0.0000 0.0000
# 4 0.0000 0.0000 0.0000 20.6911 0.0000 0.0000
# 5 0.0000 0.0000 0.0000 0.0000 48.4187 0.0000
# 6 0.0000 0.0000 0.0000 0.0000 0.0000 31.0652
#
#
#
# Elastic Compliance Matrix: (Units=1/GPa)
#
#
# Indices 1 2 3 4 5 6 
#
# 1 0.011006 -0.001685 -0.005016 0.000000 0.000000 0.000000
# 2 -0.001685 0.012310 -0.004166 0.000000 0.000000 0.000000
# 3 -0.005016 -0.004166 0.013200 0.000000 0.000000 0.000000
# 4 0.000000 0.000000 0.000000 0.048330 0.000000 0.000000
# 5 0.000000 0.000000 0.000000 0.000000 0.020653 0.000000
# 6 0.000000 0.000000 0.000000 0.000000 0.000000 0.032190
#
#
# Mechanical properties :
#
#
# Convention : Reuss Voigt Hill
#
# Bulk Modulus (GPa) = 67.64331 68.77585 68.20958
# Shear Modulus (GPa) = 30.42246 33.12728 31.77487
#
# Velocity S-wave (km/s) = 3.97636 4.14936 4.06378
# Velocity P-wave (km/s) = 7.49920 7.66166 7.58087
#
# Compressibility (1/GPa) = 0.01478343
#
# Stress axis : x y z
#
# Youngs Moduli (GPa) = 90.85632 81.23162 75.75601
#
# Poissons Ratio (x) = 0.13690 0.37998
# Poissons Ratio (y) = 0.15312 0.31558
# Poissons Ratio (z) = 0.45572 0.33838
#
# Static dielectric constant tensor:
#      x y z
#    x 3.968810 0.000000 0.000000 
#    y 0.000000 3.307180 0.000000 
#    z 0.000000 0.000000 4.010590 
# 
# 
# High freq. dielectric constant tensor:
#      x y z
#    x 1.766830 0.000000 0.000000 
#    y 0.000000 1.728940 0.000000 
#    z 0.000000 0.000000 1.751360 
# 
# From -- ./inp_files/30704.got.cif
#   From: 2010.03.12/outbox.cif.g09.slc.cpg/sg68_16_cif.got.tgz:30704.got - 2010.04.10 23:14:56.
