data_PCOD8282873
_publ_section_title
;
Structure prediction by ZEFSAII (Michael W. Deem and Ramdas Pophale) SiO2 
 PCOD8282873
Probable space group: C C C A
;
_chemical_formula_sum "Si O2"
_cell_formula_units_Z 88
_cell_length_a 11.357505
_cell_length_b 21.682910
_cell_length_c 17.872734
_cell_angle_alpha 90.000000
_cell_angle_beta 90.000000
_cell_angle_gamma 90.000000
_cell_volume 4401.406654
_symmetry_space_group_name_H-M "C C C A"
_symmetry_group_IT_number 68
_space_group.IT_coordinate_system_code '2'
_symmetry_cell_setting 'orthorhombic'
loop_
_space_group_symop_operation_xyz
x,y,z
-x,1/2-y,z
x,1/2-y,1/2-z
-x,y,1/2-z
-x,-y,-z
x,1/2+y,-z
-x,1/2+y,1/2+z
x,-y,1/2+z
1/2+x,1/2+y,z
1/2-x,-y,z
1/2+x,-y,1/2-z
1/2-x,1/2+y,1/2-z
1/2-x,1/2-y,-z
1/2+x,y,-z
1/2-x,y,1/2+z
1/2+x,1/2-y,1/2+z
loop_
_atom_site_type_symbol
_atom_site_label
_atom_site_fract_x
_atom_site_fract_y
_atom_site_fract_z
Si Si1 0.740295 0.927036 0.767547
Si Si2 0.136782 0.400539 0.116991
Si Si3 0.366895 0.097715 0.584770
Si Si4 0.000000 0.250000 0.639909
Si Si5 0.750000 0.000000 0.510233
Si Si6 0.500000 0.357732 0.250000
Si Si7 0.700377 0.693036 0.959466
O O1 0.831643 0.911292 0.702786
O O2 0.777275 0.893822 0.845283
O O3 0.611661 0.903477 0.739135
O O4 0.750000 0.000000 0.781384
O O5 0.177785 0.454943 0.063095
O O6 0.197135 0.337767 0.089615
O O7 0.997301 0.396986 0.115895
O O8 0.352251 0.148820 0.521841
O O9 0.344496 0.032835 0.543542
O O10 0.959156 0.310629 0.685230
O O11 0.102947 0.279012 0.593011
O O12 0.750000 0.750000 0.000000
#
# Coordination Sequence:
#
# PCOD8282873 Si02
#       7
#    16  16  16   8   8   8  16
#     4  12  25  42  65  98 138 182 225 280 342 411
#     4  11  23  41  63  96 133 172 224 273 344 398
#     4  11  24  41  65 100 136 175 223 277 343 409
#     4  11  22  46  72  94 133 176 240 286 325 416
#     4  10  22  40  62  96 132 182 220 270 328 412
#     4  11  26  44  70 100 130 185 240 280 338 413
#     4  11  23  43  68  97 129 173 222 282 343 398
#
# _framework density 19.993607999999998
#
# number of rings (size 3 to 8) (size 9 to 14) (size 15 to 20)
#    0.000    0.909    3.636    3.273    2.545    1.455 
#    0.000    0.000    0.000    2.182    0.000    0.000 
#    0.000    0.000    0.000    0.000    0.000    0.000 
#
# Total GULP energy -545360.599743 kJ/mol
# GULP energy per Si atom -12394.559085 kJ/mol
# Density = 1.994810 g / cm^3
# Si number density = 19.993608 Si / 1000 Ang^3
#
#
#
# Elastic Constant Matrix: (Units=GPa)
#
#
# Indices 1 2 3 4 5 6 
#
# 1 108.2335 56.2407 33.6915 0.0000 0.0000 0.0000
# 2 56.2407 123.7703 45.0664 0.0000 0.0000 0.0000
# 3 33.6915 45.0664 122.2098 0.0000 0.0000 0.0000
# 4 0.0000 0.0000 0.0000 20.7113 0.0000 0.0000
# 5 0.0000 0.0000 0.0000 0.0000 45.3060 0.0000
# 6 0.0000 0.0000 0.0000 0.0000 0.0000 31.0487
#
#
#
# Elastic Compliance Matrix: (Units=1/GPa)
#
#
# Indices 1 2 3 4 5 6 
#
# 1 0.012341 -0.005047 -0.001541 0.000000 0.000000 0.000000
# 2 -0.005047 0.011396 -0.002811 0.000000 0.000000 0.000000
# 3 -0.001541 -0.002811 0.009644 0.000000 0.000000 0.000000
# 4 0.000000 0.000000 0.000000 0.048283 0.000000 0.000000
# 5 0.000000 0.000000 0.000000 0.000000 0.022072 0.000000
# 6 0.000000 0.000000 0.000000 0.000000 0.000000 0.032207
#
#
# Mechanical properties :
#
#
# Convention : Reuss Voigt Hill
#
# Bulk Modulus (GPa) = 68.57065 69.35675 68.96370
# Shear Modulus (GPa) = 31.32756 34.02756 32.67756
#
# Velocity S-wave (km/s) = 3.96268 4.12991 4.04716
# Velocity P-wave (km/s) = 7.43692 7.58329 7.51046
#
# Compressibility (1/GPa) = 0.01458350
#
# Stress axis : x y z
#
# Youngs Moduli (GPa) = 81.02775 87.74792 103.68877
#
# Poissons Ratio (x) = 0.44284 0.15982
# Poissons Ratio (y) = 0.40892 0.29149
# Poissons Ratio (z) = 0.12489 0.24668
#
# Static dielectric constant tensor:
#      x y z
#    x 3.724940 0.000000 0.000000 
#    y 0.000000 3.875470 0.000000 
#    z 0.000000 0.000000 3.806300 
# 
# 
# High freq. dielectric constant tensor:
#      x y z
#    x 1.781190 0.000000 0.000000 
#    y 0.000000 1.790600 0.000000 
#    z 0.000000 0.000000 1.801650 
# 
# From -- ./inp_files/21006.got.cif
#   From: 2010.03.12/outbox.cif.g09.slc.cpg/sg68_11_cif.got.tgz:21006.got - 2010.04.10 23:14:56.
