data_PCOD8282835
_publ_section_title
;
Structure prediction by ZEFSAII (Michael W. Deem and Ramdas Pophale) SiO2 
 PCOD8282835
Probable space group: C C C A
;
_chemical_formula_sum "Si O2"
_cell_formula_units_Z 56
_cell_length_a 12.858160
_cell_length_b 22.707240
_cell_length_c 8.200129
_cell_angle_alpha 90.000000
_cell_angle_beta 90.000000
_cell_angle_gamma 90.000000
_cell_volume 2394.218930
_symmetry_space_group_name_H-M "C C C A"
_symmetry_group_IT_number 68
_space_group.IT_coordinate_system_code '2'
_symmetry_cell_setting 'orthorhombic'
loop_
_space_group_symop_operation_xyz
x,y,z
-x,1/2-y,z
x,1/2-y,1/2-z
-x,y,1/2-z
-x,-y,-z
x,1/2+y,-z
-x,1/2+y,1/2+z
x,-y,1/2+z
1/2+x,1/2+y,z
1/2-x,-y,z
1/2+x,-y,1/2-z
1/2-x,1/2+y,1/2-z
1/2-x,1/2-y,-z
1/2+x,y,-z
1/2-x,y,1/2+z
1/2+x,1/2-y,1/2+z
loop_
_atom_site_type_symbol
_atom_site_label
_atom_site_fract_x
_atom_site_fract_y
_atom_site_fract_z
Si Si1 0.750000 0.500000 0.970340
Si Si2 0.614877 0.565586 0.222899
Si Si3 0.327069 0.684406 0.177032
Si Si4 0.108287 0.184331 0.699923
O O1 0.662587 0.535860 0.065190
O O2 0.689404 0.450524 0.871973
O O3 0.500000 0.539867 0.250000
O O4 0.609213 0.637087 0.214696
O O5 0.344328 0.750000 0.250000
O O6 0.206521 0.663380 0.192282
O O7 0.364851 0.680242 0.991212
O O8 0.086729 0.250000 0.750000
O O9 0.000000 0.149714 0.750000
#
# Coordination Sequence:
#
# PCOD8282835 Si02
#       4
#     8  16  16  16
#     4  10  24  46  66  94 126 164 226 272 308 376
#     4  11  24  43  69  95 127 171 213 267 325 375
#     4  11  23  41  65  99 136 168 211 265 325 398
#     4  10  22  39  59  88 131 177 212 253 310 382
#
# _framework density 23.389673999999999
#
# number of rings (size 3 to 8) (size 9 to 14) (size 15 to 20)
#    0.000    1.429    0.000    6.000    0.000    9.714 
#    0.000    8.571    0.000    1.714    0.000    0.000 
#    0.000    0.000    0.000    0.000    0.000    0.000 
#
# Total GULP energy -346925.559547 kJ/mol
# GULP energy per Si atom -12390.198555 kJ/mol
# Density = 2.333644 g / cm^3
# Si number density = 23.389674 Si / 1000 Ang^3
#
#
#
# Elastic Constant Matrix: (Units=GPa)
#
#
# Indices 1 2 3 4 5 6 
#
# 1 163.3273 10.0754 44.3390 0.0000 0.0000 0.0000
# 2 10.0754 97.5038 10.4865 0.0000 0.0000 0.0000
# 3 44.3390 10.4865 93.1392 0.0000 0.0000 0.0000
# 4 0.0000 0.0000 0.0000 2.8437 0.0000 0.0000
# 5 0.0000 0.0000 0.0000 0.0000 106.1777 0.0000
# 6 0.0000 0.0000 0.0000 0.0000 0.0000 22.1240
#
#
#
# Elastic Compliance Matrix: (Units=1/GPa)
#
#
# Indices 1 2 3 4 5 6 
#
# 1 0.007045 -0.000372 -0.003312 0.000000 0.000000 0.000000
# 2 -0.000372 0.010401 -0.000994 0.000000 0.000000 0.000000
# 3 -0.003312 -0.000994 0.012425 0.000000 0.000000 0.000000
# 4 0.000000 0.000000 0.000000 0.351649 0.000000 0.000000
# 5 0.000000 0.000000 0.000000 0.000000 0.009418 0.000000
# 6 0.000000 0.000000 0.000000 0.000000 0.000000 0.045200
#
#
# Mechanical properties :
#
#
# Convention : Reuss Voigt Hill
#
# Bulk Modulus (GPa) = 48.74279 53.75244 51.24762
# Shear Modulus (GPa) = 11.05383 45.50038 28.27710
#
# Velocity S-wave (km/s) = 2.17628 4.41536 3.48078
# Velocity P-wave (km/s) = 5.21533 7.00179 6.17352
#
# Compressibility (1/GPa) = 0.02051586
#
# Stress axis : x y z
#
# Youngs Moduli (GPa) = 141.95142 96.14141 80.48217
#
# Poissons Ratio (x) = 0.03574 0.26654
# Poissons Ratio (y) = 0.05277 0.08001
# Poissons Ratio (z) = 0.47011 0.09557
#
# Static dielectric constant tensor:
#      x y z
#    x 5.909550 0.000000 0.000000 
#    y 0.000000 3.932050 0.000000 
#    z 0.000000 0.000000 4.391460 
# 
# 
# High freq. dielectric constant tensor:
#      x y z
#    x 1.950270 0.000000 0.000000 
#    y 0.000000 1.912320 0.000000 
#    z 0.000000 0.000000 1.921830 
# 
# From -- ./inp_files/4884.got.cif
#   From: 2010.03.12/outbox.cif.g09.slc.cpg/sg68_3_cif.got.tgz:4884.got - 2010.04.10 23:14:56.
