data_PCOD8282534
_publ_section_title
;
Structure prediction by ZEFSAII (Michael W. Deem and Ramdas Pophale) SiO2 
 PCOD8282534
Probable space group: C C C A
;
_chemical_formula_sum "Si O2"
_cell_formula_units_Z 64
_cell_length_a 14.166516
_cell_length_b 5.489643
_cell_length_c 35.063396
_cell_angle_alpha 90.000000
_cell_angle_beta 90.000000
_cell_angle_gamma 90.000000
_cell_volume 2726.849290
_symmetry_space_group_name_H-M "C C C A"
_symmetry_group_IT_number 68
_space_group.IT_coordinate_system_code '2'
_symmetry_cell_setting 'orthorhombic'
loop_
_space_group_symop_operation_xyz
x,y,z
-x,1/2-y,z
x,1/2-y,1/2-z
-x,y,1/2-z
-x,-y,-z
x,1/2+y,-z
-x,1/2+y,1/2+z
x,-y,1/2+z
1/2+x,1/2+y,z
1/2-x,-y,z
1/2+x,-y,1/2-z
1/2-x,1/2+y,1/2-z
1/2-x,1/2-y,-z
1/2+x,y,-z
1/2-x,y,1/2+z
1/2+x,1/2-y,1/2+z
loop_
_atom_site_type_symbol
_atom_site_label
_atom_site_fract_x
_atom_site_fract_y
_atom_site_fract_z
Si Si1 0.904472 0.118087 0.334009
Si Si2 0.500000 0.750000 0.885527
Si Si3 0.650256 0.885466 0.093661
Si Si4 0.355981 0.210625 0.514818
Si Si5 0.750000 0.000000 0.273173
O O1 0.846785 0.288674 0.363176
O O2 0.000000 0.250000 0.319700
O O3 0.925571 0.878042 0.357744
O O4 0.842697 0.049814 0.297826
O O5 0.438776 0.932606 0.911310
O O6 0.750000 0.000000 0.083876
O O7 0.636515 0.680291 0.060959
O O8 0.405382 0.469071 0.502903
O O9 0.250000 0.250000 0.500000
O O10 0.769331 0.750000 0.250000
#
# Coordination Sequence:
#
# PCOD8282534 Si02
#       5
#    16   8  16  16   8
#     4  10  25  47  74 104 143 189 240 298 353 429
#     4  10  24  42  69 102 134 180 254 286 356 416
#     4  11  22  40  73  96 136 189 242 297 352 429
#     4  10  21  37  60  98 137 183 236 293 368 417
#     4  12  30  50  78 116 148 186 240 286 368 454
#
# _framework density 23.470312
#
# number of rings (size 3 to 8) (size 9 to 14) (size 15 to 20)
#    0.000    1.500    2.500    1.500   12.250    2.500 
#    0.000    1.250    0.000    0.000    0.000    0.000 
#    0.000    0.000    0.000    0.000    0.000    0.000 
#
# Total GULP energy -396564.824874 kJ/mol
# GULP energy per Si atom -12392.650777 kJ/mol
# Density = 2.341689 g / cm^3
# Si number density = 23.470312 Si / 1000 Ang^3
#
#
#
# Elastic Constant Matrix: (Units=GPa)
#
#
# Indices 1 2 3 4 5 6 
#
# 1 85.7424 11.7849 54.4219 0.0000 0.0000 0.0000
# 2 11.7849 139.4746 44.2545 0.0000 0.0000 0.0000
# 3 54.4219 44.2545 134.9257 0.0000 0.0000 0.0000
# 4 0.0000 0.0000 0.0000 118.5255 0.0000 0.0000
# 5 0.0000 0.0000 0.0000 0.0000 -23.2500 0.0000
# 6 0.0000 0.0000 0.0000 0.0000 0.0000 14.1026
#
#
#
# Elastic Compliance Matrix: (Units=1/GPa)
#
#
# Indices 1 2 3 4 5 6 
#
# 1 0.015749 0.000764 -0.006603 0.000000 0.000000 0.000000
# 2 0.000764 0.008040 -0.002945 0.000000 0.000000 0.000000
# 3 -0.006603 -0.002945 0.011041 0.000000 0.000000 0.000000
# 4 0.000000 0.000000 0.000000 0.008437 0.000000 0.000000
# 5 0.000000 0.000000 0.000000 0.000000 -0.043011 0.000000
# 6 0.000000 0.000000 0.000000 0.000000 0.000000 0.070909
#
#
# Mechanical properties :
#
#
# Convention : Reuss Voigt Hill
#
# Bulk Modulus (GPa) = 57.93203 64.56282 61.24742
# Shear Modulus (GPa) = 52.91799 38.52105 45.71952
#
# Velocity S-wave (km/s) = 4.75350 4.05565 4.41837
# Velocity P-wave (km/s) = 7.40705 7.03556 7.22369
#
# Compressibility (1/GPa) = 0.01726161
#
# Stress axis : x y z
#
# Youngs Moduli (GPa) = 63.49705 124.38279 90.57323
#
# Poissons Ratio (x) = -0.09508 0.59805
# Poissons Ratio (y) = -0.04854 0.26676
# Poissons Ratio (z) = 0.41927 0.36634
#
# Static dielectric constant tensor:
#      x y z
#    x 4.015410 0.000000 0.000000 
#    y 0.000000 4.533790 0.000000 
#    z 0.000000 0.000000 4.089830 
# 
# 
# High freq. dielectric constant tensor:
#      x y z
#    x 1.927500 0.000000 0.000000 
#    y 0.000000 1.941510 0.000000 
#    z 0.000000 0.000000 1.922610 
# 
# From -- ./inp_files/55481.got.cif
#   From: 2010.03.12/outbox.cif.g09.slc.cpg/sg68_28_cif.got.tgz:55481.got - 2010.04.10 23:14:56.
