data_PCOD8282160
_publ_section_title
;
Structure prediction by ZEFSAII (Michael W. Deem and Ramdas Pophale) SiO2 
 PCOD8282160
Probable space group: C C C A
;
_chemical_formula_sum "Si O2"
_cell_formula_units_Z 64
_cell_length_a 19.377447
_cell_length_b 5.269059
_cell_length_c 29.139118
_cell_angle_alpha 90.000000
_cell_angle_beta 90.000000
_cell_angle_gamma 90.000000
_cell_volume 2975.130508
_symmetry_space_group_name_H-M "C C C A"
_symmetry_group_IT_number 68
_space_group.IT_coordinate_system_code '2'
_symmetry_cell_setting 'orthorhombic'
loop_
_space_group_symop_operation_xyz
x,y,z
-x,1/2-y,z
x,1/2-y,1/2-z
-x,y,1/2-z
-x,-y,-z
x,1/2+y,-z
-x,1/2+y,1/2+z
x,-y,1/2+z
1/2+x,1/2+y,z
1/2-x,-y,z
1/2+x,-y,1/2-z
1/2-x,1/2+y,1/2-z
1/2-x,1/2-y,-z
1/2+x,y,-z
1/2-x,y,1/2+z
1/2+x,1/2-y,1/2+z
loop_
_atom_site_type_symbol
_atom_site_label
_atom_site_fract_x
_atom_site_fract_y
_atom_site_fract_z
Si Si1 0.921397 0.307124 0.344274
Si Si2 0.173459 0.767872 0.019558
Si Si3 0.363553 0.750000 0.250000
Si Si4 0.750000 0.000000 0.807227
Si Si5 0.845035 0.296180 0.625774
O O1 0.912261 0.362836 0.289809
O O2 0.898329 0.565915 0.368805
O O3 0.000000 0.250000 0.356328
O O4 0.877568 0.068853 0.361745
O O5 0.179036 0.798369 0.073715
O O6 0.134455 0.509953 0.003481
O O7 0.250000 0.750000 0.000000
O O8 0.314133 0.953004 0.226071
O O9 0.777058 0.228552 0.841044
#
# Coordination Sequence:
#
# PCOD8282160 Si02
#       5
#    16  16   8   8  16
#     4  11  24  42  62  85 122 170 215 248 287 356
#     4  10  20  35  59  91 122 150 185 237 304 376
#     4  10  21  36  60  90 123 162 204 256 306 358
#     4  10  20  36  60  96 130 156 198 260 330 372
#     4  11  23  39  64  93 124 160 198 254 313 367
#
# _framework density 21.511659000000002
#
# number of rings (size 3 to 8) (size 9 to 14) (size 15 to 20)
#    0.000    1.500    0.000    5.625    0.000   12.000 
#    0.000    5.000    0.000   15.000    0.000    0.000 
#    0.000    0.000    0.000    0.000    0.000    0.000 
#
# Total GULP energy -396494.896339 kJ/mol
# GULP energy per Si atom -12390.465511 kJ/mol
# Density = 2.146270 g / cm^3
# Si number density = 21.511659 Si / 1000 Ang^3
#
#
#
# Elastic Constant Matrix: (Units=GPa)
#
#
# Indices 1 2 3 4 5 6 
#
# 1 80.8132 26.9886 33.3260 0.0000 0.0000 0.0000
# 2 26.9886 158.8051 57.1048 0.0000 0.0000 0.0000
# 3 33.3260 57.1048 177.9342 0.0000 0.0000 0.0000
# 4 0.0000 0.0000 0.0000 27.7920 0.0000 0.0000
# 5 0.0000 0.0000 0.0000 0.0000 11.1867 0.0000
# 6 0.0000 0.0000 0.0000 0.0000 0.0000 27.5552
#
#
#
# Elastic Compliance Matrix: (Units=1/GPa)
#
#
# Indices 1 2 3 4 5 6 
#
# 1 0.013759 -0.001596 -0.002065 0.000000 0.000000 0.000000
# 2 -0.001596 0.007304 -0.002045 0.000000 0.000000 0.000000
# 3 -0.002065 -0.002045 0.006663 0.000000 0.000000 0.000000
# 4 0.000000 0.000000 0.000000 0.035982 0.000000 0.000000
# 5 0.000000 0.000000 0.000000 0.000000 0.089392 0.000000
# 6 0.000000 0.000000 0.000000 0.000000 0.000000 0.036291
#
#
# Mechanical properties :
#
#
# Convention : Reuss Voigt Hill
#
# Bulk Modulus (GPa) = 61.29675 72.48792 66.89234
# Shear Modulus (GPa) = 24.24368 33.31564 28.77966
#
# Velocity S-wave (km/s) = 3.36073 3.93965 3.66165
# Velocity P-wave (km/s) = 6.60423 7.38002 7.00288
#
# Compressibility (1/GPa) = 0.01631408
#
# Stress axis : x y z
#
# Youngs Moduli (GPa) = 72.68174 136.91840 150.08017
#
# Poissons Ratio (x) = 0.21849 0.30988
# Poissons Ratio (y) = 0.11598 0.30693
# Poissons Ratio (z) = 0.15007 0.28001
#
# Static dielectric constant tensor:
#      x y z
#    x 3.804470 0.000000 0.000000 
#    y 0.000000 14.812510 0.000000 
#    z 0.000000 0.000000 4.218600 
# 
# 
# High freq. dielectric constant tensor:
#      x y z
#    x 1.809650 0.000000 0.000000 
#    y 0.000000 1.851150 0.000000 
#    z 0.000000 0.000000 1.864220 
# 
# From -- ./inp_files/48146.got.cif
#   From: 2010.03.12/outbox.cif.g09.slc.cpg/sg68_25_cif.got.tgz:48146.got - 2010.04.10 23:14:56.
