data_PCOD8282061
_publ_section_title
;
Structure prediction by ZEFSAII (Michael W. Deem and Ramdas Pophale) SiO2 
 PCOD8282061
Probable space group: C C C A
;
_chemical_formula_sum "Si O2"
_cell_formula_units_Z 112
_cell_length_a 10.893110
_cell_length_b 17.076358
_cell_length_c 28.623737
_cell_angle_alpha 90.000000
_cell_angle_beta 90.000000
_cell_angle_gamma 90.000000
_cell_volume 5324.434308
_symmetry_space_group_name_H-M "C C C A"
_symmetry_group_IT_number 68
_space_group.IT_coordinate_system_code '2'
_symmetry_cell_setting 'orthorhombic'
loop_
_space_group_symop_operation_xyz
x,y,z
-x,1/2-y,z
x,1/2-y,1/2-z
-x,y,1/2-z
-x,-y,-z
x,1/2+y,-z
-x,1/2+y,1/2+z
x,-y,1/2+z
1/2+x,1/2+y,z
1/2-x,-y,z
1/2+x,-y,1/2-z
1/2-x,1/2+y,1/2-z
1/2-x,1/2-y,-z
1/2+x,y,-z
1/2-x,y,1/2+z
1/2+x,1/2-y,1/2+z
loop_
_atom_site_type_symbol
_atom_site_label
_atom_site_fract_x
_atom_site_fract_y
_atom_site_fract_z
Si Si1 0.888278 0.515237 0.783093
Si Si2 0.157379 0.644041 0.415070
Si Si3 0.080574 0.586773 0.911889
Si Si4 0.445654 0.666728 0.011417
Si Si5 0.059589 0.171883 0.332154
Si Si6 0.447896 0.935055 0.878632
Si Si7 0.247632 0.183379 0.908341
O O1 0.750000 0.500000 0.761958
O O2 0.912196 0.607133 0.792710
O O3 0.894603 0.464048 0.829842
O O4 0.000000 0.486164 0.750000
O O5 0.272569 0.586381 0.406865
O O6 0.097935 0.621557 0.465193
O O7 0.177574 0.736171 0.415487
O O8 0.060041 0.626403 0.373453
O O9 0.054685 0.619829 0.963431
O O10 0.037206 0.643746 0.870678
O O11 0.008866 0.505441 0.907829
O O12 0.500000 0.750000 0.996727
O O13 0.335447 0.672919 0.047990
O O14 0.185810 0.190545 0.358534
O O15 0.000000 0.250000 0.308885
O O16 0.339489 0.893008 0.907406
#
# Coordination Sequence:
#
# PCOD8282061 Si02
#       7
#    16  16  16  16  16  16  16
#     4  11  25  47  75 102 134 170 213 274 347 421
#     4  12  23  38  61  89 131 177 221 272 328 382
#     4  10  22  39  56  88 125 171 220 275 317 381
#     4  11  22  37  60  87 124 179 231 273 315 379
#     4  10  19  40  71  94 122 166 219 263 312 398
#     4  11  25  41  64  95 126 168 217 264 343 396
#     4  11  20  40  65  86 130 170 222 269 318 386
#
# _framework density 21.035098999999999
#
# number of rings (size 3 to 8) (size 9 to 14) (size 15 to 20)
#    0.000    1.143    4.286    3.000    2.000    3.143 
#    2.571    0.000    0.000    1.714    0.000    0.000 
#    0.000    0.000    0.000    0.000    0.000    0.000 
#
# Total GULP energy -694141.463011 kJ/mol
# GULP energy per Si atom -12395.383268 kJ/mol
# Density = 2.098722 g / cm^3
# Si number density = 21.035099 Si / 1000 Ang^3
#
#
#
# Elastic Constant Matrix: (Units=GPa)
#
#
# Indices 1 2 3 4 5 6 
#
# 1 139.7791 38.5776 27.7498 0.0000 0.0000 0.0000
# 2 38.5776 90.2908 19.9541 0.0000 0.0000 0.0000
# 3 27.7498 19.9541 39.8297 0.0000 0.0000 0.0000
# 4 0.0000 0.0000 0.0000 -27.5476 0.0000 0.0000
# 5 0.0000 0.0000 0.0000 0.0000 24.2773 0.0000
# 6 0.0000 0.0000 0.0000 0.0000 0.0000 43.7094
#
#
#
# Elastic Compliance Matrix: (Units=1/GPa)
#
#
# Indices 1 2 3 4 5 6 
#
# 1 0.008860 -0.002723 -0.004809 0.000000 0.000000 0.000000
# 2 -0.002723 0.013291 -0.004762 0.000000 0.000000 0.000000
# 3 -0.004809 -0.004762 0.030843 0.000000 0.000000 0.000000
# 4 0.000000 0.000000 0.000000 -0.036301 0.000000 0.000000
# 5 0.000000 0.000000 0.000000 0.000000 0.041191 0.000000
# 6 0.000000 0.000000 0.000000 0.000000 0.000000 0.022878
#
#
# Mechanical properties :
#
#
# Convention : Reuss Voigt Hill
#
# Bulk Modulus (GPa) = 35.20211 49.16253 42.18232
# Shear Modulus (GPa) = 43.54701 20.32903 31.93802
#
# Velocity S-wave (km/s) = 4.55489 3.11212 3.90079
# Velocity P-wave (km/s) = 6.66588 6.02795 6.35492
#
# Compressibility (1/GPa) = 0.02840739
#
# Stress axis : x y z
#
# Youngs Moduli (GPa) = 112.86244 75.23894 32.42242
#
# Poissons Ratio (x) = 0.20487 0.15592
# Poissons Ratio (y) = 0.30731 0.15438
# Poissons Ratio (z) = 0.54275 0.35825
#
# Static dielectric constant tensor:
#      x y z
#    x 4.101060 0.000000 0.000000 
#    y 0.000000 4.001380 0.000000 
#    z 0.000000 0.000000 3.564550 
# 
# 
# High freq. dielectric constant tensor:
#      x y z
#    x 1.843980 0.000000 0.000000 
#    y 0.000000 1.829740 0.000000 
#    z 0.000000 0.000000 1.790980 
# 
# From -- ./inp_files/54828.got.cif
#   From: 2010.03.12/outbox.cif.g09.slc.cpg/sg68_28_cif.got.tgz:54828.got - 2010.04.10 23:14:56.
