data_PCOD8282280
_publ_section_title
;
Structure prediction by ZEFSAII (Michael W. Deem and Ramdas Pophale) SiO2 
 PCOD8282280
Probable space group: C C C A
;
_chemical_formula_sum "Si O2"
_cell_formula_units_Z 56
_cell_length_a 21.449378
_cell_length_b 4.965589
_cell_length_c 27.234835
_cell_angle_alpha 90.000000
_cell_angle_beta 90.000000
_cell_angle_gamma 90.000000
_cell_volume 2900.749470
_symmetry_space_group_name_H-M "C C C A"
_symmetry_group_IT_number 68
_space_group.IT_coordinate_system_code '2'
_symmetry_cell_setting 'orthorhombic'
loop_
_space_group_symop_operation_xyz
x,y,z
-x,1/2-y,z
x,1/2-y,1/2-z
-x,y,1/2-z
-x,-y,-z
x,1/2+y,-z
-x,1/2+y,1/2+z
x,-y,1/2+z
1/2+x,1/2+y,z
1/2-x,-y,z
1/2+x,-y,1/2-z
1/2-x,1/2+y,1/2-z
1/2-x,1/2-y,-z
1/2+x,y,-z
1/2-x,y,1/2+z
1/2+x,1/2-y,1/2+z
loop_
_atom_site_type_symbol
_atom_site_label
_atom_site_fract_x
_atom_site_fract_y
_atom_site_fract_z
Si Si1 0.425765 0.751348 0.969973
Si Si2 0.250000 0.000000 0.218016
Si Si3 0.926290 0.229459 0.858746
Si Si4 0.625804 0.259442 0.807169
O O1 0.500000 0.750000 0.969256
O O2 0.401286 0.755693 0.914297
O O3 0.398889 0.500346 0.999734
O O4 0.279206 0.250000 0.250000
O O5 0.196480 0.146143 0.185901
O O6 0.886010 0.438422 0.826370
O O7 0.000000 0.250000 0.854922
O O8 0.917622 0.928795 0.839390
O O9 0.607649 0.250000 0.750000
#
# Coordination Sequence:
#
# PCOD8282280 Si02
#       4
#    16   8  16  16
#     4   9  17  31  50  72 101 136 175 219 260 307
#     4  10  20  38  58  76 100 140 198 242 262 298
#     4  11  22  34  52  82 113 141 175 213 272 342
#     4  11  22  36  54  77 108 145 180 221 265 315
#
# _framework density 19.305354999999999
#
# number of rings (size 3 to 8) (size 9 to 14) (size 15 to 20)
#    0.000    1.714    0.000    6.857    0.000    8.000 
#    0.000    0.000    0.000    0.000    0.000   20.000 
#    0.000    0.000    0.000    0.000    0.000    0.000 
#
# Total GULP energy -346997.430094 kJ/mol
# GULP energy per Si atom -12392.765361 kJ/mol
# Density = 1.926142 g / cm^3
# Si number density = 19.305355 Si / 1000 Ang^3
#
#
#
# Elastic Constant Matrix: (Units=GPa)
#
#
# Indices 1 2 3 4 5 6 
#
# 1 56.7369 3.4505 20.0052 0.0000 0.0000 0.0000
# 2 3.4505 104.5719 37.7050 0.0000 0.0000 0.0000
# 3 20.0052 37.7050 142.5135 0.0000 0.0000 0.0000
# 4 0.0000 0.0000 0.0000 33.2969 0.0000 0.0000
# 5 0.0000 0.0000 0.0000 0.0000 -102.4842 0.0000
# 6 0.0000 0.0000 0.0000 0.0000 0.0000 15.5461
#
#
#
# Elastic Compliance Matrix: (Units=1/GPa)
#
#
# Indices 1 2 3 4 5 6 
#
# 1 0.018555 0.000361 -0.002700 0.000000 0.000000 0.000000
# 2 0.000361 0.010578 -0.002849 0.000000 0.000000 0.000000
# 3 -0.002700 -0.002849 0.008150 0.000000 0.000000 0.000000
# 4 0.000000 0.000000 0.000000 0.030033 0.000000 0.000000
# 5 0.000000 0.000000 0.000000 0.000000 -0.009758 0.000000
# 6 0.000000 0.000000 0.000000 0.000000 0.000000 0.064325
#
#
# Mechanical properties :
#
#
# Convention : Reuss Voigt Hill
#
# Bulk Modulus (GPa) = 37.16545 47.34930 42.25738
# Shear Modulus (GPa) = 35.40344 5.44918 20.42631
#
# Velocity S-wave (km/s) = 4.28701 1.68189 3.25632
# Velocity P-wave (km/s) = 6.61799 5.32461 6.00621
#
# Compressibility (1/GPa) = 0.02690671
#
# Stress axis : x y z
#
# Youngs Moduli (GPa) = 53.89282 94.53331 122.70217
#
# Poissons Ratio (x) = -0.03416 0.33133
# Poissons Ratio (y) = -0.01948 0.34963
# Poissons Ratio (z) = 0.14553 0.26937
#
# Static dielectric constant tensor:
#      x y z
#    x 3.120800 0.000000 0.000000 
#    y 0.000000 4.104810 0.000000 
#    z 0.000000 0.000000 3.606120 
# 
# 
# High freq. dielectric constant tensor:
#      x y z
#    x 1.708880 0.000000 0.000000 
#    y 0.000000 1.779730 0.000000 
#    z 0.000000 0.000000 1.748250 
# 
# From -- ./inp_files/35025.got.cif
#   From: 2010.03.12/outbox.cif.g09.slc.cpg/sg68_18_cif.got.tgz:35025.got - 2010.04.10 23:14:56.
