data_PCOD8282176
_publ_section_title
;
Structure prediction by ZEFSAII (Michael W. Deem and Ramdas Pophale) SiO2 
 PCOD8282176
Probable space group: C C C A
;
_chemical_formula_sum "Si O2"
_cell_formula_units_Z 96
_cell_length_a 24.050705
_cell_length_b 8.589259
_cell_length_c 22.356417
_cell_angle_alpha 90.000000
_cell_angle_beta 90.000000
_cell_angle_gamma 90.000000
_cell_volume 4618.337973
_symmetry_space_group_name_H-M "C C C A"
_symmetry_group_IT_number 68
_space_group.IT_coordinate_system_code '2'
_symmetry_cell_setting 'orthorhombic'
loop_
_space_group_symop_operation_xyz
x,y,z
-x,1/2-y,z
x,1/2-y,1/2-z
-x,y,1/2-z
-x,-y,-z
x,1/2+y,-z
-x,1/2+y,1/2+z
x,-y,1/2+z
1/2+x,1/2+y,z
1/2-x,-y,z
1/2+x,-y,1/2-z
1/2-x,1/2+y,1/2-z
1/2-x,1/2-y,-z
1/2+x,y,-z
1/2-x,y,1/2+z
1/2+x,1/2-y,1/2+z
loop_
_atom_site_type_symbol
_atom_site_label
_atom_site_fract_x
_atom_site_fract_y
_atom_site_fract_z
Si Si1 0.081193 0.095526 0.076105
Si Si2 0.191833 0.078257 0.932413
Si Si3 0.712858 0.232792 0.318973
Si Si4 0.169667 0.896223 0.669184
Si Si5 0.626314 0.667688 0.503135
Si Si6 0.500000 0.750000 0.343801
Si Si7 0.911849 0.250000 0.250000
O O1 0.135960 0.155906 0.111115
O O2 0.025023 0.109867 0.115604
O O3 0.091815 0.919876 0.055222
O O4 0.079053 0.216144 0.021406
O O5 0.191686 0.125343 0.861366
O O6 0.179105 0.236595 0.969908
O O7 0.250000 0.000000 0.951002
O O8 0.145463 0.951871 0.950949
O O9 0.694641 0.250000 0.250000
O O10 0.779772 0.224621 0.323183
O O11 0.688552 0.071396 0.341937
O O12 0.127875 0.887974 0.726008
O O13 0.450829 0.820881 0.302560
#
# Coordination Sequence:
#
# PCOD8282176 Si02
#       7
#    16  16  16  16  16   8   8
#     4  10  20  39  58  88 115 152 199 259 310 366
#     4  11  22  37  58  87 122 171 211 241 302 377
#     4  11  23  34  53  88 122 164 199 244 303 368
#     4  10  20  36  55  81 123 153 201 247 299 366
#     4  10  22  38  59  84 125 161 199 262 306 356
#     4   9  20  34  64  90 108 154 207 260 318 376
#     4   9  18  38  60  86 112 158 200 257 308 378
#
# _framework density 20.7867
#
# number of rings (size 3 to 8) (size 9 to 14) (size 15 to 20)
#    0.000    1.833    2.500    1.500    2.333    4.667 
#    0.000    0.000    0.000    0.000    4.333    1.167 
#    0.000    0.000    0.000    0.000    0.000    0.000 
#
# Total GULP energy -594728.756732 kJ/mol
# GULP energy per Si atom -12390.182432 kJ/mol
# Density = 2.073939 g / cm^3
# Si number density = 20.786700 Si / 1000 Ang^3
#
#
#
# Elastic Constant Matrix: (Units=GPa)
#
#
# Indices 1 2 3 4 5 6 
#
# 1 89.1205 32.7326 43.2895 0.0000 0.0000 0.0000
# 2 32.7326 92.6602 43.8556 0.0000 0.0000 0.0000
# 3 43.2895 43.8556 110.6393 0.0000 0.0000 0.0000
# 4 0.0000 0.0000 0.0000 33.5695 0.0000 0.0000
# 5 0.0000 0.0000 0.0000 0.0000 27.8161 0.0000
# 6 0.0000 0.0000 0.0000 0.0000 0.0000 19.8922
#
#
#
# Elastic Compliance Matrix: (Units=1/GPa)
#
#
# Indices 1 2 3 4 5 6 
#
# 1 0.014501 -0.003000 -0.004485 0.000000 0.000000 0.000000
# 2 -0.003000 0.013905 -0.004338 0.000000 0.000000 0.000000
# 3 -0.004485 -0.004338 0.012513 0.000000 0.000000 0.000000
# 4 0.000000 0.000000 0.000000 0.029789 0.000000 0.000000
# 5 0.000000 0.000000 0.000000 0.000000 0.035950 0.000000
# 6 0.000000 0.000000 0.000000 0.000000 0.000000 0.050271
#
#
# Mechanical properties :
#
#
# Convention : Reuss Voigt Hill
#
# Bulk Modulus (GPa) = 57.89219 59.13059 58.51139
# Shear Modulus (GPa) = 26.83389 27.75840 27.29614
#
# Velocity S-wave (km/s) = 3.59683 3.65827 3.62768
# Velocity P-wave (km/s) = 6.72017 6.80823 6.76434
#
# Compressibility (1/GPa) = 0.01727349
#
# Stress axis : x y z
#
# Youngs Moduli (GPa) = 68.96093 71.91660 79.91991
#
# Poissons Ratio (x) = 0.21575 0.35841
# Poissons Ratio (y) = 0.20688 0.34669
# Poissons Ratio (z) = 0.30926 0.31197
#
# Static dielectric constant tensor:
#      x y z
#    x 3.681940 0.000000 0.000000 
#    y 0.000000 3.566980 0.000000 
#    z 0.000000 0.000000 3.971430 
# 
# 
# High freq. dielectric constant tensor:
#      x y z
#    x 1.797180 0.000000 0.000000 
#    y 0.000000 1.793400 0.000000 
#    z 0.000000 0.000000 1.824530 
# 
# From -- ./inp_files/46956.got.cif
#   From: 2010.03.12/outbox.cif.g09.slc.cpg/sg68_24_cif.got.tgz:46956.got - 2010.04.10 23:14:56.
