data_PCOD8282577
_publ_section_title
;
Structure prediction by ZEFSAII (Michael W. Deem and Ramdas Pophale) SiO2 
 PCOD8282577
Probable space group: C C C A
;
_chemical_formula_sum "Si O2"
_cell_formula_units_Z 64
_cell_length_a 18.013239
_cell_length_b 7.744860
_cell_length_c 23.123172
_cell_angle_alpha 90.000000
_cell_angle_beta 90.000000
_cell_angle_gamma 90.000000
_cell_volume 3225.914054
_symmetry_space_group_name_H-M "C C C A"
_symmetry_group_IT_number 68
_space_group.IT_coordinate_system_code '2'
_symmetry_cell_setting 'orthorhombic'
loop_
_space_group_symop_operation_xyz
x,y,z
-x,1/2-y,z
x,1/2-y,1/2-z
-x,y,1/2-z
-x,-y,-z
x,1/2+y,-z
-x,1/2+y,1/2+z
x,-y,1/2+z
1/2+x,1/2+y,z
1/2-x,-y,z
1/2+x,-y,1/2-z
1/2-x,1/2+y,1/2-z
1/2-x,1/2-y,-z
1/2+x,y,-z
1/2-x,y,1/2+z
1/2+x,1/2-y,1/2+z
loop_
_atom_site_type_symbol
_atom_site_label
_atom_site_fract_x
_atom_site_fract_y
_atom_site_fract_z
Si Si1 0.321890 0.606184 0.298407
Si Si2 0.250000 0.500000 0.506411
Si Si3 0.162998 0.716774 0.926162
Si Si4 0.473144 0.058019 0.187368
Si Si5 0.000000 0.750000 0.895922
O O1 0.341833 0.750000 0.250000
O O2 0.250000 0.500000 0.278820
O O3 0.312774 0.701832 0.359477
O O4 0.384466 0.459914 0.308607
O O5 0.217382 0.640553 0.548933
O O6 0.181408 0.450475 0.464519
O O7 0.074782 0.749948 0.934157
O O8 0.500000 0.250000 0.169530
O O9 0.500000 0.004759 0.250000
O O10 0.506405 0.922345 0.142312
#
# Coordination Sequence:
#
# PCOD8282577 Si02
#       5
#    16   8  16  16   8
#     4  11  24  39  63  99 132 162 215 267 322 390
#     4  10  22  42  64  86 124 174 206 266 316 374
#     4  10  22  42  63  90 126 162 216 260 319 377
#     4  10  21  38  61  89 129 171 208 252 319 383
#     4  10  21  40  62  94 122 162 211 272 310 382
#
# _framework density 19.839338000000001
#
# number of rings (size 3 to 8) (size 9 to 14) (size 15 to 20)
#    0.000    1.750    1.250    3.375    5.250    3.000 
#    4.500    0.000    0.000    0.000    0.000    0.000 
#    0.000    0.000    0.000    0.000    0.000    0.000 
#
# Total GULP energy -396614.955525 kJ/mol
# GULP energy per Si atom -12394.217360 kJ/mol
# Density = 1.979418 g / cm^3
# Si number density = 19.839338 Si / 1000 Ang^3
#
#
#
# Elastic Constant Matrix: (Units=GPa)
#
#
# Indices 1 2 3 4 5 6 
#
# 1 142.0486 60.1442 42.4257 0.0000 0.0000 0.0000
# 2 60.1442 108.4972 42.6880 0.0000 0.0000 0.0000
# 3 42.4257 42.6880 110.9896 0.0000 0.0000 0.0000
# 4 0.0000 0.0000 0.0000 12.9135 0.0000 0.0000
# 5 0.0000 0.0000 0.0000 0.0000 670.2001 0.0000
# 6 0.0000 0.0000 0.0000 0.0000 0.0000 -13.6606
#
#
#
# Elastic Compliance Matrix: (Units=1/GPa)
#
#
# Indices 1 2 3 4 5 6 
#
# 1 0.009526 -0.004534 -0.001898 0.000000 0.000000 0.000000
# 2 -0.004534 0.013018 -0.003274 0.000000 0.000000 0.000000
# 3 -0.001898 -0.003274 0.010994 0.000000 0.000000 0.000000
# 4 0.000000 0.000000 0.000000 0.077438 0.000000 0.000000
# 5 0.000000 0.000000 0.000000 0.000000 0.001492 0.000000
# 6 0.000000 0.000000 0.000000 0.000000 0.000000 -0.073203
#
#
# Mechanical properties :
#
#
# Convention : Reuss Voigt Hill
#
# Bulk Modulus (GPa) = 70.78183 72.45013 71.61598
# Shear Modulus (GPa) = 78.88066 148.30910 113.59488
#
# Velocity S-wave (km/s) = 6.31237 8.65548 7.57507
# Velocity P-wave (km/s) = 9.42778 11.68279 10.61533
#
# Compressibility (1/GPa) = 0.01412792
#
# Stress axis : x y z
#
# Youngs Moduli (GPa) = 104.97113 76.81409 90.95590
#
# Poissons Ratio (x) = 0.34830 0.17259
# Poissons Ratio (y) = 0.47597 0.29777
# Poissons Ratio (z) = 0.19919 0.25148
#
# Static dielectric constant tensor:
#      x y z
#    x 3.781360 0.000000 0.000000 
#    y 0.000000 3.668320 0.000000 
#    z 0.000000 0.000000 3.853410 
# 
# 
# High freq. dielectric constant tensor:
#      x y z
#    x 1.784520 0.000000 0.000000 
#    y 0.000000 1.774350 0.000000 
#    z 0.000000 0.000000 1.773470 
# 
# From -- ./inp_files/35974.got.cif
#   From: 2010.03.12/outbox.cif.g09.slc.cpg/sg68_18_cif.got.tgz:35974.got - 2010.04.10 23:14:56.
