data_PCOD8282122
_publ_section_title
;
Structure prediction by ZEFSAII (Michael W. Deem and Ramdas Pophale) SiO2 
 PCOD8282122
Probable space group: C C C A
;
_chemical_formula_sum "Si O2"
_cell_formula_units_Z 84
_cell_length_a 10.204894
_cell_length_b 18.177207
_cell_length_c 24.320311
_cell_angle_alpha 90.000000
_cell_angle_beta 90.000000
_cell_angle_gamma 90.000000
_cell_volume 4511.331856
_symmetry_space_group_name_H-M "C C C A"
_symmetry_group_IT_number 68
_space_group.IT_coordinate_system_code '2'
_symmetry_cell_setting 'orthorhombic'
loop_
_space_group_symop_operation_xyz
x,y,z
-x,1/2-y,z
x,1/2-y,1/2-z
-x,y,1/2-z
-x,-y,-z
x,1/2+y,-z
-x,1/2+y,1/2+z
x,-y,1/2+z
1/2+x,1/2+y,z
1/2-x,-y,z
1/2+x,-y,1/2-z
1/2-x,1/2+y,1/2-z
1/2-x,1/2-y,-z
1/2+x,y,-z
1/2-x,y,1/2+z
1/2+x,1/2-y,1/2+z
loop_
_atom_site_type_symbol
_atom_site_label
_atom_site_fract_x
_atom_site_fract_y
_atom_site_fract_z
Si Si1 0.750000 0.500000 0.775886
Si Si2 0.000000 0.421896 0.750000
Si Si3 0.350727 0.644717 0.166125
Si Si4 0.904271 0.585060 0.946994
Si Si5 0.431091 0.173544 0.353728
Si Si6 0.000000 0.250000 0.250000
Si Si7 0.895942 0.413789 0.959004
O O1 0.628933 0.528272 0.739112
O O2 0.694629 0.435063 0.813420
O O3 0.013471 0.372731 0.696642
O O4 0.433330 0.627648 0.110624
O O5 0.222266 0.690941 0.151727
O O6 0.422297 0.694064 0.211178
O O7 0.914113 0.497723 0.940617
O O8 0.757823 0.604902 0.969040
O O9 0.019549 0.609896 0.987977
O O10 0.500000 0.250000 0.355384
O O11 0.459736 0.131253 0.409685
#
# Coordination Sequence:
#
# PCOD8282122 Si02
#       7
#     8   8  16  16  16   4  16
#     4  10  20  38  60  86 112 156 202 246 294 364
#     4  10  20  34  60  82 112 148 192 244 291 339
#     4  10  22  39  60  83 123 159 192 245 306 356
#     4   9  17  37  60  84 113 149 194 244 291 346
#     4  10  21  37  56  81 114 157 192 234 286 361
#     4  12  26  40  58  94 128 162 200 252 318 368
#     4   9  18  35  60  85 112 149 195 242 293 342
#
# _framework density 18.619778
#
# number of rings (size 3 to 8) (size 9 to 14) (size 15 to 20)
#    0.000    2.286    0.000    4.286    5.333    0.000 
#    5.143    5.714    0.000    0.000    0.000    0.000 
#    0.000    0.000    0.000    0.000    0.000    0.000 
#
# Total GULP energy -520536.015773 kJ/mol
# GULP energy per Si atom -12393.714661 kJ/mol
# Density = 1.857740 g / cm^3
# Si number density = 18.619778 Si / 1000 Ang^3
#
#
#
# Elastic Constant Matrix: (Units=GPa)
#
#
# Indices 1 2 3 4 5 6 
#
# 1 106.3449 60.3076 80.2018 0.0000 0.0000 0.0000
# 2 60.3076 100.7173 66.6337 0.0000 0.0000 0.0000
# 3 80.2018 66.6337 133.4241 0.0000 0.0000 0.0000
# 4 0.0000 0.0000 0.0000 36.2593 0.0000 0.0000
# 5 0.0000 0.0000 0.0000 0.0000 38.0427 0.0000
# 6 0.0000 0.0000 0.0000 0.0000 0.0000 25.1311
#
#
#
# Elastic Compliance Matrix: (Units=1/GPa)
#
#
# Indices 1 2 3 4 5 6 
#
# 1 0.019211 -0.005770 -0.008667 0.000000 0.000000 0.000000
# 2 -0.005770 0.016561 -0.004803 0.000000 0.000000 0.000000
# 3 -0.008667 -0.004803 0.015103 0.000000 0.000000 0.000000
# 4 0.000000 0.000000 0.000000 0.027579 0.000000 0.000000
# 5 0.000000 0.000000 0.000000 0.000000 0.026286 0.000000
# 6 0.000000 0.000000 0.000000 0.000000 0.000000 0.039791
#
#
# Mechanical properties :
#
#
# Convention : Reuss Voigt Hill
#
# Bulk Modulus (GPa) = 80.66131 83.86361 82.26246
# Shear Modulus (GPa) = 26.71769 28.77616 27.74693
#
# Velocity S-wave (km/s) = 3.79213 3.93550 3.86448
# Velocity P-wave (km/s) = 7.91125 8.11103 8.01176
#
# Compressibility (1/GPa) = 0.01239752
#
# Stress axis : x y z
#
# Youngs Moduli (GPa) = 52.05252 60.38336 66.21257
#
# Poissons Ratio (x) = 0.34839 0.57384
# Poissons Ratio (y) = 0.30033 0.31799
# Poissons Ratio (z) = 0.45112 0.28999
#
# Static dielectric constant tensor:
#      x y z
#    x 3.607760 0.000000 0.000000 
#    y 0.000000 3.431450 0.000000 
#    z 0.000000 0.000000 3.455450 
# 
# 
# High freq. dielectric constant tensor:
#      x y z
#    x 1.724390 0.000000 0.000000 
#    y 0.000000 1.719470 0.000000 
#    z 0.000000 0.000000 1.724100 
# 
# From -- ./inp_files/37419.got.cif
#   From: 2010.03.12/outbox.cif.g09.slc.cpg/sg68_19_cif.got.tgz:37419.got - 2010.04.10 23:14:56.
