data_PCOD8282746
_publ_section_title
;
Structure prediction by ZEFSAII (Michael W. Deem and Ramdas Pophale) SiO2 
 PCOD8282746
Probable space group: C C C A
;
_chemical_formula_sum "Si O2"
_cell_formula_units_Z 104
_cell_length_a 23.291830
_cell_length_b 21.954647
_cell_length_c 8.976264
_cell_angle_alpha 90.000000
_cell_angle_beta 90.000000
_cell_angle_gamma 90.000000
_cell_volume 4590.137417
_symmetry_space_group_name_H-M "C C C A"
_symmetry_group_IT_number 68
_space_group.IT_coordinate_system_code '2'
_symmetry_cell_setting 'orthorhombic'
loop_
_space_group_symop_operation_xyz
x,y,z
-x,1/2-y,z
x,1/2-y,1/2-z
-x,y,1/2-z
-x,-y,-z
x,1/2+y,-z
-x,1/2+y,1/2+z
x,-y,1/2+z
1/2+x,1/2+y,z
1/2-x,-y,z
1/2+x,-y,1/2-z
1/2-x,1/2+y,1/2-z
1/2-x,1/2-y,-z
1/2+x,y,-z
1/2-x,y,1/2+z
1/2+x,1/2-y,1/2+z
loop_
_atom_site_type_symbol
_atom_site_label
_atom_site_fract_x
_atom_site_fract_y
_atom_site_fract_z
Si Si1 0.633956 0.931761 0.614160
Si Si2 0.519523 0.932049 0.472165
Si Si3 0.173313 0.948748 0.719511
Si Si4 0.074455 0.122574 0.306114
Si Si5 0.391798 0.750000 0.250000
Si Si6 0.291711 0.702520 0.071849
Si Si7 0.722863 0.870526 0.789887
O O1 0.565319 0.916569 0.604531
O O2 0.656870 0.945637 0.451969
O O3 0.666360 0.873875 0.685434
O O4 0.650902 0.987507 0.720205
O O5 0.462676 0.887798 0.459080
O O6 0.551334 0.926413 0.313628
O O7 0.500000 0.000000 0.500000
O O8 0.141963 0.894939 0.819501
O O9 0.241799 0.935025 0.722651
O O10 0.067709 0.190317 0.235138
O O11 0.353211 0.765224 0.396264
O O12 0.296798 0.645353 0.957334
O O13 0.250000 0.750000 0.000000
O O14 0.264838 0.682136 0.229494
#
# Coordination Sequence:
#
# PCOD8282746 Si02
#       7
#    16  16  16  16   8  16  16
#     4  11  25  38  67  99 140 187 240 301 374 445
#     4  10  21  43  66  94 134 181 235 303 368 436
#     4  11  22  40  61  99 139 184 238 297 366 451
#     4  10  22  41  70 101 135 182 250 300 363 438
#     4  12  24  43  74 108 142 190 255 302 362 438
#     4  12  23  42  66  96 142 193 238 288 358 441
#     4  12  24  41  64 100 143 191 236 295 367 446
#
# _framework density 22.657274999999998
#
# number of rings (size 3 to 8) (size 9 to 14) (size 15 to 20)
#    0.000    0.923    6.154    0.462    4.308    2.462 
#    0.000    0.000    0.000    0.000    0.000    0.000 
#    0.000    0.000    0.000    0.000    0.000    0.000 
#
# Total GULP energy -644218.746706 kJ/mol
# GULP energy per Si atom -12388.822052 kJ/mol
# Density = 2.260571 g / cm^3
# Si number density = 22.657275 Si / 1000 Ang^3
#
#
#
# Elastic Constant Matrix: (Units=GPa)
#
#
# Indices 1 2 3 4 5 6 
#
# 1 130.8480 43.1487 46.6802 0.0000 0.0000 0.0000
# 2 43.1487 102.9568 30.6646 0.0000 0.0000 0.0000
# 3 46.6802 30.6646 101.8553 0.0000 0.0000 0.0000
# 4 0.0000 0.0000 0.0000 40.6541 0.0000 0.0000
# 5 0.0000 0.0000 0.0000 0.0000 44.7424 0.0000
# 6 0.0000 0.0000 0.0000 0.0000 0.0000 33.3131
#
#
#
# Elastic Compliance Matrix: (Units=1/GPa)
#
#
# Indices 1 2 3 4 5 6 
#
# 1 0.009958 -0.003091 -0.003633 0.000000 0.000000 0.000000
# 2 -0.003091 0.011629 -0.002084 0.000000 0.000000 0.000000
# 3 -0.003633 -0.002084 0.012110 0.000000 0.000000 0.000000
# 4 0.000000 0.000000 0.000000 0.024598 0.000000 0.000000
# 5 0.000000 0.000000 0.000000 0.000000 0.022350 0.000000
# 6 0.000000 0.000000 0.000000 0.000000 0.000000 0.030018
#
#
# Mechanical properties :
#
#
# Convention : Reuss Voigt Hill
#
# Bulk Modulus (GPa) = 62.18851 64.07188 63.13020
# Shear Modulus (GPa) = 37.41368 38.08637 37.75002
#
# Velocity S-wave (km/s) = 4.06801 4.10442 4.08626
# Velocity P-wave (km/s) = 7.04074 7.12754 7.08427
#
# Compressibility (1/GPa) = 0.01608014
#
# Stress axis : x y z
#
# Youngs Moduli (GPa) = 100.42251 85.99088 82.57369
#
# Poissons Ratio (x) = 0.26582 0.29999
# Poissons Ratio (y) = 0.31043 0.17211
# Poissons Ratio (z) = 0.36484 0.17924
#
# Static dielectric constant tensor:
#      x y z
#    x 4.859600 0.000000 0.000000 
#    y 0.000000 4.079390 0.000000 
#    z 0.000000 0.000000 7.091700 
# 
# 
# High freq. dielectric constant tensor:
#      x y z
#    x 1.909020 0.000000 0.000000 
#    y 0.000000 1.884270 0.000000 
#    z 0.000000 0.000000 1.874900 
# 
# From -- ./inp_files/9136.got.cif
#   From: 2010.03.12/outbox.cif.g09.slc.cpg/sg68_5_cif.got.tgz:9136.got - 2010.04.10 23:14:56.
