data_PCOD8282449
_publ_section_title
;
Structure prediction by ZEFSAII (Michael W. Deem and Ramdas Pophale) SiO2 
 PCOD8282449
Probable space group: C C C A
;
_chemical_formula_sum "Si O2"
_cell_formula_units_Z 84
_cell_length_a 19.005359
_cell_length_b 20.565581
_cell_length_c 11.125065
_cell_angle_alpha 90.000000
_cell_angle_beta 90.000000
_cell_angle_gamma 90.000000
_cell_volume 4348.301186
_symmetry_space_group_name_H-M "C C C A"
_symmetry_group_IT_number 68
_space_group.IT_coordinate_system_code '2'
_symmetry_cell_setting 'orthorhombic'
loop_
_space_group_symop_operation_xyz
x,y,z
-x,1/2-y,z
x,1/2-y,1/2-z
-x,y,1/2-z
-x,-y,-z
x,1/2+y,-z
-x,1/2+y,1/2+z
x,-y,1/2+z
1/2+x,1/2+y,z
1/2-x,-y,z
1/2+x,-y,1/2-z
1/2-x,1/2+y,1/2-z
1/2-x,1/2-y,-z
1/2+x,y,-z
1/2-x,y,1/2+z
1/2+x,1/2-y,1/2+z
loop_
_atom_site_type_symbol
_atom_site_label
_atom_site_fract_x
_atom_site_fract_y
_atom_site_fract_z
Si Si1 0.831115 0.077214 0.847543
Si Si2 0.094589 0.562868 0.586824
Si Si3 0.500000 0.750000 0.250000
Si Si4 0.560758 0.580431 0.846268
Si Si5 0.822639 0.426788 0.183278
Si Si6 0.042971 0.138944 0.086563
O O1 0.869396 0.100979 0.726065
O O2 0.752460 0.107941 0.845273
O O3 0.820489 0.000815 0.855160
O O4 0.879725 0.094545 0.961691
O O5 0.074097 0.486657 0.579866
O O6 0.159313 0.576602 0.675781
O O7 0.025875 0.601135 0.635551
O O8 0.546452 0.707735 0.156140
O O9 0.500000 0.566869 0.750000
O O10 0.538572 0.637737 0.939715
O O11 0.882659 0.394038 0.106302
#
# Coordination Sequence:
#
# PCOD8282449 Si02
#       6
#    16  16   4  16  16  16
#     4  10  21  32  55  97 131 162 185 242 337 387
#     4  11  19  35  60  91 130 161 197 253 318 384
#     4  12  28  44  66  88 108 180 234 256 296 356
#     4  11  21  34  61  97 126 159 195 261 327 373
#     4  10  21  33  55  89 133 162 197 241 310 387
#     4  12  22  41  61  84 118 161 220 260 291 367
#
# _framework density 19.317889999999998
#
# number of rings (size 3 to 8) (size 9 to 14) (size 15 to 20)
#    0.000    1.143    5.714    2.857    2.667    1.524 
#    0.000    0.476    0.000    4.571    0.000    0.000 
#    0.000    0.000    0.000    0.000    0.000    0.000 
#
# Total GULP energy -520407.618003 kJ/mol
# GULP energy per Si atom -12390.657571 kJ/mol
# Density = 1.927392 g / cm^3
# Si number density = 19.317890 Si / 1000 Ang^3
#
#
#
# Elastic Constant Matrix: (Units=GPa)
#
#
# Indices 1 2 3 4 5 6 
#
# 1 149.1103 29.0537 42.0984 0.0000 0.0000 0.0000
# 2 29.0537 40.7176 41.1299 0.0000 0.0000 0.0000
# 3 42.0984 41.1299 107.1635 0.0000 0.0000 0.0000
# 4 0.0000 0.0000 0.0000 23.7516 0.0000 0.0000
# 5 0.0000 0.0000 0.0000 0.0000 15.9303 0.0000
# 6 0.0000 0.0000 0.0000 0.0000 0.0000 3.5912
#
#
#
# Elastic Compliance Matrix: (Units=1/GPa)
#
#
# Indices 1 2 3 4 5 6 
#
# 1 0.007943 -0.004108 -0.001543 0.000000 0.000000 0.000000
# 2 -0.004108 0.042235 -0.014596 0.000000 0.000000 0.000000
# 3 -0.001543 -0.014596 0.015540 0.000000 0.000000 0.000000
# 4 0.000000 0.000000 0.000000 0.042102 0.000000 0.000000
# 5 0.000000 0.000000 0.000000 0.000000 0.062773 0.000000
# 6 0.000000 0.000000 0.000000 0.000000 0.000000 0.278458
#
#
# Mechanical properties :
#
#
# Convention : Reuss Voigt Hill
#
# Bulk Modulus (GPa) = 39.64840 57.95060 48.79950
# Shear Modulus (GPa) = 10.04110 20.96859 15.50484
#
# Velocity S-wave (km/s) = 2.28235 3.29819 2.83612
# Velocity P-wave (km/s) = 5.24540 6.67590 6.00341
#
# Compressibility (1/GPa) = 0.02522170
#
# Stress axis : x y z
#
# Youngs Moduli (GPa) = 125.90171 23.67727 64.35074
#
# Poissons Ratio (x) = 0.09728 0.09932
# Poissons Ratio (y) = 0.51726 0.93926
# Poissons Ratio (z) = 0.19432 0.34559
#
# Static dielectric constant tensor:
#      x y z
#    x 4.987210 0.000000 0.000000 
#    y 0.000000 3.000660 0.000000 
#    z 0.000000 0.000000 3.740470 
# 
# 
# High freq. dielectric constant tensor:
#      x y z
#    x 1.767660 0.000000 0.000000 
#    y 0.000000 1.668700 0.000000 
#    z 0.000000 0.000000 1.773730 
# 
# From -- ./inp_files/14360.got.cif
#   From: 2010.03.12/outbox.cif.g09.slc.cpg/sg68_8_cif.got.tgz:14360.got - 2010.04.10 23:14:56.
