data_PCOD8282068
_publ_section_title
;
Structure prediction by ZEFSAII (Michael W. Deem and Ramdas Pophale) SiO2 
 PCOD8282068
Probable space group: C C C A
;
_chemical_formula_sum "Si O2"
_cell_formula_units_Z 88
_cell_length_a 8.714250
_cell_length_b 21.237636
_cell_length_c 21.537392
_cell_angle_alpha 90.000000
_cell_angle_beta 90.000000
_cell_angle_gamma 90.000000
_cell_volume 3985.926635
_symmetry_space_group_name_H-M "C C C A"
_symmetry_group_IT_number 68
_space_group.IT_coordinate_system_code '2'
_symmetry_cell_setting 'orthorhombic'
loop_
_space_group_symop_operation_xyz
x,y,z
-x,1/2-y,z
x,1/2-y,1/2-z
-x,y,1/2-z
-x,-y,-z
x,1/2+y,-z
-x,1/2+y,1/2+z
x,-y,1/2+z
1/2+x,1/2+y,z
1/2-x,-y,z
1/2+x,-y,1/2-z
1/2-x,1/2+y,1/2-z
1/2-x,1/2-y,-z
1/2+x,y,-z
1/2-x,y,1/2+z
1/2+x,1/2-y,1/2+z
loop_
_atom_site_type_symbol
_atom_site_label
_atom_site_fract_x
_atom_site_fract_y
_atom_site_fract_z
Si Si1 0.750000 0.500000 0.678148
Si Si2 0.500000 0.077502 0.750000
Si Si3 0.000000 0.842354 0.250000
Si Si4 0.271115 0.645414 0.164101
Si Si5 0.155378 0.777180 0.141565
Si Si6 0.308388 0.568457 0.550011
Si Si7 0.657670 0.903954 0.923384
O O1 0.622358 0.469029 0.720699
O O2 0.676258 0.554442 0.637492
O O3 0.422803 0.123712 0.800146
O O4 0.114024 0.878089 0.299022
O O5 0.120260 0.801770 0.210714
O O6 0.277157 0.720803 0.151638
O O7 0.277949 0.615594 0.095947
O O8 0.205087 0.832705 0.095321
O O9 0.000000 0.750000 0.111195
O O10 0.250000 0.500000 0.571187
O O11 0.487888 0.582204 0.553126
O O12 0.271856 0.578018 0.477957
#
# Coordination Sequence:
#
# PCOD8282068 Si02
#       7
#     8   8   8  16  16  16  16
#     4  12  30  50  72 110 148 192 242 292 384 434
#     4  12  30  43  76 112 152 187 240 316 360 460
#     4  10  19  43  77  98 137 195 232 291 378 445
#     4  11  24  45  72 109 142 188 247 299 378 433
#     4  10  20  43  74 101 135 194 235 296 371 434
#     4  12  26  45  75  99 148 196 249 302 361 438
#     4  12  26  48  73 103 146 195 248 301 366 434
#
# _framework density 22.077676
#
# number of rings (size 3 to 8) (size 9 to 14) (size 15 to 20)
#    0.000    0.727    4.545    5.182    6.364    1.455 
#    0.000    7.273    0.000    0.000    0.000    0.000 
#    0.000    0.000    0.000    0.000    0.000    0.000 
#
# Total GULP energy -545350.674905 kJ/mol
# GULP energy per Si atom -12394.333521 kJ/mol
# Density = 2.202743 g / cm^3
# Si number density = 22.077676 Si / 1000 Ang^3
#
#
#
# Elastic Constant Matrix: (Units=GPa)
#
#
# Indices 1 2 3 4 5 6 
#
# 1 108.9105 60.3468 41.1415 0.0000 0.0000 0.0000
# 2 60.3468 142.3433 53.9756 0.0000 0.0000 0.0000
# 3 41.1415 53.9756 89.0643 0.0000 0.0000 0.0000
# 4 0.0000 0.0000 0.0000 35.1456 0.0000 0.0000
# 5 0.0000 0.0000 0.0000 0.0000 47.2393 0.0000
# 6 0.0000 0.0000 0.0000 0.0000 0.0000 47.9152
#
#
#
# Elastic Compliance Matrix: (Units=1/GPa)
#
#
# Indices 1 2 3 4 5 6 
#
# 1 0.012744 -0.004117 -0.003392 0.000000 0.000000 0.000000
# 2 -0.004117 0.010451 -0.004432 0.000000 0.000000 0.000000
# 3 -0.003392 -0.004432 0.015481 0.000000 0.000000 0.000000
# 4 0.000000 0.000000 0.000000 0.028453 0.000000 0.000000
# 5 0.000000 0.000000 0.000000 0.000000 0.021169 0.000000
# 6 0.000000 0.000000 0.000000 0.000000 0.000000 0.020870
#
#
# Mechanical properties :
#
#
# Convention : Reuss Voigt Hill
#
# Bulk Modulus (GPa) = 67.59327 72.36064 69.97696
# Shear Modulus (GPa) = 36.23668 38.38360 37.31014
#
# Velocity S-wave (km/s) = 4.05572 4.17414 4.11536
# Velocity P-wave (km/s) = 7.25358 7.48852 7.37199
#
# Compressibility (1/GPa) = 0.01479437
#
# Stress axis : x y z
#
# Youngs Moduli (GPa) = 78.46651 95.68296 64.59629
#
# Poissons Ratio (x) = 0.39390 0.21912
# Poissons Ratio (y) = 0.32302 0.28630
# Poissons Ratio (z) = 0.26617 0.42408
#
# Static dielectric constant tensor:
#      x y z
#    x 3.805910 0.000000 0.000000 
#    y 0.000000 4.096610 0.000000 
#    z 0.000000 0.000000 4.195790 
# 
# 
# High freq. dielectric constant tensor:
#      x y z
#    x 1.856140 0.000000 0.000000 
#    y 0.000000 1.877190 0.000000 
#    z 0.000000 0.000000 1.879170 
# 
# From -- ./inp_files/43181.got.cif
#   From: 2010.03.12/outbox.cif.g09.slc.cpg/sg68_22_cif.got.tgz:43181.got - 2010.04.10 23:14:56.
