data_PCOD8282763
_publ_section_title
;
Structure prediction by ZEFSAII (Michael W. Deem and Ramdas Pophale) SiO2 
 PCOD8282763
Probable space group: C C C A
;
_chemical_formula_sum "Si O2"
_cell_formula_units_Z 92
_cell_length_a 24.997977
_cell_length_b 9.551520
_cell_length_c 17.194625
_cell_angle_alpha 90.000000
_cell_angle_beta 90.000000
_cell_angle_gamma 90.000000
_cell_volume 4105.537867
_symmetry_space_group_name_H-M "C C C A"
_symmetry_group_IT_number 68
_space_group.IT_coordinate_system_code '2'
_symmetry_cell_setting 'orthorhombic'
loop_
_space_group_symop_operation_xyz
x,y,z
-x,1/2-y,z
x,1/2-y,1/2-z
-x,y,1/2-z
-x,-y,-z
x,1/2+y,-z
-x,1/2+y,1/2+z
x,-y,1/2+z
1/2+x,1/2+y,z
1/2-x,-y,z
1/2+x,-y,1/2-z
1/2-x,1/2+y,1/2-z
1/2-x,1/2-y,-z
1/2+x,y,-z
1/2-x,y,1/2+z
1/2+x,1/2-y,1/2+z
loop_
_atom_site_type_symbol
_atom_site_label
_atom_site_fract_x
_atom_site_fract_y
_atom_site_fract_z
Si Si1 0.500000 0.250000 0.250000
Si Si2 0.361114 0.055129 0.823525
Si Si3 0.589870 0.078301 0.323695
Si Si4 0.652292 0.295180 0.423078
Si Si5 0.743796 0.158400 0.908236
Si Si6 0.382396 0.691412 0.414105
Si Si7 0.724798 0.250000 0.750000
O O1 0.533620 0.155538 0.310872
O O2 0.399666 0.172463 0.864195
O O3 0.311335 0.120646 0.778686
O O4 0.395342 0.968093 0.762681
O O5 0.341055 0.950795 0.890569
O O6 0.633225 0.184349 0.359091
O O7 0.586947 0.943910 0.380846
O O8 0.712218 0.251890 0.456354
O O9 0.608422 0.295670 0.493179
O O10 0.681680 0.193564 0.906167
O O11 0.762463 0.189780 0.818628
O O12 0.750000 0.000000 0.935049
#
# Coordination Sequence:
#
# PCOD8282763 Si02
#       7
#     4  16  16  16  16  16   8
#     4  12  28  46  82 104 124 176 258 308 352 458
#     4  11  21  42  66  92 134 184 229 287 350 408
#     4  12  23  48  70  99 131 177 233 295 361 418
#     4  12  24  39  70  98 145 191 228 286 350 421
#     4  11  22  35  60  97 142 189 234 273 326 422
#     4  11  24  43  65 102 147 181 227 287 357 423
#     4  10  22  33  56  95 132 177 235 280 322 400
#
# _framework density 22.408759
#
# number of rings (size 3 to 8) (size 9 to 14) (size 15 to 20)
#    0.000    0.696    6.957    1.565    4.870    2.087 
#    0.000    2.609    0.000    0.000    0.000    0.000 
#    0.000    0.000    0.000    0.000    0.000    0.000 
#
# Total GULP energy -570154.151469 kJ/mol
# GULP energy per Si atom -12394.655467 kJ/mol
# Density = 2.235776 g / cm^3
# Si number density = 22.408759 Si / 1000 Ang^3
#
#
#
# Elastic Constant Matrix: (Units=GPa)
#
#
# Indices 1 2 3 4 5 6 
#
# 1 78.1336 39.0701 22.0104 0.0000 0.0000 0.0000
# 2 39.0701 149.7811 38.6917 0.0000 0.0000 0.0000
# 3 22.0104 38.6917 91.1187 0.0000 0.0000 0.0000
# 4 0.0000 0.0000 0.0000 29.2444 0.0000 0.0000
# 5 0.0000 0.0000 0.0000 0.0000 -14.9717 0.0000
# 6 0.0000 0.0000 0.0000 0.0000 0.0000 23.1045
#
#
#
# Elastic Compliance Matrix: (Units=1/GPa)
#
#
# Indices 1 2 3 4 5 6 
#
# 1 0.015108 -0.003367 -0.002219 0.000000 0.000000 0.000000
# 2 -0.003367 0.008250 -0.002690 0.000000 0.000000 0.000000
# 3 -0.002219 -0.002690 0.012653 0.000000 0.000000 0.000000
# 4 0.000000 0.000000 0.000000 0.034195 0.000000 0.000000
# 5 0.000000 0.000000 0.000000 0.000000 -0.066793 0.000000
# 6 0.000000 0.000000 0.000000 0.000000 0.000000 0.043282
#
#
# Mechanical properties :
#
#
# Convention : Reuss Voigt Hill
#
# Bulk Modulus (GPa) = 51.39495 57.61978 54.50737
# Shear Modulus (GPa) = 71.70278 22.09285 46.89781
#
# Velocity S-wave (km/s) = 5.66278 3.14331 4.57971
# Velocity P-wave (km/s) = 8.10809 6.24042 7.23478
#
# Compressibility (1/GPa) = 0.01945716
#
# Stress axis : x y z
#
# Youngs Moduli (GPa) = 66.19136 121.21815 79.03329
#
# Poissons Ratio (x) = 0.40820 0.17541
# Poissons Ratio (y) = 0.22290 0.21257
# Poissons Ratio (z) = 0.14691 0.32603
#
# Static dielectric constant tensor:
#      x y z
#    x 3.490610 0.000000 0.000000 
#    y 0.000000 4.497260 0.000000 
#    z 0.000000 0.000000 4.806410 
# 
# 
# High freq. dielectric constant tensor:
#      x y z
#    x 1.820870 0.000000 0.000000 
#    y 0.000000 1.901720 0.000000 
#    z 0.000000 0.000000 1.910980 
# 
# From -- ./inp_files/40793.got.cif
#   From: 2010.03.12/outbox.cif.g09.slc.cpg/sg68_21_cif.got.tgz:40793.got - 2010.04.10 23:14:56.
