data_PCOD8282845
_publ_section_title
;
Structure prediction by ZEFSAII (Michael W. Deem and Ramdas Pophale) SiO2 
 PCOD8282845
Probable space group: C C C A
;
_chemical_formula_sum "Si O2"
_cell_formula_units_Z 96
_cell_length_a 19.947593
_cell_length_b 12.728527
_cell_length_c 18.222547
_cell_angle_alpha 90.000000
_cell_angle_beta 90.000000
_cell_angle_gamma 90.000000
_cell_volume 4626.768026
_symmetry_space_group_name_H-M "C C C A"
_symmetry_group_IT_number 68
_space_group.IT_coordinate_system_code '2'
_symmetry_cell_setting 'orthorhombic'
loop_
_space_group_symop_operation_xyz
x,y,z
-x,1/2-y,z
x,1/2-y,1/2-z
-x,y,1/2-z
-x,-y,-z
x,1/2+y,-z
-x,1/2+y,1/2+z
x,-y,1/2+z
1/2+x,1/2+y,z
1/2-x,-y,z
1/2+x,-y,1/2-z
1/2-x,1/2+y,1/2-z
1/2-x,1/2-y,-z
1/2+x,y,-z
1/2-x,y,1/2+z
1/2+x,1/2-y,1/2+z
loop_
_atom_site_type_symbol
_atom_site_label
_atom_site_fract_x
_atom_site_fract_y
_atom_site_fract_z
Si Si1 0.000000 0.250000 0.006970
Si Si2 0.702476 0.905211 0.584694
Si Si3 0.528602 0.056524 0.406343
Si Si4 0.000000 0.466875 0.750000
Si Si5 0.121768 0.627079 0.939828
Si Si6 0.595891 0.045189 0.645679
Si Si7 0.191806 0.767284 0.836588
O O1 0.027795 0.342706 0.956378
O O2 0.059693 0.208176 0.057866
O O3 0.663467 0.861136 0.514624
O O4 0.740341 0.811543 0.626968
O O5 0.750000 0.000000 0.557741
O O6 0.649833 0.951631 0.642731
O O7 0.525895 0.098135 0.321217
O O8 0.537661 0.020744 0.583211
O O9 0.595397 0.990681 0.424953
O O10 0.938528 0.541779 0.774351
O O11 0.171855 0.656751 0.873324
O O12 0.630984 0.156730 0.639391
O O13 0.201428 0.750000 0.750000
#
# Coordination Sequence:
#
# PCOD8282845 Si02
#       7
#     8  16  16   8  16  16  16
#     4  12  24  37  67 102 126 170 206 282 338 390
#     4  10  23  43  65  85 135 176 211 266 314 382
#     4  10  22  39  63  99 133 161 214 270 334 387
#     4   8  18  39  61  94 128 166 202 274 328 384
#     4  12  23  41  66  99 129 167 222 268 321 397
#     4   9  19  42  62  92 131 166 211 269 333 381
#     4  11  24  42  65  94 126 179 219 264 323 389
#
# _framework density 20.748823999999999
#
# number of rings (size 3 to 8) (size 9 to 14) (size 15 to 20)
#    1.000    0.667    1.667    3.000    4.667    0.333 
#    3.000    2.500    0.000    0.000    0.000    0.000 
#    0.000    0.000    0.000    0.000    0.000    0.000 
#
# Total GULP energy -594707.687025 kJ/mol
# GULP energy per Si atom -12389.743480 kJ/mol
# Density = 2.070160 g / cm^3
# Si number density = 20.748824 Si / 1000 Ang^3
#
#
#
# Elastic Constant Matrix: (Units=GPa)
#
#
# Indices 1 2 3 4 5 6 
#
# 1 103.5213 39.0797 35.3880 0.0000 0.0000 0.0000
# 2 39.0797 76.6607 44.0871 0.0000 0.0000 0.0000
# 3 35.3880 44.0871 113.4274 0.0000 0.0000 0.0000
# 4 0.0000 0.0000 0.0000 19.9253 0.0000 0.0000
# 5 0.0000 0.0000 0.0000 0.0000 37.3102 0.0000
# 6 0.0000 0.0000 0.0000 0.0000 0.0000 25.7738
#
#
#
# Elastic Compliance Matrix: (Units=1/GPa)
#
#
# Indices 1 2 3 4 5 6 
#
# 1 0.012239 -0.005207 -0.001795 0.000000 0.000000 0.000000
# 2 -0.005207 0.019015 -0.005766 0.000000 0.000000 0.000000
# 3 -0.001795 -0.005766 0.011617 0.000000 0.000000 0.000000
# 4 0.000000 0.000000 0.000000 0.050188 0.000000 0.000000
# 5 0.000000 0.000000 0.000000 0.000000 0.026802 0.000000
# 6 0.000000 0.000000 0.000000 0.000000 0.000000 0.038799
#
#
# Mechanical properties :
#
#
# Convention : Reuss Voigt Hill
#
# Bulk Modulus (GPa) = 57.68466 58.96879 58.32673
# Shear Modulus (GPa) = 26.31930 28.27216 27.29573
#
# Velocity S-wave (km/s) = 3.56543 3.69533 3.63096
# Velocity P-wave (km/s) = 6.69414 6.83296 6.76390
#
# Compressibility (1/GPa) = 0.01733563
#
# Stress axis : x y z
#
# Youngs Moduli (GPa) = 81.70609 52.58984 86.07845
#
# Poissons Ratio (x) = 0.27384 0.15447
# Poissons Ratio (y) = 0.42545 0.49635
# Poissons Ratio (z) = 0.14662 0.30325
#
# Static dielectric constant tensor:
#      x y z
#    x 3.916800 0.000000 0.000000 
#    y 0.000000 3.526620 0.000000 
#    z 0.000000 0.000000 3.683270 
# 
# 
# High freq. dielectric constant tensor:
#      x y z
#    x 1.816170 0.000000 0.000000 
#    y 0.000000 1.792160 0.000000 
#    z 0.000000 0.000000 1.812820 
# 
# From -- ./inp_files/24511.got.cif
#   From: 2010.03.12/outbox.cif.g09.slc.cpg/sg68_13_cif.got.tgz:24511.got - 2010.04.10 23:14:56.
