data_PCOD8282226
_publ_section_title
;
Structure prediction by ZEFSAII (Michael W. Deem and Ramdas Pophale) SiO2 
 PCOD8282226
Probable space group: C C C A
;
_chemical_formula_sum "Si O2"
_cell_formula_units_Z 72
_cell_length_a 20.799851
_cell_length_b 16.006952
_cell_length_c 10.327999
_cell_angle_alpha 90.000000
_cell_angle_beta 90.000000
_cell_angle_gamma 90.000000
_cell_volume 3438.626880
_symmetry_space_group_name_H-M "C C C A"
_symmetry_group_IT_number 68
_space_group.IT_coordinate_system_code '2'
_symmetry_cell_setting 'orthorhombic'
loop_
_space_group_symop_operation_xyz
x,y,z
-x,1/2-y,z
x,1/2-y,1/2-z
-x,y,1/2-z
-x,-y,-z
x,1/2+y,-z
-x,1/2+y,1/2+z
x,-y,1/2+z
1/2+x,1/2+y,z
1/2-x,-y,z
1/2+x,-y,1/2-z
1/2-x,1/2+y,1/2-z
1/2-x,1/2-y,-z
1/2+x,y,-z
1/2-x,y,1/2+z
1/2+x,1/2-y,1/2+z
loop_
_atom_site_type_symbol
_atom_site_label
_atom_site_fract_x
_atom_site_fract_y
_atom_site_fract_z
Si Si1 0.651660 0.089444 0.504338
Si Si2 0.750000 0.000000 0.856870
Si Si3 0.606311 0.840795 0.739020
Si Si4 0.959213 0.498812 0.869839
Si Si5 0.250623 0.163298 0.812869
O O1 0.687647 0.008478 0.447464
O O2 0.613800 0.131370 0.387326
O O3 0.706129 0.153016 0.558310
O O4 0.603020 0.058140 0.615323
O O5 0.764103 0.917674 0.774306
O O6 0.573326 0.750000 0.750000
O O7 0.560625 0.903614 0.661412
O O8 0.674110 0.833390 0.661625
O O9 0.000000 0.535537 0.750000
O O10 0.000000 0.500000 0.000000
O O11 0.273893 0.250000 0.750000
#
# Coordination Sequence:
#
# PCOD8282226 Si02
#       5
#    16   8  16  16  16
#     4  11  21  40  64  96 133 171 221 271 338 395
#     4  10  20  36  66  96 134 174 210 268 352 400
#     4  10  23  42  66  97 129 173 214 276 340 403
#     4  12  25  45  67  93 125 179 233 271 321 390
#     4  10  22  38  65 104 136 167 216 278 346 408
#
# _framework density 20.938590000000001
#
# number of rings (size 3 to 8) (size 9 to 14) (size 15 to 20)
#    0.000    1.333    2.222    4.667    0.000   10.222 
#    0.000    0.000    0.000    0.000    0.000    0.000 
#    0.000    0.000    0.000    0.000    0.000    0.000 
#
# Total GULP energy -446328.397585 kJ/mol
# GULP energy per Si atom -12398.011044 kJ/mol
# Density = 2.089093 g / cm^3
# Si number density = 20.938590 Si / 1000 Ang^3
#
#
#
# Elastic Constant Matrix: (Units=GPa)
#
#
# Indices 1 2 3 4 5 6 
#
# 1 79.3028 38.1112 49.4120 0.0000 0.0000 0.0000
# 2 38.1112 143.5249 48.4099 0.0000 0.0000 0.0000
# 3 49.4120 48.4099 120.2548 0.0000 0.0000 0.0000
# 4 0.0000 0.0000 0.0000 4.5229 0.0000 0.0000
# 5 0.0000 0.0000 0.0000 0.0000 60.1539 0.0000
# 6 0.0000 0.0000 0.0000 0.0000 0.0000 28.0825
#
#
#
# Elastic Compliance Matrix: (Units=1/GPa)
#
#
# Indices 1 2 3 4 5 6 
#
# 1 0.017755 -0.002608 -0.006245 0.000000 0.000000 0.000000
# 2 -0.002608 0.008445 -0.002328 0.000000 0.000000 0.000000
# 3 -0.006245 -0.002328 0.011819 0.000000 0.000000 0.000000
# 4 0.000000 0.000000 0.000000 0.221098 0.000000 0.000000
# 5 0.000000 0.000000 0.000000 0.000000 0.016624 0.000000
# 6 0.000000 0.000000 0.000000 0.000000 0.000000 0.035609
#
#
# Mechanical properties :
#
#
# Convention : Reuss Voigt Hill
#
# Bulk Modulus (GPa) = 63.87358 68.32765 66.10061
# Shear Modulus (GPa) = 14.75225 32.36182 23.55703
#
# Velocity S-wave (km/s) = 2.65721 3.93562 3.35782
# Velocity P-wave (km/s) = 6.32343 7.30448 6.83159
#
# Compressibility (1/GPa) = 0.01565593
#
# Stress axis : x y z
#
# Youngs Moduli (GPa) = 56.32338 118.41050 84.60896
#
# Poissons Ratio (x) = 0.30881 0.52842
# Poissons Ratio (y) = 0.14689 0.19698
# Poissons Ratio (z) = 0.35176 0.27567
#
# Static dielectric constant tensor:
#      x y z
#    x 4.011670 0.000000 0.000000 
#    y 0.000000 3.837080 0.000000 
#    z 0.000000 0.000000 3.839110 
# 
# 
# High freq. dielectric constant tensor:
#      x y z
#    x 1.822380 0.000000 0.000000 
#    y 0.000000 1.818100 0.000000 
#    z 0.000000 0.000000 1.818530 
# 
# From -- ./inp_files/7863.got.cif
#   From: 2010.03.12/outbox.cif.g09.slc.cpg/sg68_4_cif.got.tgz:7863.got - 2010.04.10 23:14:56.
