data_PCOD8282791
_publ_section_title
;
Structure prediction by ZEFSAII (Michael W. Deem and Ramdas Pophale) SiO2 
 PCOD8282791
Probable space group: C C C A
;
_chemical_formula_sum "Si O2"
_cell_formula_units_Z 116
_cell_length_a 24.287569
_cell_length_b 23.929687
_cell_length_c 10.270216
_cell_angle_alpha 90.000000
_cell_angle_beta 90.000000
_cell_angle_gamma 90.000000
_cell_volume 5968.987139
_symmetry_space_group_name_H-M "C C C A"
_symmetry_group_IT_number 68
_space_group.IT_coordinate_system_code '2'
_symmetry_cell_setting 'orthorhombic'
loop_
_space_group_symop_operation_xyz
x,y,z
-x,1/2-y,z
x,1/2-y,1/2-z
-x,y,1/2-z
-x,-y,-z
x,1/2+y,-z
-x,1/2+y,1/2+z
x,-y,1/2+z
1/2+x,1/2+y,z
1/2-x,-y,z
1/2+x,-y,1/2-z
1/2-x,1/2+y,1/2-z
1/2-x,1/2-y,-z
1/2+x,y,-z
1/2-x,y,1/2+z
1/2+x,1/2-y,1/2+z
loop_
_atom_site_type_symbol
_atom_site_label
_atom_site_fract_x
_atom_site_fract_y
_atom_site_fract_z
Si Si1 0.836059 0.129682 0.609961
Si Si2 0.193068 0.436335 0.360995
Si Si3 0.737869 0.287019 0.876340
Si Si4 0.939406 0.801122 0.027773
Si Si5 0.822805 0.437167 0.642249
Si Si6 0.500000 0.750000 0.750000
Si Si7 0.963744 0.188067 0.122748
Si Si8 0.646701 0.126087 0.616711
O O1 0.815415 0.084422 0.507438
O O2 0.787941 0.171494 0.651831
O O3 0.883594 0.164230 0.536424
O O4 0.853795 0.096756 0.741643
O O5 0.165379 0.497065 0.349010
O O6 0.257793 0.431516 0.336703
O O7 0.164387 0.398859 0.253725
O O8 0.727538 0.250000 0.750000
O O9 0.682158 0.319065 0.911695
O O10 0.750000 0.250000 0.000000
O O11 0.956329 0.786526 0.172674
O O12 0.936501 0.745604 0.935021
O O13 0.990909 0.837898 0.975984
O O14 0.844908 0.416175 0.503135
O O15 0.916749 0.142131 0.138254
O O16 0.000000 0.200293 0.250000
#
# Coordination Sequence:
#
# PCOD8282791 Si02
#       8
#    16  16  16  16  16   4  16  16
#     4  12  23  39  63  92 126 165 207 258 325 371
#     4  11  22  42  63  92 124 166 217 259 311 393
#     4  12  24  36  54  92 132 159 190 245 319 382
#     4  10  22  37  61  86 122 161 211 248 293 367
#     4  11  23  40  65  92 126 161 215 267 317 381
#     4   8  20  36  54  88 112 164 212 230 290 352
#     4  10  22  41  63  90 121 169 219 251 297 375
#     4  12  23  41  65  92 127 167 209 261 322 377
#
# _framework density 19.433782000000001
#
# number of rings (size 3 to 8) (size 9 to 14) (size 15 to 20)
#    0.000    1.103    2.759    4.966    4.828    4.414 
#    0.000    0.000    0.000    9.103    0.000    0.000 
#    0.000    0.000    0.000    0.000    0.000    0.000 
#
# Total GULP energy -718823.361834 kJ/mol
# GULP energy per Si atom -12393.506239 kJ/mol
# Density = 1.938955 g / cm^3
# Si number density = 19.433782 Si / 1000 Ang^3
#
#
#
# Elastic Constant Matrix: (Units=GPa)
#
#
# Indices 1 2 3 4 5 6 
#
# 1 86.5138 23.3610 4.2207 0.0000 0.0000 0.0000
# 2 23.3610 70.9487 27.2414 0.0000 0.0000 0.0000
# 3 4.2207 27.2414 89.6424 0.0000 0.0000 0.0000
# 4 0.0000 0.0000 0.0000 38.3196 0.0000 0.0000
# 5 0.0000 0.0000 0.0000 0.0000 25.8459 0.0000
# 6 0.0000 0.0000 0.0000 0.0000 0.0000 25.4651
#
#
#
# Elastic Compliance Matrix: (Units=1/GPa)
#
#
# Indices 1 2 3 4 5 6 
#
# 1 0.012733 -0.004486 0.000764 0.000000 0.000000 0.000000
# 2 -0.004486 0.017537 -0.005118 0.000000 0.000000 0.000000
# 3 0.000764 -0.005118 0.012675 0.000000 0.000000 0.000000
# 4 0.000000 0.000000 0.000000 0.026096 0.000000 0.000000
# 5 0.000000 0.000000 0.000000 0.000000 0.038691 0.000000
# 6 0.000000 0.000000 0.000000 0.000000 0.000000 0.039269
#
#
# Mechanical properties :
#
#
# Convention : Reuss Voigt Hill
#
# Bulk Modulus (GPa) = 39.58165 39.63903 39.61034
# Shear Modulus (GPa) = 28.88461 30.74492 29.81477
#
# Velocity S-wave (km/s) = 3.85945 3.98180 3.92110
# Velocity P-wave (km/s) = 6.34603 6.44832 6.39738
#
# Compressibility (1/GPa) = 0.02526424
#
# Stress axis : x y z
#
# Youngs Moduli (GPa) = 78.53707 57.02300 78.89673
#
# Poissons Ratio (x) = 0.25579 -0.06025
# Poissons Ratio (y) = 0.35229 0.40380
# Poissons Ratio (z) = -0.05997 0.29185
#
# Static dielectric constant tensor:
#      x y z
#    x 3.552800 0.000000 0.000000 
#    y 0.000000 3.597330 0.000000 
#    z 0.000000 0.000000 3.584090 
# 
# 
# High freq. dielectric constant tensor:
#      x y z
#    x 1.745520 0.000000 0.000000 
#    y 0.000000 1.745790 0.000000 
#    z 0.000000 0.000000 1.782940 
# 
# From -- ./inp_files/9217.got.cif
#   From: 2010.03.12/outbox.cif.g09.slc.cpg/sg68_5_cif.got.tgz:9217.got - 2010.04.10 23:14:56.
