data_PCOD8282026
_publ_section_title
;
Structure prediction by ZEFSAII (Michael W. Deem and Ramdas Pophale) SiO2 
 PCOD8282026
Probable space group: C C C A
;
_chemical_formula_sum "Si O2"
_cell_formula_units_Z 88
_cell_length_a 12.613955
_cell_length_b 17.597318
_cell_length_c 18.571211
_cell_angle_alpha 90.000000
_cell_angle_beta 90.000000
_cell_angle_gamma 90.000000
_cell_volume 4122.284714
_symmetry_space_group_name_H-M "C C C A"
_symmetry_group_IT_number 68
_space_group.IT_coordinate_system_code '2'
_symmetry_cell_setting 'orthorhombic'
loop_
_space_group_symop_operation_xyz
x,y,z
-x,1/2-y,z
x,1/2-y,1/2-z
-x,y,1/2-z
-x,-y,-z
x,1/2+y,-z
-x,1/2+y,1/2+z
x,-y,1/2+z
1/2+x,1/2+y,z
1/2-x,-y,z
1/2+x,-y,1/2-z
1/2-x,1/2+y,1/2-z
1/2-x,1/2-y,-z
1/2+x,y,-z
1/2-x,y,1/2+z
1/2+x,1/2-y,1/2+z
loop_
_atom_site_type_symbol
_atom_site_label
_atom_site_fract_x
_atom_site_fract_y
_atom_site_fract_z
Si Si1 0.485680 0.047320 0.100217
Si Si2 0.500000 0.250000 0.911977
Si Si3 0.790310 0.775493 0.830275
Si Si4 0.304118 0.623507 0.627517
Si Si5 0.593002 0.404832 0.954609
Si Si6 0.814900 0.926257 0.291493
O O1 0.586039 0.103549 0.088531
O O2 0.434033 0.061869 0.178492
O O3 0.519684 0.959247 0.094626
O O4 0.402196 0.065171 0.036408
O O5 0.405237 0.283455 0.864720
O O6 0.546746 0.319503 0.958086
O O7 0.812239 0.750000 0.750000
O O8 0.712936 0.714193 0.868420
O O9 0.733030 0.855719 0.834977
O O10 0.208894 0.589069 0.580651
O O11 0.310525 0.585777 0.706320
O O12 0.750000 0.000000 0.313453
#
# Coordination Sequence:
#
# PCOD8282026 Si02
#       6
#    16   8  16  16  16  16
#     4  11  23  39  61  88 119 156 191 239 298 349
#     4  10  19  38  60  82 115 160 200 238 288 346
#     4   9  20  36  57  87 119 152 195 247 294 341
#     4  10  22  41  61  85 119 155 196 243 288 345
#     4  10  23  39  60  87 119 154 197 243 289 344
#     4  11  22  37  61  90 118 152 196 241 290 350
#
# _framework density 21.347387000000001
#
# number of rings (size 3 to 8) (size 9 to 14) (size 15 to 20)
#    0.000    1.818    0.000    3.545    0.000    6.545 
#    0.000   11.818    0.000    0.000    0.000    0.000 
#    0.000    0.000    0.000    0.000    0.000    0.000 
#
# Total GULP energy -545590.930311 kJ/mol
# GULP energy per Si atom -12399.793871 kJ/mol
# Density = 2.129880 g / cm^3
# Si number density = 21.347387 Si / 1000 Ang^3
#
#
#
# Elastic Constant Matrix: (Units=GPa)
#
#
# Indices 1 2 3 4 5 6 
#
# 1 118.1653 42.9880 56.3641 0.0000 0.0000 0.0000
# 2 42.9880 116.6793 32.2388 0.0000 0.0000 0.0000
# 3 56.3641 32.2388 83.2555 0.0000 0.0000 0.0000
# 4 0.0000 0.0000 0.0000 23.3266 0.0000 0.0000
# 5 0.0000 0.0000 0.0000 0.0000 36.4139 0.0000
# 6 0.0000 0.0000 0.0000 0.0000 0.0000 31.9423
#
#
#
# Elastic Compliance Matrix: (Units=1/GPa)
#
#
# Indices 1 2 3 4 5 6 
#
# 1 0.013209 -0.002683 -0.007903 0.000000 0.000000 0.000000
# 2 -0.002683 0.010142 -0.002111 0.000000 0.000000 0.000000
# 3 -0.007903 -0.002111 0.018179 0.000000 0.000000 0.000000
# 4 0.000000 0.000000 0.000000 0.042870 0.000000 0.000000
# 5 0.000000 0.000000 0.000000 0.000000 0.027462 0.000000
# 6 0.000000 0.000000 0.000000 0.000000 0.000000 0.031306
#
#
# Mechanical properties :
#
#
# Convention : Reuss Voigt Hill
#
# Bulk Modulus (GPa) = 61.97475 64.58686 63.28080
# Shear Modulus (GPa) = 28.74538 30.77051 29.75794
#
# Velocity S-wave (km/s) = 3.67352 3.80072 3.73766
# Velocity P-wave (km/s) = 6.86204 7.04141 6.95230
#
# Compressibility (1/GPa) = 0.01613560
#
# Stress axis : x y z
#
# Youngs Moduli (GPa) = 75.70865 98.59796 55.00753
#
# Poissons Ratio (x) = 0.26451 0.43475
# Poissons Ratio (y) = 0.20310 0.11613
# Poissons Ratio (z) = 0.59835 0.20816
#
# Static dielectric constant tensor:
#      x y z
#    x 3.809370 0.000000 0.000000 
#    y 0.000000 4.069410 0.000000 
#    z 0.000000 0.000000 3.662520 
# 
# 
# High freq. dielectric constant tensor:
#      x y z
#    x 1.837320 0.000000 0.000000 
#    y 0.000000 1.851250 0.000000 
#    z 0.000000 0.000000 1.830290 
# 
# From -- ./inp_files/37450.got.cif
#   From: 2010.03.12/outbox.cif.g09.slc.cpg/sg68_19_cif.got.tgz:37450.got - 2010.04.10 23:14:56.
