data_PCOD8282864
_publ_section_title
;
Structure prediction by ZEFSAII (Michael W. Deem and Ramdas Pophale) SiO2 
 PCOD8282864
Probable space group: C C C A
;
_chemical_formula_sum "Si O2"
_cell_formula_units_Z 92
_cell_length_a 9.727608
_cell_length_b 20.399078
_cell_length_c 20.780157
_cell_angle_alpha 90.000000
_cell_angle_beta 90.000000
_cell_angle_gamma 90.000000
_cell_volume 4123.494544
_symmetry_space_group_name_H-M "C C C A"
_symmetry_group_IT_number 68
_space_group.IT_coordinate_system_code '2'
_symmetry_cell_setting 'orthorhombic'
loop_
_space_group_symop_operation_xyz
x,y,z
-x,1/2-y,z
x,1/2-y,1/2-z
-x,y,1/2-z
-x,-y,-z
x,1/2+y,-z
-x,1/2+y,1/2+z
x,-y,1/2+z
1/2+x,1/2+y,z
1/2-x,-y,z
1/2+x,-y,1/2-z
1/2-x,1/2+y,1/2-z
1/2-x,1/2-y,-z
1/2+x,y,-z
1/2-x,y,1/2+z
1/2+x,1/2-y,1/2+z
loop_
_atom_site_type_symbol
_atom_site_label
_atom_site_fract_x
_atom_site_fract_y
_atom_site_fract_z
Si Si1 0.500000 0.750000 0.750000
Si Si2 0.106781 0.112072 0.414458
Si Si3 0.432857 0.320635 0.451277
Si Si4 0.122382 0.142274 0.841796
Si Si5 0.500000 0.036856 0.250000
Si Si6 0.750000 0.500000 0.981987
Si Si7 0.308353 0.603214 0.412063
Si Si8 0.750000 0.500000 0.181391
O O1 0.594897 0.706677 0.797828
O O2 0.073259 0.157605 0.475630
O O3 0.219127 0.142059 0.365810
O O4 0.142160 0.037652 0.435969
O O5 0.957893 0.113418 0.380403
O O6 0.500000 0.250000 0.445737
O O7 0.530533 0.364486 0.406208
O O8 0.274443 0.328789 0.425907
O O9 0.088947 0.079485 0.799475
O O10 0.388751 0.987811 0.220517
O O11 0.677560 0.557287 0.024030
O O12 0.217127 0.564463 0.360333
#
# Coordination Sequence:
#
# PCOD8282864 Si02
#       8
#     4  16  16  16   8   8  16   8
#     4  10  24  52  72  82 132 200 230 268 330 420
#     4  11  24  37  68 107 137 171 227 290 348 411
#     4  11  22  44  68  95 134 182 230 281 347 416
#     4  11  24  45  70  96 131 184 234 271 344 416
#     4  11  26  43  66 100 132 191 232 269 336 422
#     4   9  20  37  64  96 152 189 199 270 366 442
#     4  10  22  40  61 100 139 178 222 280 354 409
#     4  11  24  41  68  92 134 175 233 280 332 418
#
# _framework density 22.311173
#
# number of rings (size 3 to 8) (size 9 to 14) (size 15 to 20)
#    0.000    1.391    2.609    2.609    4.870    2.783 
#    0.000    0.000    0.000    1.043    0.000    0.000 
#    0.000    0.000    0.000    0.000    0.000    0.000 
#
# Total GULP energy -569901.982769 kJ/mol
# GULP energy per Si atom -12389.173538 kJ/mol
# Density = 2.226039 g / cm^3
# Si number density = 22.311173 Si / 1000 Ang^3
#
#
#
# Elastic Constant Matrix: (Units=GPa)
#
#
# Indices 1 2 3 4 5 6 
#
# 1 178.3626 56.2467 44.1165 0.0000 0.0000 0.0000
# 2 56.2467 102.8025 35.9898 0.0000 0.0000 0.0000
# 3 44.1165 35.9898 95.5493 0.0000 0.0000 0.0000
# 4 0.0000 0.0000 0.0000 8.0017 0.0000 0.0000
# 5 0.0000 0.0000 0.0000 0.0000 38.2863 0.0000
# 6 0.0000 0.0000 0.0000 0.0000 0.0000 33.5370
#
#
#
# Elastic Compliance Matrix: (Units=1/GPa)
#
#
# Indices 1 2 3 4 5 6 
#
# 1 0.007123 -0.003163 -0.002097 0.000000 0.000000 0.000000
# 2 -0.003163 0.012609 -0.003289 0.000000 0.000000 0.000000
# 3 -0.002097 -0.003289 0.012673 0.000000 0.000000 0.000000
# 4 0.000000 0.000000 0.000000 0.124973 0.000000 0.000000
# 5 0.000000 0.000000 0.000000 0.000000 0.026119 0.000000
# 6 0.000000 0.000000 0.000000 0.000000 0.000000 0.029818
#
#
# Mechanical properties :
#
#
# Convention : Reuss Voigt Hill
#
# Bulk Modulus (GPa) = 65.33166 72.15784 68.74475
# Shear Modulus (GPa) = 21.23001 31.98910 26.60956
#
# Velocity S-wave (km/s) = 3.08805 3.79062 3.45723
# Velocity P-wave (km/s) = 6.48540 7.18124 6.84217
#
# Compressibility (1/GPa) = 0.01530651
#
# Stress axis : x y z
#
# Youngs Moduli (GPa) = 140.39590 79.30617 78.90748
#
# Poissons Ratio (x) = 0.25083 0.16550
# Poissons Ratio (y) = 0.44405 0.25954
# Poissons Ratio (z) = 0.29446 0.26085
#
# Static dielectric constant tensor:
#      x y z
#    x 4.108630 0.000000 0.000000 
#    y 0.000000 3.789000 0.000000 
#    z 0.000000 0.000000 4.172940 
# 
# 
# High freq. dielectric constant tensor:
#      x y z
#    x 1.884550 0.000000 0.000000 
#    y 0.000000 1.857580 0.000000 
#    z 0.000000 0.000000 1.878200 
# 
# From -- ./inp_files/36364.got.cif
#   From: 2010.03.12/outbox.cif.g09.slc.cpg/sg68_19_cif.got.tgz:36364.got - 2010.04.10 23:14:56.
