data_PCOD8282149
_publ_section_title
;
Structure prediction by ZEFSAII (Michael W. Deem and Ramdas Pophale) SiO2 
 PCOD8282149
Probable space group: C C C A
;
_chemical_formula_sum "Si O2"
_cell_formula_units_Z 120
_cell_length_a 23.334373
_cell_length_b 18.531077
_cell_length_c 13.526746
_cell_angle_alpha 90.000000
_cell_angle_beta 90.000000
_cell_angle_gamma 90.000000
_cell_volume 5849.114614
_symmetry_space_group_name_H-M "C C C A"
_symmetry_group_IT_number 68
_space_group.IT_coordinate_system_code '2'
_symmetry_cell_setting 'orthorhombic'
loop_
_space_group_symop_operation_xyz
x,y,z
-x,1/2-y,z
x,1/2-y,1/2-z
-x,y,1/2-z
-x,-y,-z
x,1/2+y,-z
-x,1/2+y,1/2+z
x,-y,1/2+z
1/2+x,1/2+y,z
1/2-x,-y,z
1/2+x,-y,1/2-z
1/2-x,1/2+y,1/2-z
1/2-x,1/2-y,-z
1/2+x,y,-z
1/2-x,y,1/2+z
1/2+x,1/2-y,1/2+z
loop_
_atom_site_type_symbol
_atom_site_label
_atom_site_fract_x
_atom_site_fract_y
_atom_site_fract_z
Si Si1 0.938816 0.913767 0.965036
Si Si2 0.155268 0.183084 0.537249
Si Si3 0.943813 0.574155 0.066792
Si Si4 0.500000 0.144616 0.250000
Si Si5 0.107699 0.827443 0.363834
Si Si6 0.325634 0.822572 0.313720
Si Si7 0.288031 0.333501 0.269571
Si Si8 0.938509 0.665699 0.728548
O O1 0.924479 0.851829 0.885299
O O2 0.919515 0.992722 0.929070
O O3 0.902754 0.893044 0.061754
O O4 0.006365 0.915755 0.986488
O O5 0.105977 0.124875 0.527464
O O6 0.128843 0.256306 0.580881
O O7 0.183437 0.195279 0.429781
O O8 0.203942 0.153288 0.613035
O O9 0.965264 0.593419 0.175868
O O10 0.452247 0.192599 0.307890
O O11 0.154675 0.858303 0.287236
O O12 0.332787 0.750000 0.250000
O O13 0.270790 0.869179 0.273288
O O14 0.385721 0.865447 0.295363
O O15 0.277996 0.250000 0.250000
O O16 0.945431 0.750000 0.750000
O O17 0.000000 0.627287 0.750000
#
# Coordination Sequence:
#
# PCOD8282149 Si02
#       8
#    16  16  16   8  16  16  16  16
#     4  10  22  37  58  86 123 163 202 246 309 377
#     4  11  21  38  61  88 123 156 203 261 299 366
#     4  10  22  38  57  87 122 167 201 246 315 369
#     4  10  20  35  60  88 121 158 202 256 297 368
#     4  10  20  36  60  88 119 154 203 255 301 355
#     4  10  21  36  59  89 122 160 197 248 315 362
#     4   9  20  36  57  88 116 157 201 246 302 365
#     4  10  20  35  57  88 122 151 198 250 305 363
#
# _framework density 20.515926
#
# number of rings (size 3 to 8) (size 9 to 14) (size 15 to 20)
#    0.000    2.000    1.333    2.400    0.933    9.600 
#    2.400    0.000    0.000    4.800    0.000    0.000 
#    0.000    0.000    0.000    0.000    0.000    0.000 
#
# Total GULP energy -743602.668497 kJ/mol
# GULP energy per Si atom -12393.377808 kJ/mol
# Density = 2.046923 g / cm^3
# Si number density = 20.515926 Si / 1000 Ang^3
#
#
#
# Elastic Constant Matrix: (Units=GPa)
#
#
# Indices 1 2 3 4 5 6 
#
# 1 153.6379 12.5314 61.1517 0.0000 0.0000 0.0000
# 2 12.5314 62.5159 28.5390 0.0000 0.0000 0.0000
# 3 61.1517 28.5390 163.1049 0.0000 0.0000 0.0000
# 4 0.0000 0.0000 0.0000 21.6000 0.0000 0.0000
# 5 0.0000 0.0000 0.0000 0.0000 27.1548 0.0000
# 6 0.0000 0.0000 0.0000 0.0000 0.0000 -6.1960
#
#
#
# Elastic Compliance Matrix: (Units=1/GPa)
#
#
# Indices 1 2 3 4 5 6 
#
# 1 0.007654 -0.000244 -0.002827 0.000000 0.000000 0.000000
# 2 -0.000244 0.017392 -0.002952 0.000000 0.000000 0.000000
# 3 -0.002827 -0.002952 0.007707 0.000000 0.000000 0.000000
# 4 0.000000 0.000000 0.000000 0.046296 0.000000 0.000000
# 5 0.000000 0.000000 0.000000 0.000000 0.036826 0.000000
# 6 0.000000 0.000000 0.000000 0.000000 0.000000 -0.161395
#
#
# Mechanical properties :
#
#
# Convention : Reuss Voigt Hill
#
# Bulk Modulus (GPa) = 48.28906 64.85586 56.57246
# Shear Modulus (GPa) = -188.17513 26.98086 -80.59714
#
# Velocity S-wave (km/s) = -9.58752 3.63039 -6.27459
# Velocity P-wave (km/s) = 9.94849 7.01812 4.98590
#
# Compressibility (1/GPa) = 0.02070862
#
# Stress axis : x y z
#
# Youngs Moduli (GPa) = 130.65241 57.49670 129.74522
#
# Poissons Ratio (x) = 0.01401 0.36679
# Poissons Ratio (y) = 0.03184 0.38298
# Poissons Ratio (z) = 0.36935 0.16972
#
# Static dielectric constant tensor:
#      x y z
#    x 4.763930 0.000000 0.000000 
#    y 0.000000 3.230040 0.000000 
#    z 0.000000 0.000000 3.920000 
# 
# 
# High freq. dielectric constant tensor:
#      x y z
#    x 1.812240 0.000000 0.000000 
#    y 0.000000 1.746620 0.000000 
#    z 0.000000 0.000000 1.817460 
# 
# From -- ./inp_files/17325.got.cif
#   From: 2010.03.12/outbox.cif.g09.slc.cpg/sg68_9_cif.got.tgz:17325.got - 2010.04.10 23:14:56.
