data_PCOD8282628
_publ_section_title
;
Structure prediction by ZEFSAII (Michael W. Deem and Ramdas Pophale) SiO2 
 PCOD8282628
Probable space group: C C C A
;
_chemical_formula_sum "Si O2"
_cell_formula_units_Z 72
_cell_length_a 12.982321
_cell_length_b 8.425774
_cell_length_c 30.718355
_cell_angle_alpha 90.000000
_cell_angle_beta 90.000000
_cell_angle_gamma 90.000000
_cell_volume 3360.161136
_symmetry_space_group_name_H-M "C C C A"
_symmetry_group_IT_number 68
_space_group.IT_coordinate_system_code '2'
_symmetry_cell_setting 'orthorhombic'
loop_
_space_group_symop_operation_xyz
x,y,z
-x,1/2-y,z
x,1/2-y,1/2-z
-x,y,1/2-z
-x,-y,-z
x,1/2+y,-z
-x,1/2+y,1/2+z
x,-y,1/2+z
1/2+x,1/2+y,z
1/2-x,-y,z
1/2+x,-y,1/2-z
1/2-x,1/2+y,1/2-z
1/2-x,1/2-y,-z
1/2+x,y,-z
1/2-x,y,1/2+z
1/2+x,1/2-y,1/2+z
loop_
_atom_site_type_symbol
_atom_site_label
_atom_site_fract_x
_atom_site_fract_y
_atom_site_fract_z
Si Si1 0.638739 0.445456 0.716429
Si Si2 0.373027 0.496989 0.947669
Si Si3 0.000000 0.250000 0.499678
Si Si4 0.356296 0.093014 0.811160
Si Si5 0.472320 0.072236 0.140220
O O1 0.750000 0.500000 0.730845
O O2 0.586040 0.436696 0.764496
O O3 0.650498 0.284037 0.688029
O O4 0.588540 0.578459 0.685936
O O5 0.250000 0.500000 0.953637
O O6 0.426967 0.646088 0.970000
O O7 0.401534 0.494965 0.896804
O O8 0.419511 0.341130 0.969421
O O9 0.250000 0.000000 0.817504
O O10 0.426893 0.035815 0.851364
O O11 0.500000 0.250000 0.126446
#
# Coordination Sequence:
#
# PCOD8282628 Si02
#       5
#    16  16   8  16  16
#     4  10  21  39  62  88 127 175 226 279 335 387
#     4  11  24  46  73 102 137 171 217 276 333 404
#     4  10  24  48  74 104 128 174 220 264 346 408
#     4  10  22  39  61  91 127 176 229 276 331 395
#     4  12  24  39  59  95 133 173 221 272 330 394
#
# _framework density 21.427544000000001
#
# number of rings (size 3 to 8) (size 9 to 14) (size 15 to 20)
#    0.000    1.333    1.111    4.000    3.111    5.333 
#    0.000    1.111    0.000    0.000    0.000    0.000 
#    0.000    0.000    0.000    0.000    0.000    0.000 
#
# Total GULP energy -446149.416895 kJ/mol
# GULP energy per Si atom -12393.039358 kJ/mol
# Density = 2.137877 g / cm^3
# Si number density = 21.427544 Si / 1000 Ang^3
#
#
#
# Elastic Constant Matrix: (Units=GPa)
#
#
# Indices 1 2 3 4 5 6 
#
# 1 133.7660 27.8564 45.1506 0.0000 0.0000 0.0000
# 2 27.8564 81.4015 26.0730 0.0000 0.0000 0.0000
# 3 45.1506 26.0730 98.2523 0.0000 0.0000 0.0000
# 4 0.0000 0.0000 0.0000 28.8332 0.0000 0.0000
# 5 0.0000 0.0000 0.0000 0.0000 37.8297 0.0000
# 6 0.0000 0.0000 0.0000 0.0000 0.0000 27.0697
#
#
#
# Elastic Compliance Matrix: (Units=1/GPa)
#
#
# Indices 1 2 3 4 5 6 
#
# 1 0.009121 -0.001944 -0.003676 0.000000 0.000000 0.000000
# 2 -0.001944 0.013840 -0.002779 0.000000 0.000000 0.000000
# 3 -0.003676 -0.002779 0.012605 0.000000 0.000000 0.000000
# 4 0.000000 0.000000 0.000000 0.034682 0.000000 0.000000
# 5 0.000000 0.000000 0.000000 0.000000 0.026434 0.000000
# 6 0.000000 0.000000 0.000000 0.000000 0.000000 0.036942
#
#
# Mechanical properties :
#
#
# Convention : Reuss Voigt Hill
#
# Bulk Modulus (GPa) = 53.28263 56.84222 55.06242
# Shear Modulus (GPa) = 31.91247 33.03583 32.47415
#
# Velocity S-wave (km/s) = 3.86336 3.93077 3.89721
# Velocity P-wave (km/s) = 6.69486 6.86924 6.78261
#
# Compressibility (1/GPa) = 0.01876784
#
# Stress axis : x y z
#
# Youngs Moduli (GPa) = 109.63415 72.25264 79.33642
#
# Poissons Ratio (x) = 0.14046 0.29161
# Poissons Ratio (y) = 0.21314 0.22051
# Poissons Ratio (z) = 0.40298 0.20082
#
# Static dielectric constant tensor:
#      x y z
#    x 4.497660 0.000000 0.000000 
#    y 0.000000 4.047060 0.000000 
#    z 0.000000 0.000000 3.778090 
# 
# 
# High freq. dielectric constant tensor:
#      x y z
#    x 1.853540 0.000000 0.000000 
#    y 0.000000 1.841650 0.000000 
#    z 0.000000 0.000000 1.840020 
# 
# From -- ./inp_files/50715.got.cif
#   From: 2010.03.12/outbox.cif.g09.slc.cpg/sg68_26_cif.got.tgz:50715.got - 2010.04.10 23:14:56.
