data_PCOD8282323
_publ_section_title
;
Structure prediction by ZEFSAII (Michael W. Deem and Ramdas Pophale) SiO2 
 PCOD8282323
Probable space group: C C C A
;
_chemical_formula_sum "Si O2"
_cell_formula_units_Z 100
_cell_length_a 14.131945
_cell_length_b 25.138062
_cell_length_c 13.081367
_cell_angle_alpha 90.000000
_cell_angle_beta 90.000000
_cell_angle_gamma 90.000000
_cell_volume 4647.151828
_symmetry_space_group_name_H-M "C C C A"
_symmetry_group_IT_number 68
_space_group.IT_coordinate_system_code '2'
_symmetry_cell_setting 'orthorhombic'
loop_
_space_group_symop_operation_xyz
x,y,z
-x,1/2-y,z
x,1/2-y,1/2-z
-x,y,1/2-z
-x,-y,-z
x,1/2+y,-z
-x,1/2+y,1/2+z
x,-y,1/2+z
1/2+x,1/2+y,z
1/2-x,-y,z
1/2+x,-y,1/2-z
1/2-x,1/2+y,1/2-z
1/2-x,1/2-y,-z
1/2+x,y,-z
1/2-x,y,1/2+z
1/2+x,1/2-y,1/2+z
loop_
_atom_site_type_symbol
_atom_site_label
_atom_site_fract_x
_atom_site_fract_y
_atom_site_fract_z
Si Si1 0.643042 0.316031 0.875148
Si Si2 0.355579 0.980834 0.085315
Si Si3 0.500000 0.616685 0.750000
Si Si4 0.447574 0.531791 0.616180
Si Si5 0.500000 0.250000 0.750000
Si Si6 0.427281 0.200939 0.100083
Si Si7 0.103290 0.075634 0.282084
Si Si8 0.287816 0.750000 0.750000
O O1 0.554162 0.289455 0.823140
O O2 0.656431 0.377159 0.841497
O O3 0.732366 0.282803 0.836237
O O4 0.628109 0.312891 0.996612
O O5 0.341222 0.940072 0.179117
O O6 0.250000 0.000000 0.058026
O O7 0.436563 0.025902 0.108956
O O8 0.398913 0.948884 0.988607
O O9 0.421886 0.575494 0.702985
O O10 0.478480 0.649697 0.852704
O O11 0.402310 0.474966 0.643715
O O12 0.500000 0.250000 0.085566
O O13 0.351016 0.209818 0.187420
O O14 0.000000 0.095925 0.250000
#
# Coordination Sequence:
#
# PCOD8282323 Si02
#       8
#    16  16   8  16   4  16  16   8
#     4  11  24  41  74  97 138 178 229 290 357 410
#     4  10  22  42  66  94 144 183 228 284 346 414
#     4  12  23  43  76  94 139 189 228 288 358 420
#     4  10  23  43  64 101 137 182 234 283 345 432
#     4  10  20  38  66  98 128 172 222 272 350 412
#     4  12  25  48  72 100 138 189 236 287 367 428
#     4  10  21  42  66  98 138 178 231 283 341 423
#     4  11  25  51  63 110 140 168 241 317 333 423
#
# _framework density 21.518557000000001
#
# number of rings (size 3 to 8) (size 9 to 14) (size 15 to 20)
#    0.000    1.280    5.600    0.480    6.720    1.920 
#    2.880    0.000    0.000    0.000    0.000    0.000 
#    0.000    0.000    0.000    0.000    0.000    0.000 
#
# Total GULP energy -619429.438916 kJ/mol
# GULP energy per Si atom -12388.588778 kJ/mol
# Density = 2.146958 g / cm^3
# Si number density = 21.518557 Si / 1000 Ang^3
#
#
#
# Elastic Constant Matrix: (Units=GPa)
#
#
# Indices 1 2 3 4 5 6 
#
# 1 77.0388 22.1565 29.4969 0.0000 0.0000 0.0000
# 2 22.1565 115.7827 47.5711 0.0000 0.0000 0.0000
# 3 29.4969 47.5711 168.9912 0.0000 0.0000 0.0000
# 4 0.0000 0.0000 0.0000 99.5759 0.0000 0.0000
# 5 0.0000 0.0000 0.0000 0.0000 30.2168 0.0000
# 6 0.0000 0.0000 0.0000 0.0000 0.0000 -1.1310
#
#
#
# Elastic Compliance Matrix: (Units=1/GPa)
#
#
# Indices 1 2 3 4 5 6 
#
# 1 0.014282 -0.001932 -0.001949 0.000000 0.000000 0.000000
# 2 -0.001932 0.010028 -0.002486 0.000000 0.000000 0.000000
# 3 -0.001949 -0.002486 0.006957 0.000000 0.000000 0.000000
# 4 0.000000 0.000000 0.000000 0.010043 0.000000 0.000000
# 5 0.000000 0.000000 0.000000 0.000000 0.033094 0.000000
# 6 0.000000 0.000000 0.000000 0.000000 0.000000 -0.884146
#
#
# Mechanical properties :
#
#
# Convention : Reuss Voigt Hill
#
# Bulk Modulus (GPa) = 53.95533 62.25129 58.10331
# Shear Modulus (GPa) = -6.32247 43.23821 18.45787
#
# Velocity S-wave (km/s) = -1.71596 4.48743 2.93194
# Velocity P-wave (km/s) = 4.60459 7.47271 6.20659
#
# Compressibility (1/GPa) = 0.01853385
#
# Stress axis : x y z
#
# Youngs Moduli (GPa) = 70.01590 99.72192 143.73297
#
# Poissons Ratio (x) = 0.19270 0.28014
# Poissons Ratio (y) = 0.13530 0.35726
# Poissons Ratio (z) = 0.13646 0.24787
#
# Static dielectric constant tensor:
#      x y z
#    x 3.676780 0.000000 0.000000 
#    y 0.000000 3.828270 0.000000 
#    z 0.000000 0.000000 4.501180 
# 
# 
# High freq. dielectric constant tensor:
#      x y z
#    x 1.820970 0.000000 0.000000 
#    y 0.000000 1.839890 0.000000 
#    z 0.000000 0.000000 1.870200 
# 
# From -- ./inp_files/22571.got.cif
#   From: 2010.03.12/outbox.cif.g09.slc.cpg/sg68_12_cif.got.tgz:22571.got - 2010.04.10 23:14:56.
