data_PCOD8282135
_publ_section_title
;
Structure prediction by ZEFSAII (Michael W. Deem and Ramdas Pophale) SiO2 
 PCOD8282135
Probable space group: C C C A
;
_chemical_formula_sum "Si O2"
_cell_formula_units_Z 80
_cell_length_a 9.370549
_cell_length_b 15.294443
_cell_length_c 28.217295
_cell_angle_alpha 90.000000
_cell_angle_beta 90.000000
_cell_angle_gamma 90.000000
_cell_volume 4044.027310
_symmetry_space_group_name_H-M "C C C A"
_symmetry_group_IT_number 68
_space_group.IT_coordinate_system_code '2'
_symmetry_cell_setting 'orthorhombic'
loop_
_space_group_symop_operation_xyz
x,y,z
-x,1/2-y,z
x,1/2-y,1/2-z
-x,y,1/2-z
-x,-y,-z
x,1/2+y,-z
-x,1/2+y,1/2+z
x,-y,1/2+z
1/2+x,1/2+y,z
1/2-x,-y,z
1/2+x,-y,1/2-z
1/2-x,1/2+y,1/2-z
1/2-x,1/2-y,-z
1/2+x,y,-z
1/2-x,y,1/2+z
1/2+x,1/2-y,1/2+z
loop_
_atom_site_type_symbol
_atom_site_label
_atom_site_fract_x
_atom_site_fract_y
_atom_site_fract_z
Si Si1 0.159917 0.087696 0.464741
Si Si2 0.918054 0.494794 0.298826
Si Si3 0.908167 0.662024 0.866420
Si Si4 0.549512 0.842982 0.533659
Si Si5 0.077014 0.335621 0.642482
O O1 0.075755 0.117962 0.417948
O O2 0.283780 0.155050 0.479502
O O3 0.043982 0.082098 0.507020
O O4 0.250000 0.000000 0.453937
O O5 0.750000 0.500000 0.289556
O O6 0.961966 0.408731 0.328294
O O7 0.967513 0.581318 0.326538
O O8 0.000000 0.489797 0.250000
O O9 0.744309 0.685017 0.856574
O O10 0.000000 0.750000 0.862395
O O11 0.500000 0.750000 0.514046
O O12 0.522562 0.855269 0.589405
O O13 0.000000 0.250000 0.663451
#
# Coordination Sequence:
#
# PCOD8282135 Si02
#       5
#    16  16  16  16  16
#     4  11  21  35  55  81 113 152 190 231 276 325
#     4  10  22  41  61  83 112 144 183 231 284 340
#     4  10  21  38  59  81 112 150 188 229 279 335
#     4  10  20  35  54  80 113 148 187 228 274 329
#     4   9  20  39  59  83 114 148 184 229 281 334
#
# _framework density 19.782260999999998
#
# number of rings (size 3 to 8) (size 9 to 14) (size 15 to 20)
#    0.000    2.000    0.000    4.800    0.000    5.600 
#    0.000    5.000    0.000    0.000    0.000    0.000 
#    0.000    0.000    0.000    0.000    0.000    0.000 
#
# Total GULP energy -495949.201404 kJ/mol
# GULP energy per Si atom -12398.730035 kJ/mol
# Density = 1.973724 g / cm^3
# Si number density = 19.782261 Si / 1000 Ang^3
#
#
#
# Elastic Constant Matrix: (Units=GPa)
#
#
# Indices 1 2 3 4 5 6 
#
# 1 57.8584 50.1151 63.3610 0.0000 0.0000 0.0000
# 2 50.1151 154.5446 75.4464 0.0000 0.0000 0.0000
# 3 63.3610 75.4464 130.3543 0.0000 0.0000 0.0000
# 4 0.0000 0.0000 0.0000 22.3694 0.0000 0.0000
# 5 0.0000 0.0000 0.0000 0.0000 12.3711 0.0000
# 6 0.0000 0.0000 0.0000 0.0000 0.0000 38.4327
#
#
#
# Elastic Compliance Matrix: (Units=1/GPa)
#
#
# Indices 1 2 3 4 5 6 
#
# 1 0.039322 -0.004768 -0.016354 0.000000 0.000000 0.000000
# 2 -0.004768 0.009597 -0.003237 0.000000 0.000000 0.000000
# 3 -0.016354 -0.003237 0.017494 0.000000 0.000000 0.000000
# 4 0.000000 0.000000 0.000000 0.044704 0.000000 0.000000
# 5 0.000000 0.000000 0.000000 0.000000 0.080833 0.000000
# 6 0.000000 0.000000 0.000000 0.000000 0.000000 0.026019
#
#
# Mechanical properties :
#
#
# Convention : Reuss Voigt Hill
#
# Bulk Modulus (GPa) = 56.50965 80.06693 68.28829
# Shear Modulus (GPa) = 18.34283 24.89032 21.61657
#
# Velocity S-wave (km/s) = 3.04836 3.55098 3.30923
# Velocity P-wave (km/s) = 6.40452 7.57460 7.01400
#
# Compressibility (1/GPa) = 0.01769609
#
# Stress axis : x y z
#
# Youngs Moduli (GPa) = 25.43085 104.19965 57.16191
#
# Poissons Ratio (x) = 0.49677 0.93482
# Poissons Ratio (y) = 0.12124 0.18504
# Poissons Ratio (z) = 0.41590 0.33731
#
# Static dielectric constant tensor:
#      x y z
#    x 3.728100 0.000000 0.000000 
#    y 0.000000 3.805280 0.000000 
#    z 0.000000 0.000000 3.473830 
# 
# 
# High freq. dielectric constant tensor:
#      x y z
#    x 1.767960 0.000000 0.000000 
#    y 0.000000 1.785700 0.000000 
#    z 0.000000 0.000000 1.762280 
# 
# From -- ./inp_files/44086.got.cif
#   From: 2010.03.12/outbox.cif.g09.slc.cpg/sg68_23_cif.got.tgz:44086.got - 2010.04.10 23:14:56.
