data_PCOD8282825
_publ_section_title
;
Structure prediction by ZEFSAII (Michael W. Deem and Ramdas Pophale) SiO2 
 PCOD8282825
Probable space group: C C C A
;
_chemical_formula_sum "Si O2"
_cell_formula_units_Z 60
_cell_length_a 22.111621
_cell_length_b 24.277921
_cell_length_c 5.164427
_cell_angle_alpha 90.000000
_cell_angle_beta 90.000000
_cell_angle_gamma 90.000000
_cell_volume 2772.389330
_symmetry_space_group_name_H-M "C C C A"
_symmetry_group_IT_number 68
_space_group.IT_coordinate_system_code '2'
_symmetry_cell_setting 'orthorhombic'
loop_
_space_group_symop_operation_xyz
x,y,z
-x,1/2-y,z
x,1/2-y,1/2-z
-x,y,1/2-z
-x,-y,-z
x,1/2+y,-z
-x,1/2+y,1/2+z
x,-y,1/2+z
1/2+x,1/2+y,z
1/2-x,-y,z
1/2+x,-y,1/2-z
1/2-x,1/2+y,1/2-z
1/2-x,1/2-y,-z
1/2+x,y,-z
1/2-x,y,1/2+z
1/2+x,1/2-y,1/2+z
loop_
_atom_site_type_symbol
_atom_site_label
_atom_site_fract_x
_atom_site_fract_y
_atom_site_fract_z
Si Si1 0.438749 0.646349 0.354007
Si Si2 0.791438 0.750000 0.250000
Si Si3 0.000000 0.250000 0.250000
Si Si4 0.683252 0.524158 0.705416
Si Si5 0.136680 0.860350 0.161819
O O1 0.500000 0.615397 0.250000
O O2 0.456895 0.710098 0.420802
O O3 0.414059 0.622585 0.624497
O O4 0.389349 0.645081 0.125941
O O5 0.750000 0.750000 0.500000
O O6 0.832255 0.695622 0.253118
O O7 0.648778 0.493334 0.469752
O O8 0.750000 0.500000 0.754326
O O9 0.685060 0.589834 0.662154
#
# Coordination Sequence:
#
# PCOD8282825 Si02
#       5
#    16   8   4  16  16
#     4  10  22  38  67  96 134 167 220 264 316 407
#     4  12  28  39  61  96 143 174 203 278 342 406
#     4   8  20  36  64  94 136 166 222 238 332 380
#     4  10  23  40  67  88 122 171 232 269 308 385
#     4  12  23  42  67  96 137 174 219 267 341 385
#
# _framework density 21.64198
#
# number of rings (size 3 to 8) (size 9 to 14) (size 15 to 20)
#    0.800    0.533    0.000    5.600    7.467    1.067 
#    0.000    0.000    0.000   16.000    0.000    0.000 
#    0.000    0.000    0.000    0.000    0.000    0.000 
#
# Total GULP energy -371655.213887 kJ/mol
# GULP energy per Si atom -12388.507130 kJ/mol
# Density = 2.159272 g / cm^3
# Si number density = 21.641980 Si / 1000 Ang^3
#
#
#
# Elastic Constant Matrix: (Units=GPa)
#
#
# Indices 1 2 3 4 5 6 
#
# 1 63.1896 20.2800 6.1153 0.0000 0.0000 0.0000
# 2 20.2800 117.9254 1.2469 0.0000 0.0000 0.0000
# 3 6.1153 1.2469 136.8656 0.0000 0.0000 0.0000
# 4 0.0000 0.0000 0.0000 19.5752 0.0000 0.0000
# 5 0.0000 0.0000 0.0000 0.0000 31.0192 0.0000
# 6 0.0000 0.0000 0.0000 0.0000 0.0000 34.3528
#
#
#
# Elastic Compliance Matrix: (Units=1/GPa)
#
#
# Indices 1 2 3 4 5 6 
#
# 1 0.016822 -0.002885 -0.000725 0.000000 0.000000 0.000000
# 2 -0.002885 0.008976 0.000047 0.000000 0.000000 0.000000
# 3 -0.000725 0.000047 0.007338 0.000000 0.000000 0.000000
# 4 0.000000 0.000000 0.000000 0.051085 0.000000 0.000000
# 5 0.000000 0.000000 0.000000 0.000000 0.032238 0.000000
# 6 0.000000 0.000000 0.000000 0.000000 0.000000 0.029110
#
#
# Mechanical properties :
#
#
# Convention : Reuss Voigt Hill
#
# Bulk Modulus (GPa) = 38.44844 41.47389 39.96116
# Shear Modulus (GPa) = 30.98567 36.34532 33.66549
#
# Velocity S-wave (km/s) = 3.78794 4.10248 3.94834
# Velocity P-wave (km/s) = 6.07746 6.45335 6.26822
#
# Compressibility (1/GPa) = 0.02600886
#
# Stress axis : x y z
#
# Youngs Moduli (GPa) = 59.44753 111.41299 136.26917
#
# Poissons Ratio (x) = 0.32145 0.09884
# Poissons Ratio (y) = 0.17152 -0.00642
# Poissons Ratio (z) = 0.04312 -0.00525
#
# Static dielectric constant tensor:
#      x y z
#    x 3.797450 0.000000 0.000000 
#    y 0.000000 3.796550 0.000000 
#    z 0.000000 0.000000 4.710080 
# 
# 
# High freq. dielectric constant tensor:
#      x y z
#    x 1.826370 0.000000 0.000000 
#    y 0.000000 1.835380 0.000000 
#    z 0.000000 0.000000 1.873200 
# 
# From -- ./inp_files/1421.got.cif
#   From: 2010.03.12/outbox.cif.g09.slc.cpg/sg68_1_cif.got.tgz:1421.got - 2010.04.10 23:14:56.
