data_PCOD8282214
_publ_section_title
;
Structure prediction by ZEFSAII (Michael W. Deem and Ramdas Pophale) SiO2 
 PCOD8282214
Probable space group: C C C A
;
_chemical_formula_sum "Si O2"
_cell_formula_units_Z 88
_cell_length_a 15.140514
_cell_length_b 13.755844
_cell_length_c 20.722637
_cell_angle_alpha 90.000000
_cell_angle_beta 90.000000
_cell_angle_gamma 90.000000
_cell_volume 4315.914978
_symmetry_space_group_name_H-M "C C C A"
_symmetry_group_IT_number 68
_space_group.IT_coordinate_system_code '2'
_symmetry_cell_setting 'orthorhombic'
loop_
_space_group_symop_operation_xyz
x,y,z
-x,1/2-y,z
x,1/2-y,1/2-z
-x,y,1/2-z
-x,-y,-z
x,1/2+y,-z
-x,1/2+y,1/2+z
x,-y,1/2+z
1/2+x,1/2+y,z
1/2-x,-y,z
1/2+x,-y,1/2-z
1/2-x,1/2+y,1/2-z
1/2-x,1/2-y,-z
1/2+x,y,-z
1/2-x,y,1/2+z
1/2+x,1/2-y,1/2+z
loop_
_atom_site_type_symbol
_atom_site_label
_atom_site_fract_x
_atom_site_fract_y
_atom_site_fract_z
Si Si1 0.454741 0.850783 0.535993
Si Si2 0.454226 0.535601 0.090652
Si Si3 0.222272 0.750000 0.250000
Si Si4 0.372303 0.075726 0.653064
Si Si5 0.173598 0.923948 0.792777
Si Si6 0.813133 0.860656 0.366328
O O1 0.500000 0.750000 0.515625
O O2 0.421761 0.911952 0.474273
O O3 0.367548 0.814223 0.574781
O O4 0.519811 0.922248 0.577654
O O5 0.536901 0.599151 0.116609
O O6 0.376311 0.542246 0.142908
O O7 0.282297 0.682402 0.202840
O O8 0.159551 0.688748 0.298108
O O9 0.389803 0.079647 0.729954
O O10 0.294153 0.148796 0.629544
O O11 0.342285 0.970503 0.632197
O O12 0.250000 0.000000 0.776561
#
# Coordination Sequence:
#
# PCOD8282214 Si02
#       6
#    16  16   8  16  16  16
#     4  10  23  41  60  86 123 161 211 254 303 374
#     4  10  23  41  59  91 121 162 208 253 306 369
#     4  10  20  36  62  94 120 152 202 246 313 375
#     4   9  17  39  63  83 122 154 195 250 313 365
#     4  11  21  38  61  93 125 155 199 257 311 372
#     4   9  18  36  61  87 116 158 194 249 308 366
#
# _framework density 20.389651000000001
#
# number of rings (size 3 to 8) (size 9 to 14) (size 15 to 20)
#    0.000    2.182    3.636    0.545    2.545    2.909 
#    9.818    5.909    0.000    0.000    0.000    0.000 
#    0.000    0.000    0.000    0.000    0.000    0.000 
#
# Total GULP energy -545159.806753 kJ/mol
# GULP energy per Si atom -12389.995608 kJ/mol
# Density = 2.034324 g / cm^3
# Si number density = 20.389651 Si / 1000 Ang^3
#
#
#
# Elastic Constant Matrix: (Units=GPa)
#
#
# Indices 1 2 3 4 5 6 
#
# 1 57.6465 16.6762 42.5422 0.0000 0.0000 0.0000
# 2 16.6762 73.6314 14.4067 0.0000 0.0000 0.0000
# 3 42.5422 14.4067 106.6740 0.0000 0.0000 0.0000
# 4 0.0000 0.0000 0.0000 29.9495 0.0000 0.0000
# 5 0.0000 0.0000 0.0000 0.0000 33.8092 0.0000
# 6 0.0000 0.0000 0.0000 0.0000 0.0000 10.5990
#
#
#
# Elastic Compliance Matrix: (Units=1/GPa)
#
#
# Indices 1 2 3 4 5 6 
#
# 1 0.025632 -0.003908 -0.009694 0.000000 0.000000 0.000000
# 2 -0.003908 0.014546 -0.000406 0.000000 0.000000 0.000000
# 3 -0.009694 -0.000406 0.013295 0.000000 0.000000 0.000000
# 4 0.000000 0.000000 0.000000 0.033390 0.000000 0.000000
# 5 0.000000 0.000000 0.000000 0.000000 0.029578 0.000000
# 6 0.000000 0.000000 0.000000 0.000000 0.000000 0.094349
#
#
# Mechanical properties :
#
#
# Convention : Reuss Voigt Hill
#
# Bulk Modulus (GPa) = 39.28339 42.80022 41.04180
# Shear Modulus (GPa) = 20.21905 25.82666 23.02286
#
# Velocity S-wave (km/s) = 3.15244 3.56287 3.36392
# Velocity P-wave (km/s) = 5.70602 6.16134 5.93805
#
# Compressibility (1/GPa) = 0.02545605
#
# Stress axis : x y z
#
# Youngs Moduli (GPa) = 39.01371 68.74868 75.21446
#
# Poissons Ratio (x) = 0.26870 0.72916
# Poissons Ratio (y) = 0.15248 0.03052
# Poissons Ratio (z) = 0.37821 0.02790
#
# Static dielectric constant tensor:
#      x y z
#    x 3.999710 0.000000 0.000000 
#    y 0.000000 3.749990 0.000000 
#    z 0.000000 0.000000 3.721610 
# 
# 
# High freq. dielectric constant tensor:
#      x y z
#    x 1.772790 0.000000 0.000000 
#    y 0.000000 1.795470 0.000000 
#    z 0.000000 0.000000 1.796360 
# 
# From -- ./inp_files/38456.got.cif
#   From: 2010.03.12/outbox.cif.g09.slc.cpg/sg68_20_cif.got.tgz:38456.got - 2010.04.10 23:14:56.
