data_PCOD8282997
_publ_section_title
;
Structure prediction by ZEFSAII (Michael W. Deem and Ramdas Pophale) SiO2 
 PCOD8282997
Probable space group: C C C A
;
_chemical_formula_sum "Si O2"
_cell_formula_units_Z 60
_cell_length_a 10.572835
_cell_length_b 17.358374
_cell_length_c 14.935305
_cell_angle_alpha 90.000000
_cell_angle_beta 90.000000
_cell_angle_gamma 90.000000
_cell_volume 2741.035069
_symmetry_space_group_name_H-M "C C C A"
_symmetry_group_IT_number 68
_space_group.IT_coordinate_system_code '2'
_symmetry_cell_setting 'orthorhombic'
loop_
_space_group_symop_operation_xyz
x,y,z
-x,1/2-y,z
x,1/2-y,1/2-z
-x,y,1/2-z
-x,-y,-z
x,1/2+y,-z
-x,1/2+y,1/2+z
x,-y,1/2+z
1/2+x,1/2+y,z
1/2-x,-y,z
1/2+x,-y,1/2-z
1/2-x,1/2+y,1/2-z
1/2-x,1/2-y,-z
1/2+x,y,-z
1/2-x,y,1/2+z
1/2+x,1/2-y,1/2+z
loop_
_atom_site_type_symbol
_atom_site_label
_atom_site_fract_x
_atom_site_fract_y
_atom_site_fract_z
Si Si1 0.430332 0.408514 0.155804
Si Si2 0.250000 0.500000 0.043204
Si Si3 0.000000 0.250000 0.250000
Si Si4 0.831854 0.647598 0.055743
Si Si5 0.287842 0.787715 0.370600
O O1 0.500000 0.428386 0.250000
O O2 0.370338 0.485390 0.109622
O O3 0.529424 0.372733 0.087842
O O4 0.320070 0.345274 0.165070
O O5 0.240341 0.429154 0.974773
O O6 0.091724 0.196557 0.308494
O O7 0.760863 0.698316 0.132636
O O8 0.842691 0.700485 0.969078
#
# Coordination Sequence:
#
# PCOD8282997 Si02
#       5
#    16   8   4  16  16
#     4  11  23  44  66  98 135 177 222 279 337 405
#     4  10  24  42  64 104 128 184 222 264 354 406
#     4  12  24  40  62 108 130 164 220 304 320 400
#     4  10  22  43  69  93 134 177 222 275 333 416
#     4  10  24  39  67 103 128 173 230 275 346 387
#
# _framework density 21.889543
#
# number of rings (size 3 to 8) (size 9 to 14) (size 15 to 20)
#    0.000    1.600    0.000    3.200   11.200    2.133 
#    9.600    0.000    0.000    0.000    0.000    0.000 
#    0.000    0.000    0.000    0.000    0.000    0.000 
#
# Total GULP energy -371712.238486 kJ/mol
# GULP energy per Si atom -12390.407950 kJ/mol
# Density = 2.183972 g / cm^3
# Si number density = 21.889543 Si / 1000 Ang^3
#
#
#
# Elastic Constant Matrix: (Units=GPa)
#
#
# Indices 1 2 3 4 5 6 
#
# 1 124.6120 17.7185 32.8177 0.0000 0.0000 0.0000
# 2 17.7185 94.4629 2.8194 0.0000 0.0000 0.0000
# 3 32.8177 2.8194 47.3692 0.0000 0.0000 0.0000
# 4 0.0000 0.0000 0.0000 17.1589 0.0000 0.0000
# 5 0.0000 0.0000 0.0000 0.0000 57.3725 0.0000
# 6 0.0000 0.0000 0.0000 0.0000 0.0000 28.3580
#
#
#
# Elastic Compliance Matrix: (Units=1/GPa)
#
#
# Indices 1 2 3 4 5 6 
#
# 1 0.010077 -0.001685 -0.006881 0.000000 0.000000 0.000000
# 2 -0.001685 0.010887 0.000519 0.000000 0.000000 0.000000
# 3 -0.006881 0.000519 0.025847 0.000000 0.000000 0.000000
# 4 0.000000 0.000000 0.000000 0.058279 0.000000 0.000000
# 5 0.000000 0.000000 0.000000 0.000000 0.017430 0.000000
# 6 0.000000 0.000000 0.000000 0.000000 0.000000 0.035263
#
#
# Mechanical properties :
#
#
# Convention : Reuss Voigt Hill
#
# Bulk Modulus (GPa) = 32.55470 41.46169 37.00820
# Shear Modulus (GPa) = 27.15703 34.78376 30.97040
#
# Velocity S-wave (km/s) = 3.52609 3.99062 3.76553
# Velocity P-wave (km/s) = 5.61091 6.34160 5.98741
#
# Compressibility (1/GPa) = 0.03071753
#
# Stress axis : x y z
#
# Youngs Moduli (GPa) = 99.23985 91.85538 38.68924
#
# Poissons Ratio (x) = 0.15475 0.26622
# Poissons Ratio (y) = 0.16719 -0.02009
# Poissons Ratio (z) = 0.68286 -0.04769
#
# Static dielectric constant tensor:
#      x y z
#    x 4.074440 0.000000 0.000000 
#    y 0.000000 4.051580 0.000000 
#    z 0.000000 0.000000 4.151180 
# 
# 
# High freq. dielectric constant tensor:
#      x y z
#    x 1.867760 0.000000 0.000000 
#    y 0.000000 1.849680 0.000000 
#    z 0.000000 0.000000 1.869570 
# 
# From -- ./inp_files/27736.got.cif
#   From: 2010.03.12/outbox.cif.g09.slc.cpg/sg68_14_cif.got.tgz:27736.got - 2010.04.10 23:14:56.
