data_PCOD8282965
_publ_section_title
;
Structure prediction by ZEFSAII (Michael W. Deem and Ramdas Pophale) SiO2 
 PCOD8282965
Probable space group: C C C A
;
_chemical_formula_sum "Si O2"
_cell_formula_units_Z 56
_cell_length_a 14.830038
_cell_length_b 14.021725
_cell_length_c 10.706864
_cell_angle_alpha 90.000000
_cell_angle_beta 90.000000
_cell_angle_gamma 90.000000
_cell_volume 2226.414365
_symmetry_space_group_name_H-M "C C C A"
_symmetry_group_IT_number 68
_space_group.IT_coordinate_system_code '2'
_symmetry_cell_setting 'orthorhombic'
loop_
_space_group_symop_operation_xyz
x,y,z
-x,1/2-y,z
x,1/2-y,1/2-z
-x,y,1/2-z
-x,-y,-z
x,1/2+y,-z
-x,1/2+y,1/2+z
x,-y,1/2+z
1/2+x,1/2+y,z
1/2-x,-y,z
1/2+x,-y,1/2-z
1/2-x,1/2+y,1/2-z
1/2-x,1/2-y,-z
1/2+x,y,-z
1/2-x,y,1/2+z
1/2+x,1/2-y,1/2+z
loop_
_atom_site_type_symbol
_atom_site_label
_atom_site_fract_x
_atom_site_fract_y
_atom_site_fract_z
Si Si1 0.218577 0.894091 0.173797
Si Si2 0.632987 0.750000 0.250000
Si Si3 0.568685 0.934653 0.641323
Si Si4 0.424227 0.863693 0.476418
O O1 0.308360 0.834823 0.193856
O O2 0.160400 0.891913 0.301984
O O3 0.160736 0.842593 0.065888
O O4 0.250000 0.000000 0.136942
O O5 0.570656 0.707664 0.359782
O O6 0.500000 0.965568 0.750000
O O7 0.519694 0.856293 0.551528
O O8 0.592329 0.027659 0.563551
#
# Coordination Sequence:
#
# PCOD8282965 Si02
#       4
#    16   8  16  16
#     4  11  23  41  71 101 150 195 247 314 385 443
#     4  12  24  42  68 118 138 190 260 318 370 455
#     4   9  20  44  70  97 137 201 241 301 387 449
#     4  10  22  42  69 101 144 190 254 306 378 456
#
# _framework density 25.152550000000002
#
# number of rings (size 3 to 8) (size 9 to 14) (size 15 to 20)
#    0.000    1.714    2.857    0.857    4.000    0.000 
#    0.000   10.000    0.000    0.000    0.000    0.000 
#    0.000    0.000    0.000    0.000    0.000    0.000 
#
# Total GULP energy -347308.821265 kJ/mol
# GULP energy per Si atom -12403.886474 kJ/mol
# Density = 2.509530 g / cm^3
# Si number density = 25.152550 Si / 1000 Ang^3
#
#
#
# Elastic Constant Matrix: (Units=GPa)
#
#
# Indices 1 2 3 4 5 6 
#
# 1 95.2134 29.8333 53.9406 0.0000 0.0000 0.0000
# 2 29.8333 80.5861 31.6054 0.0000 0.0000 0.0000
# 3 53.9406 31.6054 145.2644 0.0000 0.0000 0.0000
# 4 0.0000 0.0000 0.0000 53.4547 0.0000 0.0000
# 5 0.0000 0.0000 0.0000 0.0000 38.6345 0.0000
# 6 0.0000 0.0000 0.0000 0.0000 0.0000 39.3878
#
#
#
# Elastic Compliance Matrix: (Units=1/GPa)
#
#
# Indices 1 2 3 4 5 6 
#
# 1 0.014136 -0.003471 -0.004494 0.000000 0.000000 0.000000
# 2 -0.003471 0.014419 -0.001848 0.000000 0.000000 0.000000
# 3 -0.004494 -0.001848 0.008955 0.000000 0.000000 0.000000
# 4 0.000000 0.000000 0.000000 0.018707 0.000000 0.000000
# 5 0.000000 0.000000 0.000000 0.000000 0.025884 0.000000
# 6 0.000000 0.000000 0.000000 0.000000 0.000000 0.025389
#
#
# Mechanical properties :
#
#
# Convention : Reuss Voigt Hill
#
# Bulk Modulus (GPa) = 55.91676 61.31364 58.61520
# Shear Modulus (GPa) = 37.57221 40.00769 38.78995
#
# Velocity S-wave (km/s) = 3.86913 3.99256 3.93133
# Velocity P-wave (km/s) = 6.49919 6.75897 6.63036
#
# Compressibility (1/GPa) = 0.01788373
#
# Stress axis : x y z
#
# Youngs Moduli (GPa) = 70.74042 69.35348 111.67071
#
# Poissons Ratio (x) = 0.24071 0.50185
# Poissons Ratio (y) = 0.24552 0.20641
# Poissons Ratio (z) = 0.31791 0.12819
#
# Static dielectric constant tensor:
#      x y z
#    x 4.563880 0.000000 0.000000 
#    y 0.000000 4.263750 0.000000 
#    z 0.000000 0.000000 4.872770 
# 
# 
# High freq. dielectric constant tensor:
#      x y z
#    x 2.010990 0.000000 0.000000 
#    y 0.000000 1.990160 0.000000 
#    z 0.000000 0.000000 2.014930 
# 
# From -- ./inp_files/12513.got.cif
#   From: 2010.03.12/outbox.cif.g09.slc.cpg/sg68_7_cif.got.tgz:12513.got - 2010.04.10 23:14:56.
