data_PCOD8282894
_publ_section_title
;
Structure prediction by ZEFSAII (Michael W. Deem and Ramdas Pophale) SiO2 
 PCOD8282894
Probable space group: C C C A
;
_chemical_formula_sum "Si O2"
_cell_formula_units_Z 88
_cell_length_a 30.831387
_cell_length_b 10.426644
_cell_length_c 13.252114
_cell_angle_alpha 90.000000
_cell_angle_beta 90.000000
_cell_angle_gamma 90.000000
_cell_volume 4260.129209
_symmetry_space_group_name_H-M "C C C A"
_symmetry_group_IT_number 68
_space_group.IT_coordinate_system_code '2'
_symmetry_cell_setting 'orthorhombic'
loop_
_space_group_symop_operation_xyz
x,y,z
-x,1/2-y,z
x,1/2-y,1/2-z
-x,y,1/2-z
-x,-y,-z
x,1/2+y,-z
-x,1/2+y,1/2+z
x,-y,1/2+z
1/2+x,1/2+y,z
1/2-x,-y,z
1/2+x,-y,1/2-z
1/2-x,1/2+y,1/2-z
1/2-x,1/2-y,-z
1/2+x,y,-z
1/2-x,y,1/2+z
1/2+x,1/2-y,1/2+z
loop_
_atom_site_type_symbol
_atom_site_label
_atom_site_fract_x
_atom_site_fract_y
_atom_site_fract_z
Si Si1 0.029010 0.627555 0.492752
Si Si2 0.704198 0.293999 0.543336
Si Si3 0.405726 0.620289 0.808482
Si Si4 0.097467 0.570467 0.643948
Si Si5 0.833560 0.750000 0.750000
Si Si6 0.156918 0.547443 0.471905
O O1 0.057467 0.632623 0.391837
O O2 0.058171 0.649473 0.593450
O O3 0.000000 0.750000 0.486014
O O4 0.000000 0.500000 0.500000
O O5 0.750000 0.250000 0.500000
O O6 0.699987 0.297364 0.664505
O O7 0.670133 0.192661 0.499060
O O8 0.694890 0.442215 0.514080
O O9 0.393238 0.750000 0.750000
O O10 0.423917 0.527641 0.721754
O O11 0.362592 0.556709 0.858985
O O12 0.134343 0.646904 0.702777
O O13 0.120014 0.498371 0.549336
#
# Coordination Sequence:
#
# PCOD8282894 Si02
#       6
#    16  16  16  16   8  16
#     4  11  26  42  61  98 137 169 224 291 345 394
#     4  11  22  42  64  97 135 168 207 284 333 389
#     4  11  22  41  68  92 127 182 227 275 335 406
#     4  10  22  40  68  89 126 176 220 268 324 403
#     4  10  22  42  65  92 126 172 226 252 329 422
#     4  10  22  41  66  96 131 168 226 264 330 408
#
# _framework density 20.656649000000002
#
# number of rings (size 3 to 8) (size 9 to 14) (size 15 to 20)
#    0.000    1.455    1.818    2.727    2.545    5.455 
#    4.909    1.818    0.000    0.000    0.000    0.000 
#    0.000    0.000    0.000    0.000    0.000    0.000 
#
# Total GULP energy -545164.750287 kJ/mol
# GULP energy per Si atom -12390.107961 kJ/mol
# Density = 2.060963 g / cm^3
# Si number density = 20.656649 Si / 1000 Ang^3
#
#
#
# Elastic Constant Matrix: (Units=GPa)
#
#
# Indices 1 2 3 4 5 6 
#
# 1 109.5804 42.9007 57.0404 0.0000 0.0000 0.0000
# 2 42.9007 117.5796 51.7708 0.0000 0.0000 0.0000
# 3 57.0404 51.7708 148.0497 0.0000 0.0000 0.0000
# 4 0.0000 0.0000 0.0000 31.8989 0.0000 0.0000
# 5 0.0000 0.0000 0.0000 0.0000 38.7928 0.0000
# 6 0.0000 0.0000 0.0000 0.0000 0.0000 37.6920
#
#
#
# Elastic Compliance Matrix: (Units=1/GPa)
#
#
# Indices 1 2 3 4 5 6 
#
# 1 0.012150 -0.002804 -0.003701 0.000000 0.000000 0.000000
# 2 -0.002804 0.010700 -0.002661 0.000000 0.000000 0.000000
# 3 -0.003701 -0.002661 0.009111 0.000000 0.000000 0.000000
# 4 0.000000 0.000000 0.000000 0.031349 0.000000 0.000000
# 5 0.000000 0.000000 0.000000 0.000000 0.025778 0.000000
# 6 0.000000 0.000000 0.000000 0.000000 0.000000 0.026531
#
#
# Mechanical properties :
#
#
# Convention : Reuss Voigt Hill
#
# Bulk Modulus (GPa) = 73.37269 75.40371 74.38820
# Shear Modulus (GPa) = 36.10316 36.57660 36.33988
#
# Velocity S-wave (km/s) = 4.18517 4.21253 4.19887
# Velocity P-wave (km/s) = 7.67799 7.76164 7.71993
#
# Compressibility (1/GPa) = 0.01362905
#
# Stress axis : x y z
#
# Youngs Moduli (GPa) = 82.30716 93.46150 109.75888
#
# Poissons Ratio (x) = 0.26203 0.40618
# Poissons Ratio (y) = 0.23075 0.29210
# Poissons Ratio (z) = 0.30459 0.24873
#
# Static dielectric constant tensor:
#      x y z
#    x 3.665520 0.000000 0.000000 
#    y 0.000000 4.008250 0.000000 
#    z 0.000000 0.000000 4.494610 
# 
# 
# High freq. dielectric constant tensor:
#      x y z
#    x 1.797620 0.000000 0.000000 
#    y 0.000000 1.808850 0.000000 
#    z 0.000000 0.000000 1.829500 
# 
# From -- ./inp_files/17657.got.cif
#   From: 2010.03.12/outbox.cif.g09.slc.cpg/sg68_9_cif.got.tgz:17657.got - 2010.04.10 23:14:56.
