data_PCOD8282903
_publ_section_title
;
Structure prediction by ZEFSAII (Michael W. Deem and Ramdas Pophale) SiO2 
 PCOD8282903
Probable space group: C C C A
;
_chemical_formula_sum "Si O2"
_cell_formula_units_Z 64
_cell_length_a 5.036330
_cell_length_b 18.799277
_cell_length_c 30.106749
_cell_angle_alpha 90.000000
_cell_angle_beta 90.000000
_cell_angle_gamma 90.000000
_cell_volume 2850.487809
_symmetry_space_group_name_H-M "C C C A"
_symmetry_group_IT_number 68
_space_group.IT_coordinate_system_code '2'
_symmetry_cell_setting 'orthorhombic'
loop_
_space_group_symop_operation_xyz
x,y,z
-x,1/2-y,z
x,1/2-y,1/2-z
-x,y,1/2-z
-x,-y,-z
x,1/2+y,-z
-x,1/2+y,1/2+z
x,-y,1/2+z
1/2+x,1/2+y,z
1/2-x,-y,z
1/2+x,-y,1/2-z
1/2-x,1/2+y,1/2-z
1/2-x,1/2-y,-z
1/2+x,y,-z
1/2-x,y,1/2+z
1/2+x,1/2-y,1/2+z
loop_
_atom_site_type_symbol
_atom_site_label
_atom_site_fract_x
_atom_site_fract_y
_atom_site_fract_z
Si Si1 0.250000 0.500000 0.088209
Si Si2 0.480667 0.603015 0.970659
Si Si3 0.000000 0.450903 0.250000
Si Si4 0.910548 0.926221 0.845446
Si Si5 0.767263 0.703481 0.101860
O O1 0.502543 0.468194 0.060139
O O2 0.347366 0.564241 0.119883
O O3 0.383375 0.672453 0.944366
O O4 0.287145 0.601391 0.012848
O O5 0.750000 0.500000 0.254308
O O6 0.997402 0.404778 0.204645
O O7 0.752325 0.858983 0.862663
O O8 0.750000 0.000000 0.844086
O O9 0.500000 0.750000 0.093885
O O10 0.000000 0.750000 0.123010
#
# Coordination Sequence:
#
# PCOD8282903 Si02
#       5
#     8  16   8  16  16
#     4  12  22  42  70 106 138 180 228 298 348 410
#     4  12  26  43  67  99 137 182 236 294 344 404
#     4  10  22  40  71 114 139 168 226 292 338 404
#     4  11  23  44  75 103 142 178 233 282 344 413
#     4  12  27  46  69 101 142 188 230 282 351 417
#
# _framework density 22.452297999999999
#
# number of rings (size 3 to 8) (size 9 to 14) (size 15 to 20)
#    0.000    0.500    3.750    5.250    0.000    3.000 
#    0.000    0.625    0.000    4.500    0.000    0.000 
#    0.000    0.000    0.000    0.000    0.000    0.000 
#
# Total GULP energy -396509.075103 kJ/mol
# GULP energy per Si atom -12390.908597 kJ/mol
# Density = 2.240120 g / cm^3
# Si number density = 22.452298 Si / 1000 Ang^3
#
#
#
# Elastic Constant Matrix: (Units=GPa)
#
#
# Indices 1 2 3 4 5 6 
#
# 1 133.6178 59.8771 48.0963 0.0000 0.0000 0.0000
# 2 59.8771 130.6552 65.2900 0.0000 0.0000 0.0000
# 3 48.0963 65.2900 154.3927 0.0000 0.0000 0.0000
# 4 0.0000 0.0000 0.0000 10.2836 0.0000 0.0000
# 5 0.0000 0.0000 0.0000 0.0000 21.3846 0.0000
# 6 0.0000 0.0000 0.0000 0.0000 0.0000 48.4072
#
#
#
# Elastic Compliance Matrix: (Units=1/GPa)
#
#
# Indices 1 2 3 4 5 6 
#
# 1 0.009665 -0.003708 -0.001443 0.000000 0.000000 0.000000
# 2 -0.003708 0.011127 -0.003550 0.000000 0.000000 0.000000
# 3 -0.001443 -0.003550 0.008428 0.000000 0.000000 0.000000
# 4 0.000000 0.000000 0.000000 0.097242 0.000000 0.000000
# 5 0.000000 0.000000 0.000000 0.000000 0.046763 0.000000
# 6 0.000000 0.000000 0.000000 0.000000 0.000000 0.020658
#
#
# Mechanical properties :
#
#
# Convention : Reuss Voigt Hill
#
# Bulk Modulus (GPa) = 84.62051 85.02137 84.82094
# Shear Modulus (GPa) = 23.23147 32.37525 27.80336
#
# Velocity S-wave (km/s) = 3.22017 3.80143 3.52281
# Velocity P-wave (km/s) = 7.18309 7.56423 7.37612
#
# Compressibility (1/GPa) = 0.01181747
#
# Stress axis : x y z
#
# Youngs Moduli (GPa) = 103.46438 89.86816 118.65537
#
# Poissons Ratio (x) = 0.33327 0.17118
# Poissons Ratio (y) = 0.38370 0.42127
# Poissons Ratio (z) = 0.14926 0.31906
#
# Static dielectric constant tensor:
#      x y z
#    x 4.141740 0.000000 0.000000 
#    y 0.000000 4.040050 0.000000 
#    z 0.000000 0.000000 4.613720 
# 
# 
# High freq. dielectric constant tensor:
#      x y z
#    x 1.899180 0.000000 0.000000 
#    y 0.000000 1.863660 0.000000 
#    z 0.000000 0.000000 1.892890 
# 
# From -- ./inp_files/52934.got.cif
#   From: 2010.03.12/outbox.cif.g09.slc.cpg/sg68_27_cif.got.tgz:52934.got - 2010.04.10 23:14:56.
