data_PCOD8282034
_publ_section_title
;
Structure prediction by ZEFSAII (Michael W. Deem and Ramdas Pophale) SiO2 
 PCOD8282034
Probable space group: C C C A
;
_chemical_formula_sum "Si O2"
_cell_formula_units_Z 88
_cell_length_a 15.824718
_cell_length_b 15.177236
_cell_length_c 17.378998
_cell_angle_alpha 90.000000
_cell_angle_beta 90.000000
_cell_angle_gamma 90.000000
_cell_volume 4174.009182
_symmetry_space_group_name_H-M "C C C A"
_symmetry_group_IT_number 68
_space_group.IT_coordinate_system_code '2'
_symmetry_cell_setting 'orthorhombic'
loop_
_space_group_symop_operation_xyz
x,y,z
-x,1/2-y,z
x,1/2-y,1/2-z
-x,y,1/2-z
-x,-y,-z
x,1/2+y,-z
-x,1/2+y,1/2+z
x,-y,1/2+z
1/2+x,1/2+y,z
1/2-x,-y,z
1/2+x,-y,1/2-z
1/2-x,1/2+y,1/2-z
1/2-x,1/2-y,-z
1/2+x,y,-z
1/2-x,y,1/2+z
1/2+x,1/2-y,1/2+z
loop_
_atom_site_type_symbol
_atom_site_label
_atom_site_fract_x
_atom_site_fract_y
_atom_site_fract_z
Si Si1 0.985883 0.351741 0.839921
Si Si2 0.798789 0.750000 0.750000
Si Si3 0.708236 0.869645 0.648820
Si Si4 0.893597 0.997518 0.397650
Si Si5 0.451356 0.339831 0.822335
Si Si6 0.750000 0.000000 0.521548
Si Si7 0.250000 0.500000 0.776267
O O1 0.891179 0.377530 0.861668
O O2 0.000000 0.250000 0.861253
O O3 0.000000 0.369783 0.750000
O O4 0.045985 0.412180 0.893175
O O5 0.740462 0.773079 0.674139
O O6 0.857745 0.822556 0.790462
O O7 0.750626 0.911098 0.572809
O O8 0.746757 0.915302 0.723610
O O9 0.836603 0.994973 0.473767
O O10 0.948079 0.088875 0.392201
O O11 0.834749 0.998256 0.324256
O O12 0.500000 0.250000 0.849348
O O13 0.500000 0.383269 0.750000
#
# Coordination Sequence:
#
# PCOD8282034 Si02
#       7
#    16   8  16  16  16   8   8
#     4  11  23  38  67 102 129 170 234 291 335 396
#     4  10  19  38  65  92 132 160 234 284 319 393
#     4  11  22  40  63  98 128 177 223 283 327 412
#     4  11  21  43  63  94 137 180 216 282 341 417
#     4   9  20  35  65 104 125 169 230 287 332 390
#     4  10  28  42  64  96 138 182 228 266 366 418
#     4  10  20  34  68  88 124 176 228 256 332 394
#
# _framework density 21.082847999999998
#
# number of rings (size 3 to 8) (size 9 to 14) (size 15 to 20)
#    0.000    1.818    3.636    1.636    0.000    2.182 
#    0.000    4.545    0.000    1.091    0.000    0.000 
#    0.000    0.000    0.000    0.000    0.000    0.000 
#
# Total GULP energy -545167.643071 kJ/mol
# GULP energy per Si atom -12390.173706 kJ/mol
# Density = 2.103486 g / cm^3
# Si number density = 21.082848 Si / 1000 Ang^3
#
#
#
# Elastic Constant Matrix: (Units=GPa)
#
#
# Indices 1 2 3 4 5 6 
#
# 1 144.0935 60.9205 57.8815 0.0000 0.0000 0.0000
# 2 60.9205 115.9391 59.0794 0.0000 0.0000 0.0000
# 3 57.8815 59.0794 114.9910 0.0000 0.0000 0.0000
# 4 0.0000 0.0000 0.0000 41.5534 0.0000 0.0000
# 5 0.0000 0.0000 0.0000 0.0000 33.3776 0.0000
# 6 0.0000 0.0000 0.0000 0.0000 0.0000 19.1543
#
#
#
# Elastic Compliance Matrix: (Units=1/GPa)
#
#
# Indices 1 2 3 4 5 6 
#
# 1 0.009653 -0.003517 -0.003052 0.000000 0.000000 0.000000
# 2 -0.003517 0.012966 -0.004891 0.000000 0.000000 0.000000
# 3 -0.003052 -0.004891 0.012745 0.000000 0.000000 0.000000
# 4 0.000000 0.000000 0.000000 0.024065 0.000000 0.000000
# 5 0.000000 0.000000 0.000000 0.000000 0.029960 0.000000
# 6 0.000000 0.000000 0.000000 0.000000 0.000000 0.052208
#
#
# Mechanical properties :
#
#
# Convention : Reuss Voigt Hill
#
# Bulk Modulus (GPa) = 80.36030 81.19850 80.77940
# Shear Modulus (GPa) = 29.64461 31.95989 30.80225
#
# Velocity S-wave (km/s) = 3.75387 3.89770 3.82646
# Velocity P-wave (km/s) = 7.54903 7.67162 7.61057
#
# Compressibility (1/GPa) = 0.01244396
#
# Stress axis : x y z
#
# Youngs Moduli (GPa) = 103.59736 77.12735 78.45935
#
# Poissons Ratio (x) = 0.27125 0.23945
# Poissons Ratio (y) = 0.36434 0.38375
# Poissons Ratio (z) = 0.31617 0.37724
#
# Static dielectric constant tensor:
#      x y z
#    x 3.908650 0.000000 0.000000 
#    y 0.000000 3.766490 0.000000 
#    z 0.000000 0.000000 3.543060 
# 
# 
# High freq. dielectric constant tensor:
#      x y z
#    x 1.844040 0.000000 0.000000 
#    y 0.000000 1.830320 0.000000 
#    z 0.000000 0.000000 1.793600 
# 
# From -- ./inp_files/30959.got.cif
#   From: 2010.03.12/outbox.cif.g09.slc.cpg/sg68_16_cif.got.tgz:30959.got - 2010.04.10 23:14:56.
