data_PCOD8282117
_publ_section_title
;
Structure prediction by ZEFSAII (Michael W. Deem and Ramdas Pophale) SiO2 
 PCOD8282117
Probable space group: C C C A
;
_chemical_formula_sum "Si O2"
_cell_formula_units_Z 80
_cell_length_a 15.456183
_cell_length_b 11.167625
_cell_length_c 22.812521
_cell_angle_alpha 90.000000
_cell_angle_beta 90.000000
_cell_angle_gamma 90.000000
_cell_volume 3937.643145
_symmetry_space_group_name_H-M "C C C A"
_symmetry_group_IT_number 68
_space_group.IT_coordinate_system_code '2'
_symmetry_cell_setting 'orthorhombic'
loop_
_space_group_symop_operation_xyz
x,y,z
-x,1/2-y,z
x,1/2-y,1/2-z
-x,y,1/2-z
-x,-y,-z
x,1/2+y,-z
-x,1/2+y,1/2+z
x,-y,1/2+z
1/2+x,1/2+y,z
1/2-x,-y,z
1/2+x,-y,1/2-z
1/2-x,1/2+y,1/2-z
1/2-x,1/2-y,-z
1/2+x,y,-z
1/2-x,y,1/2+z
1/2+x,1/2-y,1/2+z
loop_
_atom_site_type_symbol
_atom_site_label
_atom_site_fract_x
_atom_site_fract_y
_atom_site_fract_z
Si Si1 0.714296 0.273196 0.064575
Si Si2 0.407610 0.984516 0.581039
Si Si3 0.174393 0.587942 0.616590
Si Si4 0.913372 0.583871 0.464118
Si Si5 0.493181 0.609638 0.182830
O O1 0.681204 0.405596 0.083703
O O2 0.788400 0.223453 0.108801
O O3 0.629510 0.190994 0.071509
O O4 0.750000 0.250000 0.000000
O O5 0.484902 0.908780 0.550548
O O6 0.392677 0.093235 0.534381
O O7 0.435471 0.037244 0.644186
O O8 0.250000 0.500000 0.636240
O O9 0.129261 0.542902 0.556177
O O10 0.104276 0.576756 0.667157
O O11 0.500000 0.750000 0.171937
O O12 0.500000 0.571133 0.250000
#
# Coordination Sequence:
#
# PCOD8282117 Si02
#       5
#    16  16  16  16  16
#     4  11  20  31  53  91 126 148 183 236 305 374
#     4  10  20  34  58  84 116 157 196 236 296 368
#     4   9  19  38  59  82 122 158 186 246 310 353
#     4   9  19  33  52  84 122 156 181 229 304 370
#     4  10  23  43  61  80 110 161 214 254 288 347
#
# _framework density 20.316721999999999
#
# number of rings (size 3 to 8) (size 9 to 14) (size 15 to 20)
#    0.000    2.200    2.000    0.600    2.800    0.000 
#    0.000    4.000    0.000   20.400    0.000    0.000 
#    0.000    0.000    0.000    0.000    0.000    0.000 
#
# Total GULP energy -495586.536341 kJ/mol
# GULP energy per Si atom -12389.663409 kJ/mol
# Density = 2.027048 g / cm^3
# Si number density = 20.316722 Si / 1000 Ang^3
#
#
#
# Elastic Constant Matrix: (Units=GPa)
#
#
# Indices 1 2 3 4 5 6 
#
# 1 95.7661 36.7457 43.4675 0.0000 0.0000 0.0000
# 2 36.7457 61.9472 40.3965 0.0000 0.0000 0.0000
# 3 43.4675 40.3965 138.2995 0.0000 0.0000 0.0000
# 4 0.0000 0.0000 0.0000 22.0219 0.0000 0.0000
# 5 0.0000 0.0000 0.0000 0.0000 25.3819 0.0000
# 6 0.0000 0.0000 0.0000 0.0000 0.0000 37.4438
#
#
#
# Elastic Compliance Matrix: (Units=1/GPa)
#
#
# Indices 1 2 3 4 5 6 
#
# 1 0.014170 -0.006796 -0.002469 0.000000 0.000000 0.000000
# 2 -0.006796 0.023200 -0.004641 0.000000 0.000000 0.000000
# 3 -0.002469 -0.004641 0.009362 0.000000 0.000000 0.000000
# 4 0.000000 0.000000 0.000000 0.045409 0.000000 0.000000
# 5 0.000000 0.000000 0.000000 0.000000 0.039398 0.000000
# 6 0.000000 0.000000 0.000000 0.000000 0.000000 0.026707
#
#
# Mechanical properties :
#
#
# Convention : Reuss Voigt Hill
#
# Bulk Modulus (GPa) = 52.84781 59.69247 56.27014
# Shear Modulus (GPa) = 25.99241 28.66306 27.32774
#
# Velocity S-wave (km/s) = 3.58070 3.76015 3.67152
# Velocity P-wave (km/s) = 6.56990 6.94956 6.76240
#
# Compressibility (1/GPa) = 0.01892226
#
# Stress axis : x y z
#
# Youngs Moduli (GPa) = 70.57113 43.10341 106.81306
#
# Poissons Ratio (x) = 0.29291 0.26369
# Poissons Ratio (y) = 0.47957 0.49570
# Poissons Ratio (z) = 0.17422 0.20003
#
# Static dielectric constant tensor:
#      x y z
#    x 3.968730 0.000000 0.000000 
#    y 0.000000 3.694430 0.000000 
#    z 0.000000 0.000000 3.333480 
# 
# 
# High freq. dielectric constant tensor:
#      x y z
#    x 1.817770 0.000000 0.000000 
#    y 0.000000 1.784840 0.000000 
#    z 0.000000 0.000000 1.747290 
# 
# From -- ./inp_files/45186.got.cif
#   From: 2010.03.12/outbox.cif.g09.slc.cpg/sg68_23_cif.got.tgz:45186.got - 2010.04.10 23:14:56.
