data_PCOD8282563
_publ_section_title
;
Structure prediction by ZEFSAII (Michael W. Deem and Ramdas Pophale) SiO2 
 PCOD8282563
Probable space group: C C C A
;
_chemical_formula_sum "Si O2"
_cell_formula_units_Z 80
_cell_length_a 11.537238
_cell_length_b 25.457444
_cell_length_c 13.131105
_cell_angle_alpha 90.000000
_cell_angle_beta 90.000000
_cell_angle_gamma 90.000000
_cell_volume 3856.718339
_symmetry_space_group_name_H-M "C C C A"
_symmetry_group_IT_number 68
_space_group.IT_coordinate_system_code '2'
_symmetry_cell_setting 'orthorhombic'
loop_
_space_group_symop_operation_xyz
x,y,z
-x,1/2-y,z
x,1/2-y,1/2-z
-x,y,1/2-z
-x,-y,-z
x,1/2+y,-z
-x,1/2+y,1/2+z
x,-y,1/2+z
1/2+x,1/2+y,z
1/2-x,-y,z
1/2+x,-y,1/2-z
1/2-x,1/2+y,1/2-z
1/2-x,1/2-y,-z
1/2+x,y,-z
1/2-x,y,1/2+z
1/2+x,1/2-y,1/2+z
loop_
_atom_site_type_symbol
_atom_site_label
_atom_site_fract_x
_atom_site_fract_y
_atom_site_fract_z
Si Si1 0.049142 0.369162 0.353391
Si Si2 0.259839 0.940779 0.684897
Si Si3 0.593845 0.136309 0.174369
Si Si4 0.597791 0.893578 0.972553
Si Si5 0.714136 0.690121 0.000842
O O1 0.133509 0.416638 0.325958
O O2 0.107889 0.323141 0.421772
O O3 0.000000 0.342954 0.250000
O O4 0.939440 0.397330 0.409702
O O5 0.333642 0.906522 0.763863
O O6 0.323721 0.940660 0.573328
O O7 0.250000 0.000000 0.724933
O O8 0.500000 0.164585 0.250000
O O9 0.523095 0.106533 0.087355
O O10 0.679193 0.176580 0.116376
O O11 0.673870 0.840824 0.958819
O O12 0.750000 0.750000 0.000000
#
# Coordination Sequence:
#
# PCOD8282563 Si02
#       5
#    16  16  16  16  16
#     4  10  21  38  58  86 122 156 198 248 293 350
#     4  10  21  38  61  88 116 155 201 246 300 356
#     4   9  19  38  59  84 120 154 196 247 293 352
#     4   9  20  39  57  82 121 155 191 245 297 351
#     4  10  21  40  62  86 120 159 199 244 298 356
#
# _framework density 20.743023999999998
#
# number of rings (size 3 to 8) (size 9 to 14) (size 15 to 20)
#    0.000    2.400    0.000    1.200    0.000    6.400 
#    0.000   38.000    0.000    0.000    0.000    0.000 
#    0.000    0.000    0.000    0.000    0.000    0.000 
#
# Total GULP energy -495612.437514 kJ/mol
# GULP energy per Si atom -12390.310938 kJ/mol
# Density = 2.069581 g / cm^3
# Si number density = 20.743024 Si / 1000 Ang^3
#
#
#
# Elastic Constant Matrix: (Units=GPa)
#
#
# Indices 1 2 3 4 5 6 
#
# 1 98.4688 44.0738 51.9131 0.0000 0.0000 0.0000
# 2 44.0738 123.5509 47.5821 0.0000 0.0000 0.0000
# 3 51.9131 47.5821 139.3380 0.0000 0.0000 0.0000
# 4 0.0000 0.0000 0.0000 23.5245 0.0000 0.0000
# 5 0.0000 0.0000 0.0000 0.0000 52.5137 0.0000
# 6 0.0000 0.0000 0.0000 0.0000 0.0000 13.7995
#
#
#
# Elastic Compliance Matrix: (Units=1/GPa)
#
#
# Indices 1 2 3 4 5 6 
#
# 1 0.013763 -0.003379 -0.003974 0.000000 0.000000 0.000000
# 2 -0.003379 0.010149 -0.002207 0.000000 0.000000 0.000000
# 3 -0.003974 -0.002207 0.009411 0.000000 0.000000 0.000000
# 4 0.000000 0.000000 0.000000 0.042509 0.000000 0.000000
# 5 0.000000 0.000000 0.000000 0.000000 0.019043 0.000000
# 6 0.000000 0.000000 0.000000 0.000000 0.000000 0.072466
#
#
# Mechanical properties :
#
#
# Convention : Reuss Voigt Hill
#
# Bulk Modulus (GPa) = 70.40511 72.05508 71.23010
# Shear Modulus (GPa) = 26.15134 32.48681 29.31908
#
# Velocity S-wave (km/s) = 3.55453 3.96176 3.76366
# Velocity P-wave (km/s) = 7.13172 7.46591 7.30073
#
# Compressibility (1/GPa) = 0.01420351
#
# Stress axis : x y z
#
# Youngs Moduli (GPa) = 72.65876 98.53016 106.26018
#
# Poissons Ratio (x) = 0.33296 0.42225
# Poissons Ratio (y) = 0.24553 0.23450
# Poissons Ratio (z) = 0.28872 0.21744
#
# Static dielectric constant tensor:
#      x y z
#    x 4.131100 0.000000 0.000000 
#    y 0.000000 3.184030 0.000000 
#    z 0.000000 0.000000 4.241340 
# 
# 
# High freq. dielectric constant tensor:
#      x y z
#    x 1.837210 0.000000 0.000000 
#    y 0.000000 1.755630 0.000000 
#    z 0.000000 0.000000 1.828050 
# 
# From -- ./inp_files/20884.got.cif
#   From: 2010.03.12/outbox.cif.g09.slc.cpg/sg68_11_cif.got.tgz:20884.got - 2010.04.10 23:14:56.
