data_PCOD8282305
_publ_section_title
;
Structure prediction by ZEFSAII (Michael W. Deem and Ramdas Pophale) SiO2 
 PCOD8282305
Probable space group: C C C A
;
_chemical_formula_sum "Si O2"
_cell_formula_units_Z 72
_cell_length_a 14.059329
_cell_length_b 26.337098
_cell_length_c 8.508019
_cell_angle_alpha 90.000000
_cell_angle_beta 90.000000
_cell_angle_gamma 90.000000
_cell_volume 3150.365659
_symmetry_space_group_name_H-M "C C C A"
_symmetry_group_IT_number 68
_space_group.IT_coordinate_system_code '2'
_symmetry_cell_setting 'orthorhombic'
loop_
_space_group_symop_operation_xyz
x,y,z
-x,1/2-y,z
x,1/2-y,1/2-z
-x,y,1/2-z
-x,-y,-z
x,1/2+y,-z
-x,1/2+y,1/2+z
x,-y,1/2+z
1/2+x,1/2+y,z
1/2-x,-y,z
1/2+x,-y,1/2-z
1/2-x,1/2+y,1/2-z
1/2-x,1/2-y,-z
1/2+x,y,-z
1/2-x,y,1/2+z
1/2+x,1/2-y,1/2+z
loop_
_atom_site_type_symbol
_atom_site_label
_atom_site_fract_x
_atom_site_fract_y
_atom_site_fract_z
Si Si1 0.823860 0.929123 0.554766
Si Si2 0.325524 0.344927 0.078836
Si Si3 0.681624 0.207030 0.381985
Si Si4 0.750000 0.500000 0.189931
Si Si5 0.026518 0.157597 0.426974
O O1 0.732001 0.893820 0.524314
O O2 0.827277 0.968897 0.412187
O O3 0.918405 0.895732 0.569943
O O4 0.814104 0.961302 0.712496
O O5 0.316000 0.342601 0.268055
O O6 0.278452 0.294529 0.989553
O O7 0.434204 0.349168 0.032404
O O8 0.670152 0.250000 0.250000
O O9 0.591223 0.202624 0.498588
O O10 0.000000 0.173508 0.250000
#
# Coordination Sequence:
#
# PCOD8282305 Si02
#       5
#    16  16  16   8  16
#     4  10  21  40  61  91 127 169 217 267 325 386
#     4  11  22  41  66  91 129 175 212 265 331 386
#     4  11  24  43  67  98 131 169 218 267 317 383
#     4  10  20  38  64  88 126 170 216 274 324 378
#     4  11  23  41  65  94 130 173 218 266 324 389
#
# _framework density 22.854489999999998
#
# number of rings (size 3 to 8) (size 9 to 14) (size 15 to 20)
#    0.000    1.333    0.000    8.000    0.000    1.778 
#    0.000   13.333    0.000    1.333    0.000    0.000 
#    0.000    0.000    0.000    0.000    0.000    0.000 
#
# Total GULP energy -446372.653773 kJ/mol
# GULP energy per Si atom -12399.240383 kJ/mol
# Density = 2.280247 g / cm^3
# Si number density = 22.854490 Si / 1000 Ang^3
#
#
#
# Elastic Constant Matrix: (Units=GPa)
#
#
# Indices 1 2 3 4 5 6 
#
# 1 158.4759 24.9839 52.7261 0.0000 0.0000 0.0000
# 2 24.9839 76.2882 20.2630 0.0000 0.0000 0.0000
# 3 52.7261 20.2630 151.3681 0.0000 0.0000 0.0000
# 4 0.0000 0.0000 0.0000 -19.3061 0.0000 0.0000
# 5 0.0000 0.0000 0.0000 0.0000 41.2129 0.0000
# 6 0.0000 0.0000 0.0000 0.0000 0.0000 24.4047
#
#
#
# Elastic Compliance Matrix: (Units=1/GPa)
#
#
# Indices 1 2 3 4 5 6 
#
# 1 0.007367 -0.001795 -0.002326 0.000000 0.000000 0.000000
# 2 -0.001795 0.014029 -0.001253 0.000000 0.000000 0.000000
# 3 -0.002326 -0.001253 0.007584 0.000000 0.000000 0.000000
# 4 0.000000 0.000000 0.000000 -0.051797 0.000000 0.000000
# 5 0.000000 0.000000 0.000000 0.000000 0.024264 0.000000
# 6 0.000000 0.000000 0.000000 0.000000 0.000000 0.040976
#
#
# Mechanical properties :
#
#
# Convention : Reuss Voigt Hill
#
# Bulk Modulus (GPa) = 54.84563 64.67535 59.76049
# Shear Modulus (GPa) = 84.39200 28.47291 56.43246
#
# Velocity S-wave (km/s) = 6.08325 3.53347 4.97450
# Velocity P-wave (km/s) = 8.56686 6.70875 7.69410
#
# Compressibility (1/GPa) = 0.01823299
#
# Stress axis : x y z
#
# Youngs Moduli (GPa) = 135.74242 71.28225 131.85175
#
# Poissons Ratio (x) = 0.12794 0.30667
# Poissons Ratio (y) = 0.24364 0.16518
# Poissons Ratio (z) = 0.31572 0.08930
#
# Static dielectric constant tensor:
#      x y z
#    x 3.841820 0.000000 0.000000 
#    y 0.000000 4.723800 0.000000 
#    z 0.000000 0.000000 4.713320 
# 
# 
# High freq. dielectric constant tensor:
#      x y z
#    x 1.880980 0.000000 0.000000 
#    y 0.000000 1.910550 0.000000 
#    z 0.000000 0.000000 1.936450 
# 
# From -- ./inp_files/5232.got.cif
#   From: 2010.03.12/outbox.cif.g09.slc.cpg/sg68_3_cif.got.tgz:5232.got - 2010.04.10 23:14:56.
