data_PCOD8282624
_publ_section_title
;
Structure prediction by ZEFSAII (Michael W. Deem and Ramdas Pophale) SiO2 
 PCOD8282624
Probable space group: C C C A
;
_chemical_formula_sum "Si O2"
_cell_formula_units_Z 68
_cell_length_a 11.822541
_cell_length_b 13.280699
_cell_length_c 22.066949
_cell_angle_alpha 90.000000
_cell_angle_beta 90.000000
_cell_angle_gamma 90.000000
_cell_volume 3464.767156
_symmetry_space_group_name_H-M "C C C A"
_symmetry_group_IT_number 68
_space_group.IT_coordinate_system_code '2'
_symmetry_cell_setting 'orthorhombic'
loop_
_space_group_symop_operation_xyz
x,y,z
-x,1/2-y,z
x,1/2-y,1/2-z
-x,y,1/2-z
-x,-y,-z
x,1/2+y,-z
-x,1/2+y,1/2+z
x,-y,1/2+z
1/2+x,1/2+y,z
1/2-x,-y,z
1/2+x,-y,1/2-z
1/2-x,1/2+y,1/2-z
1/2-x,1/2-y,-z
1/2+x,y,-z
1/2-x,y,1/2+z
1/2+x,1/2-y,1/2+z
loop_
_atom_site_type_symbol
_atom_site_label
_atom_site_fract_x
_atom_site_fract_y
_atom_site_fract_z
Si Si1 0.500000 0.750000 0.750000
Si Si2 0.150374 0.652895 0.596652
Si Si3 0.750000 0.500000 0.691293
Si Si4 0.289513 0.158127 0.284462
Si Si5 0.111888 0.384901 0.406588
Si Si6 0.750000 0.500000 0.997178
O O1 0.581109 0.808120 0.701492
O O2 0.219436 0.623207 0.657179
O O3 0.160250 0.772129 0.584288
O O4 0.205006 0.593162 0.541485
O O5 0.021967 0.616981 0.602669
O O6 0.682909 0.572213 0.736013
O O7 0.837816 0.565286 0.653175
O O8 0.223213 0.250000 0.250000
O O9 0.147481 0.455140 0.462880
#
# Coordination Sequence:
#
# PCOD8282624 Si02
#       6
#     4  16   8  16  16   8
#     4   8  20  40  56  86 130 156 196 252 312 372
#     4  11  22  42  63  93 124 159 212 256 309 368
#     4  11  21  40  62  88 127 165 204 252 308 381
#     4  10  21  39  61  91 123 157 207 245 311 377
#     4  10  23  41  62  88 126 166 203 259 312 354
#     4  11  23  40  64  90 121 165 212 254 304 369
#
# _framework density 19.626138999999998
#
# number of rings (size 3 to 8) (size 9 to 14) (size 15 to 20)
#    0.706    0.941    2.353    2.118    0.000    4.706 
#    0.000    4.706    0.000    0.000    0.000    0.000 
#    0.000    0.000    0.000    0.000    0.000    0.000 
#
# Total GULP energy -421232.097081 kJ/mol
# GULP energy per Si atom -12389.179326 kJ/mol
# Density = 1.958147 g / cm^3
# Si number density = 19.626139 Si / 1000 Ang^3
#
#
#
# Elastic Constant Matrix: (Units=GPa)
#
#
# Indices 1 2 3 4 5 6 
#
# 1 136.8404 55.7048 74.1179 0.0000 0.0000 0.0000
# 2 55.7048 123.3591 67.8442 0.0000 0.0000 0.0000
# 3 74.1179 67.8442 138.3349 0.0000 0.0000 0.0000
# 4 0.0000 0.0000 0.0000 42.4937 0.0000 0.0000
# 5 0.0000 0.0000 0.0000 0.0000 29.3207 0.0000
# 6 0.0000 0.0000 0.0000 0.0000 0.0000 28.5654
#
#
#
# Elastic Compliance Matrix: (Units=1/GPa)
#
#
# Indices 1 2 3 4 5 6 
#
# 1 0.010756 -0.002311 -0.004630 0.000000 0.000000 0.000000
# 2 -0.002311 0.011597 -0.004449 0.000000 0.000000 0.000000
# 3 -0.004630 -0.004449 0.011891 0.000000 0.000000 0.000000
# 4 0.000000 0.000000 0.000000 0.023533 0.000000 0.000000
# 5 0.000000 0.000000 0.000000 0.000000 0.034106 0.000000
# 6 0.000000 0.000000 0.000000 0.000000 0.000000 0.035007
#
#
# Mechanical properties :
#
#
# Convention : Reuss Voigt Hill
#
# Bulk Modulus (GPa) = 87.22449 88.20757 87.71603
# Shear Modulus (GPa) = 32.57502 33.46712 33.02107
#
# Velocity S-wave (km/s) = 4.07846 4.13393 4.10628
# Velocity P-wave (km/s) = 8.16810 8.23573 8.20199
#
# Compressibility (1/GPa) = 0.01146467
#
# Stress axis : x y z
#
# Youngs Moduli (GPa) = 92.97072 86.22912 84.09413
#
# Poissons Ratio (x) = 0.19927 0.38932
# Poissons Ratio (y) = 0.21485 0.37417
# Poissons Ratio (z) = 0.43042 0.38367
#
# Static dielectric constant tensor:
#      x y z
#    x 3.416640 0.000000 0.000000 
#    y 0.000000 4.225430 0.000000 
#    z 0.000000 0.000000 3.517010 
# 
# 
# High freq. dielectric constant tensor:
#      x y z
#    x 1.757540 0.000000 0.000000 
#    y 0.000000 1.786120 0.000000 
#    z 0.000000 0.000000 1.758590 
# 
# From -- ./inp_files/37249.got.cif
#   From: 2010.03.12/outbox.cif.g09.slc.cpg/sg68_19_cif.got.tgz:37249.got - 2010.04.10 23:14:56.
