data_PCOD8282170
_publ_section_title
;
Structure prediction by ZEFSAII (Michael W. Deem and Ramdas Pophale) SiO2 
 PCOD8282170
Probable space group: C C C A
;
_chemical_formula_sum "Si O2"
_cell_formula_units_Z 76
_cell_length_a 5.078484
_cell_length_b 28.983109
_cell_length_c 31.589919
_cell_angle_alpha 90.000000
_cell_angle_beta 90.000000
_cell_angle_gamma 90.000000
_cell_volume 4649.728243
_symmetry_space_group_name_H-M "C C C A"
_symmetry_group_IT_number 68
_space_group.IT_coordinate_system_code '2'
_symmetry_cell_setting 'orthorhombic'
loop_
_space_group_symop_operation_xyz
x,y,z
-x,1/2-y,z
x,1/2-y,1/2-z
-x,y,1/2-z
-x,-y,-z
x,1/2+y,-z
-x,1/2+y,1/2+z
x,-y,1/2+z
1/2+x,1/2+y,z
1/2-x,-y,z
1/2+x,-y,1/2-z
1/2-x,1/2+y,1/2-z
1/2-x,1/2-y,-z
1/2+x,y,-z
1/2-x,y,1/2+z
1/2+x,1/2-y,1/2+z
loop_
_atom_site_type_symbol
_atom_site_label
_atom_site_fract_x
_atom_site_fract_y
_atom_site_fract_z
Si Si1 0.657550 0.084072 0.832322
Si Si2 0.228650 0.445323 0.523716
Si Si3 0.830533 0.446925 0.880180
Si Si4 0.738969 0.661992 0.723838
Si Si5 0.500000 0.471201 0.750000
Si Si6 0.000000 0.250000 0.750000
O O1 0.385463 0.084942 0.857704
O O2 0.737490 0.137173 0.821822
O O3 0.619526 0.058613 0.787845
O O4 0.883138 0.059290 0.859603
O O5 0.250000 0.500000 0.520462
O O6 0.505503 0.424951 0.507566
O O7 0.159519 0.430484 0.571319
O O8 0.750000 0.500000 0.875872
O O9 0.500000 0.638251 0.750000
O O10 0.678690 0.717127 0.719553
O O11 0.000000 0.653423 0.750000
O O12 0.750000 0.500000 0.767924
#
# Coordination Sequence:
#
# PCOD8282170 Si02
#       6
#    16  16  16  16   8   4
#     4  12  22  34  47  68  98 132 167 212 244 283
#     4   9  17  31  50  67  88 122 166 209 249 292
#     4  11  22  34  47  71 100 133 172 210 248 283
#     4  10  20  36  52  69  92 121 168 202 248 293
#     4  12  24  33  46  61  92 139 184 205 226 268
#     4   8  22  34  58  72  86 120 174 202 250 300
#
# _framework density 16.345040999999998
#
# number of rings (size 3 to 8) (size 9 to 14) (size 15 to 20)
#    0.632    0.842    1.053    6.632    1.474    3.368 
#    0.000    0.000    0.000    0.000    0.000    0.000 
#    0.000    0.000    0.000   18.947    0.000    0.000 
#
# Total GULP energy -471011.016037 kJ/mol
# GULP energy per Si atom -12395.026738 kJ/mol
# Density = 1.630784 g / cm^3
# Si number density = 16.345041 Si / 1000 Ang^3
#
#
#
# Elastic Constant Matrix: (Units=GPa)
#
#
# Indices 1 2 3 4 5 6 
#
# 1 112.1223 9.5178 41.9106 0.0000 0.0000 0.0000
# 2 9.5178 59.0122 24.6868 0.0000 0.0000 0.0000
# 3 41.9106 24.6868 107.4343 0.0000 0.0000 0.0000
# 4 0.0000 0.0000 0.0000 8.9287 0.0000 0.0000
# 5 0.0000 0.0000 0.0000 0.0000 33.0335 0.0000
# 6 0.0000 0.0000 0.0000 0.0000 0.0000 -140.9222
#
#
#
# Elastic Compliance Matrix: (Units=1/GPa)
#
#
# Indices 1 2 3 4 5 6 
#
# 1 0.010441 0.000022 -0.004078 0.000000 0.000000 0.000000
# 2 0.000022 0.018748 -0.004317 0.000000 0.000000 0.000000
# 3 -0.004078 -0.004317 0.011891 0.000000 0.000000 0.000000
# 4 0.000000 0.000000 0.000000 0.111998 0.000000 0.000000
# 5 0.000000 0.000000 0.000000 0.000000 0.030272 0.000000
# 6 0.000000 0.000000 0.000000 0.000000 0.000000 -0.007096
#
#
# Mechanical properties :
#
#
# Convention : Reuss Voigt Hill
#
# Bulk Modulus (GPa) = 41.09400 47.86659 44.48029
# Shear Modulus (GPa) = 24.86186 -6.29508 9.28339
#
# Velocity S-wave (km/s) = 3.90431 -1.96462 2.38578
# Velocity P-wave (km/s) = 6.74693 4.91959 5.90438
#
# Compressibility (1/GPa) = 0.02433445
#
# Stress axis : x y z
#
# Youngs Moduli (GPa) = 95.77253 53.33940 84.09822
#
# Poissons Ratio (x) = -0.00118 0.34298
# Poissons Ratio (y) = -0.00211 0.36302
# Poissons Ratio (z) = 0.39059 0.23024
#
# Static dielectric constant tensor:
#      x y z
#    x 3.365650 0.000000 0.000000 
#    y 0.000000 2.845980 0.000000 
#    z 0.000000 0.000000 3.330060 
# 
# 
# High freq. dielectric constant tensor:
#      x y z
#    x 1.659310 0.000000 0.000000 
#    y 0.000000 1.575590 0.000000 
#    z 0.000000 0.000000 1.614100 
# 
# From -- ./inp_files/53430.got.cif
#   From: 2010.03.12/outbox.cif.g09.slc.cpg/sg68_27_cif.got.tgz:53430.got - 2010.04.10 23:14:56.
