data_PCOD8282086
_publ_section_title
;
Structure prediction by ZEFSAII (Michael W. Deem and Ramdas Pophale) SiO2 
 PCOD8282086
Probable space group: C C C A
;
_chemical_formula_sum "Si O2"
_cell_formula_units_Z 120
_cell_length_a 20.267553
_cell_length_b 20.317339
_cell_length_c 14.377995
_cell_angle_alpha 90.000000
_cell_angle_beta 90.000000
_cell_angle_gamma 90.000000
_cell_volume 5920.610249
_symmetry_space_group_name_H-M "C C C A"
_symmetry_group_IT_number 68
_space_group.IT_coordinate_system_code '2'
_symmetry_cell_setting 'orthorhombic'
loop_
_space_group_symop_operation_xyz
x,y,z
-x,1/2-y,z
x,1/2-y,1/2-z
-x,y,1/2-z
-x,-y,-z
x,1/2+y,-z
-x,1/2+y,1/2+z
x,-y,1/2+z
1/2+x,1/2+y,z
1/2-x,-y,z
1/2+x,-y,1/2-z
1/2-x,1/2+y,1/2-z
1/2-x,1/2-y,-z
1/2+x,y,-z
1/2-x,y,1/2+z
1/2+x,1/2-y,1/2+z
loop_
_atom_site_type_symbol
_atom_site_label
_atom_site_fract_x
_atom_site_fract_y
_atom_site_fract_z
Si Si1 0.101719 0.573656 0.141852
Si Si2 0.444825 0.431266 0.675081
Si Si3 0.222561 0.840333 0.427410
Si Si4 0.135019 0.588036 0.349720
Si Si5 0.250000 0.000000 0.190758
Si Si6 0.814107 0.624901 0.779103
Si Si7 0.262716 0.804532 0.628550
Si Si8 0.515348 0.924736 0.982689
O O1 0.095979 0.494131 0.134743
O O2 0.168394 0.605081 0.100563
O O3 0.096577 0.586171 0.251818
O O4 0.042162 0.606693 0.081943
O O5 0.500000 0.452746 0.750000
O O6 0.393168 0.382264 0.725197
O O7 0.478910 0.393762 0.586881
O O8 0.293364 0.861732 0.385882
O O9 0.226222 0.833352 0.537649
O O10 0.210267 0.769255 0.380660
O O11 0.188251 0.528945 0.367419
O O12 0.170395 0.657608 0.351107
O O13 0.084618 0.583372 0.432929
O O14 0.276720 0.941769 0.253699
O O15 0.790187 0.684183 0.711554
O O16 0.500000 0.000000 0.000000
#
# Coordination Sequence:
#
# PCOD8282086 Si02
#       8
#    16  16  16  16   8  16  16  16
#     4  11  21  36  62  85 126 162 203 253 304 375
#     4  11  23  38  59  92 134 164 202 245 314 392
#     4  11  22  41  60  91 117 160 217 257 309 356
#     4  11  20  39  58  89 125 157 205 253 312 365
#     4  10  20  32  60  94 120 158 194 248 310 390
#     4  11  20  37  63  87 124 160 196 258 314 364
#     4  10  24  38  64  87 119 159 209 268 303 361
#     4  10  23  36  57  87 123 173 196 245 304 371
#
# _framework density 20.268180000000001
#
# number of rings (size 3 to 8) (size 9 to 14) (size 15 to 20)
#    0.000    1.333    4.000    3.200    1.867    3.200 
#    0.000    4.000    0.000    4.800    0.000    0.000 
#    0.000    0.000    0.000    0.000    0.000    0.000 
#
# Total GULP energy -743456.163424 kJ/mol
# GULP energy per Si atom -12390.936057 kJ/mol
# Density = 2.022205 g / cm^3
# Si number density = 20.268180 Si / 1000 Ang^3
#
#
#
# Elastic Constant Matrix: (Units=GPa)
#
#
# Indices 1 2 3 4 5 6 
#
# 1 114.5705 26.5037 58.3569 0.0000 0.0000 0.0000
# 2 26.5037 47.2065 17.4318 0.0000 0.0000 0.0000
# 3 58.3569 17.4318 111.4758 0.0000 0.0000 0.0000
# 4 0.0000 0.0000 0.0000 23.0678 0.0000 0.0000
# 5 0.0000 0.0000 0.0000 0.0000 39.5859 0.0000
# 6 0.0000 0.0000 0.0000 0.0000 0.0000 18.3084
#
#
#
# Elastic Compliance Matrix: (Units=1/GPa)
#
#
# Indices 1 2 3 4 5 6 
#
# 1 0.012948 -0.005059 -0.005987 0.000000 0.000000 0.000000
# 2 -0.005059 0.024458 -0.001176 0.000000 0.000000 0.000000
# 3 -0.005987 -0.001176 0.012289 0.000000 0.000000 0.000000
# 4 0.000000 0.000000 0.000000 0.043350 0.000000 0.000000
# 5 0.000000 0.000000 0.000000 0.000000 0.025262 0.000000
# 6 0.000000 0.000000 0.000000 0.000000 0.000000 0.054620
#
#
# Mechanical properties :
#
#
# Convention : Reuss Voigt Hill
#
# Bulk Modulus (GPa) = 39.60339 53.09306 46.34822
# Shear Modulus (GPa) = 24.29685 27.58978 25.94331
#
# Velocity S-wave (km/s) = 3.46608 3.69350 3.58159
# Velocity P-wave (km/s) = 5.96661 6.66644 6.32621
#
# Compressibility (1/GPa) = 0.02525037
#
# Stress axis : x y z
#
# Youngs Moduli (GPa) = 77.23150 40.88626 81.37514
#
# Poissons Ratio (x) = 0.20683 0.48721
# Poissons Ratio (y) = 0.39069 0.09573
# Poissons Ratio (z) = 0.46240 0.04810
#
# Static dielectric constant tensor:
#      x y z
#    x 3.941450 0.000000 0.000000 
#    y 0.000000 3.587240 0.000000 
#    z 0.000000 0.000000 3.926610 
# 
# 
# High freq. dielectric constant tensor:
#      x y z
#    x 1.788960 0.000000 0.000000 
#    y 0.000000 1.762780 0.000000 
#    z 0.000000 0.000000 1.808960 
# 
# From -- ./inp_files/24820.got.cif
#   From: 2010.03.12/outbox.cif.g09.slc.cpg/sg68_13_cif.got.tgz:24820.got - 2010.04.10 23:14:56.
