data_PCOD8282004
_publ_section_title
;
Structure prediction by ZEFSAII (Michael W. Deem and Ramdas Pophale) SiO2 
 PCOD8282004
Probable space group: C C C A
;
_chemical_formula_sum "Si O2"
_cell_formula_units_Z 100
_cell_length_a 18.282155
_cell_length_b 13.777477
_cell_length_c 20.752754
_cell_angle_alpha 90.000000
_cell_angle_beta 90.000000
_cell_angle_gamma 90.000000
_cell_volume 5227.244561
_symmetry_space_group_name_H-M "C C C A"
_symmetry_group_IT_number 68
_space_group.IT_coordinate_system_code '2'
_symmetry_cell_setting 'orthorhombic'
loop_
_space_group_symop_operation_xyz
x,y,z
-x,1/2-y,z
x,1/2-y,1/2-z
-x,y,1/2-z
-x,-y,-z
x,1/2+y,-z
-x,1/2+y,1/2+z
x,-y,1/2+z
1/2+x,1/2+y,z
1/2-x,-y,z
1/2+x,-y,1/2-z
1/2-x,1/2+y,1/2-z
1/2-x,1/2-y,-z
1/2+x,y,-z
1/2-x,y,1/2+z
1/2+x,1/2-y,1/2+z
loop_
_atom_site_type_symbol
_atom_site_label
_atom_site_fract_x
_atom_site_fract_y
_atom_site_fract_z
Si Si1 0.829364 0.541532 0.381990
Si Si2 0.312547 0.631272 0.934799
Si Si3 0.000000 0.250000 0.250000
Si Si4 0.887407 0.650313 0.842431
Si Si5 0.581209 0.741368 0.473554
Si Si6 0.657824 0.071752 0.975331
Si Si7 0.272747 0.731788 0.676483
O O1 0.750000 0.500000 0.396550
O O2 0.873332 0.465439 0.336873
O O3 0.867883 0.551288 0.451474
O O4 0.824451 0.644201 0.346393
O O5 0.349954 0.524446 0.930617
O O6 0.239757 0.615973 0.977196
O O7 0.292209 0.671560 0.864269
O O8 0.364743 0.707875 0.969896
O O9 0.949399 0.180034 0.207721
O O10 0.916563 0.667640 0.914350
O O11 0.813050 0.709908 0.830620
O O12 0.500000 0.750000 0.502307
O O13 0.604555 0.846882 0.446447
O O14 0.292987 0.750000 0.750000
#
# Coordination Sequence:
#
# PCOD8282004 Si02
#       7
#    16  16   4  16  16  16  16
#     4  10  19  36  65  89 116 155 203 258 309 355
#     4  11  21  38  64  91 122 160 207 270 313 358
#     4  12  24  44  60  88 138 172 196 248 312 396
#     4  11  22  40  61  91 124 167 205 248 313 375
#     4  12  23  37  61  91 128 162 200 258 324 374
#     4  11  20  37  65  94 121 151 209 268 315 358
#     4  11  22  40  63  90 124 162 211 260 306 367
#
# _framework density 19.130538000000001
#
# number of rings (size 3 to 8) (size 9 to 14) (size 15 to 20)
#    0.000    0.960    8.000    1.440    0.000    0.640 
#   11.520    0.000    0.000    0.480    0.000    0.000 
#    0.000    0.000    0.000    0.000    0.000    0.000 
#
# Total GULP energy -620036.763330 kJ/mol
# GULP energy per Si atom -12400.735267 kJ/mol
# Density = 1.908700 g / cm^3
# Si number density = 19.130538 Si / 1000 Ang^3
#
#
#
# Elastic Constant Matrix: (Units=GPa)
#
#
# Indices 1 2 3 4 5 6 
#
# 1 76.6252 53.2419 31.6981 0.0000 0.0000 0.0000
# 2 53.2419 136.8959 43.5111 0.0000 0.0000 0.0000
# 3 31.6981 43.5111 114.5561 0.0000 0.0000 0.0000
# 4 0.0000 0.0000 0.0000 24.0194 0.0000 0.0000
# 5 0.0000 0.0000 0.0000 0.0000 18.6527 0.0000
# 6 0.0000 0.0000 0.0000 0.0000 0.0000 19.0183
#
#
#
# Elastic Compliance Matrix: (Units=1/GPa)
#
#
# Indices 1 2 3 4 5 6 
#
# 1 0.018604 -0.006368 -0.002729 0.000000 0.000000 0.000000
# 2 -0.006368 0.010488 -0.002221 0.000000 0.000000 0.000000
# 3 -0.002729 -0.002221 0.010328 0.000000 0.000000 0.000000
# 4 0.000000 0.000000 0.000000 0.041633 0.000000 0.000000
# 5 0.000000 0.000000 0.000000 0.000000 0.053612 0.000000
# 6 0.000000 0.000000 0.000000 0.000000 0.000000 0.052581
#
#
# Mechanical properties :
#
#
# Convention : Reuss Voigt Hill
#
# Bulk Modulus (GPa) = 59.58454 64.99771 62.29112
# Shear Modulus (GPa) = 23.20429 25.64647 24.42538
#
# Velocity S-wave (km/s) = 3.48651 3.66540 3.57707
# Velocity P-wave (km/s) = 6.88634 7.20855 7.04928
#
# Compressibility (1/GPa) = 0.01678288
#
# Stress axis : x y z
#
# Youngs Moduli (GPa) = 53.75074 95.35064 96.82219
#
# Poissons Ratio (x) = 0.60722 0.26424
# Poissons Ratio (y) = 0.34230 0.21507
# Poissons Ratio (z) = 0.14669 0.21180
#
# Static dielectric constant tensor:
#      x y z
#    x 3.350750 0.000000 0.000000 
#    y 0.000000 3.874430 0.000000 
#    z 0.000000 0.000000 3.269630 
# 
# 
# High freq. dielectric constant tensor:
#      x y z
#    x 1.720180 0.000000 0.000000 
#    y 0.000000 1.759520 0.000000 
#    z 0.000000 0.000000 1.723470 
# 
# From -- ./inp_files/39641.got.cif
#   From: 2010.03.12/outbox.cif.g09.slc.cpg/sg68_20_cif.got.tgz:39641.got - 2010.04.10 23:14:56.
