data_PCOD8282022
_publ_section_title
;
Structure prediction by ZEFSAII (Michael W. Deem and Ramdas Pophale) SiO2 
 PCOD8282022
Probable space group: C C C A
;
_chemical_formula_sum "Si O2"
_cell_formula_units_Z 96
_cell_length_a 16.272344
_cell_length_b 16.214267
_cell_length_c 15.830264
_cell_angle_alpha 90.000000
_cell_angle_beta 90.000000
_cell_angle_gamma 90.000000
_cell_volume 4176.722238
_symmetry_space_group_name_H-M "C C C A"
_symmetry_group_IT_number 68
_space_group.IT_coordinate_system_code '2'
_symmetry_cell_setting 'orthorhombic'
loop_
_space_group_symop_operation_xyz
x,y,z
-x,1/2-y,z
x,1/2-y,1/2-z
-x,y,1/2-z
-x,-y,-z
x,1/2+y,-z
-x,1/2+y,1/2+z
x,-y,1/2+z
1/2+x,1/2+y,z
1/2-x,-y,z
1/2+x,-y,1/2-z
1/2-x,1/2+y,1/2-z
1/2-x,1/2-y,-z
1/2+x,y,-z
1/2-x,y,1/2+z
1/2+x,1/2-y,1/2+z
loop_
_atom_site_type_symbol
_atom_site_label
_atom_site_fract_x
_atom_site_fract_y
_atom_site_fract_z
Si Si1 0.500000 0.750000 0.044918
Si Si2 0.344471 0.512010 0.477471
Si Si3 0.185725 0.279205 0.614903
Si Si4 0.940174 0.641595 0.092409
Si Si5 0.500000 0.441103 0.250000
Si Si6 0.661344 0.042573 0.165930
Si Si7 0.163216 0.315245 0.421940
O O1 0.504452 0.832662 0.987532
O O2 0.582014 0.738907 0.100032
O O3 0.250000 0.500000 0.492104
O O4 0.380386 0.431154 0.435087
O O5 0.378024 0.523438 0.573265
O O6 0.357762 0.587759 0.411351
O O7 0.107355 0.221404 0.626353
O O8 0.178965 0.358836 0.675538
O O9 0.193131 0.309110 0.518715
O O10 0.266098 0.223241 0.637514
O O11 0.999441 0.614183 0.166543
O O12 0.410756 0.486912 0.234026
O O13 0.750000 0.000000 0.185082
#
# Coordination Sequence:
#
# PCOD8282022 Si02
#       7
#     8  16  16  16   8  16  16
#     4  10  22  31  54  92 124 163 208 260 320 373
#     4  10  19  37  65  95 122 159 212 268 319 373
#     4   9  18  35  61  89 125 155 205 261 321 373
#     4  11  22  38  62  92 125 159 212 269 317 376
#     4  12  26  43  62  90 133 172 208 264 313 394
#     4  10  24  41  63  94 130 170 210 260 328 381
#     4   9  17  32  53  91 124 155 193 260 316 374
#
# _framework density 22.984529999999999
#
# number of rings (size 3 to 8) (size 9 to 14) (size 15 to 20)
#    0.000    2.000    1.667    3.000    7.000    6.333 
#    0.000    0.000    0.000    0.000    0.000    1.167 
#    0.000    0.000    0.000    0.000    0.000    0.000 
#
# Total GULP energy -594697.298719 kJ/mol
# GULP energy per Si atom -12389.527057 kJ/mol
# Density = 2.293222 g / cm^3
# Si number density = 22.984530 Si / 1000 Ang^3
#
#
#
# Elastic Constant Matrix: (Units=GPa)
#
#
# Indices 1 2 3 4 5 6 
#
# 1 109.1159 20.9695 13.6791 0.0000 0.0000 0.0000
# 2 20.9695 108.1873 10.8590 0.0000 0.0000 0.0000
# 3 13.6791 10.8590 30.0372 0.0000 0.0000 0.0000
# 4 0.0000 0.0000 0.0000 7.6771 0.0000 0.0000
# 5 0.0000 0.0000 0.0000 0.0000 -5.1665 0.0000
# 6 0.0000 0.0000 0.0000 0.0000 0.0000 33.0000
#
#
#
# Elastic Compliance Matrix: (Units=1/GPa)
#
#
# Indices 1 2 3 4 5 6 
#
# 1 0.009958 -0.001530 -0.003982 0.000000 0.000000 0.000000
# 2 -0.001530 0.009826 -0.002855 0.000000 0.000000 0.000000
# 3 -0.003982 -0.002855 0.036138 0.000000 0.000000 0.000000
# 4 0.000000 0.000000 0.000000 0.130258 0.000000 0.000000
# 5 0.000000 0.000000 0.000000 0.000000 -0.193554 0.000000
# 6 0.000000 0.000000 0.000000 0.000000 0.000000 0.030303
#
#
# Mechanical properties :
#
#
# Convention : Reuss Voigt Hill
#
# Bulk Modulus (GPa) = 25.51874 37.59508 31.55691
# Shear Modulus (GPa) = 94.83037 20.55763 57.69400
#
# Velocity S-wave (km/s) = 6.43023 2.99392 5.01555
# Velocity P-wave (km/s) = 8.13985 5.32387 6.87753
#
# Compressibility (1/GPa) = 0.03918689
#
# Stress axis : x y z
#
# Youngs Moduli (GPa) = 100.42351 101.76582 27.67200
#
# Poissons Ratio (x) = 0.15575 0.11018
# Poissons Ratio (y) = 0.15369 0.07902
# Poissons Ratio (z) = 0.39984 0.29059
#
# Static dielectric constant tensor:
#      x y z
#    x 4.275060 0.000000 0.000000 
#    y 0.000000 4.245370 0.000000 
#    z 0.000000 0.000000 3.688050 
# 
# 
# High freq. dielectric constant tensor:
#      x y z
#    x 1.929680 0.000000 0.000000 
#    y 0.000000 1.905320 0.000000 
#    z 0.000000 0.000000 1.845800 
# 
# From -- ./inp_files/32065.got.cif
#   From: 2010.03.12/outbox.cif.g09.slc.cpg/sg68_17_cif.got.tgz:32065.got - 2010.04.10 23:14:56.
