data_PCOD8282721
_publ_section_title
;
Structure prediction by ZEFSAII (Michael W. Deem and Ramdas Pophale) SiO2 
 PCOD8282721
Probable space group: C C C A
;
_chemical_formula_sum "Si O2"
_cell_formula_units_Z 36
_cell_length_a 12.412363
_cell_length_b 22.062585
_cell_length_c 5.201375
_cell_angle_alpha 90.000000
_cell_angle_beta 90.000000
_cell_angle_gamma 90.000000
_cell_volume 1424.390374
_symmetry_space_group_name_H-M "C C C A"
_symmetry_group_IT_number 68
_space_group.IT_coordinate_system_code '2'
_symmetry_cell_setting 'orthorhombic'
loop_
_space_group_symop_operation_xyz
x,y,z
-x,1/2-y,z
x,1/2-y,1/2-z
-x,y,1/2-z
-x,-y,-z
x,1/2+y,-z
-x,1/2+y,1/2+z
x,-y,1/2+z
1/2+x,1/2+y,z
1/2-x,-y,z
1/2+x,-y,1/2-z
1/2-x,1/2+y,1/2-z
1/2-x,1/2-y,-z
1/2+x,y,-z
1/2-x,y,1/2+z
1/2+x,1/2-y,1/2+z
loop_
_atom_site_type_symbol
_atom_site_label
_atom_site_fract_x
_atom_site_fract_y
_atom_site_fract_z
Si Si1 0.118746 0.973102 0.019393
Si Si2 0.500000 0.750000 0.750000
Si Si3 0.676847 0.163798 0.436470
O O1 0.177601 0.990715 0.752416
O O2 0.122245 0.901922 0.068938
O O3 0.000000 0.000000 0.000000
O O4 0.423612 0.790320 0.566609
O O5 0.746874 0.174570 0.690812
#
# Coordination Sequence:
#
# PCOD8282721 Si02
#       3
#    16   4  16
#     4  10  21  41  69 104 142 183 227 284 361 431
#     4  12  28  54  76 100 148 198 252 312 368 424
#     4  12  28  48  75 110 146 193 250 305 365 440
#
# _framework density 25.273971
#
# number of rings (size 3 to 8) (size 9 to 14) (size 15 to 20)
#    0.000    0.889    0.000    6.667    0.000   12.444 
#    0.000    0.000    0.000    0.000    0.000    0.000 
#    0.000    0.000    0.000    0.000    0.000    0.000 
#
# Total GULP energy -223066.088063 kJ/mol
# GULP energy per Si atom -12392.560448 kJ/mol
# Density = 2.521645 g / cm^3
# Si number density = 25.273971 Si / 1000 Ang^3
#
#
#
# Elastic Constant Matrix: (Units=GPa)
#
#
# Indices 1 2 3 4 5 6 
#
# 1 197.5490 91.8250 35.4840 0.0000 0.0000 0.0000
# 2 91.8250 208.3283 63.9731 0.0000 0.0000 0.0000
# 3 35.4840 63.9731 246.2340 0.0000 0.0000 0.0000
# 4 0.0000 0.0000 0.0000 23.4761 0.0000 0.0000
# 5 0.0000 0.0000 0.0000 0.0000 -322.8874 0.0000
# 6 0.0000 0.0000 0.0000 0.0000 0.0000 54.2744
#
#
#
# Elastic Compliance Matrix: (Units=1/GPa)
#
#
# Indices 1 2 3 4 5 6 
#
# 1 0.006376 -0.002747 -0.000205 0.000000 0.000000 0.000000
# 2 -0.002747 0.006400 -0.001267 0.000000 0.000000 0.000000
# 3 -0.000205 -0.001267 0.004420 0.000000 0.000000 0.000000
# 4 0.000000 0.000000 0.000000 0.042596 0.000000 0.000000
# 5 0.000000 0.000000 0.000000 0.000000 -0.003097 0.000000
# 6 0.000000 0.000000 0.000000 0.000000 0.000000 0.018425
#
#
# Mechanical properties :
#
#
# Convention : Reuss Voigt Hill
#
# Bulk Modulus (GPa) = 114.18978 114.96393 114.57686
# Shear Modulus (GPa) = 57.81835 -18.30542 19.75646
#
# Velocity S-wave (km/s) = 4.78814 -2.69416 2.79891
# Velocity P-wave (km/s) = 8.70903 5.99231 7.47513
#
# Compressibility (1/GPa) = 0.00875735
#
# Stress axis : x y z
#
# Youngs Moduli (GPa) = 156.84095 156.24770 226.25121
#
# Poissons Ratio (x) = 0.42927 0.04639
# Poissons Ratio (y) = 0.43090 0.28663
# Poissons Ratio (z) = 0.03216 0.19795
#
# Static dielectric constant tensor:
#      x y z
#    x 4.645280 0.000000 0.000000 
#    y 0.000000 4.718780 0.000000 
#    z 0.000000 0.000000 0.136570 
# 
# 
# High freq. dielectric constant tensor:
#      x y z
#    x 2.059400 0.000000 0.000000 
#    y 0.000000 2.012100 0.000000 
#    z 0.000000 0.000000 2.025360 
# 
# From -- ./inp_files/411.got.cif
#   From: 2010.03.12/outbox.cif.g09.slc.cpg/sg68_1_cif.got.tgz:411.got - 2010.04.10 23:14:56.
