data_PCOD8282590
_publ_section_title
;
Structure prediction by ZEFSAII (Michael W. Deem and Ramdas Pophale) SiO2 
 PCOD8282590
Probable space group: C C C A
;
_chemical_formula_sum "Si O2"
_cell_formula_units_Z 104
_cell_length_a 16.023313
_cell_length_b 24.051032
_cell_length_c 13.128011
_cell_angle_alpha 90.000000
_cell_angle_beta 90.000000
_cell_angle_gamma 90.000000
_cell_volume 5059.236301
_symmetry_space_group_name_H-M "C C C A"
_symmetry_group_IT_number 68
_space_group.IT_coordinate_system_code '2'
_symmetry_cell_setting 'orthorhombic'
loop_
_space_group_symop_operation_xyz
x,y,z
-x,1/2-y,z
x,1/2-y,1/2-z
-x,y,1/2-z
-x,-y,-z
x,1/2+y,-z
-x,1/2+y,1/2+z
x,-y,1/2+z
1/2+x,1/2+y,z
1/2-x,-y,z
1/2+x,-y,1/2-z
1/2-x,1/2+y,1/2-z
1/2-x,1/2-y,-z
1/2+x,y,-z
1/2-x,y,1/2+z
1/2+x,1/2-y,1/2+z
loop_
_atom_site_type_symbol
_atom_site_label
_atom_site_fract_x
_atom_site_fract_y
_atom_site_fract_z
Si Si1 0.590051 0.731092 0.923270
Si Si2 0.916466 0.567669 0.950027
Si Si3 0.873232 0.149254 0.406562
Si Si4 0.819117 0.655247 0.072864
Si Si5 0.912325 0.443449 0.951486
Si Si6 0.000000 0.384330 0.250000
Si Si7 0.095843 0.361959 0.723752
O O1 0.500000 0.750000 0.885773
O O2 0.576939 0.691559 0.020814
O O3 0.645422 0.783955 0.951374
O O4 0.629155 0.694289 0.831875
O O5 0.877264 0.506090 0.945062
O O6 0.957600 0.579992 0.839997
O O7 0.845689 0.613247 0.980843
O O8 0.987467 0.563586 0.037206
O O9 0.777471 0.166672 0.405450
O O10 0.872020 0.086619 0.450836
O O11 0.923820 0.151665 0.299379
O O12 0.853329 0.627746 0.174654
O O13 0.885568 0.414723 0.846649
O O14 0.000000 0.354883 0.750000
#
# Coordination Sequence:
#
# PCOD8282590 Si02
#       7
#    16  16  16  16  16   8  16
#     4  11  21  40  64  89 120 159 205 263 319 377
#     4  10  21  38  64  86 121 166 208 255 310 378
#     4  10  24  42  59  90 125 167 213 255 320 381
#     4  12  23  38  63  93 127 163 207 262 315 379
#     4   9  20  39  61  89 119 159 208 256 314 375
#     4  10  22  42  61  88 126 170 213 260 316 394
#     4  11  20  35  63  97 119 152 205 263 319 362
#
# _framework density 20.556463000000001
#
# number of rings (size 3 to 8) (size 9 to 14) (size 15 to 20)
#    0.000    1.538    3.077    2.769    1.077    4.308 
#    0.000    8.077    0.000    0.000    0.000    0.000 
#    0.000    0.000    0.000    0.000    0.000    0.000 
#
# Total GULP energy -644527.770073 kJ/mol
# GULP energy per Si atom -12394.764809 kJ/mol
# Density = 2.050968 g / cm^3
# Si number density = 20.556463 Si / 1000 Ang^3
#
#
#
# Elastic Constant Matrix: (Units=GPa)
#
#
# Indices 1 2 3 4 5 6 
#
# 1 76.7858 23.3459 14.8425 0.0000 0.0000 0.0000
# 2 23.3459 133.5153 36.8564 0.0000 0.0000 0.0000
# 3 14.8425 36.8564 107.2472 0.0000 0.0000 0.0000
# 4 0.0000 0.0000 0.0000 21.9605 0.0000 0.0000
# 5 0.0000 0.0000 0.0000 0.0000 25.6260 0.0000
# 6 0.0000 0.0000 0.0000 0.0000 0.0000 20.1237
#
#
#
# Elastic Compliance Matrix: (Units=1/GPa)
#
#
# Indices 1 2 3 4 5 6 
#
# 1 0.013893 -0.002098 -0.001202 0.000000 0.000000 0.000000
# 2 -0.002098 0.008591 -0.002662 0.000000 0.000000 0.000000
# 3 -0.001202 -0.002662 0.010405 0.000000 0.000000 0.000000
# 4 0.000000 0.000000 0.000000 0.045536 0.000000 0.000000
# 5 0.000000 0.000000 0.000000 0.000000 0.039023 0.000000
# 6 0.000000 0.000000 0.000000 0.000000 0.000000 0.049693
#
#
# Mechanical properties :
#
#
# Convention : Reuss Voigt Hill
#
# Bulk Modulus (GPa) = 47.69434 51.95976 49.82705
# Shear Modulus (GPa) = 26.87388 29.70896 28.29142
#
# Velocity S-wave (km/s) = 3.61961 3.80575 3.71385
# Velocity P-wave (km/s) = 6.38128 6.68155 6.53314
#
# Compressibility (1/GPa) = 0.02096685
#
# Stress axis : x y z
#
# Youngs Moduli (GPa) = 71.97715 116.39494 96.10315
#
# Poissons Ratio (x) = 0.24414 0.11551
# Poissons Ratio (y) = 0.15097 0.25585
# Poissons Ratio (z) = 0.08651 0.30987
#
# Static dielectric constant tensor:
#      x y z
#    x 3.553480 0.000000 0.000000 
#    y 0.000000 3.794170 0.000000 
#    z 0.000000 0.000000 1.340110 
# 
# 
# High freq. dielectric constant tensor:
#      x y z
#    x 1.781800 0.000000 0.000000 
#    y 0.000000 1.808570 0.000000 
#    z 0.000000 0.000000 1.804650 
# 
# From -- ./inp_files/14771.got.cif
#   From: 2010.03.12/outbox.cif.g09.slc.cpg/sg68_8_cif.got.tgz:14771.got - 2010.04.10 23:14:56.
