data_PCOD8282484
_publ_section_title
;
Structure prediction by ZEFSAII (Michael W. Deem and Ramdas Pophale) SiO2 
 PCOD8282484
Probable space group: C C C A
;
_chemical_formula_sum "Si O2"
_cell_formula_units_Z 64
_cell_length_a 5.182200
_cell_length_b 32.969121
_cell_length_c 17.506997
_cell_angle_alpha 90.000000
_cell_angle_beta 90.000000
_cell_angle_gamma 90.000000
_cell_volume 2991.115585
_symmetry_space_group_name_H-M "C C C A"
_symmetry_group_IT_number 68
_space_group.IT_coordinate_system_code '2'
_symmetry_cell_setting 'orthorhombic'
loop_
_space_group_symop_operation_xyz
x,y,z
-x,1/2-y,z
x,1/2-y,1/2-z
-x,y,1/2-z
-x,-y,-z
x,1/2+y,-z
-x,1/2+y,1/2+z
x,-y,1/2+z
1/2+x,1/2+y,z
1/2-x,-y,z
1/2+x,-y,1/2-z
1/2-x,1/2+y,1/2-z
1/2-x,1/2-y,-z
1/2+x,y,-z
1/2-x,y,1/2+z
1/2+x,1/2-y,1/2+z
loop_
_atom_site_type_symbol
_atom_site_label
_atom_site_fract_x
_atom_site_fract_y
_atom_site_fract_z
Si Si1 0.624017 0.091066 0.544821
Si Si2 0.997668 0.474908 0.339335
Si Si3 0.347757 0.186199 0.954014
Si Si4 0.247576 0.205072 0.284104
O O1 0.912698 0.078844 0.519443
O O2 0.529000 0.068609 0.620878
O O3 0.633270 0.138569 0.562185
O O4 0.750000 0.500000 0.365197
O O5 0.000000 0.466061 0.250000
O O6 0.250000 0.500000 0.365220
O O7 0.269783 0.207814 0.875346
O O8 0.127780 0.199640 0.014738
O O9 0.250230 0.250000 0.250000
O O10 0.500000 0.182189 0.250000
O O11 0.000000 0.181395 0.250000
#
# Coordination Sequence:
#
# PCOD8282484 Si02
#       4
#    16  16  16  16
#     4  10  21  36  56  82 109 144 190 232 278 334
#     4  10  21  36  53  78 112 147 185 229 279 332
#     4  10  21  39  60  84 116 152 191 238 290 343
#     4  10  21  39  59  86 117 147 190 238 286 349
#
# _framework density 21.396699999999999
#
# number of rings (size 3 to 8) (size 9 to 14) (size 15 to 20)
#    0.000    2.000    0.000    3.000    0.000    4.000 
#    0.000   18.750    0.000    0.000    0.000    0.000 
#    0.000    0.000    0.000    0.000    0.000    0.000 
#
# Total GULP energy -396643.001956 kJ/mol
# GULP energy per Si atom -12395.093811 kJ/mol
# Density = 2.134800 g / cm^3
# Si number density = 21.396700 Si / 1000 Ang^3
#
#
#
# Elastic Constant Matrix: (Units=GPa)
#
#
# Indices 1 2 3 4 5 6 
#
# 1 190.4865 26.4349 49.2374 0.0000 0.0000 0.0000
# 2 26.4349 39.9544 44.7023 0.0000 0.0000 0.0000
# 3 49.2374 44.7023 124.6712 0.0000 0.0000 0.0000
# 4 0.0000 0.0000 0.0000 32.7553 0.0000 0.0000
# 5 0.0000 0.0000 0.0000 0.0000 30.1138 0.0000
# 6 0.0000 0.0000 0.0000 0.0000 0.0000 15.2407
#
#
#
# Elastic Compliance Matrix: (Units=1/GPa)
#
#
# Indices 1 2 3 4 5 6 
#
# 1 0.005959 -0.002187 -0.001569 0.000000 0.000000 0.000000
# 2 -0.002187 0.042598 -0.014410 0.000000 0.000000 0.000000
# 3 -0.001569 -0.014410 0.013808 0.000000 0.000000 0.000000
# 4 0.000000 0.000000 0.000000 0.030529 0.000000 0.000000
# 5 0.000000 0.000000 0.000000 0.000000 0.033207 0.000000
# 6 0.000000 0.000000 0.000000 0.000000 0.000000 0.065614
#
#
# Mechanical properties :
#
#
# Convention : Reuss Voigt Hill
#
# Bulk Modulus (GPa) = 38.41434 66.20682 52.31058
# Shear Modulus (GPa) = 21.12152 31.27115 26.19633
#
# Velocity S-wave (km/s) = 3.14529 3.82710 3.50282
# Velocity P-wave (km/s) = 5.58416 7.10905 6.39224
#
# Compressibility (1/GPa) = 0.02603194
#
# Stress axis : x y z
#
# Youngs Moduli (GPa) = 167.81855 23.47519 72.42237
#
# Poissons Ratio (x) = 0.05133 0.11365
# Poissons Ratio (y) = 0.36698 1.04364
# Poissons Ratio (z) = 0.26335 0.33829
#
# Static dielectric constant tensor:
#      x y z
#    x 0.386120 0.000000 0.000000 
#    y 0.000000 3.549310 0.000000 
#    z 0.000000 0.000000 3.675270 
# 
# 
# High freq. dielectric constant tensor:
#      x y z
#    x 1.873090 0.000000 0.000000 
#    y 0.000000 1.810090 0.000000 
#    z 0.000000 0.000000 1.836100 
# 
# From -- ./inp_files/27135.got.cif
#   From: 2010.03.12/outbox.cif.g09.slc.cpg/sg68_14_cif.got.tgz:27135.got - 2010.04.10 23:14:56.
