data_PCOD8282181
_publ_section_title
;
Structure prediction by ZEFSAII (Michael W. Deem and Ramdas Pophale) SiO2 
 PCOD8282181
Probable space group: C C C A
;
_chemical_formula_sum "Si O2"
_cell_formula_units_Z 100
_cell_length_a 16.439834
_cell_length_b 15.770724
_cell_length_c 20.532877
_cell_angle_alpha 90.000000
_cell_angle_beta 90.000000
_cell_angle_gamma 90.000000
_cell_volume 5323.519692
_symmetry_space_group_name_H-M "C C C A"
_symmetry_group_IT_number 68
_space_group.IT_coordinate_system_code '2'
_symmetry_cell_setting 'orthorhombic'
loop_
_space_group_symop_operation_xyz
x,y,z
-x,1/2-y,z
x,1/2-y,1/2-z
-x,y,1/2-z
-x,-y,-z
x,1/2+y,-z
-x,1/2+y,1/2+z
x,-y,1/2+z
1/2+x,1/2+y,z
1/2-x,-y,z
1/2+x,-y,1/2-z
1/2-x,1/2+y,1/2-z
1/2-x,1/2-y,-z
1/2+x,y,-z
1/2-x,y,1/2+z
1/2+x,1/2-y,1/2+z
loop_
_atom_site_type_symbol
_atom_site_label
_atom_site_fract_x
_atom_site_fract_y
_atom_site_fract_z
Si Si1 0.927785 0.520342 0.197259
Si Si2 0.500000 0.750000 0.250000
Si Si3 0.165344 0.850788 0.535517
Si Si4 0.654402 0.695472 0.548679
Si Si5 0.071188 0.019636 0.547974
Si Si6 0.175791 0.686636 0.302415
Si Si7 0.857571 0.347208 0.183724
O O1 0.960208 0.513472 0.122750
O O2 0.870916 0.600004 0.208690
O O3 0.864752 0.444114 0.205463
O O4 0.000000 0.518165 0.250000
O O5 0.440450 0.804857 0.206467
O O6 0.260617 0.840427 0.521348
O O7 0.122749 0.781100 0.487708
O O8 0.140100 0.949798 0.528456
O O9 0.143934 0.824796 0.608197
O O10 0.595527 0.616662 0.535181
O O11 0.660311 0.719644 0.624671
O O12 0.000000 0.000000 0.500000
O O13 0.136662 0.750000 0.250000
O O14 0.271859 0.681085 0.285852
#
# Coordination Sequence:
#
# PCOD8282181 Si02
#       7
#    16   4  16  16  16  16  16
#     4  10  21  38  56  80 113 151 189 233 282 340
#     4  12  20  32  60  88 112 140 182 236 280 340
#     4   9  19  36  58  79 109 148 184 230 277 335
#     4   9  19  37  58  81 109 146 191 228 279 337
#     4  10  21  35  56  83 110 145 186 232 280 334
#     4  10  20  36  59  82 112 151 190 231 283 344
#     4  10  20  36  57  83 113 145 187 233 290 337
#
# _framework density 18.784565000000001
#
# number of rings (size 3 to 8) (size 9 to 14) (size 15 to 20)
#    0.000    2.240    1.600    0.960    0.000    8.640 
#    0.000    3.200    0.000    3.840    0.000    0.000 
#    0.000    0.000    0.000    0.000    0.000    0.000 
#
# Total GULP energy -619429.043856 kJ/mol
# GULP energy per Si atom -12388.580877 kJ/mol
# Density = 1.874181 g / cm^3
# Si number density = 18.784565 Si / 1000 Ang^3
#
#
#
# Elastic Constant Matrix: (Units=GPa)
#
#
# Indices 1 2 3 4 5 6 
#
# 1 75.8256 30.3051 51.4537 0.0000 0.0000 0.0000
# 2 30.3051 121.5056 69.7174 0.0000 0.0000 0.0000
# 3 51.4537 69.7174 92.9412 0.0000 0.0000 0.0000
# 4 0.0000 0.0000 0.0000 37.6834 0.0000 0.0000
# 5 0.0000 0.0000 0.0000 0.0000 35.8867 0.0000
# 6 0.0000 0.0000 0.0000 0.0000 0.0000 42.5554
#
#
#
# Elastic Compliance Matrix: (Units=1/GPa)
#
#
# Indices 1 2 3 4 5 6 
#
# 1 0.021577 0.002585 -0.013884 0.000000 0.000000 0.000000
# 2 0.002585 0.014759 -0.012502 0.000000 0.000000 0.000000
# 3 -0.013884 -0.012502 0.027824 0.000000 0.000000 0.000000
# 4 0.000000 0.000000 0.000000 0.026537 0.000000 0.000000
# 5 0.000000 0.000000 0.000000 0.000000 0.027866 0.000000
# 6 0.000000 0.000000 0.000000 0.000000 0.000000 0.023499
#
#
# Mechanical properties :
#
#
# Convention : Reuss Voigt Hill
#
# Bulk Modulus (GPa) = 60.39752 65.91387 63.15570
# Shear Modulus (GPa) = 25.61718 32.47816 29.04767
#
# Velocity S-wave (km/s) = 3.69689 4.16261 3.93664
# Velocity P-wave (km/s) = 7.10248 7.63339 7.37271
#
# Compressibility (1/GPa) = 0.01655697
#
# Stress axis : x y z
#
# Youngs Moduli (GPa) = 46.34671 67.75663 35.94028
#
# Poissons Ratio (x) = -0.17515 0.49900
# Poissons Ratio (y) = -0.11980 0.44932
# Poissons Ratio (z) = 0.64348 0.84709
#
# Static dielectric constant tensor:
#      x y z
#    x 3.435560 0.000000 0.000000 
#    y 0.000000 3.583250 0.000000 
#    z 0.000000 0.000000 3.728960 
# 
# 
# High freq. dielectric constant tensor:
#      x y z
#    x 1.721860 0.000000 0.000000 
#    y 0.000000 1.742530 0.000000 
#    z 0.000000 0.000000 1.726840 
# 
# From -- ./inp_files/45471.got.cif
#   From: 2010.03.12/outbox.cif.g09.slc.cpg/sg68_23_cif.got.tgz:45471.got - 2010.04.10 23:14:56.
