data_PCOD8282464
_publ_section_title
;
Structure prediction by ZEFSAII (Michael W. Deem and Ramdas Pophale) SiO2 
 PCOD8282464
Probable space group: C C C A
;
_chemical_formula_sum "Si O2"
_cell_formula_units_Z 104
_cell_length_a 21.694075
_cell_length_b 25.583844
_cell_length_c 9.416510
_cell_angle_alpha 90.000000
_cell_angle_beta 90.000000
_cell_angle_gamma 90.000000
_cell_volume 5226.330951
_symmetry_space_group_name_H-M "C C C A"
_symmetry_group_IT_number 68
_space_group.IT_coordinate_system_code '2'
_symmetry_cell_setting 'orthorhombic'
loop_
_space_group_symop_operation_xyz
x,y,z
-x,1/2-y,z
x,1/2-y,1/2-z
-x,y,1/2-z
-x,-y,-z
x,1/2+y,-z
-x,1/2+y,1/2+z
x,-y,1/2+z
1/2+x,1/2+y,z
1/2-x,-y,z
1/2+x,-y,1/2-z
1/2-x,1/2+y,1/2-z
1/2-x,1/2-y,-z
1/2+x,y,-z
1/2-x,y,1/2+z
1/2+x,1/2-y,1/2+z
loop_
_atom_site_type_symbol
_atom_site_label
_atom_site_fract_x
_atom_site_fract_y
_atom_site_fract_z
Si Si1 0.112563 0.380328 0.000226
Si Si2 0.071692 0.533953 0.287627
Si Si3 0.428286 0.189425 0.231219
Si Si4 0.766994 0.572491 0.002038
Si Si5 0.250000 0.500000 0.744336
Si Si6 0.629000 0.606343 0.932416
Si Si7 0.070432 0.916297 0.711940
O O1 0.081763 0.431981 0.929439
O O2 0.087099 0.327393 0.929943
O O3 0.186522 0.379350 0.983885
O O4 0.100810 0.381319 0.166856
O O5 0.111201 0.555483 0.156670
O O6 0.096760 0.475123 0.308228
O O7 0.000000 0.535824 0.250000
O O8 0.414486 0.250000 0.250000
O O9 0.500000 0.175316 0.250000
O O10 0.382930 0.157695 0.336729
O O11 0.787995 0.536867 0.866246
O O12 0.698815 0.596832 0.986830
O O13 0.782978 0.539915 0.146672
O O14 0.583834 0.613755 0.066082
O O15 0.000000 0.920304 0.750000
#
# Coordination Sequence:
#
# PCOD8282464 Si02
#       7
#    16  16  16  16   8  16  16
#     4  11  22  36  58  83 119 151 195 242 286 348
#     4  10  21  35  53  80 118 164 200 230 281 346
#     4  10  22  44  70  87 104 145 201 256 313 361
#     4  11  24  34  55  84 118 160 201 226 285 330
#     4  10  22  34  50  78 120 168 198 224 252 332
#     4  11  22  36  58  83 119 151 195 242 286 348
#     4  11  22  33  52  84 118 154 187 233 292 341
#
# _framework density 19.899236999999999
#
# number of rings (size 3 to 8) (size 9 to 14) (size 15 to 20)
#    0.000    1.385    0.000    7.385   12.923    2.462 
#    0.000    1.538    0.000    2.769    0.000    0.000 
#    0.000    0.000    0.000    0.000    0.000    0.000 
#
# Total GULP energy -644394.885437 kJ/mol
# GULP energy per Si atom -12392.209335 kJ/mol
# Density = 1.985395 g / cm^3
# Si number density = 19.899237 Si / 1000 Ang^3
#
#
#
# Elastic Constant Matrix: (Units=GPa)
#
#
# Indices 1 2 3 4 5 6 
#
# 1 81.0626 27.2147 8.4941 0.0000 0.0000 0.0000
# 2 27.2147 94.0991 25.4762 0.0000 0.0000 0.0000
# 3 8.4941 25.4762 118.3030 0.0000 0.0000 0.0000
# 4 0.0000 0.0000 0.0000 12.6423 0.0000 0.0000
# 5 0.0000 0.0000 0.0000 0.0000 22.8018 0.0000
# 6 0.0000 0.0000 0.0000 0.0000 0.0000 15.4784
#
#
#
# Elastic Compliance Matrix: (Units=1/GPa)
#
#
# Indices 1 2 3 4 5 6 
#
# 1 0.013665 -0.003915 -0.000138 0.000000 0.000000 0.000000
# 2 -0.003915 0.012407 -0.002391 0.000000 0.000000 0.000000
# 3 -0.000138 -0.002391 0.008978 0.000000 0.000000 0.000000
# 4 0.000000 0.000000 0.000000 0.079099 0.000000 0.000000
# 5 0.000000 0.000000 0.000000 0.000000 0.043856 0.000000
# 6 0.000000 0.000000 0.000000 0.000000 0.000000 0.064606
#
#
# Mechanical properties :
#
#
# Convention : Reuss Voigt Hill
#
# Bulk Modulus (GPa) = 45.12198 46.20384 45.66291
# Shear Modulus (GPa) = 20.58585 25.66979 23.12782
#
# Velocity S-wave (km/s) = 3.21986 3.59554 3.41287
# Velocity P-wave (km/s) = 6.04548 6.36447 6.20702
#
# Compressibility (1/GPa) = 0.02216215
#
# Stress axis : x y z
#
# Youngs Moduli (GPa) = 73.18033 80.60285 111.38826
#
# Poissons Ratio (x) = 0.31553 0.01538
# Poissons Ratio (y) = 0.28648 0.26629
# Poissons Ratio (z) = 0.01011 0.19269
#
# Static dielectric constant tensor:
#      x y z
#    x 3.633300 0.000000 0.000000 
#    y 0.000000 3.261380 0.000000 
#    z 0.000000 0.000000 3.875560 
# 
# 
# High freq. dielectric constant tensor:
#      x y z
#    x 1.785610 0.000000 0.000000 
#    y 0.000000 1.723990 0.000000 
#    z 0.000000 0.000000 1.795720 
# 
# From -- ./inp_files/7368.got.cif
#   From: 2010.03.12/outbox.cif.g09.slc.cpg/sg68_4_cif.got.tgz:7368.got - 2010.04.10 23:14:56.
