data_PCOD8282012
_publ_section_title
;
Structure prediction by ZEFSAII (Michael W. Deem and Ramdas Pophale) SiO2 
 PCOD8282012
Probable space group: C C C A
;
_chemical_formula_sum "Si O2"
_cell_formula_units_Z 128
_cell_length_a 17.952587
_cell_length_b 18.161846
_cell_length_c 22.659186
_cell_angle_alpha 90.000000
_cell_angle_beta 90.000000
_cell_angle_gamma 90.000000
_cell_volume 7388.075642
_symmetry_space_group_name_H-M "C C C A"
_symmetry_group_IT_number 68
_space_group.IT_coordinate_system_code '2'
_symmetry_cell_setting 'orthorhombic'
loop_
_space_group_symop_operation_xyz
x,y,z
-x,1/2-y,z
x,1/2-y,1/2-z
-x,y,1/2-z
-x,-y,-z
x,1/2+y,-z
-x,1/2+y,1/2+z
x,-y,1/2+z
1/2+x,1/2+y,z
1/2-x,-y,z
1/2+x,-y,1/2-z
1/2-x,1/2+y,1/2-z
1/2-x,1/2-y,-z
1/2+x,y,-z
1/2-x,y,1/2+z
1/2+x,1/2-y,1/2+z
loop_
_atom_site_type_symbol
_atom_site_label
_atom_site_fract_x
_atom_site_fract_y
_atom_site_fract_z
Si Si1 0.583919 0.734831 0.364318
Si Si2 0.705875 0.683714 0.278816
Si Si3 0.670369 0.968141 0.531035
Si Si4 0.560959 0.575466 0.401614
Si Si5 0.893188 0.108821 0.420134
Si Si6 0.573673 0.484672 0.280840
Si Si7 0.703209 0.074440 0.155692
Si Si8 0.319633 0.553941 0.307225
O O1 0.500000 0.750000 0.342536
O O2 0.631986 0.723257 0.305135
O O3 0.589450 0.659641 0.402127
O O4 0.609295 0.803775 0.405566
O O5 0.753859 0.750000 0.250000
O O6 0.747213 0.645271 0.332572
O O7 0.696073 0.630237 0.224065
O O8 0.638631 0.910486 0.484216
O O9 0.683677 0.918016 0.587902
O O10 0.750000 0.000000 0.509230
O O11 0.611738 0.032031 0.550622
O O12 0.475335 0.574012 0.420383
O O13 0.565449 0.541717 0.335421
O O14 0.840182 0.065711 0.374999
O O15 0.500000 0.450894 0.250000
O O16 0.629037 0.421003 0.303946
O O17 0.607945 0.524350 0.224871
O O18 0.750000 0.000000 0.170274
O O19 0.250000 0.500000 0.301726
#
# Coordination Sequence:
#
# PCOD8282012 Si02
#       8
#    16  16  16  16  16  16  16  16
#     4  10  21  33  51  83 118 142 172 219 288 343
#     4  12  20  33  53  81 112 145 176 215 285 336
#     4  10  21  38  59  75 104 147 199 229 257 323
#     4  10  20  35  57  81 110 144 184 223 281 336
#     4  11  22  36  52  85 115 146 175 234 284 323
#     4  11  18  30  56  84 108 139 181 227 275 330
#     4  10  19  37  57  78 105 148 188 226 263 329
#     4  12  21  34  55  83 121 144 178 222 273 339
#
# _framework density 17.325213999999999
#
# number of rings (size 3 to 8) (size 9 to 14) (size 15 to 20)
#    0.000    1.250    6.250    2.250    0.000    0.250 
#    0.000    2.500    0.000    0.375    6.500    0.000 
#    0.000    0.000    0.000    0.000    0.000    0.000 
#
# Total GULP energy -792969.340927 kJ/mol
# GULP energy per Si atom -12390.145952 kJ/mol
# Density = 1.728578 g / cm^3
# Si number density = 17.325214 Si / 1000 Ang^3
#
#
#
# Elastic Constant Matrix: (Units=GPa)
#
#
# Indices 1 2 3 4 5 6 
#
# 1 103.6757 51.3302 51.3482 0.0000 0.0000 0.0000
# 2 51.3302 102.0062 54.3110 0.0000 0.0000 0.0000
# 3 51.3482 54.3110 102.8792 0.0000 0.0000 0.0000
# 4 0.0000 0.0000 0.0000 35.0730 0.0000 0.0000
# 5 0.0000 0.0000 0.0000 0.0000 20.1791 0.0000
# 6 0.0000 0.0000 0.0000 0.0000 0.0000 22.9274
#
#
#
# Elastic Compliance Matrix: (Units=1/GPa)
#
#
# Indices 1 2 3 4 5 6 
#
# 1 0.014276 -0.004716 -0.004636 0.000000 0.000000 0.000000
# 2 -0.004716 0.015194 -0.005667 0.000000 0.000000 0.000000
# 3 -0.004636 -0.005667 0.015026 0.000000 0.000000 0.000000
# 4 0.000000 0.000000 0.000000 0.028512 0.000000 0.000000
# 5 0.000000 0.000000 0.000000 0.000000 0.049556 0.000000
# 6 0.000000 0.000000 0.000000 0.000000 0.000000 0.043616
#
#
# Mechanical properties :
#
#
# Convention : Reuss Voigt Hill
#
# Bulk Modulus (GPa) = 69.16597 69.17110 69.16853
# Shear Modulus (GPa) = 24.87101 25.74067 25.30584
#
# Velocity S-wave (km/s) = 3.79296 3.85870 3.82597
# Velocity P-wave (km/s) = 7.69356 7.73722 7.71542
#
# Compressibility (1/GPa) = 0.01445798
#
# Stress axis : x y z
#
# Youngs Moduli (GPa) = 70.04620 65.81688 66.55180
#
# Poissons Ratio (x) = 0.31036 0.30854
# Poissons Ratio (y) = 0.33031 0.37717
# Poissons Ratio (z) = 0.32474 0.37301
#
# Static dielectric constant tensor:
#      x y z
#    x 3.427230 0.000000 0.000000 
#    y 0.000000 3.245360 0.000000 
#    z 0.000000 0.000000 3.425100 
# 
# 
# High freq. dielectric constant tensor:
#      x y z
#    x 1.675390 0.000000 0.000000 
#    y 0.000000 1.652460 0.000000 
#    z 0.000000 0.000000 1.667020 
# 
# From -- ./inp_files/46199.got.cif
#   From: 2010.03.12/outbox.cif.g09.slc.cpg/sg68_24_cif.got.tgz:46199.got - 2010.04.10 23:14:56.
