data_PCOD8282866
_publ_section_title
;
Structure prediction by ZEFSAII (Michael W. Deem and Ramdas Pophale) SiO2 
 PCOD8282866
Probable space group: C C C A
;
_chemical_formula_sum "Si O2"
_cell_formula_units_Z 56
_cell_length_a 24.339468
_cell_length_b 4.954480
_cell_length_c 23.126783
_cell_angle_alpha 90.000000
_cell_angle_beta 90.000000
_cell_angle_gamma 90.000000
_cell_volume 2788.845057
_symmetry_space_group_name_H-M "C C C A"
_symmetry_group_IT_number 68
_space_group.IT_coordinate_system_code '2'
_symmetry_cell_setting 'orthorhombic'
loop_
_space_group_symop_operation_xyz
x,y,z
-x,1/2-y,z
x,1/2-y,1/2-z
-x,y,1/2-z
-x,-y,-z
x,1/2+y,-z
-x,1/2+y,1/2+z
x,-y,1/2+z
1/2+x,1/2+y,z
1/2-x,-y,z
1/2+x,-y,1/2-z
1/2-x,1/2+y,1/2-z
1/2-x,1/2-y,-z
1/2+x,y,-z
1/2-x,y,1/2+z
1/2+x,1/2-y,1/2+z
loop_
_atom_site_type_symbol
_atom_site_label
_atom_site_fract_x
_atom_site_fract_y
_atom_site_fract_z
Si Si1 0.813758 0.477911 0.036173
Si Si2 0.711597 0.250000 0.750000
Si Si3 0.872129 0.743386 0.852550
Si Si4 0.063159 0.230040 0.681837
O O1 0.750000 0.500000 0.053992
O O2 0.848942 0.346273 0.086850
O O3 0.827723 0.785672 0.018946
O O4 0.750000 0.500000 0.761388
O O5 0.675528 0.211645 0.806552
O O6 0.896669 0.439499 0.851919
O O7 0.923177 0.928462 0.836371
O O8 0.072832 0.250000 0.750000
O O9 0.000000 0.250000 0.663916
#
# Coordination Sequence:
#
# PCOD8282866 Si02
#       4
#    16   8  16  16
#     4  10  22  40  62  88 118 163 211 245 290 360
#     4  12  24  36  55  90 127 154 184 238 312 366
#     4  12  22  40  62  89 124 159 198 252 307 359
#     4  11  22  39  62  90 122 158 205 249 301 370
#
# _framework density 20.079996999999999
#
# number of rings (size 3 to 8) (size 9 to 14) (size 15 to 20)
#    0.000    0.857    2.857    5.143    0.000    5.714 
#    0.000    0.000    0.000   17.143    0.000    0.000 
#    0.000    0.000    0.000    0.000    0.000    0.000 
#
# Total GULP energy -347067.070154 kJ/mol
# GULP energy per Si atom -12395.252505 kJ/mol
# Density = 2.003429 g / cm^3
# Si number density = 20.079997 Si / 1000 Ang^3
#
#
#
# Elastic Constant Matrix: (Units=GPa)
#
#
# Indices 1 2 3 4 5 6 
#
# 1 97.0173 21.4492 38.9768 0.0000 0.0000 0.0000
# 2 21.4492 82.8422 -0.7901 0.0000 0.0000 0.0000
# 3 38.9768 -0.7901 66.7514 0.0000 0.0000 0.0000
# 4 0.0000 0.0000 0.0000 23.6753 0.0000 0.0000
# 5 0.0000 0.0000 0.0000 0.0000 18.3880 0.0000
# 6 0.0000 0.0000 0.0000 0.0000 0.0000 48.1790
#
#
#
# Elastic Compliance Matrix: (Units=1/GPa)
#
#
# Indices 1 2 3 4 5 6 
#
# 1 0.014606 -0.003864 -0.008575 0.000000 0.000000 0.000000
# 2 -0.003864 0.013094 0.002411 0.000000 0.000000 0.000000
# 3 -0.008575 0.002411 0.020016 0.000000 0.000000 0.000000
# 4 0.000000 0.000000 0.000000 0.042238 0.000000 0.000000
# 5 0.000000 0.000000 0.000000 0.000000 0.054383 0.000000
# 6 0.000000 0.000000 0.000000 0.000000 0.000000 0.020756
#
#
# Mechanical properties :
#
#
# Convention : Reuss Voigt Hill
#
# Bulk Modulus (GPa) = 36.14961 40.65363 38.40162
# Shear Modulus (GPa) = 25.72415 30.51346 28.11881
#
# Velocity S-wave (km/s) = 3.58311 3.90243 3.74617
# Velocity P-wave (km/s) = 5.92959 6.37142 6.15447
#
# Compressibility (1/GPa) = 0.02766282
#
# Stress axis : x y z
#
# Youngs Moduli (GPa) = 68.46270 76.36799 49.95928
#
# Poissons Ratio (x) = 0.29506 0.42838
# Poissons Ratio (y) = 0.26452 -0.12045
# Poissons Ratio (z) = 0.58704 -0.18412
#
# Static dielectric constant tensor:
#      x y z
#    x 3.632440 0.000000 0.000000 
#    y 0.000000 3.989000 0.000000 
#    z 0.000000 0.000000 3.470780 
# 
# 
# High freq. dielectric constant tensor:
#      x y z
#    x 1.783720 0.000000 0.000000 
#    y 0.000000 1.809190 0.000000 
#    z 0.000000 0.000000 1.769690 
# 
# From -- ./inp_files/34913.got.cif
#   From: 2010.03.12/outbox.cif.g09.slc.cpg/sg68_18_cif.got.tgz:34913.got - 2010.04.10 23:14:56.
