data_PCOD8282212
_publ_section_title
;
Structure prediction by ZEFSAII (Michael W. Deem and Ramdas Pophale) SiO2 
 PCOD8282212
Probable space group: C C C A
;
_chemical_formula_sum "Si O2"
_cell_formula_units_Z 72
_cell_length_a 28.478558
_cell_length_b 13.053278
_cell_length_c 8.949544
_cell_angle_alpha 90.000000
_cell_angle_beta 90.000000
_cell_angle_gamma 90.000000
_cell_volume 3326.890372
_symmetry_space_group_name_H-M "C C C A"
_symmetry_group_IT_number 68
_space_group.IT_coordinate_system_code '2'
_symmetry_cell_setting 'orthorhombic'
loop_
_space_group_symop_operation_xyz
x,y,z
-x,1/2-y,z
x,1/2-y,1/2-z
-x,y,1/2-z
-x,-y,-z
x,1/2+y,-z
-x,1/2+y,1/2+z
x,-y,1/2+z
1/2+x,1/2+y,z
1/2-x,-y,z
1/2+x,-y,1/2-z
1/2-x,1/2+y,1/2-z
1/2-x,1/2-y,-z
1/2+x,y,-z
1/2-x,y,1/2+z
1/2+x,1/2-y,1/2+z
loop_
_atom_site_type_symbol
_atom_site_label
_atom_site_fract_x
_atom_site_fract_y
_atom_site_fract_z
Si Si1 0.250000 0.500000 0.850771
Si Si2 0.531841 0.940832 0.615655
Si Si3 0.313500 0.071520 0.397768
Si Si4 0.886850 0.904407 0.664089
Si Si5 0.892030 0.304844 0.019200
O O1 0.280617 0.577723 0.748311
O O2 0.282123 0.427362 0.953105
O O3 0.500000 0.898178 0.750000
O O4 0.557807 0.844453 0.539837
O O5 0.500000 0.000000 0.500000
O O6 0.569168 0.021027 0.680007
O O7 0.350211 0.166389 0.403038
O O8 0.341297 0.963984 0.392842
O O9 0.877687 0.858501 0.826369
O O10 0.896815 0.816615 0.540728
#
# Coordination Sequence:
#
# PCOD8282212 Si02
#       5
#     8  16  16  16  16
#     4  10  20  36  62  88 122 156 198 246 310 350
#     4  11  22  40  62  89 124 160 202 254 301 362
#     4  10  20  39  60  88 121 161 194 252 299 367
#     4  10  21  39  63  88 121 162 202 247 311 363
#     4  10  21  39  63  89 120 164 201 247 306 370
#
# _framework density 21.641829999999999
#
# number of rings (size 3 to 8) (size 9 to 14) (size 15 to 20)
#    0.000    1.778    4.444    0.000    0.000    0.889 
#    0.000   12.222    0.000    0.000    0.000    0.000 
#    0.000    0.000    0.000    0.000    0.000    0.000 
#
# Total GULP energy -446470.579494 kJ/mol
# GULP energy per Si atom -12401.960541 kJ/mol
# Density = 2.159257 g / cm^3
# Si number density = 21.641830 Si / 1000 Ang^3
#
#
#
# Elastic Constant Matrix: (Units=GPa)
#
#
# Indices 1 2 3 4 5 6 
#
# 1 126.9597 32.0797 47.7100 0.0000 0.0000 0.0000
# 2 32.0797 87.9280 18.4474 0.0000 0.0000 0.0000
# 3 47.7100 18.4474 101.7663 0.0000 0.0000 0.0000
# 4 0.0000 0.0000 0.0000 24.8278 0.0000 0.0000
# 5 0.0000 0.0000 0.0000 0.0000 46.1625 0.0000
# 6 0.0000 0.0000 0.0000 0.0000 0.0000 14.1251
#
#
#
# Elastic Compliance Matrix: (Units=1/GPa)
#
#
# Indices 1 2 3 4 5 6 
#
# 1 0.010194 -0.002824 -0.004267 0.000000 0.000000 0.000000
# 2 -0.002824 0.012605 -0.000961 0.000000 0.000000 0.000000
# 3 -0.004267 -0.000961 0.012001 0.000000 0.000000 0.000000
# 4 0.000000 0.000000 0.000000 0.040277 0.000000 0.000000
# 5 0.000000 0.000000 0.000000 0.000000 0.021663 0.000000
# 6 0.000000 0.000000 0.000000 0.000000 0.000000 0.070796
#
#
# Mechanical properties :
#
#
# Convention : Reuss Voigt Hill
#
# Bulk Modulus (GPa) = 53.48829 57.01423 55.25126
# Shear Modulus (GPa) = 26.33365 31.58420 28.95892
#
# Velocity S-wave (km/s) = 3.49204 3.82436 3.66197
# Velocity P-wave (km/s) = 6.40531 6.77515 6.59282
#
# Compressibility (1/GPa) = 0.01869568
#
# Stress axis : x y z
#
# Youngs Moduli (GPa) = 98.10146 79.33486 83.32555
#
# Poissons Ratio (x) = 0.22402 0.35555
# Poissons Ratio (y) = 0.27702 0.08008
# Poissons Ratio (z) = 0.41860 0.07624
#
# Static dielectric constant tensor:
#      x y z
#    x 4.591000 0.000000 0.000000 
#    y 0.000000 3.646800 0.000000 
#    z 0.000000 0.000000 4.221680 
# 
# 
# High freq. dielectric constant tensor:
#      x y z
#    x 1.867020 0.000000 0.000000 
#    y 0.000000 1.818080 0.000000 
#    z 0.000000 0.000000 1.858320 
# 
# From -- ./inp_files/8671.got.cif
#   From: 2010.03.12/outbox.cif.g09.slc.cpg/sg68_5_cif.got.tgz:8671.got - 2010.04.10 23:14:56.
