data_PCOD8282574
_publ_section_title
;
Structure prediction by ZEFSAII (Michael W. Deem and Ramdas Pophale) SiO2 
 PCOD8282574
Probable space group: C C C A
;
_chemical_formula_sum "Si O2"
_cell_formula_units_Z 80
_cell_length_a 8.422481
_cell_length_b 15.882509
_cell_length_c 28.522741
_cell_angle_alpha 90.000000
_cell_angle_beta 90.000000
_cell_angle_gamma 90.000000
_cell_volume 3815.490780
_symmetry_space_group_name_H-M "C C C A"
_symmetry_group_IT_number 68
_space_group.IT_coordinate_system_code '2'
_symmetry_cell_setting 'orthorhombic'
loop_
_space_group_symop_operation_xyz
x,y,z
-x,1/2-y,z
x,1/2-y,1/2-z
-x,y,1/2-z
-x,-y,-z
x,1/2+y,-z
-x,1/2+y,1/2+z
x,-y,1/2+z
1/2+x,1/2+y,z
1/2-x,-y,z
1/2+x,-y,1/2-z
1/2-x,1/2+y,1/2-z
1/2-x,1/2-y,-z
1/2+x,y,-z
1/2-x,y,1/2+z
1/2+x,1/2-y,1/2+z
loop_
_atom_site_type_symbol
_atom_site_label
_atom_site_fract_x
_atom_site_fract_y
_atom_site_fract_z
Si Si1 0.288745 0.403119 0.363906
Si Si2 0.607274 0.165703 0.952021
Si Si3 0.894520 0.672364 0.378696
Si Si4 0.683448 0.736058 0.196080
Si Si5 0.289678 0.404341 0.535430
O O1 0.250000 0.500000 0.368024
O O2 0.206221 0.346677 0.404522
O O3 0.479738 0.399556 0.364704
O O4 0.226276 0.361067 0.315904
O O5 0.500000 0.250000 0.950797
O O6 0.479909 0.091914 0.960085
O O7 0.733592 0.158866 0.994275
O O8 0.791078 0.700098 0.334025
O O9 0.780026 0.633554 0.417106
O O10 0.000000 0.750000 0.398408
O O11 0.500000 0.750000 0.184675
O O12 0.724577 0.750000 0.250000
O O13 0.250000 0.500000 0.524457
#
# Coordination Sequence:
#
# PCOD8282574 Si02
#       5
#    16  16  16  16  16
#     4  11  22  39  61  91 122 154 198 252 300 353
#     4  12  23  38  59  82 120 163 206 247 299 361
#     4  10  21  38  61  85 116 155 197 238 297 364
#     4  10  22  43  66  88 118 156 197 241 300 370
#     4  12  23  37  56  85 119 157 202 253 301 351
#
# _framework density 20.967158000000001
#
# number of rings (size 3 to 8) (size 9 to 14) (size 15 to 20)
#    0.000    1.000    0.000    9.000    0.000    3.600 
#    0.000    5.000    0.000    0.000    0.000    0.000 
#    0.000    0.000    0.000    0.000    0.000    0.000 
#
# Total GULP energy -495910.887891 kJ/mol
# GULP energy per Si atom -12397.772197 kJ/mol
# Density = 2.091944 g / cm^3
# Si number density = 20.967158 Si / 1000 Ang^3
#
#
#
# Elastic Constant Matrix: (Units=GPa)
#
#
# Indices 1 2 3 4 5 6 
#
# 1 121.6723 14.0185 53.0597 0.0000 0.0000 0.0000
# 2 14.0185 92.1214 38.9509 0.0000 0.0000 0.0000
# 3 53.0597 38.9509 126.6698 0.0000 0.0000 0.0000
# 4 0.0000 0.0000 0.0000 -174.0714 0.0000 0.0000
# 5 0.0000 0.0000 0.0000 0.0000 42.9667 0.0000
# 6 0.0000 0.0000 0.0000 0.0000 0.0000 25.4062
#
#
#
# Elastic Compliance Matrix: (Units=1/GPa)
#
#
# Indices 1 2 3 4 5 6 
#
# 1 0.010062 0.000288 -0.004304 0.000000 0.000000 0.000000
# 2 0.000288 0.012486 -0.003960 0.000000 0.000000 0.000000
# 3 -0.004304 -0.003960 0.010915 0.000000 0.000000 0.000000
# 4 0.000000 0.000000 0.000000 -0.005745 0.000000 0.000000
# 5 0.000000 0.000000 0.000000 0.000000 0.023274 0.000000
# 6 0.000000 0.000000 0.000000 0.000000 0.000000 0.039361
#
#
# Mechanical properties :
#
#
# Convention : Reuss Voigt Hill
#
# Bulk Modulus (GPa) = 57.10249 61.39131 59.24690
# Shear Modulus (GPa) = 44.58675 -5.51075 19.53800
#
# Velocity S-wave (km/s) = 4.61641 -1.62295 3.05591
# Velocity P-wave (km/s) = 7.46380 5.08245 6.38513
#
# Compressibility (1/GPa) = 0.01751237
#
# Stress axis : x y z
#
# Youngs Moduli (GPa) = 99.38070 80.09092 91.61694
#
# Poissons Ratio (x) = -0.02310 0.39428
# Poissons Ratio (y) = -0.02867 0.36282
# Poissons Ratio (z) = 0.42770 0.31718
#
# Static dielectric constant tensor:
#      x y z
#    x 4.470860 0.000000 0.000000 
#    y 0.000000 3.883050 0.000000 
#    z 0.000000 0.000000 3.661800 
# 
# 
# High freq. dielectric constant tensor:
#      x y z
#    x 1.852070 0.000000 0.000000 
#    y 0.000000 1.819780 0.000000 
#    z 0.000000 0.000000 1.810060 
# 
# From -- ./inp_files/49115.got.cif
#   From: 2010.03.12/outbox.cif.g09.slc.cpg/sg68_25_cif.got.tgz:49115.got - 2010.04.10 23:14:56.
