data_PCOD8282105
_publ_section_title
;
Structure prediction by ZEFSAII (Michael W. Deem and Ramdas Pophale) SiO2 
 PCOD8282105
Probable space group: C C C A
;
_chemical_formula_sum "Si O2"
_cell_formula_units_Z 64
_cell_length_a 23.981124
_cell_length_b 4.936506
_cell_length_c 28.586584
_cell_angle_alpha 90.000000
_cell_angle_beta 90.000000
_cell_angle_gamma 90.000000
_cell_volume 3384.164502
_symmetry_space_group_name_H-M "C C C A"
_symmetry_group_IT_number 68
_space_group.IT_coordinate_system_code '2'
_symmetry_cell_setting 'orthorhombic'
loop_
_space_group_symop_operation_xyz
x,y,z
-x,1/2-y,z
x,1/2-y,1/2-z
-x,y,1/2-z
-x,-y,-z
x,1/2+y,-z
-x,1/2+y,1/2+z
x,-y,1/2+z
1/2+x,1/2+y,z
1/2-x,-y,z
1/2+x,-y,1/2-z
1/2-x,1/2+y,1/2-z
1/2-x,1/2-y,-z
1/2+x,y,-z
1/2-x,y,1/2+z
1/2+x,1/2-y,1/2+z
loop_
_atom_site_type_symbol
_atom_site_label
_atom_site_fract_x
_atom_site_fract_y
_atom_site_fract_z
Si Si1 0.184382 0.522633 0.345069
Si Si2 0.250000 0.000000 0.466592
Si Si3 0.434479 0.771922 0.470456
Si Si4 0.851228 0.971378 0.602610
Si Si5 0.713069 0.250000 0.250000
O O1 0.250000 0.500000 0.357647
O O2 0.159169 0.225225 0.352903
O O3 0.176084 0.625051 0.291813
O O4 0.149326 0.722123 0.378643
O O5 0.250000 0.750000 0.500000
O O6 0.303467 0.950308 0.435340
O O7 0.500000 0.750000 0.461843
O O8 0.415521 0.475511 0.487706
O O9 0.408400 0.876034 0.421829
O O10 0.750000 0.500000 0.270409
#
# Coordination Sequence:
#
# PCOD8282105 Si02
#       5
#    16   8  16  16   8
#     4  11  20  35  51  79 109 139 173 218 263 328
#     4  12  22  32  46  70 108 142 168 204 264 322
#     4  10  21  38  56  75 102 140 187 230 263 304
#     4  12  21  34  53  77 107 140 177 221 263 317
#     4  10  20  34  54  76 107 146 177 210 268 320
#
# _framework density 18.91161
#
# number of rings (size 3 to 8) (size 9 to 14) (size 15 to 20)
#    0.000    1.000    2.500    7.500    0.000    0.000 
#    0.000    0.000    0.000    0.000    0.000    5.250 
#    0.000    0.000    0.000    0.000    0.000    0.000 
#
# Total GULP energy -396613.627822 kJ/mol
# GULP energy per Si atom -12394.175869 kJ/mol
# Density = 1.886857 g / cm^3
# Si number density = 18.911610 Si / 1000 Ang^3
#
#
#
# Elastic Constant Matrix: (Units=GPa)
#
#
# Indices 1 2 3 4 5 6 
#
# 1 48.7591 15.6567 24.2015 0.0000 0.0000 0.0000
# 2 15.6567 102.6704 24.2256 0.0000 0.0000 0.0000
# 3 24.2015 24.2256 96.0943 0.0000 0.0000 0.0000
# 4 0.0000 0.0000 0.0000 36.2112 0.0000 0.0000
# 5 0.0000 0.0000 0.0000 0.0000 17.2068 0.0000
# 6 0.0000 0.0000 0.0000 0.0000 0.0000 24.7111
#
#
#
# Elastic Compliance Matrix: (Units=1/GPa)
#
#
# Indices 1 2 3 4 5 6 
#
# 1 0.023970 -0.002372 -0.005439 0.000000 0.000000 0.000000
# 2 -0.002372 0.010591 -0.002073 0.000000 0.000000 0.000000
# 3 -0.005439 -0.002073 0.012299 0.000000 0.000000 0.000000
# 4 0.000000 0.000000 0.000000 0.027616 0.000000 0.000000
# 5 0.000000 0.000000 0.000000 0.000000 0.058117 0.000000
# 6 0.000000 0.000000 0.000000 0.000000 0.000000 0.040468
#
#
# Mechanical properties :
#
#
# Convention : Reuss Voigt Hill
#
# Bulk Modulus (GPa) = 36.91037 41.74352 39.32695
# Shear Modulus (GPa) = 24.76994 27.85515 26.31255
#
# Velocity S-wave (km/s) = 3.62301 3.84202 3.73412
# Velocity P-wave (km/s) = 6.08780 6.46547 6.27947
#
# Compressibility (1/GPa) = 0.02709265
#
# Stress axis : x y z
#
# Youngs Moduli (GPa) = 41.71838 94.42296 81.30907
#
# Poissons Ratio (x) = 0.22397 0.44224
# Poissons Ratio (y) = 0.09896 0.16852
# Poissons Ratio (z) = 0.22691 0.19570
#
# Static dielectric constant tensor:
#      x y z
#    x 3.186730 0.000000 0.000000 
#    y 0.000000 3.961500 0.000000 
#    z 0.000000 0.000000 3.417070 
# 
# 
# High freq. dielectric constant tensor:
#      x y z
#    x 1.685630 0.000000 0.000000 
#    y 0.000000 1.768760 0.000000 
#    z 0.000000 0.000000 1.730390 
# 
# From -- ./inp_files/42156.got.cif
#   From: 2010.03.12/outbox.cif.g09.slc.cpg/sg68_22_cif.got.tgz:42156.got - 2010.04.10 23:14:56.
