data_PCOD8282033
_publ_section_title
;
Structure prediction by ZEFSAII (Michael W. Deem and Ramdas Pophale) SiO2 
 PCOD8282033
Probable space group: C C C A
;
_chemical_formula_sum "Si O2"
_cell_formula_units_Z 80
_cell_length_a 10.890488
_cell_length_b 24.594027
_cell_length_c 13.821374
_cell_angle_alpha 90.000000
_cell_angle_beta 90.000000
_cell_angle_gamma 90.000000
_cell_volume 3701.930024
_symmetry_space_group_name_H-M "C C C A"
_symmetry_group_IT_number 68
_space_group.IT_coordinate_system_code '2'
_symmetry_cell_setting 'orthorhombic'
loop_
_space_group_symop_operation_xyz
x,y,z
-x,1/2-y,z
x,1/2-y,1/2-z
-x,y,1/2-z
-x,-y,-z
x,1/2+y,-z
-x,1/2+y,1/2+z
x,-y,1/2+z
1/2+x,1/2+y,z
1/2-x,-y,z
1/2+x,-y,1/2-z
1/2-x,1/2+y,1/2-z
1/2-x,1/2-y,-z
1/2+x,y,-z
1/2-x,y,1/2+z
1/2+x,1/2-y,1/2+z
loop_
_atom_site_type_symbol
_atom_site_label
_atom_site_fract_x
_atom_site_fract_y
_atom_site_fract_z
Si Si1 0.649293 0.953097 0.162165
Si Si2 0.265947 0.598058 0.345150
Si Si3 0.359142 0.808196 0.775835
Si Si4 0.173889 0.880541 0.446622
Si Si5 0.976762 0.956017 0.359779
O O1 0.634709 0.927971 0.270881
O O2 0.697569 0.908506 0.086432
O O3 0.750000 0.000000 0.172121
O O4 0.521555 0.980922 0.125861
O O5 0.196660 0.645025 0.289012
O O6 0.328017 0.626526 0.437750
O O7 0.167982 0.551745 0.381066
O O8 0.296702 0.750000 0.750000
O O9 0.500000 0.804143 0.750000
O O10 0.339476 0.823147 0.889775
O O11 0.055827 0.917261 0.427085
O O12 0.000000 0.937665 0.250000
#
# Coordination Sequence:
#
# PCOD8282033 Si02
#       5
#    16  16  16  16  16
#     4   9  19  34  51  79 114 155 190 226 274 343
#     4  11  20  36  59  81 119 149 186 252 280 335
#     4  10  19  38  65  83 107 149 189 241 303 349
#     4  10  20  35  55  88 114 141 201 233 282 352
#     4  11  18  39  55  74 119 156 187 236 274 340
#
# _framework density 21.610348999999999
#
# number of rings (size 3 to 8) (size 9 to 14) (size 15 to 20)
#    0.000    1.800    8.000    0.000    0.000    4.000 
#    3.600    0.000    0.000    0.000    0.000    1.400 
#    0.000    0.000    0.000    0.000    0.000    0.000 
#
# Total GULP energy -495678.668322 kJ/mol
# GULP energy per Si atom -12391.966708 kJ/mol
# Density = 2.156116 g / cm^3
# Si number density = 21.610349 Si / 1000 Ang^3
#
#
#
# Elastic Constant Matrix: (Units=GPa)
#
#
# Indices 1 2 3 4 5 6 
#
# 1 32.5563 8.5746 -15.6242 0.0000 0.0000 0.0000
# 2 8.5746 88.9742 -6.6362 0.0000 0.0000 0.0000
# 3 -15.6242 -6.6362 65.7796 0.0000 0.0000 0.0000
# 4 0.0000 0.0000 0.0000 -19.5388 0.0000 0.0000
# 5 0.0000 0.0000 0.0000 0.0000 21.3651 0.0000
# 6 0.0000 0.0000 0.0000 0.0000 0.0000 11.4431
#
#
#
# Elastic Compliance Matrix: (Units=1/GPa)
#
#
# Indices 1 2 3 4 5 6 
#
# 1 0.035347 -0.002801 0.008113 0.000000 0.000000 0.000000
# 2 -0.002801 0.011546 0.000499 0.000000 0.000000 0.000000
# 3 0.008113 0.000499 0.017180 0.000000 0.000000 0.000000
# 4 0.000000 0.000000 0.000000 -0.051180 0.000000 0.000000
# 5 0.000000 0.000000 0.000000 0.000000 0.046805 0.000000
# 6 0.000000 0.000000 0.000000 0.000000 0.000000 0.087389
#
#
# Mechanical properties :
#
#
# Convention : Reuss Voigt Hill
#
# Bulk Modulus (GPa) = 13.21067 17.77095 15.49081
# Shear Modulus (GPa) = 31.11449 16.05361 23.58405
#
# Velocity S-wave (km/s) = 3.79858 2.72851 3.30711
# Velocity P-wave (km/s) = 5.03640 4.26235 4.66546
#
# Compressibility (1/GPa) = 0.07569637
#
# Stress axis : x y z
#
# Youngs Moduli (GPa) = 28.29055 86.60675 58.20805
#
# Poissons Ratio (x) = 0.24262 -0.47226
# Poissons Ratio (y) = 0.07925 -0.02907
# Poissons Ratio (z) = -0.22953 -0.04326
#
# Static dielectric constant tensor:
#      x y z
#    x 4.264090 0.000000 0.000000 
#    y 0.000000 4.289320 0.000000 
#    z 0.000000 0.000000 3.954500 
# 
# 
# High freq. dielectric constant tensor:
#      x y z
#    x 1.833960 0.000000 0.000000 
#    y 0.000000 1.818490 0.000000 
#    z 0.000000 0.000000 1.850670 
# 
# From -- ./inp_files/21081.got.cif
#   From: 2010.03.12/outbox.cif.g09.slc.cpg/sg68_11_cif.got.tgz:21081.got - 2010.04.10 23:14:56.
