data_PCOD8282215
_publ_section_title
;
Structure prediction by ZEFSAII (Michael W. Deem and Ramdas Pophale) SiO2 
 PCOD8282215
Probable space group: C C C A
;
_chemical_formula_sum "Si O2"
_cell_formula_units_Z 112
_cell_length_a 17.338695
_cell_length_b 13.661028
_cell_length_c 21.378689
_cell_angle_alpha 90.000000
_cell_angle_beta 90.000000
_cell_angle_gamma 90.000000
_cell_volume 5063.850297
_symmetry_space_group_name_H-M "C C C A"
_symmetry_group_IT_number 68
_space_group.IT_coordinate_system_code '2'
_symmetry_cell_setting 'orthorhombic'
loop_
_space_group_symop_operation_xyz
x,y,z
-x,1/2-y,z
x,1/2-y,1/2-z
-x,y,1/2-z
-x,-y,-z
x,1/2+y,-z
-x,1/2+y,1/2+z
x,-y,1/2+z
1/2+x,1/2+y,z
1/2-x,-y,z
1/2+x,-y,1/2-z
1/2-x,1/2+y,1/2-z
1/2-x,1/2-y,-z
1/2+x,y,-z
1/2-x,y,1/2+z
1/2+x,1/2-y,1/2+z
loop_
_atom_site_type_symbol
_atom_site_label
_atom_site_fract_x
_atom_site_fract_y
_atom_site_fract_z
Si Si1 0.850693 0.157277 0.602451
Si Si2 0.157535 0.992288 0.666540
Si Si3 0.969304 0.392277 0.995434
Si Si4 0.117231 0.634543 0.436325
Si Si5 0.574713 0.195333 0.876766
Si Si6 0.089968 0.639944 0.235794
Si Si7 0.798245 0.815858 0.549744
O O1 0.887950 0.116626 0.538979
O O2 0.849380 0.276096 0.604408
O O3 0.891841 0.114351 0.663672
O O4 0.760631 0.126930 0.595999
O O5 0.123034 0.035574 0.602696
O O6 0.133067 0.056948 0.725439
O O7 0.250000 0.000000 0.663179
O O8 0.118704 0.883365 0.669204
O O9 0.029933 0.333067 0.952130
O O10 0.967091 0.353695 0.065018
O O11 0.000000 0.500000 0.000000
O O12 0.156460 0.611322 0.503625
O O13 0.500000 0.250000 0.843123
O O14 0.642325 0.263454 0.903511
O O15 0.120167 0.750000 0.250000
O O16 0.000000 0.632517 0.250000
O O17 0.750000 0.750000 0.500000
#
# Coordination Sequence:
#
# PCOD8282215 Si02
#       7
#    16  16  16  16  16  16  16
#     4  11  22  40  65  97 135 175 233 296 351 419
#     4  12  26  44  72 103 142 185 251 301 359 434
#     4  12  22  35  62 100 142 179 221 283 358 435
#     4  11  20  36  63 100 139 178 227 284 355 431
#     4  12  23  42  67 101 146 191 229 286 367 449
#     4  11  25  45  72  99 131 183 244 303 354 412
#     4  10  20  36  63 100 139 184 226 278 364 428
#
# _framework density 22.117557999999999
#
# number of rings (size 3 to 8) (size 9 to 14) (size 15 to 20)
#    0.000    0.714    7.143    3.000    2.000    0.000 
#    0.000    2.857    0.000    0.000    0.000    0.000 
#    0.000    0.000    0.000    0.000    0.000    0.000 
#
# Total GULP energy -693810.215053 kJ/mol
# GULP energy per Si atom -12389.468126 kJ/mol
# Density = 2.206722 g / cm^3
# Si number density = 22.117558 Si / 1000 Ang^3
#
#
#
# Elastic Constant Matrix: (Units=GPa)
#
#
# Indices 1 2 3 4 5 6 
#
# 1 147.1074 33.5385 30.3401 0.0000 0.0000 0.0000
# 2 33.5385 58.4411 25.9249 0.0000 0.0000 0.0000
# 3 30.3401 25.9249 75.9628 0.0000 0.0000 0.0000
# 4 0.0000 0.0000 0.0000 21.2387 0.0000 0.0000
# 5 0.0000 0.0000 0.0000 0.0000 29.9025 0.0000
# 6 0.0000 0.0000 0.0000 0.0000 0.0000 12.5072
#
#
#
# Elastic Compliance Matrix: (Units=1/GPa)
#
#
# Indices 1 2 3 4 5 6 
#
# 1 0.008055 -0.003765 -0.001932 0.000000 0.000000 0.000000
# 2 -0.003765 0.021924 -0.005978 0.000000 0.000000 0.000000
# 3 -0.001932 -0.005978 0.015976 0.000000 0.000000 0.000000
# 4 0.000000 0.000000 0.000000 0.047084 0.000000 0.000000
# 5 0.000000 0.000000 0.000000 0.000000 0.033442 0.000000
# 6 0.000000 0.000000 0.000000 0.000000 0.000000 0.079954
#
#
# Mechanical properties :
#
#
# Convention : Reuss Voigt Hill
#
# Bulk Modulus (GPa) = 44.24095 51.23537 47.73816
# Shear Modulus (GPa) = 21.06847 25.51020 23.28933
#
# Velocity S-wave (km/s) = 3.08972 3.39985 3.24848
# Velocity P-wave (km/s) = 5.72490 6.21508 5.97502
#
# Compressibility (1/GPa) = 0.02260349
#
# Stress axis : x y z
#
# Youngs Moduli (GPa) = 124.15135 45.61164 62.59255
#
# Poissons Ratio (x) = 0.17175 0.12093
# Poissons Ratio (y) = 0.46748 0.37421
# Poissons Ratio (z) = 0.23986 0.27269
#
# Static dielectric constant tensor:
#      x y z
#    x 4.934370 0.000000 0.000000 
#    y 0.000000 3.995940 0.000000 
#    z 0.000000 0.000000 3.894740 
# 
# 
# High freq. dielectric constant tensor:
#      x y z
#    x 1.893540 0.000000 0.000000 
#    y 0.000000 1.854380 0.000000 
#    z 0.000000 0.000000 1.844510 
# 
# From -- ./inp_files/45518.got.cif
#   From: 2010.03.12/outbox.cif.g09.slc.cpg/sg68_23_cif.got.tgz:45518.got - 2010.04.10 23:14:56.
