data_PCOD8282812
_publ_section_title
;
Structure prediction by ZEFSAII (Michael W. Deem and Ramdas Pophale) SiO2 
 PCOD8282812
Probable space group: C C C A
;
_chemical_formula_sum "Si O2"
_cell_formula_units_Z 96
_cell_length_a 25.916560
_cell_length_b 8.687515
_cell_length_c 19.991913
_cell_angle_alpha 90.000000
_cell_angle_beta 90.000000
_cell_angle_gamma 90.000000
_cell_volume 4501.189283
_symmetry_space_group_name_H-M "C C C A"
_symmetry_group_IT_number 68
_space_group.IT_coordinate_system_code '2'
_symmetry_cell_setting 'orthorhombic'
loop_
_space_group_symop_operation_xyz
x,y,z
-x,1/2-y,z
x,1/2-y,1/2-z
-x,y,1/2-z
-x,-y,-z
x,1/2+y,-z
-x,1/2+y,1/2+z
x,-y,1/2+z
1/2+x,1/2+y,z
1/2-x,-y,z
1/2+x,-y,1/2-z
1/2-x,1/2+y,1/2-z
1/2-x,1/2-y,-z
1/2+x,y,-z
1/2-x,y,1/2+z
1/2+x,1/2-y,1/2+z
loop_
_atom_site_type_symbol
_atom_site_label
_atom_site_fract_x
_atom_site_fract_y
_atom_site_fract_z
Si Si1 0.133718 0.605344 0.088458
Si Si2 0.802782 0.590029 0.287247
Si Si3 0.098567 0.425680 0.270961
Si Si4 0.052331 0.444239 0.408897
Si Si5 0.095689 0.825006 0.985702
Si Si6 0.966951 0.099290 0.669536
O O1 0.184076 0.620823 0.134785
O O2 0.128917 0.428763 0.064767
O O3 0.083497 0.655495 0.130333
O O4 0.137266 0.718460 0.024804
O O5 0.797191 0.750000 0.250000
O O6 0.750000 0.500000 0.281396
O O7 0.846901 0.487005 0.253925
O O8 0.091963 0.250000 0.250000
O O9 0.095761 0.447327 0.350689
O O10 0.050756 0.521905 0.239389
O O11 0.061991 0.574827 0.463648
O O12 0.055016 0.278756 0.444633
O O13 0.996226 0.473406 0.376546
O O14 0.000000 0.250000 0.685111
#
# Coordination Sequence:
#
# PCOD8282812 Si02
#       6
#    16  16  16  16  16  16
#     4  10  22  41  61  95 130 170 219 266 322 399
#     4  11  24  44  73  98 127 163 216 281 350 402
#     4  11  25  43  67  97 132 169 222 286 339 393
#     4  11  22  38  59  90 131 172 225 256 322 383
#     4  10  22  38  62  89 129 180 216 263 316 389
#     4  11  23  38  64  92 133 179 222 268 332 387
#
# _framework density 21.327697000000001
#
# number of rings (size 3 to 8) (size 9 to 14) (size 15 to 20)
#    0.000    1.333    1.667    4.000    2.333    8.000 
#    0.000    0.833    0.000    4.000    0.000    0.000 
#    0.000    0.000    0.000    0.000    0.000    0.000 
#
# Total GULP energy -595437.536532 kJ/mol
# GULP energy per Si atom -12404.948678 kJ/mol
# Density = 2.127915 g / cm^3
# Si number density = 21.327697 Si / 1000 Ang^3
#
#
#
# Elastic Constant Matrix: (Units=GPa)
#
#
# Indices 1 2 3 4 5 6 
#
# 1 107.0781 61.5027 49.3450 0.0000 0.0000 0.0000
# 2 61.5027 167.0233 65.6694 0.0000 0.0000 0.0000
# 3 49.3450 65.6694 133.2179 0.0000 0.0000 0.0000
# 4 0.0000 0.0000 0.0000 38.7700 0.0000 0.0000
# 5 0.0000 0.0000 0.0000 0.0000 17.9282 0.0000
# 6 0.0000 0.0000 0.0000 0.0000 0.0000 28.4360
#
#
#
# Elastic Compliance Matrix: (Units=1/GPa)
#
#
# Indices 1 2 3 4 5 6 
#
# 1 0.012733 -0.003516 -0.002983 0.000000 0.000000 0.000000
# 2 -0.003516 0.008397 -0.002837 0.000000 0.000000 0.000000
# 3 -0.002983 -0.002837 0.010010 0.000000 0.000000 0.000000
# 4 0.000000 0.000000 0.000000 0.025793 0.000000 0.000000
# 5 0.000000 0.000000 0.000000 0.000000 0.055778 0.000000
# 6 0.000000 0.000000 0.000000 0.000000 0.000000 0.035167
#
#
# Mechanical properties :
#
#
# Convention : Reuss Voigt Hill
#
# Bulk Modulus (GPa) = 80.20520 84.48371 82.34445
# Shear Modulus (GPa) = 29.28998 32.41367 30.85183
#
# Velocity S-wave (km/s) = 3.70987 3.90268 3.80750
# Velocity P-wave (km/s) = 7.48589 7.74636 7.61724
#
# Compressibility (1/GPa) = 0.01246802
#
# Stress axis : x y z
#
# Youngs Moduli (GPa) = 78.53518 119.08627 99.89858
#
# Poissons Ratio (x) = 0.41867 0.29804
# Poissons Ratio (y) = 0.27611 0.28343
# Poissons Ratio (z) = 0.23430 0.33787
#
# Static dielectric constant tensor:
#      x y z
#    x 3.686420 0.000000 0.000000 
#    y 0.000000 4.122080 0.000000 
#    z 0.000000 0.000000 4.285970 
# 
# 
# High freq. dielectric constant tensor:
#      x y z
#    x 1.792780 0.000000 0.000000 
#    y 0.000000 1.859080 0.000000 
#    z 0.000000 0.000000 1.860470 
# 
# From -- ./inp_files/41259.got.cif
#   From: 2010.03.12/outbox.cif.g09.slc.cpg/sg68_21_cif.got.tgz:41259.got - 2010.04.10 23:14:56.
