data_PCOD8282365
_publ_section_title
;
Structure prediction by ZEFSAII (Michael W. Deem and Ramdas Pophale) SiO2 
 PCOD8282365
Probable space group: C C C A
;
_chemical_formula_sum "Si O2"
_cell_formula_units_Z 104
_cell_length_a 20.334156
_cell_length_b 8.588864
_cell_length_c 26.994710
_cell_angle_alpha 90.000000
_cell_angle_beta 90.000000
_cell_angle_gamma 90.000000
_cell_volume 4714.553228
_symmetry_space_group_name_H-M "C C C A"
_symmetry_group_IT_number 68
_space_group.IT_coordinate_system_code '2'
_symmetry_cell_setting 'orthorhombic'
loop_
_space_group_symop_operation_xyz
x,y,z
-x,1/2-y,z
x,1/2-y,1/2-z
-x,y,1/2-z
-x,-y,-z
x,1/2+y,-z
-x,1/2+y,1/2+z
x,-y,1/2+z
1/2+x,1/2+y,z
1/2-x,-y,z
1/2+x,-y,1/2-z
1/2-x,1/2+y,1/2-z
1/2-x,1/2-y,-z
1/2+x,y,-z
1/2-x,y,1/2+z
1/2+x,1/2-y,1/2+z
loop_
_atom_site_type_symbol
_atom_site_label
_atom_site_fract_x
_atom_site_fract_y
_atom_site_fract_z
Si Si1 0.356291 0.786144 0.936778
Si Si2 0.287740 0.762587 0.106559
Si Si3 0.000000 0.250000 0.079364
Si Si4 0.695444 0.608503 0.213133
Si Si5 0.070302 0.069295 0.256789
Si Si6 0.102634 0.532676 0.631686
Si Si7 0.883545 0.941482 0.963040
O O1 0.281382 0.764529 0.919753
O O2 0.390122 0.626615 0.954932
O O3 0.399416 0.859703 0.891943
O O4 0.358913 0.910539 0.981423
O O5 0.278823 0.842519 0.159686
O O6 0.327672 0.602748 0.113218
O O7 0.328566 0.883273 0.074316
O O8 0.042040 0.361137 0.114764
O O9 0.046300 0.142367 0.045273
O O10 0.684580 0.750000 0.250000
O O11 0.750000 0.500000 0.237658
O O12 0.623902 0.520986 0.214114
O O13 0.055912 0.250000 0.250000
O O14 0.101450 0.022742 0.309399
O O15 0.000000 0.981358 0.250000
#
# Coordination Sequence:
#
# PCOD8282365 Si02
#       7
#    16  16   8  16  16  16  16
#     4  12  26  43  70 103 144 178 240 295 360 424
#     4  11  23  44  65 102 138 183 232 288 362 426
#     4  10  24  44  73  96 140 180 251 274 358 420
#     4  11  23  39  66 100 140 183 230 294 355 426
#     4  10  20  39  69 100 136 180 241 285 356 430
#     4  11  23  40  69 103 132 187 229 299 347 429
#     4  11  25  45  70 102 138 190 230 299 353 420
#
# _framework density 22.059353999999999
#
# number of rings (size 3 to 8) (size 9 to 14) (size 15 to 20)
#    0.000    1.077    3.077    5.077    4.308    4.308 
#    0.000    0.000    0.000    0.462    0.000    0.000 
#    0.000    0.000    0.000    0.000    0.000    0.000 
#
# Total GULP energy -644679.508617 kJ/mol
# GULP energy per Si atom -12397.682858 kJ/mol
# Density = 2.200915 g / cm^3
# Si number density = 22.059354 Si / 1000 Ang^3
#
#
#
# Elastic Constant Matrix: (Units=GPa)
#
#
# Indices 1 2 3 4 5 6 
#
# 1 156.0018 46.7143 27.1317 0.0000 0.0000 0.0000
# 2 46.7143 109.5350 43.3547 0.0000 0.0000 0.0000
# 3 27.1317 43.3547 114.0402 0.0000 0.0000 0.0000
# 4 0.0000 0.0000 0.0000 26.2636 0.0000 0.0000
# 5 0.0000 0.0000 0.0000 0.0000 38.3348 0.0000
# 6 0.0000 0.0000 0.0000 0.0000 0.0000 16.1307
#
#
#
# Elastic Compliance Matrix: (Units=1/GPa)
#
#
# Indices 1 2 3 4 5 6 
#
# 1 0.007391 -0.002891 -0.000659 0.000000 0.000000 0.000000
# 2 -0.002891 0.011877 -0.003828 0.000000 0.000000 0.000000
# 3 -0.000659 -0.003828 0.010381 0.000000 0.000000 0.000000
# 4 0.000000 0.000000 0.000000 0.038076 0.000000 0.000000
# 5 0.000000 0.000000 0.000000 0.000000 0.026086 0.000000
# 6 0.000000 0.000000 0.000000 0.000000 0.000000 0.061994
#
#
# Mechanical properties :
#
#
# Convention : Reuss Voigt Hill
#
# Bulk Modulus (GPa) = 67.14526 68.21983 67.68255
# Shear Modulus (GPa) = 28.48612 33.63757 31.06185
#
# Velocity S-wave (km/s) = 3.59742 3.90919 3.75654
# Velocity P-wave (km/s) = 6.91084 7.16718 7.04018
#
# Compressibility (1/GPa) = 0.01489308
#
# Stress axis : x y z
#
# Youngs Moduli (GPa) = 135.30827 84.19316 96.33130
#
# Poissons Ratio (x) = 0.24340 0.06351
# Poissons Ratio (y) = 0.39117 0.36872
# Poissons Ratio (z) = 0.08920 0.32226
#
# Static dielectric constant tensor:
#      x y z
#    x 4.538600 0.000000 0.000000 
#    y 0.000000 7.901790 0.000000 
#    z 0.000000 0.000000 4.069990 
# 
# 
# High freq. dielectric constant tensor:
#      x y z
#    x 1.885060 0.000000 0.000000 
#    y 0.000000 1.849090 0.000000 
#    z 0.000000 0.000000 1.873460 
# 
# From -- ./inp_files/51852.got.cif
#   From: 2010.03.12/outbox.cif.g09.slc.cpg/sg68_26_cif.got.tgz:51852.got - 2010.04.10 23:14:56.
