data_PCOD8282666
_publ_section_title
;
Structure prediction by ZEFSAII (Michael W. Deem and Ramdas Pophale) SiO2 
 PCOD8282666
Probable space group: C C C A
;
_chemical_formula_sum "Si O2"
_cell_formula_units_Z 68
_cell_length_a 13.820285
_cell_length_b 15.521915
_cell_length_c 15.451988
_cell_angle_alpha 90.000000
_cell_angle_beta 90.000000
_cell_angle_gamma 90.000000
_cell_volume 3314.718576
_symmetry_space_group_name_H-M "C C C A"
_symmetry_group_IT_number 68
_space_group.IT_coordinate_system_code '2'
_symmetry_cell_setting 'orthorhombic'
loop_
_space_group_symop_operation_xyz
x,y,z
-x,1/2-y,z
x,1/2-y,1/2-z
-x,y,1/2-z
-x,-y,-z
x,1/2+y,-z
-x,1/2+y,1/2+z
x,-y,1/2+z
1/2+x,1/2+y,z
1/2-x,-y,z
1/2+x,-y,1/2-z
1/2-x,1/2+y,1/2-z
1/2-x,1/2-y,-z
1/2+x,y,-z
1/2-x,y,1/2+z
1/2+x,1/2-y,1/2+z
loop_
_atom_site_type_symbol
_atom_site_label
_atom_site_fract_x
_atom_site_fract_y
_atom_site_fract_z
Si Si1 0.038449 0.120298 0.117206
Si Si2 0.000000 0.750000 0.750000
Si Si3 0.831867 0.358693 0.965027
Si Si4 0.623209 0.337349 0.012658
Si Si5 0.007152 0.428183 0.652049
O O1 0.068030 0.186527 0.193450
O O2 0.954323 0.167464 0.063245
O O3 0.001703 0.030683 0.155007
O O4 0.129781 0.104779 0.056174
O O5 0.718163 0.380946 0.969447
O O6 0.886839 0.405691 0.886214
O O7 0.851333 0.257333 0.953428
O O8 0.579383 0.389862 0.093581
O O9 0.000000 0.392137 0.750000
#
# Coordination Sequence:
#
# PCOD8282666 Si02
#       5
#    16   4  16  16  16
#     4  11  21  39  62  82 118 157 196 252 298 351
#     4  12  20  40  60  84 116 154 216 240 288 356
#     4  10  21  40  62  85 119 160 194 237 306 361
#     4  10  21  40  62  85 119 160 194 237 306 361
#     4  11  23  38  60  92 120 154 200 252 298 348
#
# _framework density 20.514562999999999
#
# number of rings (size 3 to 8) (size 9 to 14) (size 15 to 20)
#    0.000    1.412    3.529    4.941    0.000    5.647 
#    4.235    2.353    0.000    0.000    0.000    0.000 
#    0.000    0.000    0.000    0.000    0.000    0.000 
#
# Total GULP energy -421500.949952 kJ/mol
# GULP energy per Si atom -12397.086763 kJ/mol
# Density = 2.046787 g / cm^3
# Si number density = 20.514563 Si / 1000 Ang^3
#
#
#
# Elastic Constant Matrix: (Units=GPa)
#
#
# Indices 1 2 3 4 5 6 
#
# 1 114.0944 24.6082 41.5392 0.0000 0.0000 0.0000
# 2 24.6082 94.3456 41.5276 0.0000 0.0000 0.0000
# 3 41.5392 41.5276 140.0873 0.0000 0.0000 0.0000
# 4 0.0000 0.0000 0.0000 31.7118 0.0000 0.0000
# 5 0.0000 0.0000 0.0000 0.0000 10.4324 0.0000
# 6 0.0000 0.0000 0.0000 0.0000 0.0000 19.5728
#
#
#
# Elastic Compliance Matrix: (Units=1/GPa)
#
#
# Indices 1 2 3 4 5 6 
#
# 1 0.010007 -0.001500 -0.002523 0.000000 0.000000 0.000000
# 2 -0.001500 0.012415 -0.003236 0.000000 0.000000 0.000000
# 3 -0.002523 -0.003236 0.008846 0.000000 0.000000 0.000000
# 4 0.000000 0.000000 0.000000 0.031534 0.000000 0.000000
# 5 0.000000 0.000000 0.000000 0.000000 0.095856 0.000000
# 6 0.000000 0.000000 0.000000 0.000000 0.000000 0.051091
#
#
# Mechanical properties :
#
#
# Convention : Reuss Voigt Hill
#
# Bulk Modulus (GPa) = 59.69730 62.65303 61.17516
# Shear Modulus (GPa) = 21.75360 28.40021 25.07690
#
# Velocity S-wave (km/s) = 3.25991 3.72478 3.50007
# Velocity P-wave (km/s) = 6.58274 7.00755 6.79846
#
# Compressibility (1/GPa) = 0.01675118
#
# Stress axis : x y z
#
# Youngs Moduli (GPa) = 99.93450 80.54996 113.05090
#
# Poissons Ratio (x) = 0.12080 0.28519
# Poissons Ratio (y) = 0.14987 0.36578
# Poissons Ratio (z) = 0.25210 0.26062
#
# Static dielectric constant tensor:
#      x y z
#    x 3.775180 0.000000 0.000000 
#    y 0.000000 3.767090 0.000000 
#    z 0.000000 0.000000 3.817950 
# 
# 
# High freq. dielectric constant tensor:
#      x y z
#    x 1.784290 0.000000 0.000000 
#    y 0.000000 1.817690 0.000000 
#    z 0.000000 0.000000 1.797250 
# 
# From -- ./inp_files/30767.got.cif
#   From: 2010.03.12/outbox.cif.g09.slc.cpg/sg68_16_cif.got.tgz:30767.got - 2010.04.10 23:14:56.
