data_PCOD8282591
_publ_section_title
;
Structure prediction by ZEFSAII (Michael W. Deem and Ramdas Pophale) SiO2 
 PCOD8282591
Probable space group: C C C A
;
_chemical_formula_sum "Si O2"
_cell_formula_units_Z 72
_cell_length_a 10.011564
_cell_length_b 19.861552
_cell_length_c 18.786143
_cell_angle_alpha 90.000000
_cell_angle_beta 90.000000
_cell_angle_gamma 90.000000
_cell_volume 3735.534343
_symmetry_space_group_name_H-M "C C C A"
_symmetry_group_IT_number 68
_space_group.IT_coordinate_system_code '2'
_symmetry_cell_setting 'orthorhombic'
loop_
_space_group_symop_operation_xyz
x,y,z
-x,1/2-y,z
x,1/2-y,1/2-z
-x,y,1/2-z
-x,-y,-z
x,1/2+y,-z
-x,1/2+y,1/2+z
x,-y,1/2+z
1/2+x,1/2+y,z
1/2-x,-y,z
1/2+x,-y,1/2-z
1/2-x,1/2+y,1/2-z
1/2-x,1/2-y,-z
1/2+x,y,-z
1/2-x,y,1/2+z
1/2+x,1/2-y,1/2+z
loop_
_atom_site_type_symbol
_atom_site_label
_atom_site_fract_x
_atom_site_fract_y
_atom_site_fract_z
Si Si1 0.285468 0.817335 0.537800
Si Si2 0.134291 0.205874 0.691141
Si Si3 0.974090 0.398466 0.015263
Si Si4 0.500000 0.578997 0.750000
Si Si5 0.591907 0.995193 0.609714
O O1 0.250000 0.750000 0.500000
O O2 0.281816 0.799814 0.620580
O O3 0.176866 0.874896 0.525654
O O4 0.428585 0.838092 0.506832
O O5 0.216163 0.250000 0.750000
O O6 0.111639 0.129202 0.718107
O O7 0.000000 0.250000 0.677139
O O8 0.026791 0.432701 0.088681
O O9 0.975434 0.445897 0.946784
O O10 0.442960 0.529597 0.689094
O O11 0.750000 0.000000 0.600931
#
# Coordination Sequence:
#
# PCOD8282591 Si02
#       5
#    16  16  16   8  16
#     4  12  23  40  67  95 127 167 215 264 324 377
#     4   9  20  37  61  91 128 166 211 260 308 389
#     4  11  24  41  64  96 128 166 212 266 321 379
#     4  10  21  38  64  88 125 176 216 246 322 386
#     4  11  23  41  63  93 133 170 211 267 314 386
#
# _framework density 19.274352
#
# number of rings (size 3 to 8) (size 9 to 14) (size 15 to 20)
#    0.000    1.556    4.444    2.000    3.111    1.778 
#    0.000    0.000    0.000    4.000    0.000    0.000 
#    0.000    0.000    0.000    0.000    0.000    0.000 
#
# Total GULP energy -446175.694781 kJ/mol
# GULP energy per Si atom -12393.769299 kJ/mol
# Density = 1.923048 g / cm^3
# Si number density = 19.274352 Si / 1000 Ang^3
#
#
#
# Elastic Constant Matrix: (Units=GPa)
#
#
# Indices 1 2 3 4 5 6 
#
# 1 55.4244 9.9512 23.8219 0.0000 0.0000 0.0000
# 2 9.9512 73.6636 46.6261 0.0000 0.0000 0.0000
# 3 23.8219 46.6261 139.6475 0.0000 0.0000 0.0000
# 4 0.0000 0.0000 0.0000 35.2519 0.0000 0.0000
# 5 0.0000 0.0000 0.0000 0.0000 31.9732 0.0000
# 6 0.0000 0.0000 0.0000 0.0000 0.0000 32.4807
#
#
#
# Elastic Compliance Matrix: (Units=1/GPa)
#
#
# Indices 1 2 3 4 5 6 
#
# 1 0.019496 -0.000670 -0.003102 0.000000 0.000000 0.000000
# 2 -0.000670 0.017236 -0.005640 0.000000 0.000000 0.000000
# 3 -0.003102 -0.005640 0.009573 0.000000 0.000000 0.000000
# 4 0.000000 0.000000 0.000000 0.028367 0.000000 0.000000
# 5 0.000000 0.000000 0.000000 0.000000 0.031276 0.000000
# 6 0.000000 0.000000 0.000000 0.000000 0.000000 0.030788
#
#
# Mechanical properties :
#
#
# Convention : Reuss Voigt Hill
#
# Bulk Modulus (GPa) = 36.39018 47.72599 42.05808
# Shear Modulus (GPa) = 30.35417 32.49689 31.42553
#
# Velocity S-wave (km/s) = 3.97274 4.11057 4.04224
# Velocity P-wave (km/s) = 6.32176 6.88071 6.60715
#
# Compressibility (1/GPa) = 0.02747994
#
# Stress axis : x y z
#
# Youngs Moduli (GPa) = 51.29206 58.01822 104.45717
#
# Poissons Ratio (x) = 0.03889 0.32402
# Poissons Ratio (y) = 0.03438 0.58919
# Poissons Ratio (z) = 0.15911 0.32725
#
# Static dielectric constant tensor:
#      x y z
#    x 3.380440 0.000000 0.000000 
#    y 0.000000 3.670960 0.000000 
#    z 0.000000 0.000000 3.829090 
# 
# 
# High freq. dielectric constant tensor:
#      x y z
#    x 1.727110 0.000000 0.000000 
#    y 0.000000 1.760930 0.000000 
#    z 0.000000 0.000000 1.760800 
# 
# From -- ./inp_files/29391.got.cif
#   From: 2010.03.12/outbox.cif.g09.slc.cpg/sg68_15_cif.got.tgz:29391.got - 2010.04.10 23:14:56.
