data_PCOD8282132
_publ_section_title
;
Structure prediction by ZEFSAII (Michael W. Deem and Ramdas Pophale) SiO2 
 PCOD8282132
Probable space group: C C C A
;
_chemical_formula_sum "Si O2"
_cell_formula_units_Z 112
_cell_length_a 16.007720
_cell_length_b 29.079369
_cell_length_c 11.851162
_cell_angle_alpha 90.000000
_cell_angle_beta 90.000000
_cell_angle_gamma 90.000000
_cell_volume 5516.649506
_symmetry_space_group_name_H-M "C C C A"
_symmetry_group_IT_number 68
_space_group.IT_coordinate_system_code '2'
_symmetry_cell_setting 'orthorhombic'
loop_
_space_group_symop_operation_xyz
x,y,z
-x,1/2-y,z
x,1/2-y,1/2-z
-x,y,1/2-z
-x,-y,-z
x,1/2+y,-z
-x,1/2+y,1/2+z
x,-y,1/2+z
1/2+x,1/2+y,z
1/2-x,-y,z
1/2+x,-y,1/2-z
1/2-x,1/2+y,1/2-z
1/2-x,1/2-y,-z
1/2+x,y,-z
1/2-x,y,1/2+z
1/2+x,1/2-y,1/2+z
loop_
_atom_site_type_symbol
_atom_site_label
_atom_site_fract_x
_atom_site_fract_y
_atom_site_fract_z
Si Si1 0.034270 0.089054 0.638537
Si Si2 0.702066 0.131220 0.886024
Si Si3 0.205559 0.564747 0.682528
Si Si4 0.349912 0.495580 0.337404
Si Si5 0.096927 0.696856 0.736959
Si Si6 0.366922 0.444526 0.044811
Si Si7 0.641711 0.140426 0.523293
O O1 0.060405 0.129072 0.551862
O O2 0.000000 0.114955 0.750000
O O3 0.957804 0.057985 0.598206
O O4 0.111333 0.055174 0.672672
O O5 0.731712 0.097959 0.785691
O O6 0.643010 0.170673 0.837440
O O7 0.654085 0.103535 0.983520
O O8 0.782906 0.155556 0.941346
O O9 0.133609 0.528745 0.727790
O O10 0.293492 0.542950 0.636370
O O11 0.162326 0.592026 0.582145
O O12 0.250000 0.500000 0.339361
O O13 0.379182 0.514509 0.457032
O O14 0.118887 0.750000 0.750000
O O15 0.125179 0.680562 0.612753
O O16 0.000000 0.686351 0.750000
#
# Coordination Sequence:
#
# PCOD8282132 Si02
#       7
#    16  16  16  16  16  16  16
#     4  12  24  35  51  77 107 144 191 239 285 332
#     4   9  18  36  60  84 110 144 183 224 278 346
#     4   9  19  36  55  75 105 147 192 235 282 339
#     4  11  22  34  49  72 105 145 191 237 282 328
#     4  10  21  38  62  92 119 144 182 231 286 348
#     4  10  20  35  53  74 105 144 187 235 283 326
#     4  10  21  38  59  81 111 152 190 231 288 343
#
# _framework density 20.302178999999999
#
# number of rings (size 3 to 8) (size 9 to 14) (size 15 to 20)
#    0.000    1.857    0.000    5.571    0.000    5.714 
#    0.000    1.429    0.000    0.000    0.000    1.000 
#    0.000    0.000    0.000    0.000    0.000    0.000 
#
# Total GULP energy -694105.836136 kJ/mol
# GULP energy per Si atom -12394.747074 kJ/mol
# Density = 2.025597 g / cm^3
# Si number density = 20.302179 Si / 1000 Ang^3
#
#
#
# Elastic Constant Matrix: (Units=GPa)
#
#
# Indices 1 2 3 4 5 6 
#
# 1 75.6438 23.7854 35.0842 0.0000 0.0000 0.0000
# 2 23.7854 70.7876 28.4446 0.0000 0.0000 0.0000
# 3 35.0842 28.4446 103.2024 0.0000 0.0000 0.0000
# 4 0.0000 0.0000 0.0000 17.5136 0.0000 0.0000
# 5 0.0000 0.0000 0.0000 0.0000 36.4827 0.0000
# 6 0.0000 0.0000 0.0000 0.0000 0.0000 24.5872
#
#
#
# Elastic Compliance Matrix: (Units=1/GPa)
#
#
# Indices 1 2 3 4 5 6 
#
# 1 0.016515 -0.003703 -0.004594 0.000000 0.000000 0.000000
# 2 -0.003703 0.016717 -0.003348 0.000000 0.000000 0.000000
# 3 -0.004594 -0.003348 0.012174 0.000000 0.000000 0.000000
# 4 0.000000 0.000000 0.000000 0.057098 0.000000 0.000000
# 5 0.000000 0.000000 0.000000 0.000000 0.027410 0.000000
# 6 0.000000 0.000000 0.000000 0.000000 0.000000 0.040672
#
#
# Mechanical properties :
#
#
# Convention : Reuss Voigt Hill
#
# Bulk Modulus (GPa) = 45.21832 47.14025 46.17929
# Shear Modulus (GPa) = 24.84491 26.53801 25.69146
#
# Velocity S-wave (km/s) = 3.50202 3.61938 3.56118
# Velocity P-wave (km/s) = 6.21877 6.38249 6.30117
#
# Compressibility (1/GPa) = 0.02211493
#
# Stress axis : x y z
#
# Youngs Moduli (GPa) = 60.55148 59.82067 82.14078
#
# Poissons Ratio (x) = 0.22153 0.37732
# Poissons Ratio (y) = 0.22424 0.27505
# Poissons Ratio (z) = 0.27815 0.20031
#
# Static dielectric constant tensor:
#      x y z
#    x 3.665870 0.000000 0.000000 
#    y 0.000000 3.455900 0.000000 
#    z 0.000000 0.000000 4.338220 
# 
# 
# High freq. dielectric constant tensor:
#      x y z
#    x 1.794250 0.000000 0.000000 
#    y 0.000000 1.748640 0.000000 
#    z 0.000000 0.000000 1.824740 
# 
# From -- ./inp_files/13591.got.cif
#   From: 2010.03.12/outbox.cif.g09.slc.cpg/sg68_7_cif.got.tgz:13591.got - 2010.04.10 23:14:56.
