data_PCOD8282008
_publ_section_title
;
Structure prediction by ZEFSAII (Michael W. Deem and Ramdas Pophale) SiO2 
 PCOD8282008
Probable space group: C C C A
;
_chemical_formula_sum "Si O2"
_cell_formula_units_Z 76
_cell_length_a 23.982807
_cell_length_b 11.340289
_cell_length_c 14.128735
_cell_angle_alpha 90.000000
_cell_angle_beta 90.000000
_cell_angle_gamma 90.000000
_cell_volume 3842.619784
_symmetry_space_group_name_H-M "C C C A"
_symmetry_group_IT_number 68
_space_group.IT_coordinate_system_code '2'
_symmetry_cell_setting 'orthorhombic'
loop_
_space_group_symop_operation_xyz
x,y,z
-x,1/2-y,z
x,1/2-y,1/2-z
-x,y,1/2-z
-x,-y,-z
x,1/2+y,-z
-x,1/2+y,1/2+z
x,-y,1/2+z
1/2+x,1/2+y,z
1/2-x,-y,z
1/2+x,-y,1/2-z
1/2-x,1/2+y,1/2-z
1/2-x,1/2-y,-z
1/2+x,y,-z
1/2-x,y,1/2+z
1/2+x,1/2-y,1/2+z
loop_
_atom_site_type_symbol
_atom_site_label
_atom_site_fract_x
_atom_site_fract_y
_atom_site_fract_z
Si Si1 0.250000 0.000000 0.925097
Si Si2 0.902018 0.665322 0.863072
Si Si3 0.344470 0.586063 0.960051
Si Si4 0.268476 0.747103 0.850764
Si Si5 0.500000 0.250000 0.750000
Si Si6 0.344543 0.107416 0.679883
O O1 0.254185 0.121200 0.866823
O O2 0.305227 0.991595 0.988080
O O3 0.963940 0.662133 0.817938
O O4 0.857504 0.601000 0.792793
O O5 0.887283 0.803108 0.869278
O O6 0.896759 0.613427 0.969944
O O7 0.309849 0.705397 0.934716
O O8 0.360006 0.521148 0.862294
O O9 0.300686 0.750000 0.750000
O O10 0.218178 0.652737 0.839030
#
# Coordination Sequence:
#
# PCOD8282008 Si02
#       6
#     8  16  16  16   4  16
#     4  12  22  32  52  78 126 164 200 232 276 360
#     4  10  21  40  59  87 109 155 205 253 295 353
#     4  12  22  34  56  86 125 154 198 240 298 350
#     4  12  23  33  51  84 126 170 196 227 285 360
#     4   8  20  44  72  76 114 154 212 256 296 358
#     4  10  19  37  55  80 119 161 195 237 289 358
#
# _framework density 19.778172999999999
#
# number of rings (size 3 to 8) (size 9 to 14) (size 15 to 20)
#    0.000    1.263    6.316    1.895    5.895    0.000 
#    0.000    4.211    0.000    0.000    0.000    0.000 
#    0.000    0.000    0.000    0.000    0.000    0.000 
#
# Total GULP energy -470770.269517 kJ/mol
# GULP energy per Si atom -12388.691303 kJ/mol
# Density = 1.973316 g / cm^3
# Si number density = 19.778173 Si / 1000 Ang^3
#
#
#
# Elastic Constant Matrix: (Units=GPa)
#
#
# Indices 1 2 3 4 5 6 
#
# 1 85.4328 17.5508 42.8292 0.0000 0.0000 0.0000
# 2 17.5508 92.6893 48.2691 0.0000 0.0000 0.0000
# 3 42.8292 48.2691 110.8179 0.0000 0.0000 0.0000
# 4 0.0000 0.0000 0.0000 21.9639 0.0000 0.0000
# 5 0.0000 0.0000 0.0000 0.0000 33.9500 0.0000
# 6 0.0000 0.0000 0.0000 0.0000 0.0000 12.7471
#
#
#
# Elastic Compliance Matrix: (Units=1/GPa)
#
#
# Indices 1 2 3 4 5 6 
#
# 1 0.014522 0.000224 -0.005710 0.000000 0.000000 0.000000
# 2 0.000224 0.013957 -0.006166 0.000000 0.000000 0.000000
# 3 -0.005710 -0.006166 0.013916 0.000000 0.000000 0.000000
# 4 0.000000 0.000000 0.000000 0.045529 0.000000 0.000000
# 5 0.000000 0.000000 0.000000 0.000000 0.029455 0.000000
# 6 0.000000 0.000000 0.000000 0.000000 0.000000 0.078449
#
#
# Mechanical properties :
#
#
# Convention : Reuss Voigt Hill
#
# Bulk Modulus (GPa) = 52.37990 56.24870 54.31430
# Shear Modulus (GPa) = 22.17329 25.75160 23.96245
#
# Velocity S-wave (km/s) = 3.35191 3.61227 3.48452
# Velocity P-wave (km/s) = 6.44373 6.77492 6.61140
#
# Compressibility (1/GPa) = 0.01909129
#
# Stress axis : x y z
#
# Youngs Moduli (GPa) = 68.86307 71.64692 71.85846
#
# Poissons Ratio (x) = -0.01603 0.41030
# Poissons Ratio (y) = -0.01541 0.44307
# Poissons Ratio (z) = 0.39320 0.44177
#
# Static dielectric constant tensor:
#      x y z
#    x 3.313410 0.000000 0.000000 
#    y 0.000000 3.436010 0.000000 
#    z 0.000000 0.000000 3.874400 
# 
# 
# High freq. dielectric constant tensor:
#      x y z
#    x 1.713920 0.000000 0.000000 
#    y 0.000000 1.756190 0.000000 
#    z 0.000000 0.000000 1.787550 
# 
# From -- ./inp_files/25198.got.cif
#   From: 2010.03.12/outbox.cif.g09.slc.cpg/sg68_13_cif.got.tgz:25198.got - 2010.04.10 23:14:56.
