data_PCOD8282996
_publ_section_title
;
Structure prediction by ZEFSAII (Michael W. Deem and Ramdas Pophale) SiO2 
 PCOD8282996
Probable space group: C C C A
;
_chemical_formula_sum "Si O2"
_cell_formula_units_Z 88
_cell_length_a 15.278922
_cell_length_b 13.157243
_cell_length_c 19.306359
_cell_angle_alpha 90.000000
_cell_angle_beta 90.000000
_cell_angle_gamma 90.000000
_cell_volume 3881.128188
_symmetry_space_group_name_H-M "C C C A"
_symmetry_group_IT_number 68
_space_group.IT_coordinate_system_code '2'
_symmetry_cell_setting 'orthorhombic'
loop_
_space_group_symop_operation_xyz
x,y,z
-x,1/2-y,z
x,1/2-y,1/2-z
-x,y,1/2-z
-x,-y,-z
x,1/2+y,-z
-x,1/2+y,1/2+z
x,-y,1/2+z
1/2+x,1/2+y,z
1/2-x,-y,z
1/2+x,-y,1/2-z
1/2-x,1/2+y,1/2-z
1/2-x,1/2-y,-z
1/2+x,y,-z
1/2-x,y,1/2+z
1/2+x,1/2-y,1/2+z
loop_
_atom_site_type_symbol
_atom_site_label
_atom_site_fract_x
_atom_site_fract_y
_atom_site_fract_z
Si Si1 0.158476 0.440475 0.408611
Si Si2 0.902163 0.254569 0.169080
Si Si3 0.879256 0.332784 0.949732
Si Si4 0.750379 0.886957 0.657981
Si Si5 0.934302 0.857362 0.384632
Si Si6 0.629790 0.750000 0.750000
O O1 0.250000 0.500000 0.418790
O O2 0.156021 0.355331 0.348542
O O3 0.120852 0.374823 0.472894
O O4 0.090743 0.525822 0.386541
O O5 0.914077 0.250000 0.250000
O O6 0.848070 0.155511 0.145842
O O7 0.000000 0.250000 0.134722
O O8 0.794432 0.384349 0.917056
O O9 0.876142 0.208741 0.940659
O O10 0.964866 0.360251 0.905773
O O11 0.694731 0.826109 0.712954
O O12 0.750000 0.000000 0.687149
O O13 0.927765 0.811325 0.306744
#
# Coordination Sequence:
#
# PCOD8282996 Si02
#       6
#    16  16  16  16  16   8
#     4  12  26  45  79 104 149 202 251 304 380 459
#     4  11  28  49  68 107 149 194 249 314 378 457
#     4  10  24  45  66 113 144 186 250 310 368 445
#     4  11  24  41  73  99 147 190 242 310 373 442
#     4  10  24  43  72 107 147 199 244 315 372 442
#     4  10  22  43  69 108 146 184 259 306 374 439
#
# _framework density 22.673819999999999
#
# number of rings (size 3 to 8) (size 9 to 14) (size 15 to 20)
#    0.000    1.273    0.909    3.273    7.636   10.182 
#    0.000    0.000    0.000    0.000    0.000    0.000 
#    0.000    0.000    0.000    0.000    0.000    0.000 
#
# Total GULP energy -545271.522514 kJ/mol
# GULP energy per Si atom -12392.534603 kJ/mol
# Density = 2.262221 g / cm^3
# Si number density = 22.673820 Si / 1000 Ang^3
#
#
#
# Elastic Constant Matrix: (Units=GPa)
#
#
# Indices 1 2 3 4 5 6 
#
# 1 127.9840 43.2003 39.0022 0.0000 0.0000 0.0000
# 2 43.2003 165.2396 50.0385 0.0000 0.0000 0.0000
# 3 39.0022 50.0385 113.6857 0.0000 0.0000 0.0000
# 4 0.0000 0.0000 0.0000 19.2017 0.0000 0.0000
# 5 0.0000 0.0000 0.0000 0.0000 87.1378 0.0000
# 6 0.0000 0.0000 0.0000 0.0000 0.0000 19.4367
#
#
#
# Elastic Compliance Matrix: (Units=1/GPa)
#
#
# Indices 1 2 3 4 5 6 
#
# 1 0.009102 -0.001654 -0.002394 0.000000 0.000000 0.000000
# 2 -0.001654 0.007283 -0.002638 0.000000 0.000000 0.000000
# 3 -0.002394 -0.002638 0.010779 0.000000 0.000000 0.000000
# 4 0.000000 0.000000 0.000000 0.052079 0.000000 0.000000
# 5 0.000000 0.000000 0.000000 0.000000 0.011476 0.000000
# 6 0.000000 0.000000 0.000000 0.000000 0.000000 0.051449
#
#
# Mechanical properties :
#
#
# Convention : Reuss Voigt Hill
#
# Bulk Modulus (GPa) = 72.51701 74.59903 73.55802
# Shear Modulus (GPa) = 31.22314 43.46647 37.34480
#
# Velocity S-wave (km/s) = 3.71490 4.38314 4.06278
# Velocity P-wave (km/s) = 7.10301 7.65430 7.38380
#
# Compressibility (1/GPa) = 0.01378987
#
# Stress axis : x y z
#
# Youngs Moduli (GPa) = 109.87110 137.30143 92.77525
#
# Poissons Ratio (x) = 0.22716 0.22213
# Poissons Ratio (y) = 0.18178 0.24475
# Poissons Ratio (z) = 0.26306 0.36221
#
# Static dielectric constant tensor:
#      x y z
#    x 4.415710 0.000000 0.000000 
#    y 0.000000 4.425290 0.000000 
#    z 0.000000 0.000000 4.148580 
# 
# 
# High freq. dielectric constant tensor:
#      x y z
#    x 1.906780 0.000000 0.000000 
#    y 0.000000 1.900840 0.000000 
#    z 0.000000 0.000000 1.890600 
# 
# From -- ./inp_files/38495.got.cif
#   From: 2010.03.12/outbox.cif.g09.slc.cpg/sg68_20_cif.got.tgz:38495.got - 2010.04.10 23:14:56.
