data_PCOD8282963
_publ_section_title
;
Structure prediction by ZEFSAII (Michael W. Deem and Ramdas Pophale) SiO2 
 PCOD8282963
Probable space group: C C C A
;
_chemical_formula_sum "Si O2"
_cell_formula_units_Z 104
_cell_length_a 18.824184
_cell_length_b 27.282637
_cell_length_c 9.133056
_cell_angle_alpha 90.000000
_cell_angle_beta 90.000000
_cell_angle_gamma 90.000000
_cell_volume 4690.494430
_symmetry_space_group_name_H-M "C C C A"
_symmetry_group_IT_number 68
_space_group.IT_coordinate_system_code '2'
_symmetry_cell_setting 'orthorhombic'
loop_
_space_group_symop_operation_xyz
x,y,z
-x,1/2-y,z
x,1/2-y,1/2-z
-x,y,1/2-z
-x,-y,-z
x,1/2+y,-z
-x,1/2+y,1/2+z
x,-y,1/2+z
1/2+x,1/2+y,z
1/2-x,-y,z
1/2+x,-y,1/2-z
1/2-x,1/2+y,1/2-z
1/2-x,1/2-y,-z
1/2+x,y,-z
1/2-x,y,1/2+z
1/2+x,1/2-y,1/2+z
loop_
_atom_site_type_symbol
_atom_site_label
_atom_site_fract_x
_atom_site_fract_y
_atom_site_fract_z
Si Si1 0.177297 0.750000 0.250000
Si Si2 0.265319 0.607947 0.446762
Si Si3 0.789706 0.673431 0.789930
Si Si4 0.599715 0.250000 0.750000
Si Si5 0.124528 0.937102 0.146620
Si Si6 0.828442 0.985432 0.078845
Si Si7 0.558585 0.214391 0.053124
Si Si8 0.500000 0.369902 0.250000
O O1 0.225256 0.703181 0.284739
O O2 0.133386 0.735796 0.105914
O O3 0.236484 0.637657 0.584331
O O4 0.317060 0.641103 0.347072
O O5 0.196847 0.594204 0.348041
O O6 0.315757 0.562019 0.478741
O O7 0.852423 0.710174 0.838731
O O8 0.555613 0.280644 0.626103
O O9 0.121555 0.972856 0.285658
O O10 0.055448 0.902433 0.155506
O O11 0.128999 0.970985 0.001947
O O12 0.750000 0.000000 0.135929
O O13 0.500000 0.250000 0.120699
O O14 0.542153 0.161105 0.124675
#
# Coordination Sequence:
#
# PCOD8282963 Si02
#       8
#     8  16  16   8  16  16  16   8
#     4  11  21  42  66  94 137 177 222 270 332 401
#     4  11  21  38  67 103 135 170 213 268 343 407
#     4  11  23  37  66 106 135 172 212 280 339 393
#     4  11  27  40  64 102 143 169 226 288 330 377
#     4  11  25  43  69  95 132 172 225 272 335 405
#     4  10  22  42  69 100 132 164 208 282 350 399
#     4  12  24  45  66  90 135 189 231 266 321 390
#     4  12  27  46  72  92 126 194 232 265 324 406
#
# _framework density 22.172502999999999
#
# number of rings (size 3 to 8) (size 9 to 14) (size 15 to 20)
#    0.000    0.923    3.077    4.385    6.462    3.077 
#    0.000    0.000    0.000    0.000    0.000    0.000 
#    0.000    0.000    0.000    0.000    0.000    0.000 
#
# Total GULP energy -644384.922137 kJ/mol
# GULP energy per Si atom -12392.017733 kJ/mol
# Density = 2.212204 g / cm^3
# Si number density = 22.172503 Si / 1000 Ang^3
#
#
#
# Elastic Constant Matrix: (Units=GPa)
#
#
# Indices 1 2 3 4 5 6 
#
# 1 67.2532 35.3657 22.0038 0.0000 0.0000 0.0000
# 2 35.3657 115.2862 40.5818 0.0000 0.0000 0.0000
# 3 22.0038 40.5818 107.0311 0.0000 0.0000 0.0000
# 4 0.0000 0.0000 0.0000 41.3142 0.0000 0.0000
# 5 0.0000 0.0000 0.0000 0.0000 24.8895 0.0000
# 6 0.0000 0.0000 0.0000 0.0000 0.0000 21.9778
#
#
#
# Elastic Compliance Matrix: (Units=1/GPa)
#
#
# Indices 1 2 3 4 5 6 
#
# 1 0.018044 -0.004881 -0.001859 0.000000 0.000000 0.000000
# 2 -0.004881 0.011330 -0.003293 0.000000 0.000000 0.000000
# 3 -0.001859 -0.003293 0.010974 0.000000 0.000000 0.000000
# 4 0.000000 0.000000 0.000000 0.024205 0.000000 0.000000
# 5 0.000000 0.000000 0.000000 0.000000 0.040178 0.000000
# 6 0.000000 0.000000 0.000000 0.000000 0.000000 0.045501
#
#
# Mechanical properties :
#
#
# Convention : Reuss Voigt Hill
#
# Bulk Modulus (GPa) = 49.30172 53.94143 51.62157
# Shear Modulus (GPa) = 28.23952 30.41091 29.32521
#
# Velocity S-wave (km/s) = 3.57266 3.70747 3.64069
# Velocity P-wave (km/s) = 6.26916 6.53514 6.40353
#
# Compressibility (1/GPa) = 0.02028327
#
# Stress axis : x y z
#
# Youngs Moduli (GPa) = 55.41996 88.25833 91.12740
#
# Poissons Ratio (x) = 0.43078 0.16940
# Poissons Ratio (y) = 0.27050 0.30004
# Poissons Ratio (z) = 0.10302 0.29060
#
# Static dielectric constant tensor:
#      x y z
#    x 3.838970 0.000000 0.000000 
#    y 0.000000 4.392980 0.000000 
#    z 0.000000 0.000000 3.904130 
# 
# 
# High freq. dielectric constant tensor:
#      x y z
#    x 1.845400 0.000000 0.000000 
#    y 0.000000 1.887660 0.000000 
#    z 0.000000 0.000000 1.877030 
# 
# From -- ./inp_files/7410.got.cif
#   From: 2010.03.12/outbox.cif.g09.slc.cpg/sg68_4_cif.got.tgz:7410.got - 2010.04.10 23:14:56.
