data_PCOD8282188
_publ_section_title
;
Structure prediction by ZEFSAII (Michael W. Deem and Ramdas Pophale) SiO2 
 PCOD8282188
Probable space group: C C C A
;
_chemical_formula_sum "Si O2"
_cell_formula_units_Z 56
_cell_length_a 27.818417
_cell_length_b 10.726625
_cell_length_c 8.553485
_cell_angle_alpha 90.000000
_cell_angle_beta 90.000000
_cell_angle_gamma 90.000000
_cell_volume 2552.340484
_symmetry_space_group_name_H-M "C C C A"
_symmetry_group_IT_number 68
_space_group.IT_coordinate_system_code '2'
_symmetry_cell_setting 'orthorhombic'
loop_
_space_group_symop_operation_xyz
x,y,z
-x,1/2-y,z
x,1/2-y,1/2-z
-x,y,1/2-z
-x,-y,-z
x,1/2+y,-z
-x,1/2+y,1/2+z
x,-y,1/2+z
1/2+x,1/2+y,z
1/2-x,-y,z
1/2+x,-y,1/2-z
1/2-x,1/2+y,1/2-z
1/2-x,1/2-y,-z
1/2+x,y,-z
1/2-x,y,1/2+z
1/2+x,1/2-y,1/2+z
loop_
_atom_site_type_symbol
_atom_site_label
_atom_site_fract_x
_atom_site_fract_y
_atom_site_fract_z
Si Si1 0.087138 0.871888 0.847271
Si Si2 0.446188 0.381473 0.311290
Si Si3 0.750000 0.000000 0.399549
Si Si4 0.697418 0.631969 0.343504
O O1 0.070416 0.750000 0.750000
O O2 0.142478 0.856890 0.898337
O O3 0.083134 0.998506 0.747521
O O4 0.054118 0.880528 0.000653
O O5 0.423826 0.250000 0.250000
O O6 0.500000 0.394751 0.250000
O O7 0.732181 0.113360 0.508519
O O8 0.795969 0.025309 0.288335
O O9 0.716584 0.750000 0.250000
#
# Coordination Sequence:
#
# PCOD8282188 Si02
#       4
#    16  16   8  16
#     4  11  23  41  65  93 125 162 205 254 304 363
#     4  11  24  42  63  92 124 160 203 252 310 368
#     4  10  20  36  58  84 120 158 196 242 292 352
#     4  10  21  37  58  87 119 156 199 243 295 349
#
# _framework density 21.940646000000001
#
# number of rings (size 3 to 8) (size 9 to 14) (size 15 to 20)
#    0.000    1.429    0.000    5.143    0.000    5.143 
#    0.000    7.143    0.000    0.000    0.000    0.000 
#    0.000    0.000    0.000    0.000    0.000    0.000 
#
# Total GULP energy -347068.180656 kJ/mol
# GULP energy per Si atom -12395.292166 kJ/mol
# Density = 2.189071 g / cm^3
# Si number density = 21.940646 Si / 1000 Ang^3
#
#
#
# Elastic Constant Matrix: (Units=GPa)
#
#
# Indices 1 2 3 4 5 6 
#
# 1 73.0261 2.6529 39.8068 0.0000 0.0000 0.0000
# 2 2.6529 132.0159 36.3947 0.0000 0.0000 0.0000
# 3 39.8068 36.3947 150.5836 0.0000 0.0000 0.0000
# 4 0.0000 0.0000 0.0000 32.7440 0.0000 0.0000
# 5 0.0000 0.0000 0.0000 0.0000 -91.4015 0.0000
# 6 0.0000 0.0000 0.0000 0.0000 0.0000 26.7921
#
#
#
# Elastic Compliance Matrix: (Units=1/GPa)
#
#
# Indices 1 2 3 4 5 6 
#
# 1 0.016101 0.000910 -0.004476 0.000000 0.000000 0.000000
# 2 0.000910 0.008167 -0.002215 0.000000 0.000000 0.000000
# 3 -0.004476 -0.002215 0.008359 0.000000 0.000000 0.000000
# 4 0.000000 0.000000 0.000000 0.030540 0.000000 0.000000
# 5 0.000000 0.000000 0.000000 0.000000 -0.010941 0.000000
# 6 0.000000 0.000000 0.000000 0.000000 0.000000 0.037324
#
#
# Mechanical properties :
#
#
# Convention : Reuss Voigt Hill
#
# Bulk Modulus (GPa) = 47.46897 57.03714 52.25305
# Shear Modulus (GPa) = 46.23905 12.07833 29.15869
#
# Velocity S-wave (km/s) = 4.59569 2.34882 3.64947
# Velocity P-wave (km/s) = 7.05993 5.78001 6.45179
#
# Compressibility (1/GPa) = 0.02106639
#
# Stress axis : x y z
#
# Youngs Moduli (GPa) = 62.10912 122.44283 119.62608
#
# Poissons Ratio (x) = -0.11148 0.53548
# Poissons Ratio (y) = -0.05655 0.26492
# Poissons Ratio (z) = 0.27802 0.27116
#
# Static dielectric constant tensor:
#      x y z
#    x 3.582330 0.000000 0.000000 
#    y 0.000000 4.362440 0.000000 
#    z 0.000000 0.000000 4.062940 
# 
# 
# High freq. dielectric constant tensor:
#      x y z
#    x 1.846510 0.000000 0.000000 
#    y 0.000000 1.872910 0.000000 
#    z 0.000000 0.000000 1.877410 
# 
# From -- ./inp_files/3897.got.cif
#   From: 2010.03.12/outbox.cif.g09.slc.cpg/sg68_2_cif.got.tgz:3897.got - 2010.04.10 23:14:56.
