data_PCOD8282141
_publ_section_title
;
Structure prediction by ZEFSAII (Michael W. Deem and Ramdas Pophale) SiO2 
 PCOD8282141
Probable space group: C C C A
;
_chemical_formula_sum "Si O2"
_cell_formula_units_Z 68
_cell_length_a 5.073117
_cell_length_b 36.917110
_cell_length_c 19.348976
_cell_angle_alpha 90.000000
_cell_angle_beta 90.000000
_cell_angle_gamma 90.000000
_cell_volume 3623.769455
_symmetry_space_group_name_H-M "C C C A"
_symmetry_group_IT_number 68
_space_group.IT_coordinate_system_code '2'
_symmetry_cell_setting 'orthorhombic'
loop_
_space_group_symop_operation_xyz
x,y,z
-x,1/2-y,z
x,1/2-y,1/2-z
-x,y,1/2-z
-x,-y,-z
x,1/2+y,-z
-x,1/2+y,1/2+z
x,-y,1/2+z
1/2+x,1/2+y,z
1/2-x,-y,z
1/2+x,-y,1/2-z
1/2-x,1/2+y,1/2-z
1/2-x,1/2-y,-z
1/2+x,y,-z
1/2-x,y,1/2+z
1/2+x,1/2-y,1/2+z
loop_
_atom_site_type_symbol
_atom_site_label
_atom_site_fract_x
_atom_site_fract_y
_atom_site_fract_z
Si Si1 0.498401 0.024739 0.828646
Si Si2 0.903508 0.159996 0.041338
Si Si3 0.407060 0.576602 0.045272
Si Si4 0.256063 0.727768 0.619956
Si Si5 0.500000 0.250000 0.250000
O O1 0.500000 0.040316 0.750000
O O2 0.475981 0.057219 0.882984
O O3 0.750000 0.000000 0.843835
O O4 0.250000 0.000000 0.840697
O O5 0.886999 0.118685 0.065921
O O6 0.790535 0.186308 0.099812
O O7 0.208861 0.167514 0.023711
O O8 0.627222 0.566057 0.988354
O O9 0.500000 0.750000 0.583705
O O10 0.311840 0.725270 0.702106
O O11 0.000000 0.750000 0.600045
#
# Coordination Sequence:
#
# PCOD8282141 Si02
#       5
#    16  16  16  16   4
#     4  10  21  37  58  83 116 149 185 230 278 332
#     4  10  21  36  55  81 110 140 177 228 281 326
#     4  10  21  37  58  83 115 145 187 233 277 332
#     4  10  20  35  56  75 107 140 180 228 271 321
#     4   8  22  36  50  76 106 136 186 230 262 320
#
# _framework density 18.764990999999998
#
# number of rings (size 3 to 8) (size 9 to 14) (size 15 to 20)
#    0.706    1.412    0.000    3.176    0.000    5.647 
#    0.000    2.353    7.765    0.000    0.000    0.000 
#    0.000    0.000    0.000    0.000    0.000    0.000 
#
# Total GULP energy -421250.852112 kJ/mol
# GULP energy per Si atom -12389.730944 kJ/mol
# Density = 1.872228 g / cm^3
# Si number density = 18.764991 Si / 1000 Ang^3
#
#
#
# Elastic Constant Matrix: (Units=GPa)
#
#
# Indices 1 2 3 4 5 6 
#
# 1 135.8794 46.1226 31.0551 0.0000 0.0000 0.0000
# 2 46.1226 109.5053 78.5981 0.0000 0.0000 0.0000
# 3 31.0551 78.5981 107.9693 0.0000 0.0000 0.0000
# 4 0.0000 0.0000 0.0000 17.8949 0.0000 0.0000
# 5 0.0000 0.0000 0.0000 0.0000 18.9276 0.0000
# 6 0.0000 0.0000 0.0000 0.0000 0.0000 20.0170
#
#
#
# Elastic Compliance Matrix: (Units=1/GPa)
#
#
# Indices 1 2 3 4 5 6 
#
# 1 0.008593 -0.003865 0.000342 0.000000 0.000000 0.000000
# 2 -0.003865 0.020863 -0.014076 0.000000 0.000000 0.000000
# 3 0.000342 -0.014076 0.019410 0.000000 0.000000 0.000000
# 4 0.000000 0.000000 0.000000 0.055882 0.000000 0.000000
# 5 0.000000 0.000000 0.000000 0.000000 0.052833 0.000000
# 6 0.000000 0.000000 0.000000 0.000000 0.000000 0.049958
#
#
# Mechanical properties :
#
#
# Convention : Reuss Voigt Hill
#
# Bulk Modulus (GPa) = 73.15958 73.87839 73.51899
# Shear Modulus (GPa) = 20.21901 24.53978 22.37940
#
# Velocity S-wave (km/s) = 3.28607 3.62020 3.45717
# Velocity P-wave (km/s) = 7.31229 7.54521 7.42966
#
# Compressibility (1/GPa) = 0.01366875
#
# Stress axis : x y z
#
# Youngs Moduli (GPa) = 116.37145 47.93250 51.51897
#
# Poissons Ratio (x) = 0.18524 -0.01760
# Poissons Ratio (y) = 0.44973 0.72517
# Poissons Ratio (z) = -0.03976 0.67469
#
# Static dielectric constant tensor:
#      x y z
#    x 3.784950 0.000000 0.000000 
#    y 0.000000 3.348210 0.000000 
#    z 0.000000 0.000000 3.348610 
# 
# 
# High freq. dielectric constant tensor:
#      x y z
#    x 1.756410 0.000000 0.000000 
#    y 0.000000 1.717740 0.000000 
#    z 0.000000 0.000000 1.710210 
# 
# From -- ./inp_files/35203.got.cif
#   From: 2010.03.12/outbox.cif.g09.slc.cpg/sg68_18_cif.got.tgz:35203.got - 2010.04.10 23:14:56.
