data_PCOD8282289
_publ_section_title
;
Structure prediction by ZEFSAII (Michael W. Deem and Ramdas Pophale) SiO2 
 PCOD8282289
Probable space group: C C C A
;
_chemical_formula_sum "Si O2"
_cell_formula_units_Z 80
_cell_length_a 13.737477
_cell_length_b 22.664028
_cell_length_c 12.626007
_cell_angle_alpha 90.000000
_cell_angle_beta 90.000000
_cell_angle_gamma 90.000000
_cell_volume 3931.063889
_symmetry_space_group_name_H-M "C C C A"
_symmetry_group_IT_number 68
_space_group.IT_coordinate_system_code '2'
_symmetry_cell_setting 'orthorhombic'
loop_
_space_group_symop_operation_xyz
x,y,z
-x,1/2-y,z
x,1/2-y,1/2-z
-x,y,1/2-z
-x,-y,-z
x,1/2+y,-z
-x,1/2+y,1/2+z
x,-y,1/2+z
1/2+x,1/2+y,z
1/2-x,-y,z
1/2+x,-y,1/2-z
1/2-x,1/2+y,1/2-z
1/2-x,1/2-y,-z
1/2+x,y,-z
1/2-x,y,1/2+z
1/2+x,1/2-y,1/2+z
loop_
_atom_site_type_symbol
_atom_site_label
_atom_site_fract_x
_atom_site_fract_y
_atom_site_fract_z
Si Si1 0.163661 0.250000 0.750000
Si Si2 0.102418 0.571144 0.693922
Si Si3 0.500000 0.250000 0.412783
Si Si4 0.570798 0.374074 0.021836
Si Si5 0.074276 0.440453 0.654585
Si Si6 0.282425 0.125190 0.211957
O O1 0.233444 0.304378 0.780176
O O2 0.092344 0.270492 0.655948
O O3 0.110292 0.615455 0.595480
O O4 0.119115 0.505928 0.645328
O O5 0.180592 0.589839 0.784227
O O6 0.000000 0.576173 0.750000
O O7 0.532936 0.193234 0.479769
O O8 0.481030 0.418624 0.048457
O O9 0.658616 0.387224 0.103945
O O10 0.160180 0.395568 0.683161
O O11 0.000000 0.438349 0.750000
#
# Coordination Sequence:
#
# PCOD8282289 Si02
#       6
#     8  16   8  16  16  16
#     4   9  16  34  63  86 112 142 201 258 285 342
#     4  11  24  39  54  88 129 160 191 244 305 361
#     4   9  16  34  63  90 108 146 209 252 291 358
#     4  10  20  38  63  90 115 157 203 249 305 350
#     4   9  18  37  64  87 115 150 201 249 291 353
#     4  10  20  38  60  89 113 155 203 245 295 356
#
# _framework density 20.350725000000001
#
# number of rings (size 3 to 8) (size 9 to 14) (size 15 to 20)
#    0.000    2.200    2.000    1.200    0.000    1.600 
#    3.600    8.000    0.000    0.000    0.000    0.000 
#    0.000    0.000    0.000    0.000    0.000    0.000 
#
# Total GULP energy -495806.674393 kJ/mol
# GULP energy per Si atom -12395.166860 kJ/mol
# Density = 2.030441 g / cm^3
# Si number density = 20.350725 Si / 1000 Ang^3
#
#
#
# Elastic Constant Matrix: (Units=GPa)
#
#
# Indices 1 2 3 4 5 6 
#
# 1 85.1515 50.1730 20.9501 0.0000 0.0000 0.0000
# 2 50.1730 127.4879 33.4946 0.0000 0.0000 0.0000
# 3 20.9501 33.4946 74.1637 0.0000 0.0000 0.0000
# 4 0.0000 0.0000 0.0000 25.4817 0.0000 0.0000
# 5 0.0000 0.0000 0.0000 0.0000 20.2976 0.0000
# 6 0.0000 0.0000 0.0000 0.0000 0.0000 29.7856
#
#
#
# Elastic Compliance Matrix: (Units=1/GPa)
#
#
# Indices 1 2 3 4 5 6 
#
# 1 0.015508 -0.005619 -0.001843 0.000000 0.000000 0.000000
# 2 -0.005619 0.010936 -0.003352 0.000000 0.000000 0.000000
# 3 -0.001843 -0.003352 0.015518 0.000000 0.000000 0.000000
# 4 0.000000 0.000000 0.000000 0.039244 0.000000 0.000000
# 5 0.000000 0.000000 0.000000 0.000000 0.049267 0.000000
# 6 0.000000 0.000000 0.000000 0.000000 0.000000 0.033573
#
#
# Mechanical properties :
#
#
# Convention : Reuss Voigt Hill
#
# Bulk Modulus (GPa) = 49.17765 55.11537 52.14651
# Shear Modulus (GPa) = 25.98057 27.25868 26.61962
#
# Velocity S-wave (km/s) = 3.57689 3.66381 3.62061
# Velocity P-wave (km/s) = 6.42467 6.71115 6.56947
#
# Compressibility (1/GPa) = 0.02033444
#
# Stress axis : x y z
#
# Youngs Moduli (GPa) = 64.48266 91.44269 64.44111
#
# Poissons Ratio (x) = 0.51381 0.11877
# Poissons Ratio (y) = 0.36233 0.21599
# Poissons Ratio (z) = 0.11885 0.30649
#
# Static dielectric constant tensor:
#      x y z
#    x 3.630740 0.000000 0.000000 
#    y 0.000000 3.966480 0.000000 
#    z 0.000000 0.000000 3.294140 
# 
# 
# High freq. dielectric constant tensor:
#      x y z
#    x 1.781020 0.000000 0.000000 
#    y 0.000000 1.808330 0.000000 
#    z 0.000000 0.000000 1.762930 
# 
# From -- ./inp_files/13243.got.cif
#   From: 2010.03.12/outbox.cif.g09.slc.cpg/sg68_7_cif.got.tgz:13243.got - 2010.04.10 23:14:56.
