data_PCOD8282328
_publ_section_title
;
Structure prediction by ZEFSAII (Michael W. Deem and Ramdas Pophale) SiO2 
 PCOD8282328
Probable space group: C C C A
;
_chemical_formula_sum "Si O2"
_cell_formula_units_Z 96
_cell_length_a 21.947506
_cell_length_b 23.792598
_cell_length_c 9.923746
_cell_angle_alpha 90.000000
_cell_angle_beta 90.000000
_cell_angle_gamma 90.000000
_cell_volume 5182.062936
_symmetry_space_group_name_H-M "C C C A"
_symmetry_group_IT_number 68
_space_group.IT_coordinate_system_code '2'
_symmetry_cell_setting 'orthorhombic'
loop_
_space_group_symop_operation_xyz
x,y,z
-x,1/2-y,z
x,1/2-y,1/2-z
-x,y,1/2-z
-x,-y,-z
x,1/2+y,-z
-x,1/2+y,1/2+z
x,-y,1/2+z
1/2+x,1/2+y,z
1/2-x,-y,z
1/2+x,-y,1/2-z
1/2-x,1/2+y,1/2-z
1/2-x,1/2-y,-z
1/2+x,y,-z
1/2-x,y,1/2+z
1/2+x,1/2-y,1/2+z
loop_
_atom_site_type_symbol
_atom_site_label
_atom_site_fract_x
_atom_site_fract_y
_atom_site_fract_z
Si Si1 0.049884 0.450227 0.363245
Si Si2 0.069842 0.764652 0.605060
Si Si3 0.755642 0.791655 0.375339
Si Si4 0.872499 0.335680 0.509690
Si Si5 0.361939 0.639868 0.303705
Si Si6 0.970585 0.576979 0.112614
O O1 0.117347 0.424431 0.331314
O O2 0.061506 0.516830 0.365498
O O3 0.000000 0.433497 0.250000
O O4 0.024478 0.428338 0.504933
O O5 0.100517 0.750000 0.750000
O O6 0.101335 0.728243 0.488530
O O7 0.083961 0.830693 0.605180
O O8 0.000000 0.750000 0.603580
O O9 0.761575 0.750000 0.250000
O O10 0.750000 0.750000 0.500000
O O11 0.813207 0.832927 0.396000
O O12 0.700859 0.836766 0.364740
O O13 0.859177 0.352674 0.356473
O O14 0.919825 0.378662 0.571498
O O15 0.000000 0.599485 0.250000
#
# Coordination Sequence:
#
# PCOD8282328 Si02
#       6
#    16  16  16  16  16  16
#     4  10  20  38  68  91 120 161 202 249 310 374
#     4   9  17  28  53  87 112 143 197 249 293 363
#     4  12  23  41  60  87 123 167 209 252 303 362
#     4  11  21  39  61  84 124 164 203 251 309 368
#     4  11  20  36  64  88 114 163 213 245 303 377
#     4  10  22  39  61  96 126 156 198 256 317 364
#
# _framework density 18.52544
#
# number of rings (size 3 to 8) (size 9 to 14) (size 15 to 20)
#    0.000    1.500    5.000    1.500    2.333    1.333 
#    3.000    0.833    0.000    2.000    0.000    0.000 
#    0.000    0.000    0.000    0.000    0.000    0.000 
#
# Total GULP energy -594634.527224 kJ/mol
# GULP energy per Si atom -12388.219317 kJ/mol
# Density = 1.848328 g / cm^3
# Si number density = 18.525440 Si / 1000 Ang^3
#
#
#
# Elastic Constant Matrix: (Units=GPa)
#
#
# Indices 1 2 3 4 5 6 
#
# 1 106.5626 48.0624 44.5714 0.0000 0.0000 0.0000
# 2 48.0624 84.1266 36.3680 0.0000 0.0000 0.0000
# 3 44.5714 36.3680 103.4146 0.0000 0.0000 0.0000
# 4 0.0000 0.0000 0.0000 43.4859 0.0000 0.0000
# 5 0.0000 0.0000 0.0000 0.0000 29.0067 0.0000
# 6 0.0000 0.0000 0.0000 0.0000 0.0000 31.9881
#
#
#
# Elastic Compliance Matrix: (Units=1/GPa)
#
#
# Indices 1 2 3 4 5 6 
#
# 1 0.013765 -0.006249 -0.003735 0.000000 0.000000 0.000000
# 2 -0.006249 0.016855 -0.003234 0.000000 0.000000 0.000000
# 3 -0.003735 -0.003234 0.012417 0.000000 0.000000 0.000000
# 4 0.000000 0.000000 0.000000 0.022996 0.000000 0.000000
# 5 0.000000 0.000000 0.000000 0.000000 0.034475 0.000000
# 6 0.000000 0.000000 0.000000 0.000000 0.000000 0.031262
#
#
# Mechanical properties :
#
#
# Convention : Reuss Voigt Hill
#
# Bulk Modulus (GPa) = 60.23972 61.34525 60.79248
# Shear Modulus (GPa) = 30.53625 31.90296 31.21960
#
# Velocity S-wave (km/s) = 4.06438 4.15434 4.10961
# Velocity P-wave (km/s) = 7.39009 7.49649 7.44348
#
# Compressibility (1/GPa) = 0.01660034
#
# Stress axis : x y z
#
# Youngs Moduli (GPa) = 72.64801 59.32850 80.53564
#
# Poissons Ratio (x) = 0.37077 0.30079
# Poissons Ratio (y) = 0.45401 0.26045
# Poissons Ratio (z) = 0.27133 0.19187
#
# Static dielectric constant tensor:
#      x y z
#    x 3.553990 0.000000 0.000000 
#    y 0.000000 3.543780 0.000000 
#    z 0.000000 0.000000 3.426800 
# 
# 
# High freq. dielectric constant tensor:
#      x y z
#    x 1.707250 0.000000 0.000000 
#    y 0.000000 1.717190 0.000000 
#    z 0.000000 0.000000 1.717930 
# 
# From -- ./inp_files/7287.got.cif
#   From: 2010.03.12/outbox.cif.g09.slc.cpg/sg68_4_cif.got.tgz:7287.got - 2010.04.10 23:14:56.
