data_PCOD8282637
_publ_section_title
;
Structure prediction by ZEFSAII (Michael W. Deem and Ramdas Pophale) SiO2 
 PCOD8282637
Probable space group: C C C A
;
_chemical_formula_sum "Si O2"
_cell_formula_units_Z 96
_cell_length_a 20.234908
_cell_length_b 20.711565
_cell_length_c 9.169540
_cell_angle_alpha 90.000000
_cell_angle_beta 90.000000
_cell_angle_gamma 90.000000
_cell_volume 3842.923150
_symmetry_space_group_name_H-M "C C C A"
_symmetry_group_IT_number 68
_space_group.IT_coordinate_system_code '2'
_symmetry_cell_setting 'orthorhombic'
loop_
_space_group_symop_operation_xyz
x,y,z
-x,1/2-y,z
x,1/2-y,1/2-z
-x,y,1/2-z
-x,-y,-z
x,1/2+y,-z
-x,1/2+y,1/2+z
x,-y,1/2+z
1/2+x,1/2+y,z
1/2-x,-y,z
1/2+x,-y,1/2-z
1/2-x,1/2+y,1/2-z
1/2-x,1/2-y,-z
1/2+x,y,-z
1/2-x,y,1/2+z
1/2+x,1/2-y,1/2+z
loop_
_atom_site_type_symbol
_atom_site_label
_atom_site_fract_x
_atom_site_fract_y
_atom_site_fract_z
Si Si1 0.429767 0.960688 0.180747
Si Si2 0.199881 0.058889 0.366095
Si Si3 0.125630 0.225152 0.595393
Si Si4 0.067681 0.394572 0.830344
Si Si5 0.128860 0.636674 0.036446
Si Si6 0.737436 0.366808 0.116482
O O1 0.500000 0.943571 0.250000
O O2 0.371624 0.958500 0.300102
O O3 0.432002 0.032499 0.109618
O O4 0.421018 0.909933 0.049778
O O5 0.233450 0.117202 0.274439
O O6 0.187482 0.080892 0.536243
O O7 0.250000 0.000000 0.358329
O O8 0.099265 0.250000 0.750000
O O9 0.081138 0.162087 0.548225
O O10 0.115650 0.287702 0.492107
O O11 0.203035 0.203486 0.609485
O O12 0.125736 0.380583 0.709433
O O13 0.000000 0.378928 0.750000
O O14 0.203479 0.623395 0.997349
#
# Coordination Sequence:
#
# PCOD8282637 Si02
#       6
#    16  16  16  16  16  16
#     4  10  23  41  61  92 129 166 207 257 323 388
#     4  11  22  38  64  95 129 166 213 267 319 382
#     4  10  21  39  63  90 121 161 209 259 315 373
#     4  10  22  39  62  89 119 160 209 258 307 366
#     4  10  22  39  61  90 124 159 206 262 310 375
#     4  11  22  38  62  92 125 164 209 261 320 376
#
# _framework density 24.980983999999999
#
# number of rings (size 3 to 8) (size 9 to 14) (size 15 to 20)
#    0.000    1.667    0.000    5.000    0.000   11.000 
#    0.000    2.500    0.000    1.000    0.000    1.167 
#    0.000    0.000    0.000    0.000    0.000    0.000 
#
# Total GULP energy -594699.183304 kJ/mol
# GULP energy per Si atom -12389.566319 kJ/mol
# Density = 2.492413 g / cm^3
# Si number density = 24.980984 Si / 1000 Ang^3
#
#
#
# Elastic Constant Matrix: (Units=GPa)
#
#
# Indices 1 2 3 4 5 6 
#
# 1 60.2960 39.0127 -14.1665 0.0000 0.0000 0.0000
# 2 39.0127 191.1724 25.9185 0.0000 0.0000 0.0000
# 3 -14.1665 25.9185 59.6226 0.0000 0.0000 0.0000
# 4 0.0000 0.0000 0.0000 37.9904 0.0000 0.0000
# 5 0.0000 0.0000 0.0000 0.0000 15.2187 0.0000
# 6 0.0000 0.0000 0.0000 0.0000 0.0000 31.5885
#
#
#
# Elastic Compliance Matrix: (Units=1/GPa)
#
#
# Indices 1 2 3 4 5 6 
#
# 1 0.021935 -0.005508 0.007606 0.000000 0.000000 0.000000
# 2 -0.005508 0.006941 -0.004326 0.000000 0.000000 0.000000
# 3 0.007606 -0.004326 0.020460 0.000000 0.000000 0.000000
# 4 0.000000 0.000000 0.000000 0.026322 0.000000 0.000000
# 5 0.000000 0.000000 0.000000 0.000000 0.065709 0.000000
# 6 0.000000 0.000000 0.000000 0.000000 0.000000 0.031657
#
#
# Mechanical properties :
#
#
# Convention : Reuss Voigt Hill
#
# Bulk Modulus (GPa) = 22.28084 45.84672 34.06378
# Shear Modulus (GPa) = 25.98205 34.31460 30.14832
#
# Velocity S-wave (km/s) = 3.22851 3.71027 3.47774
# Velocity P-wave (km/s) = 4.77873 6.06196 5.45818
#
# Compressibility (1/GPa) = 0.04488161
#
# Stress axis : x y z
#
# Youngs Moduli (GPa) = 45.58840 144.06450 48.87588
#
# Poissons Ratio (x) = 0.79345 -0.37176
# Poissons Ratio (y) = 0.25108 0.21144
# Poissons Ratio (z) = -0.34675 0.62324
#
# Static dielectric constant tensor:
#      x y z
#    x 4.767870 0.000000 0.000000 
#    y 0.000000 5.051650 0.000000 
#    z 0.000000 0.000000 4.450520 
# 
# 
# High freq. dielectric constant tensor:
#      x y z
#    x 2.013800 0.000000 0.000000 
#    y 0.000000 2.005500 0.000000 
#    z 0.000000 0.000000 1.965420 
# 
# From -- ./inp_files/16416.got.cif
#   From: 2010.03.12/outbox.cif.g09.slc.cpg/sg68_9_cif.got.tgz:16416.got - 2010.04.10 23:14:56.
