data_PCOD8282080
_publ_section_title
;
Structure prediction by ZEFSAII (Michael W. Deem and Ramdas Pophale) SiO2 
 PCOD8282080
Probable space group: C C C A
;
_chemical_formula_sum "Si O2"
_cell_formula_units_Z 88
_cell_length_a 9.750558
_cell_length_b 22.492727
_cell_length_c 20.585696
_cell_angle_alpha 90.000000
_cell_angle_beta 90.000000
_cell_angle_gamma 90.000000
_cell_volume 4514.785662
_symmetry_space_group_name_H-M "C C C A"
_symmetry_group_IT_number 68
_space_group.IT_coordinate_system_code '2'
_symmetry_cell_setting 'orthorhombic'
loop_
_space_group_symop_operation_xyz
x,y,z
-x,1/2-y,z
x,1/2-y,1/2-z
-x,y,1/2-z
-x,-y,-z
x,1/2+y,-z
-x,1/2+y,1/2+z
x,-y,1/2+z
1/2+x,1/2+y,z
1/2-x,-y,z
1/2+x,-y,1/2-z
1/2-x,1/2+y,1/2-z
1/2-x,1/2-y,-z
1/2+x,y,-z
1/2-x,y,1/2+z
1/2+x,1/2-y,1/2+z
loop_
_atom_site_type_symbol
_atom_site_label
_atom_site_fract_x
_atom_site_fract_y
_atom_site_fract_z
Si Si1 0.956457 0.181968 0.090291
Si Si2 0.777081 0.154810 0.346793
Si Si3 0.304805 0.750000 0.750000
Si Si4 0.451803 0.682604 0.944252
Si Si5 0.329568 0.844140 0.847475
Si Si6 0.160944 0.558773 0.253931
O O1 0.813529 0.179223 0.126524
O O2 0.000000 0.250000 0.088806
O O3 0.068832 0.141753 0.128228
O O4 0.939701 0.157167 0.017026
O O5 0.789584 0.205932 0.292247
O O6 0.694564 0.178231 0.409465
O O7 0.701944 0.096632 0.317932
O O8 0.393300 0.793225 0.798189
O O9 0.500000 0.750000 0.945175
O O10 0.563171 0.643944 0.904837
O O11 0.301490 0.905341 0.810783
O O12 0.250000 0.500000 0.254633
O O13 0.000000 0.543571 0.250000
#
# Coordination Sequence:
#
# PCOD8282080 Si02
#       6
#    16  16   8  16  16  16
#     4  11  22  36  56  95 131 167 197 237 292 359
#     4  11  22  37  60  88 125 157 200 251 298 365
#     4  10  20  32  56  86 124 154 196 234 308 348
#     4  11  20  36  60  89 129 165 201 237 292 365
#     4  11  22  37  60  88 125 157 200 251 298 365
#     4  11  26  44  66  89 114 157 204 258 312 356
#
# _framework density 19.491510999999999
#
# number of rings (size 3 to 8) (size 9 to 14) (size 15 to 20)
#    0.000    1.091    5.455    1.091    2.545    6.545 
#    0.000    0.000    0.000    6.545    0.000    0.000 
#    0.000    0.000    0.000    0.000    0.000    0.000 
#
# Total GULP energy -545557.711322 kJ/mol
# GULP energy per Si atom -12399.038894 kJ/mol
# Density = 1.944715 g / cm^3
# Si number density = 19.491511 Si / 1000 Ang^3
#
#
#
# Elastic Constant Matrix: (Units=GPa)
#
#
# Indices 1 2 3 4 5 6 
#
# 1 106.4857 23.0698 41.5493 0.0000 0.0000 0.0000
# 2 23.0698 89.8988 42.0882 0.0000 0.0000 0.0000
# 3 41.5493 42.0882 108.9901 0.0000 0.0000 0.0000
# 4 0.0000 0.0000 0.0000 13.7014 0.0000 0.0000
# 5 0.0000 0.0000 0.0000 0.0000 22.6040 0.0000
# 6 0.0000 0.0000 0.0000 0.0000 0.0000 29.9320
#
#
#
# Elastic Compliance Matrix: (Units=1/GPa)
#
#
# Indices 1 2 3 4 5 6 
#
# 1 0.011114 -0.001060 -0.003828 0.000000 0.000000 0.000000
# 2 -0.001060 0.013680 -0.004878 0.000000 0.000000 0.000000
# 3 -0.003828 -0.004878 0.012518 0.000000 0.000000 0.000000
# 4 0.000000 0.000000 0.000000 0.072985 0.000000 0.000000
# 5 0.000000 0.000000 0.000000 0.000000 0.044240 0.000000
# 6 0.000000 0.000000 0.000000 0.000000 0.000000 0.033409
#
#
# Mechanical properties :
#
#
# Convention : Reuss Voigt Hill
#
# Bulk Modulus (GPa) = 56.24415 57.64324 56.94370
# Shear Modulus (GPa) = 23.42965 26.49197 24.96081
#
# Velocity S-wave (km/s) = 3.47081 3.69067 3.58243
# Velocity P-wave (km/s) = 6.70674 6.91369 6.81100
#
# Compressibility (1/GPa) = 0.01777963
#
# Stress axis : x y z
#
# Youngs Moduli (GPa) = 89.97622 73.10138 79.88391
#
# Poissons Ratio (x) = 0.07750 0.30576
# Poissons Ratio (y) = 0.09539 0.38971
# Poissons Ratio (z) = 0.34439 0.35662
#
# Static dielectric constant tensor:
#      x y z
#    x 3.598550 0.000000 0.000000 
#    y 0.000000 3.199250 0.000000 
#    z 0.000000 0.000000 4.032440 
# 
# 
# High freq. dielectric constant tensor:
#      x y z
#    x 1.766640 0.000000 0.000000 
#    y 0.000000 1.711730 0.000000 
#    z 0.000000 0.000000 1.776330 
# 
# From -- ./inp_files/36269.got.cif
#   From: 2010.03.12/outbox.cif.g09.slc.cpg/sg68_19_cif.got.tgz:36269.got - 2010.04.10 23:14:56.
