data_PCOD8282546
_publ_section_title
;
Structure prediction by ZEFSAII (Michael W. Deem and Ramdas Pophale) SiO2 
 PCOD8282546
Probable space group: C C C A
;
_chemical_formula_sum "Si O2"
_cell_formula_units_Z 68
_cell_length_a 8.746974
_cell_length_b 19.174541
_cell_length_c 17.414199
_cell_angle_alpha 90.000000
_cell_angle_beta 90.000000
_cell_angle_gamma 90.000000
_cell_volume 2920.695727
_symmetry_space_group_name_H-M "C C C A"
_symmetry_group_IT_number 68
_space_group.IT_coordinate_system_code '2'
_symmetry_cell_setting 'orthorhombic'
loop_
_space_group_symop_operation_xyz
x,y,z
-x,1/2-y,z
x,1/2-y,1/2-z
-x,y,1/2-z
-x,-y,-z
x,1/2+y,-z
-x,1/2+y,1/2+z
x,-y,1/2+z
1/2+x,1/2+y,z
1/2-x,-y,z
1/2+x,-y,1/2-z
1/2-x,1/2+y,1/2-z
1/2-x,1/2-y,-z
1/2+x,y,-z
1/2-x,y,1/2+z
1/2+x,1/2-y,1/2+z
loop_
_atom_site_type_symbol
_atom_site_label
_atom_site_fract_x
_atom_site_fract_y
_atom_site_fract_z
Si Si1 0.914515 0.469108 0.324681
Si Si2 0.000000 0.750000 0.750000
Si Si3 0.680595 0.653667 0.013132
Si Si4 0.445496 0.059396 0.057375
Si Si5 0.090684 0.176753 0.392158
O O1 0.750000 0.500000 0.303851
O O2 0.894991 0.407535 0.387957
O O3 0.000000 0.438889 0.250000
O O4 0.023160 0.530537 0.357382
O O5 0.112567 0.705751 0.694137
O O6 0.770274 0.586681 0.050014
O O7 0.586643 0.695787 0.080874
O O8 0.547133 0.627554 0.957096
O O9 0.787735 0.701259 0.957692
O O10 0.500000 0.000000 0.000000
#
# Coordination Sequence:
#
# PCOD8282546 Si02
#       5
#    16   4  16  16  16
#     4  12  24  35  57  96 134 168 205 255 337 391
#     4  12  28  48  64  86 132 174 232 272 308 380
#     4  10  21  37  66  96 125 165 209 261 326 387
#     4  11  18  32  60  96 133 155 193 253 320 401
#     4  11  24  42  67  90 127 171 221 268 319 372
#
# _framework density 23.282124
#
# number of rings (size 3 to 8) (size 9 to 14) (size 15 to 20)
#    0.000    0.941    8.235    0.706    3.294    0.941 
#    0.000    0.000    0.000    5.647    0.000    0.000 
#    0.000    0.000    0.000    0.000    0.000    0.000 
#
# Total GULP energy -421421.859673 kJ/mol
# GULP energy per Si atom -12394.760579 kJ/mol
# Density = 2.322913 g / cm^3
# Si number density = 23.282124 Si / 1000 Ang^3
#
#
#
# Elastic Constant Matrix: (Units=GPa)
#
#
# Indices 1 2 3 4 5 6 
#
# 1 131.9021 27.4268 54.5353 0.0000 0.0000 0.0000
# 2 27.4268 20.9737 27.0953 0.0000 0.0000 0.0000
# 3 54.5353 27.0953 134.1258 0.0000 0.0000 0.0000
# 4 0.0000 0.0000 0.0000 47.7534 0.0000 0.0000
# 5 0.0000 0.0000 0.0000 0.0000 38.6353 0.0000
# 6 0.0000 0.0000 0.0000 0.0000 0.0000 35.5430
#
#
#
# Elastic Compliance Matrix: (Units=1/GPa)
#
#
# Indices 1 2 3 4 5 6 
#
# 1 0.010828 -0.011463 -0.002087 0.000000 0.000000 0.000000
# 2 -0.011463 0.076652 -0.010824 0.000000 0.000000 0.000000
# 3 -0.002087 -0.010824 0.010491 0.000000 0.000000 0.000000
# 4 0.000000 0.000000 0.000000 0.020941 0.000000 0.000000
# 5 0.000000 0.000000 0.000000 0.000000 0.025883 0.000000
# 6 0.000000 0.000000 0.000000 0.000000 0.000000 0.028135
#
#
# Mechanical properties :
#
#
# Convention : Reuss Voigt Hill
#
# Bulk Modulus (GPa) = 20.31580 56.12406 38.21993
# Shear Modulus (GPa) = 21.00087 36.24928 28.62507
#
# Velocity S-wave (km/s) = 3.00662 3.95011 3.51021
# Velocity P-wave (km/s) = 4.56047 6.70544 5.73414
#
# Compressibility (1/GPa) = 0.04922276
#
# Stress axis : x y z
#
# Youngs Moduli (GPa) = 92.35497 13.04592 95.32218
#
# Poissons Ratio (x) = 0.14955 0.19892
# Poissons Ratio (y) = 1.05870 1.03175
# Poissons Ratio (z) = 0.19273 0.14121
#
# Static dielectric constant tensor:
#      x y z
#    x 4.336700 0.000000 0.000000 
#    y 0.000000 4.310010 0.000000 
#    z 0.000000 0.000000 4.104200 
# 
# 
# High freq. dielectric constant tensor:
#      x y z
#    x 1.913140 0.000000 0.000000 
#    y 0.000000 1.940210 0.000000 
#    z 0.000000 0.000000 1.913430 
# 
# From -- ./inp_files/25772.got.cif
#   From: 2010.03.12/outbox.cif.g09.slc.cpg/sg68_13_cif.got.tgz:25772.got - 2010.04.10 23:14:56.
