data_PCOD8282094
_publ_section_title
;
Structure prediction by ZEFSAII (Michael W. Deem and Ramdas Pophale) SiO2 
 PCOD8282094
Probable space group: C C C A
;
_chemical_formula_sum "Si O2"
_cell_formula_units_Z 128
_cell_length_a 12.293677
_cell_length_b 23.008883
_cell_length_c 23.724451
_cell_angle_alpha 90.000000
_cell_angle_beta 90.000000
_cell_angle_gamma 90.000000
_cell_volume 6710.787787
_symmetry_space_group_name_H-M "C C C A"
_symmetry_group_IT_number 68
_space_group.IT_coordinate_system_code '2'
_symmetry_cell_setting 'orthorhombic'
loop_
_space_group_symop_operation_xyz
x,y,z
-x,1/2-y,z
x,1/2-y,1/2-z
-x,y,1/2-z
-x,-y,-z
x,1/2+y,-z
-x,1/2+y,1/2+z
x,-y,1/2+z
1/2+x,1/2+y,z
1/2-x,-y,z
1/2+x,-y,1/2-z
1/2-x,1/2+y,1/2-z
1/2-x,1/2-y,-z
1/2+x,y,-z
1/2-x,y,1/2+z
1/2+x,1/2-y,1/2+z
loop_
_atom_site_type_symbol
_atom_site_label
_atom_site_fract_x
_atom_site_fract_y
_atom_site_fract_z
Si Si1 0.322312 0.122876 0.828871
Si Si2 0.294423 0.275186 0.384249
Si Si3 0.896574 0.345327 0.874821
Si Si4 0.014474 0.047124 0.183932
Si Si5 0.211688 0.371673 0.301852
Si Si6 0.536797 0.315283 0.032059
Si Si7 0.555733 0.078582 0.309683
Si Si8 0.097591 0.208471 0.416023
O O1 0.205796 0.113467 0.859892
O O2 0.396269 0.066194 0.839291
O O3 0.310674 0.141332 0.763782
O O4 0.386821 0.174431 0.858339
O O5 0.368400 0.222046 0.358984
O O6 0.235457 0.311337 0.334464
O O7 0.366417 0.318455 0.422200
O O8 0.205863 0.246807 0.426368
O O9 0.933101 0.349728 0.941186
O O10 0.001464 0.366491 0.840388
O O11 0.110071 0.093813 0.170034
O O12 0.000000 0.041898 0.250000
O O13 0.040055 0.983372 0.158166
O O14 0.315983 0.413051 0.304587
O O15 0.500000 0.250000 0.020490
O O16 0.576109 0.335304 0.969728
O O17 0.500000 0.073989 0.250000
O O18 0.000000 0.250000 0.402298
#
# Coordination Sequence:
#
# PCOD8282094 Si02
#       8
#    16  16  16  16  16  16  16  16
#     4  10  21  37  53  83 120 150 191 233 291 351
#     4  10  20  33  55  83 116 150 184 233 288 355
#     4  10  20  34  53  85 114 148 188 233 294 339
#     4   9  21  36  55  78 110 154 197 236 269 341
#     4  11  20  35  56  85 120 152 193 230 293 352
#     4   9  18  34  53  78 110 146 197 240 275 340
#     4  11  20  35  56  82 115 151 193 240 284 342
#     4  10  20  34  54  77 110 154 197 230 284 340
#
# _framework density 19.073765999999999
#
# number of rings (size 3 to 8) (size 9 to 14) (size 15 to 20)
#    0.000    2.000    2.500    1.500    0.000    3.500 
#    0.000    1.250    0.000    0.750    0.000    0.000 
#    0.000    0.000    0.000    0.000    0.000    0.000 
#
# Total GULP energy -792906.273735 kJ/mol
# GULP energy per Si atom -12389.160527 kJ/mol
# Density = 1.903035 g / cm^3
# Si number density = 19.073766 Si / 1000 Ang^3
#
#
#
# Elastic Constant Matrix: (Units=GPa)
#
#
# Indices 1 2 3 4 5 6 
#
# 1 96.7330 33.2016 46.1290 0.0000 0.0000 0.0000
# 2 33.2016 72.6566 37.9081 0.0000 0.0000 0.0000
# 3 46.1290 37.9081 92.4947 0.0000 0.0000 0.0000
# 4 0.0000 0.0000 0.0000 6.1572 0.0000 0.0000
# 5 0.0000 0.0000 0.0000 0.0000 118.0913 0.0000
# 6 0.0000 0.0000 0.0000 0.0000 0.0000 119.2823
#
#
#
# Elastic Compliance Matrix: (Units=1/GPa)
#
#
# Indices 1 2 3 4 5 6 
#
# 1 0.014255 -0.003568 -0.005647 0.000000 0.000000 0.000000
# 2 -0.003568 0.018400 -0.005762 0.000000 0.000000 0.000000
# 3 -0.005647 -0.005762 0.015989 0.000000 0.000000 0.000000
# 4 0.000000 0.000000 0.000000 0.162413 0.000000 0.000000
# 5 0.000000 0.000000 0.000000 0.000000 0.008468 0.000000
# 6 0.000000 0.000000 0.000000 0.000000 0.000000 0.008383
#
#
# Mechanical properties :
#
#
# Convention : Reuss Voigt Hill
#
# Bulk Modulus (GPa) = 53.50170 55.15131 54.32651
# Shear Modulus (GPa) = 18.93279 58.34918 38.64098
#
# Velocity S-wave (km/s) = 3.15399 5.53694 4.50585
# Velocity P-wave (km/s) = 6.43229 8.35790 7.45751
#
# Compressibility (1/GPa) = 0.01869099
#
# Stress axis : x y z
#
# Youngs Moduli (GPa) = 70.14952 54.34817 62.54238
#
# Poissons Ratio (x) = 0.19390 0.35319
# Poissons Ratio (y) = 0.25028 0.36035
# Poissons Ratio (z) = 0.39614 0.31314
#
# Static dielectric constant tensor:
#      x y z
#    x 4.238780 0.000000 0.000000 
#    y 0.000000 3.599520 0.000000 
#    z 0.000000 0.000000 3.617100 
# 
# 
# High freq. dielectric constant tensor:
#      x y z
#    x 1.768090 0.000000 0.000000 
#    y 0.000000 1.709770 0.000000 
#    z 0.000000 0.000000 1.717180 
# 
# From -- ./inp_files/44730.got.cif
#   From: 2010.03.12/outbox.cif.g09.slc.cpg/sg68_23_cif.got.tgz:44730.got - 2010.04.10 23:14:56.
