data_PCOD8282620
_publ_section_title
;
Structure prediction by ZEFSAII (Michael W. Deem and Ramdas Pophale) SiO2 
 PCOD8282620
Probable space group: C C C A
;
_chemical_formula_sum "Si O2"
_cell_formula_units_Z 80
_cell_length_a 15.717654
_cell_length_b 8.274573
_cell_length_c 27.403207
_cell_angle_alpha 90.000000
_cell_angle_beta 90.000000
_cell_angle_gamma 90.000000
_cell_volume 3563.975479
_symmetry_space_group_name_H-M "C C C A"
_symmetry_group_IT_number 68
_space_group.IT_coordinate_system_code '2'
_symmetry_cell_setting 'orthorhombic'
loop_
_space_group_symop_operation_xyz
x,y,z
-x,1/2-y,z
x,1/2-y,1/2-z
-x,y,1/2-z
-x,-y,-z
x,1/2+y,-z
-x,1/2+y,1/2+z
x,-y,1/2+z
1/2+x,1/2+y,z
1/2-x,-y,z
1/2+x,-y,1/2-z
1/2-x,1/2+y,1/2-z
1/2-x,1/2-y,-z
1/2+x,y,-z
1/2-x,y,1/2+z
1/2+x,1/2-y,1/2+z
loop_
_atom_site_type_symbol
_atom_site_label
_atom_site_fract_x
_atom_site_fract_y
_atom_site_fract_z
Si Si1 0.339393 0.408215 0.561017
Si Si2 0.256728 0.308715 0.198573
Si Si3 0.164607 0.097512 0.615892
Si Si4 0.596141 0.278613 0.477696
Si Si5 0.594798 0.714242 0.152526
O O1 0.250000 0.500000 0.568832
O O2 0.339082 0.258228 0.522754
O O3 0.403313 0.533706 0.536204
O O4 0.374276 0.342090 0.611811
O O5 0.296380 0.250000 0.250000
O O6 0.250000 0.500000 0.194695
O O7 0.315341 0.238277 0.155088
O O8 0.161773 0.232826 0.196441
O O9 0.125103 0.175617 0.568474
O O10 0.250000 0.000000 0.602533
O O11 0.094840 0.971607 0.635339
O O12 0.500000 0.250000 0.494488
O O13 0.500000 0.750000 0.170743
#
# Coordination Sequence:
#
# PCOD8282620 Si02
#       5
#    16  16  16  16  16
#     4  12  23  38  58  85 120 166 209 251 301 365
#     4  11  23  43  67  91 119 157 201 247 303 372
#     4  10  21  39  61  87 116 156 199 245 299 366
#     4  12  23  37  57  85 121 159 204 255 306 358
#     4  11  22  39  62  91 124 157 200 254 309 362
#
# _framework density 22.446843000000001
#
# number of rings (size 3 to 8) (size 9 to 14) (size 15 to 20)
#    0.000    0.800    0.000   10.800    0.000    0.400 
#    0.000    0.000    0.000    4.200    0.000    0.000 
#    0.000    0.000    0.000    0.000    0.000    0.000 
#
# Total GULP energy -495974.200133 kJ/mol
# GULP energy per Si atom -12399.355003 kJ/mol
# Density = 2.239575 g / cm^3
# Si number density = 22.446843 Si / 1000 Ang^3
#
#
#
# Elastic Constant Matrix: (Units=GPa)
#
#
# Indices 1 2 3 4 5 6 
#
# 1 78.5327 -6.8314 -4.0966 0.0000 0.0000 0.0000
# 2 -6.8314 95.9567 -4.2392 0.0000 0.0000 0.0000
# 3 -4.0966 -4.2392 51.4513 0.0000 0.0000 0.0000
# 4 0.0000 0.0000 0.0000 33.8487 0.0000 0.0000
# 5 0.0000 0.0000 0.0000 0.0000 27.8394 0.0000
# 6 0.0000 0.0000 0.0000 0.0000 0.0000 25.2542
#
#
#
# Elastic Compliance Matrix: (Units=1/GPa)
#
#
# Indices 1 2 3 4 5 6 
#
# 1 0.012875 0.000965 0.001105 0.000000 0.000000 0.000000
# 2 0.000965 0.010532 0.000945 0.000000 0.000000 0.000000
# 3 0.001105 0.000945 0.019602 0.000000 0.000000 0.000000
# 4 0.000000 0.000000 0.000000 0.029543 0.000000 0.000000
# 5 0.000000 0.000000 0.000000 0.000000 0.035920 0.000000
# 6 0.000000 0.000000 0.000000 0.000000 0.000000 0.039597
#
#
# Mechanical properties :
#
#
# Convention : Reuss Voigt Hill
#
# Bulk Modulus (GPa) = 20.39237 21.73406 21.06322
# Shear Modulus (GPa) = 31.56841 33.46231 32.51536
#
# Velocity S-wave (km/s) = 3.75422 3.86519 3.81011
# Velocity P-wave (km/s) = 5.28173 5.44271 5.36282
#
# Compressibility (1/GPa) = 0.04903795
#
# Stress axis : x y z
#
# Youngs Moduli (GPa) = 77.66901 94.95030 51.01617
#
# Poissons Ratio (x) = -0.09167 -0.05636
# Poissons Ratio (y) = -0.07498 -0.04819
# Poissons Ratio (z) = -0.08580 -0.08969
#
# Static dielectric constant tensor:
#      x y z
#    x 4.035030 0.000000 0.000000 
#    y 0.000000 4.703210 0.000000 
#    z 0.000000 0.000000 3.997810 
# 
# 
# High freq. dielectric constant tensor:
#      x y z
#    x 1.870050 0.000000 0.000000 
#    y 0.000000 1.909980 0.000000 
#    z 0.000000 0.000000 1.880680 
# 
# From -- ./inp_files/51289.got.cif
#   From: 2010.03.12/outbox.cif.g09.slc.cpg/sg68_26_cif.got.tgz:51289.got - 2010.04.10 23:14:56.
