data_PCOD8282872
_publ_section_title
;
Structure prediction by ZEFSAII (Michael W. Deem and Ramdas Pophale) SiO2 
 PCOD8282872
Probable space group: C C C A
;
_chemical_formula_sum "Si O2"
_cell_formula_units_Z 80
_cell_length_a 11.590578
_cell_length_b 20.179735
_cell_length_c 15.161783
_cell_angle_alpha 90.000000
_cell_angle_beta 90.000000
_cell_angle_gamma 90.000000
_cell_volume 3546.262089
_symmetry_space_group_name_H-M "C C C A"
_symmetry_group_IT_number 68
_space_group.IT_coordinate_system_code '2'
_symmetry_cell_setting 'orthorhombic'
loop_
_space_group_symop_operation_xyz
x,y,z
-x,1/2-y,z
x,1/2-y,1/2-z
-x,y,1/2-z
-x,-y,-z
x,1/2+y,-z
-x,1/2+y,1/2+z
x,-y,1/2+z
1/2+x,1/2+y,z
1/2-x,-y,z
1/2+x,-y,1/2-z
1/2-x,1/2+y,1/2-z
1/2-x,1/2-y,-z
1/2+x,y,-z
1/2-x,y,1/2+z
1/2+x,1/2-y,1/2+z
loop_
_atom_site_type_symbol
_atom_site_label
_atom_site_fract_x
_atom_site_fract_y
_atom_site_fract_z
Si Si1 0.836803 0.059854 0.692069
Si Si2 0.865292 0.758396 0.847349
Si Si3 0.491005 0.046844 0.654804
Si Si4 0.242485 0.897351 0.629506
Si Si5 0.318268 0.872771 0.440368
O O1 0.827084 0.099967 0.785081
O O2 0.797214 0.103892 0.609871
O O3 0.750000 0.000000 0.703488
O O4 0.962521 0.029048 0.668317
O O5 0.809118 0.750000 0.750000
O O6 0.833857 0.831330 0.877838
O O7 0.821858 0.705526 0.920516
O O8 0.000000 0.750000 0.840399
O O9 0.500000 0.083526 0.750000
O O10 0.354968 0.043348 0.627874
O O11 0.566336 0.090037 0.589535
O O12 0.318048 0.895023 0.541761
#
# Coordination Sequence:
#
# PCOD8282872 Si02
#       5
#    16  16  16  16  16
#     4  10  22  40  62  95 137 173 227 271 339 413
#     4  11  20  38  73  98 128 179 228 287 350 418
#     4  11  21  45  66  92 137 175 227 277 335 419
#     4  12  23  41  69  98 137 175 224 301 342 398
#     4  11  23  40  65 106 131 172 238 275 349 421
#
# _framework density 22.558965000000001
#
# number of rings (size 3 to 8) (size 9 to 14) (size 15 to 20)
#    0.000    1.000    8.000    0.600    0.000    3.200 
#    3.600    0.000    0.000    0.000    0.000    4.200 
#    0.000    0.000    0.000    0.000    0.000    0.000 
#
# Total GULP energy -495663.546180 kJ/mol
# GULP energy per Si atom -12391.588654 kJ/mol
# Density = 2.250762 g / cm^3
# Si number density = 22.558965 Si / 1000 Ang^3
#
#
#
# Elastic Constant Matrix: (Units=GPa)
#
#
# Indices 1 2 3 4 5 6 
#
# 1 67.6605 19.9891 13.1280 0.0000 0.0000 0.0000
# 2 19.9891 70.1417 11.5533 0.0000 0.0000 0.0000
# 3 13.1280 11.5533 121.2811 0.0000 0.0000 0.0000
# 4 0.0000 0.0000 0.0000 10.2481 0.0000 0.0000
# 5 0.0000 0.0000 0.0000 0.0000 33.9724 0.0000
# 6 0.0000 0.0000 0.0000 0.0000 0.0000 32.0711
#
#
#
# Elastic Compliance Matrix: (Units=1/GPa)
#
#
# Indices 1 2 3 4 5 6 
#
# 1 0.016352 -0.004438 -0.001347 0.000000 0.000000 0.000000
# 2 -0.004438 0.015689 -0.001014 0.000000 0.000000 0.000000
# 3 -0.001347 -0.001014 0.008488 0.000000 0.000000 0.000000
# 4 0.000000 0.000000 0.000000 0.097579 0.000000 0.000000
# 5 0.000000 0.000000 0.000000 0.000000 0.029436 0.000000
# 6 0.000000 0.000000 0.000000 0.000000 0.000000 0.031181
#
#
# Mechanical properties :
#
#
# Convention : Reuss Voigt Hill
#
# Bulk Modulus (GPa) = 37.13384 38.71378 37.92381
# Shear Modulus (GPa) = 22.59383 29.55252 26.07318
#
# Velocity S-wave (km/s) = 3.16815 3.62334 3.40336
# Velocity P-wave (km/s) = 5.46621 5.89094 5.68254
#
# Compressibility (1/GPa) = 0.02692961
#
# Stress axis : x y z
#
# Youngs Moduli (GPa) = 61.15362 63.74014 117.81693
#
# Poissons Ratio (x) = 0.28289 0.15873
# Poissons Ratio (y) = 0.27141 0.11948
# Poissons Ratio (z) = 0.08239 0.06464
#
# Static dielectric constant tensor:
#      x y z
#    x 4.390120 0.000000 0.000000 
#    y 0.000000 4.312240 0.000000 
#    z 0.000000 0.000000 4.155920 
# 
# 
# High freq. dielectric constant tensor:
#      x y z
#    x 1.874290 0.000000 0.000000 
#    y 0.000000 1.880840 0.000000 
#    z 0.000000 0.000000 1.892320 
# 
# From -- ./inp_files/20850.got.cif
#   From: 2010.03.12/outbox.cif.g09.slc.cpg/sg68_11_cif.got.tgz:20850.got - 2010.04.10 23:14:56.
