data_PCOD8282636
_publ_section_title
;
Structure prediction by ZEFSAII (Michael W. Deem and Ramdas Pophale) SiO2 
 PCOD8282636
Probable space group: C C C A
;
_chemical_formula_sum "Si O2"
_cell_formula_units_Z 72
_cell_length_a 26.299344
_cell_length_b 13.945083
_cell_length_c 9.097701
_cell_angle_alpha 90.000000
_cell_angle_beta 90.000000
_cell_angle_gamma 90.000000
_cell_volume 3336.550318
_symmetry_space_group_name_H-M "C C C A"
_symmetry_group_IT_number 68
_space_group.IT_coordinate_system_code '2'
_symmetry_cell_setting 'orthorhombic'
loop_
_space_group_symop_operation_xyz
x,y,z
-x,1/2-y,z
x,1/2-y,1/2-z
-x,y,1/2-z
-x,-y,-z
x,1/2+y,-z
-x,1/2+y,1/2+z
x,-y,1/2+z
1/2+x,1/2+y,z
1/2-x,-y,z
1/2+x,-y,1/2-z
1/2-x,1/2+y,1/2-z
1/2-x,1/2-y,-z
1/2+x,y,-z
1/2-x,y,1/2+z
1/2+x,1/2-y,1/2+z
loop_
_atom_site_type_symbol
_atom_site_label
_atom_site_fract_x
_atom_site_fract_y
_atom_site_fract_z
Si Si1 0.993435 0.136795 0.587477
Si Si2 0.591971 0.856288 0.081775
Si Si3 0.250000 0.500000 0.213026
Si Si4 0.605543 0.130608 0.913364
Si Si5 0.320885 0.533131 0.962287
O O1 0.037095 0.108571 0.472555
O O2 0.000000 0.250000 0.601549
O O3 0.000000 0.091056 0.750000
O O4 0.940507 0.098251 0.519843
O O5 0.606393 0.744916 0.077765
O O6 0.596328 0.899746 0.244638
O O7 0.630399 0.900245 0.963239
O O8 0.287095 0.559540 0.105826
O O9 0.286787 0.439060 0.320564
O O10 0.658393 0.078130 0.962102
#
# Coordination Sequence:
#
# PCOD8282636 Si02
#       5
#    16  16   8  16  16
#     4   9  19  34  57  92 128 154 190 240 287 347
#     4  10  21  39  63  90 121 159 196 236 293 358
#     4  10  24  42  62  84 120 152 196 258 310 332
#     4  10  21  39  63  90 121 159 196 236 293 358
#     4  11  22  43  62  86 118 157 194 253 300 354
#
# _framework density 21.579173999999998
#
# number of rings (size 3 to 8) (size 9 to 14) (size 15 to 20)
#    0.000    2.000    2.222    0.667    3.111    3.556 
#    0.000    6.667    0.000    0.000    0.000    0.000 
#    0.000    0.000    0.000    0.000    0.000    0.000 
#
# Total GULP energy -445976.838894 kJ/mol
# GULP energy per Si atom -12388.245525 kJ/mol
# Density = 2.153006 g / cm^3
# Si number density = 21.579174 Si / 1000 Ang^3
#
#
#
# Elastic Constant Matrix: (Units=GPa)
#
#
# Indices 1 2 3 4 5 6 
#
# 1 121.8675 14.3402 58.0074 0.0000 0.0000 0.0000
# 2 14.3402 28.0759 20.7352 0.0000 0.0000 0.0000
# 3 58.0074 20.7352 153.1443 0.0000 0.0000 0.0000
# 4 0.0000 0.0000 0.0000 8.5123 0.0000 0.0000
# 5 0.0000 0.0000 0.0000 0.0000 33.1979 0.0000
# 6 0.0000 0.0000 0.0000 0.0000 0.0000 10.5885
#
#
#
# Elastic Compliance Matrix: (Units=1/GPa)
#
#
# Indices 1 2 3 4 5 6 
#
# 1 0.010180 -0.002613 -0.003502 0.000000 0.000000 0.000000
# 2 -0.002613 0.040246 -0.004459 0.000000 0.000000 0.000000
# 3 -0.003502 -0.004459 0.008460 0.000000 0.000000 0.000000
# 4 0.000000 0.000000 0.000000 0.117477 0.000000 0.000000
# 5 0.000000 0.000000 0.000000 0.000000 0.030122 0.000000
# 6 0.000000 0.000000 0.000000 0.000000 0.000000 0.094442
#
#
# Mechanical properties :
#
#
# Convention : Reuss Voigt Hill
#
# Bulk Modulus (GPa) = 26.49937 54.36147 40.43042
# Shear Modulus (GPa) = 14.94074 24.46008 19.70041
#
# Velocity S-wave (km/s) = 2.63414 3.37041 3.02476
# Velocity P-wave (km/s) = 4.64310 6.35551 5.56556
#
# Compressibility (1/GPa) = 0.03773674
#
# Stress axis : x y z
#
# Youngs Moduli (GPa) = 98.23072 24.84728 118.20170
#
# Poissons Ratio (x) = 0.06493 0.41396
# Poissons Ratio (y) = 0.25669 0.52711
# Poissons Ratio (z) = 0.34402 0.11080
#
# Static dielectric constant tensor:
#      x y z
#    x 4.140100 0.000000 0.000000 
#    y 0.000000 3.483770 0.000000 
#    z 0.000000 0.000000 4.267700 
# 
# 
# High freq. dielectric constant tensor:
#      x y z
#    x 1.857540 0.000000 0.000000 
#    y 0.000000 1.809660 0.000000 
#    z 0.000000 0.000000 1.866660 
# 
# From -- ./inp_files/8648.got.cif
#   From: 2010.03.12/outbox.cif.g09.slc.cpg/sg68_5_cif.got.tgz:8648.got - 2010.04.10 23:14:56.
