data_PCOD8282390
_publ_section_title
;
Structure prediction by ZEFSAII (Michael W. Deem and Ramdas Pophale) SiO2 
 PCOD8282390
Probable space group: C C C A
;
_chemical_formula_sum "Si O2"
_cell_formula_units_Z 108
_cell_length_a 15.234523
_cell_length_b 29.315105
_cell_length_c 11.494107
_cell_angle_alpha 90.000000
_cell_angle_beta 90.000000
_cell_angle_gamma 90.000000
_cell_volume 5133.287052
_symmetry_space_group_name_H-M "C C C A"
_symmetry_group_IT_number 68
_space_group.IT_coordinate_system_code '2'
_symmetry_cell_setting 'orthorhombic'
loop_
_space_group_symop_operation_xyz
x,y,z
-x,1/2-y,z
x,1/2-y,1/2-z
-x,y,1/2-z
-x,-y,-z
x,1/2+y,-z
-x,1/2+y,1/2+z
x,-y,1/2+z
1/2+x,1/2+y,z
1/2-x,-y,z
1/2+x,-y,1/2-z
1/2-x,1/2+y,1/2-z
1/2-x,1/2-y,-z
1/2+x,y,-z
1/2-x,y,1/2+z
1/2+x,1/2-y,1/2+z
loop_
_atom_site_type_symbol
_atom_site_label
_atom_site_fract_x
_atom_site_fract_y
_atom_site_fract_z
Si Si1 0.545626 0.418165 0.420055
Si Si2 0.842154 0.705584 0.618801
Si Si3 0.721067 0.884531 0.260343
Si Si4 0.627722 0.948293 0.809433
Si Si5 0.645837 0.668232 0.876349
Si Si6 0.301960 0.750000 0.750000
Si Si7 0.413373 0.547591 0.320968
Si Si8 0.500000 0.250000 0.750000
O O1 0.602187 0.447083 0.327503
O O2 0.444114 0.427331 0.396490
O O3 0.562165 0.364408 0.392798
O O4 0.569412 0.430531 0.552314
O O5 0.813222 0.656047 0.661027
O O6 0.847964 0.702934 0.481609
O O7 0.766524 0.742666 0.643662
O O8 0.937480 0.718506 0.670567
O O9 0.787525 0.917060 0.332637
O O10 0.767811 0.864007 0.144694
O O11 0.637699 0.917076 0.236282
O O12 0.642636 0.001355 0.840649
O O13 0.638825 0.704486 0.769081
O O14 0.500000 0.534195 0.250000
#
# Coordination Sequence:
#
# PCOD8282390 Si02
#       8
#    16  16  16  16  16   8  16   4
#     4  10  21  41  62  91 132 173 219 280 327 394
#     4  10  20  41  62  95 129 168 211 271 335 394
#     4  10  23  39  62  94 130 170 216 273 318 405
#     4  10  22  42  62  89 131 181 217 271 331 392
#     4  10  20  40  64  92 135 164 220 265 334 401
#     4   9  20  37  68  94 126 164 214 265 331 405
#     4  12  23  39  64  96 131 169 233 275 335 397
#     4  10  24  40  68  92 132 166 216 286 332 394
#
# _framework density 21.039151
#
# number of rings (size 3 to 8) (size 9 to 14) (size 15 to 20)
#    0.000    1.778    2.963    1.333    1.037    1.185 
#    0.000   11.852    0.000    1.778    0.000    0.000 
#    0.000    0.000    0.000    0.000    0.000    0.000 
#
# Total GULP energy -669085.643294 kJ/mol
# GULP energy per Si atom -12390.474876 kJ/mol
# Density = 2.099127 g / cm^3
# Si number density = 21.039151 Si / 1000 Ang^3
#
#
#
# Elastic Constant Matrix: (Units=GPa)
#
#
# Indices 1 2 3 4 5 6 
#
# 1 63.4697 44.2502 23.6444 0.0000 0.0000 0.0000
# 2 44.2502 136.4565 32.6633 0.0000 0.0000 0.0000
# 3 23.6444 32.6633 83.1033 0.0000 0.0000 0.0000
# 4 0.0000 0.0000 0.0000 28.2588 0.0000 0.0000
# 5 0.0000 0.0000 0.0000 0.0000 17.2901 0.0000
# 6 0.0000 0.0000 0.0000 0.0000 0.0000 32.1170
#
#
#
# Elastic Compliance Matrix: (Units=1/GPa)
#
#
# Indices 1 2 3 4 5 6 
#
# 1 0.021341 -0.006035 -0.003700 0.000000 0.000000 0.000000
# 2 -0.006035 0.009796 -0.002133 0.000000 0.000000 0.000000
# 3 -0.003700 -0.002133 0.013924 0.000000 0.000000 0.000000
# 4 0.000000 0.000000 0.000000 0.035387 0.000000 0.000000
# 5 0.000000 0.000000 0.000000 0.000000 0.057837 0.000000
# 6 0.000000 0.000000 0.000000 0.000000 0.000000 0.031136
#
#
# Mechanical properties :
#
#
# Convention : Reuss Voigt Hill
#
# Bulk Modulus (GPa) = 46.89236 53.79394 50.34315
# Shear Modulus (GPa) = 24.96672 27.69794 26.33233
#
# Velocity S-wave (km/s) = 3.44856 3.63229 3.54162
# Velocity P-wave (km/s) = 6.18007 6.57384 6.37999
#
# Compressibility (1/GPa) = 0.02132543
#
# Stress axis : x y z
#
# Youngs Moduli (GPa) = 46.85732 102.08265 71.81645
#
# Poissons Ratio (x) = 0.61606 0.26572
# Poissons Ratio (y) = 0.28278 0.15320
# Poissons Ratio (z) = 0.17337 0.21776
#
# Static dielectric constant tensor:
#      x y z
#    x 3.814180 0.000000 0.000000 
#    y 0.000000 3.993570 0.000000 
#    z 0.000000 0.000000 3.626280 
# 
# 
# High freq. dielectric constant tensor:
#      x y z
#    x 1.810280 0.000000 0.000000 
#    y 0.000000 1.846440 0.000000 
#    z 0.000000 0.000000 1.804890 
# 
# From -- ./inp_files/13638.got.cif
#   From: 2010.03.12/outbox.cif.g09.slc.cpg/sg68_7_cif.got.tgz:13638.got - 2010.04.10 23:14:56.
