data_PCOD8282615
_publ_section_title
;
Structure prediction by ZEFSAII (Michael W. Deem and Ramdas Pophale) SiO2 
 PCOD8282615
Probable space group: C C C A
;
_chemical_formula_sum "Si O2"
_cell_formula_units_Z 80
_cell_length_a 21.525197
_cell_length_b 5.059991
_cell_length_c 34.986593
_cell_angle_alpha 90.000000
_cell_angle_beta 90.000000
_cell_angle_gamma 90.000000
_cell_volume 3810.645354
_symmetry_space_group_name_H-M "C C C A"
_symmetry_group_IT_number 68
_space_group.IT_coordinate_system_code '2'
_symmetry_cell_setting 'orthorhombic'
loop_
_space_group_symop_operation_xyz
x,y,z
-x,1/2-y,z
x,1/2-y,1/2-z
-x,y,1/2-z
-x,-y,-z
x,1/2+y,-z
-x,1/2+y,1/2+z
x,-y,1/2+z
1/2+x,1/2+y,z
1/2-x,-y,z
1/2+x,-y,1/2-z
1/2-x,1/2+y,1/2-z
1/2-x,1/2-y,-z
1/2+x,y,-z
1/2-x,y,1/2+z
1/2+x,1/2-y,1/2+z
loop_
_atom_site_type_symbol
_atom_site_label
_atom_site_fract_x
_atom_site_fract_y
_atom_site_fract_z
Si Si1 0.250000 0.000000 0.275068
Si Si2 0.806788 0.711314 0.660242
Si Si3 0.571438 0.752625 0.376838
Si Si4 0.250000 0.500000 0.092490
Si Si5 0.930043 0.752567 0.426466
Si Si6 0.319729 0.679219 0.524494
O O1 0.273341 0.250000 0.250000
O O2 0.194697 0.093773 0.303157
O O3 0.750000 0.500000 0.665736
O O4 0.880324 0.642700 0.656645
O O5 0.798116 0.851017 0.619544
O O6 0.500000 0.750000 0.361160
O O7 0.585115 0.459509 0.393051
O O8 0.582740 0.953875 0.411378
O O9 0.285665 0.289561 0.065560
O O10 0.892075 0.701277 0.465399
O O11 0.000000 0.750000 0.440542
O O12 0.300818 0.396217 0.506685
#
# Coordination Sequence:
#
# PCOD8282615 Si02
#       6
#     8  16  16   8  16  16
#     4  11  24  44  64 105 140 164 194 241 302 372
#     4  11  23  39  73  99 125 168 209 259 306 366
#     4  10  21  39  64  94 125 159 208 267 317 365
#     4  11  24  38  58  87 122 156 220 261 318 378
#     4  10  21  39  59  81 117 161 210 269 321 380
#     4  12  25  38  54  79 118 165 207 269 333 374
#
# _framework density 20.993818000000001
#
# number of rings (size 3 to 8) (size 9 to 14) (size 15 to 20)
#    0.000    1.200    3.000    3.000    5.600    0.800 
#    0.000    0.000    0.000    0.600    5.200    0.000 
#    0.000    0.000    0.000    0.000    0.000    0.000 
#
# Total GULP energy -495522.299550 kJ/mol
# GULP energy per Si atom -12388.057489 kJ/mol
# Density = 2.094604 g / cm^3
# Si number density = 20.993818 Si / 1000 Ang^3
#
#
#
# Elastic Constant Matrix: (Units=GPa)
#
#
# Indices 1 2 3 4 5 6 
#
# 1 114.3732 38.5215 48.9294 0.0000 0.0000 0.0000
# 2 38.5215 102.5638 39.2739 0.0000 0.0000 0.0000
# 3 48.9294 39.2739 120.4958 0.0000 0.0000 0.0000
# 4 0.0000 0.0000 0.0000 27.0460 0.0000 0.0000
# 5 0.0000 0.0000 0.0000 0.0000 9.3719 0.0000
# 6 0.0000 0.0000 0.0000 0.0000 0.0000 29.5917
#
#
#
# Elastic Compliance Matrix: (Units=1/GPa)
#
#
# Indices 1 2 3 4 5 6 
#
# 1 0.011258 -0.002831 -0.003649 0.000000 0.000000 0.000000
# 2 -0.002831 0.011852 -0.002714 0.000000 0.000000 0.000000
# 3 -0.003649 -0.002714 0.010665 0.000000 0.000000 0.000000
# 4 0.000000 0.000000 0.000000 0.036974 0.000000 0.000000
# 5 0.000000 0.000000 0.000000 0.000000 0.106702 0.000000
# 6 0.000000 0.000000 0.000000 0.000000 0.000000 0.033793
#
#
# Mechanical properties :
#
#
# Convention : Reuss Voigt Hill
#
# Bulk Modulus (GPa) = 64.98267 65.65359 65.31813
# Shear Modulus (GPa) = 21.29829 27.24912 24.27371
#
# Velocity S-wave (km/s) = 3.18858 3.60663 3.40403
# Velocity P-wave (km/s) = 6.67656 6.97742 6.82865
#
# Compressibility (1/GPa) = 0.01538872
#
# Stress axis : x y z
#
# Youngs Moduli (GPa) = 88.82774 84.37096 93.76405
#
# Poissons Ratio (x) = 0.23886 0.34211
# Poissons Ratio (y) = 0.25148 0.25443
# Poissons Ratio (z) = 0.32410 0.22894
#
# Static dielectric constant tensor:
#      x y z
#    x 4.168240 0.000000 0.000000 
#    y 0.000000 3.950880 0.000000 
#    z 0.000000 0.000000 3.644490 
# 
# 
# High freq. dielectric constant tensor:
#      x y z
#    x 1.834450 0.000000 0.000000 
#    y 0.000000 1.828190 0.000000 
#    z 0.000000 0.000000 1.790300 
# 
# From -- ./inp_files/55939.got.cif
#   From: 2010.03.12/outbox.cif.g09.slc.cpg/sg68_28_cif.got.tgz:55939.got - 2010.04.10 23:14:56.
