data_PCOD8282679
_publ_section_title
;
Structure prediction by ZEFSAII (Michael W. Deem and Ramdas Pophale) SiO2 
 PCOD8282679
Probable space group: C C C A
;
_chemical_formula_sum "Si O2"
_cell_formula_units_Z 68
_cell_length_a 24.534611
_cell_length_b 13.034076
_cell_length_c 9.105907
_cell_angle_alpha 90.000000
_cell_angle_beta 90.000000
_cell_angle_gamma 90.000000
_cell_volume 2911.941434
_symmetry_space_group_name_H-M "C C C A"
_symmetry_group_IT_number 68
_space_group.IT_coordinate_system_code '2'
_symmetry_cell_setting 'orthorhombic'
loop_
_space_group_symop_operation_xyz
x,y,z
-x,1/2-y,z
x,1/2-y,1/2-z
-x,y,1/2-z
-x,-y,-z
x,1/2+y,-z
-x,1/2+y,1/2+z
x,-y,1/2+z
1/2+x,1/2+y,z
1/2-x,-y,z
1/2+x,-y,1/2-z
1/2-x,1/2+y,1/2-z
1/2-x,1/2-y,-z
1/2+x,y,-z
1/2-x,y,1/2+z
1/2+x,1/2-y,1/2+z
loop_
_atom_site_type_symbol
_atom_site_label
_atom_site_fract_x
_atom_site_fract_y
_atom_site_fract_z
Si Si1 0.723815 0.606399 0.129544
Si Si2 0.049129 0.431661 0.938720
Si Si3 0.000000 0.250000 0.750000
Si Si4 0.879999 0.963577 0.702942
Si Si5 0.319485 0.663729 0.660362
O O1 0.750000 0.500000 0.065701
O O2 0.671327 0.596983 0.234046
O O3 0.771156 0.654397 0.223059
O O4 0.707214 0.684227 0.998475
O O5 0.077134 0.510720 0.828298
O O6 0.033654 0.325344 0.858331
O O7 0.090340 0.401222 0.071609
O O8 0.000000 0.500000 0.000000
O O9 0.858243 0.068280 0.631896
O O10 0.354814 0.750000 0.750000
#
# Coordination Sequence:
#
# PCOD8282679 Si02
#       5
#    16  16   4  16  16
#     4  10  21  40  64  99 141 197 236 294 374 439
#     4  12  25  49  76 109 144 193 248 318 371 450
#     4  12  28  48  86 106 148 192 254 312 400 438
#     4  11  23  44  74  96 147 193 240 298 379 433
#     4  11  23  38  65 103 146 187 246 302 361 442
#
# _framework density 23.352118000000001
#
# number of rings (size 3 to 8) (size 9 to 14) (size 15 to 20)
#    0.000    0.941    4.706    2.824    4.941    0.000 
#    0.000    2.353    0.000    0.000    0.000    0.000 
#    0.000    0.000    0.000    0.000    0.000    0.000 
#
# Total GULP energy -421215.467775 kJ/mol
# GULP energy per Si atom -12388.690229 kJ/mol
# Density = 2.329897 g / cm^3
# Si number density = 23.352118 Si / 1000 Ang^3
#
#
#
# Elastic Constant Matrix: (Units=GPa)
#
#
# Indices 1 2 3 4 5 6 
#
# 1 84.2765 7.7638 32.2617 0.0000 0.0000 0.0000
# 2 7.7638 63.8827 19.6942 0.0000 0.0000 0.0000
# 3 32.2617 19.6942 136.8897 0.0000 0.0000 0.0000
# 4 0.0000 0.0000 0.0000 49.0018 0.0000 0.0000
# 5 0.0000 0.0000 0.0000 0.0000 -30.6769 0.0000
# 6 0.0000 0.0000 0.0000 0.0000 0.0000 -30.7907
#
#
#
# Elastic Compliance Matrix: (Units=1/GPa)
#
#
# Indices 1 2 3 4 5 6 
#
# 1 0.013070 -0.000668 -0.002984 0.000000 0.000000 0.000000
# 2 -0.000668 0.016414 -0.002204 0.000000 0.000000 0.000000
# 3 -0.002984 -0.002204 0.008326 0.000000 0.000000 0.000000
# 4 0.000000 0.000000 0.000000 0.020407 0.000000 0.000000
# 5 0.000000 0.000000 0.000000 0.000000 -0.032598 0.000000
# 6 0.000000 0.000000 0.000000 0.000000 0.000000 -0.032477
#
#
# Mechanical properties :
#
#
# Convention : Reuss Voigt Hill
#
# Bulk Modulus (GPa) = 38.31923 44.94316 41.63119
# Shear Modulus (GPa) = 368.90747 12.52878 190.71813
#
# Velocity S-wave (km/s) = 12.58249 2.31879 9.04698
# Velocity P-wave (km/s) = 15.08433 5.14361 11.26929
#
# Compressibility (1/GPa) = 0.02609656
#
# Stress axis : x y z
#
# Youngs Moduli (GPa) = 76.51347 60.92217 120.11290
#
# Poissons Ratio (x) = 0.04072 0.35842
# Poissons Ratio (y) = 0.05115 0.26473
# Poissons Ratio (z) = 0.22832 0.13427
#
# Static dielectric constant tensor:
#      x y z
#    x 4.456430 0.000000 0.000000 
#    y 0.000000 4.823650 0.000000 
#    z 0.000000 0.000000 4.569930 
# 
# 
# High freq. dielectric constant tensor:
#      x y z
#    x 1.937500 0.000000 0.000000 
#    y 0.000000 1.902490 0.000000 
#    z 0.000000 0.000000 1.946010 
# 
# From -- ./inp_files/5118.got.cif
#   From: 2010.03.12/outbox.cif.g09.slc.cpg/sg68_3_cif.got.tgz:5118.got - 2010.04.10 23:14:56.
