data_PCOD8282326
_publ_section_title
;
Structure prediction by ZEFSAII (Michael W. Deem and Ramdas Pophale) SiO2 
 PCOD8282326
Probable space group: C C C A
;
_chemical_formula_sum "Si O2"
_cell_formula_units_Z 88
_cell_length_a 13.107771
_cell_length_b 14.166119
_cell_length_c 21.901720
_cell_angle_alpha 90.000000
_cell_angle_beta 90.000000
_cell_angle_gamma 90.000000
_cell_volume 4066.848120
_symmetry_space_group_name_H-M "C C C A"
_symmetry_group_IT_number 68
_space_group.IT_coordinate_system_code '2'
_symmetry_cell_setting 'orthorhombic'
loop_
_space_group_symop_operation_xyz
x,y,z
-x,1/2-y,z
x,1/2-y,1/2-z
-x,y,1/2-z
-x,-y,-z
x,1/2+y,-z
-x,1/2+y,1/2+z
x,-y,1/2+z
1/2+x,1/2+y,z
1/2-x,-y,z
1/2+x,-y,1/2-z
1/2-x,1/2+y,1/2-z
1/2-x,1/2-y,-z
1/2+x,y,-z
1/2-x,y,1/2+z
1/2+x,1/2-y,1/2+z
loop_
_atom_site_type_symbol
_atom_site_label
_atom_site_fract_x
_atom_site_fract_y
_atom_site_fract_z
Si Si1 0.839986 0.428679 0.525740
Si Si2 0.745487 0.186265 0.372495
Si Si3 0.250000 0.500000 0.189588
Si Si4 0.580760 0.546426 0.130463
Si Si5 0.620698 0.630330 0.392106
Si Si6 0.104589 0.387118 0.776333
O O1 0.750000 0.500000 0.508197
O O2 0.805049 0.334000 0.561854
O O3 0.921296 0.486310 0.567160
O O4 0.886458 0.388756 0.463940
O O5 0.809569 0.092400 0.357467
O O6 0.817727 0.276260 0.375106
O O7 0.659098 0.192374 0.319449
O O8 0.331728 0.545039 0.144737
O O9 0.189500 0.579104 0.227884
O O10 0.497553 0.630916 0.128969
O O11 0.562451 0.476563 0.186254
O O12 0.000000 0.341490 0.750000
#
# Coordination Sequence:
#
# PCOD8282326 Si02
#       6
#    16  16   8  16  16  16
#     4   9  19  38  62  90 127 167 206 255 321 395
#     4  10  22  39  64  92 128 160 206 273 326 366
#     4  12  24  38  62  86 122 164 208 258 312 392
#     4  10  20  38  67  89 121 170 210 263 322 379
#     4  12  22  37  61  96 125 161 213 265 316 377
#     4  11  21  43  65  85 122 172 213 254 323 397
#
# _framework density 21.638380000000002
#
# number of rings (size 3 to 8) (size 9 to 14) (size 15 to 20)
#    0.000    1.455    4.545    2.727    0.000    0.727 
#    0.000    1.818    0.000    0.000    0.000    0.000 
#    0.000    0.000    0.000    0.000    0.000    0.000 
#
# Total GULP energy -545390.584420 kJ/mol
# GULP energy per Si atom -12395.240555 kJ/mol
# Density = 2.158913 g / cm^3
# Si number density = 21.638380 Si / 1000 Ang^3
#
#
#
# Elastic Constant Matrix: (Units=GPa)
#
#
# Indices 1 2 3 4 5 6 
#
# 1 101.2653 17.0149 37.1492 0.0000 0.0000 0.0000
# 2 17.0149 71.3731 18.1534 0.0000 0.0000 0.0000
# 3 37.1492 18.1534 104.5472 0.0000 0.0000 0.0000
# 4 0.0000 0.0000 0.0000 18.6360 0.0000 0.0000
# 5 0.0000 0.0000 0.0000 0.0000 32.0949 0.0000
# 6 0.0000 0.0000 0.0000 0.0000 0.0000 45.2504
#
#
#
# Elastic Compliance Matrix: (Units=1/GPa)
#
#
# Indices 1 2 3 4 5 6 
#
# 1 0.011570 -0.001792 -0.003800 0.000000 0.000000 0.000000
# 2 -0.001792 0.014936 -0.001957 0.000000 0.000000 0.000000
# 3 -0.003800 -0.001957 0.011255 0.000000 0.000000 0.000000
# 4 0.000000 0.000000 0.000000 0.053660 0.000000 0.000000
# 5 0.000000 0.000000 0.000000 0.000000 0.031158 0.000000
# 6 0.000000 0.000000 0.000000 0.000000 0.000000 0.022099
#
#
# Mechanical properties :
#
#
# Convention : Reuss Voigt Hill
#
# Bulk Modulus (GPa) = 44.12327 46.86897 45.49612
# Shear Modulus (GPa) = 29.88117 32.85414 31.36765
#
# Velocity S-wave (km/s) = 3.72012 3.90080 3.81153
# Velocity P-wave (km/s) = 6.23602 6.48039 6.35938
#
# Compressibility (1/GPa) = 0.02266378
#
# Stress axis : x y z
#
# Youngs Moduli (GPa) = 86.42892 66.95360 88.84815
#
# Poissons Ratio (x) = 0.11996 0.33764
# Poissons Ratio (y) = 0.15486 0.17385
# Poissons Ratio (z) = 0.32845 0.13101
#
# Static dielectric constant tensor:
#      x y z
#    x 4.149550 0.000000 0.000000 
#    y 0.000000 3.614200 0.000000 
#    z 0.000000 0.000000 3.972240 
# 
# 
# High freq. dielectric constant tensor:
#      x y z
#    x 1.855420 0.000000 0.000000 
#    y 0.000000 1.832500 0.000000 
#    z 0.000000 0.000000 1.857660 
# 
# From -- ./inp_files/38496.got.cif
#   From: 2010.03.12/outbox.cif.g09.slc.cpg/sg68_20_cif.got.tgz:38496.got - 2010.04.10 23:14:56.
