data_PCOD8282392
_publ_section_title
;
Structure prediction by ZEFSAII (Michael W. Deem and Ramdas Pophale) SiO2 
 PCOD8282392
Probable space group: C C C A
;
_chemical_formula_sum "Si O2"
_cell_formula_units_Z 64
_cell_length_a 18.265845
_cell_length_b 14.171856
_cell_length_c 10.073600
_cell_angle_alpha 90.000000
_cell_angle_beta 90.000000
_cell_angle_gamma 90.000000
_cell_volume 2607.661415
_symmetry_space_group_name_H-M "C C C A"
_symmetry_group_IT_number 68
_space_group.IT_coordinate_system_code '2'
_symmetry_cell_setting 'orthorhombic'
loop_
_space_group_symop_operation_xyz
x,y,z
-x,1/2-y,z
x,1/2-y,1/2-z
-x,y,1/2-z
-x,-y,-z
x,1/2+y,-z
-x,1/2+y,1/2+z
x,-y,1/2+z
1/2+x,1/2+y,z
1/2-x,-y,z
1/2+x,-y,1/2-z
1/2-x,1/2+y,1/2-z
1/2-x,1/2-y,-z
1/2+x,y,-z
1/2-x,y,1/2+z
1/2+x,1/2-y,1/2+z
loop_
_atom_site_type_symbol
_atom_site_label
_atom_site_fract_x
_atom_site_fract_y
_atom_site_fract_z
Si Si1 0.459180 0.374264 0.616587
Si Si2 0.551670 0.094756 0.130672
Si Si3 0.697147 0.660255 0.471973
Si Si4 0.297573 0.642604 0.739079
O O1 0.500000 0.338205 0.750000
O O2 0.519697 0.361132 0.503182
O O3 0.436009 0.482946 0.625399
O O4 0.385638 0.315613 0.578092
O O5 0.500000 0.124424 0.250000
O O6 0.628819 0.142520 0.154653
O O7 0.750000 0.750000 0.500000
O O8 0.693653 0.600209 0.611451
O O9 0.733800 0.596398 0.353802
O O10 0.271984 0.750000 0.750000
#
# Coordination Sequence:
#
# PCOD8282392 Si02
#       4
#    16  16  16  16
#     4  10  22  39  65  96 131 163 221 277 330 388
#     4  10  20  40  64  94 126 169 213 272 332 399
#     4  10  22  42  62  89 130 174 212 271 324 398
#     4  10  22  40  64  87 129 168 220 261 335 397
#
# _framework density 24.543064000000001
#
# number of rings (size 3 to 8) (size 9 to 14) (size 15 to 20)
#    0.000    2.000    2.500    0.000    3.500    1.500 
#    0.000    2.500    0.000    0.000    0.000    0.000 
#    0.000    0.000    0.000    0.000    0.000    0.000 
#
# Total GULP energy -396425.652443 kJ/mol
# GULP energy per Si atom -12388.301639 kJ/mol
# Density = 2.448720 g / cm^3
# Si number density = 24.543064 Si / 1000 Ang^3
#
#
#
# Elastic Constant Matrix: (Units=GPa)
#
#
# Indices 1 2 3 4 5 6 
#
# 1 189.7150 19.1389 115.0071 0.0000 0.0000 0.0000
# 2 19.1389 19.5440 6.5860 0.0000 0.0000 0.0000
# 3 115.0071 6.5860 258.5431 0.0000 0.0000 0.0000
# 4 0.0000 0.0000 0.0000 8.0550 0.0000 0.0000
# 5 0.0000 0.0000 0.0000 0.0000 56.7943 0.0000
# 6 0.0000 0.0000 0.0000 0.0000 0.0000 6.1262
#
#
#
# Elastic Compliance Matrix: (Units=1/GPa)
#
#
# Indices 1 2 3 4 5 6 
#
# 1 0.008000 -0.006693 -0.003388 0.000000 0.000000 0.000000
# 2 -0.006693 0.057208 0.001520 0.000000 0.000000 0.000000
# 3 -0.003388 0.001520 0.005336 0.000000 0.000000 0.000000
# 4 0.000000 0.000000 0.000000 0.124147 0.000000 0.000000
# 5 0.000000 0.000000 0.000000 0.000000 0.017607 0.000000
# 6 0.000000 0.000000 0.000000 0.000000 0.000000 0.163232
#
#
# Mechanical properties :
#
#
# Convention : Reuss Voigt Hill
#
# Bulk Modulus (GPa) = 18.71866 83.25178 50.98522
# Shear Modulus (GPa) = 12.18143 35.99977 24.09060
#
# Velocity S-wave (km/s) = 2.23026 3.83404 3.13639
# Velocity P-wave (km/s) = 3.77829 7.32080 5.82536
#
# Compressibility (1/GPa) = 0.05342262
#
# Stress axis : x y z
#
# Youngs Moduli (GPa) = 124.99675 17.48000 187.39604
#
# Poissons Ratio (x) = 0.11699 0.63494
# Poissons Ratio (y) = 0.83655 -0.28480
# Poissons Ratio (z) = 0.42352 -0.02657
#
# Static dielectric constant tensor:
#      x y z
#    x 4.282630 0.000000 0.000000 
#    y 0.000000 3.796690 0.000000 
#    z 0.000000 0.000000 6.601690 
# 
# 
# High freq. dielectric constant tensor:
#      x y z
#    x 1.986630 0.000000 0.000000 
#    y 0.000000 1.927880 0.000000 
#    z 0.000000 0.000000 2.012210 
# 
# From -- ./inp_files/12782.got.cif
#   From: 2010.03.12/outbox.cif.g09.slc.cpg/sg68_7_cif.got.tgz:12782.got - 2010.04.10 23:14:56.
