data_PCOD8282892
_publ_section_title
;
Structure prediction by ZEFSAII (Michael W. Deem and Ramdas Pophale) SiO2 
 PCOD8282892
Probable space group: C C C A
;
_chemical_formula_sum "Si O2"
_cell_formula_units_Z 88
_cell_length_a 13.418897
_cell_length_b 23.061752
_cell_length_c 11.733467
_cell_angle_alpha 90.000000
_cell_angle_beta 90.000000
_cell_angle_gamma 90.000000
_cell_volume 3631.077122
_symmetry_space_group_name_H-M "C C C A"
_symmetry_group_IT_number 68
_space_group.IT_coordinate_system_code '2'
_symmetry_cell_setting 'orthorhombic'
loop_
_space_group_symop_operation_xyz
x,y,z
-x,1/2-y,z
x,1/2-y,1/2-z
-x,y,1/2-z
-x,-y,-z
x,1/2+y,-z
-x,1/2+y,1/2+z
x,-y,1/2+z
1/2+x,1/2+y,z
1/2-x,-y,z
1/2+x,-y,1/2-z
1/2-x,1/2+y,1/2-z
1/2-x,1/2-y,-z
1/2+x,y,-z
1/2-x,y,1/2+z
1/2+x,1/2-y,1/2+z
loop_
_atom_site_type_symbol
_atom_site_label
_atom_site_fract_x
_atom_site_fract_y
_atom_site_fract_z
Si Si1 0.672453 0.344372 0.361451
Si Si2 0.363039 0.931633 0.672499
Si Si3 0.061857 0.826593 0.578244
Si Si4 0.870788 0.060071 0.302745
Si Si5 0.373942 0.116314 0.932760
Si Si6 0.314092 0.250000 0.750000
O O1 0.611566 0.387521 0.276999
O O2 0.594881 0.314634 0.447757
O O3 0.755007 0.376062 0.439557
O O4 0.738788 0.298476 0.293565
O O5 0.245222 0.937401 0.672650
O O6 0.407272 0.908560 0.554147
O O7 0.412471 0.994969 0.683648
O O8 0.081178 0.893766 0.610877
O O9 0.114480 0.780077 0.657878
O O10 0.939758 0.823759 0.585350
O O11 0.898678 0.074450 0.172637
#
# Coordination Sequence:
#
# PCOD8282892 Si02
#       6
#    16  16  16  16  16   8
#     4  11  24  46  70  99 136 181 228 284 344 407
#     4  10  22  41  70  99 143 183 218 281 345 413
#     4  12  25  43  70 102 135 180 230 283 344 396
#     4  10  22  40  68 100 138 182 224 272 344 409
#     4  11  23  43  66 104 140 174 230 275 340 416
#     4  12  24  47  70  99 136 180 238 285 336 403
#
# _framework density 24.235232
#
# number of rings (size 3 to 8) (size 9 to 14) (size 15 to 20)
#    0.000    1.091    5.455    1.091    2.545    4.364 
#    3.273    0.000    0.000    4.364    0.000    0.000 
#    0.000    0.000    0.000    0.000    0.000    0.000 
#
# Total GULP energy -545200.878746 kJ/mol
# GULP energy per Si atom -12390.929062 kJ/mol
# Density = 2.418007 g / cm^3
# Si number density = 24.235232 Si / 1000 Ang^3
#
#
#
# Elastic Constant Matrix: (Units=GPa)
#
#
# Indices 1 2 3 4 5 6 
#
# 1 29.1671 1.4522 10.3215 0.0000 0.0000 0.0000
# 2 1.4522 119.5354 40.6694 0.0000 0.0000 0.0000
# 3 10.3215 40.6694 142.6682 0.0000 0.0000 0.0000
# 4 0.0000 0.0000 0.0000 16.4979 0.0000 0.0000
# 5 0.0000 0.0000 0.0000 0.0000 -76.5852 0.0000
# 6 0.0000 0.0000 0.0000 0.0000 0.0000 17.7662
#
#
#
# Elastic Compliance Matrix: (Units=1/GPa)
#
#
# Indices 1 2 3 4 5 6 
#
# 1 0.035211 0.000486 -0.002686 0.000000 0.000000 0.000000
# 2 0.000486 0.009271 -0.002678 0.000000 0.000000 0.000000
# 3 -0.002686 -0.002678 0.007967 0.000000 0.000000 0.000000
# 4 0.000000 0.000000 0.000000 0.060614 0.000000 0.000000
# 5 0.000000 0.000000 0.000000 0.000000 -0.013057 0.000000
# 6 0.000000 0.000000 0.000000 0.000000 0.000000 0.056287
#
#
# Mechanical properties :
#
#
# Convention : Reuss Voigt Hill
#
# Bulk Modulus (GPa) = 23.42270 44.02854 33.72562
# Shear Modulus (GPa) = 27.73474 7.46430 17.59952
#
# Velocity S-wave (km/s) = 3.38656 1.75688 2.69773
# Velocity P-wave (km/s) = 4.99775 4.72463 4.86310
#
# Compressibility (1/GPa) = 0.04269363
#
# Stress axis : x y z
#
# Youngs Moduli (GPa) = 28.39986 107.86398 125.51818
#
# Poissons Ratio (x) = -0.05243 0.33714
# Poissons Ratio (y) = -0.01380 0.33613
# Poissons Ratio (z) = 0.07628 0.28886
#
# Static dielectric constant tensor:
#      x y z
#    x 4.542380 0.000000 0.000000 
#    y 0.000000 4.719990 0.000000 
#    z 0.000000 0.000000 4.300350 
# 
# 
# High freq. dielectric constant tensor:
#      x y z
#    x 1.972320 0.000000 0.000000 
#    y 0.000000 1.957000 0.000000 
#    z 0.000000 0.000000 1.967060 
# 
# From -- ./inp_files/13339.got.cif
#   From: 2010.03.12/outbox.cif.g09.slc.cpg/sg68_7_cif.got.tgz:13339.got - 2010.04.10 23:14:56.
