data_PCOD8282333
_publ_section_title
;
Structure prediction by ZEFSAII (Michael W. Deem and Ramdas Pophale) SiO2 
 PCOD8282333
Probable space group: C C C A
;
_chemical_formula_sum "Si O2"
_cell_formula_units_Z 68
_cell_length_a 22.828394
_cell_length_b 18.836693
_cell_length_c 9.018011
_cell_angle_alpha 90.000000
_cell_angle_beta 90.000000
_cell_angle_gamma 90.000000
_cell_volume 3877.847981
_symmetry_space_group_name_H-M "C C C A"
_symmetry_group_IT_number 68
_space_group.IT_coordinate_system_code '2'
_symmetry_cell_setting 'orthorhombic'
loop_
_space_group_symop_operation_xyz
x,y,z
-x,1/2-y,z
x,1/2-y,1/2-z
-x,y,1/2-z
-x,-y,-z
x,1/2+y,-z
-x,1/2+y,1/2+z
x,-y,1/2+z
1/2+x,1/2+y,z
1/2-x,-y,z
1/2+x,-y,1/2-z
1/2-x,1/2+y,1/2-z
1/2-x,1/2-y,-z
1/2+x,y,-z
1/2-x,y,1/2+z
1/2+x,1/2-y,1/2+z
loop_
_atom_site_type_symbol
_atom_site_label
_atom_site_fract_x
_atom_site_fract_y
_atom_site_fract_z
Si Si1 0.318519 0.058330 0.199212
Si Si2 0.689286 0.234898 0.919491
Si Si3 0.500000 0.250000 0.250000
Si Si4 0.611990 0.692883 0.636019
Si Si5 0.197957 0.922463 0.539958
O O1 0.372022 0.112676 0.179588
O O2 0.263973 0.084922 0.101027
O O3 0.300301 0.052300 0.370148
O O4 0.337297 0.980556 0.138443
O O5 0.700413 0.250000 0.750000
O O6 0.667647 0.154072 0.945322
O O7 0.750000 0.250000 0.000000
O O8 0.637618 0.287063 0.975299
O O9 0.458822 0.299221 0.355332
O O10 0.641358 0.750000 0.750000
#
# Coordination Sequence:
#
# PCOD8282333 Si02
#       5
#    16  16   4  16  16
#     4  11  21  32  52  78 122 151 187 225 302 357
#     4  12  22  33  57  89 121 149 193 243 303 358
#     4   8  20  40  66  80 104 156 224 238 280 340
#     4  10  20  39  60  80 105 157 200 247 280 346
#     4  11  21  32  47  83 119 151 179 231 297 371
#
# _framework density 17.535499000000002
#
# number of rings (size 3 to 8) (size 9 to 14) (size 15 to 20)
#    0.706    0.471    4.706    4.941    3.294    0.000 
#    0.000    0.588    0.000    5.647    0.000    0.000 
#    0.000    0.000    0.000    0.000    0.000    0.000 
#
# Total GULP energy -421458.055712 kJ/mol
# GULP energy per Si atom -12395.825168 kJ/mol
# Density = 1.749559 g / cm^3
# Si number density = 17.535499 Si / 1000 Ang^3
#
#
#
# Elastic Constant Matrix: (Units=GPa)
#
#
# Indices 1 2 3 4 5 6 
#
# 1 99.6530 36.0780 40.5218 0.0000 0.0000 0.0000
# 2 36.0780 128.1026 38.9872 0.0000 0.0000 0.0000
# 3 40.5218 38.9872 145.8805 0.0000 0.0000 0.0000
# 4 0.0000 0.0000 0.0000 29.3534 0.0000 0.0000
# 5 0.0000 0.0000 0.0000 0.0000 14.3261 0.0000
# 6 0.0000 0.0000 0.0000 0.0000 0.0000 25.8264
#
#
#
# Elastic Compliance Matrix: (Units=1/GPa)
#
#
# Indices 1 2 3 4 5 6 
#
# 1 0.012051 -0.002585 -0.002656 0.000000 0.000000 0.000000
# 2 -0.002585 0.009052 -0.001701 0.000000 0.000000 0.000000
# 3 -0.002656 -0.001701 0.008047 0.000000 0.000000 0.000000
# 4 0.000000 0.000000 0.000000 0.034068 0.000000 0.000000
# 5 0.000000 0.000000 0.000000 0.000000 0.069803 0.000000
# 6 0.000000 0.000000 0.000000 0.000000 0.000000 0.038720
#
#
# Mechanical properties :
#
#
# Convention : Reuss Voigt Hill
#
# Bulk Modulus (GPa) = 65.51114 67.20111 66.35612
# Shear Modulus (GPa) = 26.21708 31.10443 28.66076
#
# Velocity S-wave (km/s) = 3.87083 4.21622 4.04721
# Velocity P-wave (km/s) = 7.57747 7.88087 7.73066
#
# Compressibility (1/GPa) = 0.01526458
#
# Stress axis : x y z
#
# Youngs Moduli (GPa) = 82.98017 110.47154 124.26314
#
# Poissons Ratio (x) = 0.28562 0.33010
# Poissons Ratio (y) = 0.21455 0.21138
# Poissons Ratio (z) = 0.22044 0.18792
#
# Static dielectric constant tensor:
#      x y z
#    x 2.774400 0.000000 0.000000 
#    y 0.000000 3.572140 0.000000 
#    z 0.000000 0.000000 3.328950 
# 
# 
# High freq. dielectric constant tensor:
#      x y z
#    x 1.618280 0.000000 0.000000 
#    y 0.000000 1.692990 0.000000 
#    z 0.000000 0.000000 1.687410 
# 
# From -- ./inp_files/9465.got.cif
#   From: 2010.03.12/outbox.cif.g09.slc.cpg/sg68_5_cif.got.tgz:9465.got - 2010.04.10 23:14:56.
