data_PCOD8282112
_publ_section_title
;
Structure prediction by ZEFSAII (Michael W. Deem and Ramdas Pophale) SiO2 
 PCOD8282112
Probable space group: C C C A
;
_chemical_formula_sum "Si O2"
_cell_formula_units_Z 112
_cell_length_a 14.521188
_cell_length_b 29.473827
_cell_length_c 12.685921
_cell_angle_alpha 90.000000
_cell_angle_beta 90.000000
_cell_angle_gamma 90.000000
_cell_volume 5429.510542
_symmetry_space_group_name_H-M "C C C A"
_symmetry_group_IT_number 68
_space_group.IT_coordinate_system_code '2'
_symmetry_cell_setting 'orthorhombic'
loop_
_space_group_symop_operation_xyz
x,y,z
-x,1/2-y,z
x,1/2-y,1/2-z
-x,y,1/2-z
-x,-y,-z
x,1/2+y,-z
-x,1/2+y,1/2+z
x,-y,1/2+z
1/2+x,1/2+y,z
1/2-x,-y,z
1/2+x,-y,1/2-z
1/2-x,1/2+y,1/2-z
1/2-x,1/2-y,-z
1/2+x,y,-z
1/2-x,y,1/2+z
1/2+x,1/2-y,1/2+z
loop_
_atom_site_type_symbol
_atom_site_label
_atom_site_fract_x
_atom_site_fract_y
_atom_site_fract_z
Si Si1 0.670993 0.559940 0.593389
Si Si2 0.372949 0.040991 0.653241
Si Si3 0.930474 0.574704 0.878102
Si Si4 0.438173 0.355500 0.352300
Si Si5 0.130862 0.262109 0.423011
Si Si6 0.526121 0.671307 0.423077
Si Si7 0.828107 0.767573 0.358117
O O1 0.639892 0.512426 0.641031
O O2 0.782161 0.566052 0.605105
O O3 0.641690 0.564884 0.471418
O O4 0.615241 0.597118 0.660685
O O5 0.384852 0.051817 0.776506
O O6 0.467398 0.055314 0.593938
O O7 0.943444 0.628451 0.852391
O O8 0.500000 0.347005 0.250000
O O9 0.495573 0.350629 0.461092
O O10 0.360461 0.318401 0.371252
O O11 0.104025 0.209449 0.412004
O O12 0.143228 0.267467 0.549480
O O13 0.218803 0.270070 0.352179
O O14 0.063227 0.301441 0.382605
O O15 0.871773 0.750000 0.250000
#
# Coordination Sequence:
#
# PCOD8282112 Si02
#       7
#    16  16  16  16  16  16  16
#     4  10  23  42  63  96 123 159 218 255 323 379
#     4  10  23  42  65  91 125 168 203 268 315 388
#     4  10  22  42  66  91 126 171 204 260 321 378
#     4  10  21  36  58  89 119 157 205 259 304 374
#     4   9  19  36  57  81 119 155 198 251 292 373
#     4   9  19  38  57  83 118 159 201 245 310 358
#     4  10  20  34  56  85 117 155 196 244 311 352
#
# _framework density 20.628011000000001
#
# number of rings (size 3 to 8) (size 9 to 14) (size 15 to 20)
#    0.000    2.286    0.000    1.286    4.000    4.857 
#    7.714    0.714    0.000    0.000    0.000    0.000 
#    0.000    0.000    0.000    0.000    0.000    0.000 
#
# Total GULP energy -693872.805271 kJ/mol
# GULP energy per Si atom -12390.585808 kJ/mol
# Density = 2.058106 g / cm^3
# Si number density = 20.628011 Si / 1000 Ang^3
#
#
#
# Elastic Constant Matrix: (Units=GPa)
#
#
# Indices 1 2 3 4 5 6 
#
# 1 130.4568 38.7452 27.7628 0.0000 0.0000 0.0000
# 2 38.7452 122.1596 23.1169 0.0000 0.0000 0.0000
# 3 27.7628 23.1169 74.5128 0.0000 0.0000 0.0000
# 4 0.0000 0.0000 0.0000 16.0659 0.0000 0.0000
# 5 0.0000 0.0000 0.0000 0.0000 30.2000 0.0000
# 6 0.0000 0.0000 0.0000 0.0000 0.0000 9.0644
#
#
#
# Elastic Compliance Matrix: (Units=1/GPa)
#
#
# Indices 1 2 3 4 5 6 
#
# 1 0.008911 -0.002335 -0.002596 0.000000 0.000000 0.000000
# 2 -0.002335 0.009308 -0.002018 0.000000 0.000000 0.000000
# 3 -0.002596 -0.002018 0.015014 0.000000 0.000000 0.000000
# 4 0.000000 0.000000 0.000000 0.062244 0.000000 0.000000
# 5 0.000000 0.000000 0.000000 0.000000 0.033113 0.000000
# 6 0.000000 0.000000 0.000000 0.000000 0.000000 0.110322
#
#
# Mechanical properties :
#
#
# Convention : Reuss Voigt Hill
#
# Bulk Modulus (GPa) = 51.71721 56.26434 53.99077
# Shear Modulus (GPa) = 19.28608 26.89969 23.09288
#
# Velocity S-wave (km/s) = 3.06101 3.61506 3.34951
# Velocity P-wave (km/s) = 6.13342 6.69028 6.41789
#
# Compressibility (1/GPa) = 0.01933592
#
# Stress axis : x y z
#
# Youngs Moduli (GPa) = 112.21659 107.42870 66.60587
#
# Poissons Ratio (x) = 0.25087 0.17290
# Poissons Ratio (y) = 0.26205 0.13440
# Poissons Ratio (z) = 0.29129 0.21677
#
# Static dielectric constant tensor:
#      x y z
#    x 3.908520 0.000000 0.000000 
#    y 0.000000 3.816120 0.000000 
#    z 0.000000 0.000000 3.205830 
# 
# 
# High freq. dielectric constant tensor:
#      x y z
#    x 1.807460 0.000000 0.000000 
#    y 0.000000 1.814050 0.000000 
#    z 0.000000 0.000000 1.801290 
# 
# From -- ./inp_files/13576.got.cif
#   From: 2010.03.12/outbox.cif.g09.slc.cpg/sg68_7_cif.got.tgz:13576.got - 2010.04.10 23:14:56.
