data_PCOD8282898
_publ_section_title
;
Structure prediction by ZEFSAII (Michael W. Deem and Ramdas Pophale) SiO2 
 PCOD8282898
Probable space group: C C C A
;
_chemical_formula_sum "Si O2"
_cell_formula_units_Z 104
_cell_length_a 27.431339
_cell_length_b 20.496197
_cell_length_c 8.781853
_cell_angle_alpha 90.000000
_cell_angle_beta 90.000000
_cell_angle_gamma 90.000000
_cell_volume 4937.492592
_symmetry_space_group_name_H-M "C C C A"
_symmetry_group_IT_number 68
_space_group.IT_coordinate_system_code '2'
_symmetry_cell_setting 'orthorhombic'
loop_
_space_group_symop_operation_xyz
x,y,z
-x,1/2-y,z
x,1/2-y,1/2-z
-x,y,1/2-z
-x,-y,-z
x,1/2+y,-z
-x,1/2+y,1/2+z
x,-y,1/2+z
1/2+x,1/2+y,z
1/2-x,-y,z
1/2+x,-y,1/2-z
1/2-x,1/2+y,1/2-z
1/2-x,1/2-y,-z
1/2+x,y,-z
1/2-x,y,1/2+z
1/2+x,1/2-y,1/2+z
loop_
_atom_site_type_symbol
_atom_site_label
_atom_site_fract_x
_atom_site_fract_y
_atom_site_fract_z
Si Si1 0.079143 0.250000 0.750000
Si Si2 0.405228 0.750000 0.250000
Si Si3 0.912555 0.464155 0.381078
Si Si4 0.052145 0.157880 0.494122
Si Si5 0.625351 0.168501 0.008617
Si Si6 0.816103 0.948681 0.085038
Si Si7 0.543550 0.926283 0.445361
Si Si8 0.750000 0.500000 0.671690
O O1 0.047439 0.193114 0.661368
O O2 0.117419 0.226367 0.874222
O O3 0.440874 0.785744 0.369234
O O4 0.370651 0.698422 0.338076
O O5 0.904878 0.397388 0.482809
O O6 0.861727 0.503648 0.376224
O O7 0.932268 0.443904 0.216154
O O8 0.956415 0.507836 0.453172
O O9 0.006754 0.112962 0.442043
O O10 0.671816 0.126763 0.056471
O O11 0.578656 0.123487 0.029477
O O12 0.776531 0.947690 0.219263
O O13 0.792625 0.969176 0.926379
#
# Coordination Sequence:
#
# PCOD8282898 Si02
#       8
#     8   8  16  16  16  16  16   8
#     4  10  26  41  62  93 120 190 218 273 302 358
#     4  10  22  41  62  87 122 188 218 263 310 360
#     4  11  23  41  65  94 128 173 206 279 327 389
#     4  11  24  41  60  89 128 173 232 266 305 371
#     4  10  22  41  63  90 127 170 219 264 316 390
#     4  10  22  41  68  99 128 155 208 263 347 402
#     4  11  24  40  62  89 131 173 221 272 320 356
#     4  10  22  40  70 104 120 158 190 276 350 408
#
# _framework density 21.063321999999999
#
# number of rings (size 3 to 8) (size 9 to 14) (size 15 to 20)
#    0.000    1.538    1.538    2.769    6.462    4.308 
#    0.000    0.000    0.000    2.769    0.000    0.000 
#    0.000    0.000    0.000    0.000    0.000    0.000 
#
# Total GULP energy -644194.203065 kJ/mol
# GULP energy per Si atom -12388.350059 kJ/mol
# Density = 2.101538 g / cm^3
# Si number density = 21.063322 Si / 1000 Ang^3
#
#
#
# Elastic Constant Matrix: (Units=GPa)
#
#
# Indices 1 2 3 4 5 6 
#
# 1 85.6486 29.9132 41.0765 0.0000 0.0000 0.0000
# 2 29.9132 108.1121 43.0336 0.0000 0.0000 0.0000
# 3 41.0765 43.0336 123.1928 0.0000 0.0000 0.0000
# 4 0.0000 0.0000 0.0000 38.9890 0.0000 0.0000
# 5 0.0000 0.0000 0.0000 0.0000 24.0071 0.0000
# 6 0.0000 0.0000 0.0000 0.0000 0.0000 25.0831
#
#
#
# Elastic Compliance Matrix: (Units=1/GPa)
#
#
# Indices 1 2 3 4 5 6 
#
# 1 0.014420 -0.002411 -0.003966 0.000000 0.000000 0.000000
# 2 -0.002411 0.011147 -0.003090 0.000000 0.000000 0.000000
# 3 -0.003966 -0.003090 0.010519 0.000000 0.000000 0.000000
# 4 0.000000 0.000000 0.000000 0.025648 0.000000 0.000000
# 5 0.000000 0.000000 0.000000 0.000000 0.041654 0.000000
# 6 0.000000 0.000000 0.000000 0.000000 0.000000 0.039868
#
#
# Mechanical properties :
#
#
# Convention : Reuss Voigt Hill
#
# Bulk Modulus (GPa) = 58.30239 60.55554 59.42897
# Shear Modulus (GPa) = 29.77855 31.14452 30.46153
#
# Velocity S-wave (km/s) = 3.76408 3.84945 3.80700
# Velocity P-wave (km/s) = 6.82867 6.96917 6.89928
#
# Compressibility (1/GPa) = 0.01715196
#
# Stress axis : x y z
#
# Youngs Moduli (GPa) = 69.34975 89.71284 95.06635
#
# Poissons Ratio (x) = 0.21632 0.37700
# Poissons Ratio (y) = 0.16722 0.29373
# Poissons Ratio (z) = 0.27502 0.27719
#
# Static dielectric constant tensor:
#      x y z
#    x 3.639420 0.000000 0.000000 
#    y 0.000000 4.312940 0.000000 
#    z 0.000000 0.000000 4.043880 
# 
# 
# High freq. dielectric constant tensor:
#      x y z
#    x 1.788160 0.000000 0.000000 
#    y 0.000000 1.840870 0.000000 
#    z 0.000000 0.000000 1.843860 
# 
# From -- ./inp_files/9044.got.cif
#   From: 2010.03.12/outbox.cif.g09.slc.cpg/sg68_5_cif.got.tgz:9044.got - 2010.04.10 23:14:56.
