data_PCOD8282477
_publ_section_title
;
Structure prediction by ZEFSAII (Michael W. Deem and Ramdas Pophale) SiO2 
 PCOD8282477
Probable space group: C C C A
;
_chemical_formula_sum "Si O2"
_cell_formula_units_Z 44
_cell_length_a 16.610839
_cell_length_b 21.704150
_cell_length_c 5.217710
_cell_angle_alpha 90.000000
_cell_angle_beta 90.000000
_cell_angle_gamma 90.000000
_cell_volume 1881.110417
_symmetry_space_group_name_H-M "C C C A"
_symmetry_group_IT_number 68
_space_group.IT_coordinate_system_code '2'
_symmetry_cell_setting 'orthorhombic'
loop_
_space_group_symop_operation_xyz
x,y,z
-x,1/2-y,z
x,1/2-y,1/2-z
-x,y,1/2-z
-x,-y,-z
x,1/2+y,-z
-x,1/2+y,1/2+z
x,-y,1/2+z
1/2+x,1/2+y,z
1/2-x,-y,z
1/2+x,-y,1/2-z
1/2-x,1/2+y,1/2-z
1/2-x,1/2-y,-z
1/2+x,y,-z
1/2-x,y,1/2+z
1/2+x,1/2-y,1/2+z
loop_
_atom_site_type_symbol
_atom_site_label
_atom_site_fract_x
_atom_site_fract_y
_atom_site_fract_z
Si Si1 0.000000 0.250000 0.750000
Si Si2 0.803531 0.250000 0.250000
Si Si3 0.421218 0.346521 0.904801
Si Si4 0.593195 0.029991 0.189379
O O1 0.058747 0.289868 0.582810
O O2 0.750000 0.250000 0.500000
O O3 0.854035 0.314803 0.274247
O O4 0.500000 0.370450 0.750000
O O5 0.389452 0.401613 0.084773
O O6 0.500000 0.017071 0.250000
O O7 0.631069 0.016730 0.472553
#
# Coordination Sequence:
#
# PCOD8282477 Si02
#       4
#     4   8  16  16
#     4  12  20  36  64 100 124 170 218 272 322 398
#     4  12  28  44  63  95 136 174 218 272 336 398
#     4  12  23  40  67  95 131 171 219 273 332 403
#     4  10  21  35  59  97 130 160 207 275 334 381
#
# _framework density 23.390440999999999
#
# number of rings (size 3 to 8) (size 9 to 14) (size 15 to 20)
#    0.000    0.727    5.455    4.364    0.000    0.000 
#    0.000    0.000    0.000    6.545    0.000    0.000 
#    0.000    0.000    0.000    0.000    0.000    0.000 
#
# Total GULP energy -272554.682776 kJ/mol
# GULP energy per Si atom -12388.849217 kJ/mol
# Density = 2.333720 g / cm^3
# Si number density = 23.390441 Si / 1000 Ang^3
#
#
#
# Elastic Constant Matrix: (Units=GPa)
#
#
# Indices 1 2 3 4 5 6 
#
# 1 66.7968 27.7184 32.1218 0.0000 0.0000 0.0000
# 2 27.7184 163.1916 55.0391 0.0000 0.0000 0.0000
# 3 32.1218 55.0391 161.3377 0.0000 0.0000 0.0000
# 4 0.0000 0.0000 0.0000 73.2907 0.0000 0.0000
# 5 0.0000 0.0000 0.0000 0.0000 -142.5760 0.0000
# 6 0.0000 0.0000 0.0000 0.0000 0.0000 9.4684
#
#
#
# Elastic Compliance Matrix: (Units=1/GPa)
#
#
# Indices 1 2 3 4 5 6 
#
# 1 0.017107 -0.001985 -0.002729 0.000000 0.000000 0.000000
# 2 -0.001985 0.007155 -0.002046 0.000000 0.000000 0.000000
# 3 -0.002729 -0.002046 0.007439 0.000000 0.000000 0.000000
# 4 0.000000 0.000000 0.000000 0.013644 0.000000 0.000000
# 5 0.000000 0.000000 0.000000 0.000000 -0.007014 0.000000
# 6 0.000000 0.000000 0.000000 0.000000 0.000000 0.105615
#
#
# Mechanical properties :
#
#
# Convention : Reuss Voigt Hill
#
# Bulk Modulus (GPa) = 54.99979 69.00943 62.00461
# Shear Modulus (GPa) = 30.57622 6.46639 18.52130
#
# Velocity S-wave (km/s) = 3.61946 1.66450 2.81700
# Velocity P-wave (km/s) = 6.40563 5.76727 6.09481
#
# Compressibility (1/GPa) = 0.01818189
#
# Stress axis : x y z
#
# Youngs Moduli (GPa) = 58.45628 139.76470 134.42185
#
# Poissons Ratio (x) = 0.27748 0.36679
# Poissons Ratio (y) = 0.11606 0.27497
# Poissons Ratio (z) = 0.15951 0.28590
#
# Static dielectric constant tensor:
#      x y z
#    x 3.968280 0.000000 0.000000 
#    y 0.000000 4.050310 0.000000 
#    z 0.000000 0.000000 4.988640 
# 
# 
# High freq. dielectric constant tensor:
#      x y z
#    x 1.858310 0.000000 0.000000 
#    y 0.000000 1.934280 0.000000 
#    z 0.000000 0.000000 1.955200 
# 
# From -- ./inp_files/862.got.cif
#   From: 2010.03.12/outbox.cif.g09.slc.cpg/sg68_1_cif.got.tgz:862.got - 2010.04.10 23:14:56.
