data_PCOD8282779
_publ_section_title
;
Structure prediction by ZEFSAII (Michael W. Deem and Ramdas Pophale) SiO2 
 PCOD8282779
Probable space group: C C C A
;
_chemical_formula_sum "Si O2"
_cell_formula_units_Z 96
_cell_length_a 24.127273
_cell_length_b 8.959270
_cell_length_c 22.102677
_cell_angle_alpha 90.000000
_cell_angle_beta 90.000000
_cell_angle_gamma 90.000000
_cell_volume 4777.775513
_symmetry_space_group_name_H-M "C C C A"
_symmetry_group_IT_number 68
_space_group.IT_coordinate_system_code '2'
_symmetry_cell_setting 'orthorhombic'
loop_
_space_group_symop_operation_xyz
x,y,z
-x,1/2-y,z
x,1/2-y,1/2-z
-x,y,1/2-z
-x,-y,-z
x,1/2+y,-z
-x,1/2+y,1/2+z
x,-y,1/2+z
1/2+x,1/2+y,z
1/2-x,-y,z
1/2+x,-y,1/2-z
1/2-x,1/2+y,1/2-z
1/2-x,1/2-y,-z
1/2+x,y,-z
1/2-x,y,1/2+z
1/2+x,1/2-y,1/2+z
loop_
_atom_site_type_symbol
_atom_site_label
_atom_site_fract_x
_atom_site_fract_y
_atom_site_fract_z
Si Si1 0.646019 0.250000 0.750000
Si Si2 0.597511 0.895680 0.429523
Si Si3 0.812565 0.996845 0.833211
Si Si4 0.051185 0.178253 0.333781
Si Si5 0.137378 0.250000 0.750000
Si Si6 0.563450 0.288969 0.033154
Si Si7 0.552976 0.347208 0.342578
O O1 0.684976 0.364230 0.715262
O O2 0.606858 0.159424 0.704389
O O3 0.557958 0.801680 0.386022
O O4 0.607988 0.778456 0.484844
O O5 0.650323 0.958524 0.392160
O O6 0.567320 0.032994 0.462180
O O7 0.827676 0.149470 0.797399
O O8 0.750000 0.000000 0.857534
O O9 0.000000 0.250000 0.295805
O O10 0.034261 0.015302 0.358234
O O11 0.097792 0.356305 0.710749
O O12 0.500000 0.250000 0.015841
O O13 0.580430 0.223507 0.098225
O O14 0.500000 0.250000 0.321932
#
# Coordination Sequence:
#
# PCOD8282779 Si02
#       7
#     8  16  16  16   8  16  16
#     4  10  22  36  60  84 118 162 204 256 320 370
#     4  11  23  40  63  92 125 171 211 259 309 375
#     4  11  24  44  65  89 120 164 219 272 324 367
#     4  11  21  34  56  89 128 164 202 247 304 382
#     4  12  22  42  66  90 132 160 212 266 318 376
#     4  11  21  38  62  93 131 167 204 248 311 383
#     4  11  23  36  61  96 132 170 202 246 311 385
#
# _framework density 20.093032999999998
#
# number of rings (size 3 to 8) (size 9 to 14) (size 15 to 20)
#    0.000    1.000    3.333    5.000    2.333    1.333 
#    0.000    0.833    0.000    0.000    0.000    0.000 
#    0.000    0.000    0.000    0.000    0.000    0.000 
#
# Total GULP energy -594761.507094 kJ/mol
# GULP energy per Si atom -12390.864731 kJ/mol
# Density = 2.004730 g / cm^3
# Si number density = 20.093033 Si / 1000 Ang^3
#
#
#
# Elastic Constant Matrix: (Units=GPa)
#
#
# Indices 1 2 3 4 5 6 
#
# 1 100.8538 47.7600 31.7785 0.0000 0.0000 0.0000
# 2 47.7600 150.3880 36.6196 0.0000 0.0000 0.0000
# 3 31.7785 36.6196 93.1943 0.0000 0.0000 0.0000
# 4 0.0000 0.0000 0.0000 27.5994 0.0000 0.0000
# 5 0.0000 0.0000 0.0000 0.0000 31.8531 0.0000
# 6 0.0000 0.0000 0.0000 0.0000 0.0000 21.3321
#
#
#
# Elastic Compliance Matrix: (Units=1/GPa)
#
#
# Indices 1 2 3 4 5 6 
#
# 1 0.012366 -0.003207 -0.002956 0.000000 0.000000 0.000000
# 2 -0.003207 0.008185 -0.002123 0.000000 0.000000 0.000000
# 3 -0.002956 -0.002123 0.012572 0.000000 0.000000 0.000000
# 4 0.000000 0.000000 0.000000 0.036233 0.000000 0.000000
# 5 0.000000 0.000000 0.000000 0.000000 0.031394 0.000000
# 6 0.000000 0.000000 0.000000 0.000000 0.000000 0.046878
#
#
# Mechanical properties :
#
#
# Convention : Reuss Voigt Hill
#
# Bulk Modulus (GPa) = 60.42023 64.08360 62.25191
# Shear Modulus (GPa) = 29.46093 31.37547 30.41820
#
# Velocity S-wave (km/s) = 3.83329 3.95588 3.89507
# Velocity P-wave (km/s) = 7.05178 7.26829 7.16085
#
# Compressibility (1/GPa) = 0.01655075
#
# Stress axis : x y z
#
# Youngs Moduli (GPa) = 80.86905 122.17716 79.53941
#
# Poissons Ratio (x) = 0.39185 0.23515
# Poissons Ratio (y) = 0.25936 0.16882
# Poissons Ratio (z) = 0.23908 0.25932
#
# Static dielectric constant tensor:
#      x y z
#    x 3.243560 0.000000 0.000000 
#    y 0.000000 3.769660 0.000000 
#    z 0.000000 0.000000 3.743660 
# 
# 
# High freq. dielectric constant tensor:
#      x y z
#    x 1.743220 0.000000 0.000000 
#    y 0.000000 1.806480 0.000000 
#    z 0.000000 0.000000 1.790660 
# 
# From -- ./inp_files/47217.got.cif
#   From: 2010.03.12/outbox.cif.g09.slc.cpg/sg68_24_cif.got.tgz:47217.got - 2010.04.10 23:14:56.
