data_PCOD8282805
_publ_section_title
;
Structure prediction by ZEFSAII (Michael W. Deem and Ramdas Pophale) SiO2 
 PCOD8282805
Probable space group: C C C A
;
_chemical_formula_sum "Si O2"
_cell_formula_units_Z 120
_cell_length_a 20.416600
_cell_length_b 23.959880
_cell_length_c 12.636553
_cell_angle_alpha 90.000000
_cell_angle_beta 90.000000
_cell_angle_gamma 90.000000
_cell_volume 6181.539974
_symmetry_space_group_name_H-M "C C C A"
_symmetry_group_IT_number 68
_space_group.IT_coordinate_system_code '2'
_symmetry_cell_setting 'orthorhombic'
loop_
_space_group_symop_operation_xyz
x,y,z
-x,1/2-y,z
x,1/2-y,1/2-z
-x,y,1/2-z
-x,-y,-z
x,1/2+y,-z
-x,1/2+y,1/2+z
x,-y,1/2+z
1/2+x,1/2+y,z
1/2-x,-y,z
1/2+x,-y,1/2-z
1/2-x,1/2+y,1/2-z
1/2-x,1/2-y,-z
1/2+x,y,-z
1/2-x,y,1/2+z
1/2+x,1/2-y,1/2+z
loop_
_atom_site_type_symbol
_atom_site_label
_atom_site_fract_x
_atom_site_fract_y
_atom_site_fract_z
Si Si1 0.312561 0.408682 0.406339
Si Si2 0.832473 0.917004 0.165980
Si Si3 0.788412 0.329778 0.983801
Si Si4 0.551279 0.913415 0.006684
Si Si5 0.250000 0.500000 0.028163
Si Si6 0.030950 0.806752 0.865986
Si Si7 0.960476 0.483269 0.852224
Si Si8 0.175846 0.764564 0.867538
O O1 0.305354 0.403610 0.281217
O O2 0.252507 0.371344 0.443579
O O3 0.383769 0.389755 0.448900
O O4 0.303059 0.471470 0.450440
O O5 0.838904 0.861135 0.094928
O O6 0.782011 0.955559 0.104830
O O7 0.901005 0.946004 0.185788
O O8 0.736044 0.298775 0.912074
O O9 0.832592 0.289969 0.058009
O O10 0.515311 0.860411 0.061084
O O11 0.567405 0.960772 0.093565
O O12 0.503394 0.943037 0.924906
O O13 0.109277 0.800108 0.860893
O O14 0.000000 0.750000 0.914973
O O15 0.000000 0.816723 0.750000
O O16 0.000000 0.503360 0.750000
O O17 0.197424 0.750000 0.750000
#
# Coordination Sequence:
#
# PCOD8282805 Si02
#       8
#    16  16  16  16   8  16  16  16
#     4  11  20  40  60  86 125 159 194 251 301 368
#     4  11  22  38  60  91 121 160 205 246 305 372
#     4  10  24  38  61  91 121 161 198 253 316 371
#     4  11  23  40  62  88 121 163 203 249 311 360
#     4  10  22  38  58  88 122 158 200 244 298 354
#     4  11  23  41  64  90 120 156 206 261 307 358
#     4  11  23  40  61  87 125 163 203 250 300 373
#     4  11  21  41  63  88 121 156 205 257 312 365
#
# _framework density 19.412638999999999
#
# number of rings (size 3 to 8) (size 9 to 14) (size 15 to 20)
#    0.000    1.200    5.333    1.600    1.867    0.000 
#    0.000    1.333    0.000    2.000    0.000    0.000 
#    0.000    0.000    0.000    0.000    0.000    0.000 
#
# Total GULP energy -743911.017324 kJ/mol
# GULP energy per Si atom -12398.516955 kJ/mol
# Density = 1.936846 g / cm^3
# Si number density = 19.412639 Si / 1000 Ang^3
#
#
#
# Elastic Constant Matrix: (Units=GPa)
#
#
# Indices 1 2 3 4 5 6 
#
# 1 50.8316 6.7030 18.4449 0.0000 0.0000 0.0000
# 2 6.7030 89.1804 45.8969 0.0000 0.0000 0.0000
# 3 18.4449 45.8969 133.1925 0.0000 0.0000 0.0000
# 4 0.0000 0.0000 0.0000 13.2799 0.0000 0.0000
# 5 0.0000 0.0000 0.0000 0.0000 27.5523 0.0000
# 6 0.0000 0.0000 0.0000 0.0000 0.0000 5.0899
#
#
#
# Elastic Compliance Matrix: (Units=1/GPa)
#
#
# Indices 1 2 3 4 5 6 
#
# 1 0.020714 -0.000098 -0.002835 0.000000 0.000000 0.000000
# 2 -0.000098 0.013631 -0.004684 0.000000 0.000000 0.000000
# 3 -0.002835 -0.004684 0.009514 0.000000 0.000000 0.000000
# 4 0.000000 0.000000 0.000000 0.075302 0.000000 0.000000
# 5 0.000000 0.000000 0.000000 0.000000 0.036295 0.000000
# 6 0.000000 0.000000 0.000000 0.000000 0.000000 0.196468
#
#
# Mechanical properties :
#
#
# Convention : Reuss Voigt Hill
#
# Bulk Modulus (GPa) = 34.93201 46.14381 40.53791
# Shear Modulus (GPa) = 13.27319 22.66172 17.96746
#
# Velocity S-wave (km/s) = 2.61768 3.42039 3.04559
# Velocity P-wave (km/s) = 5.21247 6.27856 5.77019
#
# Compressibility (1/GPa) = 0.02862704
#
# Stress axis : x y z
#
# Youngs Moduli (GPa) = 48.27569 73.36224 105.10363
#
# Poissons Ratio (x) = 0.00719 0.29795
# Poissons Ratio (y) = 0.00473 0.49226
# Poissons Ratio (z) = 0.13685 0.34360
#
# Static dielectric constant tensor:
#      x y z
#    x 3.384310 0.000000 0.000000 
#    y 0.000000 3.867710 0.000000 
#    z 0.000000 0.000000 3.647800 
# 
# 
# High freq. dielectric constant tensor:
#      x y z
#    x 1.751680 0.000000 0.000000 
#    y 0.000000 1.760030 0.000000 
#    z 0.000000 0.000000 1.765230 
# 
# From -- ./inp_files/15799.got.cif
#   From: 2010.03.12/outbox.cif.g09.slc.cpg/sg68_8_cif.got.tgz:15799.got - 2010.04.10 23:14:56.
