data_PCOD8282811
_publ_section_title
;
Structure prediction by ZEFSAII (Michael W. Deem and Ramdas Pophale) SiO2 
 PCOD8282811
Probable space group: C C C A
;
_chemical_formula_sum "Si O2"
_cell_formula_units_Z 128
_cell_length_a 12.230378
_cell_length_b 24.395591
_cell_length_c 22.168190
_cell_angle_alpha 90.000000
_cell_angle_beta 90.000000
_cell_angle_gamma 90.000000
_cell_volume 6614.262984
_symmetry_space_group_name_H-M "C C C A"
_symmetry_group_IT_number 68
_space_group.IT_coordinate_system_code '2'
_symmetry_cell_setting 'orthorhombic'
loop_
_space_group_symop_operation_xyz
x,y,z
-x,1/2-y,z
x,1/2-y,1/2-z
-x,y,1/2-z
-x,-y,-z
x,1/2+y,-z
-x,1/2+y,1/2+z
x,-y,1/2+z
1/2+x,1/2+y,z
1/2-x,-y,z
1/2+x,-y,1/2-z
1/2-x,1/2+y,1/2-z
1/2-x,1/2-y,-z
1/2+x,y,-z
1/2-x,y,1/2+z
1/2+x,1/2-y,1/2+z
loop_
_atom_site_type_symbol
_atom_site_label
_atom_site_fract_x
_atom_site_fract_y
_atom_site_fract_z
Si Si1 0.883742 0.276854 0.835356
Si Si2 0.884309 0.394781 0.230883
Si Si3 0.651361 0.875610 0.590139
Si Si4 0.412484 0.083654 0.119186
Si Si5 0.184398 0.053619 0.346427
Si Si6 0.676706 0.330190 0.214713
Si Si7 0.948231 0.959528 0.881205
Si Si8 0.275479 0.561123 0.476132
O O1 0.850501 0.310340 0.895863
O O2 0.804355 0.225093 0.824599
O O3 0.890397 0.316479 0.776179
O O4 0.000000 0.250000 0.846662
O O5 0.854627 0.443646 0.277358
O O6 0.797813 0.346541 0.233740
O O7 0.886463 0.420459 0.165237
O O8 0.000000 0.368627 0.250000
O O9 0.527668 0.897414 0.591595
O O10 0.731644 0.897264 0.642287
O O11 0.708304 0.893207 0.527620
O O12 0.382472 0.121910 0.176258
O O13 0.318111 0.084374 0.068275
O O14 0.428436 0.021523 0.141711
O O15 0.076440 0.054440 0.388605
O O16 0.250000 0.000000 0.361663
O O17 0.892495 0.946588 0.944498
O O18 0.250000 0.500000 0.502414
#
# Coordination Sequence:
#
# PCOD8282811 Si02
#       8
#    16  16  16  16  16  16  16  16
#     4  11  24  41  64  94 121 154 206 271 316 367
#     4  10  22  38  61  91 130 163 199 251 316 382
#     4  12  24  40  62  90 124 165 210 264 309 359
#     4  11  23  38  64  95 122 172 205 254 310 372
#     4  11  22  36  56  93 130 163 203 252 303 374
#     4  11  21  40  66  90 122 156 208 259 319 371
#     4  10  22  40  60  90 134 169 203 242 307 380
#     4  10  24  40  63  90 129 171 213 250 300 381
#
# _framework density 19.352118000000001
#
# number of rings (size 3 to 8) (size 9 to 14) (size 15 to 20)
#    0.000    1.250    5.000    1.125    3.500    1.000 
#    2.250    1.875    0.000    0.000    0.000    0.000 
#    0.000    0.000    0.000    0.000    0.000    0.000 
#
# Total GULP energy -793265.212720 kJ/mol
# GULP energy per Si atom -12394.768949 kJ/mol
# Density = 1.930807 g / cm^3
# Si number density = 19.352118 Si / 1000 Ang^3
#
#
#
# Elastic Constant Matrix: (Units=GPa)
#
#
# Indices 1 2 3 4 5 6 
#
# 1 115.2436 34.8097 27.8072 0.0000 0.0000 0.0000
# 2 34.8097 106.1316 38.3417 0.0000 0.0000 0.0000
# 3 27.8072 38.3417 68.6183 0.0000 0.0000 0.0000
# 4 0.0000 0.0000 0.0000 34.2147 0.0000 0.0000
# 5 0.0000 0.0000 0.0000 0.0000 16.3864 0.0000
# 6 0.0000 0.0000 0.0000 0.0000 0.0000 34.1244
#
#
#
# Elastic Compliance Matrix: (Units=1/GPa)
#
#
# Indices 1 2 3 4 5 6 
#
# 1 0.010041 -0.002284 -0.002793 0.000000 0.000000 0.000000
# 2 -0.002284 0.012325 -0.005961 0.000000 0.000000 0.000000
# 3 -0.002793 -0.005961 0.019036 0.000000 0.000000 0.000000
# 4 0.000000 0.000000 0.000000 0.029227 0.000000 0.000000
# 5 0.000000 0.000000 0.000000 0.000000 0.061026 0.000000
# 6 0.000000 0.000000 0.000000 0.000000 0.000000 0.029305
#
#
# Mechanical properties :
#
#
# Convention : Reuss Voigt Hill
#
# Bulk Modulus (GPa) = 51.74438 54.65675 53.20057
# Shear Modulus (GPa) = 26.38821 29.54741 27.96781
#
# Velocity S-wave (km/s) = 3.69668 3.91171 3.80571
# Velocity P-wave (km/s) = 6.70947 6.97901 6.84556
#
# Compressibility (1/GPa) = 0.01932577
#
# Stress axis : x y z
#
# Youngs Moduli (GPa) = 99.59031 81.13535 52.53220
#
# Poissons Ratio (x) = 0.18535 0.14670
# Poissons Ratio (y) = 0.22751 0.31315
# Poissons Ratio (z) = 0.27812 0.48366
#
# Static dielectric constant tensor:
#      x y z
#    x 4.223230 0.000000 0.000000 
#    y 0.000000 1.921730 0.000000 
#    z 0.000000 0.000000 3.393180 
# 
# 
# High freq. dielectric constant tensor:
#      x y z
#    x 1.771100 0.000000 0.000000 
#    y 0.000000 1.739030 0.000000 
#    z 0.000000 0.000000 1.741090 
# 
# From -- ./inp_files/44738.got.cif
#   From: 2010.03.12/outbox.cif.g09.slc.cpg/sg68_23_cif.got.tgz:44738.got - 2010.04.10 23:14:56.
