data_PCOD8282151
_publ_section_title
;
Structure prediction by ZEFSAII (Michael W. Deem and Ramdas Pophale) SiO2 
 PCOD8282151
Probable space group: C C C A
;
_chemical_formula_sum "Si O2"
_cell_formula_units_Z 80
_cell_length_a 14.085439
_cell_length_b 11.674753
_cell_length_c 24.072876
_cell_angle_alpha 90.000000
_cell_angle_beta 90.000000
_cell_angle_gamma 90.000000
_cell_volume 3958.640532
_symmetry_space_group_name_H-M "C C C A"
_symmetry_group_IT_number 68
_space_group.IT_coordinate_system_code '2'
_symmetry_cell_setting 'orthorhombic'
loop_
_space_group_symop_operation_xyz
x,y,z
-x,1/2-y,z
x,1/2-y,1/2-z
-x,y,1/2-z
-x,-y,-z
x,1/2+y,-z
-x,1/2+y,1/2+z
x,-y,1/2+z
1/2+x,1/2+y,z
1/2-x,-y,z
1/2+x,-y,1/2-z
1/2-x,1/2+y,1/2-z
1/2-x,1/2-y,-z
1/2+x,y,-z
1/2-x,y,1/2+z
1/2+x,1/2-y,1/2+z
loop_
_atom_site_type_symbol
_atom_site_label
_atom_site_fract_x
_atom_site_fract_y
_atom_site_fract_z
Si Si1 0.893503 0.205474 0.543716
Si Si2 0.325087 0.719776 0.328615
Si Si3 0.281837 0.626216 0.442571
Si Si4 0.678634 0.405719 0.351976
Si Si5 0.897014 0.919423 0.731405
O O1 0.816043 0.306087 0.547300
O O2 0.856430 0.126925 0.493203
O O3 0.895968 0.129479 0.600102
O O4 0.000000 0.250000 0.532245
O O5 0.341722 0.672713 0.390175
O O6 0.226229 0.790021 0.328345
O O7 0.404910 0.814037 0.312428
O O8 0.328230 0.617460 0.282924
O O9 0.250000 0.500000 0.428471
O O10 0.750000 0.500000 0.379367
O O11 0.636346 0.464444 0.297476
O O12 0.000000 0.951920 0.750000
#
# Coordination Sequence:
#
# PCOD8282151 Si02
#       5
#    16  16  16  16  16
#     4  10  22  40  60  87 118 151 193 243 294 347
#     4   9  19  35  56  82 113 147 189 234 280 337
#     4  10  22  39  61  87 118 155 196 240 291 352
#     4   9  19  38  59  78 113 155 188 231 290 349
#     4  10  20  35  58  85 114 149 192 238 286 340
#
# _framework density 20.208957999999999
#
# number of rings (size 3 to 8) (size 9 to 14) (size 15 to 20)
#    0.000    2.400    0.000    1.800    0.000    9.600 
#    0.000   10.000    0.000    0.000    0.000    0.000 
#    0.000    0.000    0.000    0.000    0.000    0.000 
#
# Total GULP energy -495573.346531 kJ/mol
# GULP energy per Si atom -12389.333663 kJ/mol
# Density = 2.016296 g / cm^3
# Si number density = 20.208958 Si / 1000 Ang^3
#
#
#
# Elastic Constant Matrix: (Units=GPa)
#
#
# Indices 1 2 3 4 5 6 
#
# 1 94.5114 26.1799 51.7739 0.0000 0.0000 0.0000
# 2 26.1799 77.6069 54.2408 0.0000 0.0000 0.0000
# 3 51.7739 54.2408 138.4670 0.0000 0.0000 0.0000
# 4 0.0000 0.0000 0.0000 38.4133 0.0000 0.0000
# 5 0.0000 0.0000 0.0000 0.0000 14.5997 0.0000
# 6 0.0000 0.0000 0.0000 0.0000 0.0000 12.4663
#
#
#
# Elastic Compliance Matrix: (Units=1/GPa)
#
#
# Indices 1 2 3 4 5 6 
#
# 1 0.013416 -0.001404 -0.004466 0.000000 0.000000 0.000000
# 2 -0.001404 0.017890 -0.006483 0.000000 0.000000 0.000000
# 3 -0.004466 -0.006483 0.011432 0.000000 0.000000 0.000000
# 4 0.000000 0.000000 0.000000 0.026033 0.000000 0.000000
# 5 0.000000 0.000000 0.000000 0.000000 0.068495 0.000000
# 6 0.000000 0.000000 0.000000 0.000000 0.000000 0.080216
#
#
# Mechanical properties :
#
#
# Convention : Reuss Voigt Hill
#
# Bulk Modulus (GPa) = 55.46036 63.88604 59.67320
# Shear Modulus (GPa) = 20.14512 24.98858 22.56685
#
# Velocity S-wave (km/s) = 3.16070 3.52022 3.34529
# Velocity P-wave (km/s) = 6.38930 6.94291 6.67185
#
# Compressibility (1/GPa) = 0.01803090
#
# Stress axis : x y z
#
# Youngs Moduli (GPa) = 74.53532 55.89647 87.47757
#
# Poissons Ratio (x) = 0.07849 0.39071
# Poissons Ratio (y) = 0.10466 0.56711
# Poissons Ratio (z) = 0.33291 0.36237
#
# Static dielectric constant tensor:
#      x y z
#    x 3.427210 0.000000 0.000000 
#    y 0.000000 3.651370 0.000000 
#    z 0.000000 0.000000 3.977170 
# 
# 
# High freq. dielectric constant tensor:
#      x y z
#    x 1.764000 0.000000 0.000000 
#    y 0.000000 1.789440 0.000000 
#    z 0.000000 0.000000 1.800480 
# 
# From -- ./inp_files/45182.got.cif
#   From: 2010.03.12/outbox.cif.g09.slc.cpg/sg68_23_cif.got.tgz:45182.got - 2010.04.10 23:14:56.
