data_PCOD8282185
_publ_section_title
;
Structure prediction by ZEFSAII (Michael W. Deem and Ramdas Pophale) SiO2 
 PCOD8282185
Probable space group: C C C A
;
_chemical_formula_sum "Si O2"
_cell_formula_units_Z 96
_cell_length_a 20.895052
_cell_length_b 14.689776
_cell_length_c 17.005880
_cell_angle_alpha 90.000000
_cell_angle_beta 90.000000
_cell_angle_gamma 90.000000
_cell_volume 5219.846596
_symmetry_space_group_name_H-M "C C C A"
_symmetry_group_IT_number 68
_space_group.IT_coordinate_system_code '2'
_symmetry_cell_setting 'orthorhombic'
loop_
_space_group_symop_operation_xyz
x,y,z
-x,1/2-y,z
x,1/2-y,1/2-z
-x,y,1/2-z
-x,-y,-z
x,1/2+y,-z
-x,1/2+y,1/2+z
x,-y,1/2+z
1/2+x,1/2+y,z
1/2-x,-y,z
1/2+x,-y,1/2-z
1/2-x,1/2+y,1/2-z
1/2-x,1/2-y,-z
1/2+x,y,-z
1/2-x,y,1/2+z
1/2+x,1/2-y,1/2+z
loop_
_atom_site_type_symbol
_atom_site_label
_atom_site_fract_x
_atom_site_fract_y
_atom_site_fract_z
Si Si1 0.131148 0.608093 0.014471
Si Si2 0.022103 0.355161 0.397254
Si Si3 0.730879 0.096438 0.877496
Si Si4 0.884117 0.575328 0.900271
Si Si5 0.376945 0.648650 0.268263
Si Si6 0.683952 0.706697 0.526780
O O1 0.132779 0.528510 0.078895
O O2 0.140506 0.708066 0.053427
O O3 0.063005 0.617537 0.972904
O O4 0.188633 0.583275 0.955587
O O5 0.063706 0.386631 0.321126
O O6 0.000000 0.250000 0.394537
O O7 0.960026 0.416643 0.404487
O O8 0.689889 0.152715 0.814926
O O9 0.798609 0.145058 0.897854
O O10 0.750000 0.000000 0.840598
O O11 0.864192 0.590784 0.810007
O O12 0.849502 0.648365 0.957360
O O13 0.397940 0.750000 0.250000
O O14 0.750000 0.750000 0.500000
#
# Coordination Sequence:
#
# PCOD8282185 Si02
#       6
#    16  16  16  16  16  16
#     4  10  21  36  59  88 113 150 198 235 294 349
#     4  11  20  36  61  86 121 150 189 249 300 350
#     4  10  20  40  56  77 119 153 189 237 289 348
#     4  12  21  36  61  88 117 151 193 242 298 350
#     4  11  22  37  57  89 114 150 193 245 298 345
#     4  10  20  36  58  80 115 153 187 240 283 343
#
# _framework density 18.391345000000001
#
# number of rings (size 3 to 8) (size 9 to 14) (size 15 to 20)
#    0.000    1.333    5.000    3.000    0.000    0.000 
#    9.000    0.000    0.000    0.000    0.000    0.000 
#    0.000    0.000    0.000    0.000    0.000    0.000 
#
# Total GULP energy -594837.053497 kJ/mol
# GULP energy per Si atom -12392.438615 kJ/mol
# Density = 1.834949 g / cm^3
# Si number density = 18.391345 Si / 1000 Ang^3
#
#
#
# Elastic Constant Matrix: (Units=GPa)
#
#
# Indices 1 2 3 4 5 6 
#
# 1 89.5159 28.4423 49.0618 0.0000 0.0000 0.0000
# 2 28.4423 114.5745 52.5369 0.0000 0.0000 0.0000
# 3 49.0618 52.5369 101.5368 0.0000 0.0000 0.0000
# 4 0.0000 0.0000 0.0000 24.4945 0.0000 0.0000
# 5 0.0000 0.0000 0.0000 0.0000 23.2184 0.0000
# 6 0.0000 0.0000 0.0000 0.0000 0.0000 24.2710
#
#
#
# Elastic Compliance Matrix: (Units=1/GPa)
#
#
# Indices 1 2 3 4 5 6 
#
# 1 0.015220 -0.000532 -0.007079 0.000000 0.000000 0.000000
# 2 -0.000532 0.011461 -0.005673 0.000000 0.000000 0.000000
# 3 -0.007079 -0.005673 0.016204 0.000000 0.000000 0.000000
# 4 0.000000 0.000000 0.000000 0.040826 0.000000 0.000000
# 5 0.000000 0.000000 0.000000 0.000000 0.043069 0.000000
# 6 0.000000 0.000000 0.000000 0.000000 0.000000 0.041201
#
#
# Mechanical properties :
#
#
# Convention : Reuss Voigt Hill
#
# Bulk Modulus (GPa) = 61.28416 62.85660 62.07038
# Shear Modulus (GPa) = 25.00126 26.10252 25.55189
#
# Velocity S-wave (km/s) = 3.69101 3.77142 3.73143
# Velocity P-wave (km/s) = 7.18048 7.29495 7.23794
#
# Compressibility (1/GPa) = 0.01631743
#
# Stress axis : x y z
#
# Youngs Moduli (GPa) = 65.70267 87.24893 61.71155
#
# Poissons Ratio (x) = 0.04645 0.43684
# Poissons Ratio (y) = 0.03498 0.35010
# Poissons Ratio (z) = 0.46509 0.49497
#
# Static dielectric constant tensor:
#      x y z
#    x 3.730210 0.000000 0.000000 
#    y 0.000000 3.732180 0.000000 
#    z 0.000000 0.000000 3.364890 
# 
# 
# High freq. dielectric constant tensor:
#      x y z
#    x 1.722850 0.000000 0.000000 
#    y 0.000000 1.714150 0.000000 
#    z 0.000000 0.000000 1.687270 
# 
# From -- ./inp_files/22346.got.cif
#   From: 2010.03.12/outbox.cif.g09.slc.cpg/sg68_12_cif.got.tgz:22346.got - 2010.04.10 23:14:56.
