data_PCOD8282693
_publ_section_title
;
Structure prediction by ZEFSAII (Michael W. Deem and Ramdas Pophale) SiO2 
 PCOD8282693
Probable space group: C C C A
;
_chemical_formula_sum "Si O2"
_cell_formula_units_Z 64
_cell_length_a 14.705772
_cell_length_b 9.585659
_cell_length_c 20.931360
_cell_angle_alpha 90.000000
_cell_angle_beta 90.000000
_cell_angle_gamma 90.000000
_cell_volume 2950.579026
_symmetry_space_group_name_H-M "C C C A"
_symmetry_group_IT_number 68
_space_group.IT_coordinate_system_code '2'
_symmetry_cell_setting 'orthorhombic'
loop_
_space_group_symop_operation_xyz
x,y,z
-x,1/2-y,z
x,1/2-y,1/2-z
-x,y,1/2-z
-x,-y,-z
x,1/2+y,-z
-x,1/2+y,1/2+z
x,-y,1/2+z
1/2+x,1/2+y,z
1/2-x,-y,z
1/2+x,-y,1/2-z
1/2-x,1/2+y,1/2-z
1/2-x,1/2-y,-z
1/2+x,y,-z
1/2-x,y,1/2+z
1/2+x,1/2-y,1/2+z
loop_
_atom_site_type_symbol
_atom_site_label
_atom_site_fract_x
_atom_site_fract_y
_atom_site_fract_z
Si Si1 0.500000 0.025105 0.250000
Si Si2 0.365702 0.145979 0.041546
Si Si3 0.176217 0.122250 0.209551
Si Si4 0.000000 0.750000 0.142698
Si Si5 0.153369 0.341689 0.433538
O O1 0.511213 0.114816 0.186231
O O2 0.410389 0.931342 0.248202
O O3 0.411444 0.232961 0.098679
O O4 0.259283 0.154595 0.052166
O O5 0.395677 0.984297 0.042812
O O6 0.392097 0.214580 0.973113
O O7 0.220103 0.250000 0.250000
O O8 0.140179 0.179220 0.141789
O O9 0.250000 0.000000 0.199453
#
# Coordination Sequence:
#
# PCOD8282693 Si02
#       5
#     8  16  16   8  16
#     4  11  25  44  68 102 144 178 228 286 334 412
#     4  10  21  40  66  93 131 174 218 282 330 408
#     4  12  26  46  71 100 138 180 230 284 346 411
#     4  11  22  40  72  98 133 180 232 274 347 392
#     4  10  21  43  63  94 134 169 224 274 341 399
#
# _framework density 21.690657000000002
#
# number of rings (size 3 to 8) (size 9 to 14) (size 15 to 20)
#    0.000    1.250    5.000    0.375    7.000    3.000 
#    9.000    0.000    0.000    0.000    0.000    0.000 
#    0.000    0.000    0.000    0.000    0.000    0.000 
#
# Total GULP energy -396840.989909 kJ/mol
# GULP energy per Si atom -12401.280935 kJ/mol
# Density = 2.164129 g / cm^3
# Si number density = 21.690657 Si / 1000 Ang^3
#
#
#
# Elastic Constant Matrix: (Units=GPa)
#
#
# Indices 1 2 3 4 5 6 
#
# 1 45.7666 12.8661 20.8984 0.0000 0.0000 0.0000
# 2 12.8661 115.5472 81.9520 0.0000 0.0000 0.0000
# 3 20.8984 81.9520 174.5274 0.0000 0.0000 0.0000
# 4 0.0000 0.0000 0.0000 -90.4544 0.0000 0.0000
# 5 0.0000 0.0000 0.0000 0.0000 31.6121 0.0000
# 6 0.0000 0.0000 0.0000 0.0000 0.0000 28.1978
#
#
#
# Elastic Compliance Matrix: (Units=1/GPa)
#
#
# Indices 1 2 3 4 5 6 
#
# 1 0.023179 -0.000918 -0.002344 0.000000 0.000000 0.000000
# 2 -0.000918 0.013012 -0.006000 0.000000 0.000000 0.000000
# 3 -0.002344 -0.006000 0.008828 0.000000 0.000000 0.000000
# 4 0.000000 0.000000 0.000000 -0.011055 0.000000 0.000000
# 5 0.000000 0.000000 0.000000 0.000000 0.031633 0.000000
# 6 0.000000 0.000000 0.000000 0.000000 0.000000 0.035464
#
#
# Mechanical properties :
#
#
# Convention : Reuss Voigt Hill
#
# Bulk Modulus (GPa) = 37.74513 63.03045 50.38779
# Shear Modulus (GPa) = 38.93552 8.54609 23.74080
#
# Velocity S-wave (km/s) = 4.24138 1.98709 3.31194
# Velocity P-wave (km/s) = 6.43623 5.86401 6.15677
#
# Compressibility (1/GPa) = 0.02649348
#
# Stress axis : x y z
#
# Youngs Moduli (GPa) = 43.14322 76.84999 113.27650
#
# Poissons Ratio (x) = 0.07057 0.26555
# Poissons Ratio (y) = 0.03961 0.67968
# Poissons Ratio (z) = 0.10114 0.46112
#
# Static dielectric constant tensor:
#      x y z
#    x 3.704020 0.000000 0.000000 
#    y 0.000000 4.438530 0.000000 
#    z 0.000000 0.000000 4.143920 
# 
# 
# High freq. dielectric constant tensor:
#      x y z
#    x 1.840310 0.000000 0.000000 
#    y 0.000000 1.855380 0.000000 
#    z 0.000000 0.000000 1.863950 
# 
# From -- ./inp_files/30492.got.cif
#   From: 2010.03.12/outbox.cif.g09.slc.cpg/sg68_16_cif.got.tgz:30492.got - 2010.04.10 23:14:56.
