data_PCOD8282738
_publ_section_title
;
Structure prediction by ZEFSAII (Michael W. Deem and Ramdas Pophale) SiO2 
 PCOD8282738
Probable space group: C C C A
;
_chemical_formula_sum "Si O2"
_cell_formula_units_Z 104
_cell_length_a 26.207704
_cell_length_b 20.964507
_cell_length_c 8.650722
_cell_angle_alpha 90.000000
_cell_angle_beta 90.000000
_cell_angle_gamma 90.000000
_cell_volume 4752.979977
_symmetry_space_group_name_H-M "C C C A"
_symmetry_group_IT_number 68
_space_group.IT_coordinate_system_code '2'
_symmetry_cell_setting 'orthorhombic'
loop_
_space_group_symop_operation_xyz
x,y,z
-x,1/2-y,z
x,1/2-y,1/2-z
-x,y,1/2-z
-x,-y,-z
x,1/2+y,-z
-x,1/2+y,1/2+z
x,-y,1/2+z
1/2+x,1/2+y,z
1/2-x,-y,z
1/2+x,-y,1/2-z
1/2-x,1/2+y,1/2-z
1/2-x,1/2-y,-z
1/2+x,y,-z
1/2-x,y,1/2+z
1/2+x,1/2-y,1/2+z
loop_
_atom_site_type_symbol
_atom_site_label
_atom_site_fract_x
_atom_site_fract_y
_atom_site_fract_z
Si Si1 0.306399 0.313465 0.658281
Si Si2 0.639513 0.937430 0.191657
Si Si3 0.699253 0.657692 0.694386
Si Si4 0.528409 0.808259 0.912355
Si Si5 0.472917 0.058369 0.910633
Si Si6 0.307274 0.479885 0.408441
Si Si7 0.119670 0.250000 0.750000
O O1 0.321404 0.250000 0.750000
O O2 0.353453 0.361276 0.694823
O O3 0.299605 0.306052 0.473055
O O4 0.254148 0.340942 0.727300
O O5 0.585372 0.959121 0.123975
O O6 0.650716 0.967442 0.359029
O O7 0.684673 0.968322 0.089228
O O8 0.680708 0.585473 0.681287
O O9 0.657974 0.693289 0.804759
O O10 0.500000 0.750000 0.003449
O O11 0.500000 0.818671 0.750000
O O12 0.586024 0.782304 0.885907
O O13 0.525520 0.875426 0.997103
O O14 0.500000 0.071043 0.750000
O O15 0.500000 0.000000 0.000000
O O16 0.250000 0.500000 0.377606
#
# Coordination Sequence:
#
# PCOD8282738 Si02
#       7
#    16  16  16  16  16  16   8
#     4  11  23  41  60  93 142 176 234 279 340 417
#     4  11  25  43  65 101 130 182 230 283 352 419
#     4  11  23  37  63  94 137 185 228 281 342 416
#     4   9  21  44  72  99 135 181 237 294 363 428
#     4  12  26  48  74 103 140 181 237 304 365 433
#     4  11  22  40  66  96 141 183 229 282 342 419
#     4  10  21  42  68  98 134 186 233 280 356 432
#
# _framework density 21.88101
#
# number of rings (size 3 to 8) (size 9 to 14) (size 15 to 20)
#    0.000    1.385    2.308    4.154    2.154    2.769 
#    8.308    0.000    0.000    0.000    0.000    0.000 
#    0.000    0.000    0.000    0.000    0.000    0.000 
#
# Total GULP energy -644458.420854 kJ/mol
# GULP energy per Si atom -12393.431170 kJ/mol
# Density = 2.183121 g / cm^3
# Si number density = 21.881010 Si / 1000 Ang^3
#
#
#
# Elastic Constant Matrix: (Units=GPa)
#
#
# Indices 1 2 3 4 5 6 
#
# 1 121.5255 43.1413 23.8120 0.0000 0.0000 0.0000
# 2 43.1413 116.4367 44.5247 0.0000 0.0000 0.0000
# 3 23.8120 44.5247 76.8964 0.0000 0.0000 0.0000
# 4 0.0000 0.0000 0.0000 26.2706 0.0000 0.0000
# 5 0.0000 0.0000 0.0000 0.0000 23.5849 0.0000
# 6 0.0000 0.0000 0.0000 0.0000 0.0000 41.2278
#
#
#
# Elastic Compliance Matrix: (Units=1/GPa)
#
#
# Indices 1 2 3 4 5 6 
#
# 1 0.009556 -0.003094 -0.001168 0.000000 0.000000 0.000000
# 2 -0.003094 0.012033 -0.006009 0.000000 0.000000 0.000000
# 3 -0.001168 -0.006009 0.016845 0.000000 0.000000 0.000000
# 4 0.000000 0.000000 0.000000 0.038065 0.000000 0.000000
# 5 0.000000 0.000000 0.000000 0.000000 0.042400 0.000000
# 6 0.000000 0.000000 0.000000 0.000000 0.000000 0.024256
#
#
# Mechanical properties :
#
#
# Convention : Reuss Voigt Hill
#
# Bulk Modulus (GPa) = 55.88917 59.75717 57.82317
# Shear Modulus (GPa) = 29.47068 31.77537 30.62302
#
# Velocity S-wave (km/s) = 3.67394 3.81489 3.74508
# Velocity P-wave (km/s) = 6.60264 6.83915 6.72193
#
# Compressibility (1/GPa) = 0.01789255
#
# Stress axis : x y z
#
# Youngs Moduli (GPa) = 104.64732 83.10784 59.36349
#
# Poissons Ratio (x) = 0.25715 0.06931
# Poissons Ratio (y) = 0.32379 0.35671
# Poissons Ratio (z) = 0.12218 0.49939
#
# Static dielectric constant tensor:
#      x y z
#    x 4.340300 0.000000 0.000000 
#    y 0.000000 4.283760 0.000000 
#    z 0.000000 0.000000 3.875850 
# 
# 
# High freq. dielectric constant tensor:
#      x y z
#    x 1.867020 0.000000 0.000000 
#    y 0.000000 1.877370 0.000000 
#    z 0.000000 0.000000 1.842100 
# 
# From -- ./inp_files/9008.got.cif
#   From: 2010.03.12/outbox.cif.g09.slc.cpg/sg68_5_cif.got.tgz:9008.got - 2010.04.10 23:14:56.
