data_PCOD8282494
_publ_section_title
;
Structure prediction by ZEFSAII (Michael W. Deem and Ramdas Pophale) SiO2 
 PCOD8282494
Probable space group: C C C A
;
_chemical_formula_sum "Si O2"
_cell_formula_units_Z 120
_cell_length_a 13.321007
_cell_length_b 25.079861
_cell_length_c 17.942948
_cell_angle_alpha 90.000000
_cell_angle_beta 90.000000
_cell_angle_gamma 90.000000
_cell_volume 5994.541625
_symmetry_space_group_name_H-M "C C C A"
_symmetry_group_IT_number 68
_space_group.IT_coordinate_system_code '2'
_symmetry_cell_setting 'orthorhombic'
loop_
_space_group_symop_operation_xyz
x,y,z
-x,1/2-y,z
x,1/2-y,1/2-z
-x,y,1/2-z
-x,-y,-z
x,1/2+y,-z
-x,1/2+y,1/2+z
x,-y,1/2+z
1/2+x,1/2+y,z
1/2-x,-y,z
1/2+x,-y,1/2-z
1/2-x,1/2+y,1/2-z
1/2-x,1/2-y,-z
1/2+x,y,-z
1/2-x,y,1/2+z
1/2+x,1/2-y,1/2+z
loop_
_atom_site_type_symbol
_atom_site_label
_atom_site_fract_x
_atom_site_fract_y
_atom_site_fract_z
Si Si1 0.699031 0.819102 0.387545
Si Si2 0.500000 0.105638 0.250000
Si Si3 0.832261 0.297730 0.348488
Si Si4 0.097836 0.552681 0.549081
Si Si5 0.508973 0.373713 0.667779
Si Si6 0.281406 0.874565 0.956371
Si Si7 0.161120 0.193388 0.735628
Si Si8 0.963022 0.559672 0.408018
O O1 0.654384 0.759416 0.387730
O O2 0.624624 0.859476 0.345243
O O3 0.714132 0.841054 0.469092
O O4 0.810364 0.817603 0.350555
O O5 0.596278 0.143529 0.236972
O O6 0.506228 0.068869 0.324056
O O7 0.943161 0.319887 0.334444
O O8 0.763463 0.334941 0.397613
O O9 0.771432 0.298517 0.271496
O O10 0.027943 0.587081 0.603466
O O11 0.210882 0.573434 0.540106
O O12 0.101952 0.494329 0.586145
O O13 0.054881 0.553770 0.465227
O O14 0.500000 0.400398 0.750000
O O15 0.393027 0.891127 0.931957
O O16 0.102958 0.250000 0.750000
#
# Coordination Sequence:
#
# PCOD8282494 Si02
#       8
#    16   8  16  16  16  16  16  16
#     4  11  21  36  61  89 120 160 202 245 298 369
#     4  12  23  40  64  90 118 156 209 244 302 366
#     4  10  21  36  57  88 123 158 197 246 303 354
#     4  10  24  42  62  88 120 159 202 254 310 356
#     4  11  21  36  62  89 124 159 204 250 306 362
#     4  11  21  41  61  86 120 160 200 251 304 362
#     4  10  21  37  58  87 124 161 196 245 299 359
#     4  11  23  42  65  87 120 160 200 256 305 360
#
# _framework density 20.018211000000001
#
# number of rings (size 3 to 8) (size 9 to 14) (size 15 to 20)
#    0.000    1.333    4.000    2.200    0.933    0.533 
#    0.000    0.000    0.000    0.000    0.000    0.000 
#    0.000    0.000    0.000    0.000    0.000    0.000 
#
# Total GULP energy -743785.238292 kJ/mol
# GULP energy per Si atom -12396.420638 kJ/mol
# Density = 1.997265 g / cm^3
# Si number density = 20.018211 Si / 1000 Ang^3
#
#
#
# Elastic Constant Matrix: (Units=GPa)
#
#
# Indices 1 2 3 4 5 6 
#
# 1 44.2105 5.6881 8.2691 0.0000 0.0000 0.0000
# 2 5.6881 69.4908 36.6533 0.0000 0.0000 0.0000
# 3 8.2691 36.6533 85.8224 0.0000 0.0000 0.0000
# 4 0.0000 0.0000 0.0000 24.3552 0.0000 0.0000
# 5 0.0000 0.0000 0.0000 0.0000 -0.1197 0.0000
# 6 0.0000 0.0000 0.0000 0.0000 0.0000 14.0851
#
#
#
# Elastic Compliance Matrix: (Units=1/GPa)
#
#
# Indices 1 2 3 4 5 6 
#
# 1 0.023080 -0.000925 -0.001829 0.000000 0.000000 0.000000
# 2 -0.000925 0.018612 -0.007860 0.000000 0.000000 0.000000
# 3 -0.001829 -0.007860 0.015185 0.000000 0.000000 0.000000
# 4 0.000000 0.000000 0.000000 0.041059 0.000000 0.000000
# 5 0.000000 0.000000 0.000000 0.000000 -8.354366 0.000000
# 6 0.000000 0.000000 0.000000 0.000000 0.000000 0.070997
#
#
# Mechanical properties :
#
#
# Convention : Reuss Voigt Hill
#
# Bulk Modulus (GPa) = 28.05013 33.41609 30.73311
# Shear Modulus (GPa) = -0.61332 17.59165 8.48917
#
# Velocity S-wave (km/s) = -0.55412 2.96764 2.06154
# Velocity P-wave (km/s) = 3.69233 5.33588 4.58830
#
# Compressibility (1/GPa) = 0.03565045
#
# Stress axis : x y z
#
# Youngs Moduli (GPa) = 43.32737 53.72965 65.85477
#
# Poissons Ratio (x) = 0.04967 0.12045
# Poissons Ratio (y) = 0.04006 0.51760
# Poissons Ratio (z) = 0.07924 0.42230
#
# Static dielectric constant tensor:
#      x y z
#    x 3.537290 0.000000 0.000000 
#    y 0.000000 3.731120 0.000000 
#    z 0.000000 0.000000 3.026880 
# 
# 
# High freq. dielectric constant tensor:
#      x y z
#    x 1.774780 0.000000 0.000000 
#    y 0.000000 1.781660 0.000000 
#    z 0.000000 0.000000 1.790300 
# 
# From -- ./inp_files/37904.got.cif
#   From: 2010.03.12/outbox.cif.g09.slc.cpg/sg68_19_cif.got.tgz:37904.got - 2010.04.10 23:14:56.
