data_PCOD8282584
_publ_section_title
;
Structure prediction by ZEFSAII (Michael W. Deem and Ramdas Pophale) SiO2 
 PCOD8282584
Probable space group: C C C A
;
_chemical_formula_sum "Si O2"
_cell_formula_units_Z 80
_cell_length_a 8.327417
_cell_length_b 15.732749
_cell_length_c 29.483101
_cell_angle_alpha 90.000000
_cell_angle_beta 90.000000
_cell_angle_gamma 90.000000
_cell_volume 3862.674272
_symmetry_space_group_name_H-M "C C C A"
_symmetry_group_IT_number 68
_space_group.IT_coordinate_system_code '2'
_symmetry_cell_setting 'orthorhombic'
loop_
_space_group_symop_operation_xyz
x,y,z
-x,1/2-y,z
x,1/2-y,1/2-z
-x,y,1/2-z
-x,-y,-z
x,1/2+y,-z
-x,1/2+y,1/2+z
x,-y,1/2+z
1/2+x,1/2+y,z
1/2-x,-y,z
1/2+x,-y,1/2-z
1/2-x,1/2+y,1/2-z
1/2-x,1/2-y,-z
1/2+x,y,-z
1/2-x,y,1/2+z
1/2+x,1/2-y,1/2+z
loop_
_atom_site_type_symbol
_atom_site_label
_atom_site_fract_x
_atom_site_fract_y
_atom_site_fract_z
Si Si1 0.679350 0.591967 0.706733
Si Si2 0.313621 0.406888 0.888522
Si Si3 0.811225 0.741047 0.050542
Si Si4 0.628295 0.671852 0.796601
Si Si5 0.123008 0.172487 0.376916
O O1 0.750000 0.500000 0.719472
O O2 0.756918 0.627996 0.660535
O O3 0.711410 0.662582 0.746564
O O4 0.485579 0.587514 0.698806
O O5 0.250000 0.500000 0.898330
O O6 0.245600 0.348288 0.928523
O O7 0.508998 0.409142 0.886180
O O8 0.737046 0.817707 0.079668
O O9 0.000000 0.750000 0.052250
O O10 0.750000 0.750000 0.000000
O O11 0.500000 0.750000 0.801700
O O12 0.768387 0.667113 0.832662
O O13 0.000000 0.250000 0.372064
#
# Coordination Sequence:
#
# PCOD8282584 Si02
#       5
#    16  16  16  16  16
#     4  10  22  38  56  85 125 163 202 255 310 363
#     4  10  22  41  63  91 126 161 206 259 313 376
#     4  11  22  42  67  91 121 160 204 255 315 377
#     4  11  22  39  62  89 122 167 218 261 307 372
#     4  10  21  38  62  92 123 159 207 259 315 371
#
# _framework density 20.711039
#
# number of rings (size 3 to 8) (size 9 to 14) (size 15 to 20)
#    0.000    1.600    0.000    7.200    0.000    8.000 
#    0.000   12.000    0.000    0.000    0.000    0.000 
#    0.000    0.000    0.000    0.000    0.000    0.000 
#
# Total GULP energy -495581.260017 kJ/mol
# GULP energy per Si atom -12389.531500 kJ/mol
# Density = 2.066390 g / cm^3
# Si number density = 20.711039 Si / 1000 Ang^3
#
#
#
# Elastic Constant Matrix: (Units=GPa)
#
#
# Indices 1 2 3 4 5 6 
#
# 1 176.2517 56.8096 92.4463 0.0000 0.0000 0.0000
# 2 56.8096 96.1222 46.3763 0.0000 0.0000 0.0000
# 3 92.4463 46.3763 194.0084 0.0000 0.0000 0.0000
# 4 0.0000 0.0000 0.0000 14.5655 0.0000 0.0000
# 5 0.0000 0.0000 0.0000 0.0000 48.9605 0.0000
# 6 0.0000 0.0000 0.0000 0.0000 0.0000 41.7015
#
#
#
# Elastic Compliance Matrix: (Units=1/GPa)
#
#
# Indices 1 2 3 4 5 6 
#
# 1 0.008472 -0.003458 -0.003210 0.000000 0.000000 0.000000
# 2 -0.003458 0.013171 -0.001501 0.000000 0.000000 0.000000
# 3 -0.003210 -0.001501 0.007043 0.000000 0.000000 0.000000
# 4 0.000000 0.000000 0.000000 0.068655 0.000000 0.000000
# 5 0.000000 0.000000 0.000000 0.000000 0.020425 0.000000
# 6 0.000000 0.000000 0.000000 0.000000 0.000000 0.023980
#
#
# Mechanical properties :
#
#
# Convention : Reuss Voigt Hill
#
# Bulk Modulus (GPa) = 80.98564 95.29410 88.13987
# Shear Modulus (GPa) = 30.82595 39.09551 34.96073
#
# Velocity S-wave (km/s) = 3.86214 4.34944 4.11301
# Velocity P-wave (km/s) = 7.68607 8.44598 8.07497
#
# Compressibility (1/GPa) = 0.01234787
#
# Stress axis : x y z
#
# Youngs Moduli (GPa) = 118.03178 75.92248 141.98674
#
# Poissons Ratio (x) = 0.26256 0.45584
# Poissons Ratio (y) = 0.40819 0.21307
# Poissons Ratio (z) = 0.37893 0.11393
#
# Static dielectric constant tensor:
#      x y z
#    x 4.462620 0.000000 0.000000 
#    y 0.000000 3.816420 0.000000 
#    z 0.000000 0.000000 3.815830 
# 
# 
# High freq. dielectric constant tensor:
#      x y z
#    x 1.826050 0.000000 0.000000 
#    y 0.000000 1.792740 0.000000 
#    z 0.000000 0.000000 1.815510 
# 
# From -- ./inp_files/53983.got.cif
#   From: 2010.03.12/outbox.cif.g09.slc.cpg/sg68_27_cif.got.tgz:53983.got - 2010.04.10 23:14:56.
