data_PCOD8282507
_publ_section_title
;
Structure prediction by ZEFSAII (Michael W. Deem and Ramdas Pophale) SiO2 
 PCOD8282507
Probable space group: C C C A
;
_chemical_formula_sum "Si O2"
_cell_formula_units_Z 96
_cell_length_a 21.050013
_cell_length_b 22.101481
_cell_length_c 9.794650
_cell_angle_alpha 90.000000
_cell_angle_beta 90.000000
_cell_angle_gamma 90.000000
_cell_volume 4556.828316
_symmetry_space_group_name_H-M "C C C A"
_symmetry_group_IT_number 68
_space_group.IT_coordinate_system_code '2'
_symmetry_cell_setting 'orthorhombic'
loop_
_space_group_symop_operation_xyz
x,y,z
-x,1/2-y,z
x,1/2-y,1/2-z
-x,y,1/2-z
-x,-y,-z
x,1/2+y,-z
-x,1/2+y,1/2+z
x,-y,1/2+z
1/2+x,1/2+y,z
1/2-x,-y,z
1/2+x,-y,1/2-z
1/2-x,1/2+y,1/2-z
1/2-x,1/2-y,-z
1/2+x,y,-z
1/2-x,y,1/2+z
1/2+x,1/2-y,1/2+z
loop_
_atom_site_type_symbol
_atom_site_label
_atom_site_fract_x
_atom_site_fract_y
_atom_site_fract_z
Si Si1 0.247300 0.648856 0.607411
Si Si2 0.052376 0.552408 0.359221
Si Si3 0.616676 0.683575 0.004673
Si Si4 0.127526 0.750000 0.250000
Si Si5 0.820799 0.875550 0.345759
Si Si6 0.835960 0.250000 0.250000
Si Si7 0.972608 0.082285 0.389982
O O1 0.309701 0.672040 0.529201
O O2 0.204335 0.612657 0.498433
O O3 0.268381 0.604422 0.731957
O O4 0.207495 0.703772 0.667956
O O5 0.116537 0.586144 0.318893
O O6 0.062919 0.480291 0.352560
O O7 0.000000 0.573108 0.250000
O O8 0.032461 0.570923 0.511695
O O9 0.614869 0.720222 0.144565
O O10 0.577301 0.623054 0.029187
O O11 0.586567 0.720994 0.875324
O O12 0.169727 0.696462 0.317884
O O13 0.000000 0.111705 0.250000
#
# Coordination Sequence:
#
# PCOD8282507 Si02
#       7
#    16  16  16   8  16   8  16
#     4  11  21  35  60  95 124 170 205 253 318 391
#     4  10  22  46  68  89 122 173 228 275 325 387
#     4  11  22  38  62  94 127 164 213 258 316 388
#     4  10  21  36  61  95 129 168 203 259 316 382
#     4  11  22  36  64  94 129 170 215 262 325 384
#     4  12  21  36  61  89 136 170 204 245 316 414
#     4  10  24  44  70  89 118 174 226 270 323 384
#
# _framework density 21.067284999999998
#
# number of rings (size 3 to 8) (size 9 to 14) (size 15 to 20)
#    0.000    1.333    3.333    4.500    2.333    0.000 
#    0.000    6.667    3.667    0.000    0.000    0.000 
#    0.000    0.000    0.000    0.000    0.000    0.000 
#
# Total GULP energy -594962.778376 kJ/mol
# GULP energy per Si atom -12395.057883 kJ/mol
# Density = 2.101933 g / cm^3
# Si number density = 21.067285 Si / 1000 Ang^3
#
#
#
# Elastic Constant Matrix: (Units=GPa)
#
#
# Indices 1 2 3 4 5 6 
#
# 1 79.0124 54.4258 50.9577 0.0000 0.0000 0.0000
# 2 54.4258 72.6143 44.2116 0.0000 0.0000 0.0000
# 3 50.9577 44.2116 162.8032 0.0000 0.0000 0.0000
# 4 0.0000 0.0000 0.0000 27.5730 0.0000 0.0000
# 5 0.0000 0.0000 0.0000 0.0000 28.1732 0.0000
# 6 0.0000 0.0000 0.0000 0.0000 0.0000 11.9575
#
#
#
# Elastic Compliance Matrix: (Units=1/GPa)
#
#
# Indices 1 2 3 4 5 6 
#
# 1 0.027869 -0.018663 -0.003655 0.000000 0.000000 0.000000
# 2 -0.018663 0.028998 -0.002033 0.000000 0.000000 0.000000
# 3 -0.003655 -0.002033 0.007838 0.000000 0.000000 0.000000
# 4 0.000000 0.000000 0.000000 0.036267 0.000000 0.000000
# 5 0.000000 0.000000 0.000000 0.000000 0.035495 0.000000
# 6 0.000000 0.000000 0.000000 0.000000 0.000000 0.083630
#
#
# Mechanical properties :
#
#
# Convention : Reuss Voigt Hill
#
# Bulk Modulus (GPa) = 62.48829 68.18000 65.33415
# Shear Modulus (GPa) = 18.23931 24.52973 21.38452
#
# Velocity S-wave (km/s) = 2.94558 3.41596 3.18945
# Velocity P-wave (km/s) = 6.42606 6.92760 6.68154
#
# Compressibility (1/GPa) = 0.01600300
#
# Stress axis : x y z
#
# Youngs Moduli (GPa) = 35.88226 34.48563 127.57576
#
# Poissons Ratio (x) = 0.64361 0.46626
# Poissons Ratio (y) = 0.66967 0.25938
# Poissons Ratio (z) = 0.13114 0.07011
#
# Static dielectric constant tensor:
#      x y z
#    x 3.449690 0.000000 0.000000 
#    y 0.000000 3.556460 0.000000 
#    z 0.000000 0.000000 4.643510 
# 
# 
# High freq. dielectric constant tensor:
#      x y z
#    x 1.797860 0.000000 0.000000 
#    y 0.000000 1.793660 0.000000 
#    z 0.000000 0.000000 1.863680 
# 
# From -- ./inp_files/8156.got.cif
#   From: 2010.03.12/outbox.cif.g09.slc.cpg/sg68_5_cif.got.tgz:8156.got - 2010.04.10 23:14:56.
