data_PCOD8282194
_publ_section_title
;
Structure prediction by ZEFSAII (Michael W. Deem and Ramdas Pophale) SiO2 
 PCOD8282194
Probable space group: C C C A
;
_chemical_formula_sum "Si O2"
_cell_formula_units_Z 112
_cell_length_a 4.991649
_cell_length_b 33.264943
_cell_length_c 33.057408
_cell_angle_alpha 90.000000
_cell_angle_beta 90.000000
_cell_angle_gamma 90.000000
_cell_volume 5489.080764
_symmetry_space_group_name_H-M "C C C A"
_symmetry_group_IT_number 68
_space_group.IT_coordinate_system_code '2'
_symmetry_cell_setting 'orthorhombic'
loop_
_space_group_symop_operation_xyz
x,y,z
-x,1/2-y,z
x,1/2-y,1/2-z
-x,y,1/2-z
-x,-y,-z
x,1/2+y,-z
-x,1/2+y,1/2+z
x,-y,1/2+z
1/2+x,1/2+y,z
1/2-x,-y,z
1/2+x,-y,1/2-z
1/2-x,1/2+y,1/2-z
1/2-x,1/2-y,-z
1/2+x,y,-z
1/2-x,y,1/2+z
1/2+x,1/2-y,1/2+z
loop_
_atom_site_type_symbol
_atom_site_label
_atom_site_fract_x
_atom_site_fract_y
_atom_site_fract_z
Si Si1 0.186961 0.587010 0.861998
Si Si2 0.300219 0.867755 0.890767
Si Si3 0.515902 0.296678 0.154997
Si Si4 0.894245 0.896198 0.525739
Si Si5 0.249807 0.046394 0.222456
Si Si6 0.001234 0.026342 0.072352
Si Si7 0.977550 0.297205 0.294164
O O1 0.457768 0.601286 0.883933
O O2 0.251816 0.575081 0.816310
O O3 0.087542 0.548727 0.886897
O O4 0.951602 0.620762 0.861932
O O5 0.420064 0.823262 0.883010
O O6 0.189506 0.868696 0.936451
O O7 0.500000 0.250000 0.141861
O O8 0.803869 0.310608 0.172171
O O9 0.317703 0.307613 0.191304
O O10 0.693912 0.886368 0.488973
O O11 0.897243 0.943056 0.538036
O O12 0.500000 0.057056 0.250000
O O13 0.000000 0.056776 0.250000
O O14 0.250000 0.000000 0.208253
O O15 0.250000 0.000000 0.055607
O O16 0.750000 0.000000 0.085306
O O17 0.000000 0.250000 0.288589
O O18 0.000000 0.318124 0.250000
#
# Coordination Sequence:
#
# PCOD8282194 Si02
#       7
#    16  16  16  16  16  16  16
#     4  11  22  39  58  80 115 151 190 232 278 335
#     4  11  23  40  60  82 111 148 187 228 282 346
#     4  10  20  36  59  84 111 147 191 234 274 326
#     4  11  23  39  58  82 114 149 179 221 283 343
#     4  10  21  36  56  80 108 149 198 243 278 309
#     4  11  22  36  58  87 114 146 185 227 275 332
#     4   9  17  31  53  82 114 144 177 221 273 326
#
# _framework density 20.404146000000001
#
# number of rings (size 3 to 8) (size 9 to 14) (size 15 to 20)
#    0.000    1.571    0.000    6.857    0.000    5.143 
#    0.000    7.143    0.000    0.857    0.000    0.000 
#    0.000    0.000    0.000    0.000    0.000    0.000 
#
# Total GULP energy -694295.893494 kJ/mol
# GULP energy per Si atom -12398.140955 kJ/mol
# Density = 2.035771 g / cm^3
# Si number density = 20.404146 Si / 1000 Ang^3
#
#
#
# Elastic Constant Matrix: (Units=GPa)
#
#
# Indices 1 2 3 4 5 6 
#
# 1 126.6118 30.2767 37.1260 0.0000 0.0000 0.0000
# 2 30.2767 74.5897 46.3413 0.0000 0.0000 0.0000
# 3 37.1260 46.3413 110.2223 0.0000 0.0000 0.0000
# 4 0.0000 0.0000 0.0000 8.8133 0.0000 0.0000
# 5 0.0000 0.0000 0.0000 0.0000 105.6847 0.0000
# 6 0.0000 0.0000 0.0000 0.0000 0.0000 30.5464
#
#
#
# Elastic Compliance Matrix: (Units=1/GPa)
#
#
# Indices 1 2 3 4 5 6 
#
# 1 0.009074 -0.002415 -0.002041 0.000000 0.000000 0.000000
# 2 -0.002415 0.018790 -0.007086 0.000000 0.000000 0.000000
# 3 -0.002041 -0.007086 0.012739 0.000000 0.000000 0.000000
# 4 0.000000 0.000000 0.000000 0.113465 0.000000 0.000000
# 5 0.000000 0.000000 0.000000 0.000000 0.009462 0.000000
# 6 0.000000 0.000000 0.000000 0.000000 0.000000 0.032737
#
#
# Mechanical properties :
#
#
# Convention : Reuss Voigt Hill
#
# Bulk Modulus (GPa) = 57.08381 59.87909 58.48145
# Shear Modulus (GPa) = 22.20332 42.18755 32.19543
#
# Velocity S-wave (km/s) = 3.30233 4.55202 3.97657
# Velocity P-wave (km/s) = 6.52517 7.55235 7.05747
#
# Compressibility (1/GPa) = 0.01751810
#
# Stress axis : x y z
#
# Youngs Moduli (GPa) = 110.20270 53.22081 78.49687
#
# Poissons Ratio (x) = 0.12854 0.16021
# Poissons Ratio (y) = 0.26617 0.55625
# Poissons Ratio (z) = 0.22492 0.37714
#
# Static dielectric constant tensor:
#      x y z
#    x 4.118730 0.000000 0.000000 
#    y 0.000000 3.472030 0.000000 
#    z 0.000000 0.000000 3.560730 
# 
# 
# High freq. dielectric constant tensor:
#      x y z
#    x 1.825400 0.000000 0.000000 
#    y 0.000000 1.771330 0.000000 
#    z 0.000000 0.000000 1.786660 
# 
# From -- ./inp_files/53505.got.cif
#   From: 2010.03.12/outbox.cif.g09.slc.cpg/sg68_27_cif.got.tgz:53505.got - 2010.04.10 23:14:56.
