data_PCOD8282113
_publ_section_title
;
Structure prediction by ZEFSAII (Michael W. Deem and Ramdas Pophale) SiO2 
 PCOD8282113
Probable space group: C C C A
;
_chemical_formula_sum "Si O2"
_cell_formula_units_Z 80
_cell_length_a 24.532029
_cell_length_b 21.612630
_cell_length_c 7.712474
_cell_angle_alpha 90.000000
_cell_angle_beta 90.000000
_cell_angle_gamma 90.000000
_cell_volume 4089.166563
_symmetry_space_group_name_H-M "C C C A"
_symmetry_group_IT_number 68
_space_group.IT_coordinate_system_code '2'
_symmetry_cell_setting 'orthorhombic'
loop_
_space_group_symop_operation_xyz
x,y,z
-x,1/2-y,z
x,1/2-y,1/2-z
-x,y,1/2-z
-x,-y,-z
x,1/2+y,-z
-x,1/2+y,1/2+z
x,-y,1/2+z
1/2+x,1/2+y,z
1/2-x,-y,z
1/2+x,-y,1/2-z
1/2-x,1/2+y,1/2-z
1/2-x,1/2-y,-z
1/2+x,y,-z
1/2-x,y,1/2+z
1/2+x,1/2-y,1/2+z
loop_
_atom_site_type_symbol
_atom_site_label
_atom_site_fract_x
_atom_site_fract_y
_atom_site_fract_z
Si Si1 0.129467 0.000350 0.035703
Si Si2 0.302166 0.380519 0.457546
Si Si3 0.939545 0.932844 0.692958
Si Si4 0.873517 0.821441 0.753020
Si Si5 0.320082 0.620950 0.574742
O O1 0.112603 0.036259 0.209305
O O2 0.150395 0.054223 0.905667
O O3 0.177344 0.950826 0.048833
O O4 0.072145 0.964376 0.991813
O O5 0.328051 0.338834 0.609535
O O6 0.238166 0.385761 0.484270
O O7 0.315036 0.350234 0.268387
O O8 0.928895 0.859284 0.704844
O O9 0.000000 0.949663 0.750000
O O10 0.888754 0.750000 0.750000
O O11 0.854966 0.834627 0.949959
#
# Coordination Sequence:
#
# PCOD8282113 Si02
#       5
#    16  16  16  16  16
#     4  10  20  34  56  86 118 140 178 230 286 340
#     4  11  21  36  57  86 116 152 185 225 278 334
#     4  10  20  36  59  83 108 143 185 235 284 331
#     4  10  24  40  55  81 113 152 195 231 276 327
#     4  11  21  36  57  86 116 152 185 225 278 334
#
# _framework density 19.563887999999999
#
# number of rings (size 3 to 8) (size 9 to 14) (size 15 to 20)
#    0.000    1.600    4.000    1.200    0.000    3.600 
#    0.000    0.000    0.000    0.000    0.000    5.600 
#    0.000    0.000    0.000    0.000    0.000    0.000 
#
# Total GULP energy -495602.629983 kJ/mol
# GULP energy per Si atom -12390.065750 kJ/mol
# Density = 1.951936 g / cm^3
# Si number density = 19.563888 Si / 1000 Ang^3
#
#
#
# Elastic Constant Matrix: (Units=GPa)
#
#
# Indices 1 2 3 4 5 6 
#
# 1 49.9777 -2.4611 1.1494 0.0000 0.0000 0.0000
# 2 -2.4611 93.2328 22.8561 0.0000 0.0000 0.0000
# 3 1.1494 22.8561 94.2827 0.0000 0.0000 0.0000
# 4 0.0000 0.0000 0.0000 18.2656 0.0000 0.0000
# 5 0.0000 0.0000 0.0000 0.0000 19.7941 0.0000
# 6 0.0000 0.0000 0.0000 0.0000 0.0000 13.5883
#
#
#
# Elastic Compliance Matrix: (Units=1/GPa)
#
#
# Indices 1 2 3 4 5 6 
#
# 1 0.020049 0.000626 -0.000396 0.000000 0.000000 0.000000
# 2 0.000626 0.011423 -0.002777 0.000000 0.000000 0.000000
# 3 -0.000396 -0.002777 0.011284 0.000000 0.000000 0.000000
# 4 0.000000 0.000000 0.000000 0.054748 0.000000 0.000000
# 5 0.000000 0.000000 0.000000 0.000000 0.050520 0.000000
# 6 0.000000 0.000000 0.000000 0.000000 0.000000 0.073593
#
#
# Mechanical properties :
#
#
# Convention : Reuss Voigt Hill
#
# Bulk Modulus (GPa) = 26.55130 31.17578 28.86354
# Shear Modulus (GPa) = 20.89738 24.72620 22.81179
#
# Velocity S-wave (km/s) = 3.27182 3.55895 3.41840
# Velocity P-wave (km/s) = 5.27959 5.73220 5.51055
#
# Compressibility (1/GPa) = 0.03766294
#
# Stress axis : x y z
#
# Youngs Moduli (GPa) = 49.87813 87.54177 88.61792
#
# Poissons Ratio (x) = -0.05483 0.03512
# Poissons Ratio (y) = -0.03124 0.24608
# Poissons Ratio (z) = 0.01976 0.24309
#
# Static dielectric constant tensor:
#      x y z
#    x 3.240260 0.000000 0.000000 
#    y 0.000000 3.444350 0.000000 
#    z 0.000000 0.000000 3.747560 
# 
# 
# High freq. dielectric constant tensor:
#      x y z
#    x 1.746000 0.000000 0.000000 
#    y 0.000000 1.745870 0.000000 
#    z 0.000000 0.000000 1.774780 
# 
# From -- ./inp_files/6225.got.cif
#   From: 2010.03.12/outbox.cif.g09.slc.cpg/sg68_4_cif.got.tgz:6225.got - 2010.04.10 23:14:56.
