data_PCOD8282885
_publ_section_title
;
Structure prediction by ZEFSAII (Michael W. Deem and Ramdas Pophale) SiO2 
 PCOD8282885
Probable space group: C C C A
;
_chemical_formula_sum "Si O2"
_cell_formula_units_Z 84
_cell_length_a 15.362395
_cell_length_b 23.374581
_cell_length_c 9.899963
_cell_angle_alpha 90.000000
_cell_angle_beta 90.000000
_cell_angle_gamma 90.000000
_cell_volume 3554.973222
_symmetry_space_group_name_H-M "C C C A"
_symmetry_group_IT_number 68
_space_group.IT_coordinate_system_code '2'
_symmetry_cell_setting 'orthorhombic'
loop_
_space_group_symop_operation_xyz
x,y,z
-x,1/2-y,z
x,1/2-y,1/2-z
-x,y,1/2-z
-x,-y,-z
x,1/2+y,-z
-x,1/2+y,1/2+z
x,-y,1/2+z
1/2+x,1/2+y,z
1/2-x,-y,z
1/2+x,-y,1/2-z
1/2-x,1/2+y,1/2-z
1/2-x,1/2-y,-z
1/2+x,y,-z
1/2-x,y,1/2+z
1/2+x,1/2-y,1/2+z
loop_
_atom_site_type_symbol
_atom_site_label
_atom_site_fract_x
_atom_site_fract_y
_atom_site_fract_z
Si Si1 0.587912 0.064672 0.535709
Si Si2 0.500000 0.750000 0.250000
Si Si3 0.151409 0.187376 0.403129
Si Si4 0.833932 0.780278 0.125402
Si Si5 0.150168 0.985189 0.239158
Si Si6 0.561791 0.612561 0.876795
O O1 0.642969 0.123114 0.541375
O O2 0.621580 0.022367 0.416594
O O3 0.488366 0.081096 0.499479
O O4 0.593087 0.033427 0.681499
O O5 0.562391 0.707302 0.332579
O O6 0.175930 0.229727 0.521488
O O7 0.241654 0.192643 0.318383
O O8 0.881972 0.750000 0.250000
O O9 0.896182 0.829600 0.064712
O O10 0.139246 0.926829 0.322065
O O11 0.250000 0.000000 0.244946
O O12 0.500000 0.626179 0.750000
#
# Coordination Sequence:
#
# PCOD8282885 Si02
#       6
#    16   4  16  16  16  16
#     4  11  24  45  67 103 139 190 239 297 357 430
#     4  12  24  52  66 112 146 180 232 286 374 432
#     4  11  25  43  72 104 145 184 231 293 362 430
#     4  11  22  43  72 107 142 185 236 294 358 437
#     4  11  23  43  69  99 140 185 244 297 359 422
#     4  10  22  40  66  98 137 183 239 289 353 425
#
# _framework density 23.628869000000002
#
# number of rings (size 3 to 8) (size 9 to 14) (size 15 to 20)
#    0.000    1.143    0.952    5.714    0.000    1.905 
#   12.000    0.000    0.000    0.000    0.000    0.000 
#    0.000    0.000    0.000    0.000    0.000    0.000 
#
# Total GULP energy -520491.491063 kJ/mol
# GULP energy per Si atom -12392.654549 kJ/mol
# Density = 2.357509 g / cm^3
# Si number density = 23.628869 Si / 1000 Ang^3
#
#
#
# Elastic Constant Matrix: (Units=GPa)
#
#
# Indices 1 2 3 4 5 6 
#
# 1 104.8155 50.1044 38.3343 0.0000 0.0000 0.0000
# 2 50.1044 143.2491 53.7144 0.0000 0.0000 0.0000
# 3 38.3343 53.7144 96.4277 0.0000 0.0000 0.0000
# 4 0.0000 0.0000 0.0000 37.4466 0.0000 0.0000
# 5 0.0000 0.0000 0.0000 0.0000 17.3080 0.0000
# 6 0.0000 0.0000 0.0000 0.0000 0.0000 51.8474
#
#
#
# Elastic Compliance Matrix: (Units=1/GPa)
#
#
# Indices 1 2 3 4 5 6 
#
# 1 0.012153 -0.003083 -0.003114 0.000000 0.000000 0.000000
# 2 -0.003083 0.009606 -0.004125 0.000000 0.000000 0.000000
# 3 -0.003114 -0.004125 0.013906 0.000000 0.000000 0.000000
# 4 0.000000 0.000000 0.000000 0.026705 0.000000 0.000000
# 5 0.000000 0.000000 0.000000 0.000000 0.057777 0.000000
# 6 0.000000 0.000000 0.000000 0.000000 0.000000 0.019287
#
#
# Mechanical properties :
#
#
# Convention : Reuss Voigt Hill
#
# Bulk Modulus (GPa) = 66.57442 69.86651 68.22046
# Shear Modulus (GPa) = 30.28709 34.80966 32.54837
#
# Velocity S-wave (km/s) = 3.58408 3.84237 3.71547
# Velocity P-wave (km/s) = 6.73526 7.02265 6.88045
#
# Compressibility (1/GPa) = 0.01502078
#
# Stress axis : x y z
#
# Youngs Moduli (GPa) = 82.28203 104.09992 71.90929
#
# Poissons Ratio (x) = 0.32096 0.22393
# Poissons Ratio (y) = 0.25369 0.29665
# Poissons Ratio (z) = 0.25623 0.42945
#
# Static dielectric constant tensor:
#      x y z
#    x 4.492030 0.000000 0.000000 
#    y 0.000000 4.440640 0.000000 
#    z 0.000000 0.000000 4.068130 
# 
# 
# High freq. dielectric constant tensor:
#      x y z
#    x 1.943160 0.000000 0.000000 
#    y 0.000000 1.949960 0.000000 
#    z 0.000000 0.000000 1.920640 
# 
# From -- ./inp_files/13336.got.cif
#   From: 2010.03.12/outbox.cif.g09.slc.cpg/sg68_7_cif.got.tgz:13336.got - 2010.04.10 23:14:56.
