data_PCOD8282475
_publ_section_title
;
Structure prediction by ZEFSAII (Michael W. Deem and Ramdas Pophale) SiO2 
 PCOD8282475
Probable space group: C C C A
;
_chemical_formula_sum "Si O2"
_cell_formula_units_Z 80
_cell_length_a 9.399065
_cell_length_b 17.199110
_cell_length_c 25.183343
_cell_angle_alpha 90.000000
_cell_angle_beta 90.000000
_cell_angle_gamma 90.000000
_cell_volume 4071.027235
_symmetry_space_group_name_H-M "C C C A"
_symmetry_group_IT_number 68
_space_group.IT_coordinate_system_code '2'
_symmetry_cell_setting 'orthorhombic'
loop_
_space_group_symop_operation_xyz
x,y,z
-x,1/2-y,z
x,1/2-y,1/2-z
-x,y,1/2-z
-x,-y,-z
x,1/2+y,-z
-x,1/2+y,1/2+z
x,-y,1/2+z
1/2+x,1/2+y,z
1/2-x,-y,z
1/2+x,-y,1/2-z
1/2-x,1/2+y,1/2-z
1/2-x,1/2-y,-z
1/2+x,y,-z
1/2-x,y,1/2+z
1/2+x,1/2-y,1/2+z
loop_
_atom_site_type_symbol
_atom_site_label
_atom_site_fract_x
_atom_site_fract_y
_atom_site_fract_z
Si Si1 0.213662 0.588288 0.965839
Si Si2 0.331431 0.334561 0.747372
Si Si3 0.843956 0.576443 0.857600
Si Si4 0.427131 0.335502 0.539547
Si Si5 0.171801 0.926313 0.653217
O O1 0.250000 0.500000 0.984156
O O2 0.235283 0.600519 0.903127
O O3 0.048401 0.603548 0.978035
O O4 0.308404 0.655071 0.993950
O O5 0.261969 0.250000 0.750000
O O6 0.500000 0.331045 0.750000
O O7 0.280458 0.382726 0.695431
O O8 0.279678 0.365130 0.803596
O O9 0.750000 0.500000 0.871962
O O10 0.848790 0.639507 0.905592
O O11 0.005766 0.551653 0.847977
O O12 0.500000 0.250000 0.544500
O O13 0.250000 0.000000 0.675129
#
# Coordination Sequence:
#
# PCOD8282475 Si02
#       5
#    16  16  16  16  16
#     4  10  21  38  59  82 116 154 193 235 286 344
#     4   9  18  32  57  83 112 144 186 236 286 335
#     4  10  21  35  58  86 111 148 189 237 281 343
#     4  11  23  37  58  87 118 149 196 240 284 335
#     4   9  19  35  58  81 111 147 189 231 283 344
#
# _framework density 19.651060000000001
#
# number of rings (size 3 to 8) (size 9 to 14) (size 15 to 20)
#    0.000    2.200    0.000    2.400    8.400    3.200 
#    0.000    0.000    0.000    1.200    0.000    0.000 
#    0.000    0.000    0.000    0.000    0.000    0.000 
#
# Total GULP energy -495566.395819 kJ/mol
# GULP energy per Si atom -12389.159895 kJ/mol
# Density = 1.960633 g / cm^3
# Si number density = 19.651060 Si / 1000 Ang^3
#
#
#
# Elastic Constant Matrix: (Units=GPa)
#
#
# Indices 1 2 3 4 5 6 
#
# 1 40.1052 35.2245 37.9949 0.0000 0.0000 0.0000
# 2 35.2245 120.6836 62.0016 0.0000 0.0000 0.0000
# 3 37.9949 62.0016 110.5059 0.0000 0.0000 0.0000
# 4 0.0000 0.0000 0.0000 33.4923 0.0000 0.0000
# 5 0.0000 0.0000 0.0000 0.0000 67.8390 0.0000
# 6 0.0000 0.0000 0.0000 0.0000 0.0000 32.0951
#
#
#
# Elastic Compliance Matrix: (Units=1/GPa)
#
#
# Indices 1 2 3 4 5 6 
#
# 1 0.040339 -0.006531 -0.010205 0.000000 0.000000 0.000000
# 2 -0.006531 0.012699 -0.004880 0.000000 0.000000 0.000000
# 3 -0.010205 -0.004880 0.015296 0.000000 0.000000 0.000000
# 4 0.000000 0.000000 0.000000 0.029858 0.000000 0.000000
# 5 0.000000 0.000000 0.000000 0.000000 0.014741 0.000000
# 6 0.000000 0.000000 0.000000 0.000000 0.000000 0.031157
#
#
# Mechanical properties :
#
#
# Convention : Reuss Voigt Hill
#
# Bulk Modulus (GPa) = 39.83691 60.19297 50.01494
# Shear Modulus (GPa) = 25.55074 35.75685 30.65379
#
# Velocity S-wave (km/s) = 3.60977 4.27029 3.95385
# Velocity P-wave (km/s) = 6.13922 7.41696 6.80813
#
# Compressibility (1/GPa) = 0.02510235
#
# Stress axis : x y z
#
# Youngs Moduli (GPa) = 24.79005 78.74453 65.37650
#
# Poissons Ratio (x) = 0.51427 0.66719
# Poissons Ratio (y) = 0.16190 0.31902
# Poissons Ratio (z) = 0.25299 0.38425
#
# Static dielectric constant tensor:
#      x y z
#    x 3.230070 0.000000 0.000000 
#    y 0.000000 3.087940 0.000000 
#    z 0.000000 0.000000 3.755630 
# 
# 
# High freq. dielectric constant tensor:
#      x y z
#    x 1.740620 0.000000 0.000000 
#    y 0.000000 1.765990 0.000000 
#    z 0.000000 0.000000 1.779550 
# 
# From -- ./inp_files/44075.got.cif
#   From: 2010.03.12/outbox.cif.g09.slc.cpg/sg68_23_cif.got.tgz:44075.got - 2010.04.10 23:14:56.
