data_PCOD8282618
_publ_section_title
;
Structure prediction by ZEFSAII (Michael W. Deem and Ramdas Pophale) SiO2 
 PCOD8282618
Probable space group: C C C A
;
_chemical_formula_sum "Si O2"
_cell_formula_units_Z 88
_cell_length_a 7.929314
_cell_length_b 20.327542
_cell_length_c 27.241434
_cell_angle_alpha 90.000000
_cell_angle_beta 90.000000
_cell_angle_gamma 90.000000
_cell_volume 4390.868679
_symmetry_space_group_name_H-M "C C C A"
_symmetry_group_IT_number 68
_space_group.IT_coordinate_system_code '2'
_symmetry_cell_setting 'orthorhombic'
loop_
_space_group_symop_operation_xyz
x,y,z
-x,1/2-y,z
x,1/2-y,1/2-z
-x,y,1/2-z
-x,-y,-z
x,1/2+y,-z
-x,1/2+y,1/2+z
x,-y,1/2+z
1/2+x,1/2+y,z
1/2-x,-y,z
1/2+x,-y,1/2-z
1/2-x,1/2+y,1/2-z
1/2-x,1/2-y,-z
1/2+x,y,-z
1/2-x,y,1/2+z
1/2+x,1/2-y,1/2+z
loop_
_atom_site_type_symbol
_atom_site_label
_atom_site_fract_x
_atom_site_fract_y
_atom_site_fract_z
Si Si1 0.950817 0.996991 0.387299
Si Si2 0.877535 0.554872 0.792730
Si Si3 0.770458 0.684705 0.032397
Si Si4 0.566803 0.385915 0.947657
Si Si5 0.000000 0.250000 0.610150
Si Si6 0.830983 0.128420 0.634061
O O1 0.030806 0.924218 0.386193
O O2 0.750000 0.000000 0.391163
O O3 0.005685 0.030365 0.336778
O O4 0.026194 0.037870 0.433858
O O5 0.750000 0.500000 0.771205
O O6 0.756067 0.610535 0.814527
O O7 0.000000 0.581493 0.750000
O O8 0.596326 0.660300 0.055243
O O9 0.888970 0.701568 0.077290
O O10 0.750000 0.750000 0.000000
O O11 0.850971 0.623576 0.001564
O O12 0.697667 0.357948 0.908598
O O13 0.905736 0.199788 0.645904
#
# Coordination Sequence:
#
# PCOD8282618 Si02
#       6
#    16  16  16  16   8  16
#     4  10  21  39  59  89 123 154 195 252 316 364
#     4   9  18  35  63  95 122 147 192 242 303 377
#     4  12  21  35  58  82 113 162 223 254 296 361
#     4  11  21  38  57  80 118 155 204 270 292 350
#     4  12  22  38  58  82 129 164 215 256 300 358
#     4  10  22  38  58  91 123 159 202 248 308 374
#
# _framework density 20.041594
#
# number of rings (size 3 to 8) (size 9 to 14) (size 15 to 20)
#    0.000    1.455    3.636    3.273    0.000    0.000 
#    0.000   12.727    0.000    0.000    0.000  108.182 
#    0.000    0.000    0.000    0.000    0.000    0.000 
#
# Total GULP energy -545324.993821 kJ/mol
# GULP energy per Si atom -12393.749860 kJ/mol
# Density = 1.999598 g / cm^3
# Si number density = 20.041594 Si / 1000 Ang^3
#
#
#
# Elastic Constant Matrix: (Units=GPa)
#
#
# Indices 1 2 3 4 5 6 
#
# 1 143.9393 64.1460 48.8618 0.0000 0.0000 0.0000
# 2 64.1460 134.2846 58.3459 0.0000 0.0000 0.0000
# 3 48.8618 58.3459 80.1622 0.0000 0.0000 0.0000
# 4 0.0000 0.0000 0.0000 11.3548 0.0000 0.0000
# 5 0.0000 0.0000 0.0000 0.0000 36.4237 0.0000
# 6 0.0000 0.0000 0.0000 0.0000 0.0000 39.0803
#
#
#
# Elastic Compliance Matrix: (Units=1/GPa)
#
#
# Indices 1 2 3 4 5 6 
#
# 1 0.009500 -0.002957 -0.003638 0.000000 0.000000 0.000000
# 2 -0.002957 0.011812 -0.006795 0.000000 0.000000 0.000000
# 3 -0.003638 -0.006795 0.019638 0.000000 0.000000 0.000000
# 4 0.000000 0.000000 0.000000 0.088068 0.000000 0.000000
# 5 0.000000 0.000000 0.000000 0.000000 0.027455 0.000000
# 6 0.000000 0.000000 0.000000 0.000000 0.000000 0.025588
#
#
# Mechanical properties :
#
#
# Convention : Reuss Voigt Hill
#
# Bulk Modulus (GPa) = 70.57424 77.89929 74.23677
# Shear Modulus (GPa) = 23.41207 29.84058 26.62633
#
# Velocity S-wave (km/s) = 3.42156 3.86286 3.64889
# Velocity P-wave (km/s) = 7.13441 7.67129 7.40772
#
# Compressibility (1/GPa) = 0.01416948
#
# Stress axis : x y z
#
# Youngs Moduli (GPa) = 105.25887 84.66132 50.92220
#
# Poissons Ratio (x) = 0.25038 0.18527
# Poissons Ratio (y) = 0.31129 0.34599
# Poissons Ratio (z) = 0.38296 0.57524
#
# Static dielectric constant tensor:
#      x y z
#    x 3.994390 0.000000 0.000000 
#    y 0.000000 3.709390 0.000000 
#    z 0.000000 0.000000 3.404250 
# 
# 
# High freq. dielectric constant tensor:
#      x y z
#    x 1.805770 0.000000 0.000000 
#    y 0.000000 1.774050 0.000000 
#    z 0.000000 0.000000 1.752780 
# 
# From -- ./inp_files/43125.got.cif
#   From: 2010.03.12/outbox.cif.g09.slc.cpg/sg68_22_cif.got.tgz:43125.got - 2010.04.10 23:14:56.
