data_PCOD8282676
_publ_section_title
;
Structure prediction by ZEFSAII (Michael W. Deem and Ramdas Pophale) SiO2 
 PCOD8282676
Probable space group: C C C A
;
_chemical_formula_sum "Si O2"
_cell_formula_units_Z 76
_cell_length_a 29.130178
_cell_length_b 8.040457
_cell_length_c 16.114591
_cell_angle_alpha 90.000000
_cell_angle_beta 90.000000
_cell_angle_gamma 90.000000
_cell_volume 3774.358595
_symmetry_space_group_name_H-M "C C C A"
_symmetry_group_IT_number 68
_space_group.IT_coordinate_system_code '2'
_symmetry_cell_setting 'orthorhombic'
loop_
_space_group_symop_operation_xyz
x,y,z
-x,1/2-y,z
x,1/2-y,1/2-z
-x,y,1/2-z
-x,-y,-z
x,1/2+y,-z
-x,1/2+y,1/2+z
x,-y,1/2+z
1/2+x,1/2+y,z
1/2-x,-y,z
1/2+x,-y,1/2-z
1/2-x,1/2+y,1/2-z
1/2-x,1/2-y,-z
1/2+x,y,-z
1/2-x,y,1/2+z
1/2+x,1/2-y,1/2+z
loop_
_atom_site_type_symbol
_atom_site_label
_atom_site_fract_x
_atom_site_fract_y
_atom_site_fract_z
Si Si1 0.500000 0.750000 0.029784
Si Si2 0.500000 0.750000 0.750000
Si Si3 0.699092 0.773448 0.034434
Si Si4 0.250000 0.500000 0.140797
Si Si5 0.653980 0.451324 0.108608
Si Si6 0.698223 0.750000 0.750000
Si Si7 0.452037 0.942949 0.606174
O O1 0.518048 0.606798 0.089983
O O2 0.459152 0.685430 0.969927
O O3 0.467456 0.864089 0.693240
O O4 0.704794 0.940060 0.089666
O O5 0.682780 0.617480 0.089094
O O6 0.750000 0.750000 0.000000
O O7 0.663410 0.810445 0.960748
O O8 0.266860 0.343707 0.191249
O O9 0.667330 0.379830 0.198656
O O10 0.600663 0.495282 0.110944
#
# Coordination Sequence:
#
# PCOD8282676 Si02
#       7
#     8   4  16   8  16   8  16
#     4   9  20  40  66  91 120 160 202 251 318 374
#     4  10  22  42  64  90 136 164 192 250 344 380
#     4  12  22  41  62  87 120 169 208 257 303 361
#     4  12  24  40  60  80 120 166 206 246 312 356
#     4  12  23  39  64  93 123 160 215 258 302 368
#     4  12  25  38  58  89 122 160 206 259 298 369
#     4  10  21  40  64  94 123 161 202 257 311 381
#
# _framework density 20.135873
#
# number of rings (size 3 to 8) (size 9 to 14) (size 15 to 20)
#    0.000    0.842    4.211    3.158    0.000    0.421 
#    0.000    8.421    0.000    0.000    0.000    0.000 
#    0.000    0.000    0.000    0.000    0.000    0.000 
#
# Total GULP energy -471274.628215 kJ/mol
# GULP energy per Si atom -12401.963900 kJ/mol
# Density = 2.009004 g / cm^3
# Si number density = 20.135873 Si / 1000 Ang^3
#
#
#
# Elastic Constant Matrix: (Units=GPa)
#
#
# Indices 1 2 3 4 5 6 
#
# 1 119.3955 34.4398 45.8479 0.0000 0.0000 0.0000
# 2 34.4398 108.3976 51.4835 0.0000 0.0000 0.0000
# 3 45.8479 51.4835 115.5970 0.0000 0.0000 0.0000
# 4 0.0000 0.0000 0.0000 48.2966 0.0000 0.0000
# 5 0.0000 0.0000 0.0000 0.0000 14.5721 0.0000
# 6 0.0000 0.0000 0.0000 0.0000 0.0000 26.3392
#
#
#
# Elastic Compliance Matrix: (Units=1/GPa)
#
#
# Indices 1 2 3 4 5 6 
#
# 1 0.010110 -0.001658 -0.003271 0.000000 0.000000 0.000000
# 2 -0.001658 0.011972 -0.004674 0.000000 0.000000 0.000000
# 3 -0.003271 -0.004674 0.012030 0.000000 0.000000 0.000000
# 4 0.000000 0.000000 0.000000 0.020705 0.000000 0.000000
# 5 0.000000 0.000000 0.000000 0.000000 0.068624 0.000000
# 6 0.000000 0.000000 0.000000 0.000000 0.000000 0.037966
#
#
# Mechanical properties :
#
#
# Convention : Reuss Voigt Hill
#
# Bulk Modulus (GPa) = 67.09467 67.43696 67.26582
# Shear Modulus (GPa) = 26.94191 31.94950 29.44571
#
# Velocity S-wave (km/s) = 3.66184 3.98766 3.82822
# Velocity P-wave (km/s) = 7.16045 7.40037 7.28140
#
# Compressibility (1/GPa) = 0.01490431
#
# Stress axis : x y z
#
# Youngs Moduli (GPa) = 98.91137 83.52614 83.12573
#
# Poissons Ratio (x) = 0.13853 0.27192
# Poissons Ratio (y) = 0.16404 0.38856
# Poissons Ratio (z) = 0.32356 0.39043
#
# Static dielectric constant tensor:
#      x y z
#    x 3.592820 0.000000 0.000000 
#    y 0.000000 3.876700 0.000000 
#    z 0.000000 0.000000 4.157260 
# 
# 
# High freq. dielectric constant tensor:
#      x y z
#    x 1.773780 0.000000 0.000000 
#    y 0.000000 1.800930 0.000000 
#    z 0.000000 0.000000 1.794720 
# 
# From -- ./inp_files/34020.got.cif
#   From: 2010.03.12/outbox.cif.g09.slc.cpg/sg68_18_cif.got.tgz:34020.got - 2010.04.10 23:14:56.
