data_PCOD8282504
_publ_section_title
;
Structure prediction by ZEFSAII (Michael W. Deem and Ramdas Pophale) SiO2 
 PCOD8282504
Probable space group: C C C A
;
_chemical_formula_sum "Si O2"
_cell_formula_units_Z 96
_cell_length_a 11.925916
_cell_length_b 17.067692
_cell_length_c 22.295322
_cell_angle_alpha 90.000000
_cell_angle_beta 90.000000
_cell_angle_gamma 90.000000
_cell_volume 4538.165106
_symmetry_space_group_name_H-M "C C C A"
_symmetry_group_IT_number 68
_space_group.IT_coordinate_system_code '2'
_symmetry_cell_setting 'orthorhombic'
loop_
_space_group_symop_operation_xyz
x,y,z
-x,1/2-y,z
x,1/2-y,1/2-z
-x,y,1/2-z
-x,-y,-z
x,1/2+y,-z
-x,1/2+y,1/2+z
x,-y,1/2+z
1/2+x,1/2+y,z
1/2-x,-y,z
1/2+x,-y,1/2-z
1/2-x,1/2+y,1/2-z
1/2-x,1/2-y,-z
1/2+x,y,-z
1/2-x,y,1/2+z
1/2+x,1/2-y,1/2+z
loop_
_atom_site_type_symbol
_atom_site_label
_atom_site_fract_x
_atom_site_fract_y
_atom_site_fract_z
Si Si1 0.207272 0.585186 0.698840
Si Si2 0.202339 0.916441 0.662022
Si Si3 0.518226 0.336612 0.875478
Si Si4 0.807161 0.830044 0.521785
Si Si5 0.132830 0.841777 0.385158
Si Si6 0.110158 0.840574 0.101350
O O1 0.250000 0.500000 0.678341
O O2 0.173105 0.585506 0.768132
O O3 0.094186 0.608865 0.665800
O O4 0.307393 0.644913 0.679410
O O5 0.307255 0.859103 0.655472
O O6 0.099575 0.884226 0.621021
O O7 0.250000 0.000000 0.639842
O O8 0.500000 0.250000 0.846461
O O9 0.577887 0.319962 0.939671
O O10 0.750000 0.750000 0.500000
O O11 0.715918 0.875982 0.562932
O O12 0.842258 0.875946 0.461519
O O13 0.106526 0.752522 0.400107
O O14 0.010387 0.881834 0.386413
#
# Coordination Sequence:
#
# PCOD8282504 Si02
#       6
#    16  16  16  16  16  16
#     4  10  23  42  63  86 127 169 211 261 323 381
#     4  11  25  41  60  92 129 168 208 264 326 377
#     4  11  23  40  70  98 122 168 218 272 318 384
#     4   9  19  36  63  93 126 161 202 264 321 383
#     4   9  20  37  61  90 116 164 206 253 308 379
#     4  10  21  36  61  91 123 159 207 251 310 386
#
# _framework density 21.153924
#
# number of rings (size 3 to 8) (size 9 to 14) (size 15 to 20)
#    0.000    2.000    0.000    3.500    9.333    4.000 
#    0.000    5.833    0.000    0.000    0.000    0.000 
#    0.000    0.000    0.000    0.000    0.000    0.000 
#
# Total GULP energy -594642.859770 kJ/mol
# GULP energy per Si atom -12388.392912 kJ/mol
# Density = 2.110578 g / cm^3
# Si number density = 21.153924 Si / 1000 Ang^3
#
#
#
# Elastic Constant Matrix: (Units=GPa)
#
#
# Indices 1 2 3 4 5 6 
#
# 1 169.8110 41.3164 31.0924 0.0000 0.0000 0.0000
# 2 41.3164 62.3181 28.0788 0.0000 0.0000 0.0000
# 3 31.0924 28.0788 57.2190 0.0000 0.0000 0.0000
# 4 0.0000 0.0000 0.0000 14.4010 0.0000 0.0000
# 5 0.0000 0.0000 0.0000 0.0000 23.4689 0.0000
# 6 0.0000 0.0000 0.0000 0.0000 0.0000 33.7941
#
#
#
# Elastic Compliance Matrix: (Units=1/GPa)
#
#
# Indices 1 2 3 4 5 6 
#
# 1 0.007198 -0.003864 -0.002015 0.000000 0.000000 0.000000
# 2 -0.003864 0.022677 -0.009028 0.000000 0.000000 0.000000
# 3 -0.002015 -0.009028 0.023002 0.000000 0.000000 0.000000
# 4 0.000000 0.000000 0.000000 0.069440 0.000000 0.000000
# 5 0.000000 0.000000 0.000000 0.000000 0.042610 0.000000
# 6 0.000000 0.000000 0.000000 0.000000 0.000000 0.029591
#
#
# Mechanical properties :
#
#
# Convention : Reuss Voigt Hill
#
# Bulk Modulus (GPa) = 43.36208 54.48039 48.92123
# Shear Modulus (GPa) = 21.54995 26.92349 24.23672
#
# Velocity S-wave (km/s) = 3.19520 3.57142 3.38854
# Velocity P-wave (km/s) = 5.84425 6.54346 6.20372
#
# Compressibility (1/GPa) = 0.02306163
#
# Stress axis : x y z
#
# Youngs Moduli (GPa) = 138.92588 44.09842 43.47449
#
# Poissons Ratio (x) = 0.17041 0.08760
# Poissons Ratio (y) = 0.53686 0.39249
# Poissons Ratio (z) = 0.27994 0.39812
#
# Static dielectric constant tensor:
#      x y z
#    x 3.757120 0.000000 0.000000 
#    y 0.000000 3.611580 0.000000 
#    z 0.000000 0.000000 3.823870 
# 
# 
# High freq. dielectric constant tensor:
#      x y z
#    x 1.855740 0.000000 0.000000 
#    y 0.000000 1.794710 0.000000 
#    z 0.000000 0.000000 1.821740 
# 
# From -- ./inp_files/44387.got.cif
#   From: 2010.03.12/outbox.cif.g09.slc.cpg/sg68_23_cif.got.tgz:44387.got - 2010.04.10 23:14:56.
