data_PCOD8282992
_publ_section_title
;
Structure prediction by ZEFSAII (Michael W. Deem and Ramdas Pophale) SiO2 
 PCOD8282992
Probable space group: C C C A
;
_chemical_formula_sum "Si O2"
_cell_formula_units_Z 68
_cell_length_a 26.800399
_cell_length_b 8.855131
_cell_length_c 13.630136
_cell_angle_alpha 90.000000
_cell_angle_beta 90.000000
_cell_angle_gamma 90.000000
_cell_volume 3234.718105
_symmetry_space_group_name_H-M "C C C A"
_symmetry_group_IT_number 68
_space_group.IT_coordinate_system_code '2'
_symmetry_cell_setting 'orthorhombic'
loop_
_space_group_symop_operation_xyz
x,y,z
-x,1/2-y,z
x,1/2-y,1/2-z
-x,y,1/2-z
-x,-y,-z
x,1/2+y,-z
-x,1/2+y,1/2+z
x,-y,1/2+z
1/2+x,1/2+y,z
1/2-x,-y,z
1/2+x,-y,1/2-z
1/2-x,1/2+y,1/2-z
1/2-x,1/2-y,-z
1/2+x,y,-z
1/2-x,y,1/2+z
1/2+x,1/2-y,1/2+z
loop_
_atom_site_type_symbol
_atom_site_label
_atom_site_fract_x
_atom_site_fract_y
_atom_site_fract_z
Si Si1 0.446202 0.460344 0.606047
Si Si2 0.250000 0.500000 0.252706
Si Si3 0.500000 0.750000 0.250000
Si Si4 0.210487 0.672610 0.930659
Si Si5 0.000000 0.250000 0.544735
Si Si6 0.167932 0.974908 0.904844
O O1 0.461992 0.361685 0.697656
O O2 0.473144 0.622828 0.608952
O O3 0.459484 0.348783 0.515999
O O4 0.389217 0.514891 0.611705
O O5 0.235685 0.364702 0.326222
O O6 0.203028 0.541877 0.182281
O O7 0.168155 0.793696 0.905966
O O8 0.250000 0.750000 0.000000
O O9 0.186746 0.531297 0.987984
#
# Coordination Sequence:
#
# PCOD8282992 Si02
#       6
#    16   8   4  16   8  16
#     4  10  22  43  68  99 122 176 208 278 330 403
#     4  12  24  40  64  94 138 170 220 272 316 382
#     4  10  24  42  64  98 136 148 224 282 332 380
#     4  12  23  44  60  92 137 177 217 272 312 386
#     4   9  20  46  70  87 136 160 222 267 338 390
#     4  12  25  41  70  96 132 177 222 260 336 395
#
# _framework density 21.021923000000001
#
# number of rings (size 3 to 8) (size 9 to 14) (size 15 to 20)
#    0.000    0.941    4.706    2.118    3.294    0.471 
#    0.000    2.353    0.000    0.000    0.000    0.000 
#    0.000    0.000    0.000    0.000    0.000    0.000 
#
# Total GULP energy -421217.652807 kJ/mol
# GULP energy per Si atom -12388.754494 kJ/mol
# Density = 2.097408 g / cm^3
# Si number density = 21.021923 Si / 1000 Ang^3
#
#
#
# Elastic Constant Matrix: (Units=GPa)
#
#
# Indices 1 2 3 4 5 6 
#
# 1 154.8204 48.2754 59.3600 0.0000 0.0000 0.0000
# 2 48.2754 150.0737 53.7963 0.0000 0.0000 0.0000
# 3 59.3600 53.7963 124.6985 0.0000 0.0000 0.0000
# 4 0.0000 0.0000 0.0000 56.2424 0.0000 0.0000
# 5 0.0000 0.0000 0.0000 0.0000 8.6241 0.0000
# 6 0.0000 0.0000 0.0000 0.0000 0.0000 32.6339
#
#
#
# Elastic Compliance Matrix: (Units=1/GPa)
#
#
# Indices 1 2 3 4 5 6 
#
# 1 0.008162 -0.001458 -0.003256 0.000000 0.000000 0.000000
# 2 -0.001458 0.008143 -0.002819 0.000000 0.000000 0.000000
# 3 -0.003256 -0.002819 0.010785 0.000000 0.000000 0.000000
# 4 0.000000 0.000000 0.000000 0.017780 0.000000 0.000000
# 5 0.000000 0.000000 0.000000 0.000000 0.115954 0.000000
# 6 0.000000 0.000000 0.000000 0.000000 0.000000 0.030643
#
#
# Mechanical properties :
#
#
# Convention : Reuss Voigt Hill
#
# Bulk Modulus (GPa) = 83.16778 83.60622 83.38700
# Shear Modulus (GPa) = 23.74819 37.37750 30.56284
#
# Velocity S-wave (km/s) = 3.36473 4.22124 3.81708
# Velocity P-wave (km/s) = 7.39888 7.97595 7.69283
#
# Compressibility (1/GPa) = 0.01202389
#
# Stress axis : x y z
#
# Youngs Moduli (GPa) = 122.51352 122.80593 92.71713
#
# Poissons Ratio (x) = 0.17910 0.30192
# Poissons Ratio (y) = 0.17867 0.26134
# Poissons Ratio (z) = 0.39895 0.34616
#
# Static dielectric constant tensor:
#      x y z
#    x 3.636470 0.000000 0.000000 
#    y 0.000000 4.492470 0.000000 
#    z 0.000000 0.000000 4.192120 
# 
# 
# High freq. dielectric constant tensor:
#      x y z
#    x 1.814740 0.000000 0.000000 
#    y 0.000000 1.842650 0.000000 
#    z 0.000000 0.000000 1.820570 
# 
# From -- ./inp_files/19422.got.cif
#   From: 2010.03.12/outbox.cif.g09.slc.cpg/sg68_10_cif.got.tgz:19422.got - 2010.04.10 23:14:56.
