data_PCOD8282605
_publ_section_title
;
Structure prediction by ZEFSAII (Michael W. Deem and Ramdas Pophale) SiO2 
 PCOD8282605
Probable space group: C C C A
;
_chemical_formula_sum "Si O2"
_cell_formula_units_Z 64
_cell_length_a 11.048700
_cell_length_b 21.579610
_cell_length_c 11.176291
_cell_angle_alpha 90.000000
_cell_angle_beta 90.000000
_cell_angle_gamma 90.000000
_cell_volume 2664.725477
_symmetry_space_group_name_H-M "C C C A"
_symmetry_group_IT_number 68
_space_group.IT_coordinate_system_code '2'
_symmetry_cell_setting 'orthorhombic'
loop_
_space_group_symop_operation_xyz
x,y,z
-x,1/2-y,z
x,1/2-y,1/2-z
-x,y,1/2-z
-x,-y,-z
x,1/2+y,-z
-x,1/2+y,1/2+z
x,-y,1/2+z
1/2+x,1/2+y,z
1/2-x,-y,z
1/2+x,-y,1/2-z
1/2-x,1/2+y,1/2-z
1/2-x,1/2-y,-z
1/2+x,y,-z
1/2-x,y,1/2+z
1/2+x,1/2-y,1/2+z
loop_
_atom_site_type_symbol
_atom_site_label
_atom_site_fract_x
_atom_site_fract_y
_atom_site_fract_z
Si Si1 0.900650 0.791840 0.097708
Si Si2 0.016823 0.600020 0.521198
Si Si3 0.110091 0.496317 0.844051
Si Si4 0.139672 0.713378 0.639642
O O1 0.779628 0.796936 0.174246
O O2 0.000000 0.750000 0.166912
O O3 0.876278 0.759795 0.970068
O O4 0.947665 0.861210 0.079977
O O5 0.108863 0.554951 0.450028
O O6 0.086081 0.645567 0.612879
O O7 0.918781 0.562719 0.598165
O O8 0.250000 0.500000 0.792056
O O9 0.000000 0.481983 0.750000
O O10 0.078248 0.750000 0.750000
#
# Coordination Sequence:
#
# PCOD8282605 Si02
#       4
#    16  16  16  16
#     4   9  20  39  59  96 140 177 225 294 357 436
#     4  10  23  45  68  98 148 182 242 310 359 441
#     4  11  26  46  73 106 141 196 252 304 376 435
#     4  10  21  38  68 100 135 185 233 292 365 430
#
# _framework density 24.017484
#
# number of rings (size 3 to 8) (size 9 to 14) (size 15 to 20)
#    0.000    2.000    0.000    1.500    3.500   10.000 
#   13.500    0.000    0.000    0.000    0.000    0.000 
#    0.000    0.000    0.000    0.000    0.000    0.000 
#
# Total GULP energy -396430.418593 kJ/mol
# GULP energy per Si atom -12388.450581 kJ/mol
# Density = 2.396282 g / cm^3
# Si number density = 24.017484 Si / 1000 Ang^3
#
#
#
# Elastic Constant Matrix: (Units=GPa)
#
#
# Indices 1 2 3 4 5 6 
#
# 1 214.3741 58.4682 28.8081 0.0000 0.0000 0.0000
# 2 58.4682 167.3351 40.4159 0.0000 0.0000 0.0000
# 3 28.8081 40.4159 83.7813 0.0000 0.0000 0.0000
# 4 0.0000 0.0000 0.0000 -57.8529 0.0000 0.0000
# 5 0.0000 0.0000 0.0000 0.0000 -194.4579 0.0000
# 6 0.0000 0.0000 0.0000 0.0000 0.0000 17.4960
#
#
#
# Elastic Compliance Matrix: (Units=1/GPa)
#
#
# Indices 1 2 3 4 5 6 
#
# 1 0.005235 -0.001578 -0.001039 0.000000 0.000000 0.000000
# 2 -0.001578 0.007240 -0.002950 0.000000 0.000000 0.000000
# 3 -0.001039 -0.002950 0.013716 0.000000 0.000000 0.000000
# 4 0.000000 0.000000 0.000000 -0.017285 0.000000 0.000000
# 5 0.000000 0.000000 0.000000 0.000000 -0.005142 0.000000
# 6 0.000000 0.000000 0.000000 0.000000 0.000000 0.057156
#
#
# Mechanical properties :
#
#
# Convention : Reuss Voigt Hill
#
# Bulk Modulus (GPa) = 66.41319 80.09722 73.25520
# Shear Modulus (GPa) = 64.87497 -24.44309 20.21594
#
# Velocity S-wave (km/s) = 5.20290 -3.19363 2.90438
# Velocity P-wave (km/s) = 7.98784 4.45229 6.46639
#
# Compressibility (1/GPa) = 0.01505725
#
# Stress axis : x y z
#
# Youngs Moduli (GPa) = 191.03083 138.12270 72.90766
#
# Poissons Ratio (x) = 0.21799 0.07573
# Poissons Ratio (y) = 0.30149 0.21507
# Poissons Ratio (z) = 0.19841 0.40744
#
# Static dielectric constant tensor:
#      x y z
#    x 5.623160 0.000000 0.000000 
#    y 0.000000 4.559810 0.000000 
#    z 0.000000 0.000000 4.005810 
# 
# 
# High freq. dielectric constant tensor:
#      x y z
#    x 1.974870 0.000000 0.000000 
#    y 0.000000 1.959230 0.000000 
#    z 0.000000 0.000000 1.940450 
# 
# From -- ./inp_files/11685.got.cif
#   From: 2010.03.12/outbox.cif.g09.slc.cpg/sg68_6_cif.got.tgz:11685.got - 2010.04.10 23:14:56.
