data_PCOD8282780
_publ_section_title
;
Structure prediction by ZEFSAII (Michael W. Deem and Ramdas Pophale) SiO2 
 PCOD8282780
Probable space group: C C C A
;
_chemical_formula_sum "Si O2"
_cell_formula_units_Z 108
_cell_length_a 11.616088
_cell_length_b 17.533681
_cell_length_c 24.748651
_cell_angle_alpha 90.000000
_cell_angle_beta 90.000000
_cell_angle_gamma 90.000000
_cell_volume 5040.626587
_symmetry_space_group_name_H-M "C C C A"
_symmetry_group_IT_number 68
_space_group.IT_coordinate_system_code '2'
_symmetry_cell_setting 'orthorhombic'
loop_
_space_group_symop_operation_xyz
x,y,z
-x,1/2-y,z
x,1/2-y,1/2-z
-x,y,1/2-z
-x,-y,-z
x,1/2+y,-z
-x,1/2+y,1/2+z
x,-y,1/2+z
1/2+x,1/2+y,z
1/2-x,-y,z
1/2+x,-y,1/2-z
1/2-x,1/2+y,1/2-z
1/2-x,1/2-y,-z
1/2+x,y,-z
1/2-x,y,1/2+z
1/2+x,1/2-y,1/2+z
loop_
_atom_site_type_symbol
_atom_site_label
_atom_site_fract_x
_atom_site_fract_y
_atom_site_fract_z
Si Si1 0.250000 0.500000 0.716556
Si Si2 0.000000 0.250000 0.250000
Si Si3 0.756085 0.323745 0.928329
Si Si4 0.290531 0.850928 0.544712
Si Si5 0.642943 0.916465 0.367817
Si Si6 0.396403 0.862839 0.332303
Si Si7 0.860757 0.573202 0.186288
Si Si8 0.996068 0.660049 0.386128
O O1 0.319841 0.437568 0.682072
O O2 0.149660 0.459638 0.752998
O O3 0.087824 0.196284 0.283443
O O4 0.781586 0.238823 0.946292
O O5 0.661998 0.319823 0.881809
O O6 0.869854 0.365897 0.904913
O O7 0.710817 0.370078 0.980802
O O8 0.182257 0.895557 0.571250
O O9 0.412734 0.874371 0.570840
O O10 0.522100 0.881503 0.353108
O O11 0.741416 0.881669 0.327253
O O12 0.633326 0.006550 0.358672
O O13 0.971931 0.626145 0.173898
O O14 0.000000 0.750000 0.380543
#
# Coordination Sequence:
#
# PCOD8282780 Si02
#       8
#     8   4  16  16  16  16  16  16
#     4  10  24  42  62  92 130 174 212 272 350 378
#     4  12  24  44  68  92 134 174 236 280 336 376
#     4  10  22  36  60  94 126 160 209 264 319 382
#     4   9  19  39  62  87 126 171 201 251 330 388
#     4   9  19  37  63  87 117 163 214 248 321 393
#     4  12  25  40  64 102 128 166 221 287 316 395
#     4   9  19  39  64  83 116 177 211 252 322 410
#     4   9  19  37  61  89 122 159 210 259 307 389
#
# _framework density 21.425906999999999
#
# number of rings (size 3 to 8) (size 9 to 14) (size 15 to 20)
#    0.000    2.370    0.000    2.667    4.148    2.370 
#    1.333    3.704    0.000    2.667    0.000    0.000 
#    0.000    0.000    0.000    0.000    0.000    0.000 
#
# Total GULP energy -669098.097707 kJ/mol
# GULP energy per Si atom -12390.705513 kJ/mol
# Density = 2.137714 g / cm^3
# Si number density = 21.425907 Si / 1000 Ang^3
#
#
#
# Elastic Constant Matrix: (Units=GPa)
#
#
# Indices 1 2 3 4 5 6 
#
# 1 122.8221 33.9413 41.1097 0.0000 0.0000 0.0000
# 2 33.9413 36.4434 20.5257 0.0000 0.0000 0.0000
# 3 41.1097 20.5257 106.7306 0.0000 0.0000 0.0000
# 4 0.0000 0.0000 0.0000 27.3194 0.0000 0.0000
# 5 0.0000 0.0000 0.0000 0.0000 34.9051 0.0000
# 6 0.0000 0.0000 0.0000 0.0000 0.0000 32.5924
#
#
#
# Elastic Compliance Matrix: (Units=1/GPa)
#
#
# Indices 1 2 3 4 5 6 
#
# 1 0.011611 -0.009302 -0.002683 0.000000 0.000000 0.000000
# 2 -0.009302 0.038226 -0.003768 0.000000 0.000000 0.000000
# 3 -0.002683 -0.003768 0.011128 0.000000 0.000000 0.000000
# 4 0.000000 0.000000 0.000000 0.036604 0.000000 0.000000
# 5 0.000000 0.000000 0.000000 0.000000 0.028649 0.000000
# 6 0.000000 0.000000 0.000000 0.000000 0.000000 0.030682
#
#
# Mechanical properties :
#
#
# Convention : Reuss Voigt Hill
#
# Bulk Modulus (GPa) = 33.94839 50.79437 42.37138
# Shear Modulus (GPa) = 25.22383 30.32466 27.77425
#
# Velocity S-wave (km/s) = 3.43484 3.76616 3.60431
# Velocity P-wave (km/s) = 5.62226 6.53226 6.09427
#
# Compressibility (1/GPa) = 0.02945648
#
# Stress axis : x y z
#
# Youngs Moduli (GPa) = 86.12860 26.16039 89.86703
#
# Poissons Ratio (x) = 0.24335 0.24112
# Poissons Ratio (y) = 0.80119 0.33865
# Poissons Ratio (z) = 0.23109 0.09858
#
# Static dielectric constant tensor:
#      x y z
#    x 4.236600 0.000000 0.000000 
#    y 0.000000 3.925750 0.000000 
#    z 0.000000 0.000000 3.963410 
# 
# 
# High freq. dielectric constant tensor:
#      x y z
#    x 1.847310 0.000000 0.000000 
#    y 0.000000 1.823550 0.000000 
#    z 0.000000 0.000000 1.831020 
# 
# From -- ./inp_files/44627.got.cif
#   From: 2010.03.12/outbox.cif.g09.slc.cpg/sg68_23_cif.got.tgz:44627.got - 2010.04.10 23:14:56.
