data_PCOD8282747
_publ_section_title
;
Structure prediction by ZEFSAII (Michael W. Deem and Ramdas Pophale) SiO2 
 PCOD8282747
Probable space group: C C C A
;
_chemical_formula_sum "Si O2"
_cell_formula_units_Z 64
_cell_length_a 8.530869
_cell_length_b 26.128579
_cell_length_c 12.204350
_cell_angle_alpha 90.000000
_cell_angle_beta 90.000000
_cell_angle_gamma 90.000000
_cell_volume 2720.343325
_symmetry_space_group_name_H-M "C C C A"
_symmetry_group_IT_number 68
_space_group.IT_coordinate_system_code '2'
_symmetry_cell_setting 'orthorhombic'
loop_
_space_group_symop_operation_xyz
x,y,z
-x,1/2-y,z
x,1/2-y,1/2-z
-x,y,1/2-z
-x,-y,-z
x,1/2+y,-z
-x,1/2+y,1/2+z
x,-y,1/2+z
1/2+x,1/2+y,z
1/2-x,-y,z
1/2+x,-y,1/2-z
1/2-x,1/2+y,1/2-z
1/2-x,1/2-y,-z
1/2+x,y,-z
1/2-x,y,1/2+z
1/2+x,1/2-y,1/2+z
loop_
_atom_site_type_symbol
_atom_site_label
_atom_site_fract_x
_atom_site_fract_y
_atom_site_fract_z
Si Si1 0.000000 0.750000 0.750000
Si Si2 0.439710 0.536593 0.908759
Si Si3 0.500000 0.250000 0.250000
Si Si4 0.255897 0.091434 0.918993
Si Si5 0.500000 0.456411 0.750000
Si Si6 0.750223 0.208146 0.096268
O O1 0.099127 0.786653 0.827546
O O2 0.585835 0.573720 0.874789
O O3 0.387641 0.497017 0.813931
O O4 0.500000 0.500000 0.000000
O O5 0.293721 0.567358 0.961053
O O6 0.599307 0.213230 0.172539
O O7 0.389041 0.078418 0.827791
O O8 0.251636 0.151125 0.949754
O O9 0.750000 0.250000 0.000000
#
# Coordination Sequence:
#
# PCOD8282747 Si02
#       6
#     4  16   4  16   8  16
#     4  10  24  46  72 100 138 190 238 288 360 416
#     4  10  23  42  64  98 137 174 228 282 342 412
#     4  10  26  48  68 104 142 182 244 290 356 416
#     4  11  25  42  71 102 133 190 228 280 367 414
#     4  10  21  43  66  99 141 172 231 289 336 422
#     4  11  25  47  74 102 150 181 242 301 352 425
#
# _framework density 23.526440999999998
#
# number of rings (size 3 to 8) (size 9 to 14) (size 15 to 20)
#    0.000    1.500    0.000    4.500    7.000    9.000 
#    9.000    0.000    0.000    0.000    0.000    0.000 
#    0.000    0.000    0.000    0.000    0.000    0.000 
#
# Total GULP energy -396465.941323 kJ/mol
# GULP energy per Si atom -12389.560666 kJ/mol
# Density = 2.347289 g / cm^3
# Si number density = 23.526441 Si / 1000 Ang^3
#
#
#
# Elastic Constant Matrix: (Units=GPa)
#
#
# Indices 1 2 3 4 5 6 
#
# 1 109.0378 25.3435 16.7091 0.0000 0.0000 0.0000
# 2 25.3435 178.7104 48.5995 0.0000 0.0000 0.0000
# 3 16.7091 48.5995 101.3782 0.0000 0.0000 0.0000
# 4 0.0000 0.0000 0.0000 40.6914 0.0000 0.0000
# 5 0.0000 0.0000 0.0000 0.0000 60.6033 0.0000
# 6 0.0000 0.0000 0.0000 0.0000 0.0000 15.4646
#
#
#
# Elastic Compliance Matrix: (Units=1/GPa)
#
#
# Indices 1 2 3 4 5 6 
#
# 1 0.009583 -0.001069 -0.001067 0.000000 0.000000 0.000000
# 2 -0.001069 0.006554 -0.002966 0.000000 0.000000 0.000000
# 3 -0.001067 -0.002966 0.011462 0.000000 0.000000 0.000000
# 4 0.000000 0.000000 0.000000 0.024575 0.000000 0.000000
# 5 0.000000 0.000000 0.000000 0.000000 0.016501 0.000000
# 6 0.000000 0.000000 0.000000 0.000000 0.000000 0.064664
#
#
# Mechanical properties :
#
#
# Convention : Reuss Voigt Hill
#
# Bulk Modulus (GPa) = 57.48665 63.38119 60.43392
# Shear Modulus (GPa) = 33.48075 43.25016 38.36545
#
# Velocity S-wave (km/s) = 3.77651 4.29227 4.04262
# Velocity P-wave (km/s) = 6.59575 7.18078 6.89448
#
# Compressibility (1/GPa) = 0.01739534
#
# Stress axis : x y z
#
# Youngs Moduli (GPa) = 104.35059 152.58560 87.24786
#
# Poissons Ratio (x) = 0.16309 0.09310
# Poissons Ratio (y) = 0.11153 0.25874
# Poissons Ratio (z) = 0.11135 0.45251
#
# Static dielectric constant tensor:
#      x y z
#    x 5.089850 0.000000 0.000000 
#    y 0.000000 4.134260 0.000000 
#    z 0.000000 0.000000 6.660260 
# 
# 
# High freq. dielectric constant tensor:
#      x y z
#    x 1.941660 0.000000 0.000000 
#    y 0.000000 1.926200 0.000000 
#    z 0.000000 0.000000 1.939760 
# 
# From -- ./inp_files/10825.got.cif
#   From: 2010.03.12/outbox.cif.g09.slc.cpg/sg68_6_cif.got.tgz:10825.got - 2010.04.10 23:14:56.
