data_PCOD8282119
_publ_section_title
;
Structure prediction by ZEFSAII (Michael W. Deem and Ramdas Pophale) SiO2 
 PCOD8282119
Probable space group: C C C A
;
_chemical_formula_sum "Si O2"
_cell_formula_units_Z 68
_cell_length_a 8.713223
_cell_length_b 23.039849
_cell_length_c 15.326415
_cell_angle_alpha 90.000000
_cell_angle_beta 90.000000
_cell_angle_gamma 90.000000
_cell_volume 3076.798383
_symmetry_space_group_name_H-M "C C C A"
_symmetry_group_IT_number 68
_space_group.IT_coordinate_system_code '2'
_symmetry_cell_setting 'orthorhombic'
loop_
_space_group_symop_operation_xyz
x,y,z
-x,1/2-y,z
x,1/2-y,1/2-z
-x,y,1/2-z
-x,-y,-z
x,1/2+y,-z
-x,1/2+y,1/2+z
x,-y,1/2+z
1/2+x,1/2+y,z
1/2-x,-y,z
1/2+x,-y,1/2-z
1/2-x,1/2+y,1/2-z
1/2-x,1/2-y,-z
1/2+x,y,-z
1/2-x,y,1/2+z
1/2+x,1/2-y,1/2+z
loop_
_atom_site_type_symbol
_atom_site_label
_atom_site_fract_x
_atom_site_fract_y
_atom_site_fract_z
Si Si1 0.163524 0.445033 0.217826
Si Si2 0.781142 0.932635 0.402061
Si Si3 0.948802 0.864174 0.024430
Si Si4 0.334123 0.169312 0.884583
Si Si5 0.500000 0.750000 0.250000
O O1 0.250000 0.500000 0.175625
O O2 0.255970 0.418811 0.299992
O O3 0.140780 0.397332 0.143841
O O4 0.000000 0.468465 0.250000
O O5 0.666366 0.895221 0.458985
O O6 0.954908 0.912876 0.423293
O O7 0.750000 0.000000 0.421523
O O8 0.846106 0.824222 0.090251
O O9 0.058779 0.821046 0.969481
O O10 0.384407 0.212179 0.807998
#
# Coordination Sequence:
#
# PCOD8282119 Si02
#       5
#    16  16  16  16   4
#     4  11  23  39  61  97 137 182 222 271 334 399
#     4  10  20  34  58  91 134 179 216 262 328 394
#     4  10  22  39  60  94 131 169 221 280 325 406
#     4  11  24  43  68  94 132 174 226 273 346 390
#     4  12  24  48  76  94 132 178 226 286 336 420
#
# _framework density 22.100895000000001
#
# number of rings (size 3 to 8) (size 9 to 14) (size 15 to 20)
#    0.000    1.412    3.529    0.706    6.588    4.706 
#    0.000    0.000    0.000   12.706    0.000    0.000 
#    0.000    0.000    0.000    0.000    0.000    0.000 
#
# Total GULP energy -421594.355704 kJ/mol
# GULP energy per Si atom -12399.833991 kJ/mol
# Density = 2.205059 g / cm^3
# Si number density = 22.100895 Si / 1000 Ang^3
#
#
#
# Elastic Constant Matrix: (Units=GPa)
#
#
# Indices 1 2 3 4 5 6 
#
# 1 150.9704 50.1432 49.6923 0.0000 0.0000 0.0000
# 2 50.1432 81.7399 39.1287 0.0000 0.0000 0.0000
# 3 49.6923 39.1287 88.2464 0.0000 0.0000 0.0000
# 4 0.0000 0.0000 0.0000 -4.4821 0.0000 0.0000
# 5 0.0000 0.0000 0.0000 0.0000 36.8641 0.0000
# 6 0.0000 0.0000 0.0000 0.0000 0.0000 20.6093
#
#
#
# Elastic Compliance Matrix: (Units=1/GPa)
#
#
# Indices 1 2 3 4 5 6 
#
# 1 0.009032 -0.003943 -0.003338 0.000000 0.000000 0.000000
# 2 -0.003943 0.017252 -0.005429 0.000000 0.000000 0.000000
# 3 -0.003338 -0.005429 0.015619 0.000000 0.000000 0.000000
# 4 0.000000 0.000000 0.000000 -0.223108 0.000000 0.000000
# 5 0.000000 0.000000 0.000000 0.000000 0.027127 0.000000
# 6 0.000000 0.000000 0.000000 0.000000 0.000000 0.048522
#
#
# Mechanical properties :
#
#
# Convention : Reuss Voigt Hill
#
# Bulk Modulus (GPa) = 60.66921 66.54277 63.60599
# Shear Modulus (GPa) = -66.98480 22.73111 -22.12684
#
# Velocity S-wave (km/s) = -5.51130 3.21053 -3.16757
# Velocity P-wave (km/s) = 3.60397 6.62701 3.93247
#
# Compressibility (1/GPa) = 0.01648283
#
# Stress axis : x y z
#
# Youngs Moduli (GPa) = 110.71708 57.96564 64.02593
#
# Poissons Ratio (x) = 0.22855 0.21370
# Poissons Ratio (y) = 0.43655 0.34760
# Poissons Ratio (z) = 0.36954 0.31470
#
# Static dielectric constant tensor:
#      x y z
#    x 4.472650 0.000000 0.000000 
#    y 0.000000 3.662120 0.000000 
#    z 0.000000 0.000000 4.260280 
# 
# 
# High freq. dielectric constant tensor:
#      x y z
#    x 1.886760 0.000000 0.000000 
#    y 0.000000 1.836820 0.000000 
#    z 0.000000 0.000000 1.877340 
# 
# From -- ./inp_files/19368.got.cif
#   From: 2010.03.12/outbox.cif.g09.slc.cpg/sg68_10_cif.got.tgz:19368.got - 2010.04.10 23:14:56.
