data_PCOD8282324
_publ_section_title
;
Structure prediction by ZEFSAII (Michael W. Deem and Ramdas Pophale) SiO2 
 PCOD8282324
Probable space group: C C C A
;
_chemical_formula_sum "Si O2"
_cell_formula_units_Z 104
_cell_length_a 9.260918
_cell_length_b 27.126128
_cell_length_c 19.700180
_cell_angle_alpha 90.000000
_cell_angle_beta 90.000000
_cell_angle_gamma 90.000000
_cell_volume 4948.938306
_symmetry_space_group_name_H-M "C C C A"
_symmetry_group_IT_number 68
_space_group.IT_coordinate_system_code '2'
_symmetry_cell_setting 'orthorhombic'
loop_
_space_group_symop_operation_xyz
x,y,z
-x,1/2-y,z
x,1/2-y,1/2-z
-x,y,1/2-z
-x,-y,-z
x,1/2+y,-z
-x,1/2+y,1/2+z
x,-y,1/2+z
1/2+x,1/2+y,z
1/2-x,-y,z
1/2+x,-y,1/2-z
1/2-x,1/2+y,1/2-z
1/2-x,1/2-y,-z
1/2+x,y,-z
1/2-x,y,1/2+z
1/2+x,1/2-y,1/2+z
loop_
_atom_site_type_symbol
_atom_site_label
_atom_site_fract_x
_atom_site_fract_y
_atom_site_fract_z
Si Si1 0.000000 0.750000 0.982419
Si Si2 0.954395 0.173978 0.906950
Si Si3 0.862007 0.196196 0.715915
Si Si4 0.640962 0.326015 0.601429
Si Si5 0.694602 0.948615 0.085416
Si Si6 0.598460 0.130254 0.692039
Si Si7 0.943841 0.408355 0.999068
O O1 0.877315 0.773076 0.934142
O O2 0.926737 0.707461 0.026990
O O3 0.801945 0.173664 0.864851
O O4 0.088638 0.196864 0.863853
O O5 0.981097 0.118880 0.934991
O O6 0.841251 0.250000 0.750000
O O7 0.717751 0.165172 0.726408
O O8 0.000000 0.168968 0.750000
O O9 0.509858 0.333524 0.653068
O O10 0.634528 0.368950 0.546290
O O11 0.681469 0.909540 0.146473
O O12 0.818351 0.940802 0.030924
O O13 0.750000 0.000000 0.118487
O O14 0.546171 0.945111 0.042519
O O15 0.500000 0.103808 0.750000
#
# Coordination Sequence:
#
# PCOD8282324 Si02
#       7
#     8  16  16  16  16  16  16
#     4  10  22  30  56  92 124 166 212 258 316 382
#     4  11  20  38  58  86 131 163 214 264 322 380
#     4  11  24  40  61  87 121 174 226 270 308 372
#     4  10  22  37  61  88 128 170 206 259 318 381
#     4  11  22  42  71 100 129 162 206 270 339 405
#     4  11  25  44  63  87 126 171 219 265 313 376
#     4  10  20  38  66  99 129 159 200 262 337 396
#
# _framework density 21.014607999999999
#
# number of rings (size 3 to 8) (size 9 to 14) (size 15 to 20)
#    0.000    1.385    3.077    2.769    0.000    5.231 
#    0.000    1.538    0.000    0.000    0.000    0.000 
#    0.000    0.000    0.000    0.000    0.000    0.000 
#
# Total GULP energy -644355.834615 kJ/mol
# GULP energy per Si atom -12391.458358 kJ/mol
# Density = 2.096678 g / cm^3
# Si number density = 21.014608 Si / 1000 Ang^3
#
#
#
# Elastic Constant Matrix: (Units=GPa)
#
#
# Indices 1 2 3 4 5 6 
#
# 1 118.6291 35.8174 19.8967 0.0000 0.0000 0.0000
# 2 35.8174 71.0482 20.5254 0.0000 0.0000 0.0000
# 3 19.8967 20.5254 65.0794 0.0000 0.0000 0.0000
# 4 0.0000 0.0000 0.0000 12.1615 0.0000 0.0000
# 5 0.0000 0.0000 0.0000 0.0000 31.5201 0.0000
# 6 0.0000 0.0000 0.0000 0.0000 0.0000 21.8487
#
#
#
# Elastic Compliance Matrix: (Units=1/GPa)
#
#
# Indices 1 2 3 4 5 6 
#
# 1 0.010098 -0.004620 -0.001630 0.000000 0.000000 0.000000
# 2 -0.004620 0.017599 -0.004138 0.000000 0.000000 0.000000
# 3 -0.001630 -0.004138 0.017169 0.000000 0.000000 0.000000
# 4 0.000000 0.000000 0.000000 0.082227 0.000000 0.000000
# 5 0.000000 0.000000 0.000000 0.000000 0.031726 0.000000
# 6 0.000000 0.000000 0.000000 0.000000 0.000000 0.045769
#
#
# Mechanical properties :
#
#
# Convention : Reuss Voigt Hill
#
# Bulk Modulus (GPa) = 41.51046 45.24840 43.37943
# Shear Modulus (GPa) = 21.42291 25.00720 23.21506
#
# Velocity S-wave (km/s) = 3.19631 3.45337 3.32732
# Velocity P-wave (km/s) = 5.78082 6.12206 5.95389
#
# Compressibility (1/GPa) = 0.02409031
#
# Stress axis : x y z
#
# Youngs Moduli (GPa) = 99.03097 56.82017 58.24302
#
# Poissons Ratio (x) = 0.26249 0.09495
# Poissons Ratio (y) = 0.45749 0.24103
# Poissons Ratio (z) = 0.16144 0.23514
#
# Static dielectric constant tensor:
#      x y z
#    x 3.943500 0.000000 0.000000 
#    y 0.000000 3.692490 0.000000 
#    z 0.000000 0.000000 3.913580 
# 
# 
# High freq. dielectric constant tensor:
#      x y z
#    x 1.839120 0.000000 0.000000 
#    y 0.000000 1.791020 0.000000 
#    z 0.000000 0.000000 1.825000 
# 
# From -- ./inp_files/36555.got.cif
#   From: 2010.03.12/outbox.cif.g09.slc.cpg/sg68_19_cif.got.tgz:36555.got - 2010.04.10 23:14:56.
