data_PCOD8282040
_publ_section_title
;
Structure prediction by ZEFSAII (Michael W. Deem and Ramdas Pophale) SiO2 
 PCOD8282040
Probable space group: C C C A
;
_chemical_formula_sum "Si O2"
_cell_formula_units_Z 104
_cell_length_a 16.619819
_cell_length_b 15.365751
_cell_length_c 19.641203
_cell_angle_alpha 90.000000
_cell_angle_beta 90.000000
_cell_angle_gamma 90.000000
_cell_volume 5015.891866
_symmetry_space_group_name_H-M "C C C A"
_symmetry_group_IT_number 68
_space_group.IT_coordinate_system_code '2'
_symmetry_cell_setting 'orthorhombic'
loop_
_space_group_symop_operation_xyz
x,y,z
-x,1/2-y,z
x,1/2-y,1/2-z
-x,y,1/2-z
-x,-y,-z
x,1/2+y,-z
-x,1/2+y,1/2+z
x,-y,1/2+z
1/2+x,1/2+y,z
1/2-x,-y,z
1/2+x,-y,1/2-z
1/2-x,1/2+y,1/2-z
1/2-x,1/2-y,-z
1/2+x,y,-z
1/2-x,y,1/2+z
1/2+x,1/2-y,1/2+z
loop_
_atom_site_type_symbol
_atom_site_label
_atom_site_fract_x
_atom_site_fract_y
_atom_site_fract_z
Si Si1 0.669318 0.045849 0.655363
Si Si2 0.680412 0.223747 0.408030
Si Si3 0.578016 0.412151 0.718372
Si Si4 0.000000 0.750000 0.640677
Si Si5 0.844182 0.696798 0.936863
Si Si6 0.582581 0.121892 0.162466
Si Si7 0.402667 0.094899 0.180649
O O1 0.638866 0.106927 0.718701
O O2 0.686001 0.102426 0.588109
O O3 0.750000 0.000000 0.681088
O O4 0.605113 0.972939 0.633419
O O5 0.776927 0.235891 0.409700
O O6 0.647241 0.202789 0.482727
O O7 0.631755 0.305364 0.378206
O O8 0.668219 0.139300 0.361728
O O9 0.500000 0.460811 0.750000
O O10 0.547009 0.322747 0.684979
O O11 0.610087 0.490023 0.669800
O O12 0.067364 0.708462 0.593609
O O13 0.487094 0.133141 0.152339
O O14 0.608223 0.124157 0.241439
#
# Coordination Sequence:
#
# PCOD8282040 Si02
#       7
#    16  16  16   8  16  16  16
#     4  11  21  41  68  94 127 174 218 276 340 394
#     4  11  24  42  61  94 135 173 223 271 320 408
#     4  11  21  41  64  96 130 161 218 269 323 396
#     4  12  25  44  68  92 135 184 212 278 331 394
#     4  11  26  43  60  96 133 179 226 259 334 407
#     4  10  19  38  68  96 123 163 217 280 343 396
#     4  10  20  39  66 100 126 156 218 283 338 386
#
# _framework density 20.734099000000001
#
# number of rings (size 3 to 8) (size 9 to 14) (size 15 to 20)
#    0.000    1.231    6.154    1.154    2.154    3.692 
#    5.538    1.538    0.000    0.000    0.000    0.000 
#    0.000    0.000    0.000    0.000    0.000    0.000 
#
# Total GULP energy -644506.278612 kJ/mol
# GULP energy per Si atom -12394.351512 kJ/mol
# Density = 2.068691 g / cm^3
# Si number density = 20.734099 Si / 1000 Ang^3
#
#
#
# Elastic Constant Matrix: (Units=GPa)
#
#
# Indices 1 2 3 4 5 6 
#
# 1 67.8834 20.9727 46.3486 0.0000 0.0000 0.0000
# 2 20.9727 120.9335 68.5340 0.0000 0.0000 0.0000
# 3 46.3486 68.5340 111.5979 0.0000 0.0000 0.0000
# 4 0.0000 0.0000 0.0000 5.0087 0.0000 0.0000
# 5 0.0000 0.0000 0.0000 0.0000 28.1408 0.0000
# 6 0.0000 0.0000 0.0000 0.0000 0.0000 32.0749
#
#
#
# Elastic Compliance Matrix: (Units=1/GPa)
#
#
# Indices 1 2 3 4 5 6 
#
# 1 0.020867 0.001982 -0.009884 0.000000 0.000000 0.000000
# 2 0.001982 0.012871 -0.008728 0.000000 0.000000 0.000000
# 3 -0.009884 -0.008728 0.018426 0.000000 0.000000 0.000000
# 4 0.000000 0.000000 0.000000 0.199651 0.000000 0.000000
# 5 0.000000 0.000000 0.000000 0.000000 0.035536 0.000000
# 6 0.000000 0.000000 0.000000 0.000000 0.000000 0.031177
#
#
# Mechanical properties :
#
#
# Convention : Reuss Voigt Hill
#
# Bulk Modulus (GPa) = 52.89488 63.56949 58.23219
# Shear Modulus (GPa) = 13.96303 24.01552 18.98928
#
# Velocity S-wave (km/s) = 2.59787 3.40702 3.02958
# Velocity P-wave (km/s) = 5.87920 6.79728 6.35484
#
# Compressibility (1/GPa) = 0.01890542
#
# Stress axis : x y z
#
# Youngs Moduli (GPa) = 47.92236 77.69194 54.27224
#
# Poissons Ratio (x) = -0.15402 0.53642
# Poissons Ratio (y) = -0.09500 0.47368
# Poissons Ratio (z) = 0.47366 0.67808
#
# Static dielectric constant tensor:
#      x y z
#    x 3.983660 0.000000 0.000000 
#    y 0.000000 3.799550 0.000000 
#    z 0.000000 0.000000 3.583350 
# 
# 
# High freq. dielectric constant tensor:
#      x y z
#    x 1.821580 0.000000 0.000000 
#    y 0.000000 1.817560 0.000000 
#    z 0.000000 0.000000 1.787720 
# 
# From -- ./inp_files/39637.got.cif
#   From: 2010.03.12/outbox.cif.g09.slc.cpg/sg68_20_cif.got.tgz:39637.got - 2010.04.10 23:14:56.
