data_PCOD8282802
_publ_section_title
;
Structure prediction by ZEFSAII (Michael W. Deem and Ramdas Pophale) SiO2 
 PCOD8282802
Probable space group: C C C A
;
_chemical_formula_sum "Si O2"
_cell_formula_units_Z 96
_cell_length_a 21.000992
_cell_length_b 28.436249
_cell_length_c 8.683810
_cell_angle_alpha 90.000000
_cell_angle_beta 90.000000
_cell_angle_gamma 90.000000
_cell_volume 5185.879612
_symmetry_space_group_name_H-M "C C C A"
_symmetry_group_IT_number 68
_space_group.IT_coordinate_system_code '2'
_symmetry_cell_setting 'orthorhombic'
loop_
_space_group_symop_operation_xyz
x,y,z
-x,1/2-y,z
x,1/2-y,1/2-z
-x,y,1/2-z
-x,-y,-z
x,1/2+y,-z
-x,1/2+y,1/2+z
x,-y,1/2+z
1/2+x,1/2+y,z
1/2-x,-y,z
1/2+x,-y,1/2-z
1/2-x,1/2+y,1/2-z
1/2-x,1/2-y,-z
1/2+x,y,-z
1/2-x,y,1/2+z
1/2+x,1/2-y,1/2+z
loop_
_atom_site_type_symbol
_atom_site_label
_atom_site_fract_x
_atom_site_fract_y
_atom_site_fract_z
Si Si1 0.399025 0.110827 0.589253
Si Si2 0.159706 0.037446 0.281954
Si Si3 0.584448 0.250000 0.750000
Si Si4 0.545582 0.028876 0.114518
Si Si5 0.250000 0.000000 0.024890
Si Si6 0.500000 0.168932 0.750000
Si Si7 0.727398 0.250000 0.250000
Si Si8 0.824477 0.798904 0.966497
O O1 0.371263 0.088342 0.748270
O O2 0.417233 0.071678 0.464583
O O3 0.465106 0.136992 0.624465
O O4 0.344452 0.146243 0.528705
O O5 0.196002 0.024958 0.123945
O O6 0.101138 0.002873 0.313538
O O7 0.212135 0.037895 0.418170
O O8 0.548563 0.205735 0.671135
O O9 0.620015 0.232734 0.899920
O O10 0.500000 0.048198 0.250000
O O11 0.500000 0.000000 0.000000
O O12 0.765259 0.287897 0.145782
O O13 0.685894 0.283235 0.358804
#
# Coordination Sequence:
#
# PCOD8282802 Si02
#       8
#    16  16   8  16   8   8   8  16
#     4  11  21  35  58  88 110 144 207 231 279 350
#     4  11  21  38  57  81 113 158 192 240 294 335
#     4   8  16  35  58  80 112 147 178 226 304 342
#     4  12  22  39  61  82 119 161 194 245 298 343
#     4  10  22  38  56  74 112 158 192 234 292 340
#     4   9  18  34  58  82 112 146 184 242 282 351
#     4   9  18  39  60  80 114 149 172 235 302 330
#     4   9  19  35  60  84 110 144 188 227 282 356
#
# _framework density 18.511806
#
# number of rings (size 3 to 8) (size 9 to 14) (size 15 to 20)
#    0.000    1.833    3.333    1.000    0.000    1.333 
#    3.000    0.000    3.667    0.000    0.000    0.000 
#    0.000    0.000    0.000    0.000    0.000    0.000 
#
# Total GULP energy -594647.671677 kJ/mol
# GULP energy per Si atom -12388.493160 kJ/mol
# Density = 1.846967 g / cm^3
# Si number density = 18.511806 Si / 1000 Ang^3
#
#
#
# Elastic Constant Matrix: (Units=GPa)
#
#
# Indices 1 2 3 4 5 6 
#
# 1 111.4826 59.5830 56.1044 0.0000 0.0000 0.0000
# 2 59.5830 131.3583 56.5517 0.0000 0.0000 0.0000
# 3 56.1044 56.5517 111.9900 0.0000 0.0000 0.0000
# 4 0.0000 0.0000 0.0000 28.7015 0.0000 0.0000
# 5 0.0000 0.0000 0.0000 0.0000 35.7844 0.0000
# 6 0.0000 0.0000 0.0000 0.0000 0.0000 20.2918
#
#
#
# Elastic Compliance Matrix: (Units=1/GPa)
#
#
# Indices 1 2 3 4 5 6 
#
# 1 0.013536 -0.004115 -0.004703 0.000000 0.000000 0.000000
# 2 -0.004115 0.010979 -0.003482 0.000000 0.000000 0.000000
# 3 -0.004703 -0.003482 0.013044 0.000000 0.000000 0.000000
# 4 0.000000 0.000000 0.000000 0.034841 0.000000 0.000000
# 5 0.000000 0.000000 0.000000 0.000000 0.027945 0.000000
# 6 0.000000 0.000000 0.000000 0.000000 0.000000 0.049281
#
#
# Mechanical properties :
#
#
# Convention : Reuss Voigt Hill
#
# Bulk Modulus (GPa) = 77.17560 77.70102 77.43831
# Shear Modulus (GPa) = 28.00378 29.12831 28.56604
#
# Velocity S-wave (km/s) = 3.89363 3.97104 3.93253
# Velocity P-wave (km/s) = 7.87364 7.94295 7.90837
#
# Compressibility (1/GPa) = 0.01295746
#
# Stress axis : x y z
#
# Youngs Moduli (GPa) = 73.87494 91.08707 76.66301
#
# Poissons Ratio (x) = 0.37483 0.36058
# Poissons Ratio (y) = 0.30400 0.26696
# Poissons Ratio (z) = 0.34746 0.31719
#
# Static dielectric constant tensor:
#      x y z
#    x 3.824890 0.000000 0.000000 
#    y 0.000000 4.031550 0.000000 
#    z 0.000000 0.000000 3.351860 
# 
# 
# High freq. dielectric constant tensor:
#      x y z
#    x 1.738590 0.000000 0.000000 
#    y 0.000000 1.712340 0.000000 
#    z 0.000000 0.000000 1.707090 
# 
# From -- ./inp_files/8278.got.cif
#   From: 2010.03.12/outbox.cif.g09.slc.cpg/sg68_5_cif.got.tgz:8278.got - 2010.04.10 23:14:56.
