data_PCOD8282320
_publ_section_title
;
Structure prediction by ZEFSAII (Michael W. Deem and Ramdas Pophale) SiO2 
 PCOD8282320
Probable space group: C C C A
;
_chemical_formula_sum "Si O2"
_cell_formula_units_Z 120
_cell_length_a 21.851228
_cell_length_b 23.220268
_cell_length_c 11.226232
_cell_angle_alpha 90.000000
_cell_angle_beta 90.000000
_cell_angle_gamma 90.000000
_cell_volume 5696.093238
_symmetry_space_group_name_H-M "C C C A"
_symmetry_group_IT_number 68
_space_group.IT_coordinate_system_code '2'
_symmetry_cell_setting 'orthorhombic'
loop_
_space_group_symop_operation_xyz
x,y,z
-x,1/2-y,z
x,1/2-y,1/2-z
-x,y,1/2-z
-x,-y,-z
x,1/2+y,-z
-x,1/2+y,1/2+z
x,-y,1/2+z
1/2+x,1/2+y,z
1/2-x,-y,z
1/2+x,-y,1/2-z
1/2-x,1/2+y,1/2-z
1/2-x,1/2-y,-z
1/2+x,y,-z
1/2-x,y,1/2+z
1/2+x,1/2-y,1/2+z
loop_
_atom_site_type_symbol
_atom_site_label
_atom_site_fract_x
_atom_site_fract_y
_atom_site_fract_z
Si Si1 0.197318 0.750000 0.250000
Si Si2 0.153330 0.155933 0.590549
Si Si3 0.646193 0.077871 0.186765
Si Si4 0.551499 0.361538 0.905496
Si Si5 0.931729 0.970796 0.743251
Si Si6 0.738515 0.644041 0.378505
Si Si7 0.865180 0.685323 0.732084
Si Si8 0.917410 0.116746 0.454153
O O1 0.155537 0.716762 0.343584
O O2 0.234262 0.796006 0.329571
O O3 0.141903 0.105777 0.684365
O O4 0.094523 0.159187 0.510122
O O5 0.216863 0.146492 0.516515
O O6 0.715655 0.089322 0.138442
O O7 0.624657 0.012615 0.209330
O O8 0.599813 0.103678 0.089463
O O9 0.563081 0.427204 0.867015
O O10 0.566959 0.321381 0.790633
O O11 0.483415 0.353559 0.952682
O O12 0.915619 0.939468 0.868486
O O13 0.000000 0.000661 0.750000
O O14 0.677515 0.637681 0.298176
O O15 0.840005 0.750000 0.750000
O O16 0.869709 0.665568 0.594493
#
# Coordination Sequence:
#
# PCOD8282320 Si02
#       8
#     8  16  16  16  16  16  16  16
#     4  10  20  38  66  95 115 176 218 256 312 376
#     4  10  23  39  61  93 132 158 216 260 323 381
#     4  11  25  36  67  91 121 168 209 264 324 377
#     4   9  21  41  64  95 131 164 204 270 309 381
#     4   9  21  42  68  94 122 167 218 260 315 380
#     4  10  22  41  64  90 122 167 219 267 305 375
#     4  10  20  39  68  92 121 169 215 265 306 365
#     4  10  23  40  64  97 128 159 219 256 315 390
#
# _framework density 21.067070999999999
#
# number of rings (size 3 to 8) (size 9 to 14) (size 15 to 20)
#    0.000    2.133    0.667    1.600    7.467    6.400 
#    0.000    6.000    0.000    3.200    0.000    0.000 
#    0.000    0.000    0.000    0.000    0.000    0.000 
#
# Total GULP energy -743300.002850 kJ/mol
# GULP energy per Si atom -12388.333381 kJ/mol
# Density = 2.101912 g / cm^3
# Si number density = 21.067071 Si / 1000 Ang^3
#
#
#
# Elastic Constant Matrix: (Units=GPa)
#
#
# Indices 1 2 3 4 5 6 
#
# 1 104.1217 37.5250 32.0508 0.0000 0.0000 0.0000
# 2 37.5250 76.1403 28.9461 0.0000 0.0000 0.0000
# 3 32.0508 28.9461 107.7979 0.0000 0.0000 0.0000
# 4 0.0000 0.0000 0.0000 29.3937 0.0000 0.0000
# 5 0.0000 0.0000 0.0000 0.0000 24.7858 0.0000
# 6 0.0000 0.0000 0.0000 0.0000 0.0000 -115.4202
#
#
#
# Elastic Compliance Matrix: (Units=1/GPa)
#
#
# Indices 1 2 3 4 5 6 
#
# 1 0.012142 -0.005136 -0.002231 0.000000 0.000000 0.000000
# 2 -0.005136 0.016799 -0.002984 0.000000 0.000000 0.000000
# 3 -0.002231 -0.002984 0.010741 0.000000 0.000000 0.000000
# 4 0.000000 0.000000 0.000000 0.034021 0.000000 0.000000
# 5 0.000000 0.000000 0.000000 0.000000 0.040346 0.000000
# 6 0.000000 0.000000 0.000000 0.000000 0.000000 -0.008664
#
#
# Mechanical properties :
#
#
# Convention : Reuss Voigt Hill
#
# Bulk Modulus (GPa) = 52.68506 53.90042 53.29274
# Shear Modulus (GPa) = 37.76063 0.38774 19.07418
#
# Velocity S-wave (km/s) = 4.23827 0.42947 3.01226
# Velocity P-wave (km/s) = 7.00094 5.08789 6.11963
#
# Compressibility (1/GPa) = 0.01898071
#
# Stress axis : x y z
#
# Youngs Moduli (GPa) = 82.36003 59.52673 93.09952
#
# Poissons Ratio (x) = 0.30572 0.20770
# Poissons Ratio (y) = 0.42299 0.27780
# Poissons Ratio (z) = 0.18374 0.17762
#
# Static dielectric constant tensor:
#      x y z
#    x 4.036040 0.000000 0.000000 
#    y 0.000000 3.591010 0.000000 
#    z 0.000000 0.000000 3.928130 
# 
# 
# High freq. dielectric constant tensor:
#      x y z
#    x 1.831500 0.000000 0.000000 
#    y 0.000000 1.799650 0.000000 
#    z 0.000000 0.000000 1.833230 
# 
# From -- ./inp_files/15817.got.cif
#   From: 2010.03.12/outbox.cif.g09.slc.cpg/sg68_8_cif.got.tgz:15817.got - 2010.04.10 23:14:56.
