data_PCOD8282814
_publ_section_title
;
Structure prediction by ZEFSAII (Michael W. Deem and Ramdas Pophale) SiO2 
 PCOD8282814
Probable space group: C C C A
;
_chemical_formula_sum "Si O2"
_cell_formula_units_Z 64
_cell_length_a 23.279601
_cell_length_b 8.762875
_cell_length_c 14.204655
_cell_angle_alpha 90.000000
_cell_angle_beta 90.000000
_cell_angle_gamma 90.000000
_cell_volume 2897.696120
_symmetry_space_group_name_H-M "C C C A"
_symmetry_group_IT_number 68
_space_group.IT_coordinate_system_code '2'
_symmetry_cell_setting 'orthorhombic'
loop_
_space_group_symop_operation_xyz
x,y,z
-x,1/2-y,z
x,1/2-y,1/2-z
-x,y,1/2-z
-x,-y,-z
x,1/2+y,-z
-x,1/2+y,1/2+z
x,-y,1/2+z
1/2+x,1/2+y,z
1/2-x,-y,z
1/2+x,-y,1/2-z
1/2-x,1/2+y,1/2-z
1/2-x,1/2-y,-z
1/2+x,y,-z
1/2-x,y,1/2+z
1/2+x,1/2-y,1/2+z
loop_
_atom_site_type_symbol
_atom_site_label
_atom_site_fract_x
_atom_site_fract_y
_atom_site_fract_z
Si Si1 0.375305 0.943713 0.945952
Si Si2 0.626533 0.117305 0.369337
Si Si3 0.433558 0.584357 0.224900
Si Si4 0.225710 0.750000 0.250000
Si Si5 0.250000 0.000000 0.375830
O O1 0.394456 0.771136 0.921952
O O2 0.306904 0.965229 0.933448
O O3 0.416183 0.054014 0.883979
O O4 0.380847 0.980077 0.056062
O O5 0.688594 0.148128 0.323380
O O6 0.589409 0.062831 0.281062
O O7 0.406459 0.750000 0.250000
O O8 0.500000 0.590488 0.250000
O O9 0.266956 0.642488 0.189955
#
# Coordination Sequence:
#
# PCOD8282814 Si02
#       5
#    16  16  16   8   8
#     4  11  24  40  65  99 130 175 219 266 327 392
#     4  11  22  44  64  97 134 168 221 264 328 387
#     4  11  24  44  68  95 129 172 220 276 331 386
#     4  10  22  40  63  96 131 176 214 262 326 394
#     4  10  22  38  62  98 128 176 214 260 326 386
#
# _framework density 22.086513
#
# number of rings (size 3 to 8) (size 9 to 14) (size 15 to 20)
#    0.000    1.250    5.000    1.500    1.750   10.000 
#    0.000    0.000    0.000    0.000    0.000    0.000 
#    0.000    0.000    0.000    0.000    0.000    0.000 
#
# Total GULP energy -396434.129389 kJ/mol
# GULP energy per Si atom -12388.566543 kJ/mol
# Density = 2.203624 g / cm^3
# Si number density = 22.086513 Si / 1000 Ang^3
#
#
#
# Elastic Constant Matrix: (Units=GPa)
#
#
# Indices 1 2 3 4 5 6 
#
# 1 49.6433 6.9596 1.2988 0.0000 0.0000 0.0000
# 2 6.9596 95.8046 12.1742 0.0000 0.0000 0.0000
# 3 1.2988 12.1742 98.6928 0.0000 0.0000 0.0000
# 4 0.0000 0.0000 0.0000 43.3534 0.0000 0.0000
# 5 0.0000 0.0000 0.0000 0.0000 -10.9108 0.0000
# 6 0.0000 0.0000 0.0000 0.0000 0.0000 28.1699
#
#
#
# Elastic Compliance Matrix: (Units=1/GPa)
#
#
# Indices 1 2 3 4 5 6 
#
# 1 0.020352 -0.001467 -0.000087 0.000000 0.000000 0.000000
# 2 -0.001467 0.010710 -0.001302 0.000000 0.000000 0.000000
# 3 -0.000087 -0.001302 0.010294 0.000000 0.000000 0.000000
# 4 0.000000 0.000000 0.000000 0.023066 0.000000 0.000000
# 5 0.000000 0.000000 0.000000 0.000000 -0.091652 0.000000
# 6 0.000000 0.000000 0.000000 0.000000 0.000000 0.035499
#
#
# Mechanical properties :
#
#
# Convention : Reuss Voigt Hill
#
# Bulk Modulus (GPa) = 28.05538 31.66731 29.86135
# Shear Modulus (GPa) = 193.33278 27.03638 110.18458
#
# Velocity S-wave (km/s) = 9.36613 3.50253 7.07079
# Velocity P-wave (km/s) = 11.38841 5.54310 8.95605
#
# Compressibility (1/GPa) = 0.03564378
#
# Stress axis : x y z
#
# Youngs Moduli (GPa) = 49.13600 93.37132 97.14231
#
# Poissons Ratio (x) = 0.13701 0.00843
# Poissons Ratio (y) = 0.07210 0.12646
# Poissons Ratio (z) = 0.00427 0.12155
#
# Static dielectric constant tensor:
#      x y z
#    x 3.773900 0.000000 0.000000 
#    y 0.000000 4.836200 0.000000 
#    z 0.000000 0.000000 4.093900 
# 
# 
# High freq. dielectric constant tensor:
#      x y z
#    x 1.837250 0.000000 0.000000 
#    y 0.000000 1.888920 0.000000 
#    z 0.000000 0.000000 1.876500 
# 
# From -- ./inp_files/19254.got.cif
#   From: 2010.03.12/outbox.cif.g09.slc.cpg/sg68_10_cif.got.tgz:19254.got - 2010.04.10 23:14:56.
