data_PCOD8282557
_publ_section_title
;
Structure prediction by ZEFSAII (Michael W. Deem and Ramdas Pophale) SiO2 
 PCOD8282557
Probable space group: C C C A
;
_chemical_formula_sum "Si O2"
_cell_formula_units_Z 64
_cell_length_a 5.215491
_cell_length_b 15.325868
_cell_length_c 34.403381
_cell_angle_alpha 90.000000
_cell_angle_beta 90.000000
_cell_angle_gamma 90.000000
_cell_volume 2749.928526
_symmetry_space_group_name_H-M "C C C A"
_symmetry_group_IT_number 68
_space_group.IT_coordinate_system_code '2'
_symmetry_cell_setting 'orthorhombic'
loop_
_space_group_symop_operation_xyz
x,y,z
-x,1/2-y,z
x,1/2-y,1/2-z
-x,y,1/2-z
-x,-y,-z
x,1/2+y,-z
-x,1/2+y,1/2+z
x,-y,1/2+z
1/2+x,1/2+y,z
1/2-x,-y,z
1/2+x,-y,1/2-z
1/2-x,1/2+y,1/2-z
1/2-x,1/2-y,-z
1/2+x,y,-z
1/2-x,y,1/2+z
1/2+x,1/2-y,1/2+z
loop_
_atom_site_type_symbol
_atom_site_label
_atom_site_fract_x
_atom_site_fract_y
_atom_site_fract_z
Si Si1 0.251569 0.152791 0.266867
Si Si2 0.746715 0.397579 0.853007
Si Si3 0.579696 0.347430 0.516840
Si Si4 0.749445 0.602106 0.099775
O O1 0.250466 0.250000 0.250000
O O2 0.500000 0.102495 0.250000
O O3 0.267443 0.155693 0.313267
O O4 0.000000 0.103736 0.250000
O O5 0.750000 0.500000 0.843659
O O6 0.475162 0.371198 0.870949
O O7 0.977913 0.369840 0.881864
O O8 0.500000 0.250000 0.502851
O O9 0.300303 0.393663 0.510494
O O10 0.689998 0.346881 0.560266
O O11 0.750000 0.500000 0.090231
#
# Coordination Sequence:
#
# PCOD8282557 Si02
#       4
#    16  16  16  16
#     4  10  21  38  56  81 115 147 187 246 284 352
#     4  10  21  38  59  83 117 153 193 242 295 349
#     4  10  21  38  58  84 120 155 195 238 289 346
#     4  10  21  38  59  88 117 151 198 242 289 350
#
# _framework density 23.273330999999999
#
# number of rings (size 3 to 8) (size 9 to 14) (size 15 to 20)
#    0.000    2.000    0.000    3.000    0.000    2.000 
#   13.500    0.000    0.000    0.000    0.000    0.000 
#    0.000    0.000    0.000    0.000    0.000    0.000 
#
# Total GULP energy -396569.581173 kJ/mol
# GULP energy per Si atom -12392.799412 kJ/mol
# Density = 2.322036 g / cm^3
# Si number density = 23.273331 Si / 1000 Ang^3
#
#
#
# Elastic Constant Matrix: (Units=GPa)
#
#
# Indices 1 2 3 4 5 6 
#
# 1 234.3838 18.7214 67.5348 0.0000 0.0000 0.0000
# 2 18.7214 27.5071 29.1001 0.0000 0.0000 0.0000
# 3 67.5348 29.1001 159.3804 0.0000 0.0000 0.0000
# 4 0.0000 0.0000 0.0000 17.3120 0.0000 0.0000
# 5 0.0000 0.0000 0.0000 0.0000 48.9987 0.0000
# 6 0.0000 0.0000 0.0000 0.0000 0.0000 8.0448
#
#
#
# Elastic Compliance Matrix: (Units=1/GPa)
#
#
# Indices 1 2 3 4 5 6 
#
# 1 0.004904 -0.001412 -0.001820 0.000000 0.000000 0.000000
# 2 -0.001412 0.045464 -0.007703 0.000000 0.000000 0.000000
# 3 -0.001820 -0.007703 0.008452 0.000000 0.000000 0.000000
# 4 0.000000 0.000000 0.000000 0.057764 0.000000 0.000000
# 5 0.000000 0.000000 0.000000 0.000000 0.020409 0.000000
# 6 0.000000 0.000000 0.000000 0.000000 0.000000 0.124303
#
#
# Mechanical properties :
#
#
# Convention : Reuss Voigt Hill
#
# Bulk Modulus (GPa) = 27.06347 72.44266 49.75306
# Shear Modulus (GPa) = 16.92156 35.26544 26.09350
#
# Velocity S-wave (km/s) = 2.69937 3.89687 3.35203
# Velocity P-wave (km/s) = 4.62268 7.17231 6.03370
#
# Compressibility (1/GPa) = 0.03695018
#
# Stress axis : x y z
#
# Youngs Moduli (GPa) = 203.92680 21.99545 118.31692
#
# Poissons Ratio (x) = 0.03106 0.21534
# Poissons Ratio (y) = 0.28795 0.91135
# Poissons Ratio (z) = 0.37116 0.16942
#
# Static dielectric constant tensor:
#      x y z
#    x -0.761910 0.000000 0.000000 
#    y 0.000000 3.687180 0.000000 
#    z 0.000000 0.000000 3.938120 
# 
# 
# High freq. dielectric constant tensor:
#      x y z
#    x 1.963080 0.000000 0.000000 
#    y 0.000000 1.876760 0.000000 
#    z 0.000000 0.000000 1.919880 
# 
# From -- ./inp_files/48092.got.cif
#   From: 2010.03.12/outbox.cif.g09.slc.cpg/sg68_25_cif.got.tgz:48092.got - 2010.04.10 23:14:56.
