data_PCOD8282495
_publ_section_title
;
Structure prediction by ZEFSAII (Michael W. Deem and Ramdas Pophale) SiO2 
 PCOD8282495
Probable space group: C C C A
;
_chemical_formula_sum "Si O2"
_cell_formula_units_Z 72
_cell_length_a 17.968978
_cell_length_b 8.963540
_cell_length_c 22.758782
_cell_angle_alpha 90.000000
_cell_angle_beta 90.000000
_cell_angle_gamma 90.000000
_cell_volume 3665.658086
_symmetry_space_group_name_H-M "C C C A"
_symmetry_group_IT_number 68
_space_group.IT_coordinate_system_code '2'
_symmetry_cell_setting 'orthorhombic'
loop_
_space_group_symop_operation_xyz
x,y,z
-x,1/2-y,z
x,1/2-y,1/2-z
-x,y,1/2-z
-x,-y,-z
x,1/2+y,-z
-x,1/2+y,1/2+z
x,-y,1/2+z
1/2+x,1/2+y,z
1/2-x,-y,z
1/2+x,-y,1/2-z
1/2-x,1/2+y,1/2-z
1/2-x,1/2-y,-z
1/2+x,y,-z
1/2-x,y,1/2+z
1/2+x,1/2-y,1/2+z
loop_
_atom_site_type_symbol
_atom_site_label
_atom_site_fract_x
_atom_site_fract_y
_atom_site_fract_z
Si Si1 0.636012 0.734794 0.920772
Si Si2 0.500000 0.250000 0.339942
Si Si3 0.835201 0.461560 0.028059
Si Si4 0.280818 0.163569 0.638851
Si Si5 0.500000 0.994730 0.250000
Si Si6 0.124189 0.250000 0.250000
O O1 0.569911 0.700449 0.877345
O O2 0.712216 0.733573 0.882880
O O3 0.620926 0.889175 0.954933
O O4 0.631666 0.605682 0.969170
O O5 0.520711 0.102323 0.303724
O O6 0.750000 0.500000 0.015701
O O7 0.838417 0.348991 0.084018
O O8 0.322677 0.236243 0.693579
O O9 0.250000 0.000000 0.656352
O O10 0.572886 0.894348 0.239260
#
# Coordination Sequence:
#
# PCOD8282495 Si02
#       6
#    16   8  16  16   8   8
#     4  10  21  36  58  83 115 153 191 233 287 344
#     4  11  24  42  56  80 122 163 192 238 298 341
#     4   9  18  36  57  84 115 144 183 241 292 335
#     4   9  19  36  59  88 116 143 187 241 290 342
#     4  10  24  42  58  82 122 154 188 246 298 330
#     4  11  22  40  66  89 110 152 202 239 280 352
#
# _framework density 19.641767999999999
#
# number of rings (size 3 to 8) (size 9 to 14) (size 15 to 20)
#    0.000    2.667    0.000    5.333    0.000    8.000 
#    0.000    2.222    0.000    0.000    0.000    0.000 
#    0.000    0.000    0.000    0.000    0.000    0.000 
#
# Total GULP energy -446286.596524 kJ/mol
# GULP energy per Si atom -12396.849903 kJ/mol
# Density = 1.959706 g / cm^3
# Si number density = 19.641768 Si / 1000 Ang^3
#
#
#
# Elastic Constant Matrix: (Units=GPa)
#
#
# Indices 1 2 3 4 5 6 
#
# 1 64.1551 34.6101 60.5024 0.0000 0.0000 0.0000
# 2 34.6101 79.0586 56.2997 0.0000 0.0000 0.0000
# 3 60.5024 56.2997 153.0146 0.0000 0.0000 0.0000
# 4 0.0000 0.0000 0.0000 31.2915 0.0000 0.0000
# 5 0.0000 0.0000 0.0000 0.0000 21.7040 0.0000
# 6 0.0000 0.0000 0.0000 0.0000 0.0000 22.6945
#
#
#
# Elastic Compliance Matrix: (Units=1/GPa)
#
#
# Indices 1 2 3 4 5 6 
#
# 1 0.026583 -0.005626 -0.008441 0.000000 0.000000 0.000000
# 2 -0.005626 0.018331 -0.004520 0.000000 0.000000 0.000000
# 3 -0.008441 -0.004520 0.011536 0.000000 0.000000 0.000000
# 4 0.000000 0.000000 0.000000 0.031958 0.000000 0.000000
# 5 0.000000 0.000000 0.000000 0.000000 0.046074 0.000000
# 6 0.000000 0.000000 0.000000 0.000000 0.000000 0.044064
#
#
# Mechanical properties :
#
#
# Convention : Reuss Voigt Hill
#
# Bulk Modulus (GPa) = 51.88009 66.56142 59.22075
# Shear Modulus (GPa) = 22.50794 24.79240 23.65017
#
# Velocity S-wave (km/s) = 3.38882 3.55664 3.47374
# Velocity P-wave (km/s) = 6.46395 7.12934 6.80478
#
# Compressibility (1/GPa) = 0.01927522
#
# Stress axis : x y z
#
# Youngs Moduli (GPa) = 37.61844 54.55339 86.68668
#
# Poissons Ratio (x) = 0.30694 0.73170
# Poissons Ratio (y) = 0.21166 0.39181
# Poissons Ratio (z) = 0.31753 0.24657
#
# Static dielectric constant tensor:
#      x y z
#    x 3.348490 0.000000 0.000000 
#    y 0.000000 3.580040 0.000000 
#    z 0.000000 0.000000 3.738600 
# 
# 
# High freq. dielectric constant tensor:
#      x y z
#    x 1.745620 0.000000 0.000000 
#    y 0.000000 1.762410 0.000000 
#    z 0.000000 0.000000 1.775740 
# 
# From -- ./inp_files/36088.got.cif
#   From: 2010.03.12/outbox.cif.g09.slc.cpg/sg68_19_cif.got.tgz:36088.got - 2010.04.10 23:14:56.
