data_PCOD8282227
_publ_section_title
;
Structure prediction by ZEFSAII (Michael W. Deem and Ramdas Pophale) SiO2 
 PCOD8282227
Probable space group: C C C A
;
_chemical_formula_sum "Si O2"
_cell_formula_units_Z 116
_cell_length_a 27.956010
_cell_length_b 11.912652
_cell_length_c 16.751325
_cell_angle_alpha 90.000000
_cell_angle_beta 90.000000
_cell_angle_gamma 90.000000
_cell_volume 5578.697424
_symmetry_space_group_name_H-M "C C C A"
_symmetry_group_IT_number 68
_space_group.IT_coordinate_system_code '2'
_symmetry_cell_setting 'orthorhombic'
loop_
_space_group_symop_operation_xyz
x,y,z
-x,1/2-y,z
x,1/2-y,1/2-z
-x,y,1/2-z
-x,-y,-z
x,1/2+y,-z
-x,1/2+y,1/2+z
x,-y,1/2+z
1/2+x,1/2+y,z
1/2-x,-y,z
1/2+x,-y,1/2-z
1/2-x,1/2+y,1/2-z
1/2-x,1/2-y,-z
1/2+x,y,-z
1/2-x,y,1/2+z
1/2+x,1/2-y,1/2+z
loop_
_atom_site_type_symbol
_atom_site_label
_atom_site_fract_x
_atom_site_fract_y
_atom_site_fract_z
Si Si1 0.969630 0.069810 0.880677
Si Si2 0.028370 0.861605 0.935599
Si Si3 0.298769 0.450750 0.095153
Si Si4 0.300799 0.353786 0.925662
Si Si5 0.862979 0.042858 0.878540
Si Si6 0.000000 0.250000 0.750000
Si Si7 0.207727 0.779107 0.165527
Si Si8 0.136331 0.364489 0.055868
O O1 0.917981 0.018991 0.857415
O O2 0.974569 0.164558 0.811885
O O3 0.973630 0.123428 0.968743
O O4 0.007821 0.966909 0.883811
O O5 0.083437 0.841152 0.910805
O O6 0.000000 0.750000 0.911522
O O7 0.250000 0.500000 0.133068
O O8 0.315358 0.334754 0.133023
O O9 0.340403 0.540627 0.112316
O O10 0.289663 0.428936 0.002033
O O11 0.333473 0.427813 0.866646
O O12 0.249156 0.326246 0.890422
O O13 0.330160 0.243343 0.946277
O O14 0.836325 0.134867 0.823841
O O15 0.864304 0.087772 0.967816
O O16 0.231408 0.750000 0.250000
#
# Coordination Sequence:
#
# PCOD8282227 Si02
#       8
#    16  16  16  16  16   4  16  16
#     4  10  23  40  65  97 132 172 214 270 323 395
#     4  10  20  41  67  99 130 165 221 277 324 376
#     4  11  21  37  62  87 121 160 212 260 304 369
#     4  11  20  40  62  87 120 159 208 259 307 368
#     4  10  22  39  61  92 120 163 209 254 312 372
#     4  12  24  44  66  96 136 178 204 262 344 392
#     4  12  25  39  58  86 128 163 204 255 314 381
#     4  10  20  36  68  94 117 159 209 263 308 365
#
# _framework density 20.793384
#
# number of rings (size 3 to 8) (size 9 to 14) (size 15 to 20)
#    0.000    1.379    3.448    3.310    0.966    3.310 
#    0.000    0.345    0.000    0.000    0.000    0.000 
#    0.000    0.000    0.000    0.000    0.000    0.000 
#
# Total GULP energy -718702.738700 kJ/mol
# GULP energy per Si atom -12391.426529 kJ/mol
# Density = 2.074606 g / cm^3
# Si number density = 20.793384 Si / 1000 Ang^3
#
#
#
# Elastic Constant Matrix: (Units=GPa)
#
#
# Indices 1 2 3 4 5 6 
#
# 1 125.3236 38.2028 19.2205 0.0000 0.0000 0.0000
# 2 38.2028 99.5673 4.7334 0.0000 0.0000 0.0000
# 3 19.2205 4.7334 21.5534 0.0000 0.0000 0.0000
# 4 0.0000 0.0000 0.0000 23.3441 0.0000 0.0000
# 5 0.0000 0.0000 0.0000 0.0000 3.6709 0.0000
# 6 0.0000 0.0000 0.0000 0.0000 0.0000 31.9264
#
#
#
# Elastic Compliance Matrix: (Units=1/GPa)
#
#
# Indices 1 2 3 4 5 6 
#
# 1 0.010367 -0.003575 -0.008459 0.000000 0.000000 0.000000
# 2 -0.003575 0.011383 0.000689 0.000000 0.000000 0.000000
# 3 -0.008459 0.000689 0.053789 0.000000 0.000000 0.000000
# 4 0.000000 0.000000 0.000000 0.042837 0.000000 0.000000
# 5 0.000000 0.000000 0.000000 0.000000 0.272410 0.000000
# 6 0.000000 0.000000 0.000000 0.000000 0.000000 0.031322
#
#
# Mechanical properties :
#
#
# Convention : Reuss Voigt Hill
#
# Bulk Modulus (GPa) = 18.92293 41.19531 30.05912
# Shear Modulus (GPa) = 10.81278 24.07413 17.44345
#
# Velocity S-wave (km/s) = 2.28285 3.40631 2.89951
# Velocity P-wave (km/s) = 4.00858 5.94351 5.06922
#
# Compressibility (1/GPa) = 0.05284593
#
# Stress axis : x y z
#
# Youngs Moduli (GPa) = 96.46335 87.85372 18.59115
#
# Poissons Ratio (x) = 0.31411 0.15727
# Poissons Ratio (y) = 0.34489 -0.01280
# Poissons Ratio (z) = 0.81602 -0.06050
#
# Static dielectric constant tensor:
#      x y z
#    x 4.497590 0.000000 0.000000 
#    y 0.000000 4.031430 0.000000 
#    z 0.000000 0.000000 3.554940 
# 
# 
# High freq. dielectric constant tensor:
#      x y z
#    x 1.818660 0.000000 0.000000 
#    y 0.000000 1.832710 0.000000 
#    z 0.000000 0.000000 1.775340 
# 
# From -- ./inp_files/34168.got.cif
#   From: 2010.03.12/outbox.cif.g09.slc.cpg/sg68_18_cif.got.tgz:34168.got - 2010.04.10 23:14:56.
