data_PCOD8282953
_publ_section_title
;
Structure prediction by ZEFSAII (Michael W. Deem and Ramdas Pophale) SiO2 
 PCOD8282953
Probable space group: C C C A
;
_chemical_formula_sum "Si O2"
_cell_formula_units_Z 72
_cell_length_a 10.213985
_cell_length_b 12.919216
_cell_length_c 26.046477
_cell_angle_alpha 90.000000
_cell_angle_beta 90.000000
_cell_angle_gamma 90.000000
_cell_volume 3437.006590
_symmetry_space_group_name_H-M "C C C A"
_symmetry_group_IT_number 68
_space_group.IT_coordinate_system_code '2'
_symmetry_cell_setting 'orthorhombic'
loop_
_space_group_symop_operation_xyz
x,y,z
-x,1/2-y,z
x,1/2-y,1/2-z
-x,y,1/2-z
-x,-y,-z
x,1/2+y,-z
-x,1/2+y,1/2+z
x,-y,1/2+z
1/2+x,1/2+y,z
1/2-x,-y,z
1/2+x,-y,1/2-z
1/2-x,1/2+y,1/2-z
1/2-x,1/2-y,-z
1/2+x,y,-z
1/2-x,y,1/2+z
1/2+x,1/2-y,1/2+z
loop_
_atom_site_type_symbol
_atom_site_label
_atom_site_fract_x
_atom_site_fract_y
_atom_site_fract_z
Si Si1 0.896643 0.494626 0.293175
Si Si2 0.394732 0.334080 0.627274
Si Si3 0.107534 0.675498 0.129287
Si Si4 0.500000 0.250000 0.469116
Si Si5 0.619415 0.562989 0.477291
O O1 0.750000 0.500000 0.269422
O O2 0.931789 0.382936 0.317252
O O3 0.903987 0.567457 0.342553
O O4 0.000000 0.525768 0.250000
O O5 0.500000 0.250000 0.610575
O O6 0.253891 0.278694 0.634360
O O7 0.385384 0.424501 0.584310
O O8 0.000000 0.750000 0.155828
O O9 0.078006 0.667824 0.067834
O O10 0.394721 0.318138 0.501167
O O11 0.500000 0.500000 0.500000
O O12 0.750000 0.500000 0.494094
#
# Coordination Sequence:
#
# PCOD8282953 Si02
#       5
#    16  16  16   8  16
#     4  10  22  43  66  90 124 163 209 264 325 385
#     4  11  23  41  63  91 130 165 209 268 320 377
#     4   9  22  42  63  90 128 162 210 259 318 381
#     4  10  22  42  65  94 129 170 226 252 320 396
#     4  12  25  39  65  94 132 175 219 264 321 382
#
# _framework density 20.948461999999999
#
# number of rings (size 3 to 8) (size 9 to 14) (size 15 to 20)
#    0.667    0.889    1.111    4.667    3.111    4.444 
#    0.000    5.556    0.000    0.000    0.000    0.000 
#    0.000    0.000    0.000    0.000    0.000    0.000 
#
# Total GULP energy -446057.163296 kJ/mol
# GULP energy per Si atom -12390.476758 kJ/mol
# Density = 2.090078 g / cm^3
# Si number density = 20.948462 Si / 1000 Ang^3
#
#
#
# Elastic Constant Matrix: (Units=GPa)
#
#
# Indices 1 2 3 4 5 6 
#
# 1 173.4524 68.8370 55.7886 0.0000 0.0000 0.0000
# 2 68.8370 70.8913 33.2329 0.0000 0.0000 0.0000
# 3 55.7886 33.2329 92.1864 0.0000 0.0000 0.0000
# 4 0.0000 0.0000 0.0000 16.5738 0.0000 0.0000
# 5 0.0000 0.0000 0.0000 0.0000 24.1529 0.0000
# 6 0.0000 0.0000 0.0000 0.0000 0.0000 44.8552
#
#
#
# Elastic Compliance Matrix: (Units=1/GPa)
#
#
# Indices 1 2 3 4 5 6 
#
# 1 0.010061 -0.008322 -0.003089 0.000000 0.000000 0.000000
# 2 -0.008322 0.023858 -0.003565 0.000000 0.000000 0.000000
# 3 -0.003089 -0.003565 0.014002 0.000000 0.000000 0.000000
# 4 0.000000 0.000000 0.000000 0.060336 0.000000 0.000000
# 5 0.000000 0.000000 0.000000 0.000000 0.041403 0.000000
# 6 0.000000 0.000000 0.000000 0.000000 0.000000 0.022294
#
#
# Mechanical properties :
#
#
# Convention : Reuss Voigt Hill
#
# Bulk Modulus (GPa) = 55.64643 72.47189 64.05916
# Shear Modulus (GPa) = 24.05064 29.02782 26.53923
#
# Velocity S-wave (km/s) = 3.39202 3.72651 3.56319
# Velocity P-wave (km/s) = 6.47782 7.29289 6.89741
#
# Compressibility (1/GPa) = 0.01797061
#
# Stress axis : x y z
#
# Youngs Moduli (GPa) = 99.38990 41.91513 71.41891
#
# Poissons Ratio (x) = 0.34881 0.22060
# Poissons Ratio (y) = 0.82710 0.25457
# Poissons Ratio (z) = 0.30700 0.14941
#
# Static dielectric constant tensor:
#      x y z
#    x 4.315720 0.000000 0.000000 
#    y 0.000000 3.792760 0.000000 
#    z 0.000000 0.000000 3.604720 
# 
# 
# High freq. dielectric constant tensor:
#      x y z
#    x 1.825900 0.000000 0.000000 
#    y 0.000000 1.814320 0.000000 
#    z 0.000000 0.000000 1.811750 
# 
# From -- ./inp_files/48919.got.cif
#   From: 2010.03.12/outbox.cif.g09.slc.cpg/sg68_25_cif.got.tgz:48919.got - 2010.04.10 23:14:56.
