data_PCOD8282595
_publ_section_title
;
Structure prediction by ZEFSAII (Michael W. Deem and Ramdas Pophale) SiO2 
 PCOD8282595
Probable space group: C C C A
;
_chemical_formula_sum "Si O2"
_cell_formula_units_Z 88
_cell_length_a 29.247287
_cell_length_b 16.634602
_cell_length_c 9.587795
_cell_angle_alpha 90.000000
_cell_angle_beta 90.000000
_cell_angle_gamma 90.000000
_cell_volume 4664.625057
_symmetry_space_group_name_H-M "C C C A"
_symmetry_group_IT_number 68
_space_group.IT_coordinate_system_code '2'
_symmetry_cell_setting 'orthorhombic'
loop_
_space_group_symop_operation_xyz
x,y,z
-x,1/2-y,z
x,1/2-y,1/2-z
-x,y,1/2-z
-x,-y,-z
x,1/2+y,-z
-x,1/2+y,1/2+z
x,-y,1/2+z
1/2+x,1/2+y,z
1/2-x,-y,z
1/2+x,-y,1/2-z
1/2-x,1/2+y,1/2-z
1/2-x,1/2-y,-z
1/2+x,y,-z
1/2-x,y,1/2+z
1/2+x,1/2-y,1/2+z
loop_
_atom_site_type_symbol
_atom_site_label
_atom_site_fract_x
_atom_site_fract_y
_atom_site_fract_z
Si Si1 0.500000 0.954100 0.750000
Si Si2 0.495711 0.840601 0.483798
Si Si3 0.562594 0.601885 0.247193
Si Si4 0.749232 0.693501 0.631160
Si Si5 0.667652 0.588168 0.220759
Si Si6 0.296679 0.957789 0.518311
O O1 0.495764 0.900010 0.613813
O O2 0.545513 0.009366 0.739063
O O3 0.500000 0.750000 0.540238
O O4 0.449729 0.852695 0.391840
O O5 0.538377 0.857817 0.384340
O O6 0.615518 0.614400 0.215856
O O7 0.728604 0.750000 0.750000
O O8 0.750000 0.750000 0.500000
O O9 0.799571 0.661162 0.673565
O O10 0.714214 0.621029 0.608577
O O11 0.676876 0.562166 0.378409
O O12 0.672981 0.513833 0.116043
O O13 0.250000 0.000000 0.471060
#
# Coordination Sequence:
#
# PCOD8282595 Si02
#       6
#     8  16  16  16  16  16
#     4  10  21  38  65  88 120 154 200 248 303 356
#     4  10  21  40  62  86 125 158 190 247 309 371
#     4  10  21  39  62  88 117 159 206 238 300 362
#     4  11  22  41  61  86 120 162 201 247 307 357
#     4  11  24  37  65  87 121 155 207 255 291 369
#     4  10  22  40  60  86 118 160 200 249 307 350
#
# _framework density 18.865396
#
# number of rings (size 3 to 8) (size 9 to 14) (size 15 to 20)
#    0.000    1.818    1.818    5.182    7.636    1.455 
#    0.000    0.000    0.000    0.000    0.000    0.000 
#    0.000    0.000    0.000    0.000    0.000    0.000 
#
# Total GULP energy -545559.926561 kJ/mol
# GULP energy per Si atom -12399.089240 kJ/mol
# Density = 1.882246 g / cm^3
# Si number density = 18.865396 Si / 1000 Ang^3
#
#
#
# Elastic Constant Matrix: (Units=GPa)
#
#
# Indices 1 2 3 4 5 6 
#
# 1 91.5664 11.5628 25.2510 0.0000 0.0000 0.0000
# 2 11.5628 109.1698 37.0722 0.0000 0.0000 0.0000
# 3 25.2510 37.0722 112.8282 0.0000 0.0000 0.0000
# 4 0.0000 0.0000 0.0000 32.9217 0.0000 0.0000
# 5 0.0000 0.0000 0.0000 0.0000 10.5379 0.0000
# 6 0.0000 0.0000 0.0000 0.0000 0.0000 10.6089
#
#
#
# Elastic Compliance Matrix: (Units=1/GPa)
#
#
# Indices 1 2 3 4 5 6 
#
# 1 0.011654 -0.000392 -0.002479 0.000000 0.000000 0.000000
# 2 -0.000392 0.010324 -0.003304 0.000000 0.000000 0.000000
# 3 -0.002479 -0.003304 0.010504 0.000000 0.000000 0.000000
# 4 0.000000 0.000000 0.000000 0.030375 0.000000 0.000000
# 5 0.000000 0.000000 0.000000 0.000000 0.094896 0.000000
# 6 0.000000 0.000000 0.000000 0.000000 0.000000 0.094260
#
#
# Mechanical properties :
#
#
# Convention : Reuss Voigt Hill
#
# Bulk Modulus (GPa) = 49.67813 51.25963 50.46888
# Shear Modulus (GPa) = 18.44513 26.79226 22.61870
#
# Velocity S-wave (km/s) = 3.13025 3.77262 3.46634
# Velocity P-wave (km/s) = 6.28130 6.79758 6.54453
#
# Compressibility (1/GPa) = 0.02012958
#
# Stress axis : x y z
#
# Youngs Moduli (GPa) = 85.80520 96.86474 95.20563
#
# Poissons Ratio (x) = 0.03801 0.23604
# Poissons Ratio (y) = 0.03367 0.31458
# Poissons Ratio (z) = 0.21274 0.32006
#
# Static dielectric constant tensor:
#      x y z
#    x 3.210660 0.000000 0.000000 
#    y 0.000000 3.617720 0.000000 
#    z 0.000000 0.000000 3.569190 
# 
# 
# High freq. dielectric constant tensor:
#      x y z
#    x 1.709890 0.000000 0.000000 
#    y 0.000000 1.747220 0.000000 
#    z 0.000000 0.000000 1.748830 
# 
# From -- ./inp_files/9525.got.cif
#   From: 2010.03.12/outbox.cif.g09.slc.cpg/sg68_5_cif.got.tgz:9525.got - 2010.04.10 23:14:56.
