data_PCOD8282852
_publ_section_title
;
Structure prediction by ZEFSAII (Michael W. Deem and Ramdas Pophale) SiO2 
 PCOD8282852
Probable space group: C C C A
;
_chemical_formula_sum "Si O2"
_cell_formula_units_Z 112
_cell_length_a 13.873499
_cell_length_b 14.749187
_cell_length_c 26.683451
_cell_angle_alpha 90.000000
_cell_angle_beta 90.000000
_cell_angle_gamma 90.000000
_cell_volume 5460.043287
_symmetry_space_group_name_H-M "C C C A"
_symmetry_group_IT_number 68
_space_group.IT_coordinate_system_code '2'
_symmetry_cell_setting 'orthorhombic'
loop_
_space_group_symop_operation_xyz
x,y,z
-x,1/2-y,z
x,1/2-y,1/2-z
-x,y,1/2-z
-x,-y,-z
x,1/2+y,-z
-x,1/2+y,1/2+z
x,-y,1/2+z
1/2+x,1/2+y,z
1/2-x,-y,z
1/2+x,-y,1/2-z
1/2-x,1/2+y,1/2-z
1/2-x,1/2-y,-z
1/2+x,y,-z
1/2-x,y,1/2+z
1/2+x,1/2-y,1/2+z
loop_
_atom_site_type_symbol
_atom_site_label
_atom_site_fract_x
_atom_site_fract_y
_atom_site_fract_z
Si Si1 0.016361 0.531604 0.898135
Si Si2 0.247578 0.230079 0.082114
Si Si3 0.566193 0.173412 0.972804
Si Si4 0.813062 0.087214 0.337856
Si Si5 0.106836 0.144676 0.259926
Si Si6 0.956640 0.667323 0.076345
Si Si7 0.186388 0.911630 0.866906
O O1 0.057115 0.573484 0.949471
O O2 0.074442 0.576090 0.852501
O O3 0.040150 0.425503 0.894162
O O4 0.904263 0.552688 0.898043
O O5 0.175465 0.207399 0.036128
O O6 0.228070 0.173003 0.132455
O O7 0.349931 0.198069 0.059748
O O8 0.242086 0.335647 0.099808
O O9 0.500000 0.250000 0.945089
O O10 0.531550 0.162986 0.029698
O O11 0.814290 0.102883 0.278338
O O12 0.750000 0.000000 0.352099
O O13 0.100332 0.250000 0.250000
O O14 0.147333 0.128015 0.315058
O O15 0.000000 0.102352 0.250000
O O16 0.000000 0.750000 0.110565
O O17 0.250000 0.000000 0.856534
#
# Coordination Sequence:
#
# PCOD8282852 Si02
#       7
#    16  16  16  16  16  16  16
#     4  11  22  41  62  93 123 167 216 257 318 379
#     4  11  23  42  66  94 121 172 218 253 326 383
#     4  10  22  39  66  88 124 163 210 276 307 368
#     4  11  21  39  68  90 125 168 208 261 304 382
#     4  11  22  37  65  98 127 162 208 263 316 377
#     4  11  24  42  62  90 129 167 212 266 314 379
#     4  12  24  41  65  92 135 169 207 264 324 385
#
# _framework density 20.512657999999998
#
# number of rings (size 3 to 8) (size 9 to 14) (size 15 to 20)
#    0.000    1.000    5.714    1.714    0.000    2.286 
#    2.571    0.000    0.000    0.000    0.000    2.000 
#    0.000    0.000    0.000    0.000    0.000    0.000 
#
# Total GULP energy -693980.750853 kJ/mol
# GULP energy per Si atom -12392.513408 kJ/mol
# Density = 2.046597 g / cm^3
# Si number density = 20.512658 Si / 1000 Ang^3
#
#
#
# Elastic Constant Matrix: (Units=GPa)
#
#
# Indices 1 2 3 4 5 6 
#
# 1 85.2830 30.6333 17.6048 0.0000 0.0000 0.0000
# 2 30.6333 119.6383 8.3165 0.0000 0.0000 0.0000
# 3 17.6048 8.3165 61.3770 0.0000 0.0000 0.0000
# 4 0.0000 0.0000 0.0000 20.6248 0.0000 0.0000
# 5 0.0000 0.0000 0.0000 0.0000 -16.9457 0.0000
# 6 0.0000 0.0000 0.0000 0.0000 0.0000 35.4047
#
#
#
# Elastic Compliance Matrix: (Units=1/GPa)
#
#
# Indices 1 2 3 4 5 6 
#
# 1 0.013605 -0.003243 -0.003463 0.000000 0.000000 0.000000
# 2 -0.003243 0.009211 -0.000318 0.000000 0.000000 0.000000
# 3 -0.003463 -0.000318 0.017329 0.000000 0.000000 0.000000
# 4 0.000000 0.000000 0.000000 0.048485 0.000000 0.000000
# 5 0.000000 0.000000 0.000000 0.000000 -0.059012 0.000000
# 6 0.000000 0.000000 0.000000 0.000000 0.000000 0.028245
#
#
# Mechanical properties :
#
#
# Convention : Reuss Voigt Hill
#
# Bulk Modulus (GPa) = 38.31746 42.15640 40.23693
# Shear Modulus (GPa) = 62.02663 21.79967 41.91315
#
# Velocity S-wave (km/s) = 5.50489 3.26351 4.52517
# Velocity P-wave (km/s) = 7.68932 5.89887 6.85282
#
# Compressibility (1/GPa) = 0.02609776
#
# Stress axis : x y z
#
# Youngs Moduli (GPa) = 73.50035 108.56617 57.70632
#
# Poissons Ratio (x) = 0.35207 0.19984
# Poissons Ratio (y) = 0.23836 0.01835
# Poissons Ratio (z) = 0.25453 0.03451
#
# Static dielectric constant tensor:
#      x y z
#    x 3.887390 0.000000 0.000000 
#    y 0.000000 4.061780 0.000000 
#    z 0.000000 0.000000 3.441170 
# 
# 
# High freq. dielectric constant tensor:
#      x y z
#    x 1.810490 0.000000 0.000000 
#    y 0.000000 1.815040 0.000000 
#    z 0.000000 0.000000 1.779770 
# 
# From -- ./inp_files/54847.got.cif
#   From: 2010.03.12/outbox.cif.g09.slc.cpg/sg68_28_cif.got.tgz:54847.got - 2010.04.10 23:14:56.
