data_PCOD8282948
_publ_section_title
;
Structure prediction by ZEFSAII (Michael W. Deem and Ramdas Pophale) SiO2 
 PCOD8282948
Probable space group: C C C A
;
_chemical_formula_sum "Si O2"
_cell_formula_units_Z 116
_cell_length_a 25.042386
_cell_length_b 26.364618
_cell_length_c 7.961705
_cell_angle_alpha 90.000000
_cell_angle_beta 90.000000
_cell_angle_gamma 90.000000
_cell_volume 5256.579905
_symmetry_space_group_name_H-M "C C C A"
_symmetry_group_IT_number 68
_space_group.IT_coordinate_system_code '2'
_symmetry_cell_setting 'orthorhombic'
loop_
_space_group_symop_operation_xyz
x,y,z
-x,1/2-y,z
x,1/2-y,1/2-z
-x,y,1/2-z
-x,-y,-z
x,1/2+y,-z
-x,1/2+y,1/2+z
x,-y,1/2+z
1/2+x,1/2+y,z
1/2-x,-y,z
1/2+x,-y,1/2-z
1/2-x,1/2+y,1/2-z
1/2-x,1/2-y,-z
1/2+x,y,-z
1/2-x,y,1/2+z
1/2+x,1/2-y,1/2+z
loop_
_atom_site_type_symbol
_atom_site_label
_atom_site_fract_x
_atom_site_fract_y
_atom_site_fract_z
Si Si1 0.920862 0.831140 0.356699
Si Si2 0.373079 0.511338 0.533054
Si Si3 0.673700 0.311655 0.370343
Si Si4 0.557691 0.055414 0.312070
Si Si5 0.704557 0.959552 0.263567
Si Si6 0.230522 0.847370 0.699568
Si Si7 0.844565 0.282262 0.409773
Si Si8 0.000000 0.250000 0.750000
O O1 0.886037 0.827485 0.184296
O O2 0.947717 0.886176 0.366634
O O3 0.888164 0.822479 0.528009
O O4 0.964789 0.787007 0.364681
O O5 0.423426 0.478581 0.468527
O O6 0.395982 0.549268 0.672734
O O7 0.344439 0.545572 0.394046
O O8 0.324901 0.474863 0.592276
O O9 0.709339 0.324211 0.202732
O O10 0.698118 0.343638 0.525994
O O11 0.671818 0.253039 0.430003
O O12 0.500000 0.036081 0.250000
O O13 0.732991 0.905601 0.242058
O O14 0.750000 0.000000 0.313897
O O15 0.205855 0.814098 0.849591
O O16 0.866585 0.250000 0.250000
#
# Coordination Sequence:
#
# PCOD8282948 Si02
#       8
#    16  16  16  16  16  16  16   4
#     4  12  23  43  70  95 129 175 223 272 331 394
#     4  10  24  42  63  93 133 163 222 275 324 394
#     4  11  23  38  64  93 130 169 214 264 318 393
#     4  11  23  42  70  97 126 173 222 284 343 385
#     4  11  24  39  61  90 130 172 211 259 325 402
#     4  11  24  37  63  94 130 170 211 255 328 397
#     4  10  22  42  63  94 134 168 212 267 324 386
#     4  12  24  44  70  96 124 168 230 276 316 396
#
# _framework density 22.067581000000001
#
# number of rings (size 3 to 8) (size 9 to 14) (size 15 to 20)
#    0.000    1.103    2.069    3.724    7.724    2.207 
#    0.000    0.345    0.000    3.310    0.000    0.000 
#    0.000    0.000    0.000    0.000    0.000    0.000 
#
# Total GULP energy -719080.583265 kJ/mol
# GULP energy per Si atom -12397.941091 kJ/mol
# Density = 2.201735 g / cm^3
# Si number density = 22.067581 Si / 1000 Ang^3
#
#
#
# Elastic Constant Matrix: (Units=GPa)
#
#
# Indices 1 2 3 4 5 6 
#
# 1 96.7993 19.1447 14.8942 0.0000 0.0000 0.0000
# 2 19.1447 95.9083 12.3476 0.0000 0.0000 0.0000
# 3 14.8942 12.3476 60.2138 0.0000 0.0000 0.0000
# 4 0.0000 0.0000 0.0000 17.6353 0.0000 0.0000
# 5 0.0000 0.0000 0.0000 0.0000 25.1955 0.0000
# 6 0.0000 0.0000 0.0000 0.0000 0.0000 18.3362
#
#
#
# Elastic Compliance Matrix: (Units=1/GPa)
#
#
# Indices 1 2 3 4 5 6 
#
# 1 0.011069 -0.001907 -0.002347 0.000000 0.000000 0.000000
# 2 -0.001907 0.011038 -0.001792 0.000000 0.000000 0.000000
# 3 -0.002347 -0.001792 0.017555 0.000000 0.000000 0.000000
# 4 0.000000 0.000000 0.000000 0.056704 0.000000 0.000000
# 5 0.000000 0.000000 0.000000 0.000000 0.039690 0.000000
# 6 0.000000 0.000000 0.000000 0.000000 0.000000 0.054537
#
#
# Mechanical properties :
#
#
# Convention : Reuss Voigt Hill
#
# Bulk Modulus (GPa) = 36.27053 38.41049 37.34051
# Shear Modulus (GPa) = 23.59879 26.00241 24.80060
#
# Velocity S-wave (km/s) = 3.27370 3.43637 3.35602
# Velocity P-wave (km/s) = 5.54628 5.76095 5.65463
#
# Compressibility (1/GPa) = 0.02757059
#
# Stress axis : x y z
#
# Youngs Moduli (GPa) = 90.34249 90.59584 56.96258
#
# Poissons Ratio (x) = 0.17280 0.13368
# Poissons Ratio (y) = 0.17232 0.10206
# Poissons Ratio (z) = 0.21202 0.16232
#
# Static dielectric constant tensor:
#      x y z
#    x 3.982630 0.000000 0.000000 
#    y 0.000000 3.874880 0.000000 
#    z 0.000000 0.000000 4.017630 
# 
# 
# High freq. dielectric constant tensor:
#      x y z
#    x 1.863880 0.000000 0.000000 
#    y 0.000000 1.872160 0.000000 
#    z 0.000000 0.000000 1.868050 
# 
# From -- ./inp_files/8340.got.cif
#   From: 2010.03.12/outbox.cif.g09.slc.cpg/sg68_5_cif.got.tgz:8340.got - 2010.04.10 23:14:56.
