data_PCOD8282555
_publ_section_title
;
Structure prediction by ZEFSAII (Michael W. Deem and Ramdas Pophale) SiO2 
 PCOD8282555
Probable space group: C C C A
;
_chemical_formula_sum "Si O2"
_cell_formula_units_Z 80
_cell_length_a 11.158135
_cell_length_b 24.794714
_cell_length_c 14.123378
_cell_angle_alpha 90.000000
_cell_angle_beta 90.000000
_cell_angle_gamma 90.000000
_cell_volume 3907.412824
_symmetry_space_group_name_H-M "C C C A"
_symmetry_group_IT_number 68
_space_group.IT_coordinate_system_code '2'
_symmetry_cell_setting 'orthorhombic'
loop_
_space_group_symop_operation_xyz
x,y,z
-x,1/2-y,z
x,1/2-y,1/2-z
-x,y,1/2-z
-x,-y,-z
x,1/2+y,-z
-x,1/2+y,1/2+z
x,-y,1/2+z
1/2+x,1/2+y,z
1/2-x,-y,z
1/2+x,-y,1/2-z
1/2-x,1/2+y,1/2-z
1/2-x,1/2-y,-z
1/2+x,y,-z
1/2-x,y,1/2+z
1/2+x,1/2-y,1/2+z
loop_
_atom_site_type_symbol
_atom_site_label
_atom_site_fract_x
_atom_site_fract_y
_atom_site_fract_z
Si Si1 0.303244 0.113259 0.079864
Si Si2 0.851968 0.543972 0.703226
Si Si3 0.011065 0.470354 0.598726
Si Si4 0.140443 0.809561 0.236154
Si Si5 0.741997 0.901013 0.631778
O O1 0.181314 0.086797 0.120335
O O2 0.419123 0.078542 0.107006
O O3 0.323727 0.170855 0.130513
O O4 0.293664 0.119685 0.967411
O O5 0.750000 0.500000 0.699743
O O6 0.850412 0.573829 0.805659
O O7 0.978893 0.515452 0.678397
O O8 0.143880 0.448511 0.618384
O O9 0.000000 0.500000 0.500000
O O10 0.196444 0.750000 0.250000
O O11 0.189875 0.849622 0.315441
O O12 0.000000 0.806989 0.250000
#
# Coordination Sequence:
#
# PCOD8282555 Si02
#       5
#    16  16  16  16  16
#     4  10  21  38  55  91 117 151 210 245 294 379
#     4   9  21  33  52  83 119 159 202 231 282 367
#     4  11  21  37  56  82 125 172 192 241 296 359
#     4  10  21  41  65  85 112 156 207 263 314 358
#     4  11  22  38  60  86 124 158 202 256 298 367
#
# _framework density 20.473903
#
# number of rings (size 3 to 8) (size 9 to 14) (size 15 to 20)
#    0.000    1.800    4.000    0.000    2.800    0.800 
#    0.000    0.000    0.000    0.000    0.000    1.400 
#    0.000    0.000    0.000    0.000    0.000    0.000 
#
# Total GULP energy -495843.009702 kJ/mol
# GULP energy per Si atom -12396.075243 kJ/mol
# Density = 2.042730 g / cm^3
# Si number density = 20.473903 Si / 1000 Ang^3
#
#
#
# Elastic Constant Matrix: (Units=GPa)
#
#
# Indices 1 2 3 4 5 6 
#
# 1 37.1647 30.2720 26.1513 0.0000 0.0000 0.0000
# 2 30.2720 138.3853 67.8149 0.0000 0.0000 0.0000
# 3 26.1513 67.8149 185.1369 0.0000 0.0000 0.0000
# 4 0.0000 0.0000 0.0000 19.9352 0.0000 0.0000
# 5 0.0000 0.0000 0.0000 0.0000 25.2022 0.0000
# 6 0.0000 0.0000 0.0000 0.0000 0.0000 20.7473
#
#
#
# Elastic Compliance Matrix: (Units=1/GPa)
#
#
# Indices 1 2 3 4 5 6 
#
# 1 0.033671 -0.006136 -0.002508 0.000000 0.000000 0.000000
# 2 -0.006136 0.009925 -0.002769 0.000000 0.000000 0.000000
# 3 -0.002508 -0.002769 0.006770 0.000000 0.000000 0.000000
# 4 0.000000 0.000000 0.000000 0.050163 0.000000 0.000000
# 5 0.000000 0.000000 0.000000 0.000000 0.039679 0.000000
# 6 0.000000 0.000000 0.000000 0.000000 0.000000 0.048199
#
#
# Mechanical properties :
#
#
# Convention : Reuss Voigt Hill
#
# Bulk Modulus (GPa) = 36.31241 67.68484 51.99863
# Shear Modulus (GPa) = 22.68468 28.94018 25.81243
#
# Velocity S-wave (km/s) = 3.33224 3.76375 3.55455
# Velocity P-wave (km/s) = 5.70785 7.21239 6.50378
#
# Compressibility (1/GPa) = 0.02753879
#
# Stress axis : x y z
#
# Youngs Moduli (GPa) = 29.69959 100.75176 147.71150
#
# Poissons Ratio (x) = 0.61824 0.37052
# Poissons Ratio (y) = 0.18224 0.40899
# Poissons Ratio (z) = 0.07450 0.27897
#
# Static dielectric constant tensor:
#      x y z
#    x 3.676730 0.000000 0.000000 
#    y 0.000000 3.870990 0.000000 
#    z 0.000000 0.000000 4.422280 
# 
# 
# High freq. dielectric constant tensor:
#      x y z
#    x 1.792700 0.000000 0.000000 
#    y 0.000000 1.778830 0.000000 
#    z 0.000000 0.000000 1.825140 
# 
# From -- ./inp_files/20838.got.cif
#   From: 2010.03.12/outbox.cif.g09.slc.cpg/sg68_11_cif.got.tgz:20838.got - 2010.04.10 23:14:56.
