data_PCOD8282384
_publ_section_title
;
Structure prediction by ZEFSAII (Michael W. Deem and Ramdas Pophale) SiO2 
 PCOD8282384
Probable space group: C C C A
;
_chemical_formula_sum "Si O2"
_cell_formula_units_Z 108
_cell_length_a 28.359690
_cell_length_b 12.074179
_cell_length_c 14.634421
_cell_angle_alpha 90.000000
_cell_angle_beta 90.000000
_cell_angle_gamma 90.000000
_cell_volume 5011.118050
_symmetry_space_group_name_H-M "C C C A"
_symmetry_group_IT_number 68
_space_group.IT_coordinate_system_code '2'
_symmetry_cell_setting 'orthorhombic'
loop_
_space_group_symop_operation_xyz
x,y,z
-x,1/2-y,z
x,1/2-y,1/2-z
-x,y,1/2-z
-x,-y,-z
x,1/2+y,-z
-x,1/2+y,1/2+z
x,-y,1/2+z
1/2+x,1/2+y,z
1/2-x,-y,z
1/2+x,-y,1/2-z
1/2-x,1/2+y,1/2-z
1/2-x,1/2-y,-z
1/2+x,y,-z
1/2-x,y,1/2+z
1/2+x,1/2-y,1/2+z
loop_
_atom_site_type_symbol
_atom_site_label
_atom_site_fract_x
_atom_site_fract_y
_atom_site_fract_z
Si Si1 0.058302 0.855736 0.094424
Si Si2 0.643275 0.878404 0.246001
Si Si3 0.500000 0.750000 0.061214
Si Si4 0.304600 0.982248 0.900690
Si Si5 0.000000 0.250000 0.750000
Si Si6 0.152336 0.745416 0.353343
Si Si7 0.302949 0.522285 0.888421
Si Si8 0.955309 0.075384 0.312998
O O1 0.032150 0.824293 0.186779
O O2 0.107397 0.788593 0.084632
O O3 0.063094 0.986683 0.111448
O O4 0.029276 0.834177 0.002355
O O5 0.657209 0.750000 0.250000
O O6 0.664123 0.930564 0.154207
O O7 0.586980 0.895917 0.243529
O O8 0.663221 0.939772 0.334730
O O9 0.465417 0.816758 0.126842
O O10 0.250000 0.000000 0.872918
O O11 0.322576 0.858332 0.882535
O O12 0.313044 0.006930 0.005691
O O13 0.133747 0.750000 0.250000
O O14 0.190775 0.649538 0.360871
O O15 0.250000 0.500000 0.859393
O O16 0.000000 0.039971 0.250000
#
# Coordination Sequence:
#
# PCOD8282384 Si02
#       8
#    16  16   8  16   4  16  16  16
#     4  11  23  41  70 100 135 179 241 289 350 422
#     4  12  27  46  72 104 142 188 238 296 370 437
#     4  11  27  41  71 104 140 186 233 303 353 437
#     4  11  28  47  73 106 143 192 236 299 370 436
#     4  10  20  40  62  94 126 176 226 288 340 400
#     4  12  24  44  73 102 142 185 242 297 358 432
#     4  11  27  45  70 105 141 186 236 299 360 439
#     4  12  25  49  67 100 143 189 233 292 369 425
#
# _framework density 21.552077000000001
#
# number of rings (size 3 to 8) (size 9 to 14) (size 15 to 20)
#    0.000    0.593    4.444    2.000    6.222    2.370 
#    0.000    0.000    0.000    0.000    0.000    0.000 
#    0.000    0.000    0.000    0.000    0.000    0.000 
#
# Total GULP energy -669695.838491 kJ/mol
# GULP energy per Si atom -12401.774787 kJ/mol
# Density = 2.150302 g / cm^3
# Si number density = 21.552077 Si / 1000 Ang^3
#
#
#
# Elastic Constant Matrix: (Units=GPa)
#
#
# Indices 1 2 3 4 5 6 
#
# 1 121.7768 32.6831 19.7891 0.0000 0.0000 0.0000
# 2 32.6831 145.7330 4.3736 0.0000 0.0000 0.0000
# 3 19.7891 4.3736 66.3641 0.0000 0.0000 0.0000
# 4 0.0000 0.0000 0.0000 25.6447 0.0000 0.0000
# 5 0.0000 0.0000 0.0000 0.0000 35.4888 0.0000
# 6 0.0000 0.0000 0.0000 0.0000 0.0000 88.9696
#
#
#
# Elastic Compliance Matrix: (Units=1/GPa)
#
#
# Indices 1 2 3 4 5 6 
#
# 1 0.009165 -0.001977 -0.002603 0.000000 0.000000 0.000000
# 2 -0.001977 0.007302 0.000108 0.000000 0.000000 0.000000
# 3 -0.002603 0.000108 0.015837 0.000000 0.000000 0.000000
# 4 0.000000 0.000000 0.000000 0.038994 0.000000 0.000000
# 5 0.000000 0.000000 0.000000 0.000000 0.028178 0.000000
# 6 0.000000 0.000000 0.000000 0.000000 0.000000 0.011240
#
#
# Mechanical properties :
#
#
# Convention : Reuss Voigt Hill
#
# Bulk Modulus (GPa) = 42.80561 49.72951 46.26756
# Shear Modulus (GPa) = 39.23184 48.48916 43.86050
#
# Velocity S-wave (km/s) = 4.27116 4.74841 4.51610
# Velocity P-wave (km/s) = 6.65044 7.29297 6.97910
#
# Compressibility (1/GPa) = 0.02336142
#
# Stress axis : x y z
#
# Youngs Moduli (GPa) = 109.10606 136.94745 63.14192
#
# Poissons Ratio (x) = 0.27080 0.16434
# Poissons Ratio (y) = 0.21574 -0.00684
# Poissons Ratio (z) = 0.28397 -0.01485
#
# Static dielectric constant tensor:
#      x y z
#    x 4.024160 0.000000 0.000000 
#    y 0.000000 3.667920 0.000000 
#    z 0.000000 0.000000 3.865190 
# 
# 
# High freq. dielectric constant tensor:
#      x y z
#    x 1.857920 0.000000 0.000000 
#    y 0.000000 1.858540 0.000000 
#    z 0.000000 0.000000 1.851410 
# 
# From -- ./inp_files/26451.got.cif
#   From: 2010.03.12/outbox.cif.g09.slc.cpg/sg68_14_cif.got.tgz:26451.got - 2010.04.10 23:14:56.
