data_PCOD8282334
_publ_section_title
;
Structure prediction by ZEFSAII (Michael W. Deem and Ramdas Pophale) SiO2 
 PCOD8282334
Probable space group: C C C A
;
_chemical_formula_sum "Si O2"
_cell_formula_units_Z 120
_cell_length_a 26.721485
_cell_length_b 13.922605
_cell_length_c 16.243778
_cell_angle_alpha 90.000000
_cell_angle_beta 90.000000
_cell_angle_gamma 90.000000
_cell_volume 6043.216274
_symmetry_space_group_name_H-M "C C C A"
_symmetry_group_IT_number 68
_space_group.IT_coordinate_system_code '2'
_symmetry_cell_setting 'orthorhombic'
loop_
_space_group_symop_operation_xyz
x,y,z
-x,1/2-y,z
x,1/2-y,1/2-z
-x,y,1/2-z
-x,-y,-z
x,1/2+y,-z
-x,1/2+y,1/2+z
x,-y,1/2+z
1/2+x,1/2+y,z
1/2-x,-y,z
1/2+x,-y,1/2-z
1/2-x,1/2+y,1/2-z
1/2-x,1/2-y,-z
1/2+x,y,-z
1/2-x,y,1/2+z
1/2+x,1/2-y,1/2+z
loop_
_atom_site_type_symbol
_atom_site_label
_atom_site_fract_x
_atom_site_fract_y
_atom_site_fract_z
Si Si1 0.389186 0.096723 0.626781
Si Si2 0.443252 0.279711 0.553243
Si Si3 0.695803 0.344031 0.199158
Si Si4 0.709820 0.119366 0.551076
Si Si5 0.947737 0.859359 0.723699
Si Si6 0.285508 0.164942 0.578973
Si Si7 0.750000 0.000000 0.695278
Si Si8 0.121352 0.401948 0.938683
O O1 0.414174 0.184753 0.579913
O O2 0.402731 0.092948 0.724219
O O3 0.328996 0.101267 0.619210
O O4 0.408194 0.999534 0.583343
O O5 0.500000 0.250000 0.534298
O O6 0.439421 0.361373 0.625271
O O7 0.418527 0.324303 0.471720
O O8 0.681498 0.250000 0.250000
O O9 0.742930 0.315080 0.144822
O O10 0.710519 0.438444 0.251562
O O11 0.647240 0.363948 0.144265
O O12 0.693337 0.230983 0.554444
O O13 0.761921 0.109254 0.499719
O O14 0.663393 0.069537 0.505819
O O15 0.717352 0.072793 0.639995
O O16 0.951626 0.750000 0.750000
O O17 0.000000 0.910488 0.750000
#
# Coordination Sequence:
#
# PCOD8282334 Si02
#       8
#    16  16  16  16  16  16   8  16
#     4  11  21  37  66  95 129 160 205 265 322 382
#     4  11  22  42  67  90 123 162 209 272 328 379
#     4  11  24  41  60  87 139 172 211 261 314 375
#     4  10  21  37  61  88 127 162 220 252 306 373
#     4   9  17  37  62  89 119 151 195 266 326 356
#     4  10  20  39  60  89 124 173 201 261 310 368
#     4  12  22  36  62  94 122 180 218 250 308 384
#     4  11  25  40  60  97 128 168 212 261 322 391
#
# _framework density 19.856976
#
# number of rings (size 3 to 8) (size 9 to 14) (size 15 to 20)
#    0.000    1.467    5.333    1.600    0.000    7.467 
#    2.400    0.000    0.000    0.000    0.000    0.000 
#    0.000    0.000    0.000    0.000    0.000    0.000 
#
# Total GULP energy -743955.963865 kJ/mol
# GULP energy per Si atom -12399.266064 kJ/mol
# Density = 1.981178 g / cm^3
# Si number density = 19.856976 Si / 1000 Ang^3
#
#
#
# Elastic Constant Matrix: (Units=GPa)
#
#
# Indices 1 2 3 4 5 6 
#
# 1 97.7328 44.8235 58.2895 0.0000 0.0000 0.0000
# 2 44.8235 85.6221 54.1974 0.0000 0.0000 0.0000
# 3 58.2895 54.1974 128.9967 0.0000 0.0000 0.0000
# 4 0.0000 0.0000 0.0000 30.3805 0.0000 0.0000
# 5 0.0000 0.0000 0.0000 0.0000 24.6575 0.0000
# 6 0.0000 0.0000 0.0000 0.0000 0.0000 13.8098
#
#
#
# Elastic Compliance Matrix: (Units=1/GPa)
#
#
# Indices 1 2 3 4 5 6 
#
# 1 0.015428 -0.004991 -0.004875 0.000000 0.000000 0.000000
# 2 -0.004991 0.017525 -0.005108 0.000000 0.000000 0.000000
# 3 -0.004875 -0.005108 0.012101 0.000000 0.000000 0.000000
# 4 0.000000 0.000000 0.000000 0.032916 0.000000 0.000000
# 5 0.000000 0.000000 0.000000 0.000000 0.040556 0.000000
# 6 0.000000 0.000000 0.000000 0.000000 0.000000 0.072412
#
#
# Mechanical properties :
#
#
# Convention : Reuss Voigt Hill
#
# Bulk Modulus (GPa) = 66.19325 69.66361 67.92843
# Shear Modulus (GPa) = 22.13159 24.10564 23.11862
#
# Velocity S-wave (km/s) = 3.34211 3.48798 3.41582
# Velocity P-wave (km/s) = 6.94984 7.16800 7.05976
#
# Compressibility (1/GPa) = 0.01510728
#
# Stress axis : x y z
#
# Youngs Moduli (GPa) = 64.81540 57.06020 82.63934
#
# Poissons Ratio (x) = 0.28481 0.40283
# Poissons Ratio (y) = 0.32352 0.42210
# Poissons Ratio (z) = 0.31594 0.29145
#
# Static dielectric constant tensor:
#      x y z
#    x 3.658390 0.000000 0.000000 
#    y 0.000000 3.496120 0.000000 
#    z 0.000000 0.000000 3.846450 
# 
# 
# High freq. dielectric constant tensor:
#      x y z
#    x 1.762340 0.000000 0.000000 
#    y 0.000000 1.763630 0.000000 
#    z 0.000000 0.000000 1.774000 
# 
# From -- ./inp_files/26524.got.cif
#   From: 2010.03.12/outbox.cif.g09.slc.cpg/sg68_14_cif.got.tgz:26524.got - 2010.04.10 23:14:56.
