data_PCOD8282402
_publ_section_title
;
Structure prediction by ZEFSAII (Michael W. Deem and Ramdas Pophale) SiO2 
 PCOD8282402
Probable space group: C C C A
;
_chemical_formula_sum "Si O2"
_cell_formula_units_Z 76
_cell_length_a 16.082686
_cell_length_b 16.036526
_cell_length_c 13.470709
_cell_angle_alpha 90.000000
_cell_angle_beta 90.000000
_cell_angle_gamma 90.000000
_cell_volume 3474.236111
_symmetry_space_group_name_H-M "C C C A"
_symmetry_group_IT_number 68
_space_group.IT_coordinate_system_code '2'
_symmetry_cell_setting 'orthorhombic'
loop_
_space_group_symop_operation_xyz
x,y,z
-x,1/2-y,z
x,1/2-y,1/2-z
-x,y,1/2-z
-x,-y,-z
x,1/2+y,-z
-x,1/2+y,1/2+z
x,-y,1/2+z
1/2+x,1/2+y,z
1/2-x,-y,z
1/2+x,-y,1/2-z
1/2-x,1/2+y,1/2-z
1/2-x,1/2-y,-z
1/2+x,y,-z
1/2-x,y,1/2+z
1/2+x,1/2-y,1/2+z
loop_
_atom_site_type_symbol
_atom_site_label
_atom_site_fract_x
_atom_site_fract_y
_atom_site_fract_z
Si Si1 0.602297 0.888359 0.829443
Si Si2 0.134429 0.159763 0.240641
Si Si3 0.738247 0.158103 0.953006
Si Si4 0.781764 0.089869 0.655851
Si Si5 0.000000 0.974471 0.750000
Si Si6 0.500000 0.750000 0.750000
O O1 0.675306 0.881466 0.910697
O O2 0.633982 0.895959 0.715676
O O3 0.552836 0.802454 0.829489
O O4 0.538305 0.967506 0.839658
O O5 0.090541 0.250000 0.250000
O O6 0.165565 0.149519 0.127716
O O7 0.214982 0.160153 0.311699
O O8 0.074162 0.087575 0.282486
O O9 0.750000 0.250000 0.000000
O O10 0.704798 0.097023 0.038666
O O11 0.750000 0.000000 0.688923
#
# Coordination Sequence:
#
# PCOD8282402 Si02
#       6
#    16  16  16  16   8   4
#     4  10  23  41  66  94 128 170 208 266 326 390
#     4  11  23  43  66  90 130 174 214 272 329 394
#     4  11  23  40  70  98 121 166 227 272 320 385
#     4  11  22  40  67  95 123 159 222 273 316 381
#     4  11  23  43  63  92 134 178 209 257 341 399
#     4  10  20  40  66  84 134 164 198 248 328 386
#
# _framework density 21.875311
#
# number of rings (size 3 to 8) (size 9 to 14) (size 15 to 20)
#    0.000    1.263    4.211    1.579    5.895    0.000 
#    0.000    8.421    0.000    0.000    0.000    0.000 
#    0.000    0.000    0.000    0.000    0.000    0.000 
#
# Total GULP energy -470839.750798 kJ/mol
# GULP energy per Si atom -12390.519758 kJ/mol
# Density = 2.182552 g / cm^3
# Si number density = 21.875311 Si / 1000 Ang^3
#
#
#
# Elastic Constant Matrix: (Units=GPa)
#
#
# Indices 1 2 3 4 5 6 
#
# 1 95.7198 44.5368 41.9644 0.0000 0.0000 0.0000
# 2 44.5368 135.1682 22.1994 0.0000 0.0000 0.0000
# 3 41.9644 22.1994 123.1402 0.0000 0.0000 0.0000
# 4 0.0000 0.0000 0.0000 27.6053 0.0000 0.0000
# 5 0.0000 0.0000 0.0000 0.0000 21.3870 0.0000
# 6 0.0000 0.0000 0.0000 0.0000 0.0000 45.3127
#
#
#
# Elastic Compliance Matrix: (Units=1/GPa)
#
#
# Indices 1 2 3 4 5 6 
#
# 1 0.014085 -0.003970 -0.004084 0.000000 0.000000 0.000000
# 2 -0.003970 0.008743 -0.000223 0.000000 0.000000 0.000000
# 3 -0.004084 -0.000223 0.009553 0.000000 0.000000 0.000000
# 4 0.000000 0.000000 0.000000 0.036225 0.000000 0.000000
# 5 0.000000 0.000000 0.000000 0.000000 0.046757 0.000000
# 6 0.000000 0.000000 0.000000 0.000000 0.000000 0.022069
#
#
# Mechanical properties :
#
#
# Convention : Reuss Voigt Hill
#
# Bulk Modulus (GPa) = 63.18816 63.49217 63.34016
# Shear Modulus (GPa) = 31.39472 35.21616 33.30544
#
# Velocity S-wave (km/s) = 3.79247 4.01666 3.90617
# Velocity P-wave (km/s) = 6.93725 7.11330 7.02582
#
# Compressibility (1/GPa) = 0.01582575
#
# Stress axis : x y z
#
# Youngs Moduli (GPa) = 70.99778 114.37774 104.68012
#
# Poissons Ratio (x) = 0.45409 0.42754
# Poissons Ratio (y) = 0.28187 0.02337
# Poissons Ratio (z) = 0.28997 0.02553
#
# Static dielectric constant tensor:
#      x y z
#    x 3.965630 0.000000 0.000000 
#    y 0.000000 4.203650 0.000000 
#    z 0.000000 0.000000 3.720290 
# 
# 
# High freq. dielectric constant tensor:
#      x y z
#    x 1.859200 0.000000 0.000000 
#    y 0.000000 1.884470 0.000000 
#    z 0.000000 0.000000 1.826050 
# 
# From -- ./inp_files/23540.got.cif
#   From: 2010.03.12/outbox.cif.g09.slc.cpg/sg68_12_cif.got.tgz:23540.got - 2010.04.10 23:14:56.
