data_PCOD8282341
_publ_section_title
;
Structure prediction by ZEFSAII (Michael W. Deem and Ramdas Pophale) SiO2 
 PCOD8282341
Probable space group: C C C A
;
_chemical_formula_sum "Si O2"
_cell_formula_units_Z 76
_cell_length_a 28.557667
_cell_length_b 8.240631
_cell_length_c 15.937746
_cell_angle_alpha 90.000000
_cell_angle_beta 90.000000
_cell_angle_gamma 90.000000
_cell_volume 3750.680703
_symmetry_space_group_name_H-M "C C C A"
_symmetry_group_IT_number 68
_space_group.IT_coordinate_system_code '2'
_symmetry_cell_setting 'orthorhombic'
loop_
_space_group_symop_operation_xyz
x,y,z
-x,1/2-y,z
x,1/2-y,1/2-z
-x,y,1/2-z
-x,-y,-z
x,1/2+y,-z
-x,1/2+y,1/2+z
x,-y,1/2+z
1/2+x,1/2+y,z
1/2-x,-y,z
1/2+x,-y,1/2-z
1/2-x,1/2+y,1/2-z
1/2-x,1/2-y,-z
1/2+x,y,-z
1/2-x,y,1/2+z
1/2+x,1/2-y,1/2+z
loop_
_atom_site_type_symbol
_atom_site_label
_atom_site_fract_x
_atom_site_fract_y
_atom_site_fract_z
Si Si1 0.951038 0.053810 0.607561
Si Si2 0.801135 0.669189 0.005836
Si Si3 0.285496 0.750000 0.750000
Si Si4 0.000000 0.750000 0.968269
Si Si5 0.250000 0.500000 0.368427
Si Si6 0.342637 0.567446 0.614278
Si Si7 0.000000 0.250000 0.750000
O O1 0.960344 0.169349 0.527421
O O2 0.896596 0.025222 0.624125
O O3 0.968763 0.134094 0.692780
O O4 0.976016 0.881645 0.592034
O O5 0.795916 0.515869 0.071374
O O6 0.838893 0.791136 0.044630
O O7 0.750000 0.750000 0.000000
O O8 0.817154 0.597376 0.916912
O O9 0.249567 0.660999 0.812122
O O10 0.318737 0.621977 0.701471
#
# Coordination Sequence:
#
# PCOD8282341 Si02
#       7
#    16  16   8   8   8  16   4
#     4  10  20  39  62  91 119 156 198 249 309 369
#     4  11  21  37  59  83 114 159 204 247 296 341
#     4  10  25  34  56  83 120 158 200 247 298 349
#     4   9  20  38  64  89 116 154 196 249 308 372
#     4  10  22  36  54  78 112 160 202 236 298 346
#     4  11  22  37  60  88 119 154 206 250 290 362
#     4  10  22  38  68  82 132 160 184 246 332 380
#
# _framework density 20.262988
#
# number of rings (size 3 to 8) (size 9 to 14) (size 15 to 20)
#    0.000    1.684    2.105    1.895    5.895    0.421 
#    0.000    0.000    4.632    0.000    0.000    0.000 
#    0.000    0.000    0.000    0.000    0.000    0.000 
#
# Total GULP energy -470981.030805 kJ/mol
# GULP energy per Si atom -12394.237653 kJ/mol
# Density = 2.021687 g / cm^3
# Si number density = 20.262988 Si / 1000 Ang^3
#
#
#
# Elastic Constant Matrix: (Units=GPa)
#
#
# Indices 1 2 3 4 5 6 
#
# 1 124.1143 57.3262 51.2039 0.0000 0.0000 0.0000
# 2 57.3262 95.6470 54.4846 0.0000 0.0000 0.0000
# 3 51.2039 54.4846 114.6813 0.0000 0.0000 0.0000
# 4 0.0000 0.0000 0.0000 51.6156 0.0000 0.0000
# 5 0.0000 0.0000 0.0000 0.0000 15.3886 0.0000
# 6 0.0000 0.0000 0.0000 0.0000 0.0000 25.0795
#
#
#
# Elastic Compliance Matrix: (Units=1/GPa)
#
#
# Indices 1 2 3 4 5 6 
#
# 1 0.011676 -0.005523 -0.002589 0.000000 0.000000 0.000000
# 2 -0.005523 0.016947 -0.005585 0.000000 0.000000 0.000000
# 3 -0.002589 -0.005585 0.012530 0.000000 0.000000 0.000000
# 4 0.000000 0.000000 0.000000 0.019374 0.000000 0.000000
# 5 0.000000 0.000000 0.000000 0.000000 0.064983 0.000000
# 6 0.000000 0.000000 0.000000 0.000000 0.000000 0.039873
#
#
# Mechanical properties :
#
#
# Convention : Reuss Voigt Hill
#
# Bulk Modulus (GPa) = 72.68990 73.38576 73.03783
# Shear Modulus (GPa) = 25.33375 29.84528 27.58951
#
# Velocity S-wave (km/s) = 3.53972 3.84200 3.69395
# Velocity P-wave (km/s) = 7.25653 7.48175 7.37000
#
# Compressibility (1/GPa) = 0.01375707
#
# Stress axis : x y z
#
# Youngs Moduli (GPa) = 85.64261 59.00663 79.81143
#
# Poissons Ratio (x) = 0.32591 0.20665
# Poissons Ratio (y) = 0.47303 0.44578
# Poissons Ratio (z) = 0.22175 0.32958
#
# Static dielectric constant tensor:
#      x y z
#    x 3.376390 0.000000 0.000000 
#    y 0.000000 3.959460 0.000000 
#    z 0.000000 0.000000 3.986690 
# 
# 
# High freq. dielectric constant tensor:
#      x y z
#    x 1.767420 0.000000 0.000000 
#    y 0.000000 1.804070 0.000000 
#    z 0.000000 0.000000 1.798990 
# 
# From -- ./inp_files/28394.got.cif
#   From: 2010.03.12/outbox.cif.g09.slc.cpg/sg68_15_cif.got.tgz:28394.got - 2010.04.10 23:14:56.
