data_PCOD8282629
_publ_section_title
;
Structure prediction by ZEFSAII (Michael W. Deem and Ramdas Pophale) SiO2 
 PCOD8282629
Probable space group: C C C A
;
_chemical_formula_sum "Si O2"
_cell_formula_units_Z 56
_cell_length_a 34.357509
_cell_length_b 4.939204
_cell_length_c 14.735597
_cell_angle_alpha 90.000000
_cell_angle_beta 90.000000
_cell_angle_gamma 90.000000
_cell_volume 2500.612331
_symmetry_space_group_name_H-M "C C C A"
_symmetry_group_IT_number 68
_space_group.IT_coordinate_system_code '2'
_symmetry_cell_setting 'orthorhombic'
loop_
_space_group_symop_operation_xyz
x,y,z
-x,1/2-y,z
x,1/2-y,1/2-z
-x,y,1/2-z
-x,-y,-z
x,1/2+y,-z
-x,1/2+y,1/2+z
x,-y,1/2+z
1/2+x,1/2+y,z
1/2-x,-y,z
1/2+x,-y,1/2-z
1/2-x,1/2+y,1/2-z
1/2-x,1/2-y,-z
1/2+x,y,-z
1/2-x,y,1/2+z
1/2+x,1/2-y,1/2+z
loop_
_atom_site_type_symbol
_atom_site_label
_atom_site_fract_x
_atom_site_fract_y
_atom_site_fract_z
Si Si1 0.432071 0.011547 0.190852
Si Si2 0.000000 0.750000 0.431835
Si Si3 0.794355 0.001341 0.312822
Si Si4 0.864335 0.504590 0.058449
O O1 0.447284 0.750000 0.250000
O O2 0.397970 0.906168 0.126382
O O3 0.412953 0.250000 0.250000
O O4 0.464962 0.176131 0.135440
O O5 0.000000 0.500000 0.500000
O O6 0.804678 0.750000 0.250000
O O7 0.803342 0.250000 0.250000
O O8 0.750000 0.000000 0.348420
O O9 0.821539 0.024838 0.400064
O O10 0.869033 0.815435 0.029411
#
# Coordination Sequence:
#
# PCOD8282629 Si02
#       4
#    16   8  16  16
#     4  12  25  44  68  94 127 170 216 259 317 392
#     4  12  25  44  67  96 130 160 204 266 327 378
#     4  10  21  39  62  89 125 170 215 260 315 381
#     4  12  24  40  63  94 129 166 212 267 324 374
#
# _framework density 22.394513
#
# number of rings (size 3 to 8) (size 9 to 14) (size 15 to 20)
#    0.000    0.571    0.000    9.000    0.000    2.286 
#    0.000    0.000    0.000    0.000    0.000    0.000 
#    0.000    0.000    0.000    0.000    0.000    0.000 
#
# Total GULP energy -347041.402577 kJ/mol
# GULP energy per Si atom -12394.335806 kJ/mol
# Density = 2.234354 g / cm^3
# Si number density = 22.394513 Si / 1000 Ang^3
#
#
#
# Elastic Constant Matrix: (Units=GPa)
#
#
# Indices 1 2 3 4 5 6 
#
# 1 130.8282 36.5806 63.4636 0.0000 0.0000 0.0000
# 2 36.5806 159.5559 51.0794 0.0000 0.0000 0.0000
# 3 63.4636 51.0794 107.8844 0.0000 0.0000 0.0000
# 4 0.0000 0.0000 0.0000 56.4352 0.0000 0.0000
# 5 0.0000 0.0000 0.0000 0.0000 33.4343 0.0000
# 6 0.0000 0.0000 0.0000 0.0000 0.0000 29.4869
#
#
#
# Elastic Compliance Matrix: (Units=1/GPa)
#
#
# Indices 1 2 3 4 5 6 
#
# 1 0.010732 -0.000518 -0.006068 0.000000 0.000000 0.000000
# 2 -0.000518 0.007412 -0.003205 0.000000 0.000000 0.000000
# 3 -0.006068 -0.003205 0.014356 0.000000 0.000000 0.000000
# 4 0.000000 0.000000 0.000000 0.017719 0.000000 0.000000
# 5 0.000000 0.000000 0.000000 0.000000 0.029909 0.000000
# 6 0.000000 0.000000 0.000000 0.000000 0.000000 0.033913
#
#
# Mechanical properties :
#
#
# Convention : Reuss Voigt Hill
#
# Bulk Modulus (GPa) = 77.40564 77.83508 77.62036
# Shear Modulus (GPa) = 36.25042 40.34760 38.29901
#
# Velocity S-wave (km/s) = 4.02770 4.24922 4.13994
# Velocity P-wave (km/s) = 7.50129 7.67504 7.58866
#
# Compressibility (1/GPa) = 0.01291896
#
# Stress axis : x y z
#
# Youngs Moduli (GPa) = 93.18006 134.91519 69.65749
#
# Poissons Ratio (x) = 0.06987 0.42267
# Poissons Ratio (y) = 0.04826 0.22323
# Poissons Ratio (z) = 0.56541 0.43236
#
# Static dielectric constant tensor:
#      x y z
#    x 4.013190 0.000000 0.000000 
#    y 0.000000 4.214010 0.000000 
#    z 0.000000 0.000000 10.458390 
# 
# 
# High freq. dielectric constant tensor:
#      x y z
#    x 1.883900 0.000000 0.000000 
#    y 0.000000 1.906450 0.000000 
#    z 0.000000 0.000000 1.892460 
# 
# From -- ./inp_files/26232.got.cif
#   From: 2010.03.12/outbox.cif.g09.slc.cpg/sg68_14_cif.got.tgz:26232.got - 2010.04.10 23:14:56.
