data_PCOD8282310
_publ_section_title
;
Structure prediction by ZEFSAII (Michael W. Deem and Ramdas Pophale) SiO2 
 PCOD8282310
Probable space group: C C C A
;
_chemical_formula_sum "Si O2"
_cell_formula_units_Z 56
_cell_length_a 17.576952
_cell_length_b 11.219359
_cell_length_c 13.819473
_cell_angle_alpha 90.000000
_cell_angle_beta 90.000000
_cell_angle_gamma 90.000000
_cell_volume 2725.229575
_symmetry_space_group_name_H-M "C C C A"
_symmetry_group_IT_number 68
_space_group.IT_coordinate_system_code '2'
_symmetry_cell_setting 'orthorhombic'
loop_
_space_group_symop_operation_xyz
x,y,z
-x,1/2-y,z
x,1/2-y,1/2-z
-x,y,1/2-z
-x,-y,-z
x,1/2+y,-z
-x,1/2+y,1/2+z
x,-y,1/2+z
1/2+x,1/2+y,z
1/2-x,-y,z
1/2+x,-y,1/2-z
1/2-x,1/2+y,1/2-z
1/2-x,1/2-y,-z
1/2+x,y,-z
1/2-x,y,1/2+z
1/2+x,1/2-y,1/2+z
loop_
_atom_site_type_symbol
_atom_site_label
_atom_site_fract_x
_atom_site_fract_y
_atom_site_fract_z
Si Si1 0.104968 0.890763 0.974484
Si Si2 0.636960 0.325340 0.654848
Si Si3 0.014447 0.975047 0.146726
Si Si4 0.750000 0.000000 0.437736
O O1 0.112650 0.758139 0.934412
O O2 0.064178 0.980867 0.900349
O O3 0.188355 0.942178 0.991868
O O4 0.057597 0.884440 0.074929
O O5 0.655202 0.250000 0.750000
O O6 0.565819 0.410574 0.671815
O O7 0.712777 0.399101 0.630049
O O8 0.000000 0.910229 0.250000
#
# Coordination Sequence:
#
# PCOD8282310 Si02
#       4
#    16  16  16   8
#     4  10  21  37  63  91 129 159 212 262 318 374
#     4  11  21  38  66  90 125 169 215 257 324 382
#     4  10  20  38  64  94 119 168 217 265 309 379
#     4  10  24  40  58  92 128 168 204 264 324 384
#
# _framework density 20.548729000000002
#
# number of rings (size 3 to 8) (size 9 to 14) (size 15 to 20)
#    0.000    1.714    2.857    1.714    0.000    1.143 
#    0.000    0.000    0.000    6.857    0.000    0.000 
#    0.000    0.000    0.000    0.000    0.000    0.000 
#
# Total GULP energy -347283.051131 kJ/mol
# GULP energy per Si atom -12402.966112 kJ/mol
# Density = 2.050196 g / cm^3
# Si number density = 20.548729 Si / 1000 Ang^3
#
#
#
# Elastic Constant Matrix: (Units=GPa)
#
#
# Indices 1 2 3 4 5 6 
#
# 1 125.1772 26.5740 47.7847 0.0000 0.0000 0.0000
# 2 26.5740 79.4446 49.3850 0.0000 0.0000 0.0000
# 3 47.7847 49.3850 166.9242 0.0000 0.0000 0.0000
# 4 0.0000 0.0000 0.0000 35.9264 0.0000 0.0000
# 5 0.0000 0.0000 0.0000 0.0000 23.2200 0.0000
# 6 0.0000 0.0000 0.0000 0.0000 0.0000 29.9709
#
#
#
# Elastic Compliance Matrix: (Units=1/GPa)
#
#
# Indices 1 2 3 4 5 6 
#
# 1 0.009165 -0.001758 -0.002103 0.000000 0.000000 0.000000
# 2 -0.001758 0.015761 -0.004160 0.000000 0.000000 0.000000
# 3 -0.002103 -0.004160 0.007824 0.000000 0.000000 0.000000
# 4 0.000000 0.000000 0.000000 0.027835 0.000000 0.000000
# 5 0.000000 0.000000 0.000000 0.000000 0.043066 0.000000
# 6 0.000000 0.000000 0.000000 0.000000 0.000000 0.033366
#
#
# Mechanical properties :
#
#
# Convention : Reuss Voigt Hill
#
# Bulk Modulus (GPa) = 59.85455 68.78150 64.31803
# Shear Modulus (GPa) = 31.52030 34.34361 32.93195
#
# Velocity S-wave (km/s) = 3.92079 4.09262 4.00763
# Velocity P-wave (km/s) = 7.04898 7.47514 7.26519
#
# Compressibility (1/GPa) = 0.01670717
#
# Stress axis : x y z
#
# Youngs Moduli (GPa) = 109.11241 63.44670 127.81894
#
# Poissons Ratio (x) = 0.11154 0.26886
# Poissons Ratio (y) = 0.19183 0.53169
# Poissons Ratio (z) = 0.22951 0.26392
#
# Static dielectric constant tensor:
#      x y z
#    x 3.807080 0.000000 0.000000 
#    y 0.000000 3.553870 0.000000 
#    z 0.000000 0.000000 3.877560 
# 
# 
# High freq. dielectric constant tensor:
#      x y z
#    x 1.813400 0.000000 0.000000 
#    y 0.000000 1.785390 0.000000 
#    z 0.000000 0.000000 1.813440 
# 
# From -- ./inp_files/13940.got.cif
#   From: 2010.03.12/outbox.cif.g09.slc.cpg/sg68_7_cif.got.tgz:13940.got - 2010.04.10 23:14:56.
