data_PCOD8282938
_publ_section_title
;
Structure prediction by ZEFSAII (Michael W. Deem and Ramdas Pophale) SiO2 
 PCOD8282938
Probable space group: C C C A
;
_chemical_formula_sum "Si O2"
_cell_formula_units_Z 100
_cell_length_a 14.296138
_cell_length_b 15.460534
_cell_length_c 20.740827
_cell_angle_alpha 90.000000
_cell_angle_beta 90.000000
_cell_angle_gamma 90.000000
_cell_volume 4584.260527
_symmetry_space_group_name_H-M "C C C A"
_symmetry_group_IT_number 68
_space_group.IT_coordinate_system_code '2'
_symmetry_cell_setting 'orthorhombic'
loop_
_space_group_symop_operation_xyz
x,y,z
-x,1/2-y,z
x,1/2-y,1/2-z
-x,y,1/2-z
-x,-y,-z
x,1/2+y,-z
-x,1/2+y,1/2+z
x,-y,1/2+z
1/2+x,1/2+y,z
1/2-x,-y,z
1/2+x,-y,1/2-z
1/2-x,1/2+y,1/2-z
1/2-x,1/2-y,-z
1/2+x,y,-z
1/2-x,y,1/2+z
1/2+x,1/2-y,1/2+z
loop_
_atom_site_type_symbol
_atom_site_label
_atom_site_fract_x
_atom_site_fract_y
_atom_site_fract_z
Si Si1 0.202953 0.093672 0.382698
Si Si2 0.587760 0.858015 0.513541
Si Si3 0.880101 0.663308 0.004612
Si Si4 0.500000 0.250000 0.250000
Si Si5 0.021944 0.045192 0.318793
Si Si6 0.145461 0.999858 0.086514
Si Si7 0.889564 0.372506 0.838806
O O1 0.198328 0.133997 0.453741
O O2 0.098220 0.103385 0.355680
O O3 0.277453 0.145179 0.338538
O O4 0.250000 0.000000 0.389229
O O5 0.639901 0.764809 0.517409
O O6 0.486671 0.847984 0.479811
O O7 0.641714 0.932976 0.474025
O O8 0.575183 0.887116 0.587625
O O9 0.873031 0.599792 0.066361
O O10 0.567060 0.204516 0.200004
O O11 0.000000 0.089769 0.250000
O O12 0.927550 0.030297 0.359261
O O13 0.077300 0.957542 0.301192
O O14 0.250000 0.000000 0.116006
#
# Coordination Sequence:
#
# PCOD8282938 Si02
#       7
#    16  16  16   4  16  16  16
#     4  10  22  41  68  91 123 176 216 262 332 399
#     4  11  23  40  67  99 133 173 211 277 339 393
#     4  11  21  40  67  96 134 166 214 270 336 400
#     4  12  24  44  64 100 142 168 216 280 324 400
#     4  11  23  44  63  89 130 171 227 274 321 399
#     4  12  24  40  67  99 133 171 219 282 341 394
#     4  11  23  41  66  95 132 175 212 266 334 395
#
# _framework density 21.813769000000001
#
# number of rings (size 3 to 8) (size 9 to 14) (size 15 to 20)
#    0.000    0.960    4.000    4.800    0.000    4.480 
#    0.000    0.000    0.000    0.960    0.000    0.000 
#    0.000    0.000    0.000    0.000    0.000    0.000 
#
# Total GULP energy -619529.122226 kJ/mol
# GULP energy per Si atom -12390.582445 kJ/mol
# Density = 2.176412 g / cm^3
# Si number density = 21.813769 Si / 1000 Ang^3
#
#
#
# Elastic Constant Matrix: (Units=GPa)
#
#
# Indices 1 2 3 4 5 6 
#
# 1 160.1627 20.0442 47.0902 0.0000 0.0000 0.0000
# 2 20.0442 70.8363 15.2189 0.0000 0.0000 0.0000
# 3 47.0902 15.2189 101.8083 0.0000 0.0000 0.0000
# 4 0.0000 0.0000 0.0000 230.2030 0.0000 0.0000
# 5 0.0000 0.0000 0.0000 0.0000 130.4677 0.0000
# 6 0.0000 0.0000 0.0000 0.0000 0.0000 17.5426
#
#
#
# Elastic Compliance Matrix: (Units=1/GPa)
#
#
# Indices 1 2 3 4 5 6 
#
# 1 0.007358 -0.001396 -0.003195 0.000000 0.000000 0.000000
# 2 -0.001396 0.014850 -0.001574 0.000000 0.000000 0.000000
# 3 -0.003195 -0.001574 0.011535 0.000000 0.000000 0.000000
# 4 0.000000 0.000000 0.000000 0.004344 0.000000 0.000000
# 5 0.000000 0.000000 0.000000 0.000000 0.007665 0.000000
# 6 0.000000 0.000000 0.000000 0.000000 0.000000 0.057004
#
#
# Mechanical properties :
#
#
# Convention : Reuss Voigt Hill
#
# Bulk Modulus (GPa) = 46.69825 55.27930 50.98877
# Shear Modulus (GPa) = 40.90887 92.33960 66.62424
#
# Velocity S-wave (km/s) = 4.33525 6.51328 5.53250
# Velocity P-wave (km/s) = 6.82007 9.05319 8.01479
#
# Compressibility (1/GPa) = 0.02141408
#
# Stress axis : x y z
#
# Youngs Moduli (GPa) = 135.91496 67.33912 86.69034
#
# Poissons Ratio (x) = 0.09398 0.27693
# Poissons Ratio (y) = 0.18968 0.13648
# Poissons Ratio (z) = 0.43418 0.10602
#
# Static dielectric constant tensor:
#      x y z
#    x 4.381860 0.000000 0.000000 
#    y 0.000000 3.915650 0.000000 
#    z 0.000000 0.000000 3.760230 
# 
# 
# High freq. dielectric constant tensor:
#      x y z
#    x 1.884340 0.000000 0.000000 
#    y 0.000000 1.840710 0.000000 
#    z 0.000000 0.000000 1.832450 
# 
# From -- ./inp_files/45460.got.cif
#   From: 2010.03.12/outbox.cif.g09.slc.cpg/sg68_23_cif.got.tgz:45460.got - 2010.04.10 23:14:56.
