data_PCOD8282603
_publ_section_title
;
Structure prediction by ZEFSAII (Michael W. Deem and Ramdas Pophale) SiO2 
 PCOD8282603
Probable space group: C C C A
;
_chemical_formula_sum "Si O2"
_cell_formula_units_Z 64
_cell_length_a 8.700783
_cell_length_b 21.969235
_cell_length_c 14.311781
_cell_angle_alpha 90.000000
_cell_angle_beta 90.000000
_cell_angle_gamma 90.000000
_cell_volume 2735.690446
_symmetry_space_group_name_H-M "C C C A"
_symmetry_group_IT_number 68
_space_group.IT_coordinate_system_code '2'
_symmetry_cell_setting 'orthorhombic'
loop_
_space_group_symop_operation_xyz
x,y,z
-x,1/2-y,z
x,1/2-y,1/2-z
-x,y,1/2-z
-x,-y,-z
x,1/2+y,-z
-x,1/2+y,1/2+z
x,-y,1/2+z
1/2+x,1/2+y,z
1/2-x,-y,z
1/2+x,-y,1/2-z
1/2-x,1/2+y,1/2-z
1/2-x,1/2-y,-z
1/2+x,y,-z
1/2-x,y,1/2+z
1/2+x,1/2-y,1/2+z
loop_
_atom_site_type_symbol
_atom_site_label
_atom_site_fract_x
_atom_site_fract_y
_atom_site_fract_z
Si Si1 0.784355 0.120457 0.123494
Si Si2 0.843021 0.626322 0.195041
Si Si3 0.317357 0.750978 0.601736
Si Si4 0.506951 0.070343 0.476955
O O1 0.770284 0.092506 0.229015
O O2 0.752877 0.190997 0.149092
O O3 0.659643 0.093881 0.051419
O O4 0.945214 0.106868 0.071984
O O5 0.766932 0.688764 0.157194
O O6 0.873483 0.581650 0.107734
O O7 0.000000 0.642123 0.250000
O O8 0.500000 0.750000 0.595948
O O9 0.250000 0.750000 0.500000
O O10 0.500000 0.000000 0.500000
#
# Coordination Sequence:
#
# PCOD8282603 Si02
#       4
#    16  16  16  16
#     4  11  22  41  67  96 128 172 218 271 333 399
#     4  10  21  38  67  98 126 172 223 262 342 407
#     4  12  20  37  69 101 134 169 211 276 340 406
#     4  11  23  42  64  92 131 174 224 272 318 385
#
# _framework density 23.394459000000001
#
# number of rings (size 3 to 8) (size 9 to 14) (size 15 to 20)
#    0.000    1.000    7.500    1.500    0.000    0.000 
#    0.000   16.250    0.000    1.500    0.000    0.000 
#    0.000    0.000    0.000    0.000    0.000    0.000 
#
# Total GULP energy -396567.613128 kJ/mol
# GULP energy per Si atom -12392.737910 kJ/mol
# Density = 2.334121 g / cm^3
# Si number density = 23.394459 Si / 1000 Ang^3
#
#
#
# Elastic Constant Matrix: (Units=GPa)
#
#
# Indices 1 2 3 4 5 6 
#
# 1 21.6045 20.2160 22.7982 0.0000 0.0000 0.0000
# 2 20.2160 154.8220 49.1560 0.0000 0.0000 0.0000
# 3 22.7982 49.1560 166.3452 0.0000 0.0000 0.0000
# 4 0.0000 0.0000 0.0000 24.7626 0.0000 0.0000
# 5 0.0000 0.0000 0.0000 0.0000 37.9753 0.0000
# 6 0.0000 0.0000 0.0000 0.0000 0.0000 21.7620
#
#
#
# Elastic Compliance Matrix: (Units=1/GPa)
#
#
# Indices 1 2 3 4 5 6 
#
# 1 0.058190 -0.005591 -0.006323 0.000000 0.000000 0.000000
# 2 -0.005591 0.007665 -0.001499 0.000000 0.000000 0.000000
# 3 -0.006323 -0.001499 0.007321 0.000000 0.000000 0.000000
# 4 0.000000 0.000000 0.000000 0.040383 0.000000 0.000000
# 5 0.000000 0.000000 0.000000 0.000000 0.026333 0.000000
# 6 0.000000 0.000000 0.000000 0.000000 0.000000 0.045952
#
#
# Mechanical properties :
#
#
# Convention : Reuss Voigt Hill
#
# Bulk Modulus (GPa) = 21.57440 58.56800 40.07120
# Shear Modulus (GPa) = 21.91829 33.60677 27.76253
#
# Velocity S-wave (km/s) = 3.06420 3.79427 3.44861
# Velocity P-wave (km/s) = 4.66489 6.65467 5.74655
#
# Compressibility (1/GPa) = 0.04635124
#
# Stress axis : x y z
#
# Youngs Moduli (GPa) = 17.18496 130.46479 136.59142
#
# Poissons Ratio (x) = 0.72939 0.86368
# Poissons Ratio (y) = 0.09608 0.20472
# Poissons Ratio (z) = 0.10866 0.19554
#
# Static dielectric constant tensor:
#      x y z
#    x 4.121770 0.000000 0.000000 
#    y 0.000000 8.588400 0.000000 
#    z 0.000000 0.000000 4.982890 
# 
# 
# High freq. dielectric constant tensor:
#      x y z
#    x 1.894350 0.000000 0.000000 
#    y 0.000000 1.909180 0.000000 
#    z 0.000000 0.000000 1.958510 
# 
# From -- ./inp_files/19194.got.cif
#   From: 2010.03.12/outbox.cif.g09.slc.cpg/sg68_10_cif.got.tgz:19194.got - 2010.04.10 23:14:56.
