data_PCOD8282771
_publ_section_title
;
Structure prediction by ZEFSAII (Michael W. Deem and Ramdas Pophale) SiO2 
 PCOD8282771
Probable space group: C C C A
;
_chemical_formula_sum "Si O2"
_cell_formula_units_Z 104
_cell_length_a 9.087802
_cell_length_b 24.767031
_cell_length_c 21.103756
_cell_angle_alpha 90.000000
_cell_angle_beta 90.000000
_cell_angle_gamma 90.000000
_cell_volume 4749.988531
_symmetry_space_group_name_H-M "C C C A"
_symmetry_group_IT_number 68
_space_group.IT_coordinate_system_code '2'
_symmetry_cell_setting 'orthorhombic'
loop_
_space_group_symop_operation_xyz
x,y,z
-x,1/2-y,z
x,1/2-y,1/2-z
-x,y,1/2-z
-x,-y,-z
x,1/2+y,-z
-x,1/2+y,1/2+z
x,-y,1/2+z
1/2+x,1/2+y,z
1/2-x,-y,z
1/2+x,-y,1/2-z
1/2-x,1/2+y,1/2-z
1/2-x,1/2-y,-z
1/2+x,y,-z
1/2-x,y,1/2+z
1/2+x,1/2-y,1/2+z
loop_
_atom_site_type_symbol
_atom_site_label
_atom_site_fract_x
_atom_site_fract_y
_atom_site_fract_z
Si Si1 0.424277 0.375108 0.999293
Si Si2 0.763489 0.250000 0.250000
Si Si3 0.651400 0.771653 0.114850
Si Si4 0.142641 0.360834 0.783583
Si Si5 0.340437 0.053436 0.776152
Si Si6 0.335603 0.676627 0.921992
Si Si7 0.175536 0.898001 0.913578
O O1 0.310701 0.348270 0.951723
O O2 0.537025 0.412865 0.959160
O O3 0.523812 0.328688 0.032642
O O4 0.331126 0.410124 0.050854
O O5 0.865814 0.241567 0.189115
O O6 0.658756 0.301490 0.244853
O O7 0.500000 0.750000 0.083178
O O8 0.796565 0.739652 0.089651
O O9 0.673246 0.834207 0.101190
O O10 0.281760 0.397096 0.765678
O O11 0.127109 0.357385 0.859015
O O12 0.000000 0.387230 0.750000
O O13 0.500000 0.041142 0.750000
O O14 0.336812 0.067043 0.850617
O O15 0.250000 0.000000 0.763021
#
# Coordination Sequence:
#
# PCOD8282771 Si02
#       7
#    16   8  16  16  16  16  16
#     4  10  22  40  60  91 133 180 224 264 315 392
#     4  10  22  34  60 100 141 179 214 264 337 401
#     4  11  21  34  58  94 138 181 223 268 328 393
#     4  11  22  41  67 101 136 171 217 273 334 402
#     4  12  27  47  73  99 130 169 220 284 349 402
#     4  10  22  35  59  91 133 178 219 258 318 384
#     4  11  23  42  66  95 132 176 221 276 330 394
#
# _framework density 21.894788999999999
#
# number of rings (size 3 to 8) (size 9 to 14) (size 15 to 20)
#    0.000    1.231    3.077    2.769    2.154    4.308 
#    0.000    0.769    0.000    3.692    0.000    0.000 
#    0.000    0.000    0.000    0.000    0.000    0.000 
#
# Total GULP energy -644710.513755 kJ/mol
# GULP energy per Si atom -12398.279111 kJ/mol
# Density = 2.184496 g / cm^3
# Si number density = 21.894789 Si / 1000 Ang^3
#
#
#
# Elastic Constant Matrix: (Units=GPa)
#
#
# Indices 1 2 3 4 5 6 
#
# 1 138.2782 32.0682 41.3466 0.0000 0.0000 0.0000
# 2 32.0682 67.5936 35.0042 0.0000 0.0000 0.0000
# 3 41.3466 35.0042 89.8917 0.0000 0.0000 0.0000
# 4 0.0000 0.0000 0.0000 17.4433 0.0000 0.0000
# 5 0.0000 0.0000 0.0000 0.0000 40.0894 0.0000
# 6 0.0000 0.0000 0.0000 0.0000 0.0000 6.2932
#
#
#
# Elastic Compliance Matrix: (Units=1/GPa)
#
#
# Indices 1 2 3 4 5 6 
#
# 1 0.008731 -0.002583 -0.003010 0.000000 0.000000 0.000000
# 2 -0.002583 0.019296 -0.006326 0.000000 0.000000 0.000000
# 3 -0.003010 -0.006326 0.014972 0.000000 0.000000 0.000000
# 4 0.000000 0.000000 0.000000 0.057329 0.000000 0.000000
# 5 0.000000 0.000000 0.000000 0.000000 0.024944 0.000000
# 6 0.000000 0.000000 0.000000 0.000000 0.000000 0.158902
#
#
# Mechanical properties :
#
#
# Convention : Reuss Voigt Hill
#
# Bulk Modulus (GPa) = 52.18935 56.95573 54.57254
# Shear Modulus (GPa) = 15.90336 25.25480 20.57908
#
# Velocity S-wave (km/s) = 2.69802 3.39995 3.06912
# Velocity P-wave (km/s) = 5.79603 6.44071 6.12685
#
# Compressibility (1/GPa) = 0.01916100
#
# Stress axis : x y z
#
# Youngs Moduli (GPa) = 114.53555 51.82489 66.79088
#
# Poissons Ratio (x) = 0.13389 0.20103
# Poissons Ratio (y) = 0.29590 0.42249
# Poissons Ratio (z) = 0.34474 0.32782
#
# Static dielectric constant tensor:
#      x y z
#    x 4.178250 0.000000 0.000000 
#    y 0.000000 3.496400 0.000000 
#    z 0.000000 0.000000 4.310940 
# 
# 
# High freq. dielectric constant tensor:
#      x y z
#    x 1.878490 0.000000 0.000000 
#    y 0.000000 1.813560 0.000000 
#    z 0.000000 0.000000 1.880920 
# 
# From -- ./inp_files/36581.got.cif
#   From: 2010.03.12/outbox.cif.g09.slc.cpg/sg68_19_cif.got.tgz:36581.got - 2010.04.10 23:14:56.
