data_PCOD8282720
_publ_section_title
;
Structure prediction by ZEFSAII (Michael W. Deem and Ramdas Pophale) SiO2 
 PCOD8282720
Probable space group: C C C A
;
_chemical_formula_sum "Si O2"
_cell_formula_units_Z 116
_cell_length_a 9.096483
_cell_length_b 24.883005
_cell_length_c 25.683498
_cell_angle_alpha 90.000000
_cell_angle_beta 90.000000
_cell_angle_gamma 90.000000
_cell_volume 5813.404090
_symmetry_space_group_name_H-M "C C C A"
_symmetry_group_IT_number 68
_space_group.IT_coordinate_system_code '2'
_symmetry_cell_setting 'orthorhombic'
loop_
_space_group_symop_operation_xyz
x,y,z
-x,1/2-y,z
x,1/2-y,1/2-z
-x,y,1/2-z
-x,-y,-z
x,1/2+y,-z
-x,1/2+y,1/2+z
x,-y,1/2+z
1/2+x,1/2+y,z
1/2-x,-y,z
1/2+x,-y,1/2-z
1/2-x,1/2+y,1/2-z
1/2-x,1/2-y,-z
1/2+x,y,-z
1/2-x,y,1/2+z
1/2+x,1/2-y,1/2+z
loop_
_atom_site_type_symbol
_atom_site_label
_atom_site_fract_x
_atom_site_fract_y
_atom_site_fract_z
Si Si1 0.471099 0.311105 0.670989
Si Si2 0.750958 0.872057 0.482288
Si Si3 0.753673 0.167662 0.261941
Si Si4 0.357437 0.549049 0.894842
Si Si5 0.894014 0.468055 0.961346
Si Si6 0.347279 0.447902 0.274651
Si Si7 0.500000 0.750000 0.750000
Si Si8 0.482225 0.813126 0.444072
O O1 0.500000 0.250000 0.660701
O O2 0.620784 0.336817 0.693922
O O3 0.329926 0.313228 0.708542
O O4 0.435801 0.334632 0.613753
O O5 0.829864 0.904116 0.436233
O O6 0.647844 0.909675 0.517521
O O7 0.647858 0.830255 0.454101
O O8 0.868429 0.839502 0.516145
O O9 0.703172 0.107364 0.248034
O O10 0.616113 0.207980 0.278108
O O11 0.250000 0.500000 0.908001
O O12 0.526060 0.533273 0.905383
O O13 0.347300 0.567081 0.835562
O O14 0.750000 0.500000 0.949765
O O15 0.000000 0.500000 0.000000
O O16 0.500000 0.465142 0.250000
O O17 0.250000 0.500000 0.263064
O O18 0.500000 0.750000 0.450745
#
# Coordination Sequence:
#
# PCOD8282720 Si02
#       8
#    16  16  16  16  16  16   4  16
#     4  10  21  41  68  97 127 173 215 263 335 396
#     4  12  21  41  64  90 125 170 216 260 319 379
#     4  11  21  43  70  97 134 166 222 277 328 398
#     4  11  23  42  67  93 127 167 211 264 329 380
#     4  12  20  37  65  95 122 154 210 273 311 373
#     4  11  27  45  63  93 136 176 211 266 335 409
#     4  12  20  38  76 104 124 162 220 298 332 362
#     4  11  25  41  62  91 134 172 218 261 322 389
#
# _framework density 19.953887000000002
#
# number of rings (size 3 to 8) (size 9 to 14) (size 15 to 20)
#    0.000    0.828    6.207    1.655    1.931    1.655 
#    0.000    0.000    4.552    0.000    0.000    0.000 
#    0.000    0.000    0.000    0.000    0.000    0.000 
#
# Total GULP energy -718617.810325 kJ/mol
# GULP energy per Si atom -12389.962247 kJ/mol
# Density = 1.990847 g / cm^3
# Si number density = 19.953887 Si / 1000 Ang^3
#
#
#
# Elastic Constant Matrix: (Units=GPa)
#
#
# Indices 1 2 3 4 5 6 
#
# 1 130.1008 43.5561 51.9096 0.0000 0.0000 0.0000
# 2 43.5561 105.0526 36.5014 0.0000 0.0000 0.0000
# 3 51.9096 36.5014 109.2511 0.0000 0.0000 0.0000
# 4 0.0000 0.0000 0.0000 23.5792 0.0000 0.0000
# 5 0.0000 0.0000 0.0000 0.0000 28.9447 0.0000
# 6 0.0000 0.0000 0.0000 0.0000 0.0000 29.6730
#
#
#
# Elastic Compliance Matrix: (Units=1/GPa)
#
#
# Indices 1 2 3 4 5 6 
#
# 1 0.010200 -0.002879 -0.003885 0.000000 0.000000 0.000000
# 2 -0.002879 0.011582 -0.002501 0.000000 0.000000 0.000000
# 3 -0.003885 -0.002501 0.011835 0.000000 0.000000 0.000000
# 4 0.000000 0.000000 0.000000 0.042410 0.000000 0.000000
# 5 0.000000 0.000000 0.000000 0.000000 0.034549 0.000000
# 6 0.000000 0.000000 0.000000 0.000000 0.000000 0.033701
#
#
# Mechanical properties :
#
#
# Convention : Reuss Voigt Hill
#
# Bulk Modulus (GPa) = 66.28622 67.59319 66.93971
# Shear Modulus (GPa) = 29.79097 30.60189 30.19643
#
# Velocity S-wave (km/s) = 3.86812 3.92041 3.89435
# Velocity P-wave (km/s) = 7.29668 7.37842 7.33766
#
# Compressibility (1/GPa) = 0.01508609
#
# Stress axis : x y z
#
# Youngs Moduli (GPa) = 98.03688 86.34047 84.49752
#
# Poissons Ratio (x) = 0.24861 0.32823
# Poissons Ratio (y) = 0.28229 0.21137
# Poissons Ratio (z) = 0.38082 0.21598
#
# Static dielectric constant tensor:
#      x y z
#    x 3.231520 0.000000 0.000000 
#    y 0.000000 3.700380 0.000000 
#    z 0.000000 0.000000 3.714450 
# 
# 
# High freq. dielectric constant tensor:
#      x y z
#    x 1.794420 0.000000 0.000000 
#    y 0.000000 1.789210 0.000000 
#    z 0.000000 0.000000 1.766990 
# 
# From -- ./inp_files/43529.got.cif
#   From: 2010.03.12/outbox.cif.g09.slc.cpg/sg68_22_cif.got.tgz:43529.got - 2010.04.10 23:14:56.
