data_PCOD8282395
_publ_section_title
;
Structure prediction by ZEFSAII (Michael W. Deem and Ramdas Pophale) SiO2 
 PCOD8282395
Probable space group: C C C A
;
_chemical_formula_sum "Si O2"
_cell_formula_units_Z 104
_cell_length_a 16.244091
_cell_length_b 19.683868
_cell_length_c 16.551714
_cell_angle_alpha 90.000000
_cell_angle_beta 90.000000
_cell_angle_gamma 90.000000
_cell_volume 5292.353333
_symmetry_space_group_name_H-M "C C C A"
_symmetry_group_IT_number 68
_space_group.IT_coordinate_system_code '2'
_symmetry_cell_setting 'orthorhombic'
loop_
_space_group_symop_operation_xyz
x,y,z
-x,1/2-y,z
x,1/2-y,1/2-z
-x,y,1/2-z
-x,-y,-z
x,1/2+y,-z
-x,1/2+y,1/2+z
x,-y,1/2+z
1/2+x,1/2+y,z
1/2-x,-y,z
1/2+x,-y,1/2-z
1/2-x,1/2+y,1/2-z
1/2-x,1/2-y,-z
1/2+x,y,-z
1/2-x,y,1/2+z
1/2+x,1/2-y,1/2+z
loop_
_atom_site_type_symbol
_atom_site_label
_atom_site_fract_x
_atom_site_fract_y
_atom_site_fract_z
Si Si1 0.277754 0.929807 0.706675
Si Si2 0.925292 0.367824 0.932243
Si Si3 0.134441 0.089906 0.094827
Si Si4 0.500000 0.250000 0.965644
Si Si5 0.703394 0.696170 0.811717
Si Si6 0.956614 0.533595 0.166880
Si Si7 0.870544 0.738805 0.657588
O O1 0.225984 0.930343 0.623129
O O2 0.254717 0.866682 0.763857
O O3 0.373949 0.924203 0.686172
O O4 0.250000 0.000000 0.751942
O O5 0.866206 0.328697 0.871267
O O6 0.982737 0.421046 0.886603
O O7 0.867967 0.406199 0.997566
O O8 0.980864 0.313233 0.977347
O O9 0.113767 0.160503 0.137223
O O10 0.065632 0.035618 0.121333
O O11 0.426999 0.222147 0.907449
O O12 0.661955 0.750000 0.750000
O O13 0.777114 0.735794 0.857356
O O14 0.000000 0.513638 0.250000
O O15 0.898078 0.750000 0.750000
#
# Coordination Sequence:
#
# PCOD8282395 Si02
#       7
#    16  16  16   8  16  16  16
#     4  10  21  42  65  94 126 175 217 263 327 392
#     4  11  25  40  60  98 130 168 215 268 341 385
#     4  10  22  42  63  89 129 166 212 276 322 389
#     4  10  25  36  55  94 134 166 206 274 329 392
#     4  11  22  41  69  95 128 172 224 267 319 406
#     4  11  23  41  68  92 130 171 220 269 329 398
#     4  10  20  40  65  92 121 166 221 265 326 383
#
# _framework density 19.650994000000001
#
# number of rings (size 3 to 8) (size 9 to 14) (size 15 to 20)
#    0.000    1.538    4.615    0.692    2.154    6.154 
#    0.000    2.308    0.000    0.000    0.000    0.000 
#    0.000    0.000    0.000    0.000    0.000    0.000 
#
# Total GULP energy -644640.800657 kJ/mol
# GULP energy per Si atom -12396.938474 kJ/mol
# Density = 1.960627 g / cm^3
# Si number density = 19.650994 Si / 1000 Ang^3
#
#
#
# Elastic Constant Matrix: (Units=GPa)
#
#
# Indices 1 2 3 4 5 6 
#
# 1 123.3977 53.8300 71.7294 0.0000 0.0000 0.0000
# 2 53.8300 124.8169 63.3406 0.0000 0.0000 0.0000
# 3 71.7294 63.3406 131.5160 0.0000 0.0000 0.0000
# 4 0.0000 0.0000 0.0000 34.5698 0.0000 0.0000
# 5 0.0000 0.0000 0.0000 0.0000 22.0173 0.0000
# 6 0.0000 0.0000 0.0000 0.0000 0.0000 29.7304
#
#
#
# Elastic Compliance Matrix: (Units=1/GPa)
#
#
# Indices 1 2 3 4 5 6 
#
# 1 0.012448 -0.002545 -0.005563 0.000000 0.000000 0.000000
# 2 -0.002545 0.011124 -0.003969 0.000000 0.000000 0.000000
# 3 -0.005563 -0.003969 0.012550 0.000000 0.000000 0.000000
# 4 0.000000 0.000000 0.000000 0.028927 0.000000 0.000000
# 5 0.000000 0.000000 0.000000 0.000000 0.045419 0.000000
# 6 0.000000 0.000000 0.000000 0.000000 0.000000 0.033636
#
#
# Mechanical properties :
#
#
# Convention : Reuss Voigt Hill
#
# Bulk Modulus (GPa) = 83.57243 84.17007 83.87125
# Shear Modulus (GPa) = 29.02808 29.98556 29.50682
#
# Velocity S-wave (km/s) = 3.84758 3.91052 3.87918
# Velocity P-wave (km/s) = 7.89678 7.95707 7.92699
#
# Compressibility (1/GPa) = 0.01196567
#
# Stress axis : x y z
#
# Youngs Moduli (GPa) = 80.33323 89.89844 79.68399
#
# Poissons Ratio (x) = 0.22882 0.44332
# Poissons Ratio (y) = 0.20447 0.31628
# Poissons Ratio (z) = 0.44693 0.35682
#
# Static dielectric constant tensor:
#      x y z
#    x 3.684540 0.000000 0.000000 
#    y 0.000000 3.845740 0.000000 
#    z 0.000000 0.000000 3.722120 
# 
# 
# High freq. dielectric constant tensor:
#      x y z
#    x 1.767120 0.000000 0.000000 
#    y 0.000000 1.778320 0.000000 
#    z 0.000000 0.000000 1.763000 
# 
# From -- ./inp_files/23788.got.cif
#   From: 2010.03.12/outbox.cif.g09.slc.cpg/sg68_12_cif.got.tgz:23788.got - 2010.04.10 23:14:56.
