data_PCOD8282685
_publ_section_title
;
Structure prediction by ZEFSAII (Michael W. Deem and Ramdas Pophale) SiO2 
 PCOD8282685
Probable space group: C C C A
;
_chemical_formula_sum "Si O2"
_cell_formula_units_Z 108
_cell_length_a 13.319602
_cell_length_b 32.394354
_cell_length_c 11.886225
_cell_angle_alpha 90.000000
_cell_angle_beta 90.000000
_cell_angle_gamma 90.000000
_cell_volume 5128.667202
_symmetry_space_group_name_H-M "C C C A"
_symmetry_group_IT_number 68
_space_group.IT_coordinate_system_code '2'
_symmetry_cell_setting 'orthorhombic'
loop_
_space_group_symop_operation_xyz
x,y,z
-x,1/2-y,z
x,1/2-y,1/2-z
-x,y,1/2-z
-x,-y,-z
x,1/2+y,-z
-x,1/2+y,1/2+z
x,-y,1/2+z
1/2+x,1/2+y,z
1/2-x,-y,z
1/2+x,-y,1/2-z
1/2-x,1/2+y,1/2-z
1/2-x,1/2-y,-z
1/2+x,y,-z
1/2-x,y,1/2+z
1/2+x,1/2-y,1/2+z
loop_
_atom_site_type_symbol
_atom_site_label
_atom_site_fract_x
_atom_site_fract_y
_atom_site_fract_z
Si Si1 0.669332 0.462277 0.751688
Si Si2 0.388153 0.677369 0.889355
Si Si3 0.536123 0.608547 0.875866
Si Si4 0.666190 0.750000 0.750000
Si Si5 0.332913 0.301073 0.632092
Si Si6 0.501294 0.959009 0.067125
Si Si7 0.264507 0.376679 0.227856
Si Si8 0.500000 0.250000 0.750000
O O1 0.750000 0.500000 0.755928
O O2 0.607215 0.457259 0.867456
O O3 0.592762 0.464411 0.649068
O O4 0.727974 0.420477 0.729836
O O5 0.493130 0.653888 0.906505
O O6 0.405365 0.716814 0.809547
O O7 0.313134 0.644221 0.836376
O O8 0.337122 0.694683 0.999762
O O9 0.500000 0.593259 0.750000
O O10 0.655465 0.615285 0.872357
O O11 0.506923 0.578222 0.977528
O O12 0.736413 0.773587 0.660584
O O13 0.324755 0.347085 0.684677
O O14 0.434277 0.279659 0.672627
O O15 0.500000 0.000000 0.000000
#
# Coordination Sequence:
#
# PCOD8282685 Si02
#       8
#    16  16  16   8  16  16  16   4
#     4  11  26  46  71 105 137 179 234 289 342 418
#     4  10  21  40  65  93 131 173 217 278 337 411
#     4  10  23  43  65  96 139 177 226 288 342 416
#     4   9  20  41  64  96 126 170 225 277 343 407
#     4  10  21  42  65  92 133 173 226 279 346 407
#     4  11  26  43  71  99 136 184 226 284 352 410
#     4  10  23  41  65  97 133 175 227 278 340 411
#     4  10  24  44  62  98 130 180 218 300 332 420
#
# _framework density 21.058102999999999
#
# number of rings (size 3 to 8) (size 9 to 14) (size 15 to 20)
#    0.000    1.778    0.000    2.222    8.296    4.148 
#   16.000    1.481    0.000    0.000    0.000    0.000 
#    0.000    0.000    0.000    0.000    0.000    0.000 
#
# Total GULP energy -669404.074006 kJ/mol
# GULP energy per Si atom -12396.371741 kJ/mol
# Density = 2.101017 g / cm^3
# Si number density = 21.058103 Si / 1000 Ang^3
#
#
#
# Elastic Constant Matrix: (Units=GPa)
#
#
# Indices 1 2 3 4 5 6 
#
# 1 92.8473 60.6206 38.6279 0.0000 0.0000 0.0000
# 2 60.6206 176.9368 61.1899 0.0000 0.0000 0.0000
# 3 38.6279 61.1899 124.2808 0.0000 0.0000 0.0000
# 4 0.0000 0.0000 0.0000 26.8949 0.0000 0.0000
# 5 0.0000 0.0000 0.0000 0.0000 4.8067 0.0000
# 6 0.0000 0.0000 0.0000 0.0000 0.0000 58.7654
#
#
#
# Elastic Compliance Matrix: (Units=1/GPa)
#
#
# Indices 1 2 3 4 5 6 
#
# 1 0.014482 -0.004104 -0.002481 0.000000 0.000000 0.000000
# 2 -0.004104 0.007974 -0.002651 0.000000 0.000000 0.000000
# 3 -0.002481 -0.002651 0.010122 0.000000 0.000000 0.000000
# 4 0.000000 0.000000 0.000000 0.037182 0.000000 0.000000
# 5 0.000000 0.000000 0.000000 0.000000 0.208045 0.000000
# 6 0.000000 0.000000 0.000000 0.000000 0.000000 0.017017
#
#
# Mechanical properties :
#
#
# Convention : Reuss Voigt Hill
#
# Bulk Modulus (GPa) = 70.87976 79.43795 75.15885
# Shear Modulus (GPa) = 15.72353 33.66850 24.69601
#
# Velocity S-wave (km/s) = 2.73550 4.00289 3.42827
# Velocity P-wave (km/s) = 6.61131 7.69215 7.17212
#
# Compressibility (1/GPa) = 0.01410840
#
# Stress axis : x y z
#
# Youngs Moduli (GPa) = 69.05233 125.40080 98.79091
#
# Poissons Ratio (x) = 0.51461 0.24506
# Poissons Ratio (y) = 0.28337 0.26187
# Poissons Ratio (z) = 0.17129 0.33240
#
# Static dielectric constant tensor:
#      x y z
#    x 3.742850 0.000000 0.000000 
#    y 0.000000 3.959560 0.000000 
#    z 0.000000 0.000000 3.765010 
# 
# 
# High freq. dielectric constant tensor:
#      x y z
#    x 1.825550 0.000000 0.000000 
#    y 0.000000 1.844050 0.000000 
#    z 0.000000 0.000000 1.826520 
# 
# From -- ./inp_files/13629.got.cif
#   From: 2010.03.12/outbox.cif.g09.slc.cpg/sg68_7_cif.got.tgz:13629.got - 2010.04.10 23:14:56.
