data_PCOD8282271
_publ_section_title
;
Structure prediction by ZEFSAII (Michael W. Deem and Ramdas Pophale) SiO2 
 PCOD8282271
Probable space group: C C C A
;
_chemical_formula_sum "Si O2"
_cell_formula_units_Z 96
_cell_length_a 14.423905
_cell_length_b 13.690649
_cell_length_c 20.933763
_cell_angle_alpha 90.000000
_cell_angle_beta 90.000000
_cell_angle_gamma 90.000000
_cell_volume 4133.845038
_symmetry_space_group_name_H-M "C C C A"
_symmetry_group_IT_number 68
_space_group.IT_coordinate_system_code '2'
_symmetry_cell_setting 'orthorhombic'
loop_
_space_group_symop_operation_xyz
x,y,z
-x,1/2-y,z
x,1/2-y,1/2-z
-x,y,1/2-z
-x,-y,-z
x,1/2+y,-z
-x,1/2+y,1/2+z
x,-y,1/2+z
1/2+x,1/2+y,z
1/2-x,-y,z
1/2+x,-y,1/2-z
1/2-x,1/2+y,1/2-z
1/2-x,1/2-y,-z
1/2+x,y,-z
1/2-x,y,1/2+z
1/2+x,1/2-y,1/2+z
loop_
_atom_site_type_symbol
_atom_site_label
_atom_site_fract_x
_atom_site_fract_y
_atom_site_fract_z
Si Si1 0.853510 0.516909 0.858964
Si Si2 0.851635 0.609235 0.078801
Si Si3 0.471709 0.602076 0.031509
Si Si4 0.608701 0.640199 0.239718
Si Si5 0.499569 0.134761 0.321800
Si Si6 0.348235 0.888946 0.093998
O O1 0.750000 0.500000 0.885523
O O2 0.906283 0.588957 0.907059
O O3 0.842506 0.568904 0.790389
O O4 0.910806 0.414625 0.856216
O O5 0.903611 0.606742 0.146353
O O6 0.751450 0.664148 0.082939
O O7 0.837173 0.495634 0.063114
O O8 0.914571 0.660524 0.023404
O O9 0.564313 0.660604 0.056186
O O10 0.500000 0.500000 0.000000
O O11 0.646188 0.750000 0.250000
O O12 0.500000 0.634576 0.250000
O O13 0.632064 0.604581 0.169004
O O14 0.500000 0.250000 0.324798
O O15 0.500000 0.094076 0.250000
#
# Coordination Sequence:
#
# PCOD8282271 Si02
#       6
#    16  16  16  16  16  16
#     4  12  25  40  69  98 134 175 227 283 347 408
#     4  10  21  37  67  94 124 174 222 268 338 406
#     4  10  20  39  64  94 128 174 223 272 334 411
#     4  11  23  42  65  97 134 172 218 279 346 408
#     4  11  24  43  65  95 138 180 226 281 341 413
#     4  10  20  37  66  91 127 167 218 274 330 402
#
# _framework density 23.222932
#
# number of rings (size 3 to 8) (size 9 to 14) (size 15 to 20)
#    0.000    1.333    5.000    1.500    9.333    1.333 
#    0.000    1.667    0.000    3.000    0.000    0.000 
#    0.000    0.000    0.000    0.000    0.000    0.000 
#
# Total GULP energy -594855.401172 kJ/mol
# GULP energy per Si atom -12392.820858 kJ/mol
# Density = 2.317008 g / cm^3
# Si number density = 23.222932 Si / 1000 Ang^3
#
#
#
# Elastic Constant Matrix: (Units=GPa)
#
#
# Indices 1 2 3 4 5 6 
#
# 1 228.9539 14.4090 87.2350 0.0000 0.0000 0.0000
# 2 14.4090 38.4917 -0.5461 0.0000 0.0000 0.0000
# 3 87.2350 -0.5461 152.2198 0.0000 0.0000 0.0000
# 4 0.0000 0.0000 0.0000 122.1419 0.0000 0.0000
# 5 0.0000 0.0000 0.0000 0.0000 -12.1088 0.0000
# 6 0.0000 0.0000 0.0000 0.0000 0.0000 12.6414
#
#
#
# Elastic Compliance Matrix: (Units=1/GPa)
#
#
# Indices 1 2 3 4 5 6 
#
# 1 0.005769 -0.002207 -0.003314 0.000000 0.000000 0.000000
# 2 -0.002207 0.026825 0.001361 0.000000 0.000000 0.000000
# 3 -0.003314 0.001361 0.008474 0.000000 0.000000 0.000000
# 4 0.000000 0.000000 0.000000 0.008187 0.000000 0.000000
# 5 0.000000 0.000000 0.000000 0.000000 -0.082584 0.000000
# 6 0.000000 0.000000 0.000000 0.000000 0.000000 0.079105
#
#
# Mechanical properties :
#
#
# Convention : Reuss Voigt Hill
#
# Bulk Modulus (GPa) = 30.53635 69.09570 49.81602
# Shear Modulus (GPa) = 76.90830 45.77271 61.34050
#
# Velocity S-wave (km/s) = 5.76101 4.44443 5.14501
# Velocity P-wave (km/s) = 7.57827 7.49367 7.53609
#
# Compressibility (1/GPa) = 0.03274785
#
# Stress axis : x y z
#
# Youngs Moduli (GPa) = 173.32970 37.27863 118.01247
#
# Poissons Ratio (x) = 0.08226 0.39112
# Poissons Ratio (y) = 0.38249 -0.16060
# Poissons Ratio (z) = 0.57446 -0.05073
#
# Static dielectric constant tensor:
#      x y z
#    x 4.107110 0.000000 0.000000 
#    y 0.000000 5.105930 0.000000 
#    z 0.000000 0.000000 4.515240 
# 
# 
# High freq. dielectric constant tensor:
#      x y z
#    x 1.930410 0.000000 0.000000 
#    y 0.000000 1.878230 0.000000 
#    z 0.000000 0.000000 1.928950 
# 
# From -- ./inp_files/38554.got.cif
#   From: 2010.03.12/outbox.cif.g09.slc.cpg/sg68_20_cif.got.tgz:38554.got - 2010.04.10 23:14:56.
