data_PCOD8282283
_publ_section_title
;
Structure prediction by ZEFSAII (Michael W. Deem and Ramdas Pophale) SiO2 
 PCOD8282283
Probable space group: C C C A
;
_chemical_formula_sum "Si O2"
_cell_formula_units_Z 96
_cell_length_a 23.307459
_cell_length_b 19.159233
_cell_length_c 9.843352
_cell_angle_alpha 90.000000
_cell_angle_beta 90.000000
_cell_angle_gamma 90.000000
_cell_volume 4395.578736
_symmetry_space_group_name_H-M "C C C A"
_symmetry_group_IT_number 68
_space_group.IT_coordinate_system_code '2'
_symmetry_cell_setting 'orthorhombic'
loop_
_space_group_symop_operation_xyz
x,y,z
-x,1/2-y,z
x,1/2-y,1/2-z
-x,y,1/2-z
-x,-y,-z
x,1/2+y,-z
-x,1/2+y,1/2+z
x,-y,1/2+z
1/2+x,1/2+y,z
1/2-x,-y,z
1/2+x,-y,1/2-z
1/2-x,1/2+y,1/2-z
1/2-x,1/2-y,-z
1/2+x,y,-z
1/2-x,y,1/2+z
1/2+x,1/2-y,1/2+z
loop_
_atom_site_type_symbol
_atom_site_label
_atom_site_fract_x
_atom_site_fract_y
_atom_site_fract_z
Si Si1 0.654427 0.599905 0.954223
Si Si2 0.683210 0.750000 0.519832
Si Si3 0.154427 0.400095 0.954223
Si Si4 0.887957 0.250000 0.250000
Si Si5 0.935231 0.954243 0.250000
Si Si6 0.750000 0.000000 1.000000
Si Si7 0.108178 0.600556 0.750000
O O1 0.596482 0.572776 0.884551
O O2 0.708259 0.550779 0.911070
O O3 0.665035 0.679091 0.901904
O O4 0.648561 0.594893 0.117306
O O5 0.750000 0.750000 0.500000
O O6 0.665035 0.679091 0.598095
O O7 0.653533 0.750001 0.376144
O O8 0.096482 0.427224 0.884551
O O9 0.208259 0.449221 0.911070
O O10 0.148561 0.405107 0.117306
O O11 0.924105 0.322943 0.250001
O O12 0.000000 0.925482 0.250000
O O13 0.937896 0.038576 0.250000
#
# Coordination Sequence:
#
# PCOD8282283 Si02
#       7
#    16  16  16   8  16   8  16
#     4  11  24  39  65  98 129 170 210 267 326 379
#     4  10  20  38  58  94 132 167 205 255 320 394
#     4  11  24  39  65  98 129 170 210 267 326 379
#     4   8  20  34  59  84 128 158 213 262 314 366
#     4  12  26  44  64  93 131 173 218 263 315 383
#     4  12  20  40  66 102 132 160 212 272 332 384
#     4  10  20  42  61  93 123 167 216 264 314 374
#
# _framework density 21.840126999999999
#
# number of rings (size 3 to 8) (size 9 to 14) (size 15 to 20)
#    0.000    1.333    5.000    0.000    0.000    7.333 
#    0.000    2.083    0.000    6.000    0.000    0.000 
#    0.000    0.000    0.000    0.000    0.000    0.000 
#
# Total GULP energy -594712.316011 kJ/mol
# GULP energy per Si atom -12389.839917 kJ/mol
# Density = 2.179042 g / cm^3
# Si number density = 21.840127 Si / 1000 Ang^3
#
#
#
# Elastic Constant Matrix: (Units=GPa)
#
#
# Indices 1 2 3 4 5 6 
#
# 1 149.3658 75.6501 32.2184 0.0000 0.0000 0.0000
# 2 75.6501 239.4960 30.3985 0.0000 0.0000 0.0000
# 3 32.2184 30.3985 98.5186 0.0000 0.0000 0.0000
# 4 0.0000 0.0000 0.0000 19.0197 0.0000 0.0000
# 5 0.0000 0.0000 0.0000 0.0000 24.6642 0.0000
# 6 0.0000 0.0000 0.0000 0.0000 0.0000 16.4119
#
#
#
# Elastic Compliance Matrix: (Units=1/GPa)
#
#
# Indices 1 2 3 4 5 6 
#
# 1 0.008329 -0.002378 -0.001990 0.000000 0.000000 0.000000
# 2 -0.002378 0.005025 -0.000773 0.000000 0.000000 0.000000
# 3 -0.001990 -0.000773 0.011040 0.000000 0.000000 0.000000
# 4 0.000000 0.000000 0.000000 0.052577 0.000000 0.000000
# 5 0.000000 0.000000 0.000000 0.000000 0.040545 0.000000
# 6 0.000000 0.000000 0.000000 0.000000 0.000000 0.060932
#
#
# Mechanical properties :
#
#
# Convention : Reuss Voigt Hill
#
# Bulk Modulus (GPa) = 70.86484 84.87935 77.87209
# Shear Modulus (GPa) = 25.84892 35.29337 30.57115
#
# Velocity S-wave (km/s) = 3.44401 4.02430 3.74541
# Velocity P-wave (km/s) = 6.95216 7.78085 7.37815
#
# Compressibility (1/GPa) = 0.01411137
#
# Stress axis : x y z
#
# Youngs Moduli (GPa) = 120.06649 199.01587 90.58359
#
# Poissons Ratio (x) = 0.47331 0.18025
# Poissons Ratio (y) = 0.28555 0.06999
# Poissons Ratio (z) = 0.23892 0.15377
#
# Static dielectric constant tensor:
#      x y z
#    x 3.337430 0.000000 0.000000 
#    y 0.000000 5.111500 0.000000 
#    z 0.000000 0.000000 3.674510 
# 
# 
# High freq. dielectric constant tensor:
#      x y z
#    x 1.817220 0.000000 0.000000 
#    y 0.000000 1.897450 0.000000 
#    z 0.000000 0.000000 1.843240 
# 
# From -- ./inp_files/15621.got.cif
#   From: 2010.03.12/outbox.cif.g09.slc.cpg/sg68_8_cif.got.tgz:15621.got - 2010.04.10 23:14:56.
