data_PCOD8282154
_publ_section_title
;
Structure prediction by ZEFSAII (Michael W. Deem and Ramdas Pophale) SiO2 
 PCOD8282154
Probable space group: C C C A
;
_chemical_formula_sum "Si O2"
_cell_formula_units_Z 96
_cell_length_a 19.462840
_cell_length_b 27.475846
_cell_length_c 9.332153
_cell_angle_alpha 90.000000
_cell_angle_beta 90.000000
_cell_angle_gamma 90.000000
_cell_volume 4990.443423
_symmetry_space_group_name_H-M "C C C A"
_symmetry_group_IT_number 68
_space_group.IT_coordinate_system_code '2'
_symmetry_cell_setting 'orthorhombic'
loop_
_space_group_symop_operation_xyz
x,y,z
-x,1/2-y,z
x,1/2-y,1/2-z
-x,y,1/2-z
-x,-y,-z
x,1/2+y,-z
-x,1/2+y,1/2+z
x,-y,1/2+z
1/2+x,1/2+y,z
1/2-x,-y,z
1/2+x,-y,1/2-z
1/2-x,1/2+y,1/2-z
1/2-x,1/2-y,-z
1/2+x,y,-z
1/2-x,y,1/2+z
1/2+x,1/2-y,1/2+z
loop_
_atom_site_type_symbol
_atom_site_label
_atom_site_fract_x
_atom_site_fract_y
_atom_site_fract_z
Si Si1 0.569161 0.546409 0.671432
Si Si2 0.171074 0.634199 0.773966
Si Si3 0.671231 0.631034 0.704294
Si Si4 0.568994 0.446272 0.826525
Si Si5 0.825072 0.701625 0.972049
Si Si6 0.667135 0.306117 0.473761
O O1 0.500000 0.564391 0.750000
O O2 0.628565 0.582214 0.724103
O O3 0.589793 0.494454 0.738280
O O4 0.560003 0.543528 0.497659
O O5 0.249067 0.614975 0.790075
O O6 0.129018 0.592465 0.695308
O O7 0.168764 0.686211 0.692364
O O8 0.137985 0.650449 0.925321
O O9 0.644211 0.655788 0.558791
O O10 0.655857 0.674193 0.816095
O O11 0.500000 0.425959 0.750000
O O12 0.745750 0.703324 0.021153
O O13 0.865789 0.752145 0.005504
#
# Coordination Sequence:
#
# PCOD8282154 Si02
#       6
#    16  16  16  16  16  16
#     4  11  24  42  62  83 111 149 193 235 286 348
#     4  10  20  35  58  89 118 147 188 237 282 329
#     4  10  20  35  58  89 118 147 188 237 282 329
#     4  11  24  42  62  83 111 149 193 235 286 348
#     4   9  16  34  50  87 118 154 187 231 272 333
#     4   9  18  28  58  83 120 152 189 223 280 333
#
# _framework density 19.236767
#
# number of rings (size 3 to 8) (size 9 to 14) (size 15 to 20)
#    0.000    2.000    1.667    3.000    4.667    4.667 
#    0.000    1.667    0.000    6.000    0.000    0.000 
#    0.000    0.000    0.000    0.000    0.000    0.000 
#
# Total GULP energy -594655.066599 kJ/mol
# GULP energy per Si atom -12388.647221 kJ/mol
# Density = 1.919298 g / cm^3
# Si number density = 19.236767 Si / 1000 Ang^3
#
#
#
# Elastic Constant Matrix: (Units=GPa)
#
#
# Indices 1 2 3 4 5 6 
#
# 1 62.4920 56.6221 28.8750 0.0000 0.0000 0.0000
# 2 56.6221 97.0934 33.7694 0.0000 0.0000 0.0000
# 3 28.8750 33.7694 98.5217 0.0000 0.0000 0.0000
# 4 0.0000 0.0000 0.0000 32.3112 0.0000 0.0000
# 5 0.0000 0.0000 0.0000 0.0000 22.2485 0.0000
# 6 0.0000 0.0000 0.0000 0.0000 0.0000 -0.3383
#
#
#
# Elastic Compliance Matrix: (Units=1/GPa)
#
#
# Indices 1 2 3 4 5 6 
#
# 1 0.035088 -0.019171 -0.003713 0.000000 0.000000 0.000000
# 2 -0.019171 0.022168 -0.001980 0.000000 0.000000 0.000000
# 3 -0.003713 -0.001980 0.011917 0.000000 0.000000 0.000000
# 4 0.000000 0.000000 0.000000 0.030949 0.000000 0.000000
# 5 0.000000 0.000000 0.000000 0.000000 0.044947 0.000000
# 6 0.000000 0.000000 0.000000 0.000000 0.000000 -2.956239
#
#
# Mechanical properties :
#
#
# Convention : Reuss Voigt Hill
#
# Bulk Modulus (GPa) = 51.42439 55.18223 53.30331
# Shear Modulus (GPa) = -1.81491 20.10032 9.14271
#
# Velocity S-wave (km/s) = -0.97237 3.23598 2.18244
# Velocity P-wave (km/s) = 5.05269 6.53530 5.84123
#
# Compressibility (1/GPa) = 0.01944603
#
# Stress axis : x y z
#
# Youngs Moduli (GPa) = 28.50010 45.11056 83.91606
#
# Poissons Ratio (x) = 0.86481 0.31154
# Poissons Ratio (y) = 0.54637 0.16612
# Poissons Ratio (z) = 0.10581 0.08930
#
# Static dielectric constant tensor:
#      x y z
#    x 3.133810 0.000000 0.000000 
#    y 0.000000 3.526580 0.000000 
#    z 0.000000 0.000000 3.687710 
# 
# 
# High freq. dielectric constant tensor:
#      x y z
#    x 1.696330 0.000000 0.000000 
#    y 0.000000 1.757680 0.000000 
#    z 0.000000 0.000000 1.772260 
# 
# From -- ./inp_files/7281.got.cif
#   From: 2010.03.12/outbox.cif.g09.slc.cpg/sg68_4_cif.got.tgz:7281.got - 2010.04.10 23:14:56.
