data_PCOD8282680
_publ_section_title
;
Structure prediction by ZEFSAII (Michael W. Deem and Ramdas Pophale) SiO2 
 PCOD8282680
Probable space group: C C C A
;
_chemical_formula_sum "Si O2"
_cell_formula_units_Z 96
_cell_length_a 13.426545
_cell_length_b 15.173962
_cell_length_c 23.158870
_cell_angle_alpha 90.000000
_cell_angle_beta 90.000000
_cell_angle_gamma 90.000000
_cell_volume 4718.246525
_symmetry_space_group_name_H-M "C C C A"
_symmetry_group_IT_number 68
_space_group.IT_coordinate_system_code '2'
_symmetry_cell_setting 'orthorhombic'
loop_
_space_group_symop_operation_xyz
x,y,z
-x,1/2-y,z
x,1/2-y,1/2-z
-x,y,1/2-z
-x,-y,-z
x,1/2+y,-z
-x,1/2+y,1/2+z
x,-y,1/2+z
1/2+x,1/2+y,z
1/2-x,-y,z
1/2+x,-y,1/2-z
1/2-x,1/2+y,1/2-z
1/2-x,1/2-y,-z
1/2+x,y,-z
1/2-x,y,1/2+z
1/2+x,1/2-y,1/2+z
loop_
_atom_site_type_symbol
_atom_site_label
_atom_site_fract_x
_atom_site_fract_y
_atom_site_fract_z
Si Si1 0.462158 0.653830 0.948900
Si Si2 0.035213 0.844735 0.577312
Si Si3 0.284655 0.156062 0.232706
Si Si4 0.250000 0.000000 0.811590
Si Si5 0.500000 0.397979 0.250000
Si Si6 0.042567 0.512378 0.136442
Si Si7 0.745571 0.105731 0.399583
O O1 0.500000 0.750000 0.928626
O O2 0.521387 0.580254 0.914322
O O3 0.344321 0.643084 0.938415
O O4 0.485370 0.637751 0.015628
O O5 0.154856 0.851488 0.573768
O O6 0.000000 0.750000 0.600668
O O7 0.995891 0.915631 0.622474
O O8 0.237745 0.250000 0.250000
O O9 0.400643 0.160122 0.252434
O O10 0.270317 0.137724 0.165521
O O11 0.227943 0.082575 0.269985
O O12 0.159710 0.014333 0.854589
O O13 0.514442 0.459737 0.194348
O O14 0.750000 0.000000 0.402580
#
# Coordination Sequence:
#
# PCOD8282680 Si02
#       7
#    16  16  16   8   8  16  16
#     4  11  26  45  72 102 130 178 239 283 336 397
#     4  11  27  46  68 101 139 181 231 279 344 414
#     4  11  23  39  65  97 135 179 221 273 347 400
#     4  10  26  38  60 102 136 168 226 280 326 422
#     4  10  21  40  65 102 132 166 231 286 325 410
#     4  11  23  42  65  97 138 177 219 285 344 396
#     4  12  24  45  73  98 139 184 229 281 343 415
#
# _framework density 20.346541999999999
#
# number of rings (size 3 to 8) (size 9 to 14) (size 15 to 20)
#    0.000    1.000    4.167    0.750    9.333    4.000 
#    0.000    0.417    0.000    0.000    0.000    0.000 
#    0.000    0.000    0.000    0.000    0.000    0.000 
#
# Total GULP energy -595349.579495 kJ/mol
# GULP energy per Si atom -12403.116239 kJ/mol
# Density = 2.030023 g / cm^3
# Si number density = 20.346542 Si / 1000 Ang^3
#
#
#
# Elastic Constant Matrix: (Units=GPa)
#
#
# Indices 1 2 3 4 5 6 
#
# 1 119.2304 35.1487 30.6904 0.0000 0.0000 0.0000
# 2 35.1487 163.4884 42.6739 0.0000 0.0000 0.0000
# 3 30.6904 42.6739 81.0439 0.0000 0.0000 0.0000
# 4 0.0000 0.0000 0.0000 27.2643 0.0000 0.0000
# 5 0.0000 0.0000 0.0000 0.0000 25.8623 0.0000
# 6 0.0000 0.0000 0.0000 0.0000 0.0000 32.2988
#
#
#
# Elastic Compliance Matrix: (Units=1/GPa)
#
#
# Indices 1 2 3 4 5 6 
#
# 1 0.009519 -0.001282 -0.002930 0.000000 0.000000 0.000000
# 2 -0.001282 0.007264 -0.003339 0.000000 0.000000 0.000000
# 3 -0.002930 -0.003339 0.015207 0.000000 0.000000 0.000000
# 4 0.000000 0.000000 0.000000 0.036678 0.000000 0.000000
# 5 0.000000 0.000000 0.000000 0.000000 0.038666 0.000000
# 6 0.000000 0.000000 0.000000 0.000000 0.000000 0.030961
#
#
# Mechanical properties :
#
#
# Convention : Reuss Voigt Hill
#
# Bulk Modulus (GPa) = 59.21448 64.53210 61.87329
# Shear Modulus (GPa) = 31.44129 34.10172 32.77150
#
# Velocity S-wave (km/s) = 3.93528 4.09839 4.01767
# Velocity P-wave (km/s) = 7.05796 7.36078 7.21096
#
# Compressibility (1/GPa) = 0.01688776
#
# Stress axis : x y z
#
# Youngs Moduli (GPa) = 105.05139 137.66758 65.75966
#
# Poissons Ratio (x) = 0.17646 0.19267
# Poissons Ratio (y) = 0.13465 0.21960
# Poissons Ratio (z) = 0.30779 0.45973
#
# Static dielectric constant tensor:
#      x y z
#    x 3.896060 0.000000 0.000000 
#    y 0.000000 3.910770 0.000000 
#    z 0.000000 0.000000 3.696240 
# 
# 
# High freq. dielectric constant tensor:
#      x y z
#    x 1.800140 0.000000 0.000000 
#    y 0.000000 1.807790 0.000000 
#    z 0.000000 0.000000 1.798290 
# 
# From -- ./inp_files/45469.got.cif
#   From: 2010.03.12/outbox.cif.g09.slc.cpg/sg68_23_cif.got.tgz:45469.got - 2010.04.10 23:14:56.
