data_PCOD8282240
_publ_section_title
;
Structure prediction by ZEFSAII (Michael W. Deem and Ramdas Pophale) SiO2 
 PCOD8282240
Probable space group: C C C A
;
_chemical_formula_sum "Si O2"
_cell_formula_units_Z 112
_cell_length_a 10.232008
_cell_length_b 27.777685
_cell_length_c 20.845781
_cell_angle_alpha 90.000000
_cell_angle_beta 90.000000
_cell_angle_gamma 90.000000
_cell_volume 5924.819043
_symmetry_space_group_name_H-M "C C C A"
_symmetry_group_IT_number 68
_space_group.IT_coordinate_system_code '2'
_symmetry_cell_setting 'orthorhombic'
loop_
_space_group_symop_operation_xyz
x,y,z
-x,1/2-y,z
x,1/2-y,1/2-z
-x,y,1/2-z
-x,-y,-z
x,1/2+y,-z
-x,1/2+y,1/2+z
x,-y,1/2+z
1/2+x,1/2+y,z
1/2-x,-y,z
1/2+x,-y,1/2-z
1/2-x,1/2+y,1/2-z
1/2-x,1/2-y,-z
1/2+x,y,-z
1/2-x,y,1/2+z
1/2+x,1/2-y,1/2+z
loop_
_atom_site_type_symbol
_atom_site_label
_atom_site_fract_x
_atom_site_fract_y
_atom_site_fract_z
Si Si1 0.655473 0.804557 0.625242
Si Si2 0.608091 0.991836 0.920285
Si Si3 0.361858 0.033814 0.225233
Si Si4 0.014450 0.079876 0.016443
Si Si5 0.852523 0.307879 0.621119
Si Si6 0.849180 0.855960 0.251441
Si Si7 0.233698 0.856556 0.992625
O O1 0.505570 0.819643 0.613328
O O2 0.672250 0.747944 0.633733
O O3 0.713953 0.831545 0.688232
O O4 0.738071 0.819153 0.563563
O O5 0.634516 0.969795 0.850953
O O6 0.750000 0.000000 0.953838
O O7 0.533595 0.043574 0.922760
O O8 0.521017 0.952095 0.954915
O O9 0.500000 0.015037 0.250000
O O10 0.329492 0.086989 0.250167
O O11 0.250000 0.000000 0.254682
O O12 0.149899 0.105904 0.001181
O O13 0.898812 0.117124 0.029434
O O14 0.789772 0.335136 0.682504
O O15 0.780597 0.326548 0.557911
O O16 0.000000 0.840926 0.250000
#
# Coordination Sequence:
#
# PCOD8282240 Si02
#       7
#    16  16  16  16  16  16  16
#     4  10  21  36  60  91 119 155 206 253 305 361
#     4  10  21  39  58  84 121 158 205 242 299 354
#     4  10  22  37  59  85 118 152 196 245 300 357
#     4  11  23  37  60  84 119 163 198 245 293 366
#     4  10  20  37  60  88 122 157 202 256 305 358
#     4   9  19  36  62  86 116 158 201 253 297 355
#     4  12  22  37  60  92 123 158 198 252 311 356
#
# _framework density 18.903531999999998
#
# number of rings (size 3 to 8) (size 9 to 14) (size 15 to 20)
#    0.000    1.714    2.857    1.714    6.000    2.857 
#    0.000    0.000    0.000    0.000    0.000    2.000 
#    0.000    0.000    0.000    0.000    0.000    0.000 
#
# Total GULP energy -694350.999298 kJ/mol
# GULP energy per Si atom -12399.124987 kJ/mol
# Density = 1.886051 g / cm^3
# Si number density = 18.903532 Si / 1000 Ang^3
#
#
#
# Elastic Constant Matrix: (Units=GPa)
#
#
# Indices 1 2 3 4 5 6 
#
# 1 78.1521 43.2973 34.5402 0.0000 0.0000 0.0000
# 2 43.2973 95.8673 51.8936 0.0000 0.0000 0.0000
# 3 34.5402 51.8936 123.5275 0.0000 0.0000 0.0000
# 4 0.0000 0.0000 0.0000 30.0280 0.0000 0.0000
# 5 0.0000 0.0000 0.0000 0.0000 28.3272 0.0000
# 6 0.0000 0.0000 0.0000 0.0000 0.0000 31.7536
#
#
#
# Elastic Compliance Matrix: (Units=1/GPa)
#
#
# Indices 1 2 3 4 5 6 
#
# 1 0.017450 -0.006782 -0.002030 0.000000 0.000000 0.000000
# 2 -0.006782 0.016137 -0.004883 0.000000 0.000000 0.000000
# 3 -0.002030 -0.004883 0.010714 0.000000 0.000000 0.000000
# 4 0.000000 0.000000 0.000000 0.033302 0.000000 0.000000
# 5 0.000000 0.000000 0.000000 0.000000 0.035302 0.000000
# 6 0.000000 0.000000 0.000000 0.000000 0.000000 0.031493
#
#
# Mechanical properties :
#
#
# Convention : Reuss Voigt Hill
#
# Bulk Modulus (GPa) = 59.13173 61.88990 60.51081
# Shear Modulus (GPa) = 28.18075 29.20947 28.69511
#
# Velocity S-wave (km/s) = 3.86523 3.93515 3.90035
# Velocity P-wave (km/s) = 7.16022 7.31151 7.23626
#
# Compressibility (1/GPa) = 0.01691140
#
# Stress axis : x y z
#
# Youngs Moduli (GPa) = 57.30564 61.96815 93.33340
#
# Poissons Ratio (x) = 0.42029 0.18948
# Poissons Ratio (y) = 0.38866 0.45573
# Poissons Ratio (z) = 0.11634 0.30258
#
# Static dielectric constant tensor:
#      x y z
#    x 3.593100 0.000000 0.000000 
#    y 0.000000 3.545290 0.000000 
#    z 0.000000 0.000000 3.496830 
# 
# 
# High freq. dielectric constant tensor:
#      x y z
#    x 1.711900 0.000000 0.000000 
#    y 0.000000 1.750540 0.000000 
#    z 0.000000 0.000000 1.733530 
# 
# From -- ./inp_files/37829.got.cif
#   From: 2010.03.12/outbox.cif.g09.slc.cpg/sg68_19_cif.got.tgz:37829.got - 2010.04.10 23:14:56.
