data_PCOD8282171
_publ_section_title
;
Structure prediction by ZEFSAII (Michael W. Deem and Ramdas Pophale) SiO2 
 PCOD8282171
Probable space group: C C C A
;
_chemical_formula_sum "Si O2"
_cell_formula_units_Z 76
_cell_length_a 5.151993
_cell_length_b 27.964787
_cell_length_c 33.282360
_cell_angle_alpha 90.000000
_cell_angle_beta 90.000000
_cell_angle_gamma 90.000000
_cell_volume 4795.135611
_symmetry_space_group_name_H-M "C C C A"
_symmetry_group_IT_number 68
_space_group.IT_coordinate_system_code '2'
_symmetry_cell_setting 'orthorhombic'
loop_
_space_group_symop_operation_xyz
x,y,z
-x,1/2-y,z
x,1/2-y,1/2-z
-x,y,1/2-z
-x,-y,-z
x,1/2+y,-z
-x,1/2+y,1/2+z
x,-y,1/2+z
1/2+x,1/2+y,z
1/2-x,-y,z
1/2+x,-y,1/2-z
1/2-x,1/2+y,1/2-z
1/2-x,1/2-y,-z
1/2+x,y,-z
1/2-x,y,1/2+z
1/2+x,1/2-y,1/2+z
loop_
_atom_site_type_symbol
_atom_site_label
_atom_site_fract_x
_atom_site_fract_y
_atom_site_fract_z
Si Si1 0.747144 0.083973 0.838571
Si Si2 0.241679 0.443122 0.522781
Si Si3 0.747352 0.443065 0.885752
Si Si4 0.259875 0.658765 0.774351
Si Si5 0.750000 0.500000 0.723242
Si Si6 0.000000 0.250000 0.750000
O O1 0.526794 0.078355 0.872041
O O2 0.736059 0.136547 0.818729
O O3 0.693853 0.045807 0.803863
O O4 0.025840 0.078079 0.858679
O O5 0.250000 0.500000 0.521073
O O6 0.502231 0.422398 0.502805
O O7 0.213381 0.426104 0.568577
O O8 0.750000 0.500000 0.881709
O O9 0.500000 0.634252 0.750000
O O10 0.318547 0.715927 0.777976
O O11 0.000000 0.648584 0.750000
O O12 0.500000 0.510291 0.750000
#
# Coordination Sequence:
#
# PCOD8282171 Si02
#       6
#    16  16  16  16   8   4
#     4  12  21  33  47  68  97 132 163 211 247 288
#     4   9  17  29  46  65  87 125 171 204 230 278
#     4  11  20  33  46  68 101 133 166 204 248 279
#     4  10  20  36  53  70  92 123 168 206 255 293
#     4  12  22  32  44  62  90 130 172 200 230 274
#     4   8  22  36  58  72  90 120 170 216 258 298
#
# _framework density 15.849394
#
# number of rings (size 3 to 8) (size 9 to 14) (size 15 to 20)
#    0.632    0.842    2.105    5.368    0.000    3.368 
#    0.000    0.000    0.000    0.000    0.000    0.000 
#    0.000    0.000    0.000   18.947    0.000    0.000 
#
# Total GULP energy -471151.711584 kJ/mol
# GULP energy per Si atom -12398.729252 kJ/mol
# Density = 1.581332 g / cm^3
# Si number density = 15.849394 Si / 1000 Ang^3
#
#
#
# Elastic Constant Matrix: (Units=GPa)
#
#
# Indices 1 2 3 4 5 6 
#
# 1 103.5194 12.9578 29.1366 0.0000 0.0000 0.0000
# 2 12.9578 65.8662 32.7879 0.0000 0.0000 0.0000
# 3 29.1366 32.7879 90.4784 0.0000 0.0000 0.0000
# 4 0.0000 0.0000 0.0000 11.2679 0.0000 0.0000
# 5 0.0000 0.0000 0.0000 0.0000 27.8223 0.0000
# 6 0.0000 0.0000 0.0000 0.0000 0.0000 7.9925
#
#
#
# Elastic Compliance Matrix: (Units=1/GPa)
#
#
# Indices 1 2 3 4 5 6 
#
# 1 0.010635 -0.000473 -0.003253 0.000000 0.000000 0.000000
# 2 -0.000473 0.018545 -0.006568 0.000000 0.000000 0.000000
# 3 -0.003253 -0.006568 0.014480 0.000000 0.000000 0.000000
# 4 0.000000 0.000000 0.000000 0.088748 0.000000 0.000000
# 5 0.000000 0.000000 0.000000 0.000000 0.035942 0.000000
# 6 0.000000 0.000000 0.000000 0.000000 0.000000 0.125117
#
#
# Mechanical properties :
#
#
# Convention : Reuss Voigt Hill
#
# Bulk Modulus (GPa) = 43.34348 45.51430 44.42889
# Shear Modulus (GPa) = 15.54021 21.74867 18.64444
#
# Velocity S-wave (km/s) = 3.13468 3.70835 3.43352
# Velocity P-wave (km/s) = 6.36460 6.86403 6.61903
#
# Compressibility (1/GPa) = 0.02307152
#
# Stress axis : x y z
#
# Youngs Moduli (GPa) = 94.02999 53.92329 69.05959
#
# Poissons Ratio (x) = 0.02549 0.22468
# Poissons Ratio (y) = 0.04444 0.45359
# Poissons Ratio (z) = 0.30592 0.35418
#
# Static dielectric constant tensor:
#      x y z
#    x 3.207030 0.000000 0.000000 
#    y 0.000000 2.697890 0.000000 
#    z 0.000000 0.000000 3.067170 
# 
# 
# High freq. dielectric constant tensor:
#      x y z
#    x 1.635060 0.000000 0.000000 
#    y 0.000000 1.554360 0.000000 
#    z 0.000000 0.000000 1.604830 
# 
# From -- ./inp_files/53431.got.cif
#   From: 2010.03.12/outbox.cif.g09.slc.cpg/sg68_27_cif.got.tgz:53431.got - 2010.04.10 23:14:56.
