data_PCOD8282622
_publ_section_title
;
Structure prediction by ZEFSAII (Michael W. Deem and Ramdas Pophale) SiO2 
 PCOD8282622
Probable space group: C C C A
;
_chemical_formula_sum "Si O2"
_cell_formula_units_Z 64
_cell_length_a 8.274626
_cell_length_b 16.291381
_cell_length_c 24.013448
_cell_angle_alpha 90.000000
_cell_angle_beta 90.000000
_cell_angle_gamma 90.000000
_cell_volume 3237.134894
_symmetry_space_group_name_H-M "C C C A"
_symmetry_group_IT_number 68
_space_group.IT_coordinate_system_code '2'
_symmetry_cell_setting 'orthorhombic'
loop_
_space_group_symop_operation_xyz
x,y,z
-x,1/2-y,z
x,1/2-y,1/2-z
-x,y,1/2-z
-x,-y,-z
x,1/2+y,-z
-x,1/2+y,1/2+z
x,-y,1/2+z
1/2+x,1/2+y,z
1/2-x,-y,z
1/2+x,-y,1/2-z
1/2-x,1/2+y,1/2-z
1/2-x,1/2-y,-z
1/2+x,y,-z
1/2-x,y,1/2+z
1/2+x,1/2-y,1/2+z
loop_
_atom_site_type_symbol
_atom_site_label
_atom_site_fract_x
_atom_site_fract_y
_atom_site_fract_z
Si Si1 0.192927 0.408801 0.129689
Si Si2 0.384385 0.826457 0.153103
Si Si3 0.808714 0.907910 0.249488
Si Si4 0.810908 0.738601 0.438085
O O1 0.250000 0.500000 0.116219
O O2 0.257800 0.376610 0.188879
O O3 0.262845 0.352534 0.080954
O O4 0.997493 0.402945 0.133884
O O5 0.500000 0.750000 0.168440
O O6 0.272737 0.848652 0.205406
O O7 0.270876 0.806339 0.101081
O O8 0.000000 0.902420 0.250000
O O9 0.750000 0.000000 0.260703
O O10 0.750000 0.750000 0.500000
O O11 0.000000 0.750000 0.434931
#
# Coordination Sequence:
#
# PCOD8282622 Si02
#       4
#    16  16  16  16
#     4  10  21  39  61  87 119 154 192 240 293 349
#     4  10  22  39  60  87 119 156 195 243 294 346
#     4  11  21  36  59  90 123 157 195 241 293 351
#     4  11  23  42  62  85 115 153 198 245 292 345
#
# _framework density 19.770568999999998
#
# number of rings (size 3 to 8) (size 9 to 14) (size 15 to 20)
#    0.000    1.500    0.000    7.500    0.000    7.000 
#    0.000   12.500    0.000    0.000    0.000    0.000 
#    0.000    0.000    0.000    0.000    0.000    0.000 
#
# Total GULP energy -396849.628812 kJ/mol
# GULP energy per Si atom -12401.550900 kJ/mol
# Density = 1.972557 g / cm^3
# Si number density = 19.770569 Si / 1000 Ang^3
#
#
#
# Elastic Constant Matrix: (Units=GPa)
#
#
# Indices 1 2 3 4 5 6 
#
# 1 200.2978 63.4963 76.9496 0.0000 0.0000 0.0000
# 2 63.4963 99.9783 74.0168 0.0000 0.0000 0.0000
# 3 76.9496 74.0168 179.6654 0.0000 0.0000 0.0000
# 4 0.0000 0.0000 0.0000 15.8416 0.0000 0.0000
# 5 0.0000 0.0000 0.0000 0.0000 68.2709 0.0000
# 6 0.0000 0.0000 0.0000 0.0000 0.0000 36.1054
#
#
#
# Elastic Compliance Matrix: (Units=1/GPa)
#
#
# Indices 1 2 3 4 5 6 
#
# 1 0.006545 -0.002995 -0.001569 0.000000 0.000000 0.000000
# 2 -0.002995 0.015762 -0.005211 0.000000 0.000000 0.000000
# 3 -0.001569 -0.005211 0.008385 0.000000 0.000000 0.000000
# 4 0.000000 0.000000 0.000000 0.063125 0.000000 0.000000
# 5 0.000000 0.000000 0.000000 0.000000 0.014648 0.000000
# 6 0.000000 0.000000 0.000000 0.000000 0.000000 0.027697
#
#
# Mechanical properties :
#
#
# Convention : Reuss Voigt Hill
#
# Bulk Modulus (GPa) = 89.75373 100.98521 95.36947
# Shear Modulus (GPa) = 31.36290 41.74218 36.55254
#
# Velocity S-wave (km/s) = 3.98721 4.59991 4.30447
# Velocity P-wave (km/s) = 8.16660 8.91076 8.54678
#
# Compressibility (1/GPa) = 0.01114160
#
# Stress axis : x y z
#
# Youngs Moduli (GPa) = 152.79176 63.44440 119.26461
#
# Poissons Ratio (x) = 0.19000 0.18717
# Poissons Ratio (y) = 0.45758 0.62146
# Poissons Ratio (z) = 0.23978 0.33059
#
# Static dielectric constant tensor:
#      x y z
#    x 4.018920 0.000000 0.000000 
#    y 0.000000 3.366600 0.000000 
#    z 0.000000 0.000000 3.595960 
# 
# 
# High freq. dielectric constant tensor:
#      x y z
#    x 1.794490 0.000000 0.000000 
#    y 0.000000 1.766530 0.000000 
#    z 0.000000 0.000000 1.771240 
# 
# From -- ./inp_files/35751.got.cif
#   From: 2010.03.12/outbox.cif.g09.slc.cpg/sg68_18_cif.got.tgz:35751.got - 2010.04.10 23:14:56.
