data_PCOD8282758
_publ_section_title
;
Structure prediction by ZEFSAII (Michael W. Deem and Ramdas Pophale) SiO2 
 PCOD8282758
Probable space group: C C C A
;
_chemical_formula_sum "Si O2"
_cell_formula_units_Z 88
_cell_length_a 13.113688
_cell_length_b 22.637900
_cell_length_c 13.440166
_cell_angle_alpha 90.000000
_cell_angle_beta 90.000000
_cell_angle_gamma 90.000000
_cell_volume 3989.933126
_symmetry_space_group_name_H-M "C C C A"
_symmetry_group_IT_number 68
_space_group.IT_coordinate_system_code '2'
_symmetry_cell_setting 'orthorhombic'
loop_
_space_group_symop_operation_xyz
x,y,z
-x,1/2-y,z
x,1/2-y,1/2-z
-x,y,1/2-z
-x,-y,-z
x,1/2+y,-z
-x,1/2+y,1/2+z
x,-y,1/2+z
1/2+x,1/2+y,z
1/2-x,-y,z
1/2+x,-y,1/2-z
1/2-x,1/2+y,1/2-z
1/2-x,1/2-y,-z
1/2+x,y,-z
1/2-x,y,1/2+z
1/2+x,1/2-y,1/2+z
loop_
_atom_site_type_symbol
_atom_site_label
_atom_site_fract_x
_atom_site_fract_y
_atom_site_fract_z
Si Si1 0.380340 0.199588 0.671595
Si Si2 0.500000 0.750000 0.499703
Si Si3 0.374871 0.429741 0.333052
Si Si4 0.855217 0.795829 0.335278
Si Si5 0.250000 0.000000 0.523060
Si Si6 0.500000 0.404942 0.750000
Si Si7 0.078966 0.988733 0.364234
O O1 0.413174 0.250000 0.750000
O O2 0.444643 0.202436 0.570164
O O3 0.263730 0.209097 0.642134
O O4 0.403538 0.135643 0.719159
O O5 0.583989 0.716464 0.564303
O O6 0.379218 0.361898 0.300244
O O7 0.281483 0.444258 0.407869
O O8 0.481705 0.447156 0.385602
O O9 0.359819 0.467477 0.233071
O O10 0.889989 0.750000 0.250000
O O11 0.152811 0.982392 0.457762
O O12 0.461094 0.444768 0.657345
#
# Coordination Sequence:
#
# PCOD8282758 Si02
#       7
#    16   8  16  16   8   8  16
#     4  11  23  45  70 101 138 182 234 282 347 416
#     4  12  24  44  68 106 134 176 234 296 336 408
#     4  10  25  47  67  99 140 179 222 281 348 412
#     4  11  28  45  71  98 140 186 231 284 356 411
#     4  12  24  42  74 106 134 176 238 286 336 420
#     4  10  21  44  72  92 145 180 222 278 344 404
#     4  10  26  44  68 102 139 180 225 280 350 410
#
# _framework density 22.055508
#
# number of rings (size 3 to 8) (size 9 to 14) (size 15 to 20)
#    0.000    1.455    1.818    1.909   15.273    1.455 
#    3.273    0.000    0.000    0.000    0.000    0.000 
#    0.000    0.000    0.000    0.000    0.000    0.000 
#
# Total GULP energy -545657.028821 kJ/mol
# GULP energy per Si atom -12401.296110 kJ/mol
# Density = 2.200531 g / cm^3
# Si number density = 22.055508 Si / 1000 Ang^3
#
#
#
# Elastic Constant Matrix: (Units=GPa)
#
#
# Indices 1 2 3 4 5 6 
#
# 1 119.4871 50.0049 65.1609 0.0000 0.0000 0.0000
# 2 50.0049 158.8537 53.5375 0.0000 0.0000 0.0000
# 3 65.1609 53.5375 120.0642 0.0000 0.0000 0.0000
# 4 0.0000 0.0000 0.0000 16.7398 0.0000 0.0000
# 5 0.0000 0.0000 0.0000 0.0000 51.1837 0.0000
# 6 0.0000 0.0000 0.0000 0.0000 0.0000 27.9872
#
#
#
# Elastic Compliance Matrix: (Units=1/GPa)
#
#
# Indices 1 2 3 4 5 6 
#
# 1 0.012365 -0.001919 -0.005855 0.000000 0.000000 0.000000
# 2 -0.001919 0.007706 -0.002395 0.000000 0.000000 0.000000
# 3 -0.005855 -0.002395 0.012574 0.000000 0.000000 0.000000
# 4 0.000000 0.000000 0.000000 0.059738 0.000000 0.000000
# 5 0.000000 0.000000 0.000000 0.000000 0.019537 0.000000
# 6 0.000000 0.000000 0.000000 0.000000 0.000000 0.035731
#
#
# Mechanical properties :
#
#
# Convention : Reuss Voigt Hill
#
# Bulk Modulus (GPa) = 81.24789 81.75684 81.50237
# Shear Modulus (GPa) = 29.05414 34.49558 31.77486
#
# Velocity S-wave (km/s) = 3.63343 3.95908 3.79974
# Velocity P-wave (km/s) = 7.38378 7.61894 7.50228
#
# Compressibility (1/GPa) = 0.01230801
#
# Stress axis : x y z
#
# Youngs Moduli (GPa) = 80.87177 129.76401 79.52680
#
# Poissons Ratio (x) = 0.24903 0.46564
# Poissons Ratio (y) = 0.15520 0.19045
# Poissons Ratio (z) = 0.47351 0.31075
#
# Static dielectric constant tensor:
#      x y z
#    x 4.120770 0.000000 0.000000 
#    y 0.000000 3.892430 0.000000 
#    z 0.000000 0.000000 3.979290 
# 
# 
# High freq. dielectric constant tensor:
#      x y z
#    x 1.886890 0.000000 0.000000 
#    y 0.000000 1.861230 0.000000 
#    z 0.000000 0.000000 1.864890 
# 
# From -- ./inp_files/13371.got.cif
#   From: 2010.03.12/outbox.cif.g09.slc.cpg/sg68_7_cif.got.tgz:13371.got - 2010.04.10 23:14:56.
