data_PCOD8282658
_publ_section_title
;
Structure prediction by ZEFSAII (Michael W. Deem and Ramdas Pophale) SiO2 
 PCOD8282658
Probable space group: C C C A
;
_chemical_formula_sum "Si O2"
_cell_formula_units_Z 100
_cell_length_a 13.611189
_cell_length_b 27.874382
_cell_length_c 14.283366
_cell_angle_alpha 90.000000
_cell_angle_beta 90.000000
_cell_angle_gamma 90.000000
_cell_volume 5419.158790
_symmetry_space_group_name_H-M "C C C A"
_symmetry_group_IT_number 68
_space_group.IT_coordinate_system_code '2'
_symmetry_cell_setting 'orthorhombic'
loop_
_space_group_symop_operation_xyz
x,y,z
-x,1/2-y,z
x,1/2-y,1/2-z
-x,y,1/2-z
-x,-y,-z
x,1/2+y,-z
-x,1/2+y,1/2+z
x,-y,1/2+z
1/2+x,1/2+y,z
1/2-x,-y,z
1/2+x,-y,1/2-z
1/2-x,1/2+y,1/2-z
1/2-x,1/2-y,-z
1/2+x,y,-z
1/2-x,y,1/2+z
1/2+x,1/2-y,1/2+z
loop_
_atom_site_type_symbol
_atom_site_label
_atom_site_fract_x
_atom_site_fract_y
_atom_site_fract_z
Si Si1 0.374482 0.078481 0.403062
Si Si2 0.036476 0.608235 0.533535
Si Si3 0.500000 0.750000 0.250000
Si Si4 0.082534 0.973510 0.829072
Si Si5 0.107632 0.332993 0.347106
Si Si6 0.234290 0.403787 0.249543
Si Si7 0.261315 0.383973 0.449470
O O1 0.474414 0.103603 0.437697
O O2 0.321735 0.110414 0.322068
O O3 0.300551 0.077337 0.491196
O O4 0.395310 0.026421 0.363628
O O5 0.989232 0.642534 0.610810
O O6 0.047974 0.556070 0.580017
O O7 0.140797 0.631112 0.504035
O O8 0.574002 0.780554 0.315094
O O9 0.182920 0.952165 0.786693
O O10 0.000000 0.974093 0.750000
O O11 0.149247 0.362517 0.256576
O O12 0.194771 0.335955 0.426280
O O13 0.283847 0.411363 0.351615
#
# Coordination Sequence:
#
# PCOD8282658 Si02
#       7
#    16  16   4  16  16  16  16
#     4  11  23  36  55  86 120 167 215 260 289 353
#     4  11  21  40  59  80 126 169 200 253 313 354
#     4  12  20  40  76 100 110 138 216 248 312 396
#     4  12  21  35  55  85 117 169 226 258 289 348
#     4   9  22  39  63  92 113 155 190 257 311 365
#     4  10  21  40  55  82 121 162 202 254 314 346
#     4   9  22  40  58  82 121 162 196 246 316 359
#
# _framework density 18.453047999999999
#
# number of rings (size 3 to 8) (size 9 to 14) (size 15 to 20)
#    0.960    0.640    3.200    1.920    2.240    0.000 
#    2.880    0.800    0.000    0.000    0.000    1.120 
#    0.000    0.000    0.000    0.000    0.000    0.000 
#
# Total GULP energy -619460.772639 kJ/mol
# GULP energy per Si atom -12389.215453 kJ/mol
# Density = 1.841105 g / cm^3
# Si number density = 18.453048 Si / 1000 Ang^3
#
#
#
# Elastic Constant Matrix: (Units=GPa)
#
#
# Indices 1 2 3 4 5 6 
#
# 1 128.9670 40.5913 49.5761 0.0000 0.0000 0.0000
# 2 40.5913 73.7065 26.1330 0.0000 0.0000 0.0000
# 3 49.5761 26.1330 98.9713 0.0000 0.0000 0.0000
# 4 0.0000 0.0000 0.0000 24.5826 0.0000 0.0000
# 5 0.0000 0.0000 0.0000 0.0000 49.6868 0.0000
# 6 0.0000 0.0000 0.0000 0.0000 0.0000 10.8912
#
#
#
# Elastic Compliance Matrix: (Units=1/GPa)
#
#
# Indices 1 2 3 4 5 6 
#
# 1 0.010774 -0.004435 -0.004226 0.000000 0.000000 0.000000
# 2 -0.004435 0.016794 -0.002213 0.000000 0.000000 0.000000
# 3 -0.004226 -0.002213 0.012805 0.000000 0.000000 0.000000
# 4 0.000000 0.000000 0.000000 0.040679 0.000000 0.000000
# 5 0.000000 0.000000 0.000000 0.000000 0.020126 0.000000
# 6 0.000000 0.000000 0.000000 0.000000 0.000000 0.091817
#
#
# Mechanical properties :
#
#
# Convention : Reuss Voigt Hill
#
# Bulk Modulus (GPa) = 53.68884 59.36063 56.52474
# Shear Modulus (GPa) = 22.62924 29.38841 26.00882
#
# Velocity S-wave (km/s) = 3.50568 3.99507 3.75835
# Velocity P-wave (km/s) = 6.74866 7.31568 7.03788
#
# Compressibility (1/GPa) = 0.01862584
#
# Stress axis : x y z
#
# Youngs Moduli (GPa) = 92.81283 59.54333 78.09418
#
# Poissons Ratio (x) = 0.26409 0.33002
# Poissons Ratio (y) = 0.41165 0.17281
# Poissons Ratio (z) = 0.39222 0.13176
#
# Static dielectric constant tensor:
#      x y z
#    x 3.627410 0.000000 0.000000 
#    y 0.000000 2.851630 0.000000 
#    z 0.000000 0.000000 3.619320 
# 
# 
# High freq. dielectric constant tensor:
#      x y z
#    x 1.732360 0.000000 0.000000 
#    y 0.000000 1.653460 0.000000 
#    z 0.000000 0.000000 1.731520 
# 
# From -- ./inp_files/22695.got.cif
#   From: 2010.03.12/outbox.cif.g09.slc.cpg/sg68_12_cif.got.tgz:22695.got - 2010.04.10 23:14:56.
