data_PCOD8282438
_publ_section_title
;
Structure prediction by ZEFSAII (Michael W. Deem and Ramdas Pophale) SiO2 
 PCOD8282438
Probable space group: C C C A
;
_chemical_formula_sum "Si O2"
_cell_formula_units_Z 88
_cell_length_a 12.099297
_cell_length_b 32.799580
_cell_length_c 10.598346
_cell_angle_alpha 90.000000
_cell_angle_beta 90.000000
_cell_angle_gamma 90.000000
_cell_volume 4205.973322
_symmetry_space_group_name_H-M "C C C A"
_symmetry_group_IT_number 68
_space_group.IT_coordinate_system_code '2'
_symmetry_cell_setting 'orthorhombic'
loop_
_space_group_symop_operation_xyz
x,y,z
-x,1/2-y,z
x,1/2-y,1/2-z
-x,y,1/2-z
-x,-y,-z
x,1/2+y,-z
-x,1/2+y,1/2+z
x,-y,1/2+z
1/2+x,1/2+y,z
1/2-x,-y,z
1/2+x,-y,1/2-z
1/2-x,1/2+y,1/2-z
1/2-x,1/2-y,-z
1/2+x,y,-z
1/2-x,y,1/2+z
1/2+x,1/2-y,1/2+z
loop_
_atom_site_type_symbol
_atom_site_label
_atom_site_fract_x
_atom_site_fract_y
_atom_site_fract_z
Si Si1 0.684673 0.704959 0.224811
Si Si2 0.000000 0.999343 0.750000
Si Si3 0.399896 0.843035 0.670048
Si Si4 0.009106 0.204549 0.444378
Si Si5 0.662750 0.933449 0.846746
Si Si6 0.688773 0.541509 0.378235
O O1 0.735520 0.750000 0.250000
O O2 0.784943 0.673244 0.227397
O O3 0.589898 0.700972 0.326946
O O4 0.618810 0.695538 0.093764
O O5 0.061619 0.969472 0.848151
O O6 0.084292 0.027474 0.671622
O O7 0.500000 0.825253 0.750000
O O8 0.430296 0.827789 0.532085
O O9 0.401973 0.891763 0.674932
O O10 0.000000 0.250000 0.502639
O O11 0.761830 0.935353 0.744499
O O12 0.703041 0.932567 0.992899
O O13 0.750000 0.500000 0.406358
#
# Coordination Sequence:
#
# PCOD8282438 Si02
#       6
#    16   8  16  16  16  16
#     4   9  22  44  67  91 126 174 224 267 319 392
#     4  10  20  44  66  94 121 168 223 264 316 394
#     4  12  27  39  63  99 136 168 211 276 331 385
#     4   9  22  44  67  91 126 174 222 270 323 389
#     4  11  24  42  62  98 133 162 212 274 332 387
#     4  10  22  42  70  91 121 172 214 261 323 398
#
# _framework density 20.922623999999999
#
# number of rings (size 3 to 8) (size 9 to 14) (size 15 to 20)
#    0.000    1.818    0.909    3.273    7.636    2.909 
#    3.273    0.000    0.000    0.000    0.000    0.000 
#    0.000    0.000    0.000    0.000    0.000    0.000 
#
# Total GULP energy -545136.915554 kJ/mol
# GULP energy per Si atom -12389.475353 kJ/mol
# Density = 2.087500 g / cm^3
# Si number density = 20.922624 Si / 1000 Ang^3
#
#
#
# Elastic Constant Matrix: (Units=GPa)
#
#
# Indices 1 2 3 4 5 6 
#
# 1 109.6576 32.4231 37.4996 0.0000 0.0000 0.0000
# 2 32.4231 74.8379 32.5034 0.0000 0.0000 0.0000
# 3 37.4996 32.5034 107.4221 0.0000 0.0000 0.0000
# 4 0.0000 0.0000 0.0000 32.9041 0.0000 0.0000
# 5 0.0000 0.0000 0.0000 0.0000 24.8051 0.0000
# 6 0.0000 0.0000 0.0000 0.0000 0.0000 26.9031
#
#
#
# Elastic Compliance Matrix: (Units=1/GPa)
#
#
# Indices 1 2 3 4 5 6 
#
# 1 0.011144 -0.003613 -0.002797 0.000000 0.000000 0.000000
# 2 -0.003613 0.016555 -0.003748 0.000000 0.000000 0.000000
# 3 -0.002797 -0.003748 0.011419 0.000000 0.000000 0.000000
# 4 0.000000 0.000000 0.000000 0.030391 0.000000 0.000000
# 5 0.000000 0.000000 0.000000 0.000000 0.040314 0.000000
# 6 0.000000 0.000000 0.000000 0.000000 0.000000 0.037170
#
#
# Mechanical properties :
#
#
# Convention : Reuss Voigt Hill
#
# Bulk Modulus (GPa) = 53.18408 55.19664 54.19036
# Shear Modulus (GPa) = 28.80530 29.55523 29.18027
#
# Velocity S-wave (km/s) = 3.71449 3.76253 3.73859
# Velocity P-wave (km/s) = 6.62353 6.73158 6.67777
#
# Compressibility (1/GPa) = 0.01880262
#
# Stress axis : x y z
#
# Youngs Moduli (GPa) = 89.73312 60.40302 87.56967
#
# Poissons Ratio (x) = 0.21826 0.24493
# Poissons Ratio (y) = 0.32424 0.32820
# Poissons Ratio (z) = 0.25098 0.22639
#
# Static dielectric constant tensor:
#      x y z
#    x 3.758270 0.000000 0.000000 
#    y 0.000000 3.929510 0.000000 
#    z 0.000000 0.000000 3.611170 
# 
# 
# High freq. dielectric constant tensor:
#      x y z
#    x 1.827330 0.000000 0.000000 
#    y 0.000000 1.804820 0.000000 
#    z 0.000000 0.000000 1.820820 
# 
# From -- ./inp_files/12057.got.cif
#   From: 2010.03.12/outbox.cif.g09.slc.cpg/sg68_7_cif.got.tgz:12057.got - 2010.04.10 23:14:56.
