data_PCOD8282455
_publ_section_title
;
Structure prediction by ZEFSAII (Michael W. Deem and Ramdas Pophale) SiO2 
 PCOD8282455
Probable space group: C C C A
;
_chemical_formula_sum "Si O2"
_cell_formula_units_Z 88
_cell_length_a 9.370716
_cell_length_b 24.292820
_cell_length_c 19.511406
_cell_angle_alpha 90.000000
_cell_angle_beta 90.000000
_cell_angle_gamma 90.000000
_cell_volume 4441.598257
_symmetry_space_group_name_H-M "C C C A"
_symmetry_group_IT_number 68
_space_group.IT_coordinate_system_code '2'
_symmetry_cell_setting 'orthorhombic'
loop_
_space_group_symop_operation_xyz
x,y,z
-x,1/2-y,z
x,1/2-y,1/2-z
-x,y,1/2-z
-x,-y,-z
x,1/2+y,-z
-x,1/2+y,1/2+z
x,-y,1/2+z
1/2+x,1/2+y,z
1/2-x,-y,z
1/2+x,-y,1/2-z
1/2-x,1/2+y,1/2-z
1/2-x,1/2-y,-z
1/2+x,y,-z
1/2-x,y,1/2+z
1/2+x,1/2-y,1/2+z
loop_
_atom_site_type_symbol
_atom_site_label
_atom_site_fract_x
_atom_site_fract_y
_atom_site_fract_z
Si Si1 0.700259 0.362625 0.130834
Si Si2 0.138790 0.714702 0.958014
Si Si3 0.500000 0.884063 0.750000
Si Si4 0.035284 0.105621 0.973682
Si Si5 0.875617 0.961318 0.901173
Si Si6 0.882549 0.462740 0.853407
O O1 0.786818 0.307118 0.112050
O O2 0.594305 0.349127 0.194709
O O3 0.616800 0.383687 0.062517
O O4 0.809871 0.412592 0.146547
O O5 0.000000 0.750000 0.937576
O O6 0.250000 0.750000 0.000000
O O7 0.099756 0.664128 0.006737
O O8 0.388385 0.921525 0.789919
O O9 0.139223 0.074168 0.921103
O O10 0.025345 0.065722 0.039614
O O11 0.750000 0.000000 0.932006
O O12 0.974775 0.000302 0.855283
O O13 0.750000 0.500000 0.839736
#
# Coordination Sequence:
#
# PCOD8282455 Si02
#       6
#    16  16   8  16  16  16
#     4  10  22  38  60  89 127 165 202 262 303 382
#     4  11  22  38  65  93 124 153 208 272 341 380
#     4  10  22  40  56  87 128 168 219 236 304 370
#     4  10  21  34  57  91 122 153 200 256 313 368
#     4  11  20  34  56  86 125 158 201 247 304 357
#     4  11  24  34  58  85 125 173 205 243 294 376
#
# _framework density 19.812687
#
# number of rings (size 3 to 8) (size 9 to 14) (size 15 to 20)
#    0.000    1.455    5.455    1.091    7.636    0.000 
#    0.000    0.000    0.000    8.727    0.000   10.182 
#    0.000    0.000    0.000    0.000    0.000    0.000 
#
# Total GULP energy -545366.642237 kJ/mol
# GULP energy per Si atom -12394.696414 kJ/mol
# Density = 1.976759 g / cm^3
# Si number density = 19.812687 Si / 1000 Ang^3
#
#
#
# Elastic Constant Matrix: (Units=GPa)
#
#
# Indices 1 2 3 4 5 6 
#
# 1 117.7725 51.8102 40.6624 0.0000 0.0000 0.0000
# 2 51.8102 110.1122 31.3843 0.0000 0.0000 0.0000
# 3 40.6624 31.3843 78.5248 0.0000 0.0000 0.0000
# 4 0.0000 0.0000 0.0000 15.9026 0.0000 0.0000
# 5 0.0000 0.0000 0.0000 0.0000 30.7504 0.0000
# 6 0.0000 0.0000 0.0000 0.0000 0.0000 37.1317
#
#
#
# Elastic Compliance Matrix: (Units=1/GPa)
#
#
# Indices 1 2 3 4 5 6 
#
# 1 0.011939 -0.004351 -0.004443 0.000000 0.000000 0.000000
# 2 -0.004351 0.011835 -0.002477 0.000000 0.000000 0.000000
# 3 -0.004443 -0.002477 0.016026 0.000000 0.000000 0.000000
# 4 0.000000 0.000000 0.000000 0.062883 0.000000 0.000000
# 5 0.000000 0.000000 0.000000 0.000000 0.032520 0.000000
# 6 0.000000 0.000000 0.000000 0.000000 0.000000 0.026931
#
#
# Mechanical properties :
#
#
# Convention : Reuss Voigt Hill
#
# Bulk Modulus (GPa) = 57.94818 61.56925 59.75871
# Shear Modulus (GPa) = 26.25645 28.92711 27.59178
#
# Velocity S-wave (km/s) = 3.64433 3.82518 3.73585
# Velocity P-wave (km/s) = 6.85709 7.11705 6.98828
#
# Compressibility (1/GPa) = 0.01725680
#
# Stress axis : x y z
#
# Youngs Moduli (GPa) = 83.75721 84.49539 62.39964
#
# Poissons Ratio (x) = 0.36766 0.27727
# Poissons Ratio (y) = 0.36445 0.15456
# Poissons Ratio (z) = 0.37217 0.20929
#
# Static dielectric constant tensor:
#      x y z
#    x 4.268570 0.000000 0.000000 
#    y 0.000000 3.853620 0.000000 
#    z 0.000000 0.000000 3.458160 
# 
# 
# High freq. dielectric constant tensor:
#      x y z
#    x 1.776450 0.000000 0.000000 
#    y 0.000000 1.772550 0.000000 
#    z 0.000000 0.000000 1.747350 
# 
# From -- ./inp_files/36276.got.cif
#   From: 2010.03.12/outbox.cif.g09.slc.cpg/sg68_19_cif.got.tgz:36276.got - 2010.04.10 23:14:56.
