data_PCOD8282564
_publ_section_title
;
Structure prediction by ZEFSAII (Michael W. Deem and Ramdas Pophale) SiO2 
 PCOD8282564
Probable space group: C C C A
;
_chemical_formula_sum "Si O2"
_cell_formula_units_Z 104
_cell_length_a 19.974787
_cell_length_b 19.195095
_cell_length_c 13.988575
_cell_angle_alpha 90.000000
_cell_angle_beta 90.000000
_cell_angle_gamma 90.000000
_cell_volume 5363.470527
_symmetry_space_group_name_H-M "C C C A"
_symmetry_group_IT_number 68
_space_group.IT_coordinate_system_code '2'
_symmetry_cell_setting 'orthorhombic'
loop_
_space_group_symop_operation_xyz
x,y,z
-x,1/2-y,z
x,1/2-y,1/2-z
-x,y,1/2-z
-x,-y,-z
x,1/2+y,-z
-x,1/2+y,1/2+z
x,-y,1/2+z
1/2+x,1/2+y,z
1/2-x,-y,z
1/2+x,-y,1/2-z
1/2-x,1/2+y,1/2-z
1/2-x,1/2-y,-z
1/2+x,y,-z
1/2-x,y,1/2+z
1/2+x,1/2-y,1/2+z
loop_
_atom_site_type_symbol
_atom_site_label
_atom_site_fract_x
_atom_site_fract_y
_atom_site_fract_z
Si Si1 0.397174 0.983381 0.503551
Si Si2 0.351616 0.750000 0.750000
Si Si3 0.990723 0.057308 0.640279
Si Si4 0.165668 0.126548 0.033506
Si Si5 0.276769 0.674303 0.269210
Si Si6 0.223286 0.924432 0.898069
Si Si7 0.061706 0.703744 0.081610
O O1 0.439357 0.943043 0.583431
O O2 0.337630 0.932358 0.472092
O O3 0.440633 0.002536 0.409791
O O4 0.368603 0.052531 0.553638
O O5 0.304079 0.818486 0.740894
O O6 0.397466 0.750508 0.843192
O O7 0.000000 0.034324 0.750000
O O8 0.961838 0.134782 0.636821
O O9 0.205252 0.150247 0.125693
O O10 0.217940 0.120385 0.946567
O O11 0.108989 0.183425 0.007480
O O12 0.310751 0.750000 0.250000
O O13 0.302864 0.617155 0.194174
O O14 0.250000 0.000000 0.865569
O O15 0.000000 0.750000 0.042663
#
# Coordination Sequence:
#
# PCOD8282564 Si02
#       7
#    16   8  16  16  16  16  16
#     4   9  22  38  59  90 120 159 206 247 314 366
#     4  10  21  38  58  94 117 158 206 248 318 366
#     4  10  21  38  58  87 118 161 204 255 299 362
#     4  10  21  41  60  88 126 153 206 257 305 376
#     4  10  23  38  63  92 123 163 199 257 320 373
#     4  10  21  40  61  93 125 161 205 262 316 379
#     4  11  22  38  59  85 122 160 207 251 300 373
#
# _framework density 19.390431
#
# number of rings (size 3 to 8) (size 9 to 14) (size 15 to 20)
#    0.462    1.538    1.538    1.154    2.154    8.000 
#    0.000    0.000    0.000    0.000    0.000    0.000 
#    0.000    0.000    0.000    0.000    0.000    0.000 
#
# Total GULP energy -644872.419762 kJ/mol
# GULP energy per Si atom -12401.392688 kJ/mol
# Density = 1.934630 g / cm^3
# Si number density = 19.390431 Si / 1000 Ang^3
#
#
#
# Elastic Constant Matrix: (Units=GPa)
#
#
# Indices 1 2 3 4 5 6 
#
# 1 104.1226 34.2506 35.8774 0.0000 0.0000 0.0000
# 2 34.2506 70.9220 49.3876 0.0000 0.0000 0.0000
# 3 35.8774 49.3876 110.6339 0.0000 0.0000 0.0000
# 4 0.0000 0.0000 0.0000 19.0655 0.0000 0.0000
# 5 0.0000 0.0000 0.0000 0.0000 21.7717 0.0000
# 6 0.0000 0.0000 0.0000 0.0000 0.0000 33.9777
#
#
#
# Elastic Compliance Matrix: (Units=1/GPa)
#
#
# Indices 1 2 3 4 5 6 
#
# 1 0.011671 -0.004354 -0.001841 0.000000 0.000000 0.000000
# 2 -0.004354 0.022085 -0.008447 0.000000 0.000000 0.000000
# 3 -0.001841 -0.008447 0.013406 0.000000 0.000000 0.000000
# 4 0.000000 0.000000 0.000000 0.052451 0.000000 0.000000
# 5 0.000000 0.000000 0.000000 0.000000 0.045931 0.000000
# 6 0.000000 0.000000 0.000000 0.000000 0.000000 0.029431
#
#
# Mechanical properties :
#
#
# Convention : Reuss Voigt Hill
#
# Bulk Modulus (GPa) = 55.93407 58.30109 57.11758
# Shear Modulus (GPa) = 23.78481 26.04051 24.91266
#
# Velocity S-wave (km/s) = 3.50612 3.66861 3.58829
# Velocity P-wave (km/s) = 6.73048 6.93377 6.83288
#
# Compressibility (1/GPa) = 0.01787819
#
# Stress axis : x y z
#
# Youngs Moduli (GPa) = 85.68472 45.27999 74.59073
#
# Poissons Ratio (x) = 0.19716 0.13732
# Poissons Ratio (y) = 0.37309 0.63005
# Poissons Ratio (z) = 0.15774 0.38247
#
# Static dielectric constant tensor:
#      x y z
#    x 3.679660 0.000000 0.000000 
#    y 0.000000 3.483770 0.000000 
#    z 0.000000 0.000000 3.239250 
# 
# 
# High freq. dielectric constant tensor:
#      x y z
#    x 1.760730 0.000000 0.000000 
#    y 0.000000 1.749020 0.000000 
#    z 0.000000 0.000000 1.743150 
# 
# From -- ./inp_files/24638.got.cif
#   From: 2010.03.12/outbox.cif.g09.slc.cpg/sg68_13_cif.got.tgz:24638.got - 2010.04.10 23:14:56.
