data_PCOD8282077
_publ_section_title
;
Structure prediction by ZEFSAII (Michael W. Deem and Ramdas Pophale) SiO2 
 PCOD8282077
Probable space group: C C C A
;
_chemical_formula_sum "Si O2"
_cell_formula_units_Z 104
_cell_length_a 25.895928
_cell_length_b 9.568079
_cell_length_c 22.770347
_cell_angle_alpha 90.000000
_cell_angle_beta 90.000000
_cell_angle_gamma 90.000000
_cell_volume 5641.906444
_symmetry_space_group_name_H-M "C C C A"
_symmetry_group_IT_number 68
_space_group.IT_coordinate_system_code '2'
_symmetry_cell_setting 'orthorhombic'
loop_
_space_group_symop_operation_xyz
x,y,z
-x,1/2-y,z
x,1/2-y,1/2-z
-x,y,1/2-z
-x,-y,-z
x,1/2+y,-z
-x,1/2+y,1/2+z
x,-y,1/2+z
1/2+x,1/2+y,z
1/2-x,-y,z
1/2+x,-y,1/2-z
1/2-x,1/2+y,1/2-z
1/2-x,1/2-y,-z
1/2+x,y,-z
1/2-x,y,1/2+z
1/2+x,1/2-y,1/2+z
loop_
_atom_site_type_symbol
_atom_site_label
_atom_site_fract_x
_atom_site_fract_y
_atom_site_fract_z
Si Si1 0.626903 0.291999 0.182708
Si Si2 0.503880 0.413268 0.941152
Si Si3 0.000000 0.561225 0.750000
Si Si4 0.919885 0.982441 0.154518
Si Si5 0.925613 0.574462 0.655852
Si Si6 0.739003 0.665115 0.690641
Si Si7 0.343658 0.281950 0.681054
O O1 0.630665 0.250000 0.250000
O O2 0.592647 0.429330 0.181991
O O3 0.684467 0.321479 0.156358
O O4 0.599068 0.175068 0.142807
O O5 0.500000 0.250000 0.955681
O O6 0.555576 0.450956 0.904354
O O7 0.453962 0.457072 0.904428
O O8 0.500000 0.500000 0.000000
O O9 0.038150 0.473293 0.707283
O O10 0.036290 0.649022 0.795196
O O11 0.866515 0.063720 0.171278
O O12 0.879486 0.678937 0.643799
O O13 0.731877 0.750000 0.750000
O O14 0.750000 0.500000 0.701763
O O15 0.785854 0.746905 0.657032
O O16 0.344761 0.250000 0.750000
#
# Coordination Sequence:
#
# PCOD8282077 Si02
#       7
#    16  16   8  16  16  16  16
#     4  11  21  36  52  88 122 154 194 228 285 342
#     4  11  26  43  59  84 113 150 198 237 289 348
#     4  10  20  32  50  80 114 148 180 228 276 332
#     4  11  23  35  58  83 116 150 191 238 283 341
#     4  11  21  35  57  79 116 151 190 233 283 337
#     4  10  22  33  51  77 122 162 192 230 280 345
#     4  11  19  34  55  84 115 155 190 228 285 338
#
# _framework density 18.433485999999998
#
# number of rings (size 3 to 8) (size 9 to 14) (size 15 to 20)
#    0.000    1.231    6.154    0.000    8.615    3.077 
#    0.000    0.000    0.000    0.000    0.000    6.462 
#    0.000    0.000    0.000    0.000    0.000    0.000 
#
# Total GULP energy -644238.725290 kJ/mol
# GULP energy per Si atom -12389.206256 kJ/mol
# Density = 1.839153 g / cm^3
# Si number density = 18.433486 Si / 1000 Ang^3
#
#
#
# Elastic Constant Matrix: (Units=GPa)
#
#
# Indices 1 2 3 4 5 6 
#
# 1 113.4755 43.1686 39.8914 0.0000 0.0000 0.0000
# 2 43.1686 93.7916 9.1251 0.0000 0.0000 0.0000
# 3 39.8914 9.1251 72.7251 0.0000 0.0000 0.0000
# 4 0.0000 0.0000 0.0000 24.3366 0.0000 0.0000
# 5 0.0000 0.0000 0.0000 0.0000 11.3749 0.0000
# 6 0.0000 0.0000 0.0000 0.0000 0.0000 25.1264
#
#
#
# Elastic Compliance Matrix: (Units=1/GPa)
#
#
# Indices 1 2 3 4 5 6 
#
# 1 0.013180 -0.005429 -0.006548 0.000000 0.000000 0.000000
# 2 -0.005429 0.013030 0.001343 0.000000 0.000000 0.000000
# 3 -0.006548 0.001343 0.017174 0.000000 0.000000 0.000000
# 4 0.000000 0.000000 0.000000 0.041090 0.000000 0.000000
# 5 0.000000 0.000000 0.000000 0.000000 0.087913 0.000000
# 6 0.000000 0.000000 0.000000 0.000000 0.000000 0.039799
#
#
# Mechanical properties :
#
#
# Convention : Reuss Voigt Hill
#
# Bulk Modulus (GPa) = 45.21796 51.59581 48.40688
# Shear Modulus (GPa) = 20.76191 24.68805 22.72498
#
# Velocity S-wave (km/s) = 3.35970 3.66362 3.51495
# Velocity P-wave (km/s) = 6.29553 6.77844 6.54144
#
# Compressibility (1/GPa) = 0.02211511
#
# Stress axis : x y z
#
# Youngs Moduli (GPa) = 75.87377 76.74568 58.22845
#
# Poissons Ratio (x) = 0.41666 0.38129
# Poissons Ratio (y) = 0.41192 -0.07820
# Poissons Ratio (z) = 0.49684 -0.10307
#
# Static dielectric constant tensor:
#      x y z
#    x 4.241770 0.000000 0.000000 
#    y 0.000000 3.538530 0.000000 
#    z 0.000000 0.000000 2.953030 
# 
# 
# High freq. dielectric constant tensor:
#      x y z
#    x 1.737300 0.000000 0.000000 
#    y 0.000000 1.725700 0.000000 
#    z 0.000000 0.000000 1.647890 
# 
# From -- ./inp_files/47256.got.cif
#   From: 2010.03.12/outbox.cif.g09.slc.cpg/sg68_24_cif.got.tgz:47256.got - 2010.04.10 23:14:56.
