data_PCOD8282846
_publ_section_title
;
Structure prediction by ZEFSAII (Michael W. Deem and Ramdas Pophale) SiO2 
 PCOD8282846
Probable space group: C C C A
;
_chemical_formula_sum "Si O2"
_cell_formula_units_Z 112
_cell_length_a 27.231683
_cell_length_b 14.816477
_cell_length_c 13.604737
_cell_angle_alpha 90.000000
_cell_angle_beta 90.000000
_cell_angle_gamma 90.000000
_cell_volume 5489.206699
_symmetry_space_group_name_H-M "C C C A"
_symmetry_group_IT_number 68
_space_group.IT_coordinate_system_code '2'
_symmetry_cell_setting 'orthorhombic'
loop_
_space_group_symop_operation_xyz
x,y,z
-x,1/2-y,z
x,1/2-y,1/2-z
-x,y,1/2-z
-x,-y,-z
x,1/2+y,-z
-x,1/2+y,1/2+z
x,-y,1/2+z
1/2+x,1/2+y,z
1/2-x,-y,z
1/2+x,-y,1/2-z
1/2-x,1/2+y,1/2-z
1/2-x,1/2-y,-z
1/2+x,y,-z
1/2-x,y,1/2+z
1/2+x,1/2-y,1/2+z
loop_
_atom_site_type_symbol
_atom_site_label
_atom_site_fract_x
_atom_site_fract_y
_atom_site_fract_z
Si Si1 0.088940 0.439308 0.416238
Si Si2 0.388778 0.889488 0.460653
Si Si3 0.663229 0.798594 0.500132
Si Si4 0.992610 0.854365 0.636105
Si Si5 0.220225 0.167540 0.189321
Si Si6 0.353031 0.035245 0.767264
Si Si7 0.674845 0.161384 0.216963
O O1 0.101134 0.540897 0.450892
O O2 0.119551 0.368465 0.479982
O O3 0.102739 0.428562 0.300802
O O4 0.031617 0.414118 0.426096
O O5 0.361878 0.800567 0.501880
O O6 0.438862 0.874500 0.402506
O O7 0.353441 0.933130 0.379431
O O8 0.708093 0.810056 0.423897
O O9 0.688616 0.825179 0.602837
O O10 0.000000 0.750000 0.615433
O O11 0.000000 0.878439 0.750000
O O12 0.195399 0.250000 0.250000
O O13 0.197410 0.071723 0.220415
O O14 0.277692 0.161228 0.211638
O O15 0.356058 0.927437 0.764306
O O16 0.643382 0.250000 0.250000
#
# Coordination Sequence:
#
# PCOD8282846 Si02
#       7
#    16  16  16  16  16  16  16
#     4  11  23  40  64  93 128 172 211 258 323 388
#     4  12  22  40  68  89 131 168 212 263 317 393
#     4  11  23  41  65  94 122 173 216 259 325 380
#     4  11  22  37  65  98 127 162 210 268 320 376
#     4  10  22  39  64  89 123 163 214 268 310 372
#     4  11  22  41  62  91 125 168 211 258 321 376
#     4  11  24  43  61  91 131 165 210 270 317 382
#
# _framework density 20.403676000000001
#
# number of rings (size 3 to 8) (size 9 to 14) (size 15 to 20)
#    0.000    1.000    5.714    1.714    0.000    2.286 
#    2.571    1.429    0.000    0.000    0.000    2.000 
#    0.000    0.000    0.000    0.000    0.000    0.000 
#
# Total GULP energy -694161.040186 kJ/mol
# GULP energy per Si atom -12395.732860 kJ/mol
# Density = 2.035724 g / cm^3
# Si number density = 20.403676 Si / 1000 Ang^3
#
#
#
# Elastic Constant Matrix: (Units=GPa)
#
#
# Indices 1 2 3 4 5 6 
#
# 1 64.7919 17.6844 9.6454 0.0000 0.0000 0.0000
# 2 17.6844 118.1463 13.6179 0.0000 0.0000 0.0000
# 3 9.6454 13.6179 79.9787 0.0000 0.0000 0.0000
# 4 0.0000 0.0000 0.0000 33.7030 0.0000 0.0000
# 5 0.0000 0.0000 0.0000 0.0000 22.6119 0.0000
# 6 0.0000 0.0000 0.0000 0.0000 0.0000 24.1103
#
#
#
# Elastic Compliance Matrix: (Units=1/GPa)
#
#
# Indices 1 2 3 4 5 6 
#
# 1 0.016285 -0.002255 -0.001580 0.000000 0.000000 0.000000
# 2 -0.002255 0.008946 -0.001251 0.000000 0.000000 0.000000
# 3 -0.001580 -0.001251 0.012907 0.000000 0.000000 0.000000
# 4 0.000000 0.000000 0.000000 0.029671 0.000000 0.000000
# 5 0.000000 0.000000 0.000000 0.000000 0.044225 0.000000
# 6 0.000000 0.000000 0.000000 0.000000 0.000000 0.041476
#
#
# Mechanical properties :
#
#
# Convention : Reuss Voigt Hill
#
# Bulk Modulus (GPa) = 35.75963 38.31250 37.03606
# Shear Modulus (GPa) = 28.90109 30.88297 29.89203
#
# Velocity S-wave (km/s) = 3.76768 3.89472 3.83173
# Velocity P-wave (km/s) = 6.04080 6.24845 6.14550
#
# Compressibility (1/GPa) = 0.02796450
#
# Stress axis : x y z
#
# Youngs Moduli (GPa) = 61.40685 111.78302 77.47786
#
# Poissons Ratio (x) = 0.25212 0.12241
# Poissons Ratio (y) = 0.13850 0.09694
# Poissons Ratio (z) = 0.09702 0.13986
#
# Static dielectric constant tensor:
#      x y z
#    x 3.824050 0.000000 0.000000 
#    y 0.000000 4.259910 0.000000 
#    z 0.000000 0.000000 3.718490 
# 
# 
# High freq. dielectric constant tensor:
#      x y z
#    x 1.777260 0.000000 0.000000 
#    y 0.000000 1.813070 0.000000 
#    z 0.000000 0.000000 1.801850 
# 
# From -- ./inp_files/13598.got.cif
#   From: 2010.03.12/outbox.cif.g09.slc.cpg/sg68_7_cif.got.tgz:13598.got - 2010.04.10 23:14:56.
