data_PCOD8282778
_publ_section_title
;
Structure prediction by ZEFSAII (Michael W. Deem and Ramdas Pophale) SiO2 
 PCOD8282778
Probable space group: C C C A
;
_chemical_formula_sum "Si O2"
_cell_formula_units_Z 116
_cell_length_a 22.460796
_cell_length_b 26.054664
_cell_length_c 9.022120
_cell_angle_alpha 90.000000
_cell_angle_beta 90.000000
_cell_angle_gamma 90.000000
_cell_volume 5279.821248
_symmetry_space_group_name_H-M "C C C A"
_symmetry_group_IT_number 68
_space_group.IT_coordinate_system_code '2'
_symmetry_cell_setting 'orthorhombic'
loop_
_space_group_symop_operation_xyz
x,y,z
-x,1/2-y,z
x,1/2-y,1/2-z
-x,y,1/2-z
-x,-y,-z
x,1/2+y,-z
-x,1/2+y,1/2+z
x,-y,1/2+z
1/2+x,1/2+y,z
1/2-x,-y,z
1/2+x,-y,1/2-z
1/2-x,1/2+y,1/2-z
1/2-x,1/2-y,-z
1/2+x,y,-z
1/2-x,y,1/2+z
1/2+x,1/2-y,1/2+z
loop_
_atom_site_type_symbol
_atom_site_label
_atom_site_fract_x
_atom_site_fract_y
_atom_site_fract_z
Si Si1 0.680209 0.905922 0.059229
Si Si2 0.438282 0.560217 0.670272
Si Si3 0.720426 0.050172 0.849415
Si Si4 0.176958 0.717606 0.892362
Si Si5 0.399313 0.323667 0.127923
Si Si6 0.000000 0.750000 0.250000
Si Si7 0.889573 0.506522 0.056450
Si Si8 0.307841 0.807897 0.608439
O O1 0.732842 0.922649 0.952641
O O2 0.622373 0.941834 0.038629
O O3 0.666440 0.847705 0.013665
O O4 0.700284 0.908260 0.228755
O O5 0.500000 0.566302 0.750000
O O6 0.413717 0.616752 0.647291
O O7 0.442769 0.527383 0.517037
O O8 0.397937 0.524256 0.775086
O O9 0.750000 0.000000 0.771003
O O10 0.666313 0.031910 0.952351
O O11 0.155102 0.750000 0.750000
O O12 0.237293 0.685935 0.852679
O O13 0.124528 0.680927 0.957178
O O14 0.186272 0.752601 0.036716
O O15 0.457312 0.286974 0.150908
O O16 0.347085 0.310567 0.244171
#
# Coordination Sequence:
#
# PCOD8282778 Si02
#       8
#    16  16  16  16  16   4  16  16
#     4  11  23  35  61  95 134 178 225 273 345 437
#     4  12  26  45  70 100 129 186 244 298 353 415
#     4  10  22  36  56  92 134 180 220 276 346 413
#     4  11  25  42  65 105 146 172 220 307 368 420
#     4  12  25  47  77 101 135 192 242 283 360 434
#     4  12  24  52  78  96 132 184 246 294 312 442
#     4  11  23  43  64  90 138 173 231 298 341 408
#     4  11  23  40  67  99 141 183 227 283 359 435
#
# _framework density 21.97044
#
# number of rings (size 3 to 8) (size 9 to 14) (size 15 to 20)
#    0.000    0.828    4.828    3.310    7.724    0.000 
#    0.000    0.345    0.000    0.000    0.000    0.000 
#    0.000    0.000    0.000    0.000    0.000    0.000 
#
# Total GULP energy -718880.863159 kJ/mol
# GULP energy per Si atom -12394.497641 kJ/mol
# Density = 2.192043 g / cm^3
# Si number density = 21.970440 Si / 1000 Ang^3
#
#
#
# Elastic Constant Matrix: (Units=GPa)
#
#
# Indices 1 2 3 4 5 6 
#
# 1 94.7595 37.3319 33.4055 0.0000 0.0000 0.0000
# 2 37.3319 117.3540 43.8831 0.0000 0.0000 0.0000
# 3 33.4055 43.8831 71.6565 0.0000 0.0000 0.0000
# 4 0.0000 0.0000 0.0000 47.4529 0.0000 0.0000
# 5 0.0000 0.0000 0.0000 0.0000 38.3223 0.0000
# 6 0.0000 0.0000 0.0000 0.0000 0.0000 36.6721
#
#
#
# Elastic Compliance Matrix: (Units=1/GPa)
#
#
# Indices 1 2 3 4 5 6 
#
# 1 0.013151 -0.002453 -0.004629 0.000000 0.000000 0.000000
# 2 -0.002453 0.011510 -0.005905 0.000000 0.000000 0.000000
# 3 -0.004629 -0.005905 0.019730 0.000000 0.000000 0.000000
# 4 0.000000 0.000000 0.000000 0.021074 0.000000 0.000000
# 5 0.000000 0.000000 0.000000 0.000000 0.026094 0.000000
# 6 0.000000 0.000000 0.000000 0.000000 0.000000 0.027269
#
#
# Mechanical properties :
#
#
# Convention : Reuss Voigt Hill
#
# Bulk Modulus (GPa) = 54.29740 57.00121 55.64931
# Shear Modulus (GPa) = 33.12581 35.76610 34.44596
#
# Velocity S-wave (km/s) = 3.88718 4.03913 3.96388
# Velocity P-wave (km/s) = 6.70182 6.91039 6.80691
#
# Compressibility (1/GPa) = 0.01841709
#
# Stress axis : x y z
#
# Youngs Moduli (GPa) = 76.03933 86.88378 50.68469
#
# Poissons Ratio (x) = 0.21309 0.23461
# Poissons Ratio (y) = 0.18650 0.29930
# Poissons Ratio (z) = 0.35198 0.51307
#
# Static dielectric constant tensor:
#      x y z
#    x 3.969440 0.000000 0.000000 
#    y 0.000000 4.374460 0.000000 
#    z 0.000000 0.000000 3.900820 
# 
# 
# High freq. dielectric constant tensor:
#      x y z
#    x 1.840840 0.000000 0.000000 
#    y 0.000000 1.883740 0.000000 
#    z 0.000000 0.000000 1.860070 
# 
# From -- ./inp_files/8364.got.cif
#   From: 2010.03.12/outbox.cif.g09.slc.cpg/sg68_5_cif.got.tgz:8364.got - 2010.04.10 23:14:56.
