data_PCOD8282840
_publ_section_title
;
Structure prediction by ZEFSAII (Michael W. Deem and Ramdas Pophale) SiO2 
 PCOD8282840
Probable space group: C C C A
;
_chemical_formula_sum "Si O2"
_cell_formula_units_Z 116
_cell_length_a 24.047070
_cell_length_b 17.814994
_cell_length_c 12.763763
_cell_angle_alpha 90.000000
_cell_angle_beta 90.000000
_cell_angle_gamma 90.000000
_cell_volume 5467.975746
_symmetry_space_group_name_H-M "C C C A"
_symmetry_group_IT_number 68
_space_group.IT_coordinate_system_code '2'
_symmetry_cell_setting 'orthorhombic'
loop_
_space_group_symop_operation_xyz
x,y,z
-x,1/2-y,z
x,1/2-y,1/2-z
-x,y,1/2-z
-x,-y,-z
x,1/2+y,-z
-x,1/2+y,1/2+z
x,-y,1/2+z
1/2+x,1/2+y,z
1/2-x,-y,z
1/2+x,-y,1/2-z
1/2-x,1/2+y,1/2-z
1/2-x,1/2-y,-z
1/2+x,y,-z
1/2-x,y,1/2+z
1/2+x,1/2-y,1/2+z
loop_
_atom_site_type_symbol
_atom_site_label
_atom_site_fract_x
_atom_site_fract_y
_atom_site_fract_z
Si Si1 0.820054 0.401414 0.733212
Si Si2 0.932881 0.576009 0.951853
Si Si3 0.366969 0.559532 0.247169
Si Si4 0.596088 0.674753 0.874578
Si Si5 0.218201 0.322426 0.180394
Si Si6 0.000000 0.750000 0.250000
Si Si7 0.341669 0.814922 0.533333
Si Si8 0.443347 0.425287 0.937902
O O1 0.825712 0.491532 0.721768
O O2 0.877559 0.369725 0.777778
O O3 0.770946 0.378639 0.813573
O O4 0.809895 0.367310 0.617554
O O5 0.901120 0.536285 0.856013
O O6 0.994053 0.604452 0.918800
O O7 0.898115 0.646097 0.994101
O O8 0.941431 0.514417 0.041861
O O9 0.333392 0.635224 0.229787
O O10 0.409780 0.586952 0.333219
O O11 0.537619 0.702199 0.829018
O O12 0.639628 0.738320 0.911282
O O13 0.586010 0.620223 0.970681
O O14 0.232071 0.250000 0.250000
O O15 0.202769 0.300739 0.060330
#
# Coordination Sequence:
#
# PCOD8282840 Si02
#       8
#    16  16  16  16  16   4  16  16
#     4  12  24  44  67  99 130 174 228 286 338 407
#     4  10  22  39  62  94 132 174 215 268 334 401
#     4  11  23  44  65  97 133 173 228 282 334 408
#     4  12  24  39  68  99 137 175 227 274 348 401
#     4  11  26  45  68  94 132 181 229 282 343 403
#     4  12  24  40  64 108 142 176 222 296 330 420
#     4  11  23  45  65  95 139 171 222 288 337 405
#     4  11  22  38  66  95 131 178 215 268 336 405
#
# _framework density 21.214433
#
# number of rings (size 3 to 8) (size 9 to 14) (size 15 to 20)
#    0.000    0.828    4.138    3.310    0.000    3.310 
#    0.000    1.379    0.000    2.483    0.000    0.000 
#    0.000    0.000    0.000    0.000    0.000    0.000 
#
# Total GULP energy -719381.960932 kJ/mol
# GULP energy per Si atom -12403.137257 kJ/mol
# Density = 2.116615 g / cm^3
# Si number density = 21.214433 Si / 1000 Ang^3
#
#
#
# Elastic Constant Matrix: (Units=GPa)
#
#
# Indices 1 2 3 4 5 6 
#
# 1 71.1327 -10.4513 23.2649 0.0000 0.0000 0.0000
# 2 -10.4513 55.1271 19.2958 0.0000 0.0000 0.0000
# 3 23.2649 19.2958 72.1935 0.0000 0.0000 0.0000
# 4 0.0000 0.0000 0.0000 27.0145 0.0000 0.0000
# 5 0.0000 0.0000 0.0000 0.0000 38.9667 0.0000
# 6 0.0000 0.0000 0.0000 0.0000 0.0000 7.7776
#
#
#
# Elastic Compliance Matrix: (Units=1/GPa)
#
#
# Indices 1 2 3 4 5 6 
#
# 1 0.017219 0.005744 -0.007084 0.000000 0.000000 0.000000
# 2 0.005744 0.021928 -0.007712 0.000000 0.000000 0.000000
# 3 -0.007084 -0.007712 0.018196 0.000000 0.000000 0.000000
# 4 0.000000 0.000000 0.000000 0.037017 0.000000 0.000000
# 5 0.000000 0.000000 0.000000 0.000000 0.025663 0.000000
# 6 0.000000 0.000000 0.000000 0.000000 0.000000 0.128574
#
#
# Mechanical properties :
#
#
# Convention : Reuss Voigt Hill
#
# Bulk Modulus (GPa) = 25.48483 29.18579 27.33531
# Shear Modulus (GPa) = 17.87110 25.84136 21.85623
#
# Velocity S-wave (km/s) = 2.90557 3.49392 3.21324
# Velocity P-wave (km/s) = 4.82654 5.48307 5.16524
#
# Compressibility (1/GPa) = 0.03923903
#
# Stress axis : x y z
#
# Youngs Moduli (GPa) = 58.07457 45.60314 54.95735
#
# Poissons Ratio (x) = -0.26195 0.38934
# Poissons Ratio (y) = -0.33359 0.42384
# Poissons Ratio (z) = 0.41142 0.35170
#
# Static dielectric constant tensor:
#      x y z
#    x 3.885670 0.000000 0.000000 
#    y 0.000000 3.734620 0.000000 
#    z 0.000000 0.000000 3.904400 
# 
# 
# High freq. dielectric constant tensor:
#      x y z
#    x 1.841080 0.000000 0.000000 
#    y 0.000000 1.830070 0.000000 
#    z 0.000000 0.000000 1.838220 
# 
# From -- ./inp_files/14827.got.cif
#   From: 2010.03.12/outbox.cif.g09.slc.cpg/sg68_8_cif.got.tgz:14827.got - 2010.04.10 23:14:56.
