data_PCOD8282515
_publ_section_title
;
Structure prediction by ZEFSAII (Michael W. Deem and Ramdas Pophale) SiO2 
 PCOD8282515
Probable space group: C C C A
;
_chemical_formula_sum "Si O2"
_cell_formula_units_Z 64
_cell_length_a 14.074133
_cell_length_b 19.233665
_cell_length_c 11.872749
_cell_angle_alpha 90.000000
_cell_angle_beta 90.000000
_cell_angle_gamma 90.000000
_cell_volume 3213.919427
_symmetry_space_group_name_H-M "C C C A"
_symmetry_group_IT_number 68
_space_group.IT_coordinate_system_code '2'
_symmetry_cell_setting 'orthorhombic'
loop_
_space_group_symop_operation_xyz
x,y,z
-x,1/2-y,z
x,1/2-y,1/2-z
-x,y,1/2-z
-x,-y,-z
x,1/2+y,-z
-x,1/2+y,1/2+z
x,-y,1/2+z
1/2+x,1/2+y,z
1/2-x,-y,z
1/2+x,-y,1/2-z
1/2-x,1/2+y,1/2-z
1/2-x,1/2-y,-z
1/2+x,y,-z
1/2-x,y,1/2+z
1/2+x,1/2-y,1/2+z
loop_
_atom_site_type_symbol
_atom_site_label
_atom_site_fract_x
_atom_site_fract_y
_atom_site_fract_z
Si Si1 0.396029 0.828886 0.215923
Si Si2 0.565409 0.041875 0.354620
Si Si3 0.596843 0.592587 0.003736
Si Si4 0.274852 0.079851 0.295860
O O1 0.377412 0.750000 0.250000
O O2 0.500000 0.855209 0.250000
O O3 0.318289 0.874824 0.279207
O O4 0.393089 0.838852 0.080820
O O5 0.500000 0.016369 0.250000
O O6 0.505290 0.088303 0.442154
O O7 0.650444 0.090207 0.306966
O O8 0.610042 0.974989 0.416550
O O9 0.680578 0.600810 0.914674
O O10 0.250000 0.000000 0.303050
#
# Coordination Sequence:
#
# PCOD8282515 Si02
#       4
#    16  16  16  16
#     4  11  26  45  61  86 132 179 219 263 321 401
#     4   9  19  37  61  98 128 156 207 270 325 383
#     4  10  21  36  65  93 126 169 202 268 334 376
#     4  11  23  36  64 101 127 163 218 278 322 383
#
# _framework density 19.91338
#
# number of rings (size 3 to 8) (size 9 to 14) (size 15 to 20)
#    0.000    1.750    2.500    0.750   10.500    1.000 
#    0.000    2.500    0.000    5.250    0.000    0.000 
#    0.000    0.000    0.000    0.000    0.000    0.000 
#
# Total GULP energy -396783.173761 kJ/mol
# GULP energy per Si atom -12399.474180 kJ/mol
# Density = 1.986806 g / cm^3
# Si number density = 19.913380 Si / 1000 Ang^3
#
#
#
# Elastic Constant Matrix: (Units=GPa)
#
#
# Indices 1 2 3 4 5 6 
#
# 1 154.1452 72.4903 71.4899 0.0000 0.0000 0.0000
# 2 72.4903 114.5294 68.9905 0.0000 0.0000 0.0000
# 3 71.4899 68.9905 156.3600 0.0000 0.0000 0.0000
# 4 0.0000 0.0000 0.0000 20.7600 0.0000 0.0000
# 5 0.0000 0.0000 0.0000 0.0000 30.7699 0.0000
# 6 0.0000 0.0000 0.0000 0.0000 0.0000 29.0342
#
#
#
# Elastic Compliance Matrix: (Units=1/GPa)
#
#
# Indices 1 2 3 4 5 6 
#
# 1 0.009850 -0.004797 -0.002387 0.000000 0.000000 0.000000
# 2 -0.004797 0.014228 -0.004085 0.000000 0.000000 0.000000
# 3 -0.002387 -0.004085 0.009289 0.000000 0.000000 0.000000
# 4 0.000000 0.000000 0.000000 0.048170 0.000000 0.000000
# 5 0.000000 0.000000 0.000000 0.000000 0.032499 0.000000
# 6 0.000000 0.000000 0.000000 0.000000 0.000000 0.034442
#
#
# Mechanical properties :
#
#
# Convention : Reuss Voigt Hill
#
# Bulk Modulus (GPa) = 92.33336 94.55288 93.44312
# Shear Modulus (GPa) = 28.63268 30.25041 29.44155
#
# Velocity S-wave (km/s) = 3.79603 3.90179 3.84927
# Velocity P-wave (km/s) = 8.10440 8.23916 8.17206
#
# Compressibility (1/GPa) = 0.01083032
#
# Stress axis : x y z
#
# Youngs Moduli (GPa) = 101.52005 70.28465 107.65103
#
# Poissons Ratio (x) = 0.33713 0.25699
# Poissons Ratio (y) = 0.48695 0.43972
# Poissons Ratio (z) = 0.24236 0.28709
#
# Static dielectric constant tensor:
#      x y z
#    x 4.108030 0.000000 0.000000 
#    y 0.000000 2.783580 0.000000 
#    z 0.000000 0.000000 4.086990 
# 
# 
# High freq. dielectric constant tensor:
#      x y z
#    x 1.794340 0.000000 0.000000 
#    y 0.000000 1.729920 0.000000 
#    z 0.000000 0.000000 1.798290 
# 
# From -- ./inp_files/11534.got.cif
#   From: 2010.03.12/outbox.cif.g09.slc.cpg/sg68_6_cif.got.tgz:11534.got - 2010.04.10 23:14:56.
