data_PCOD8282987
_publ_section_title
;
Structure prediction by ZEFSAII (Michael W. Deem and Ramdas Pophale) SiO2 
 PCOD8282987
Probable space group: C C C A
;
_chemical_formula_sum "Si O2"
_cell_formula_units_Z 96
_cell_length_a 24.615964
_cell_length_b 11.296267
_cell_length_c 16.952632
_cell_angle_alpha 90.000000
_cell_angle_beta 90.000000
_cell_angle_gamma 90.000000
_cell_volume 4713.992982
_symmetry_space_group_name_H-M "C C C A"
_symmetry_group_IT_number 68
_space_group.IT_coordinate_system_code '2'
_symmetry_cell_setting 'orthorhombic'
loop_
_space_group_symop_operation_xyz
x,y,z
-x,1/2-y,z
x,1/2-y,1/2-z
-x,y,1/2-z
-x,-y,-z
x,1/2+y,-z
-x,1/2+y,1/2+z
x,-y,1/2+z
1/2+x,1/2+y,z
1/2-x,-y,z
1/2+x,-y,1/2-z
1/2-x,1/2+y,1/2-z
1/2-x,1/2-y,-z
1/2+x,y,-z
1/2-x,y,1/2+z
1/2+x,1/2-y,1/2+z
loop_
_atom_site_type_symbol
_atom_site_label
_atom_site_fract_x
_atom_site_fract_y
_atom_site_fract_z
Si Si1 0.677883 0.797901 0.665326
Si Si2 0.568760 0.086914 0.121664
Si Si3 0.921710 0.750000 0.750000
Si Si4 0.000000 0.250000 0.505263
Si Si5 0.000000 0.453763 0.250000
Si Si6 0.250000 0.500000 0.087198
Si Si7 0.803602 0.676975 0.014077
Si Si8 0.099753 0.661702 0.585547
O O1 0.695262 0.750000 0.750000
O O2 0.614588 0.834836 0.665512
O O3 0.719933 0.902700 0.641472
O O4 0.683995 0.684212 0.606982
O O5 0.534463 0.159860 0.058197
O O6 0.524533 0.037559 0.183129
O O7 0.603107 0.980904 0.082094
O O8 0.954818 0.636734 0.716262
O O9 0.887444 0.793721 0.674607
O O10 0.960556 0.315554 0.444967
O O11 0.204880 0.450149 0.026289
O O12 0.750000 0.750000 0.000000
O O13 0.856677 0.728475 0.969652
#
# Coordination Sequence:
#
# PCOD8282987 Si02
#       8
#    16  16   8   8   8   8  16  16
#     4  11  24  43  67  98 131 164 219 271 322 389
#     4  11  23  38  60  92 127 173 209 259 319 387
#     4   9  20  40  62  88 124 164 218 263 302 378
#     4  12  24  36  62  90 128 166 216 258 315 395
#     4   9  20  37  56  88 130 165 208 257 312 370
#     4  10  22  48  70  88 130 170 216 276 320 388
#     4  10  22  43  67  92 124 169 212 268 329 381
#     4  11  21  42  64  91 124 167 216 266 320 380
#
# _framework density 20.364899999999999
#
# number of rings (size 3 to 8) (size 9 to 14) (size 15 to 20)
#    0.000    1.500    3.333    2.500    2.333    0.667 
#    6.000    8.333    0.000    0.000    0.000    0.000 
#    0.000    0.000    0.000    0.000    0.000    0.000 
#
# Total GULP energy -594642.210952 kJ/mol
# GULP energy per Si atom -12388.379395 kJ/mol
# Density = 2.031855 g / cm^3
# Si number density = 20.364900 Si / 1000 Ang^3
#
#
#
# Elastic Constant Matrix: (Units=GPa)
#
#
# Indices 1 2 3 4 5 6 
#
# 1 96.9619 25.9909 54.0361 0.0000 0.0000 0.0000
# 2 25.9909 82.5928 62.0490 0.0000 0.0000 0.0000
# 3 54.0361 62.0490 161.7787 0.0000 0.0000 0.0000
# 4 0.0000 0.0000 0.0000 29.4115 0.0000 0.0000
# 5 0.0000 0.0000 0.0000 0.0000 24.0757 0.0000
# 6 0.0000 0.0000 0.0000 0.0000 0.0000 22.3592
#
#
#
# Elastic Compliance Matrix: (Units=1/GPa)
#
#
# Indices 1 2 3 4 5 6 
#
# 1 0.012748 -0.001142 -0.003820 0.000000 0.000000 0.000000
# 2 -0.001142 0.017111 -0.006181 0.000000 0.000000 0.000000
# 3 -0.003820 -0.006181 0.009828 0.000000 0.000000 0.000000
# 4 0.000000 0.000000 0.000000 0.034000 0.000000 0.000000
# 5 0.000000 0.000000 0.000000 0.000000 0.041536 0.000000
# 6 0.000000 0.000000 0.000000 0.000000 0.000000 0.044724
#
#
# Mechanical properties :
#
#
# Convention : Reuss Voigt Hill
#
# Bulk Modulus (GPa) = 57.46943 69.49838 63.48390
# Shear Modulus (GPa) = 26.59092 28.45310 27.52201
#
# Velocity S-wave (km/s) = 3.61740 3.74192 3.68019
# Velocity P-wave (km/s) = 6.76229 7.27117 7.02134
#
# Compressibility (1/GPa) = 0.01740056
#
# Stress axis : x y z
#
# Youngs Moduli (GPa) = 78.44153 58.44305 101.74948
#
# Poissons Ratio (x) = 0.06673 0.38870
# Poissons Ratio (y) = 0.08956 0.62894
# Poissons Ratio (z) = 0.29966 0.36125
#
# Static dielectric constant tensor:
#      x y z
#    x 3.989040 0.000000 0.000000 
#    y 0.000000 3.903950 0.000000 
#    z 0.000000 0.000000 3.763700 
# 
# 
# High freq. dielectric constant tensor:
#      x y z
#    x 1.805930 0.000000 0.000000 
#    y 0.000000 1.789800 0.000000 
#    z 0.000000 0.000000 1.794520 
# 
# From -- ./inp_files/33615.got.cif
#   From: 2010.03.12/outbox.cif.g09.slc.cpg/sg68_17_cif.got.tgz:33615.got - 2010.04.10 23:14:56.
