data_PCOD8282918
_publ_section_title
;
Structure prediction by ZEFSAII (Michael W. Deem and Ramdas Pophale) SiO2 
 PCOD8282918
Probable space group: C C C A
;
_chemical_formula_sum "Si O2"
_cell_formula_units_Z 68
_cell_length_a 10.155443
_cell_length_b 19.158510
_cell_length_c 15.585804
_cell_angle_alpha 90.000000
_cell_angle_beta 90.000000
_cell_angle_gamma 90.000000
_cell_volume 3032.423219
_symmetry_space_group_name_H-M "C C C A"
_symmetry_group_IT_number 68
_space_group.IT_coordinate_system_code '2'
_symmetry_cell_setting 'orthorhombic'
loop_
_space_group_symop_operation_xyz
x,y,z
-x,1/2-y,z
x,1/2-y,1/2-z
-x,y,1/2-z
-x,-y,-z
x,1/2+y,-z
-x,1/2+y,1/2+z
x,-y,1/2+z
1/2+x,1/2+y,z
1/2-x,-y,z
1/2+x,-y,1/2-z
1/2-x,1/2+y,1/2-z
1/2-x,1/2-y,-z
1/2+x,y,-z
1/2-x,y,1/2+z
1/2+x,1/2-y,1/2+z
loop_
_atom_site_type_symbol
_atom_site_label
_atom_site_fract_x
_atom_site_fract_y
_atom_site_fract_z
Si Si1 0.619477 0.699127 0.072935
Si Si2 0.681491 0.687522 0.889684
Si Si3 0.651074 0.054686 0.649307
Si Si4 0.638092 0.948077 0.350806
Si Si5 0.000000 0.750000 0.250000
O O1 0.500000 0.750000 0.102136
O O2 0.597315 0.669913 0.975643
O O3 0.244997 0.760731 0.086222
O O4 0.651356 0.634042 0.133582
O O5 0.797509 0.631957 0.872454
O O6 0.586934 0.697210 0.807728
O O7 0.507458 0.035489 0.611301
O O8 0.644101 0.042008 0.749909
O O9 0.750000 0.000000 0.605750
O O10 0.750000 0.000000 0.392095
#
# Coordination Sequence:
#
# PCOD8282918 Si02
#       5
#    16  16  16  16   4
#     4  11  22  44  67  95 135 178 229 283 348 414
#     4  11  24  40  66  97 133 176 225 289 344 416
#     4  10  22  41  63  95 133 173 227 282 343 408
#     4  10  22  42  68  96 129 179 228 283 341 414
#     4  12  24  40  62 104 132 178 228 292 356 416
#
# _framework density 22.424309999999998
#
# number of rings (size 3 to 8) (size 9 to 14) (size 15 to 20)
#    0.000    1.412    3.529    1.412    0.000    6.588 
#    0.000    2.353    0.000    0.000    0.000    0.000 
#    0.000    0.000    0.000    0.000    0.000    0.000 
#
# Total GULP energy -421234.959390 kJ/mol
# GULP energy per Si atom -12389.263511 kJ/mol
# Density = 2.237327 g / cm^3
# Si number density = 22.424310 Si / 1000 Ang^3
#
#
#
# Elastic Constant Matrix: (Units=GPa)
#
#
# Indices 1 2 3 4 5 6 
#
# 1 157.6892 79.8392 29.6457 0.0000 0.0000 0.0000
# 2 79.8392 125.0309 7.1927 0.0000 0.0000 0.0000
# 3 29.6457 7.1927 35.4574 0.0000 0.0000 0.0000
# 4 0.0000 0.0000 0.0000 11.6809 0.0000 0.0000
# 5 0.0000 0.0000 0.0000 0.0000 14.6155 0.0000
# 6 0.0000 0.0000 0.0000 0.0000 0.0000 59.3752
#
#
#
# Elastic Compliance Matrix: (Units=1/GPa)
#
#
# Indices 1 2 3 4 5 6 
#
# 1 0.011262 -0.006728 -0.008051 0.000000 0.000000 0.000000
# 2 -0.006728 0.012112 0.003168 0.000000 0.000000 0.000000
# 3 -0.008051 0.003168 0.034291 0.000000 0.000000 0.000000
# 4 0.000000 0.000000 0.000000 0.085610 0.000000 0.000000
# 5 0.000000 0.000000 0.000000 0.000000 0.068420 0.000000
# 6 0.000000 0.000000 0.000000 0.000000 0.000000 0.016842
#
#
# Mechanical properties :
#
#
# Convention : Reuss Voigt Hill
#
# Bulk Modulus (GPa) = 29.03290 61.28140 45.15715
# Shear Modulus (GPa) = 18.99408 30.56766 24.78087
#
# Velocity S-wave (km/s) = 2.91354 3.69609 3.32790
# Velocity P-wave (km/s) = 4.92884 6.75294 5.91167
#
# Compressibility (1/GPa) = 0.03444368
#
# Stress axis : x y z
#
# Youngs Moduli (GPa) = 88.79723 82.56294 29.16177
#
# Poissons Ratio (x) = 0.55548 0.23478
# Poissons Ratio (y) = 0.59743 -0.09239
# Poissons Ratio (z) = 0.71490 -0.26158
#
# Static dielectric constant tensor:
#      x y z
#    x 4.470050 0.000000 0.000000 
#    y 0.000000 3.952060 0.000000 
#    z 0.000000 0.000000 4.010520 
# 
# 
# High freq. dielectric constant tensor:
#      x y z
#    x 1.895200 0.000000 0.000000 
#    y 0.000000 1.881010 0.000000 
#    z 0.000000 0.000000 1.869780 
# 
# From -- ./inp_files/27978.got.cif
#   From: 2010.03.12/outbox.cif.g09.slc.cpg/sg68_14_cif.got.tgz:27978.got - 2010.04.10 23:14:56.
