data_PCOD8282858
_publ_section_title
;
Structure prediction by ZEFSAII (Michael W. Deem and Ramdas Pophale) SiO2 
 PCOD8282858
Probable space group: C C C A
;
_chemical_formula_sum "Si O2"
_cell_formula_units_Z 72
_cell_length_a 9.337207
_cell_length_b 13.036390
_cell_length_c 26.250910
_cell_angle_alpha 90.000000
_cell_angle_beta 90.000000
_cell_angle_gamma 90.000000
_cell_volume 3195.351907
_symmetry_space_group_name_H-M "C C C A"
_symmetry_group_IT_number 68
_space_group.IT_coordinate_system_code '2'
_symmetry_cell_setting 'orthorhombic'
loop_
_space_group_symop_operation_xyz
x,y,z
-x,1/2-y,z
x,1/2-y,1/2-z
-x,y,1/2-z
-x,-y,-z
x,1/2+y,-z
-x,1/2+y,1/2+z
x,-y,1/2+z
1/2+x,1/2+y,z
1/2-x,-y,z
1/2+x,-y,1/2-z
1/2-x,1/2+y,1/2-z
1/2-x,1/2-y,-z
1/2+x,y,-z
1/2-x,y,1/2+z
1/2+x,1/2-y,1/2+z
loop_
_atom_site_type_symbol
_atom_site_label
_atom_site_fract_x
_atom_site_fract_y
_atom_site_fract_z
Si Si1 0.028266 0.479539 0.357154
Si Si2 0.769890 0.750000 0.750000
Si Si3 0.500000 0.081448 0.750000
Si Si4 0.843409 0.207882 0.545186
Si Si5 0.786153 0.670645 0.142229
Si Si6 0.250000 0.000000 0.418839
O O1 0.095734 0.586921 0.375532
O O2 0.130020 0.380460 0.363242
O O3 0.015778 0.495643 0.296759
O O4 0.878278 0.455067 0.384110
O O5 0.864285 0.848549 0.736489
O O6 0.682134 0.780431 0.801560
O O7 0.750000 0.250000 0.500000
O O8 0.792104 0.239357 0.601410
O O9 0.000000 0.250000 0.533612
O O10 0.822840 0.084991 0.544710
#
# Coordination Sequence:
#
# PCOD8282858 Si02
#       6
#    16   8   8  16  16   8
#     4  10  22  39  69 100 142 190 231 294 345 430
#     4   9  18  36  67  94 138 189 225 290 338 421
#     4   9  18  34  58  99 136 188 238 263 356 411
#     4  12  29  50  73 105 137 182 236 293 360 431
#     4  10  22  45  68 103 144 182 241 285 356 423
#     4  12  26  46  74 102 142 180 234 302 358 424
#
# _framework density 22.532727999999999
#
# number of rings (size 3 to 8) (size 9 to 14) (size 15 to 20)
#    0.000    1.556    2.222    1.333    3.111    9.778 
#    0.000    0.000    0.000    1.333    0.000    0.000 
#    0.000    0.000    0.000    0.000    0.000    0.000 
#
# Total GULP energy -446256.503961 kJ/mol
# GULP energy per Si atom -12396.013999 kJ/mol
# Density = 2.248144 g / cm^3
# Si number density = 22.532728 Si / 1000 Ang^3
#
#
#
# Elastic Constant Matrix: (Units=GPa)
#
#
# Indices 1 2 3 4 5 6 
#
# 1 134.7316 38.1644 47.5853 0.0000 0.0000 0.0000
# 2 38.1644 108.5211 41.1422 0.0000 0.0000 0.0000
# 3 47.5853 41.1422 108.0127 0.0000 0.0000 0.0000
# 4 0.0000 0.0000 0.0000 22.9377 0.0000 0.0000
# 5 0.0000 0.0000 0.0000 0.0000 24.5097 0.0000
# 6 0.0000 0.0000 0.0000 0.0000 0.0000 24.9688
#
#
#
# Elastic Compliance Matrix: (Units=1/GPa)
#
#
# Indices 1 2 3 4 5 6 
#
# 1 0.009137 -0.001972 -0.003274 0.000000 0.000000 0.000000
# 2 -0.001972 0.011196 -0.003396 0.000000 0.000000 0.000000
# 3 -0.003274 -0.003396 0.011994 0.000000 0.000000 0.000000
# 4 0.000000 0.000000 0.000000 0.043596 0.000000 0.000000
# 5 0.000000 0.000000 0.000000 0.000000 0.040800 0.000000
# 6 0.000000 0.000000 0.000000 0.000000 0.000000 0.040050
#
#
# Mechanical properties :
#
#
# Convention : Reuss Voigt Hill
#
# Bulk Modulus (GPa) = 66.47600 67.22769 66.85184
# Shear Modulus (GPa) = 27.92181 29.44150 28.68165
#
# Velocity S-wave (km/s) = 3.52400 3.61863 3.57163
# Velocity P-wave (km/s) = 6.79147 6.88183 6.83680
#
# Compressibility (1/GPa) = 0.01504302
#
# Stress axis : x y z
#
# Youngs Moduli (GPa) = 109.44295 89.32033 83.37455
#
# Poissons Ratio (x) = 0.17614 0.27299
# Poissons Ratio (y) = 0.21582 0.28311
# Poissons Ratio (z) = 0.35835 0.30330
#
# Static dielectric constant tensor:
#      x y z
#    x 4.675350 0.000000 0.000000 
#    y 0.000000 4.015120 0.000000 
#    z 0.000000 0.000000 3.943230 
# 
# 
# High freq. dielectric constant tensor:
#      x y z
#    x 1.885630 0.000000 0.000000 
#    y 0.000000 1.894590 0.000000 
#    z 0.000000 0.000000 1.882600 
# 
# From -- ./inp_files/49004.got.cif
#   From: 2010.03.12/outbox.cif.g09.slc.cpg/sg68_25_cif.got.tgz:49004.got - 2010.04.10 23:14:56.
