data_PCOD8282861
_publ_section_title
;
Structure prediction by ZEFSAII (Michael W. Deem and Ramdas Pophale) SiO2 
 PCOD8282861
Probable space group: C C C A
;
_chemical_formula_sum "Si O2"
_cell_formula_units_Z 84
_cell_length_a 9.767804
_cell_length_b 23.228506
_cell_length_c 20.049216
_cell_angle_alpha 90.000000
_cell_angle_beta 90.000000
_cell_angle_gamma 90.000000
_cell_volume 4548.996568
_symmetry_space_group_name_H-M "C C C A"
_symmetry_group_IT_number 68
_space_group.IT_coordinate_system_code '2'
_symmetry_cell_setting 'orthorhombic'
loop_
_space_group_symop_operation_xyz
x,y,z
-x,1/2-y,z
x,1/2-y,1/2-z
-x,y,1/2-z
-x,-y,-z
x,1/2+y,-z
-x,1/2+y,1/2+z
x,-y,1/2+z
1/2+x,1/2+y,z
1/2-x,-y,z
1/2+x,-y,1/2-z
1/2-x,1/2+y,1/2-z
1/2-x,1/2-y,-z
1/2+x,y,-z
1/2-x,y,1/2+z
1/2+x,1/2-y,1/2+z
loop_
_atom_site_type_symbol
_atom_site_label
_atom_site_fract_x
_atom_site_fract_y
_atom_site_fract_z
Si Si1 0.655701 0.946063 0.757989
Si Si2 0.765754 0.144709 0.350313
Si Si3 0.456559 0.683819 0.103850
Si Si4 0.500000 0.250000 0.250000
Si Si5 0.718546 0.170037 0.207698
Si Si6 0.128810 0.788364 0.030611
O O1 0.500000 0.967166 0.750000
O O2 0.699702 0.917590 0.829978
O O3 0.677498 0.897218 0.701514
O O4 0.750000 0.000000 0.742186
O O5 0.771125 0.184164 0.283274
O O6 0.674771 0.174497 0.406384
O O7 0.923400 0.140023 0.374168
O O8 0.500000 0.750000 0.101928
O O9 0.329337 0.682181 0.152680
O O10 0.413995 0.667120 0.028440
O O11 0.585548 0.210010 0.198637
O O12 0.000000 0.750000 0.053069
O O13 0.250000 0.750000 0.000000
#
# Coordination Sequence:
#
# PCOD8282861 Si02
#       6
#    16  16  16   4  16  16
#     4  10  24  43  65  94 121 166 218 270 332 367
#     4  10  22  40  58  90 122 163 216 257 315 375
#     4  11  21  38  56  94 126 174 204 249 318 386
#     4  12  20  36  50 100 132 152 198 256 340 384
#     4  10  23  35  62  90 128 159 207 270 319 385
#     4  11  22  38  58  88 134 173 205 246 315 399
#
# _framework density 18.465610000000002
#
# number of rings (size 3 to 8) (size 9 to 14) (size 15 to 20)
#    1.143    0.381    4.762    1.714    4.000    2.286 
#    0.000    0.000    0.000    2.286    0.000    0.000 
#    0.000    0.000    0.000    0.000    0.000    0.000 
#
# Total GULP energy -520384.124990 kJ/mol
# GULP energy per Si atom -12390.098214 kJ/mol
# Density = 1.842358 g / cm^3
# Si number density = 18.465610 Si / 1000 Ang^3
#
#
#
# Elastic Constant Matrix: (Units=GPa)
#
#
# Indices 1 2 3 4 5 6 
#
# 1 144.8050 49.0602 37.7439 0.0000 0.0000 0.0000
# 2 49.0602 91.9613 25.8905 0.0000 0.0000 0.0000
# 3 37.7439 25.8905 94.7942 0.0000 0.0000 0.0000
# 4 0.0000 0.0000 0.0000 13.3872 0.0000 0.0000
# 5 0.0000 0.0000 0.0000 0.0000 33.5320 0.0000
# 6 0.0000 0.0000 0.0000 0.0000 0.0000 26.7998
#
#
#
# Elastic Compliance Matrix: (Units=1/GPa)
#
#
# Indices 1 2 3 4 5 6 
#
# 1 0.008922 -0.004073 -0.002440 0.000000 0.000000 0.000000
# 2 -0.004073 0.013639 -0.002104 0.000000 0.000000 0.000000
# 3 -0.002440 -0.002104 0.012095 0.000000 0.000000 0.000000
# 4 0.000000 0.000000 0.000000 0.074698 0.000000 0.000000
# 5 0.000000 0.000000 0.000000 0.000000 0.029822 0.000000
# 6 0.000000 0.000000 0.000000 0.000000 0.000000 0.037314
#
#
# Mechanical properties :
#
#
# Convention : Reuss Voigt Hill
#
# Bulk Modulus (GPa) = 57.39344 61.88329 59.63836
# Shear Modulus (GPa) = 25.05884 29.33485 27.19685
#
# Velocity S-wave (km/s) = 3.68782 3.99007 3.84192
# Velocity P-wave (km/s) = 7.02012 7.40358 7.21440
#
# Compressibility (1/GPa) = 0.01742359
#
# Stress axis : x y z
#
# Youngs Moduli (GPa) = 112.08697 73.31873 82.67732
#
# Poissons Ratio (x) = 0.29860 0.20173
# Poissons Ratio (y) = 0.45649 0.17392
# Poissons Ratio (z) = 0.27349 0.15423
#
# Static dielectric constant tensor:
#      x y z
#    x 4.044610 0.000000 0.000000 
#    y 0.000000 3.069390 0.000000 
#    z 0.000000 0.000000 3.629330 
# 
# 
# High freq. dielectric constant tensor:
#      x y z
#    x 1.740170 0.000000 0.000000 
#    y 0.000000 1.673200 0.000000 
#    z 0.000000 0.000000 1.709880 
# 
# From -- ./inp_files/36182.got.cif
#   From: 2010.03.12/outbox.cif.g09.slc.cpg/sg68_19_cif.got.tgz:36182.got - 2010.04.10 23:14:56.
