data_PCOD8282096
_publ_section_title
;
Structure prediction by ZEFSAII (Michael W. Deem and Ramdas Pophale) SiO2 
 PCOD8282096
Probable space group: C C C A
;
_chemical_formula_sum "Si O2"
_cell_formula_units_Z 88
_cell_length_a 9.403324
_cell_length_b 23.234360
_cell_length_c 20.970469
_cell_angle_alpha 90.000000
_cell_angle_beta 90.000000
_cell_angle_gamma 90.000000
_cell_volume 4581.632576
_symmetry_space_group_name_H-M "C C C A"
_symmetry_group_IT_number 68
_space_group.IT_coordinate_system_code '2'
_symmetry_cell_setting 'orthorhombic'
loop_
_space_group_symop_operation_xyz
x,y,z
-x,1/2-y,z
x,1/2-y,1/2-z
-x,y,1/2-z
-x,-y,-z
x,1/2+y,-z
-x,1/2+y,1/2+z
x,-y,1/2+z
1/2+x,1/2+y,z
1/2-x,-y,z
1/2+x,-y,1/2-z
1/2-x,1/2+y,1/2-z
1/2-x,1/2-y,-z
1/2+x,y,-z
1/2-x,y,1/2+z
1/2+x,1/2-y,1/2+z
loop_
_atom_site_type_symbol
_atom_site_label
_atom_site_fract_x
_atom_site_fract_y
_atom_site_fract_z
Si Si1 0.648042 0.422904 0.738896
Si Si2 0.000000 0.750000 0.750000
Si Si3 0.250000 0.000000 0.839792
Si Si4 0.250000 0.000000 0.628741
Si Si5 0.933884 0.440950 0.524671
Si Si6 0.253490 0.178648 0.307139
Si Si7 0.705203 0.397614 0.425286
Si Si8 0.500000 0.250000 0.250000
O O1 0.500000 0.389216 0.750000
O O2 0.633965 0.471896 0.793254
O O3 0.666851 0.452804 0.670878
O O4 0.765622 0.374815 0.756671
O O5 0.892896 0.785961 0.704010
O O6 0.171703 0.046649 0.882561
O O7 0.349085 0.958632 0.587569
O O8 0.833797 0.410384 0.473056
O O9 0.000000 0.500000 0.500000
O O10 0.055056 0.392277 0.537517
O O11 0.255632 0.156714 0.380703
O O12 0.397494 0.214111 0.296591
#
# Coordination Sequence:
#
# PCOD8282096 Si02
#       8
#    16   4   8   8  16  16  16   4
#     4  10  20  33  55  91 120 157 193 233 297 353
#     4  10  20  46  68  94 104 142 204 258 338 340
#     4   9  17  32  50  82 129 153 184 232 274 347
#     4  11  23  32  56  88 135 169 190 228 276 363
#     4  12  21  36  54  85 128 174 197 225 268 344
#     4  10  23  40  67  89 114 149 194 264 307 364
#     4  11  22  37  58  86 124 164 200 231 285 350
#     4  10  24  46  60  90 112 142 196 262 342 340
#
# _framework density 19.207128000000001
#
# number of rings (size 3 to 8) (size 9 to 14) (size 15 to 20)
#    0.000    1.455    4.545    1.091    5.091    0.000 
#    3.273    0.000    0.000    3.273    0.000    0.000 
#    0.000    0.000    0.000    0.000    0.000    0.000 
#
# Total GULP energy -545082.363584 kJ/mol
# GULP energy per Si atom -12388.235536 kJ/mol
# Density = 1.916341 g / cm^3
# Si number density = 19.207128 Si / 1000 Ang^3
#
#
#
# Elastic Constant Matrix: (Units=GPa)
#
#
# Indices 1 2 3 4 5 6 
#
# 1 145.5738 55.2211 70.6375 0.0000 0.0000 0.0000
# 2 55.2211 87.3351 57.3309 0.0000 0.0000 0.0000
# 3 70.6375 57.3309 132.5255 0.0000 0.0000 0.0000
# 4 0.0000 0.0000 0.0000 20.7502 0.0000 0.0000
# 5 0.0000 0.0000 0.0000 0.0000 21.6521 0.0000
# 6 0.0000 0.0000 0.0000 0.0000 0.0000 28.2526
#
#
#
# Elastic Compliance Matrix: (Units=1/GPa)
#
#
# Indices 1 2 3 4 5 6 
#
# 1 0.010184 -0.004016 -0.003690 0.000000 0.000000 0.000000
# 2 -0.004016 0.017575 -0.005462 0.000000 0.000000 0.000000
# 3 -0.003690 -0.005462 0.011876 0.000000 0.000000 0.000000
# 4 0.000000 0.000000 0.000000 0.048192 0.000000 0.000000
# 5 0.000000 0.000000 0.000000 0.000000 0.046185 0.000000
# 6 0.000000 0.000000 0.000000 0.000000 0.000000 0.035395
#
#
# Mechanical properties :
#
#
# Convention : Reuss Voigt Hill
#
# Bulk Modulus (GPa) = 75.20859 81.31260 78.26059
# Shear Modulus (GPa) = 24.97779 26.28066 25.62923
#
# Velocity S-wave (km/s) = 3.61008 3.70303 3.65685
# Velocity P-wave (km/s) = 7.52453 7.79165 7.65925
#
# Compressibility (1/GPa) = 0.01329635
#
# Stress axis : x y z
#
# Youngs Moduli (GPa) = 98.19623 56.89748 84.20464
#
# Poissons Ratio (x) = 0.22852 0.31076
# Poissons Ratio (y) = 0.39440 0.45996
# Poissons Ratio (z) = 0.36239 0.31080
#
# Static dielectric constant tensor:
#      x y z
#    x 4.197370 0.000000 0.000000 
#    y 0.000000 3.441600 0.000000 
#    z 0.000000 0.000000 3.696750 
# 
# 
# High freq. dielectric constant tensor:
#      x y z
#    x 1.759510 0.000000 0.000000 
#    y 0.000000 1.722050 0.000000 
#    z 0.000000 0.000000 1.748190 
# 
# From -- ./inp_files/36356.got.cif
#   From: 2010.03.12/outbox.cif.g09.slc.cpg/sg68_19_cif.got.tgz:36356.got - 2010.04.10 23:14:56.
