data_PCOD8282732
_publ_section_title
;
Structure prediction by ZEFSAII (Michael W. Deem and Ramdas Pophale) SiO2 
 PCOD8282732
Probable space group: C C C A
;
_chemical_formula_sum "Si O2"
_cell_formula_units_Z 48
_cell_length_a 13.742140
_cell_length_b 7.348805
_cell_length_c 23.174625
_cell_angle_alpha 90.000000
_cell_angle_beta 90.000000
_cell_angle_gamma 90.000000
_cell_volume 2340.366147
_symmetry_space_group_name_H-M "C C C A"
_symmetry_group_IT_number 68
_space_group.IT_coordinate_system_code '2'
_symmetry_cell_setting 'orthorhombic'
loop_
_space_group_symop_operation_xyz
x,y,z
-x,1/2-y,z
x,1/2-y,1/2-z
-x,y,1/2-z
-x,-y,-z
x,1/2+y,-z
-x,1/2+y,1/2+z
x,-y,1/2+z
1/2+x,1/2+y,z
1/2-x,-y,z
1/2+x,-y,1/2-z
1/2-x,1/2+y,1/2-z
1/2-x,1/2-y,-z
1/2+x,y,-z
1/2-x,y,1/2+z
1/2+x,1/2-y,1/2+z
loop_
_atom_site_type_symbol
_atom_site_label
_atom_site_fract_x
_atom_site_fract_y
_atom_site_fract_z
Si Si1 0.790909 0.804177 0.061491
Si Si2 0.500000 0.250000 0.097315
Si Si3 0.750000 0.000000 0.847270
Si Si4 0.540805 0.952001 0.310076
O O1 0.756411 0.675311 0.112497
O O2 0.907733 0.787025 0.056379
O O3 0.750000 0.000000 0.078752
O O4 0.750000 0.750000 0.000000
O O5 0.506805 0.428579 0.136397
O O6 0.657826 0.035419 0.806073
O O7 0.500000 0.750000 0.320106
O O8 0.500000 0.031350 0.250000
#
# Coordination Sequence:
#
# PCOD8282732 Si02
#       4
#    16   8   8  16
#     4  11  22  40  61  90 120 162 204 251 311 362
#     4  10  23  40  62  88 124 158 203 256 300 370
#     4  10  22  42  62  88 126 156 204 256 300 370
#     4  10  21  42  63  91 120 160 204 249 310 365
#
# _framework density 20.509611
#
# number of rings (size 3 to 8) (size 9 to 14) (size 15 to 20)
#    0.000    1.667    1.667    2.500    0.000    1.333 
#   30.000    0.000    0.000    0.000    0.000    0.000 
#    0.000    0.000    0.000    0.000    0.000    0.000 
#
# Total GULP energy -297605.343360 kJ/mol
# GULP energy per Si atom -12400.222640 kJ/mol
# Density = 2.046293 g / cm^3
# Si number density = 20.509611 Si / 1000 Ang^3
#
#
#
# Elastic Constant Matrix: (Units=GPa)
#
#
# Indices 1 2 3 4 5 6 
#
# 1 215.8087 61.8380 95.8268 0.0000 0.0000 0.0000
# 2 61.8380 132.1881 34.5843 0.0000 0.0000 0.0000
# 3 95.8268 34.5843 99.0765 0.0000 0.0000 0.0000
# 4 0.0000 0.0000 0.0000 1.6094 0.0000 0.0000
# 5 0.0000 0.0000 0.0000 0.0000 36.1162 0.0000
# 6 0.0000 0.0000 0.0000 0.0000 0.0000 27.0128
#
#
#
# Elastic Compliance Matrix: (Units=1/GPa)
#
#
# Indices 1 2 3 4 5 6 
#
# 1 0.008590 -0.002030 -0.007600 0.000000 0.000000 0.000000
# 2 -0.002030 0.008805 -0.001110 0.000000 0.000000 0.000000
# 3 -0.007600 -0.001110 0.017831 0.000000 0.000000 0.000000
# 4 0.000000 0.000000 0.000000 0.621356 0.000000 0.000000
# 5 0.000000 0.000000 0.000000 0.000000 0.027688 0.000000
# 6 0.000000 0.000000 0.000000 0.000000 0.000000 0.037019
#
#
# Mechanical properties :
#
#
# Convention : Reuss Voigt Hill
#
# Bulk Modulus (GPa) = 72.74521 92.39682 82.57102
# Shear Modulus (GPa) = 6.69029 29.93595 18.31312
#
# Velocity S-wave (km/s) = 1.80807 3.82462 2.99139
# Velocity P-wave (km/s) = 6.31701 8.04064 7.23037
#
# Compressibility (1/GPa) = 0.01374661
#
# Stress axis : x y z
#
# Youngs Moduli (GPa) = 116.41576 113.57058 56.08234
#
# Poissons Ratio (x) = 0.23056 0.42620
# Poissons Ratio (y) = 0.23634 0.06225
# Poissons Ratio (z) = 0.88470 0.12607
#
# Static dielectric constant tensor:
#      x y z
#    x 2.274810 0.000000 0.000000 
#    y 0.000000 3.496360 0.000000 
#    z 0.000000 0.000000 3.524710 
# 
# 
# High freq. dielectric constant tensor:
#      x y z
#    x 1.818970 0.000000 0.000000 
#    y 0.000000 1.819240 0.000000 
#    z 0.000000 0.000000 1.793380 
# 
# From -- ./inp_files/27492.got.cif
#   From: 2010.03.12/outbox.cif.g09.slc.cpg/sg68_14_cif.got.tgz:27492.got - 2010.04.10 23:14:56.
