data_PCOD8282735
_publ_section_title
;
Structure prediction by ZEFSAII (Michael W. Deem and Ramdas Pophale) SiO2 
 PCOD8282735
Probable space group: C C C A
;
_chemical_formula_sum "Si O2"
_cell_formula_units_Z 116
_cell_length_a 26.752705
_cell_length_b 9.116192
_cell_length_c 22.688168
_cell_angle_alpha 90.000000
_cell_angle_beta 90.000000
_cell_angle_gamma 90.000000
_cell_volume 5533.253832
_symmetry_space_group_name_H-M "C C C A"
_symmetry_group_IT_number 68
_space_group.IT_coordinate_system_code '2'
_symmetry_cell_setting 'orthorhombic'
loop_
_space_group_symop_operation_xyz
x,y,z
-x,1/2-y,z
x,1/2-y,1/2-z
-x,y,1/2-z
-x,-y,-z
x,1/2+y,-z
-x,1/2+y,1/2+z
x,-y,1/2+z
1/2+x,1/2+y,z
1/2-x,-y,z
1/2+x,-y,1/2-z
1/2-x,1/2+y,1/2-z
1/2-x,1/2-y,-z
1/2+x,y,-z
1/2-x,y,1/2+z
1/2+x,1/2-y,1/2+z
loop_
_atom_site_type_symbol
_atom_site_label
_atom_site_fract_x
_atom_site_fract_y
_atom_site_fract_z
Si Si1 0.454604 0.065106 0.853587
Si Si2 0.367671 0.238403 0.907833
Si Si3 0.306455 0.258813 0.024267
Si Si4 0.614292 0.695796 0.814105
Si Si5 0.373059 0.437898 0.406068
Si Si6 0.805618 0.523058 0.370621
Si Si7 0.479634 0.415922 0.444408
Si Si8 0.500000 0.750000 0.250000
O O1 0.422565 0.166181 0.899417
O O2 0.466016 0.150698 0.792985
O O3 0.425531 0.918743 0.837483
O O4 0.504358 0.010613 0.886681
O O5 0.366398 0.399782 0.879729
O O6 0.328671 0.138441 0.873042
O O7 0.349419 0.265513 0.974863
O O8 0.321134 0.116640 0.063578
O O9 0.310780 0.404508 0.064358
O O10 0.250000 0.250000 0.000000
O O11 0.601624 0.750000 0.750000
O O12 0.610881 0.841139 0.851558
O O13 0.668843 0.621947 0.820393
O O14 0.419678 0.424350 0.451057
O O15 0.750000 0.500000 0.349349
O O16 0.500000 0.250000 0.441662
O O17 0.500000 0.500000 0.500000
#
# Coordination Sequence:
#
# PCOD8282735 Si02
#       8
#    16  16  16  16  16  16  16   4
#     4  11  26  46  69 100 137 178 233 290 349 414
#     4  11  23  39  65  99 136 173 218 282 342 400
#     4  11  22  40  68 101 138 180 224 275 340 417
#     4  10  24  46  68  91 130 177 227 286 343 402
#     4  11  25  41  65  97 134 172 232 273 343 413
#     4  10  21  42  64  97 139 173 225 280 345 409
#     4  12  27  45  67  99 140 185 225 281 360 429
#     4  12  28  44  78 104 132 184 246 294 340 428
#
# _framework density 20.964155999999999
#
# number of rings (size 3 to 8) (size 9 to 14) (size 15 to 20)
#    0.000    1.103    2.759    2.483    8.690    0.000 
#    0.000    1.379    0.000    0.000    0.000    0.000 
#    0.000    0.000    0.000    0.000    0.000    0.000 
#
# Total GULP energy -719033.394606 kJ/mol
# GULP energy per Si atom -12397.127493 kJ/mol
# Density = 2.091644 g / cm^3
# Si number density = 20.964156 Si / 1000 Ang^3
#
#
#
# Elastic Constant Matrix: (Units=GPa)
#
#
# Indices 1 2 3 4 5 6 
#
# 1 108.5269 43.7901 22.7916 0.0000 0.0000 0.0000
# 2 43.7901 167.1090 36.5041 0.0000 0.0000 0.0000
# 3 22.7916 36.5041 88.3662 0.0000 0.0000 0.0000
# 4 0.0000 0.0000 0.0000 32.3286 0.0000 0.0000
# 5 0.0000 0.0000 0.0000 0.0000 23.7477 0.0000
# 6 0.0000 0.0000 0.0000 0.0000 0.0000 24.4133
#
#
#
# Elastic Compliance Matrix: (Units=1/GPa)
#
#
# Indices 1 2 3 4 5 6 
#
# 1 0.010540 -0.002383 -0.001734 0.000000 0.000000 0.000000
# 2 -0.002383 0.007117 -0.002325 0.000000 0.000000 0.000000
# 3 -0.001734 -0.002325 0.012724 0.000000 0.000000 0.000000
# 4 0.000000 0.000000 0.000000 0.030932 0.000000 0.000000
# 5 0.000000 0.000000 0.000000 0.000000 0.042109 0.000000
# 6 0.000000 0.000000 0.000000 0.000000 0.000000 0.040961
#
#
# Mechanical properties :
#
#
# Convention : Reuss Voigt Hill
#
# Bulk Modulus (GPa) = 57.15537 63.35265 60.25401
# Shear Modulus (GPa) = 30.65590 33.49234 32.07412
#
# Velocity S-wave (km/s) = 3.82815 4.00134 3.91570
# Velocity P-wave (km/s) = 6.84560 7.18559 7.01765
#
# Compressibility (1/GPa) = 0.01749617
#
# Stress axis : x y z
#
# Youngs Moduli (GPa) = 94.87607 140.51767 78.58970
#
# Poissons Ratio (x) = 0.33488 0.13628
# Poissons Ratio (y) = 0.22611 0.18273
# Poissons Ratio (z) = 0.16452 0.32673
#
# Static dielectric constant tensor:
#      x y z
#    x 3.949920 0.000000 0.000000 
#    y 0.000000 4.134790 0.000000 
#    z 0.000000 0.000000 3.543810 
# 
# 
# High freq. dielectric constant tensor:
#      x y z
#    x 1.825970 0.000000 0.000000 
#    y 0.000000 1.846090 0.000000 
#    z 0.000000 0.000000 1.798280 
# 
# From -- ./inp_files/47298.got.cif
#   From: 2010.03.12/outbox.cif.g09.slc.cpg/sg68_24_cif.got.tgz:47298.got - 2010.04.10 23:14:56.
