data_PCOD8282585
_publ_section_title
;
Structure prediction by ZEFSAII (Michael W. Deem and Ramdas Pophale) SiO2 
 PCOD8282585
Probable space group: C C C A
;
_chemical_formula_sum "Si O2"
_cell_formula_units_Z 104
_cell_length_a 19.328930
_cell_length_b 16.610358
_cell_length_c 16.371246
_cell_angle_alpha 90.000000
_cell_angle_beta 90.000000
_cell_angle_gamma 90.000000
_cell_volume 5256.159560
_symmetry_space_group_name_H-M "C C C A"
_symmetry_group_IT_number 68
_space_group.IT_coordinate_system_code '2'
_symmetry_cell_setting 'orthorhombic'
loop_
_space_group_symop_operation_xyz
x,y,z
-x,1/2-y,z
x,1/2-y,1/2-z
-x,y,1/2-z
-x,-y,-z
x,1/2+y,-z
-x,1/2+y,1/2+z
x,-y,1/2+z
1/2+x,1/2+y,z
1/2-x,-y,z
1/2+x,-y,1/2-z
1/2-x,1/2+y,1/2-z
1/2-x,1/2-y,-z
1/2+x,y,-z
1/2-x,y,1/2+z
1/2+x,1/2-y,1/2+z
loop_
_atom_site_type_symbol
_atom_site_label
_atom_site_fract_x
_atom_site_fract_y
_atom_site_fract_z
Si Si1 0.485780 0.839071 0.447348
Si Si2 0.596502 0.661968 0.285765
Si Si3 0.742893 0.326940 0.138906
Si Si4 0.612088 0.414335 0.622060
Si Si5 0.753821 0.852231 0.675257
Si Si6 0.750000 0.500000 0.424952
Si Si7 0.637617 0.074248 0.458925
O O1 0.500000 0.750000 0.483071
O O2 0.463472 0.832240 0.352206
O O3 0.559243 0.884571 0.448167
O O4 0.431067 0.887491 0.501862
O O5 0.614410 0.750000 0.250000
O O6 0.578594 0.602330 0.211076
O O7 0.664740 0.628505 0.328889
O O8 0.815086 0.367510 0.111522
O O9 0.726126 0.349388 0.232437
O O10 0.742905 0.231039 0.127270
O O11 0.681090 0.354802 0.081550
O O12 0.619299 0.510062 0.611662
O O13 0.718676 0.926779 0.628935
O O14 0.684384 0.527906 0.476308
#
# Coordination Sequence:
#
# PCOD8282585 Si02
#       7
#    16  16  16  16  16   8  16
#     4  12  24  40  63  92 127 165 210 265 316 377
#     4  11  19  38  64  95 117 159 215 259 309 359
#     4  10  21  42  64  86 124 170 211 249 314 378
#     4  11  22  38  61  90 129 160 202 262 314 370
#     4  10  21  38  62  93 122 162 210 263 303 365
#     4  12  24  36  60  96 130 156 208 264 310 374
#     4  12  26  40  59  95 130 170 202 252 328 380
#
# _framework density 19.786308999999999
#
# number of rings (size 3 to 8) (size 9 to 14) (size 15 to 20)
#    0.000    0.923    7.692    0.923    4.308    1.846 
#    0.000    0.000    0.000    1.846    0.000    0.000 
#    0.000    0.000    0.000    0.000    0.000    0.000 
#
# Total GULP energy -644752.312699 kJ/mol
# GULP energy per Si atom -12399.082937 kJ/mol
# Density = 1.974127 g / cm^3
# Si number density = 19.786309 Si / 1000 Ang^3
#
#
#
# Elastic Constant Matrix: (Units=GPa)
#
#
# Indices 1 2 3 4 5 6 
#
# 1 88.8086 45.8648 38.9349 0.0000 0.0000 0.0000
# 2 45.8648 146.5549 62.7628 0.0000 0.0000 0.0000
# 3 38.9349 62.7628 73.0473 0.0000 0.0000 0.0000
# 4 0.0000 0.0000 0.0000 39.5734 0.0000 0.0000
# 5 0.0000 0.0000 0.0000 0.0000 173.4315 0.0000
# 6 0.0000 0.0000 0.0000 0.0000 0.0000 30.6319
#
#
#
# Elastic Compliance Matrix: (Units=1/GPa)
#
#
# Indices 1 2 3 4 5 6 
#
# 1 0.015062 -0.002018 -0.006294 0.000000 0.000000 0.000000
# 2 -0.002018 0.011066 -0.008432 0.000000 0.000000 0.000000
# 3 -0.006294 -0.008432 0.024290 0.000000 0.000000 0.000000
# 4 0.000000 0.000000 0.000000 0.025269 0.000000 0.000000
# 5 0.000000 0.000000 0.000000 0.000000 0.005766 0.000000
# 6 0.000000 0.000000 0.000000 0.000000 0.000000 0.032646
#
#
# Mechanical properties :
#
#
# Convention : Reuss Voigt Hill
#
# Bulk Modulus (GPa) = 59.07226 67.05954 63.06590
# Shear Modulus (GPa) = 32.63041 59.45059 46.04050
#
# Velocity S-wave (km/s) = 4.06537 5.48740 4.82901
# Velocity P-wave (km/s) = 7.20807 8.60896 7.93947
#
# Compressibility (1/GPa) = 0.01692842
#
# Stress axis : x y z
#
# Youngs Moduli (GPa) = 66.39283 90.36513 41.16958
#
# Poissons Ratio (x) = 0.18237 0.25912
# Poissons Ratio (y) = 0.13399 0.34716
# Poissons Ratio (z) = 0.41788 0.76200
#
# Static dielectric constant tensor:
#      x y z
#    x 3.474400 0.000000 0.000000 
#    y 0.000000 3.821970 0.000000 
#    z 0.000000 0.000000 3.549570 
# 
# 
# High freq. dielectric constant tensor:
#      x y z
#    x 1.762610 0.000000 0.000000 
#    y 0.000000 1.777660 0.000000 
#    z 0.000000 0.000000 1.761730 
# 
# From -- ./inp_files/32990.got.cif
#   From: 2010.03.12/outbox.cif.g09.slc.cpg/sg68_17_cif.got.tgz:32990.got - 2010.04.10 23:14:56.
