data_PCOD8282551
_publ_section_title
;
Structure prediction by ZEFSAII (Michael W. Deem and Ramdas Pophale) SiO2 
 PCOD8282551
Probable space group: C C C A
;
_chemical_formula_sum "Si O2"
_cell_formula_units_Z 88
_cell_length_a 28.245508
_cell_length_b 8.436444
_cell_length_c 16.427468
_cell_angle_alpha 90.000000
_cell_angle_beta 90.000000
_cell_angle_gamma 90.000000
_cell_volume 3914.528397
_symmetry_space_group_name_H-M "C C C A"
_symmetry_group_IT_number 68
_space_group.IT_coordinate_system_code '2'
_symmetry_cell_setting 'orthorhombic'
loop_
_space_group_symop_operation_xyz
x,y,z
-x,1/2-y,z
x,1/2-y,1/2-z
-x,y,1/2-z
-x,-y,-z
x,1/2+y,-z
-x,1/2+y,1/2+z
x,-y,1/2+z
1/2+x,1/2+y,z
1/2-x,-y,z
1/2+x,-y,1/2-z
1/2-x,1/2+y,1/2-z
1/2-x,1/2-y,-z
1/2+x,y,-z
1/2-x,y,1/2+z
1/2+x,1/2-y,1/2+z
loop_
_atom_site_type_symbol
_atom_site_label
_atom_site_fract_x
_atom_site_fract_y
_atom_site_fract_z
Si Si1 0.450372 0.807670 0.108920
Si Si2 0.201803 0.437788 0.187789
Si Si3 0.147897 0.621757 0.056173
Si Si4 0.915424 0.893937 0.470672
Si Si5 0.222546 0.340833 0.429526
Si Si6 0.122643 0.250000 0.250000
O O1 0.500000 0.750000 0.148514
O O2 0.408751 0.756367 0.169448
O O3 0.445512 0.997723 0.092546
O O4 0.448489 0.727446 0.019831
O O5 0.250000 0.500000 0.231521
O O6 0.186957 0.571546 0.122248
O O7 0.214988 0.268224 0.148751
O O8 0.157043 0.406267 0.246948
O O9 0.124679 0.792379 0.078268
O O10 0.107043 0.492724 0.045427
O O11 0.170867 0.623946 0.965994
O O12 0.250000 0.500000 0.403796
O O13 0.250000 0.250000 0.500000
#
# Coordination Sequence:
#
# PCOD8282551 Si02
#       6
#    16  16  16  16  16   8
#     4  11  23  45  75 101 131 175 223 288 356 419
#     4  12  24  41  61  90 137 192 235 276 339 415
#     4  11  17  35  59  97 134 170 213 289 339 395
#     4  10  21  37  70 105 128 160 226 290 343 405
#     4  12  19  31  60  94 127 175 241 285 323 386
#     4  12  27  48  62  98 144 182 225 274 354 430
#
# _framework density 22.480359
#
# number of rings (size 3 to 8) (size 9 to 14) (size 15 to 20)
#    0.000    0.727    7.273    1.909    0.000    0.727 
#    3.273    0.000    0.000    0.000    9.455    0.000 
#    0.000    0.000    0.000    0.000    0.000    0.000 
#
# Total GULP energy -545307.408440 kJ/mol
# GULP energy per Si atom -12393.350192 kJ/mol
# Density = 2.242919 g / cm^3
# Si number density = 22.480359 Si / 1000 Ang^3
#
#
#
# Elastic Constant Matrix: (Units=GPa)
#
#
# Indices 1 2 3 4 5 6 
#
# 1 145.2522 57.5265 36.7586 0.0000 0.0000 0.0000
# 2 57.5265 136.7445 25.4228 0.0000 0.0000 0.0000
# 3 36.7586 25.4228 49.2491 0.0000 0.0000 0.0000
# 4 0.0000 0.0000 0.0000 22.1915 0.0000 0.0000
# 5 0.0000 0.0000 0.0000 0.0000 26.7518 0.0000
# 6 0.0000 0.0000 0.0000 0.0000 0.0000 44.5803
#
#
#
# Elastic Compliance Matrix: (Units=1/GPa)
#
#
# Indices 1 2 3 4 5 6 
#
# 1 0.009452 -0.002948 -0.005533 0.000000 0.000000 0.000000
# 2 -0.002948 0.009008 -0.002450 0.000000 0.000000 0.000000
# 3 -0.005533 -0.002450 0.025700 0.000000 0.000000 0.000000
# 4 0.000000 0.000000 0.000000 0.045062 0.000000 0.000000
# 5 0.000000 0.000000 0.000000 0.000000 0.037381 0.000000
# 6 0.000000 0.000000 0.000000 0.000000 0.000000 0.022431
#
#
# Mechanical properties :
#
#
# Convention : Reuss Voigt Hill
#
# Bulk Modulus (GPa) = 44.84700 63.40686 54.12693
# Shear Modulus (GPa) = 28.03789 32.80725 30.42257
#
# Velocity S-wave (km/s) = 3.53543 3.82432 3.68271
# Velocity P-wave (km/s) = 6.05462 6.91139 6.49714
#
# Compressibility (1/GPa) = 0.02229804
#
# Stress axis : x y z
#
# Youngs Moduli (GPa) = 105.79401 111.00641 38.91091
#
# Poissons Ratio (x) = 0.32722 0.21531
# Poissons Ratio (y) = 0.31185 0.09534
# Poissons Ratio (z) = 0.58540 0.27198
#
# Static dielectric constant tensor:
#      x y z
#    x 4.398320 0.000000 0.000000 
#    y 0.000000 4.345930 0.000000 
#    z 0.000000 0.000000 3.774490 
# 
# 
# High freq. dielectric constant tensor:
#      x y z
#    x 1.892870 0.000000 0.000000 
#    y 0.000000 1.892470 0.000000 
#    z 0.000000 0.000000 1.848880 
# 
# From -- ./inp_files/40743.got.cif
#   From: 2010.03.12/outbox.cif.g09.slc.cpg/sg68_21_cif.got.tgz:40743.got - 2010.04.10 23:14:56.
