data_PCOD8282298
_publ_section_title
;
Structure prediction by ZEFSAII (Michael W. Deem and Ramdas Pophale) SiO2 
 PCOD8282298
Probable space group: C C C A
;
_chemical_formula_sum "Si O2"
_cell_formula_units_Z 88
_cell_length_a 16.419943
_cell_length_b 14.492330
_cell_length_c 17.655639
_cell_angle_alpha 90.000000
_cell_angle_beta 90.000000
_cell_angle_gamma 90.000000
_cell_volume 4201.392929
_symmetry_space_group_name_H-M "C C C A"
_symmetry_group_IT_number 68
_space_group.IT_coordinate_system_code '2'
_symmetry_cell_setting 'orthorhombic'
loop_
_space_group_symop_operation_xyz
x,y,z
-x,1/2-y,z
x,1/2-y,1/2-z
-x,y,1/2-z
-x,-y,-z
x,1/2+y,-z
-x,1/2+y,1/2+z
x,-y,1/2+z
1/2+x,1/2+y,z
1/2-x,-y,z
1/2+x,-y,1/2-z
1/2-x,1/2+y,1/2-z
1/2-x,1/2-y,-z
1/2+x,y,-z
1/2-x,y,1/2+z
1/2+x,1/2-y,1/2+z
loop_
_atom_site_type_symbol
_atom_site_label
_atom_site_fract_x
_atom_site_fract_y
_atom_site_fract_z
Si Si1 0.823773 0.750000 0.250000
Si Si2 0.000000 0.902875 0.750000
Si Si3 0.432102 0.326004 0.116473
Si Si4 0.876229 0.140595 0.456573
Si Si5 0.938141 0.975260 0.372312
Si Si6 0.228130 0.601958 0.354807
Si Si7 0.500000 0.250000 0.863853
O O1 0.881356 0.803421 0.191103
O O2 0.762734 0.822924 0.288691
O O3 0.036479 0.834966 0.814306
O O4 0.932710 0.966573 0.792885
O O5 0.500000 0.250000 0.099380
O O6 0.475103 0.425339 0.126092
O O7 0.371205 0.335430 0.045241
O O8 0.784208 0.130005 0.425759
O O9 0.922935 0.222699 0.414429
O O10 0.926234 0.045509 0.442411
O O11 0.867369 0.897843 0.377401
O O12 0.250000 0.500000 0.324772
#
# Coordination Sequence:
#
# PCOD8282298 Si02
#       7
#     8   8  16  16  16  16   8
#     4  12  25  42  68  97 132 170 212 269 322 388
#     4   9  18  32  63  88 126 158 209 260 306 369
#     4  12  23  40  67  95 125 163 220 261 315 374
#     4  10  22  40  62  92 129 165 211 260 316 375
#     4  10  20  38  62  94 127 164 206 262 316 373
#     4  10  23  41  62  91 135 168 206 264 324 380
#     4   9  18  36  60  95 118 166 216 255 298 374
#
# _framework density 20.945433999999999
#
# number of rings (size 3 to 8) (size 9 to 14) (size 15 to 20)
#    0.000    1.636    2.727    1.909    0.000    5.091 
#    0.000    2.727    0.000    0.000    0.000    0.000 
#    0.000    0.000    0.000    0.000    0.000    0.000 
#
# Total GULP energy -545406.918150 kJ/mol
# GULP energy per Si atom -12395.611776 kJ/mol
# Density = 2.089776 g / cm^3
# Si number density = 20.945434 Si / 1000 Ang^3
#
#
#
# Elastic Constant Matrix: (Units=GPa)
#
#
# Indices 1 2 3 4 5 6 
#
# 1 93.7008 40.7442 54.6205 0.0000 0.0000 0.0000
# 2 40.7442 84.3953 51.5156 0.0000 0.0000 0.0000
# 3 54.6205 51.5156 145.6652 0.0000 0.0000 0.0000
# 4 0.0000 0.0000 0.0000 24.0208 0.0000 0.0000
# 5 0.0000 0.0000 0.0000 0.0000 36.1770 0.0000
# 6 0.0000 0.0000 0.0000 0.0000 0.0000 28.6458
#
#
#
# Elastic Compliance Matrix: (Units=1/GPa)
#
#
# Indices 1 2 3 4 5 6 
#
# 1 0.015087 -0.004885 -0.003930 0.000000 0.000000 0.000000
# 2 -0.004885 0.016693 -0.004072 0.000000 0.000000 0.000000
# 3 -0.003930 -0.004072 0.009779 0.000000 0.000000 0.000000
# 4 0.000000 0.000000 0.000000 0.041631 0.000000 0.000000
# 5 0.000000 0.000000 0.000000 0.000000 0.027642 0.000000
# 6 0.000000 0.000000 0.000000 0.000000 0.000000 0.034909
#
#
# Mechanical properties :
#
#
# Convention : Reuss Voigt Hill
#
# Bulk Modulus (GPa) = 63.34882 68.61355 65.98118
# Shear Modulus (GPa) = 28.28454 29.56078 28.92266
#
# Velocity S-wave (km/s) = 3.67875 3.76083 3.72002
# Velocity P-wave (km/s) = 6.95375 7.18943 7.07257
#
# Compressibility (1/GPa) = 0.01578561
#
# Stress axis : x y z
#
# Youngs Moduli (GPa) = 66.28167 59.90582 102.26430
#
# Poissons Ratio (x) = 0.29264 0.40186
# Poissons Ratio (y) = 0.32379 0.41640
# Poissons Ratio (z) = 0.26046 0.24392
#
# Static dielectric constant tensor:
#      x y z
#    x 3.598290 0.000000 0.000000 
#    y 0.000000 4.088250 0.000000 
#    z 0.000000 0.000000 3.701820 
# 
# 
# High freq. dielectric constant tensor:
#      x y z
#    x 1.795380 0.000000 0.000000 
#    y 0.000000 1.841310 0.000000 
#    z 0.000000 0.000000 1.811210 
# 
# From -- ./inp_files/31893.got.cif
#   From: 2010.03.12/outbox.cif.g09.slc.cpg/sg68_16_cif.got.tgz:31893.got - 2010.04.10 23:14:56.
