data_PCOD8282338
_publ_section_title
;
Structure prediction by ZEFSAII (Michael W. Deem and Ramdas Pophale) SiO2 
 PCOD8282338
Probable space group: C C C A
;
_chemical_formula_sum "Si O2"
_cell_formula_units_Z 76
_cell_length_a 22.519822
_cell_length_b 13.656043
_cell_length_c 12.106545
_cell_angle_alpha 90.000000
_cell_angle_beta 90.000000
_cell_angle_gamma 90.000000
_cell_volume 3723.145851
_symmetry_space_group_name_H-M "C C C A"
_symmetry_group_IT_number 68
_space_group.IT_coordinate_system_code '2'
_symmetry_cell_setting 'orthorhombic'
loop_
_space_group_symop_operation_xyz
x,y,z
-x,1/2-y,z
x,1/2-y,1/2-z
-x,y,1/2-z
-x,-y,-z
x,1/2+y,-z
-x,1/2+y,1/2+z
x,-y,1/2+z
1/2+x,1/2+y,z
1/2-x,-y,z
1/2+x,-y,1/2-z
1/2-x,1/2+y,1/2-z
1/2-x,1/2-y,-z
1/2+x,y,-z
1/2-x,y,1/2+z
1/2+x,1/2-y,1/2+z
loop_
_atom_site_type_symbol
_atom_site_label
_atom_site_fract_x
_atom_site_fract_y
_atom_site_fract_z
Si Si1 0.582936 0.347877 0.029866
Si Si2 0.548596 0.352713 0.547360
Si Si3 0.336975 0.362994 0.268334
Si Si4 0.500000 0.750000 0.250000
Si Si5 0.856845 0.522841 0.455679
Si Si6 0.750000 0.000000 0.395321
O O1 0.605326 0.369714 0.153721
O O2 0.588139 0.232032 0.010227
O O3 0.513693 0.373844 0.013324
O O4 0.627371 0.406572 0.944569
O O5 0.539582 0.321367 0.674454
O O6 0.588108 0.448347 0.535973
O O7 0.319019 0.250000 0.250000
O O8 0.355831 0.420975 0.159006
O O9 0.279237 0.415871 0.320027
O O10 0.797638 0.548219 0.522543
#
# Coordination Sequence:
#
# PCOD8282338 Si02
#       6
#    16  16  16   4  16   8
#     4   9  21  38  61  94 126 153 212 257 313 382
#     4  10  20  39  61  92 126 165 202 257 312 391
#     4  11  22  43  65  92 124 172 213 264 330 366
#     4   8  20  36  56  86 128 154 196 240 320 376
#     4  11  22  41  63  90 126 166 214 264 311 373
#     4  10  26  42  58  94 126 164 224 264 302 382
#
# _framework density 20.412845000000001
#
# number of rings (size 3 to 8) (size 9 to 14) (size 15 to 20)
#    0.000    2.105    2.105    1.263    0.000    8.421 
#    5.684    0.000    0.000    0.000    0.000    0.000 
#    0.000    0.000    0.000    0.000    0.000    0.000 
#
# Total GULP energy -470880.967963 kJ/mol
# GULP energy per Si atom -12391.604420 kJ/mol
# Density = 2.036638 g / cm^3
# Si number density = 20.412845 Si / 1000 Ang^3
#
#
#
# Elastic Constant Matrix: (Units=GPa)
#
#
# Indices 1 2 3 4 5 6 
#
# 1 123.8422 50.2039 62.4143 0.0000 0.0000 0.0000
# 2 50.2039 87.5641 57.2491 0.0000 0.0000 0.0000
# 3 62.4143 57.2491 147.7343 0.0000 0.0000 0.0000
# 4 0.0000 0.0000 0.0000 33.6099 0.0000 0.0000
# 5 0.0000 0.0000 0.0000 0.0000 31.9308 0.0000
# 6 0.0000 0.0000 0.0000 0.0000 0.0000 38.1816
#
#
#
# Elastic Compliance Matrix: (Units=1/GPa)
#
#
# Indices 1 2 3 4 5 6 
#
# 1 0.011478 -0.004568 -0.003079 0.000000 0.000000 0.000000
# 2 -0.004568 0.017113 -0.004702 0.000000 0.000000 0.000000
# 3 -0.003079 -0.004702 0.009892 0.000000 0.000000 0.000000
# 4 0.000000 0.000000 0.000000 0.029753 0.000000 0.000000
# 5 0.000000 0.000000 0.000000 0.000000 0.031318 0.000000
# 6 0.000000 0.000000 0.000000 0.000000 0.000000 0.026191
#
#
# Mechanical properties :
#
#
# Convention : Reuss Voigt Hill
#
# Bulk Modulus (GPa) = 72.53921 77.65279 75.09600
# Shear Modulus (GPa) = 32.25020 33.36268 32.80644
#
# Velocity S-wave (km/s) = 3.97910 4.04715 4.01327
# Velocity P-wave (km/s) = 7.53155 7.74358 7.63830
#
# Compressibility (1/GPa) = 0.01378565
#
# Stress axis : x y z
#
# Youngs Moduli (GPa) = 87.11997 58.43470 101.09348
#
# Poissons Ratio (x) = 0.26692 0.31129
# Poissons Ratio (y) = 0.39795 0.47532
# Poissons Ratio (z) = 0.26827 0.27475
#
# Static dielectric constant tensor:
#      x y z
#    x 3.645830 0.000000 0.000000 
#    y 0.000000 3.928260 0.000000 
#    z 0.000000 0.000000 3.633930 
# 
# 
# High freq. dielectric constant tensor:
#      x y z
#    x 1.795240 0.000000 0.000000 
#    y 0.000000 1.811530 0.000000 
#    z 0.000000 0.000000 1.793510 
# 
# From -- ./inp_files/16251.got.cif
#   From: 2010.03.12/outbox.cif.g09.slc.cpg/sg68_9_cif.got.tgz:16251.got - 2010.04.10 23:14:56.
