data_PCOD8282707
_publ_section_title
;
Structure prediction by ZEFSAII (Michael W. Deem and Ramdas Pophale) SiO2 
 PCOD8282707
Probable space group: C C C A
;
_chemical_formula_sum "Si O2"
_cell_formula_units_Z 96
_cell_length_a 25.255837
_cell_length_b 8.669947
_cell_length_c 21.474200
_cell_angle_alpha 90.000000
_cell_angle_beta 90.000000
_cell_angle_gamma 90.000000
_cell_volume 4702.136174
_symmetry_space_group_name_H-M "C C C A"
_symmetry_group_IT_number 68
_space_group.IT_coordinate_system_code '2'
_symmetry_cell_setting 'orthorhombic'
loop_
_space_group_symop_operation_xyz
x,y,z
-x,1/2-y,z
x,1/2-y,1/2-z
-x,y,1/2-z
-x,-y,-z
x,1/2+y,-z
-x,1/2+y,1/2+z
x,-y,1/2+z
1/2+x,1/2+y,z
1/2-x,-y,z
1/2+x,-y,1/2-z
1/2-x,1/2+y,1/2-z
1/2-x,1/2-y,-z
1/2+x,y,-z
1/2-x,y,1/2+z
1/2+x,1/2-y,1/2+z
loop_
_atom_site_type_symbol
_atom_site_label
_atom_site_fract_x
_atom_site_fract_y
_atom_site_fract_z
Si Si1 0.900670 0.121348 0.698932
Si Si2 0.611814 0.970733 0.487362
Si Si3 0.438959 0.745133 0.922060
Si Si4 0.198928 0.103246 0.295757
Si Si5 0.944189 0.319321 0.314746
Si Si6 0.648261 0.295254 0.912477
O O1 0.909021 0.250000 0.750000
O O2 0.898406 0.206074 0.632588
O O3 0.850013 0.013863 0.713273
O O4 0.950512 0.003722 0.696185
O O5 0.569378 0.858437 0.519776
O O6 0.653945 0.868177 0.447851
O O7 0.577259 0.073295 0.440850
O O8 0.645151 0.068278 0.537130
O O9 0.500000 0.750000 0.900649
O O10 0.197369 0.250000 0.250000
O O11 0.197697 0.171220 0.366456
O O12 0.250000 0.000000 0.283440
O O13 0.922345 0.250000 0.250000
O O14 0.904699 0.286164 0.371028
O O15 0.000000 0.250000 0.334194
#
# Coordination Sequence:
#
# PCOD8282707 Si02
#       6
#    16  16  16  16  16  16
#     4  11  24  41  62  95 131 164 216 274 328 387
#     4  10  22  39  60  88 129 181 217 260 307 372
#     4  11  23  36  59  91 130 178 228 263 304 365
#     4  11  24  47  74 100 122 160 210 272 337 398
#     4  10  22  37  58  83 125 173 215 264 329 377
#     4  10  21  41  64  89 131 163 217 260 321 371
#
# _framework density 20.416253000000001
#
# number of rings (size 3 to 8) (size 9 to 14) (size 15 to 20)
#    0.000    1.500    3.333    3.000    7.000    4.333 
#    0.000    0.833    0.000    0.000    0.000    0.000 
#    0.000    0.000    0.000    0.000    0.000    0.000 
#
# Total GULP energy -594969.397108 kJ/mol
# GULP energy per Si atom -12395.195773 kJ/mol
# Density = 2.036978 g / cm^3
# Si number density = 20.416253 Si / 1000 Ang^3
#
#
#
# Elastic Constant Matrix: (Units=GPa)
#
#
# Indices 1 2 3 4 5 6 
#
# 1 69.1733 38.8989 19.8194 0.0000 0.0000 0.0000
# 2 38.8989 153.7628 68.8509 0.0000 0.0000 0.0000
# 3 19.8194 68.8509 118.6326 0.0000 0.0000 0.0000
# 4 0.0000 0.0000 0.0000 45.2377 0.0000 0.0000
# 5 0.0000 0.0000 0.0000 0.0000 17.2144 0.0000
# 6 0.0000 0.0000 0.0000 0.0000 0.0000 29.3840
#
#
#
# Elastic Compliance Matrix: (Units=1/GPa)
#
#
# Indices 1 2 3 4 5 6 
#
# 1 0.016873 -0.004062 -0.000461 0.000000 0.000000 0.000000
# 2 -0.004062 0.009765 -0.004989 0.000000 0.000000 0.000000
# 3 -0.000461 -0.004989 0.011402 0.000000 0.000000 0.000000
# 4 0.000000 0.000000 0.000000 0.022105 0.000000 0.000000
# 5 0.000000 0.000000 0.000000 0.000000 0.058091 0.000000
# 6 0.000000 0.000000 0.000000 0.000000 0.000000 0.034032
#
#
# Mechanical properties :
#
#
# Convention : Reuss Voigt Hill
#
# Bulk Modulus (GPa) = 52.58876 66.30078 59.44477
# Shear Modulus (GPa) = 28.14833 32.63386 30.39109
#
# Velocity S-wave (km/s) = 3.71714 4.00237 3.86239
# Velocity P-wave (km/s) = 6.65110 7.34191 7.00502
#
# Compressibility (1/GPa) = 0.01901547
#
# Stress axis : x y z
#
# Youngs Moduli (GPa) = 59.26701 102.40792 87.70581
#
# Poissons Ratio (x) = 0.41596 0.04047
# Poissons Ratio (y) = 0.24073 0.43753
# Poissons Ratio (z) = 0.02735 0.51088
#
# Static dielectric constant tensor:
#      x y z
#    x 3.357070 0.000000 0.000000 
#    y 0.000000 4.164140 0.000000 
#    z 0.000000 0.000000 3.932690 
# 
# 
# High freq. dielectric constant tensor:
#      x y z
#    x 1.753570 0.000000 0.000000 
#    y 0.000000 1.823170 0.000000 
#    z 0.000000 0.000000 1.812670 
# 
# From -- ./inp_files/36499.got.cif
#   From: 2010.03.12/outbox.cif.g09.slc.cpg/sg68_19_cif.got.tgz:36499.got - 2010.04.10 23:14:56.
