data_PCOD8282893
_publ_section_title
;
Structure prediction by ZEFSAII (Michael W. Deem and Ramdas Pophale) SiO2 
 PCOD8282893
Probable space group: C C C A
;
_chemical_formula_sum "Si O2"
_cell_formula_units_Z 56
_cell_length_a 7.400654
_cell_length_b 16.821506
_cell_length_c 20.993819
_cell_angle_alpha 90.000000
_cell_angle_beta 90.000000
_cell_angle_gamma 90.000000
_cell_volume 2613.523585
_symmetry_space_group_name_H-M "C C C A"
_symmetry_group_IT_number 68
_space_group.IT_coordinate_system_code '2'
_symmetry_cell_setting 'orthorhombic'
loop_
_space_group_symop_operation_xyz
x,y,z
-x,1/2-y,z
x,1/2-y,1/2-z
-x,y,1/2-z
-x,-y,-z
x,1/2+y,-z
-x,1/2+y,1/2+z
x,-y,1/2+z
1/2+x,1/2+y,z
1/2-x,-y,z
1/2+x,-y,1/2-z
1/2-x,1/2+y,1/2-z
1/2-x,1/2-y,-z
1/2+x,y,-z
1/2-x,y,1/2+z
1/2+x,1/2-y,1/2+z
loop_
_atom_site_type_symbol
_atom_site_label
_atom_site_fract_x
_atom_site_fract_y
_atom_site_fract_z
Si Si1 0.750000 0.000000 0.112620
Si Si2 0.241066 0.178262 0.584755
Si Si3 0.639656 0.154506 0.555200
Si Si4 0.083441 0.058452 0.684610
O O1 0.744406 0.076622 0.067660
O O2 0.569002 0.002556 0.153886
O O3 0.436564 0.138272 0.578227
O O4 0.268999 0.273032 0.595076
O O5 0.126215 0.170314 0.520035
O O6 0.136710 0.135243 0.642255
O O7 0.000000 0.093004 0.750000
O O8 0.250000 0.000000 0.697938
#
# Coordination Sequence:
#
# PCOD8282893 Si02
#       4
#     8  16  16  16
#     4  12  24  40  70 100 134 174 232 284 344 398
#     4  10  22  42  66 100 144 177 223 284 347 410
#     4  10  22  40  68 105 139 175 222 288 351 410
#     4  12  25  44  69  96 134 184 235 283 332 408
#
# _framework density 21.427011
#
# number of rings (size 3 to 8) (size 9 to 14) (size 15 to 20)
#    0.000    1.143    4.286    1.714    2.000    5.714 
#    0.000    2.857    0.000    5.143    0.000    0.000 
#    0.000    0.000    0.000    0.000    0.000    0.000 
#
# Total GULP energy -347181.002340 kJ/mol
# GULP energy per Si atom -12399.321512 kJ/mol
# Density = 2.137824 g / cm^3
# Si number density = 21.427011 Si / 1000 Ang^3
#
#
#
# Elastic Constant Matrix: (Units=GPa)
#
#
# Indices 1 2 3 4 5 6 
#
# 1 116.3728 54.1942 52.3976 0.0000 0.0000 0.0000
# 2 54.1942 123.0594 56.9232 0.0000 0.0000 0.0000
# 3 52.3976 56.9232 117.0521 0.0000 0.0000 0.0000
# 4 0.0000 0.0000 0.0000 26.4534 0.0000 0.0000
# 5 0.0000 0.0000 0.0000 0.0000 41.4732 0.0000
# 6 0.0000 0.0000 0.0000 0.0000 0.0000 37.2996
#
#
#
# Elastic Compliance Matrix: (Units=1/GPa)
#
#
# Indices 1 2 3 4 5 6 
#
# 1 0.011866 -0.003572 -0.003575 0.000000 0.000000 0.000000
# 2 -0.003572 0.011560 -0.004023 0.000000 0.000000 0.000000
# 3 -0.003575 -0.004023 0.012100 0.000000 0.000000 0.000000
# 4 0.000000 0.000000 0.000000 0.037802 0.000000 0.000000
# 5 0.000000 0.000000 0.000000 0.000000 0.024112 0.000000
# 6 0.000000 0.000000 0.000000 0.000000 0.000000 0.026810
#
#
# Mechanical properties :
#
#
# Convention : Reuss Voigt Hill
#
# Bulk Modulus (GPa) = 75.83323 75.94603 75.88963
# Shear Modulus (GPa) = 33.11593 33.90984 33.51289
#
# Velocity S-wave (km/s) = 3.93558 3.98247 3.95910
# Velocity P-wave (km/s) = 7.49133 7.52780 7.50959
#
# Compressibility (1/GPa) = 0.01318683
#
# Stress axis : x y z
#
# Youngs Moduli (GPa) = 84.27345 86.50447 82.64741
#
# Poissons Ratio (x) = 0.30902 0.29543
# Poissons Ratio (y) = 0.30105 0.33246
# Poissons Ratio (z) = 0.30124 0.34798
#
# Static dielectric constant tensor:
#      x y z
#    x 4.066260 0.000000 0.000000 
#    y 0.000000 3.774850 0.000000 
#    z 0.000000 0.000000 3.665260 
# 
# 
# High freq. dielectric constant tensor:
#      x y z
#    x 1.867440 0.000000 0.000000 
#    y 0.000000 1.840740 0.000000 
#    z 0.000000 0.000000 1.815560 
# 
# From -- ./inp_files/27657.got.cif
#   From: 2010.03.12/outbox.cif.g09.slc.cpg/sg68_14_cif.got.tgz:27657.got - 2010.04.10 23:14:56.
