data_PCOD8282401
_publ_section_title
;
Structure prediction by ZEFSAII (Michael W. Deem and Ramdas Pophale) SiO2 
 PCOD8282401
Probable space group: C C C A
;
_chemical_formula_sum "Si O2"
_cell_formula_units_Z 68
_cell_length_a 7.167611
_cell_length_b 21.295225
_cell_length_c 18.664777
_cell_angle_alpha 90.000000
_cell_angle_beta 90.000000
_cell_angle_gamma 90.000000
_cell_volume 2848.914830
_symmetry_space_group_name_H-M "C C C A"
_symmetry_group_IT_number 68
_space_group.IT_coordinate_system_code '2'
_symmetry_cell_setting 'orthorhombic'
loop_
_space_group_symop_operation_xyz
x,y,z
-x,1/2-y,z
x,1/2-y,1/2-z
-x,y,1/2-z
-x,-y,-z
x,1/2+y,-z
-x,1/2+y,1/2+z
x,-y,1/2+z
1/2+x,1/2+y,z
1/2-x,-y,z
1/2+x,-y,1/2-z
1/2-x,1/2+y,1/2-z
1/2-x,1/2-y,-z
1/2+x,y,-z
1/2-x,y,1/2+z
1/2+x,1/2-y,1/2+z
loop_
_atom_site_type_symbol
_atom_site_label
_atom_site_fract_x
_atom_site_fract_y
_atom_site_fract_z
Si Si1 0.500000 0.536958 0.750000
Si Si2 0.750000 0.500000 0.870755
Si Si3 0.794813 0.640871 0.174696
Si Si4 0.000000 0.250000 0.750000
Si Si5 0.604260 0.378373 0.437606
Si Si6 0.473151 0.677553 0.082905
O O1 0.568101 0.495325 0.817613
O O2 0.323910 0.583065 0.769641
O O3 0.719604 0.557245 0.925097
O O4 0.578766 0.652604 0.154093
O O5 0.865467 0.707086 0.203147
O O6 0.912128 0.623257 0.104502
O O7 0.552981 0.366196 0.519519
O O8 0.750469 0.327230 0.407183
O O9 0.500000 0.750000 0.064692
#
# Coordination Sequence:
#
# PCOD8282401 Si02
#       6
#     8   8  16   4  16  16
#     4   9  22  43  64  88 131 170 219 272 320 382
#     4  10  24  44  64  94 126 174 218 270 318 386
#     4  10  22  42  61  97 124 170 211 266 327 377
#     4  10  20  40  66  80 136 162 210 262 308 392
#     4  11  24  42  65  94 130 166 215 264 327 380
#     4  12  24  40  67  98 131 169 211 265 328 391
#
# _framework density 23.868739000000001
#
# number of rings (size 3 to 8) (size 9 to 14) (size 15 to 20)
#    0.000    1.412    2.353    2.118    4.941    0.941 
#    0.000    8.824    0.000    0.000    0.000    0.000 
#    0.000    0.000    0.000    0.000    0.000    0.000 
#
# Total GULP energy -421391.901890 kJ/mol
# GULP energy per Si atom -12393.879467 kJ/mol
# Density = 2.381441 g / cm^3
# Si number density = 23.868739 Si / 1000 Ang^3
#
#
#
# Elastic Constant Matrix: (Units=GPa)
#
#
# Indices 1 2 3 4 5 6 
#
# 1 65.0740 -19.3958 -7.6523 0.0000 0.0000 0.0000
# 2 -19.3958 88.7183 16.7386 0.0000 0.0000 0.0000
# 3 -7.6523 16.7386 59.8436 0.0000 0.0000 0.0000
# 4 0.0000 0.0000 0.0000 20.5366 0.0000 0.0000
# 5 0.0000 0.0000 0.0000 0.0000 42.8669 0.0000
# 6 0.0000 0.0000 0.0000 0.0000 0.0000 23.9580
#
#
#
# Elastic Compliance Matrix: (Units=1/GPa)
#
#
# Indices 1 2 3 4 5 6 
#
# 1 0.016515 0.003391 0.001163 0.000000 0.000000 0.000000
# 2 0.003391 0.012596 -0.003090 0.000000 0.000000 0.000000
# 3 0.001163 -0.003090 0.017723 0.000000 0.000000 0.000000
# 4 0.000000 0.000000 0.000000 0.048693 0.000000 0.000000
# 5 0.000000 0.000000 0.000000 0.000000 0.023328 0.000000
# 6 0.000000 0.000000 0.000000 0.000000 0.000000 0.041740
#
#
# Mechanical properties :
#
#
# Convention : Reuss Voigt Hill
#
# Bulk Modulus (GPa) = 20.09520 21.44631 20.77075
# Shear Modulus (GPa) = 28.69391 32.40201 30.54796
#
# Velocity S-wave (km/s) = 3.47097 3.68843 3.58135
# Velocity P-wave (km/s) = 4.94983 5.20999 5.08158
#
# Compressibility (1/GPa) = 0.04976313
#
# Stress axis : x y z
#
# Youngs Moduli (GPa) = 60.55238 79.39101 56.42342
#
# Poissons Ratio (x) = -0.26921 -0.06564
# Poissons Ratio (y) = -0.20533 0.17432
# Poissons Ratio (z) = -0.07044 0.24528
#
# Static dielectric constant tensor:
#      x y z
#    x 4.457340 0.000000 0.000000 
#    y 0.000000 4.230280 0.000000 
#    z 0.000000 0.000000 4.168230 
# 
# 
# High freq. dielectric constant tensor:
#      x y z
#    x 1.946890 0.000000 0.000000 
#    y 0.000000 1.947190 0.000000 
#    z 0.000000 0.000000 1.940650 
# 
# From -- ./inp_files/28014.got.cif
#   From: 2010.03.12/outbox.cif.g09.slc.cpg/sg68_15_cif.got.tgz:28014.got - 2010.04.10 23:14:56.
