data_PCOD8282789
_publ_section_title
;
Structure prediction by ZEFSAII (Michael W. Deem and Ramdas Pophale) SiO2 
 PCOD8282789
Probable space group: C C C A
;
_chemical_formula_sum "Si O2"
_cell_formula_units_Z 128
_cell_length_a 17.807581
_cell_length_b 18.345949
_cell_length_c 19.554800
_cell_angle_alpha 90.000000
_cell_angle_beta 90.000000
_cell_angle_gamma 90.000000
_cell_volume 6388.493964
_symmetry_space_group_name_H-M "C C C A"
_symmetry_group_IT_number 68
_space_group.IT_coordinate_system_code '2'
_symmetry_cell_setting 'orthorhombic'
loop_
_space_group_symop_operation_xyz
x,y,z
-x,1/2-y,z
x,1/2-y,1/2-z
-x,y,1/2-z
-x,-y,-z
x,1/2+y,-z
-x,1/2+y,1/2+z
x,-y,1/2+z
1/2+x,1/2+y,z
1/2-x,-y,z
1/2+x,-y,1/2-z
1/2-x,1/2+y,1/2-z
1/2-x,1/2-y,-z
1/2+x,y,-z
1/2-x,y,1/2+z
1/2+x,1/2-y,1/2+z
loop_
_atom_site_type_symbol
_atom_site_label
_atom_site_fract_x
_atom_site_fract_y
_atom_site_fract_z
Si Si1 0.827638 0.664380 0.533373
Si Si2 0.574910 0.452551 0.166159
Si Si3 0.427778 0.463321 0.963712
Si Si4 0.211732 0.825560 0.279694
Si Si5 0.667151 0.473312 0.928268
Si Si6 0.588073 0.064664 0.183197
Si Si7 0.709237 0.182860 0.582607
Si Si8 0.733761 0.585687 0.650870
O O1 0.909092 0.623405 0.524838
O O2 0.784777 0.667482 0.461101
O O3 0.838468 0.747288 0.558112
O O4 0.777327 0.620110 0.587652
O O5 0.568893 0.523443 0.117468
O O6 0.496447 0.408142 0.165050
O O7 0.590916 0.478057 0.244081
O O8 0.643695 0.401953 0.140145
O O9 0.500000 0.500000 0.000000
O O10 0.354084 0.502597 0.995098
O O11 0.180878 0.750000 0.250000
O O12 0.141068 0.865493 0.314079
O O13 0.271071 0.806495 0.338351
O O14 0.254086 0.874078 0.222198
O O15 0.750000 0.500000 0.908987
O O16 0.610273 0.508126 0.874808
O O17 0.655945 0.386915 0.924209
O O18 0.750000 0.500000 0.658708
#
# Coordination Sequence:
#
# PCOD8282789 Si02
#       8
#    16  16  16  16  16  16  16  16
#     4  11  23  42  61  93 131 165 208 269 329 384
#     4  10  22  37  59  92 127 161 212 261 320 370
#     4  12  23  40  66  93 124 170 214 265 320 392
#     4  11  22  39  61  92 129 165 209 266 335 384
#     4  12  22  39  67  97 121 165 220 265 315 384
#     4  10  22  40  60  89 128 166 212 265 313 383
#     4  11  24  38  62  93 133 163 208 271 328 382
#     4  11  22  37  64  93 123 160 216 265 312 383
#
# _framework density 20.036021000000002
#
# number of rings (size 3 to 8) (size 9 to 14) (size 15 to 20)
#    0.000    1.000    6.250    0.750    3.500    0.000 
#    0.000    5.625    0.000    3.000    0.000    1.750 
#    0.000    0.000    0.000    0.000    0.000    0.000 
#
# Total GULP energy -793180.290041 kJ/mol
# GULP energy per Si atom -12393.442032 kJ/mol
# Density = 1.999042 g / cm^3
# Si number density = 20.036021 Si / 1000 Ang^3
#
#
#
# Elastic Constant Matrix: (Units=GPa)
#
#
# Indices 1 2 3 4 5 6 
#
# 1 79.4059 30.6703 18.0858 0.0000 0.0000 0.0000
# 2 30.6703 146.9343 38.8062 0.0000 0.0000 0.0000
# 3 18.0858 38.8062 98.6676 0.0000 0.0000 0.0000
# 4 0.0000 0.0000 0.0000 30.8057 0.0000 0.0000
# 5 0.0000 0.0000 0.0000 0.0000 29.4959 0.0000
# 6 0.0000 0.0000 0.0000 0.0000 0.0000 27.7110
#
#
#
# Elastic Compliance Matrix: (Units=1/GPa)
#
#
# Indices 1 2 3 4 5 6 
#
# 1 0.013913 -0.002489 -0.001571 0.000000 0.000000 0.000000
# 2 -0.002489 0.008040 -0.002706 0.000000 0.000000 0.000000
# 3 -0.001571 -0.002706 0.011487 0.000000 0.000000 0.000000
# 4 0.000000 0.000000 0.000000 0.032461 0.000000 0.000000
# 5 0.000000 0.000000 0.000000 0.000000 0.033903 0.000000
# 6 0.000000 0.000000 0.000000 0.000000 0.000000 0.036087
#
#
# Mechanical properties :
#
#
# Convention : Reuss Voigt Hill
#
# Bulk Modulus (GPa) = 50.23216 55.57026 52.90121
# Shear Modulus (GPa) = 32.03902 33.43222 32.73562
#
# Velocity S-wave (km/s) = 4.00318 4.08929 4.04646
# Velocity P-wave (km/s) = 6.81855 7.07755 6.94926
#
# Compressibility (1/GPa) = 0.01990757
#
# Stress axis : x y z
#
# Youngs Moduli (GPa) = 71.87625 124.37867 87.05286
#
# Poissons Ratio (x) = 0.30959 0.13678
# Poissons Ratio (y) = 0.17891 0.23555
# Poissons Ratio (z) = 0.11294 0.33655
#
# Static dielectric constant tensor:
#      x y z
#    x 3.753340 0.000000 0.000000 
#    y 0.000000 3.710370 0.000000 
#    z 0.000000 0.000000 3.970860 
# 
# 
# High freq. dielectric constant tensor:
#      x y z
#    x 1.762020 0.000000 0.000000 
#    y 0.000000 1.763560 0.000000 
#    z 0.000000 0.000000 1.807050 
# 
# From -- ./inp_files/40478.got.cif
#   From: 2010.03.12/outbox.cif.g09.slc.cpg/sg68_21_cif.got.tgz:40478.got - 2010.04.10 23:14:56.
