data_PCOD8282848
_publ_section_title
;
Structure prediction by ZEFSAII (Michael W. Deem and Ramdas Pophale) SiO2 
 PCOD8282848
Probable space group: C C C A
;
_chemical_formula_sum "Si O2"
_cell_formula_units_Z 92
_cell_length_a 8.392107
_cell_length_b 20.227671
_cell_length_c 25.384204
_cell_angle_alpha 90.000000
_cell_angle_beta 90.000000
_cell_angle_gamma 90.000000
_cell_volume 4309.039182
_symmetry_space_group_name_H-M "C C C A"
_symmetry_group_IT_number 68
_space_group.IT_coordinate_system_code '2'
_symmetry_cell_setting 'orthorhombic'
loop_
_space_group_symop_operation_xyz
x,y,z
-x,1/2-y,z
x,1/2-y,1/2-z
-x,y,1/2-z
-x,-y,-z
x,1/2+y,-z
-x,1/2+y,1/2+z
x,-y,1/2+z
1/2+x,1/2+y,z
1/2-x,-y,z
1/2+x,-y,1/2-z
1/2-x,1/2+y,1/2-z
1/2-x,1/2-y,-z
1/2+x,y,-z
1/2-x,y,1/2+z
1/2+x,1/2-y,1/2+z
loop_
_atom_site_type_symbol
_atom_site_label
_atom_site_fract_x
_atom_site_fract_y
_atom_site_fract_z
Si Si1 0.466845 0.130068 0.550530
Si Si2 0.500000 0.250000 0.876771
Si Si3 0.000000 0.250000 0.750000
Si Si4 0.091321 0.630434 0.438686
Si Si5 0.381736 0.046223 0.204193
Si Si6 0.565363 0.001306 0.105890
Si Si7 0.692156 0.317565 0.162438
O O1 0.540296 0.186321 0.588186
O O2 0.278997 0.119092 0.554103
O O3 0.516335 0.155991 0.492821
O O4 0.540723 0.060950 0.567739
O O5 0.650010 0.227637 0.841216
O O6 0.103851 0.295701 0.786141
O O7 0.082724 0.684823 0.391019
O O8 0.990949 0.565164 0.426231
O O9 0.500000 0.072177 0.250000
O O10 0.472590 0.000734 0.161243
O O11 0.284408 0.104295 0.173795
O O12 0.250000 0.000000 0.231633
O O13 0.750000 0.000000 0.119969
#
# Coordination Sequence:
#
# PCOD8282848 Si02
#       7
#    16   8   4  16  16  16  16
#     4  11  22  40  63  97 131 175 214 270 330 397
#     4  10  24  42  64  92 132 168 222 260 326 400
#     4  12  24  44  68  84 132 168 224 270 330 394
#     4  10  22  39  64  93 135 168 221 275 329 392
#     4  11  22  43  66  95 129 165 220 276 332 385
#     4  11  22  38  64  95 131 172 217 273 331 388
#     4  10  24  44  63  93 126 174 217 273 323 394
#
# _framework density 21.350466999999998
#
# number of rings (size 3 to 8) (size 9 to 14) (size 15 to 20)
#    0.000    1.391    0.870    5.739    0.000    8.000 
#    6.261    0.000    0.000    0.000    0.000    0.000 
#    0.000    0.000    0.000    0.000    0.000    0.000 
#
# Total GULP energy -569971.447787 kJ/mol
# GULP energy per Si atom -12390.683648 kJ/mol
# Density = 2.130187 g / cm^3
# Si number density = 21.350467 Si / 1000 Ang^3
#
#
#
# Elastic Constant Matrix: (Units=GPa)
#
#
# Indices 1 2 3 4 5 6 
#
# 1 125.9466 62.4612 55.0654 0.0000 0.0000 0.0000
# 2 62.4612 87.5609 36.4558 0.0000 0.0000 0.0000
# 3 55.0654 36.4558 144.9547 0.0000 0.0000 0.0000
# 4 0.0000 0.0000 0.0000 11.8662 0.0000 0.0000
# 5 0.0000 0.0000 0.0000 0.0000 43.0410 0.0000
# 6 0.0000 0.0000 0.0000 0.0000 0.0000 -84.4575
#
#
#
# Elastic Compliance Matrix: (Units=1/GPa)
#
#
# Indices 1 2 3 4 5 6 
#
# 1 0.013354 -0.008281 -0.002990 0.000000 0.000000 0.000000
# 2 -0.008281 0.017892 -0.001354 0.000000 0.000000 0.000000
# 3 -0.002990 -0.001354 0.008375 0.000000 0.000000 0.000000
# 4 0.000000 0.000000 0.000000 0.084273 0.000000 0.000000
# 5 0.000000 0.000000 0.000000 0.000000 0.023234 0.000000
# 6 0.000000 0.000000 0.000000 0.000000 0.000000 -0.011840
#
#
# Mechanical properties :
#
#
# Convention : Reuss Voigt Hill
#
# Bulk Modulus (GPa) = 69.58772 74.04744 71.81758
# Shear Modulus (GPa) = 30.24288 7.72192 18.98240
#
# Velocity S-wave (km/s) = 3.76772 1.90384 2.98499
# Velocity P-wave (km/s) = 7.18272 6.29206 6.75209
#
# Compressibility (1/GPa) = 0.01437035
#
# Stress axis : x y z
#
# Youngs Moduli (GPa) = 74.88299 55.89205 119.40080
#
# Poissons Ratio (x) = 0.46285 0.35704
# Poissons Ratio (y) = 0.62012 0.16165
# Poissons Ratio (z) = 0.22392 0.07567
#
# Static dielectric constant tensor:
#      x y z
#    x 3.850310 0.000000 0.000000 
#    y 0.000000 3.845620 0.000000 
#    z 0.000000 0.000000 4.155580 
# 
# 
# High freq. dielectric constant tensor:
#      x y z
#    x 1.834780 0.000000 0.000000 
#    y 0.000000 1.835810 0.000000 
#    z 0.000000 0.000000 1.852960 
# 
# From -- ./inp_files/49360.got.cif
#   From: 2010.03.12/outbox.cif.g09.slc.cpg/sg68_25_cif.got.tgz:49360.got - 2010.04.10 23:14:56.
