data_PCOD8282951
_publ_section_title
;
Structure prediction by ZEFSAII (Michael W. Deem and Ramdas Pophale) SiO2 
 PCOD8282951
Probable space group: C C C A
;
_chemical_formula_sum "Si O2"
_cell_formula_units_Z 52
_cell_length_a 5.362682
_cell_length_b 14.422398
_cell_length_c 29.981082
_cell_angle_alpha 90.000000
_cell_angle_beta 90.000000
_cell_angle_gamma 90.000000
_cell_volume 2318.818855
_symmetry_space_group_name_H-M "C C C A"
_symmetry_group_IT_number 68
_space_group.IT_coordinate_system_code '2'
_symmetry_cell_setting 'orthorhombic'
loop_
_space_group_symop_operation_xyz
x,y,z
-x,1/2-y,z
x,1/2-y,1/2-z
-x,y,1/2-z
-x,-y,-z
x,1/2+y,-z
-x,1/2+y,1/2+z
x,-y,1/2+z
1/2+x,1/2+y,z
1/2-x,-y,z
1/2+x,-y,1/2-z
1/2-x,1/2+y,1/2-z
1/2-x,1/2-y,-z
1/2+x,y,-z
1/2-x,y,1/2+z
1/2+x,1/2-y,1/2+z
loop_
_atom_site_type_symbol
_atom_site_label
_atom_site_fract_x
_atom_site_fract_y
_atom_site_fract_z
Si Si1 0.834904 0.394010 0.291741
Si Si2 0.500000 0.250000 0.250000
Si Si3 0.505803 0.642234 0.021833
Si Si4 0.500045 0.939994 0.383714
O O1 0.750000 0.500000 0.288486
O O2 0.623263 0.317395 0.286793
O O3 0.000000 0.368534 0.250000
O O4 0.979598 0.379504 0.338464
O O5 0.500000 0.750000 0.010466
O O6 0.520280 0.628335 0.074632
O O7 0.752760 0.597001 0.998828
O O8 0.750000 0.000000 0.380307
O O9 0.250000 0.000000 0.389102
#
# Coordination Sequence:
#
# PCOD8282951 Si02
#       4
#    16   4  16  16
#     4  11  24  46  70 101 147 180 239 302 345 431
#     4  12  26  44  76 104 128 212 226 280 390 410
#     4  10  22  42  64  96 137 177 224 285 339 406
#     4  11  25  43  70 101 135 182 226 286 351 404
#
# _framework density 22.42521
#
# number of rings (size 3 to 8) (size 9 to 14) (size 15 to 20)
#    0.000    1.231    1.538    3.231    4.308    6.154 
#    8.308    0.000    0.000    0.000    0.000    0.000 
#    0.000    0.000    0.000    0.000    0.000    0.000 
#
# Total GULP energy -322213.672135 kJ/mol
# GULP energy per Si atom -12392.833544 kJ/mol
# Density = 2.237417 g / cm^3
# Si number density = 22.425210 Si / 1000 Ang^3
#
#
#
# Elastic Constant Matrix: (Units=GPa)
#
#
# Indices 1 2 3 4 5 6 
#
# 1 184.7732 39.4822 69.5294 0.0000 0.0000 0.0000
# 2 39.4822 91.3164 27.0384 0.0000 0.0000 0.0000
# 3 69.5294 27.0384 199.9866 0.0000 0.0000 0.0000
# 4 0.0000 0.0000 0.0000 32.8331 0.0000 0.0000
# 5 0.0000 0.0000 0.0000 0.0000 144.7329 0.0000
# 6 0.0000 0.0000 0.0000 0.0000 0.0000 14.6869
#
#
#
# Elastic Compliance Matrix: (Units=1/GPa)
#
#
# Indices 1 2 3 4 5 6 
#
# 1 0.006654 -0.002284 -0.002005 0.000000 0.000000 0.000000
# 2 -0.002284 0.012191 -0.000854 0.000000 0.000000 0.000000
# 3 -0.002005 -0.000854 0.005813 0.000000 0.000000 0.000000
# 4 0.000000 0.000000 0.000000 0.030457 0.000000 0.000000
# 5 0.000000 0.000000 0.000000 0.000000 0.006909 0.000000
# 6 0.000000 0.000000 0.000000 0.000000 0.000000 0.068088
#
#
# Mechanical properties :
#
#
# Convention : Reuss Voigt Hill
#
# Bulk Modulus (GPa) = 69.57435 83.13069 76.35252
# Shear Modulus (GPa) = 34.43782 61.11898 47.77840
#
# Velocity S-wave (km/s) = 3.92302 5.22626 4.62081
# Velocity P-wave (km/s) = 7.18419 8.57724 7.91143
#
# Compressibility (1/GPa) = 0.01437311
#
# Stress axis : x y z
#
# Youngs Moduli (GPa) = 150.27699 82.02623 172.03253
#
# Poissons Ratio (x) = 0.18731 0.34489
# Poissons Ratio (y) = 0.34316 0.14698
# Poissons Ratio (z) = 0.30127 0.07008
#
# Static dielectric constant tensor:
#      x y z
#    x 4.647550 0.000000 0.000000 
#    y 0.000000 3.591630 0.000000 
#    z 0.000000 0.000000 4.363360 
# 
# 
# High freq. dielectric constant tensor:
#      x y z
#    x 1.897690 0.000000 0.000000 
#    y 0.000000 1.876350 0.000000 
#    z 0.000000 0.000000 1.898500 
# 
# From -- ./inp_files/47934.got.cif
#   From: 2010.03.12/outbox.cif.g09.slc.cpg/sg68_24_cif.got.tgz:47934.got - 2010.04.10 23:14:56.
