data_PCOD8282526
_publ_section_title
;
Structure prediction by ZEFSAII (Michael W. Deem and Ramdas Pophale) SiO2 
 PCOD8282526
Probable space group: C C C A
;
_chemical_formula_sum "Si O2"
_cell_formula_units_Z 80
_cell_length_a 21.487245
_cell_length_b 13.069807
_cell_length_c 13.064405
_cell_angle_alpha 90.000000
_cell_angle_beta 90.000000
_cell_angle_gamma 90.000000
_cell_volume 3668.931010
_symmetry_space_group_name_H-M "C C C A"
_symmetry_group_IT_number 68
_space_group.IT_coordinate_system_code '2'
_symmetry_cell_setting 'orthorhombic'
loop_
_space_group_symop_operation_xyz
x,y,z
-x,1/2-y,z
x,1/2-y,1/2-z
-x,y,1/2-z
-x,-y,-z
x,1/2+y,-z
-x,1/2+y,1/2+z
x,-y,1/2+z
1/2+x,1/2+y,z
1/2-x,-y,z
1/2+x,-y,1/2-z
1/2-x,1/2+y,1/2-z
1/2-x,1/2-y,-z
1/2+x,y,-z
1/2-x,y,1/2+z
1/2+x,1/2-y,1/2+z
loop_
_atom_site_type_symbol
_atom_site_label
_atom_site_fract_x
_atom_site_fract_y
_atom_site_fract_z
Si Si1 0.173902 0.589356 0.602910
Si Si2 0.534957 0.569996 0.353101
Si Si3 0.988123 0.134128 0.926562
Si Si4 0.848394 0.344628 0.615777
Si Si5 0.302031 0.127471 0.328837
O O1 0.105649 0.612170 0.649562
O O2 0.186068 0.629185 0.488742
O O3 0.227272 0.646819 0.668865
O O4 0.182414 0.467269 0.598716
O O5 0.500000 0.605766 0.250000
O O6 0.500566 0.619494 0.451610
O O7 0.532225 0.445651 0.365191
O O8 0.917650 0.111073 0.894785
O O9 0.000000 0.250000 0.892417
O O10 0.843308 0.222659 0.633544
O O11 0.817655 0.401996 0.711749
#
# Coordination Sequence:
#
# PCOD8282526 Si02
#       5
#    16  16  16  16  16
#     4  10  21  37  59  85 118 154 192 246 300 350
#     4  10  21  38  58  87 120 151 192 240 294 355
#     4  10  21  37  60  86 116 154 195 241 293 350
#     4  10  21  39  59  86 119 153 201 248 291 354
#     4  10  21  37  59  87 115 156 202 240 296 355
#
# _framework density 21.804717
#
# number of rings (size 3 to 8) (size 9 to 14) (size 15 to 20)
#    0.000    2.000    0.000    3.000    0.000    5.600 
#    0.000   10.000    0.000    0.000    0.000    0.000 
#    0.000    0.000    0.000    0.000    0.000    0.000 
#
# Total GULP energy -495904.602406 kJ/mol
# GULP energy per Si atom -12397.615060 kJ/mol
# Density = 2.175509 g / cm^3
# Si number density = 21.804717 Si / 1000 Ang^3
#
#
#
# Elastic Constant Matrix: (Units=GPa)
#
#
# Indices 1 2 3 4 5 6 
#
# 1 83.8135 -7.4027 56.0694 0.0000 0.0000 0.0000
# 2 -7.4027 59.4483 14.4866 0.0000 0.0000 0.0000
# 3 56.0694 14.4866 160.7804 0.0000 0.0000 0.0000
# 4 0.0000 0.0000 0.0000 22.0440 0.0000 0.0000
# 5 0.0000 0.0000 0.0000 0.0000 34.4579 0.0000
# 6 0.0000 0.0000 0.0000 0.0000 0.0000 29.4718
#
#
#
# Elastic Compliance Matrix: (Units=1/GPa)
#
#
# Indices 1 2 3 4 5 6 
#
# 1 0.016236 0.003478 -0.005975 0.000000 0.000000 0.000000
# 2 0.003478 0.017944 -0.002830 0.000000 0.000000 0.000000
# 3 -0.005975 -0.002830 0.008558 0.000000 0.000000 0.000000
# 4 0.000000 0.000000 0.000000 0.045364 0.000000 0.000000
# 5 0.000000 0.000000 0.000000 0.000000 0.029021 0.000000
# 6 0.000000 0.000000 0.000000 0.000000 0.000000 0.033931
#
#
# Mechanical properties :
#
#
# Convention : Reuss Voigt Hill
#
# Bulk Modulus (GPa) = 31.16824 47.81652 39.49238
# Shear Modulus (GPa) = 29.00192 33.25401 31.12796
#
# Velocity S-wave (km/s) = 3.65098 3.90947 3.78243
# Velocity P-wave (km/s) = 5.66552 6.50812 6.10138
#
# Compressibility (1/GPa) = 0.03208394
#
# Stress axis : x y z
#
# Youngs Moduli (GPa) = 61.59233 55.72915 116.84426
#
# Poissons Ratio (x) = -0.19382 0.69818
# Poissons Ratio (y) = -0.21421 0.33062
# Poissons Ratio (z) = 0.36803 0.15769
#
# Static dielectric constant tensor:
#      x y z
#    x 4.069220 0.000000 0.000000 
#    y 0.000000 3.742820 0.000000 
#    z 0.000000 0.000000 3.969940 
# 
# 
# High freq. dielectric constant tensor:
#      x y z
#    x 1.860900 0.000000 0.000000 
#    y 0.000000 1.841630 0.000000 
#    z 0.000000 0.000000 1.857630 
# 
# From -- ./inp_files/16199.got.cif
#   From: 2010.03.12/outbox.cif.g09.slc.cpg/sg68_9_cif.got.tgz:16199.got - 2010.04.10 23:14:56.
