data_PCOD8282934
_publ_section_title
;
Structure prediction by ZEFSAII (Michael W. Deem and Ramdas Pophale) SiO2 
 PCOD8282934
Probable space group: C C C A
;
_chemical_formula_sum "Si O2"
_cell_formula_units_Z 76
_cell_length_a 28.991990
_cell_length_b 8.025368
_cell_length_c 16.103224
_cell_angle_alpha 90.000000
_cell_angle_beta 90.000000
_cell_angle_gamma 90.000000
_cell_volume 3746.759492
_symmetry_space_group_name_H-M "C C C A"
_symmetry_group_IT_number 68
_space_group.IT_coordinate_system_code '2'
_symmetry_cell_setting 'orthorhombic'
loop_
_space_group_symop_operation_xyz
x,y,z
-x,1/2-y,z
x,1/2-y,1/2-z
-x,y,1/2-z
-x,-y,-z
x,1/2+y,-z
-x,1/2+y,1/2+z
x,-y,1/2+z
1/2+x,1/2+y,z
1/2-x,-y,z
1/2+x,-y,1/2-z
1/2-x,1/2+y,1/2-z
1/2-x,1/2-y,-z
1/2+x,y,-z
1/2-x,y,1/2+z
1/2+x,1/2-y,1/2+z
loop_
_atom_site_type_symbol
_atom_site_label
_atom_site_fract_x
_atom_site_fract_y
_atom_site_fract_z
Si Si1 0.000000 0.750000 0.028932
Si Si2 0.000000 0.250000 0.250000
Si Si3 0.653381 0.454586 0.108216
Si Si4 0.301047 0.725310 0.034381
Si Si5 0.951909 0.943349 0.893769
Si Si6 0.250000 0.000000 0.358299
Si Si7 0.696990 0.750000 0.750000
O O1 0.983117 0.604373 0.088985
O O2 0.958485 0.812047 0.969097
O O3 0.967147 0.364627 0.193565
O O4 0.683987 0.617085 0.089178
O O5 0.600685 0.505599 0.111147
O O6 0.665776 0.378840 0.197999
O O7 0.662148 0.313824 0.038017
O O8 0.295344 0.559677 0.090372
O O9 0.250000 0.750000 0.000000
O O10 0.267642 0.155564 0.307950
#
# Coordination Sequence:
#
# PCOD8282934 Si02
#       7
#     8   4  16  16  16   8   8
#     4   9  20  42  68  95 120 168 210 261 326 384
#     4  10  24  42  62  94 140 172 196 256 352 390
#     4  12  24  40  65  95 125 161 221 264 308 376
#     4  12  22  42  64  87 120 172 212 262 308 369
#     4  10  22  41  67  95 128 165 211 264 321 392
#     4  12  24  40  62  80 124 166 210 250 316 370
#     4  12  26  38  57  93 122 164 206 264 310 374
#
# _framework density 20.284196000000001
#
# number of rings (size 3 to 8) (size 9 to 14) (size 15 to 20)
#    0.000    0.842    4.211    2.526    0.000    3.789 
#    0.000    2.105    0.000    0.000    0.000    0.000 
#    0.000    0.000    0.000    0.000    0.000    0.000 
#
# Total GULP energy -471255.869834 kJ/mol
# GULP energy per Si atom -12401.470259 kJ/mol
# Density = 2.023803 g / cm^3
# Si number density = 20.284196 Si / 1000 Ang^3
#
#
#
# Elastic Constant Matrix: (Units=GPa)
#
#
# Indices 1 2 3 4 5 6 
#
# 1 137.4814 40.8174 62.2056 0.0000 0.0000 0.0000
# 2 40.8174 108.1681 60.7525 0.0000 0.0000 0.0000
# 3 62.2056 60.7525 126.7186 0.0000 0.0000 0.0000
# 4 0.0000 0.0000 0.0000 55.8112 0.0000 0.0000
# 5 0.0000 0.0000 0.0000 0.0000 17.5912 0.0000
# 6 0.0000 0.0000 0.0000 0.0000 0.0000 37.3821
#
#
#
# Elastic Compliance Matrix: (Units=1/GPa)
#
#
# Indices 1 2 3 4 5 6 
#
# 1 0.009486 -0.001319 -0.004024 0.000000 0.000000 0.000000
# 2 -0.001319 0.012835 -0.005506 0.000000 0.000000 0.000000
# 3 -0.004024 -0.005506 0.012507 0.000000 0.000000 0.000000
# 4 0.000000 0.000000 0.000000 0.017918 0.000000 0.000000
# 5 0.000000 0.000000 0.000000 0.000000 0.056847 0.000000
# 6 0.000000 0.000000 0.000000 0.000000 0.000000 0.026751
#
#
# Mechanical properties :
#
#
# Convention : Reuss Voigt Hill
#
# Bulk Modulus (GPa) = 76.16688 77.76879 76.96783
# Shear Modulus (GPa) = 30.78477 36.06307 33.42392
#
# Velocity S-wave (km/s) = 3.89996 4.22108 4.06369
# Velocity P-wave (km/s) = 7.60992 7.88540 7.74888
#
# Compressibility (1/GPa) = 0.01312907
#
# Stress axis : x y z
#
# Youngs Moduli (GPa) = 105.41568 77.91137 79.95792
#
# Poissons Ratio (x) = 0.10280 0.32176
# Poissons Ratio (y) = 0.13909 0.44023
# Poissons Ratio (z) = 0.42421 0.42896
#
# Static dielectric constant tensor:
#      x y z
#    x 3.819700 0.000000 0.000000 
#    y 0.000000 4.194060 0.000000 
#    z 0.000000 0.000000 4.257310 
# 
# 
# High freq. dielectric constant tensor:
#      x y z
#    x 1.778880 0.000000 0.000000 
#    y 0.000000 1.814970 0.000000 
#    z 0.000000 0.000000 1.800410 
# 
# From -- ./inp_files/34030.got.cif
#   From: 2010.03.12/outbox.cif.g09.slc.cpg/sg68_18_cif.got.tgz:34030.got - 2010.04.10 23:14:56.
