data_PCOD8282562
_publ_section_title
;
Structure prediction by ZEFSAII (Michael W. Deem and Ramdas Pophale) SiO2 
 PCOD8282562
Probable space group: C C C A
;
_chemical_formula_sum "Si O2"
_cell_formula_units_Z 88
_cell_length_a 12.063561
_cell_length_b 11.312661
_cell_length_c 29.918750
_cell_angle_alpha 90.000000
_cell_angle_beta 90.000000
_cell_angle_gamma 90.000000
_cell_volume 4083.041015
_symmetry_space_group_name_H-M "C C C A"
_symmetry_group_IT_number 68
_space_group.IT_coordinate_system_code '2'
_symmetry_cell_setting 'orthorhombic'
loop_
_space_group_symop_operation_xyz
x,y,z
-x,1/2-y,z
x,1/2-y,1/2-z
-x,y,1/2-z
-x,-y,-z
x,1/2+y,-z
-x,1/2+y,1/2+z
x,-y,1/2+z
1/2+x,1/2+y,z
1/2-x,-y,z
1/2+x,-y,1/2-z
1/2-x,1/2+y,1/2-z
1/2-x,1/2-y,-z
1/2+x,y,-z
1/2-x,y,1/2+z
1/2+x,1/2-y,1/2+z
loop_
_atom_site_type_symbol
_atom_site_label
_atom_site_fract_x
_atom_site_fract_y
_atom_site_fract_z
Si Si1 0.345740 0.422766 0.167273
Si Si2 0.750000 0.000000 0.998163
Si Si3 0.601083 0.594774 0.574510
Si Si4 0.747838 0.811391 0.796422
Si Si5 0.147927 0.852523 0.429048
Si Si6 0.908936 0.003312 0.327180
O O1 0.250000 0.500000 0.190925
O O2 0.323530 0.285092 0.176265
O O3 0.333415 0.434780 0.114085
O O4 0.462288 0.477956 0.184334
O O5 0.854748 0.018345 0.966458
O O6 0.727213 0.111704 0.030125
O O7 0.479214 0.627008 0.558618
O O8 0.671794 0.714902 0.580872
O O9 0.612577 0.523431 0.620758
O O10 0.778953 0.750000 0.750000
O O11 0.661426 0.919836 0.793719
O O12 0.863822 0.861952 0.818119
#
# Coordination Sequence:
#
# PCOD8282562 Si02
#       6
#    16   8  16  16  16  16
#     4  11  23  42  67  93 135 175 212 276 336 394
#     4  12  20  34  60  92 124 164 216 278 324 380
#     4  10  21  38  61  85 126 172 214 265 323 397
#     4  11  24  43  70 101 126 163 224 275 332 406
#     4  10  21  38  57  89 125 165 218 266 323 389
#     4  10  23  45  69  96 128 180 225 262 338 413
#
# _framework density 21.552565000000001
#
# number of rings (size 3 to 8) (size 9 to 14) (size 15 to 20)
#    0.000    1.455    2.727    2.727    2.545    2.182 
#    0.000    0.909    0.000    0.000    0.000    0.000 
#    0.000    0.000    0.000    0.000    0.000    0.000 
#
# Total GULP energy -545169.907368 kJ/mol
# GULP energy per Si atom -12390.225167 kJ/mol
# Density = 2.150351 g / cm^3
# Si number density = 21.552565 Si / 1000 Ang^3
#
#
#
# Elastic Constant Matrix: (Units=GPa)
#
#
# Indices 1 2 3 4 5 6 
#
# 1 132.1041 59.8918 40.8964 0.0000 0.0000 0.0000
# 2 59.8918 73.0620 39.2104 0.0000 0.0000 0.0000
# 3 40.8964 39.2104 102.3000 0.0000 0.0000 0.0000
# 4 0.0000 0.0000 0.0000 34.4391 0.0000 0.0000
# 5 0.0000 0.0000 0.0000 0.0000 7.5530 0.0000
# 6 0.0000 0.0000 0.0000 0.0000 0.0000 45.4848
#
#
#
# Elastic Compliance Matrix: (Units=1/GPa)
#
#
# Indices 1 2 3 4 5 6 
#
# 1 0.012185 -0.009284 -0.001313 0.000000 0.000000 0.000000
# 2 -0.009284 0.024305 -0.005604 0.000000 0.000000 0.000000
# 3 -0.001313 -0.005604 0.012448 0.000000 0.000000 0.000000
# 4 0.000000 0.000000 0.000000 0.029037 0.000000 0.000000
# 5 0.000000 0.000000 0.000000 0.000000 0.132397 0.000000
# 6 0.000000 0.000000 0.000000 0.000000 0.000000 0.021985
#
#
# Mechanical properties :
#
#
# Convention : Reuss Voigt Hill
#
# Bulk Modulus (GPa) = 60.47438 65.27369 62.87403
# Shear Modulus (GPa) = 18.49979 28.65988 23.57983
#
# Velocity S-wave (km/s) = 2.93295 3.65055 3.31125
# Velocity P-wave (km/s) = 6.29202 6.93688 6.62230
#
# Compressibility (1/GPa) = 0.01653593
#
# Stress axis : x y z
#
# Youngs Moduli (GPa) = 82.06538 41.14306 80.33363
#
# Poissons Ratio (x) = 0.38198 0.10546
# Poissons Ratio (y) = 0.76192 0.45022
# Poissons Ratio (z) = 0.10773 0.23058
#
# Static dielectric constant tensor:
#      x y z
#    x 3.921150 0.000000 0.000000 
#    y 0.000000 4.001630 0.000000 
#    z 0.000000 0.000000 3.769900 
# 
# 
# High freq. dielectric constant tensor:
#      x y z
#    x 1.841220 0.000000 0.000000 
#    y 0.000000 1.842260 0.000000 
#    z 0.000000 0.000000 1.845570 
# 
# From -- ./inp_files/54620.got.cif
#   From: 2010.03.12/outbox.cif.g09.slc.cpg/sg68_28_cif.got.tgz:54620.got - 2010.04.10 23:14:56.
