data_PCOD8282921
_publ_section_title
;
Structure prediction by ZEFSAII (Michael W. Deem and Ramdas Pophale) SiO2 
 PCOD8282921
Probable space group: C C C A
;
_chemical_formula_sum "Si O2"
_cell_formula_units_Z 48
_cell_length_a 4.931499
_cell_length_b 33.422946
_cell_length_c 13.267743
_cell_angle_alpha 90.000000
_cell_angle_beta 90.000000
_cell_angle_gamma 90.000000
_cell_volume 2186.858722
_symmetry_space_group_name_H-M "C C C A"
_symmetry_group_IT_number 68
_space_group.IT_coordinate_system_code '2'
_symmetry_cell_setting 'orthorhombic'
loop_
_space_group_symop_operation_xyz
x,y,z
-x,1/2-y,z
x,1/2-y,1/2-z
-x,y,1/2-z
-x,-y,-z
x,1/2+y,-z
-x,1/2+y,1/2+z
x,-y,1/2+z
1/2+x,1/2+y,z
1/2-x,-y,z
1/2+x,-y,1/2-z
1/2-x,1/2+y,1/2-z
1/2-x,1/2-y,-z
1/2+x,y,-z
1/2-x,y,1/2+z
1/2+x,1/2-y,1/2+z
loop_
_atom_site_type_symbol
_atom_site_label
_atom_site_fract_x
_atom_site_fract_y
_atom_site_fract_z
Si Si1 0.488052 0.795804 0.434588
Si Si2 0.500000 0.404512 0.250000
Si Si3 0.269441 0.453159 0.436431
Si Si4 0.000000 0.351013 0.250000
O O1 0.500000 0.750000 0.397735
O O2 0.683850 0.804723 0.529117
O O3 0.584300 0.823630 0.343633
O O4 0.370317 0.431730 0.336535
O O5 0.253646 0.377185 0.211841
O O6 0.250000 0.500000 0.413244
O O7 0.468837 0.440750 0.528473
#
# Coordination Sequence:
#
# PCOD8282921 Si02
#       4
#    16   8  16   8
#     4  10  22  41  64  88 120 166 213 254 299 361
#     4  12  26  39  63  96 127 162 199 254 319 371
#     4  10  23  43  65  88 118 160 206 250 298 361
#     4  12  25  39  60  94 129 162 199 254 318 369
#
# _framework density 21.949290999999999
#
# number of rings (size 3 to 8) (size 9 to 14) (size 15 to 20)
#    0.000    1.333    0.000    4.500    0.000   13.333 
#    0.000    6.667    0.000    0.000    0.000    0.000 
#    0.000    0.000    0.000    0.000    0.000    0.000 
#
# Total GULP energy -297598.347835 kJ/mol
# GULP energy per Si atom -12399.931160 kJ/mol
# Density = 2.189933 g / cm^3
# Si number density = 21.949291 Si / 1000 Ang^3
#
#
#
# Elastic Constant Matrix: (Units=GPa)
#
#
# Indices 1 2 3 4 5 6 
#
# 1 117.4386 50.9143 19.4511 0.0000 0.0000 0.0000
# 2 50.9143 98.5490 71.8106 0.0000 0.0000 0.0000
# 3 19.4511 71.8106 106.5884 0.0000 0.0000 0.0000
# 4 0.0000 0.0000 0.0000 32.6292 0.0000 0.0000
# 5 0.0000 0.0000 0.0000 0.0000 34.8465 0.0000
# 6 0.0000 0.0000 0.0000 0.0000 0.0000 34.0487
#
#
#
# Elastic Compliance Matrix: (Units=1/GPa)
#
#
# Indices 1 2 3 4 5 6 
#
# 1 0.011710 -0.008826 0.003809 0.000000 0.000000 0.000000
# 2 -0.008826 0.026584 -0.016300 0.000000 0.000000 0.000000
# 3 0.003809 -0.016300 0.019668 0.000000 0.000000 0.000000
# 4 0.000000 0.000000 0.000000 0.030647 0.000000 0.000000
# 5 0.000000 0.000000 0.000000 0.000000 0.028697 0.000000
# 6 0.000000 0.000000 0.000000 0.000000 0.000000 0.029370
#
#
# Mechanical properties :
#
#
# Convention : Reuss Voigt Hill
#
# Bulk Modulus (GPa) = 65.23088 67.43644 66.33366
# Shear Modulus (GPa) = 25.71757 32.33155 29.02456
#
# Velocity S-wave (km/s) = 3.42670 3.84215 3.64035
# Velocity P-wave (km/s) = 6.74090 7.10445 6.92506
#
# Compressibility (1/GPa) = 0.01533016
#
# Stress axis : x y z
#
# Youngs Moduli (GPa) = 85.39381 37.61654 50.84362
#
# Poissons Ratio (x) = 0.33199 -0.19366
# Poissons Ratio (y) = 0.75365 0.82873
# Poissons Ratio (z) = -0.32526 0.61313
#
# Static dielectric constant tensor:
#      x y z
#    x 4.478020 0.000000 0.000000 
#    y 0.000000 4.083390 0.000000 
#    z 0.000000 0.000000 3.591750 
# 
# 
# High freq. dielectric constant tensor:
#      x y z
#    x 1.883310 0.000000 0.000000 
#    y 0.000000 1.869670 0.000000 
#    z 0.000000 0.000000 1.852700 
# 
# From -- ./inp_files/18293.got.cif
#   From: 2010.03.12/outbox.cif.g09.slc.cpg/sg68_10_cif.got.tgz:18293.got - 2010.04.10 23:14:56.
