data_PCOD8282473
_publ_section_title
;
Structure prediction by ZEFSAII (Michael W. Deem and Ramdas Pophale) SiO2 
 PCOD8282473
Probable space group: C C C A
;
_chemical_formula_sum "Si O2"
_cell_formula_units_Z 52
_cell_length_a 5.099650
_cell_length_b 13.765365
_cell_length_c 29.036856
_cell_angle_alpha 90.000000
_cell_angle_beta 90.000000
_cell_angle_gamma 90.000000
_cell_volume 2038.345003
_symmetry_space_group_name_H-M "C C C A"
_symmetry_group_IT_number 68
_space_group.IT_coordinate_system_code '2'
_symmetry_cell_setting 'orthorhombic'
loop_
_space_group_symop_operation_xyz
x,y,z
-x,1/2-y,z
x,1/2-y,1/2-z
-x,y,1/2-z
-x,-y,-z
x,1/2+y,-z
-x,1/2+y,1/2+z
x,-y,1/2+z
1/2+x,1/2+y,z
1/2-x,-y,z
1/2+x,-y,1/2-z
1/2-x,1/2+y,1/2-z
1/2-x,1/2-y,-z
1/2+x,y,-z
1/2-x,y,1/2+z
1/2+x,1/2-y,1/2+z
loop_
_atom_site_type_symbol
_atom_site_label
_atom_site_fract_x
_atom_site_fract_y
_atom_site_fract_z
Si Si1 0.410751 0.354795 0.519739
Si Si2 0.000000 0.750000 0.250000
Si Si3 0.251850 0.112970 0.379939
Si Si4 0.752803 0.885520 0.822715
O O1 0.500000 0.250000 0.498153
O O2 0.686906 0.410758 0.510642
O O3 0.323596 0.337788 0.572203
O O4 0.191383 0.820769 0.221549
O O5 0.539942 0.142180 0.362065
O O6 0.040259 0.143080 0.341148
O O7 0.250000 0.000000 0.390150
O O8 0.750000 0.000000 0.809683
#
# Coordination Sequence:
#
# PCOD8282473 Si02
#       4
#    16   4  16  16
#     4  10  21  35  57  92 129 171 221 276 324 392
#     4  12  28  46  80 104 128 198 224 286 380 420
#     4  10  22  42  64  91 135 177 216 282 341 397
#     4  10  25  44  66 102 136 171 230 287 340 421
#
# _framework density 25.510888999999999
#
# number of rings (size 3 to 8) (size 9 to 14) (size 15 to 20)
#    0.000    1.846    0.000    1.846    4.308    7.385 
#    0.000    0.000    0.000    0.000    0.000    0.000 
#    0.000    0.000    0.000    0.000    0.000    0.000 
#
# Total GULP energy -322238.001946 kJ/mol
# GULP energy per Si atom -12393.769306 kJ/mol
# Density = 2.545283 g / cm^3
# Si number density = 25.510889 Si / 1000 Ang^3
#
#
#
# Elastic Constant Matrix: (Units=GPa)
#
#
# Indices 1 2 3 4 5 6 
#
# 1 183.5409 22.0502 43.5672 0.0000 0.0000 0.0000
# 2 22.0502 68.1115 44.1906 0.0000 0.0000 0.0000
# 3 43.5672 44.1906 137.8393 0.0000 0.0000 0.0000
# 4 0.0000 0.0000 0.0000 113.8194 0.0000 0.0000
# 5 0.0000 0.0000 0.0000 0.0000 31.3984 0.0000
# 6 0.0000 0.0000 0.0000 0.0000 0.0000 20.2049
#
#
#
# Elastic Compliance Matrix: (Units=1/GPa)
#
#
# Indices 1 2 3 4 5 6 
#
# 1 0.005933 -0.000889 -0.001590 0.000000 0.000000 0.000000
# 2 -0.000889 0.018671 -0.005705 0.000000 0.000000 0.000000
# 3 -0.001590 -0.005705 0.009586 0.000000 0.000000 0.000000
# 4 0.000000 0.000000 0.000000 0.008786 0.000000 0.000000
# 5 0.000000 0.000000 0.000000 0.000000 0.031849 0.000000
# 6 0.000000 0.000000 0.000000 0.000000 0.000000 0.049493
#
#
# Mechanical properties :
#
#
# Convention : Reuss Voigt Hill
#
# Bulk Modulus (GPa) = 56.11025 67.67863 61.89444
# Shear Modulus (GPa) = 34.10041 51.73014 42.91527
#
# Velocity S-wave (km/s) = 3.66006 4.50796 4.10595
# Velocity P-wave (km/s) = 6.31694 7.32683 6.84055
#
# Compressibility (1/GPa) = 0.01782206
#
# Stress axis : x y z
#
# Youngs Moduli (GPa) = 168.55947 53.55945 104.31479
#
# Poissons Ratio (x) = 0.04761 0.16588
# Poissons Ratio (y) = 0.14983 0.59510
# Poissons Ratio (z) = 0.26804 0.30555
#
# Static dielectric constant tensor:
#      x y z
#    x 5.551660 0.000000 0.000000 
#    y 0.000000 4.641250 0.000000 
#    z 0.000000 0.000000 4.209560 
# 
# 
# High freq. dielectric constant tensor:
#      x y z
#    x 2.048740 0.000000 0.000000 
#    y 0.000000 2.023550 0.000000 
#    z 0.000000 0.000000 1.999910 
# 
# From -- ./inp_files/47921.got.cif
#   From: 2010.03.12/outbox.cif.g09.slc.cpg/sg68_24_cif.got.tgz:47921.got - 2010.04.10 23:14:56.
