data_PCOD8282984
_publ_section_title
;
Structure prediction by ZEFSAII (Michael W. Deem and Ramdas Pophale) SiO2 
 PCOD8282984
Probable space group: C C C A
;
_chemical_formula_sum "Si O2"
_cell_formula_units_Z 116
_cell_length_a 24.059309
_cell_length_b 18.710789
_cell_length_c 12.320250
_cell_angle_alpha 90.000000
_cell_angle_beta 90.000000
_cell_angle_gamma 90.000000
_cell_volume 5546.190362
_symmetry_space_group_name_H-M "C C C A"
_symmetry_group_IT_number 68
_space_group.IT_coordinate_system_code '2'
_symmetry_cell_setting 'orthorhombic'
loop_
_space_group_symop_operation_xyz
x,y,z
-x,1/2-y,z
x,1/2-y,1/2-z
-x,y,1/2-z
-x,-y,-z
x,1/2+y,-z
-x,1/2+y,1/2+z
x,-y,1/2+z
1/2+x,1/2+y,z
1/2-x,-y,z
1/2+x,-y,1/2-z
1/2-x,1/2+y,1/2-z
1/2-x,1/2-y,-z
1/2+x,y,-z
1/2-x,y,1/2+z
1/2+x,1/2-y,1/2+z
loop_
_atom_site_type_symbol
_atom_site_label
_atom_site_fract_x
_atom_site_fract_y
_atom_site_fract_z
Si Si1 0.103577 0.020894 0.744578
Si Si2 0.737994 0.798787 0.648006
Si Si3 0.156320 0.755626 0.963649
Si Si4 0.799434 0.947133 0.100237
Si Si5 0.027743 0.939897 0.430626
Si Si6 0.000000 0.250000 0.750000
Si Si7 0.426285 0.652198 0.893903
Si Si8 0.875146 0.397786 0.076520
O O1 0.153019 0.014602 0.830230
O O2 0.045075 0.031087 0.810243
O O3 0.109848 0.089090 0.663908
O O4 0.105036 0.945791 0.678497
O O5 0.725307 0.750000 0.750000
O O6 0.803493 0.797645 0.618745
O O7 0.696092 0.771777 0.557514
O O8 0.722368 0.880513 0.671511
O O9 0.130083 0.687322 0.898509
O O10 0.109835 0.808880 0.012544
O O11 0.750000 0.000000 0.079306
O O12 0.818094 0.926184 0.977637
O O13 0.081614 0.903849 0.479441
O O14 0.981664 0.880142 0.442462
O O15 0.000000 0.000000 0.500000
O O16 0.952577 0.207218 0.811483
#
# Coordination Sequence:
#
# PCOD8282984 Si02
#       8
#    16  16  16  16  16   4  16  16
#     4  11  23  40  65  96 128 173 219 271 331 400
#     4  10  22  43  65  89 132 169 214 267 335 396
#     4  10  24  40  65  96 128 173 211 273 334 393
#     4  10  24  39  62  94 125 166 221 269 318 390
#     4  11  22  41  64  96 130 168 216 274 329 392
#     4  12  24  36  72 100 126 152 230 268 332 390
#     4  12  23  40  67  97 127 165 216 277 331 386
#     4  10  23  42  62  93 133 166 217 268 335 402
#
# _framework density 20.915258000000001
#
# number of rings (size 3 to 8) (size 9 to 14) (size 15 to 20)
#    0.000    1.379    2.759    1.655    8.690    0.552 
#    0.000    0.000    0.000    0.000    0.000    0.000 
#    0.000    0.000    0.000    0.000    0.000    0.000 
#
# Total GULP energy -718545.363005 kJ/mol
# GULP energy per Si atom -12388.713155 kJ/mol
# Density = 2.086765 g / cm^3
# Si number density = 20.915258 Si / 1000 Ang^3
#
#
#
# Elastic Constant Matrix: (Units=GPa)
#
#
# Indices 1 2 3 4 5 6 
#
# 1 104.9710 45.9659 20.3267 0.0000 0.0000 0.0000
# 2 45.9659 114.7725 38.8091 0.0000 0.0000 0.0000
# 3 20.3267 38.8091 52.5271 0.0000 0.0000 0.0000
# 4 0.0000 0.0000 0.0000 47.7646 0.0000 0.0000
# 5 0.0000 0.0000 0.0000 0.0000 30.8434 0.0000
# 6 0.0000 0.0000 0.0000 0.0000 0.0000 -0.1371
#
#
#
# Elastic Compliance Matrix: (Units=1/GPa)
#
#
# Indices 1 2 3 4 5 6 
#
# 1 0.011630 -0.004181 -0.001412 0.000000 0.000000 0.000000
# 2 -0.004181 0.013117 -0.008074 0.000000 0.000000 0.000000
# 3 -0.001412 -0.008074 0.025549 0.000000 0.000000 0.000000
# 4 0.000000 0.000000 0.000000 0.020936 0.000000 0.000000
# 5 0.000000 0.000000 0.000000 0.000000 0.032422 0.000000
# 6 0.000000 0.000000 0.000000 0.000000 0.000000 -7.292233
#
#
# Mechanical properties :
#
#
# Convention : Reuss Voigt Hill
#
# Bulk Modulus (GPa) = 43.54529 53.60821 48.57675
# Shear Modulus (GPa) = -0.69895 26.83878 13.06991
#
# Velocity S-wave (km/s) = -0.57871 3.58609 2.50251
# Velocity P-wave (km/s) = 4.51869 6.54473 5.62370
#
# Compressibility (1/GPa) = 0.02296460
#
# Stress axis : x y z
#
# Youngs Moduli (GPa) = 85.98104 76.23561 39.13983
#
# Poissons Ratio (x) = 0.31870 0.05526
# Poissons Ratio (y) = 0.35944 0.31601
# Poissons Ratio (z) = 0.12140 0.61551
#
# Static dielectric constant tensor:
#      x y z
#    x 4.081930 0.000000 0.000000 
#    y 0.000000 3.926140 0.000000 
#    z 0.000000 0.000000 -2.026570 
# 
# 
# High freq. dielectric constant tensor:
#      x y z
#    x 1.832070 0.000000 0.000000 
#    y 0.000000 1.826730 0.000000 
#    z 0.000000 0.000000 1.801950 
# 
# From -- ./inp_files/17246.got.cif
#   From: 2010.03.12/outbox.cif.g09.slc.cpg/sg68_9_cif.got.tgz:17246.got - 2010.04.10 23:14:56.
