data_PCOD8282229
_publ_section_title
;
Structure prediction by ZEFSAII (Michael W. Deem and Ramdas Pophale) SiO2 
 PCOD8282229
Probable space group: C C C A
;
_chemical_formula_sum "Si O2"
_cell_formula_units_Z 84
_cell_length_a 8.882836
_cell_length_b 21.281732
_cell_length_c 20.588776
_cell_angle_alpha 90.000000
_cell_angle_beta 90.000000
_cell_angle_gamma 90.000000
_cell_volume 3892.146175
_symmetry_space_group_name_H-M "C C C A"
_symmetry_group_IT_number 68
_space_group.IT_coordinate_system_code '2'
_symmetry_cell_setting 'orthorhombic'
loop_
_space_group_symop_operation_xyz
x,y,z
-x,1/2-y,z
x,1/2-y,1/2-z
-x,y,1/2-z
-x,-y,-z
x,1/2+y,-z
-x,1/2+y,1/2+z
x,-y,1/2+z
1/2+x,1/2+y,z
1/2-x,-y,z
1/2+x,-y,1/2-z
1/2-x,1/2+y,1/2-z
1/2-x,1/2-y,-z
1/2+x,y,-z
1/2-x,y,1/2+z
1/2+x,1/2-y,1/2+z
loop_
_atom_site_type_symbol
_atom_site_label
_atom_site_fract_x
_atom_site_fract_y
_atom_site_fract_z
Si Si1 0.012507 0.675484 0.532419
Si Si2 0.500000 0.047393 0.750000
Si Si3 0.013288 0.823326 0.179668
Si Si4 0.750000 0.500000 0.846787
Si Si5 0.154930 0.649957 0.835692
Si Si6 0.181756 0.876530 0.423955
Si Si7 0.000000 0.750000 0.750000
O O1 0.186908 0.661477 0.541178
O O2 0.000000 0.750000 0.516661
O O3 0.929322 0.652975 0.596680
O O4 0.956558 0.630147 0.474330
O O5 0.396363 0.007145 0.799865
O O6 0.610624 0.088308 0.795110
O O7 0.167988 0.848340 0.148066
O O8 0.000000 0.750000 0.184833
O O9 0.000000 0.855169 0.250000
O O10 0.864974 0.842362 0.141597
O O11 0.773098 0.445279 0.899775
O O12 0.112742 0.710345 0.793718
#
# Coordination Sequence:
#
# PCOD8282229 Si02
#       7
#    16   8  16   8  16  16   4
#     4  12  24  46  75 105 150 190 241 301 373 448
#     4  11  26  47  72 102 139 194 247 310 368 422
#     4  11  23  38  67 105 143 181 234 303 370 436
#     4  12  28  50  72 104 144 192 254 310 360 440
#     4  11  22  41  69 107 142 192 235 298 374 432
#     4  12  27  47  68 107 141 197 246 296 362 441
#     4  10  20  36  70 104 152 172 238 296 366 444
#
# _framework density 21.581923
#
# number of rings (size 3 to 8) (size 9 to 14) (size 15 to 20)
#    0.000    0.571    2.857    5.714    6.667    0.762 
#    0.000    0.000    0.000    0.000    0.000    0.000 
#    0.000    0.000    0.000    0.000    0.000    0.000 
#
# Total GULP energy -520679.168009 kJ/mol
# GULP energy per Si atom -12397.123048 kJ/mol
# Density = 2.153280 g / cm^3
# Si number density = 21.581923 Si / 1000 Ang^3
#
#
#
# Elastic Constant Matrix: (Units=GPa)
#
#
# Indices 1 2 3 4 5 6 
#
# 1 126.4881 36.9144 32.0784 0.0000 0.0000 0.0000
# 2 36.9144 95.8103 41.9649 0.0000 0.0000 0.0000
# 3 32.0784 41.9649 123.9877 0.0000 0.0000 0.0000
# 4 0.0000 0.0000 0.0000 54.2466 0.0000 0.0000
# 5 0.0000 0.0000 0.0000 0.0000 -122.4560 0.0000
# 6 0.0000 0.0000 0.0000 0.0000 0.0000 24.8283
#
#
#
# Elastic Compliance Matrix: (Units=1/GPa)
#
#
# Indices 1 2 3 4 5 6 
#
# 1 0.009102 -0.002906 -0.001371 0.000000 0.000000 0.000000
# 2 -0.002906 0.013182 -0.003710 0.000000 0.000000 0.000000
# 3 -0.001371 -0.003710 0.009676 0.000000 0.000000 0.000000
# 4 0.000000 0.000000 0.000000 0.018434 0.000000 0.000000
# 5 0.000000 0.000000 0.000000 0.000000 -0.008166 0.000000
# 6 0.000000 0.000000 0.000000 0.000000 0.000000 0.040277
#
#
# Mechanical properties :
#
#
# Convention : Reuss Voigt Hill
#
# Bulk Modulus (GPa) = 62.55791 63.13349 62.84570
# Shear Modulus (GPa) = 48.16659 7.01235 27.58947
#
# Velocity S-wave (km/s) = 4.72932 1.80450 3.57930
# Velocity P-wave (km/s) = 7.67275 5.80156 6.80181
#
# Compressibility (1/GPa) = 0.01598519
#
# Stress axis : x y z
#
# Youngs Moduli (GPa) = 109.86865 75.86197 103.35235
#
# Poissons Ratio (x) = 0.22047 0.14172
# Poissons Ratio (y) = 0.31930 0.38340
# Poissons Ratio (z) = 0.15065 0.28142
#
# Static dielectric constant tensor:
#      x y z
#    x 5.776140 0.000000 0.000000 
#    y 0.000000 3.787700 0.000000 
#    z 0.000000 0.000000 4.224730 
# 
# 
# High freq. dielectric constant tensor:
#      x y z
#    x 1.863200 0.000000 0.000000 
#    y 0.000000 1.834280 0.000000 
#    z 0.000000 0.000000 1.865630 
# 
# From -- ./inp_files/43091.got.cif
#   From: 2010.03.12/outbox.cif.g09.slc.cpg/sg68_22_cif.got.tgz:43091.got - 2010.04.10 23:14:56.
