data_PCOD8282219
_publ_section_title
;
Structure prediction by ZEFSAII (Michael W. Deem and Ramdas Pophale) SiO2 
 PCOD8282219
Probable space group: C C C A
;
_chemical_formula_sum "Si O2"
_cell_formula_units_Z 68
_cell_length_a 28.089462
_cell_length_b 7.649763
_cell_length_c 15.169185
_cell_angle_alpha 90.000000
_cell_angle_beta 90.000000
_cell_angle_gamma 90.000000
_cell_volume 3259.519995
_symmetry_space_group_name_H-M "C C C A"
_symmetry_group_IT_number 68
_space_group.IT_coordinate_system_code '2'
_symmetry_cell_setting 'orthorhombic'
loop_
_space_group_symop_operation_xyz
x,y,z
-x,1/2-y,z
x,1/2-y,1/2-z
-x,y,1/2-z
-x,-y,-z
x,1/2+y,-z
-x,1/2+y,1/2+z
x,-y,1/2+z
1/2+x,1/2+y,z
1/2-x,-y,z
1/2+x,-y,1/2-z
1/2-x,1/2+y,1/2-z
1/2-x,1/2-y,-z
1/2+x,y,-z
1/2-x,y,1/2+z
1/2+x,1/2-y,1/2+z
loop_
_atom_site_type_symbol
_atom_site_label
_atom_site_fract_x
_atom_site_fract_y
_atom_site_fract_z
Si Si1 0.554949 0.450114 0.605708
Si Si2 0.315379 0.250000 0.250000
Si Si3 0.500000 0.750000 0.250000
Si Si4 0.243693 0.293496 0.102147
Si Si5 0.000000 0.250000 0.541101
Si Si6 0.150739 0.893857 0.684731
O O1 0.534432 0.366754 0.692764
O O2 0.535900 0.646996 0.604394
O O3 0.535970 0.363839 0.516766
O O4 0.612413 0.439952 0.608609
O O5 0.285797 0.216201 0.160643
O O6 0.343715 0.433142 0.252734
O O7 0.250000 0.500000 0.117498
O O8 0.196390 0.198166 0.138665
O O9 0.250000 0.250000 0.000000
O O10 0.128835 0.750000 0.750000
#
# Coordination Sequence:
#
# PCOD8282219 Si02
#       6
#    16   8   4  16   8  16
#     4  10  22  42  66  98 128 181 219 287 348 424
#     4  12  24  45  66  99 140 189 224 293 356 404
#     4  10  20  36  64  90 128 164 224 264 360 410
#     4  12  24  43  68  97 139 187 233 287 355 411
#     4   9  22  44  66  91 144 168 222 291 360 414
#     4  12  24  44  69  98 139 176 237 294 336 423
#
# _framework density 20.861968999999998
#
# number of rings (size 3 to 8) (size 9 to 14) (size 15 to 20)
#    0.000    0.941    4.706    2.118    0.000    6.118 
#    4.235    0.000    0.000    0.000    0.000    0.000 
#    0.000    0.000    0.000    0.000    0.000    0.000 
#
# Total GULP energy -421202.357558 kJ/mol
# GULP energy per Si atom -12388.304634 kJ/mol
# Density = 2.081449 g / cm^3
# Si number density = 20.861969 Si / 1000 Ang^3
#
#
#
# Elastic Constant Matrix: (Units=GPa)
#
#
# Indices 1 2 3 4 5 6 
#
# 1 127.8028 63.0517 32.8358 0.0000 0.0000 0.0000
# 2 63.0517 157.6237 37.2701 0.0000 0.0000 0.0000
# 3 32.8358 37.2701 99.3057 0.0000 0.0000 0.0000
# 4 0.0000 0.0000 0.0000 42.3289 0.0000 0.0000
# 5 0.0000 0.0000 0.0000 0.0000 43.5293 0.0000
# 6 0.0000 0.0000 0.0000 0.0000 0.0000 32.4208
#
#
#
# Elastic Compliance Matrix: (Units=1/GPa)
#
#
# Indices 1 2 3 4 5 6 
#
# 1 0.010098 -0.003566 -0.002000 0.000000 0.000000 0.000000
# 2 -0.003566 0.008222 -0.001906 0.000000 0.000000 0.000000
# 3 -0.002000 -0.001906 0.011447 0.000000 0.000000 0.000000
# 4 0.000000 0.000000 0.000000 0.023625 0.000000 0.000000
# 5 0.000000 0.000000 0.000000 0.000000 0.022973 0.000000
# 6 0.000000 0.000000 0.000000 0.000000 0.000000 0.030844
#
#
# Mechanical properties :
#
#
# Convention : Reuss Voigt Hill
#
# Bulk Modulus (GPa) = 67.47621 72.33860 69.90741
# Shear Modulus (GPa) = 39.34073 40.42744 39.88409
#
# Velocity S-wave (km/s) = 4.34725 4.40688 4.37717
# Velocity P-wave (km/s) = 7.59029 7.78744 7.68950
#
# Compressibility (1/GPa) = 0.01482004
#
# Stress axis : x y z
#
# Youngs Moduli (GPa) = 99.02978 121.63134 87.36026
#
# Poissons Ratio (x) = 0.43378 0.17476
# Poissons Ratio (y) = 0.35317 0.16654
# Poissons Ratio (z) = 0.19811 0.23188
#
# Static dielectric constant tensor:
#      x y z
#    x 3.753910 0.000000 0.000000 
#    y 0.000000 9.149850 0.000000 
#    z 0.000000 0.000000 3.845480 
# 
# 
# High freq. dielectric constant tensor:
#      x y z
#    x 1.811800 0.000000 0.000000 
#    y 0.000000 1.839930 0.000000 
#    z 0.000000 0.000000 1.815070 
# 
# From -- ./inp_files/25798.got.cif
#   From: 2010.03.12/outbox.cif.g09.slc.cpg/sg68_13_cif.got.tgz:25798.got - 2010.04.10 23:14:56.
