data_PCOD8282967
_publ_section_title
;
Structure prediction by ZEFSAII (Michael W. Deem and Ramdas Pophale) SiO2 
 PCOD8282967
Probable space group: C C C A
;
_chemical_formula_sum "Si O2"
_cell_formula_units_Z 120
_cell_length_a 24.220000
_cell_length_b 10.365468
_cell_length_c 19.982033
_cell_angle_alpha 90.000000
_cell_angle_beta 90.000000
_cell_angle_gamma 90.000000
_cell_volume 5016.522054
_symmetry_space_group_name_H-M "C C C A"
_symmetry_group_IT_number 68
_space_group.IT_coordinate_system_code '2'
_symmetry_cell_setting 'orthorhombic'
loop_
_space_group_symop_operation_xyz
x,y,z
-x,1/2-y,z
x,1/2-y,1/2-z
-x,y,1/2-z
-x,-y,-z
x,1/2+y,-z
-x,1/2+y,1/2+z
x,-y,1/2+z
1/2+x,1/2+y,z
1/2-x,-y,z
1/2+x,-y,1/2-z
1/2-x,1/2+y,1/2-z
1/2-x,1/2-y,-z
1/2+x,y,-z
1/2-x,y,1/2+z
1/2+x,1/2-y,1/2+z
loop_
_atom_site_type_symbol
_atom_site_label
_atom_site_fract_x
_atom_site_fract_y
_atom_site_fract_z
Si Si1 0.979799 0.601948 0.181457
Si Si2 0.649383 0.434287 0.185271
Si Si3 0.500000 0.250000 0.956421
Si Si4 0.183051 0.721875 0.821574
Si Si5 0.356563 0.768643 0.923384
Si Si6 0.045270 0.429146 0.559483
Si Si7 0.711854 0.121873 0.179755
Si Si8 0.115970 0.668664 0.562202
O O1 0.915841 0.574063 0.181630
O O2 0.000000 0.750000 0.177066
O O3 0.000000 0.538431 0.250000
O O4 0.007670 0.521243 0.120572
O O5 0.673500 0.572066 0.163001
O O6 0.667559 0.340303 0.125773
O O7 0.669162 0.381779 0.257622
O O8 0.558269 0.257747 0.918085
O O9 0.495842 0.385034 0.999071
O O10 0.155006 0.750000 0.750000
O O11 0.248525 0.751261 0.818209
O O12 0.154803 0.820122 0.873780
O O13 0.422465 0.797131 0.917640
O O14 0.320656 0.887998 0.892116
O O15 0.348375 0.731431 0.001323
O O16 0.096527 0.524306 0.541828
O O17 0.750000 0.000000 0.188414
#
# Coordination Sequence:
#
# PCOD8282967 Si02
#       8
#    16  16   8  16  16  16  16  16
#     4  11  22  38  66 110 143 186 244 300 355 440
#     4  12  26  44  77 109 150 190 251 308 375 455
#     4  10  22  42  70 102 148 198 244 300 376 456
#     4  12  28  50  71 108 147 198 252 309 392 455
#     4  11  25  44  77 110 142 193 251 313 367 448
#     4  11  21  44  69 108 149 198 248 296 382 448
#     4  12  26  50  78 105 143 199 248 321 384 446
#     4  11  27  44  73 107 153 199 251 309 380 457
#
# _framework density 23.920956
#
# number of rings (size 3 to 8) (size 9 to 14) (size 15 to 20)
#    0.000    0.667    3.333    4.000    9.333    0.533 
#    0.000    0.333    0.000    0.000    0.000    0.000 
#    0.000    0.000    0.000    0.000    0.000    0.000 
#
# Total GULP energy -743391.638138 kJ/mol
# GULP energy per Si atom -12389.860636 kJ/mol
# Density = 2.386651 g / cm^3
# Si number density = 23.920956 Si / 1000 Ang^3
#
#
#
# Elastic Constant Matrix: (Units=GPa)
#
#
# Indices 1 2 3 4 5 6 
#
# 1 103.2270 18.0602 47.7794 0.0000 0.0000 0.0000
# 2 18.0602 57.9422 -11.0683 0.0000 0.0000 0.0000
# 3 47.7794 -11.0683 139.9243 0.0000 0.0000 0.0000
# 4 0.0000 0.0000 0.0000 23.9910 0.0000 0.0000
# 5 0.0000 0.0000 0.0000 0.0000 37.8467 0.0000
# 6 0.0000 0.0000 0.0000 0.0000 0.0000 40.3532
#
#
#
# Elastic Compliance Matrix: (Units=1/GPa)
#
#
# Indices 1 2 3 4 5 6 
#
# 1 0.012730 -0.004872 -0.004732 0.000000 0.000000 0.000000
# 2 -0.004872 0.019388 0.003197 0.000000 0.000000 0.000000
# 3 -0.004732 0.003197 0.009016 0.000000 0.000000 0.000000
# 4 0.000000 0.000000 0.000000 0.041682 0.000000 0.000000
# 5 0.000000 0.000000 0.000000 0.000000 0.026422 0.000000
# 6 0.000000 0.000000 0.000000 0.000000 0.000000 0.024781
#
#
# Mechanical properties :
#
#
# Convention : Reuss Voigt Hill
#
# Bulk Modulus (GPa) = 35.31123 45.62623 40.46873
# Shear Modulus (GPa) = 31.99529 36.85969 34.42749
#
# Velocity S-wave (km/s) = 3.66121 3.92968 3.79782
# Velocity P-wave (km/s) = 5.71544 6.30119 6.01545
#
# Compressibility (1/GPa) = 0.02831961
#
# Stress axis : x y z
#
# Youngs Moduli (GPa) = 78.55391 51.57873 110.91969
#
# Poissons Ratio (x) = 0.25128 0.52490
# Poissons Ratio (y) = 0.38270 -0.35463
# Poissons Ratio (z) = 0.37174 -0.16491
#
# Static dielectric constant tensor:
#      x y z
#    x 4.573910 0.000000 0.000000 
#    y 0.000000 4.598670 0.000000 
#    z 0.000000 0.000000 4.690940 
# 
# 
# High freq. dielectric constant tensor:
#      x y z
#    x 1.957880 0.000000 0.000000 
#    y 0.000000 1.953180 0.000000 
#    z 0.000000 0.000000 1.940020 
# 
# From -- ./inp_files/40951.got.cif
#   From: 2010.03.12/outbox.cif.g09.slc.cpg/sg68_21_cif.got.tgz:40951.got - 2010.04.10 23:14:56.
