data_PCOD8282087
_publ_section_title
;
Structure prediction by ZEFSAII (Michael W. Deem and Ramdas Pophale) SiO2 
 PCOD8282087
Probable space group: C C C A
;
_chemical_formula_sum "Si O2"
_cell_formula_units_Z 88
_cell_length_a 9.400654
_cell_length_b 17.893258
_cell_length_c 22.727135
_cell_angle_alpha 90.000000
_cell_angle_beta 90.000000
_cell_angle_gamma 90.000000
_cell_volume 3822.893365
_symmetry_space_group_name_H-M "C C C A"
_symmetry_group_IT_number 68
_space_group.IT_coordinate_system_code '2'
_symmetry_cell_setting 'orthorhombic'
loop_
_space_group_symop_operation_xyz
x,y,z
-x,1/2-y,z
x,1/2-y,1/2-z
-x,y,1/2-z
-x,-y,-z
x,1/2+y,-z
-x,1/2+y,1/2+z
x,-y,1/2+z
1/2+x,1/2+y,z
1/2-x,-y,z
1/2+x,-y,1/2-z
1/2-x,1/2+y,1/2-z
1/2-x,1/2-y,-z
1/2+x,y,-z
1/2-x,y,1/2+z
1/2+x,1/2-y,1/2+z
loop_
_atom_site_type_symbol
_atom_site_label
_atom_site_fract_x
_atom_site_fract_y
_atom_site_fract_z
Si Si1 0.750000 0.000000 0.551803
Si Si2 0.295520 0.297944 0.605718
Si Si3 0.466648 0.392181 0.113247
Si Si4 0.593401 0.359863 0.613066
Si Si5 0.196604 0.861780 0.016771
Si Si6 0.599137 0.994413 0.301914
O O1 0.626385 0.960402 0.588711
O O2 0.836749 0.940143 0.513981
O O3 0.146433 0.327897 0.631908
O O4 0.424755 0.352809 0.621785
O O5 0.324313 0.216250 0.633062
O O6 0.295559 0.296531 0.533449
O O7 0.576792 0.352550 0.067588
O O8 0.548213 0.426877 0.169382
O O9 0.645328 0.369625 0.545551
O O10 0.633877 0.432414 0.649142
O O11 0.500000 0.965334 0.250000
O O12 0.750000 0.000000 0.269513
#
# Coordination Sequence:
#
# PCOD8282087 Si02
#       6
#     8  16  16  16  16  16
#     4  10  20  32  60  94 138 180 212 266 336 408
#     4  10  23  38  66  97 143 184 210 258 342 428
#     4  11  22  40  63  98 135 173 226 281 331 405
#     4  11  23  43  62  99 140 178 226 274 332 412
#     4  11  19  36  60  99 142 181 224 261 332 410
#     4  12  27  47  73  96 125 173 238 303 351 390
#
# _framework density 23.019216
#
# number of rings (size 3 to 8) (size 9 to 14) (size 15 to 20)
#    0.000    1.091    1.818    6.545    3.818    2.182 
#    0.000    1.818    0.000    1.091    0.000    0.000 
#    0.000    0.000    0.000    0.000    0.000    0.000 
#
# Total GULP energy -545101.020335 kJ/mol
# GULP energy per Si atom -12388.659553 kJ/mol
# Density = 2.296682 g / cm^3
# Si number density = 23.019216 Si / 1000 Ang^3
#
#
#
# Elastic Constant Matrix: (Units=GPa)
#
#
# Indices 1 2 3 4 5 6 
#
# 1 134.3951 16.4709 23.3889 0.0000 0.0000 0.0000
# 2 16.4709 52.3064 9.3355 0.0000 0.0000 0.0000
# 3 23.3889 9.3355 55.2139 0.0000 0.0000 0.0000
# 4 0.0000 0.0000 0.0000 14.3652 0.0000 0.0000
# 5 0.0000 0.0000 0.0000 0.0000 30.9362 0.0000
# 6 0.0000 0.0000 0.0000 0.0000 0.0000 25.3493
#
#
#
# Elastic Compliance Matrix: (Units=1/GPa)
#
#
# Indices 1 2 3 4 5 6 
#
# 1 0.008237 -0.002032 -0.003146 0.000000 0.000000 0.000000
# 2 -0.002032 0.020214 -0.002557 0.000000 0.000000 0.000000
# 3 -0.003146 -0.002557 0.019876 0.000000 0.000000 0.000000
# 4 0.000000 0.000000 0.000000 0.069612 0.000000 0.000000
# 5 0.000000 0.000000 0.000000 0.000000 0.032325 0.000000
# 6 0.000000 0.000000 0.000000 0.000000 0.000000 0.039449
#
#
# Mechanical properties :
#
#
# Convention : Reuss Voigt Hill
#
# Bulk Modulus (GPa) = 30.43409 37.81180 34.12294
# Shear Modulus (GPa) = 23.13353 26.97816 25.05585
#
# Velocity S-wave (km/s) = 3.17356 3.42714 3.30278
# Velocity P-wave (km/s) = 5.16512 5.66765 5.42221
#
# Compressibility (1/GPa) = 0.03285789
#
# Stress axis : x y z
#
# Youngs Moduli (GPa) = 121.39920 49.46955 50.31129
#
# Poissons Ratio (x) = 0.10054 0.15827
# Poissons Ratio (y) = 0.24673 0.12864
# Poissons Ratio (z) = 0.38189 0.12649
#
# Static dielectric constant tensor:
#      x y z
#    x 4.496320 0.000000 0.000000 
#    y 0.000000 4.206290 0.000000 
#    z 0.000000 0.000000 3.620700 
# 
# 
# High freq. dielectric constant tensor:
#      x y z
#    x 1.937820 0.000000 0.000000 
#    y 0.000000 1.916610 0.000000 
#    z 0.000000 0.000000 1.851930 
# 
# From -- ./inp_files/43155.got.cif
#   From: 2010.03.12/outbox.cif.g09.slc.cpg/sg68_22_cif.got.tgz:43155.got - 2010.04.10 23:14:56.
