data_PCOD8282299
_publ_section_title
;
Structure prediction by ZEFSAII (Michael W. Deem and Ramdas Pophale) SiO2 
 PCOD8282299
Probable space group: C C C A
;
_chemical_formula_sum "Si O2"
_cell_formula_units_Z 104
_cell_length_a 20.670787
_cell_length_b 14.152754
_cell_length_c 16.116684
_cell_angle_alpha 90.000000
_cell_angle_beta 90.000000
_cell_angle_gamma 90.000000
_cell_volume 4714.912751
_symmetry_space_group_name_H-M "C C C A"
_symmetry_group_IT_number 68
_space_group.IT_coordinate_system_code '2'
_symmetry_cell_setting 'orthorhombic'
loop_
_space_group_symop_operation_xyz
x,y,z
-x,1/2-y,z
x,1/2-y,1/2-z
-x,y,1/2-z
-x,-y,-z
x,1/2+y,-z
-x,1/2+y,1/2+z
x,-y,1/2+z
1/2+x,1/2+y,z
1/2-x,-y,z
1/2+x,-y,1/2-z
1/2-x,1/2+y,1/2-z
1/2-x,1/2-y,-z
1/2+x,y,-z
1/2-x,y,1/2+z
1/2+x,1/2-y,1/2+z
loop_
_atom_site_type_symbol
_atom_site_label
_atom_site_fract_x
_atom_site_fract_y
_atom_site_fract_z
Si Si1 0.417864 0.400808 0.450122
Si Si2 0.598164 0.395785 0.594229
Si Si3 0.673759 0.294823 0.165658
Si Si4 0.206445 0.094737 0.222644
Si Si5 0.500000 0.250000 0.527044
Si Si6 0.307521 0.622038 0.552356
Si Si7 0.173915 0.579692 0.594991
O O1 0.441000 0.508359 0.430753
O O2 0.370683 0.377711 0.372399
O O3 0.475719 0.326965 0.459473
O O4 0.389053 0.391200 0.543854
O O5 0.634925 0.408113 0.681613
O O6 0.551295 0.304191 0.587284
O O7 0.658980 0.383758 0.535094
O O8 0.643831 0.250000 0.250000
O O9 0.747457 0.326134 0.182915
O O10 0.671200 0.216595 0.095490
O O11 0.186565 0.126696 0.315816
O O12 0.250000 0.000000 0.220432
O O13 0.231203 0.615059 0.533898
O O14 0.326524 0.533231 0.610608
#
# Coordination Sequence:
#
# PCOD8282299 Si02
#       7
#    16  16  16  16   8  16  16
#     4  11  25  44  69  92 132 182 232 282 344 401
#     4  11  25  42  70  94 132 185 230 278 344 403
#     4  12  22  38  67 104 137 167 216 283 353 420
#     4  12  22  39  65 105 140 168 212 280 357 421
#     4  12  26  48  66  90 130 186 250 288 315 405
#     4  10  20  38  62  95 133 168 208 268 348 412
#     4  10  21  40  63 100 138 168 207 274 354 423
#
# _framework density 22.057672
#
# number of rings (size 3 to 8) (size 9 to 14) (size 15 to 20)
#    0.000    0.923    6.154    1.385    4.308    1.231 
#    0.000    1.923    0.000    1.846    0.000    0.000 
#    0.000    0.000    0.000    0.000    0.000    0.000 
#
# Total GULP energy -644334.466689 kJ/mol
# GULP energy per Si atom -12391.047436 kJ/mol
# Density = 2.200747 g / cm^3
# Si number density = 22.057672 Si / 1000 Ang^3
#
#
#
# Elastic Constant Matrix: (Units=GPa)
#
#
# Indices 1 2 3 4 5 6 
#
# 1 68.8485 21.2418 25.4945 0.0000 0.0000 0.0000
# 2 21.2418 92.9074 16.3335 0.0000 0.0000 0.0000
# 3 25.4945 16.3335 73.1978 0.0000 0.0000 0.0000
# 4 0.0000 0.0000 0.0000 23.6155 0.0000 0.0000
# 5 0.0000 0.0000 0.0000 0.0000 13.5069 0.0000
# 6 0.0000 0.0000 0.0000 0.0000 0.0000 35.3474
#
#
#
# Elastic Compliance Matrix: (Units=1/GPa)
#
#
# Indices 1 2 3 4 5 6 
#
# 1 0.017465 -0.003043 -0.005404 0.000000 0.000000 0.000000
# 2 -0.003043 0.011733 -0.001558 0.000000 0.000000 0.000000
# 3 -0.005404 -0.001558 0.015891 0.000000 0.000000 0.000000
# 4 0.000000 0.000000 0.000000 0.042345 0.000000 0.000000
# 5 0.000000 0.000000 0.000000 0.000000 0.074036 0.000000
# 6 0.000000 0.000000 0.000000 0.000000 0.000000 0.028291
#
#
# Mechanical properties :
#
#
# Convention : Reuss Voigt Hill
#
# Bulk Modulus (GPa) = 39.87411 40.12146 39.99779
# Shear Modulus (GPa) = 22.92205 25.95290 24.43747
#
# Velocity S-wave (km/s) = 3.22714 3.43387 3.33211
# Velocity P-wave (km/s) = 5.65706 5.82673 5.74252
#
# Compressibility (1/GPa) = 0.02507893
#
# Stress axis : x y z
#
# Youngs Moduli (GPa) = 57.25895 85.22913 62.92690
#
# Poissons Ratio (x) = 0.25935 0.34004
# Poissons Ratio (y) = 0.17424 0.09806
# Poissons Ratio (z) = 0.30942 0.13281
#
# Static dielectric constant tensor:
#      x y z
#    x 3.762020 0.000000 0.000000 
#    y 0.000000 4.332870 0.000000 
#    z 0.000000 0.000000 4.003560 
# 
# 
# High freq. dielectric constant tensor:
#      x y z
#    x 1.837460 0.000000 0.000000 
#    y 0.000000 1.890540 0.000000 
#    z 0.000000 0.000000 1.858240 
# 
# From -- ./inp_files/33020.got.cif
#   From: 2010.03.12/outbox.cif.g09.slc.cpg/sg68_17_cif.got.tgz:33020.got - 2010.04.10 23:14:56.
