data_PCOD8282890
_publ_section_title
;
Structure prediction by ZEFSAII (Michael W. Deem and Ramdas Pophale) SiO2 
 PCOD8282890
Probable space group: C C C A
;
_chemical_formula_sum "Si O2"
_cell_formula_units_Z 56
_cell_length_a 16.298777
_cell_length_b 10.425960
_cell_length_c 16.157078
_cell_angle_alpha 90.000000
_cell_angle_beta 90.000000
_cell_angle_gamma 90.000000
_cell_volume 2745.578680
_symmetry_space_group_name_H-M "C C C A"
_symmetry_group_IT_number 68
_space_group.IT_coordinate_system_code '2'
_symmetry_cell_setting 'orthorhombic'
loop_
_space_group_symop_operation_xyz
x,y,z
-x,1/2-y,z
x,1/2-y,1/2-z
-x,y,1/2-z
-x,-y,-z
x,1/2+y,-z
-x,1/2+y,1/2+z
x,-y,1/2+z
1/2+x,1/2+y,z
1/2-x,-y,z
1/2+x,-y,1/2-z
1/2-x,1/2+y,1/2-z
1/2-x,1/2-y,-z
1/2+x,y,-z
1/2-x,y,1/2+z
1/2+x,1/2-y,1/2+z
loop_
_atom_site_type_symbol
_atom_site_label
_atom_site_fract_x
_atom_site_fract_y
_atom_site_fract_z
Si Si1 0.715491 0.129728 0.046998
Si Si2 0.250000 0.000000 0.795659
Si Si3 0.550417 0.120713 0.970702
Si Si4 0.911293 0.893642 0.782847
O O1 0.750000 0.000000 0.003482
O O2 0.739594 0.125815 0.144609
O O3 0.750000 0.250000 0.000000
O O4 0.618166 0.135898 0.041056
O O5 0.333754 0.018850 0.744173
O O6 0.500000 0.250000 0.966775
O O7 0.590514 0.098968 0.881488
O O8 0.500000 0.000000 0.000000
O O9 0.898663 0.750000 0.750000
O O10 0.000000 0.946137 0.750000
#
# Coordination Sequence:
#
# PCOD8282890 Si02
#       4
#    16   8  16  16
#     4  10  22  40  67  97 137 174 228 283 346 417
#     4  10  24  42  70 100 136 178 236 290 344 412
#     4  12  24  42  71 101 134 182 231 289 348 420
#     4  11  22  43  70  96 135 185 236 282 347 425
#
# _framework density 20.396428
#
# number of rings (size 3 to 8) (size 9 to 14) (size 15 to 20)
#    0.857    0.286    2.857    5.143    2.000    0.000 
#    5.143    0.000    0.000    0.000    0.000    0.000 
#    0.000    0.000    0.000    0.000    0.000    0.000 
#
# Total GULP energy -346984.281662 kJ/mol
# GULP energy per Si atom -12392.295774 kJ/mol
# Density = 2.035000 g / cm^3
# Si number density = 20.396428 Si / 1000 Ang^3
#
#
#
# Elastic Constant Matrix: (Units=GPa)
#
#
# Indices 1 2 3 4 5 6 
#
# 1 174.9434 56.2637 48.2405 0.0000 0.0000 0.0000
# 2 56.2637 129.7295 49.6320 0.0000 0.0000 0.0000
# 3 48.2405 49.6320 109.6870 0.0000 0.0000 0.0000
# 4 0.0000 0.0000 0.0000 2.4386 0.0000 0.0000
# 5 0.0000 0.0000 0.0000 0.0000 46.2534 0.0000
# 6 0.0000 0.0000 0.0000 0.0000 0.0000 38.6243
#
#
#
# Elastic Compliance Matrix: (Units=1/GPa)
#
#
# Indices 1 2 3 4 5 6 
#
# 1 0.007009 -0.002250 -0.002064 0.000000 0.000000 0.000000
# 2 -0.002250 0.010044 -0.003555 0.000000 0.000000 0.000000
# 3 -0.002064 -0.003555 0.011634 0.000000 0.000000 0.000000
# 4 0.000000 0.000000 0.000000 0.410068 0.000000 0.000000
# 5 0.000000 0.000000 0.000000 0.000000 0.021620 0.000000
# 6 0.000000 0.000000 0.000000 0.000000 0.000000 0.025890
#
#
# Mechanical properties :
#
#
# Convention : Reuss Voigt Hill
#
# Bulk Modulus (GPa) = 77.23654 80.29249 78.76451
# Shear Modulus (GPa) = 9.87517 34.81150 22.34334
#
# Velocity S-wave (km/s) = 2.20275 4.13576 3.31335
# Velocity P-wave (km/s) = 6.66479 7.89034 7.30331
#
# Compressibility (1/GPa) = 0.01294724
#
# Stress axis : x y z
#
# Youngs Moduli (GPa) = 142.67291 99.55795 85.95795
#
# Poissons Ratio (x) = 0.22400 0.17746
# Poissons Ratio (y) = 0.32101 0.30562
# Poissons Ratio (z) = 0.29455 0.35397
#
# Static dielectric constant tensor:
#      x y z
#    x 3.763570 0.000000 0.000000 
#    y 0.000000 3.003550 0.000000 
#    z 0.000000 0.000000 3.729270 
# 
# 
# High freq. dielectric constant tensor:
#      x y z
#    x 1.818560 0.000000 0.000000 
#    y 0.000000 1.782140 0.000000 
#    z 0.000000 0.000000 1.797290 
# 
# From -- ./inp_files/24085.got.cif
#   From: 2010.03.12/outbox.cif.g09.slc.cpg/sg68_13_cif.got.tgz:24085.got - 2010.04.10 23:14:56.
