data_PCOD8282256
_publ_section_title
;
Structure prediction by ZEFSAII (Michael W. Deem and Ramdas Pophale) SiO2 
 PCOD8282256
Probable space group: C C C A
;
_chemical_formula_sum "Si O2"
_cell_formula_units_Z 80
_cell_length_a 17.692642
_cell_length_b 14.886865
_cell_length_c 15.373176
_cell_angle_alpha 90.000000
_cell_angle_beta 90.000000
_cell_angle_gamma 90.000000
_cell_volume 4049.109664
_symmetry_space_group_name_H-M "C C C A"
_symmetry_group_IT_number 68
_space_group.IT_coordinate_system_code '2'
_symmetry_cell_setting 'orthorhombic'
loop_
_space_group_symop_operation_xyz
x,y,z
-x,1/2-y,z
x,1/2-y,1/2-z
-x,y,1/2-z
-x,-y,-z
x,1/2+y,-z
-x,1/2+y,1/2+z
x,-y,1/2+z
1/2+x,1/2+y,z
1/2-x,-y,z
1/2+x,-y,1/2-z
1/2-x,1/2+y,1/2-z
1/2-x,1/2-y,-z
1/2+x,y,-z
1/2-x,y,1/2+z
1/2+x,1/2-y,1/2+z
loop_
_atom_site_type_symbol
_atom_site_label
_atom_site_fract_x
_atom_site_fract_y
_atom_site_fract_z
Si Si1 0.917211 0.365833 0.278668
Si Si2 0.580101 0.212602 0.057063
Si Si3 0.921767 0.567276 0.296387
Si Si4 0.178125 0.677231 0.321780
Si Si5 0.342577 0.698955 0.376744
O O1 0.918335 0.462913 0.324404
O O2 0.870596 0.296249 0.339362
O O3 0.875688 0.377482 0.186105
O O4 0.000000 0.331051 0.250000
O O5 0.500000 0.250000 0.024076
O O6 0.579542 0.123198 0.114925
O O7 0.612519 0.294578 0.112646
O O8 0.630081 0.187494 0.974442
O O9 0.851703 0.589616 0.230863
O O10 0.000000 0.591516 0.250000
O O11 0.196258 0.750000 0.250000
O O12 0.254005 0.674352 0.378717
#
# Coordination Sequence:
#
# PCOD8282256 Si02
#       5
#    16  16  16  16  16
#     4  10  21  40  62  85 125 166 207 244 306 369
#     4  11  21  37  65  92 120 156 212 251 301 362
#     4  10  21  40  64  92 120 161 205 255 301 363
#     4  10  20  37  62  86 124 159 198 246 308 362
#     4  11  21  40  60  90 122 167 198 252 311 366
#
# _framework density 19.757429999999999
#
# number of rings (size 3 to 8) (size 9 to 14) (size 15 to 20)
#    0.000    1.600    4.000    3.000    0.000    0.800 
#    3.600    3.000    4.400    0.000    0.000    0.000 
#    0.000    0.000    0.000    0.000    0.000    0.000 
#
# Total GULP energy -495590.639673 kJ/mol
# GULP energy per Si atom -12389.765992 kJ/mol
# Density = 1.971246 g / cm^3
# Si number density = 19.757430 Si / 1000 Ang^3
#
#
#
# Elastic Constant Matrix: (Units=GPa)
#
#
# Indices 1 2 3 4 5 6 
#
# 1 110.1404 39.0302 20.5235 0.0000 0.0000 0.0000
# 2 39.0302 89.2277 33.5950 0.0000 0.0000 0.0000
# 3 20.5235 33.5950 107.7263 0.0000 0.0000 0.0000
# 4 0.0000 0.0000 0.0000 6.4878 0.0000 0.0000
# 5 0.0000 0.0000 0.0000 0.0000 40.7427 0.0000
# 6 0.0000 0.0000 0.0000 0.0000 0.0000 15.4276
#
#
#
# Elastic Compliance Matrix: (Units=1/GPa)
#
#
# Indices 1 2 3 4 5 6 
#
# 1 0.010786 -0.004469 -0.000661 0.000000 0.000000 0.000000
# 2 -0.004469 0.014550 -0.003686 0.000000 0.000000 0.000000
# 3 -0.000661 -0.003686 0.010558 0.000000 0.000000 0.000000
# 4 0.000000 0.000000 0.000000 0.154135 0.000000 0.000000
# 5 0.000000 0.000000 0.000000 0.000000 0.024544 0.000000
# 6 0.000000 0.000000 0.000000 0.000000 0.000000 0.064819
#
#
# Mechanical properties :
#
#
# Convention : Reuss Voigt Hill
#
# Bulk Modulus (GPa) = 54.75956 54.82132 54.79044
# Shear Modulus (GPa) = 16.49547 26.79467 21.64507
#
# Velocity S-wave (km/s) = 2.89260 3.68663 3.31349
# Velocity P-wave (km/s) = 6.23957 6.77710 6.51388
#
# Compressibility (1/GPa) = 0.01826165
#
# Stress axis : x y z
#
# Youngs Moduli (GPa) = 92.71049 68.72834 94.71253
#
# Poissons Ratio (x) = 0.30716 0.06262
# Poissons Ratio (y) = 0.41434 0.34912
# Poissons Ratio (z) = 0.06130 0.25334
#
# Static dielectric constant tensor:
#      x y z
#    x 3.862360 0.000000 0.000000 
#    y 0.000000 3.392460 0.000000 
#    z 0.000000 0.000000 3.178430 
# 
# 
# High freq. dielectric constant tensor:
#      x y z
#    x 1.786140 0.000000 0.000000 
#    y 0.000000 1.752250 0.000000 
#    z 0.000000 0.000000 1.765490 
# 
# From -- ./inp_files/31749.got.cif
#   From: 2010.03.12/outbox.cif.g09.slc.cpg/sg68_16_cif.got.tgz:31749.got - 2010.04.10 23:14:56.
