data_PCOD8282358
_publ_section_title
;
Structure prediction by ZEFSAII (Michael W. Deem and Ramdas Pophale) SiO2 
 PCOD8282358
Probable space group: C C C A
;
_chemical_formula_sum "Si O2"
_cell_formula_units_Z 88
_cell_length_a 16.509735
_cell_length_b 9.771121
_cell_length_c 22.966447
_cell_angle_alpha 90.000000
_cell_angle_beta 90.000000
_cell_angle_gamma 90.000000
_cell_volume 3704.915499
_symmetry_space_group_name_H-M "C C C A"
_symmetry_group_IT_number 68
_space_group.IT_coordinate_system_code '2'
_symmetry_cell_setting 'orthorhombic'
loop_
_space_group_symop_operation_xyz
x,y,z
-x,1/2-y,z
x,1/2-y,1/2-z
-x,y,1/2-z
-x,-y,-z
x,1/2+y,-z
-x,1/2+y,1/2+z
x,-y,1/2+z
1/2+x,1/2+y,z
1/2-x,-y,z
1/2+x,-y,1/2-z
1/2-x,1/2+y,1/2-z
1/2-x,1/2-y,-z
1/2+x,y,-z
1/2-x,y,1/2+z
1/2+x,1/2-y,1/2+z
loop_
_atom_site_type_symbol
_atom_site_label
_atom_site_fract_x
_atom_site_fract_y
_atom_site_fract_z
Si Si1 0.906703 0.004701 0.879765
Si Si2 0.157011 0.485760 0.623131
Si Si3 0.189393 0.721823 0.317160
Si Si4 0.500000 0.750000 0.573099
Si Si5 0.909963 0.058677 0.505387
Si Si6 0.620777 0.246456 0.683258
O O1 0.840016 0.073023 0.837887
O O2 0.981415 0.111917 0.889008
O O3 0.933473 0.863110 0.848551
O O4 0.868290 0.957347 0.942352
O O5 0.250000 0.500000 0.641419
O O6 0.137019 0.330609 0.644024
O O7 0.144725 0.514870 0.554438
O O8 0.102451 0.595735 0.657871
O O9 0.168657 0.750000 0.250000
O O10 0.284860 0.722915 0.328062
O O11 0.423316 0.714200 0.530390
O O12 0.000000 0.000000 0.500000
O O13 0.595854 0.250000 0.750000
#
# Coordination Sequence:
#
# PCOD8282358 Si02
#       6
#    16  16  16   8  16  16
#     4  11  22  38  68  92 123 169 223 259 313 397
#     4  10  21  38  63  96 132 163 212 274 323 381
#     4  10  20  39  65  92 131 172 209 260 327 400
#     4  10  22  44  63  92 125 180 214 258 326 390
#     4  10  23  40  66  87 127 168 214 260 326 390
#     4  10  22  38  63  98 131 167 208 267 333 383
#
# _framework density 23.752230000000001
#
# number of rings (size 3 to 8) (size 9 to 14) (size 15 to 20)
#    0.000    1.818    1.818    1.636    5.091    4.364 
#    0.000    4.091    4.000    4.364    0.000    0.000 
#    0.000    0.000    0.000    0.000    0.000    0.000 
#
# Total GULP energy -545231.286326 kJ/mol
# GULP energy per Si atom -12391.620144 kJ/mol
# Density = 2.369817 g / cm^3
# Si number density = 23.752230 Si / 1000 Ang^3
#
#
#
# Elastic Constant Matrix: (Units=GPa)
#
#
# Indices 1 2 3 4 5 6 
#
# 1 28.4010 7.6540 6.2336 0.0000 0.0000 0.0000
# 2 7.6540 144.7882 52.5541 0.0000 0.0000 0.0000
# 3 6.2336 52.5541 177.6816 0.0000 0.0000 0.0000
# 4 0.0000 0.0000 0.0000 50.1262 0.0000 0.0000
# 5 0.0000 0.0000 0.0000 0.0000 15.9887 0.0000
# 6 0.0000 0.0000 0.0000 0.0000 0.0000 25.1288
#
#
#
# Elastic Compliance Matrix: (Units=1/GPa)
#
#
# Indices 1 2 3 4 5 6 
#
# 1 0.035815 -0.001610 -0.000780 0.000000 0.000000 0.000000
# 2 -0.001610 0.007810 -0.002253 0.000000 0.000000 0.000000
# 3 -0.000780 -0.002253 0.006322 0.000000 0.000000 0.000000
# 4 0.000000 0.000000 0.000000 0.019950 0.000000 0.000000
# 5 0.000000 0.000000 0.000000 0.000000 0.062544 0.000000
# 6 0.000000 0.000000 0.000000 0.000000 0.000000 0.039795
#
#
# Mechanical properties :
#
#
# Convention : Reuss Voigt Hill
#
# Bulk Modulus (GPa) = 24.59463 53.75043 39.17253
# Shear Modulus (GPa) = 25.63098 37.21069 31.42083
#
# Velocity S-wave (km/s) = 3.28853 3.96235 3.64106
# Velocity P-wave (km/s) = 4.97959 6.60397 5.84845
#
# Compressibility (1/GPa) = 0.04065928
#
# Stress axis : x y z
#
# Youngs Moduli (GPa) = 27.92107 128.04609 158.17943
#
# Poissons Ratio (x) = 0.20617 0.12342
# Poissons Ratio (y) = 0.04496 0.35645
# Poissons Ratio (z) = 0.02179 0.28854
#
# Static dielectric constant tensor:
#      x y z
#    x 3.838030 0.000000 0.000000 
#    y 0.000000 4.769230 0.000000 
#    z 0.000000 0.000000 4.462040 
# 
# 
# High freq. dielectric constant tensor:
#      x y z
#    x 1.912590 0.000000 0.000000 
#    y 0.000000 1.955910 0.000000 
#    z 0.000000 0.000000 1.946520 
# 
# From -- ./inp_files/46493.got.cif
#   From: 2010.03.12/outbox.cif.g09.slc.cpg/sg68_24_cif.got.tgz:46493.got - 2010.04.10 23:14:56.
