data_PCOD8282790
_publ_section_title
;
Structure prediction by ZEFSAII (Michael W. Deem and Ramdas Pophale) SiO2 
 PCOD8282790
Probable space group: C C C A
;
_chemical_formula_sum "Si O2"
_cell_formula_units_Z 72
_cell_length_a 8.547981
_cell_length_b 19.259073
_cell_length_c 22.332834
_cell_angle_alpha 90.000000
_cell_angle_beta 90.000000
_cell_angle_gamma 90.000000
_cell_volume 3676.569375
_symmetry_space_group_name_H-M "C C C A"
_symmetry_group_IT_number 68
_space_group.IT_coordinate_system_code '2'
_symmetry_cell_setting 'orthorhombic'
loop_
_space_group_symop_operation_xyz
x,y,z
-x,1/2-y,z
x,1/2-y,1/2-z
-x,y,1/2-z
-x,-y,-z
x,1/2+y,-z
-x,1/2+y,1/2+z
x,-y,1/2+z
1/2+x,1/2+y,z
1/2-x,-y,z
1/2+x,-y,1/2-z
1/2-x,1/2+y,1/2-z
1/2-x,1/2-y,-z
1/2+x,y,-z
1/2-x,y,1/2+z
1/2+x,1/2-y,1/2+z
loop_
_atom_site_type_symbol
_atom_site_label
_atom_site_fract_x
_atom_site_fract_y
_atom_site_fract_z
Si Si1 0.824964 0.778586 0.313855
Si Si2 0.156461 0.928986 0.833796
Si Si3 0.000000 0.250000 0.506209
Si Si4 0.764108 0.691011 0.917304
Si Si5 0.310378 0.577199 0.303340
O O1 0.763092 0.750000 0.250000
O O2 0.714204 0.748888 0.365785
O O3 0.811089 0.862219 0.323405
O O4 0.000000 0.750000 0.323510
O O5 0.236244 0.882475 0.884418
O O6 0.173474 0.902914 0.766121
O O7 0.968853 0.926212 0.842728
O O8 0.250000 0.000000 0.841645
O O9 0.901456 0.302366 0.465340
O O10 0.898649 0.199694 0.547963
O O11 0.250000 0.500000 0.311628
#
# Coordination Sequence:
#
# PCOD8282790 Si02
#       5
#    16  16   8  16  16
#     4  11  22  35  64  98 126 161 203 260 314 382
#     4  10  22  38  61  89 128 165 199 257 314 381
#     4  10  24  38  64  80 118 166 214 270 298 358
#     4  11  21  42  59  90 120 161 216 258 311 359
#     4  10  22  37  59  95 134 166 196 241 324 397
#
# _framework density 19.583475
#
# number of rings (size 3 to 8) (size 9 to 14) (size 15 to 20)
#    0.000    1.556    3.333    1.333    3.111    1.778 
#    0.000    1.111    0.000    5.333    0.000    0.000 
#    0.000    0.000    0.000    0.000    0.000    0.000 
#
# Total GULP energy -445998.545297 kJ/mol
# GULP energy per Si atom -12388.848480 kJ/mol
# Density = 1.953890 g / cm^3
# Si number density = 19.583475 Si / 1000 Ang^3
#
#
#
# Elastic Constant Matrix: (Units=GPa)
#
#
# Indices 1 2 3 4 5 6 
#
# 1 122.5774 67.9998 48.6508 0.0000 0.0000 0.0000
# 2 67.9998 145.0422 51.4707 0.0000 0.0000 0.0000
# 3 48.6508 51.4707 118.9911 0.0000 0.0000 0.0000
# 4 0.0000 0.0000 0.0000 39.3940 0.0000 0.0000
# 5 0.0000 0.0000 0.0000 0.0000 17.6717 0.0000
# 6 0.0000 0.0000 0.0000 0.0000 0.0000 30.9748
#
#
#
# Elastic Compliance Matrix: (Units=1/GPa)
#
#
# Indices 1 2 3 4 5 6 
#
# 1 0.011802 -0.004514 -0.002873 0.000000 0.000000 0.000000
# 2 -0.004514 0.009871 -0.002424 0.000000 0.000000 0.000000
# 3 -0.002873 -0.002424 0.010627 0.000000 0.000000 0.000000
# 4 0.000000 0.000000 0.000000 0.025385 0.000000 0.000000
# 5 0.000000 0.000000 0.000000 0.000000 0.056588 0.000000
# 6 0.000000 0.000000 0.000000 0.000000 0.000000 0.032284
#
#
# Mechanical properties :
#
#
# Convention : Reuss Voigt Hill
#
# Bulk Modulus (GPa) = 78.87364 80.31705 79.59535
# Shear Modulus (GPa) = 29.34170 32.17404 30.75787
#
# Velocity S-wave (km/s) = 3.87497 4.05769 3.96738
# Velocity P-wave (km/s) = 7.77069 7.94071 7.85616
#
# Compressibility (1/GPa) = 0.01267851
#
# Stress axis : x y z
#
# Youngs Moduli (GPa) = 84.72825 101.30668 94.09688
#
# Poissons Ratio (x) = 0.45727 0.27035
# Poissons Ratio (y) = 0.38244 0.22812
# Poissons Ratio (z) = 0.24343 0.24560
#
# Static dielectric constant tensor:
#      x y z
#    x 3.861120 0.000000 0.000000 
#    y 0.000000 3.411960 0.000000 
#    z 0.000000 0.000000 3.731330 
# 
# 
# High freq. dielectric constant tensor:
#      x y z
#    x 1.766550 0.000000 0.000000 
#    y 0.000000 1.755620 0.000000 
#    z 0.000000 0.000000 1.758320 
# 
# From -- ./inp_files/42901.got.cif
#   From: 2010.03.12/outbox.cif.g09.slc.cpg/sg68_22_cif.got.tgz:42901.got - 2010.04.10 23:14:56.
