data_PCOD8282307
_publ_section_title
;
Structure prediction by ZEFSAII (Michael W. Deem and Ramdas Pophale) SiO2 
 PCOD8282307
Probable space group: C C C A
;
_chemical_formula_sum "Si O2"
_cell_formula_units_Z 120
_cell_length_a 22.763680
_cell_length_b 13.090923
_cell_length_c 19.637937
_cell_angle_alpha 90.000000
_cell_angle_beta 90.000000
_cell_angle_gamma 90.000000
_cell_volume 5852.057743
_symmetry_space_group_name_H-M "C C C A"
_symmetry_group_IT_number 68
_space_group.IT_coordinate_system_code '2'
_symmetry_cell_setting 'orthorhombic'
loop_
_space_group_symop_operation_xyz
x,y,z
-x,1/2-y,z
x,1/2-y,1/2-z
-x,y,1/2-z
-x,-y,-z
x,1/2+y,-z
-x,1/2+y,1/2+z
x,-y,1/2+z
1/2+x,1/2+y,z
1/2-x,-y,z
1/2+x,-y,1/2-z
1/2-x,1/2+y,1/2-z
1/2-x,1/2-y,-z
1/2+x,y,-z
1/2-x,y,1/2+z
1/2+x,1/2-y,1/2+z
loop_
_atom_site_type_symbol
_atom_site_label
_atom_site_fract_x
_atom_site_fract_y
_atom_site_fract_z
Si Si1 0.449185 0.033862 0.299215
Si Si2 0.202934 0.206804 0.552054
Si Si3 0.104705 0.646958 0.087172
Si Si4 0.476040 0.920758 0.094272
Si Si5 0.601392 0.353262 0.711585
Si Si6 0.212615 0.590716 0.861610
Si Si7 0.131263 0.009200 0.526561
Si Si8 0.500000 0.250000 0.490920
O O1 0.500000 0.079516 0.250000
O O2 0.410022 0.123197 0.333090
O O3 0.474235 0.980466 0.366319
O O4 0.412017 0.952949 0.256339
O O5 0.250000 0.250000 0.500000
O O6 0.165708 0.295845 0.585160
O O7 0.238363 0.170269 0.617195
O O8 0.159659 0.121651 0.517682
O O9 0.056157 0.723812 0.055378
O O10 0.117075 0.542722 0.045654
O O11 0.438865 0.848186 0.144579
O O12 0.432010 0.007784 0.064612
O O13 0.508617 0.850769 0.038014
O O14 0.586387 0.250000 0.750000
O O15 0.669833 0.358435 0.693246
O O16 0.250000 0.500000 0.827052
O O17 0.177450 0.556360 0.929287
#
# Coordination Sequence:
#
# PCOD8282307 Si02
#       8
#    16  16  16  16  16  16  16   8
#     4  10  23  41  61  88 130 172 210 258 322 381
#     4  11  22  38  64  94 127 165 210 264 339 397
#     4  11  24  38  62  99 131 168 206 269 327 397
#     4   9  19  37  62  90 125 161 197 266 328 384
#     4  10  20  38  64  89 116 163 220 263 305 370
#     4   9  19  40  60  80 120 164 202 258 317 376
#     4   9  20  37  63  92 124 159 203 262 333 386
#     4  10  22  36  62 102 128 154 210 256 344 400
#
# _framework density 20.505607999999999
#
# number of rings (size 3 to 8) (size 9 to 14) (size 15 to 20)
#    0.000    2.133    1.333    0.800    3.733    4.000 
#    2.400    0.333    0.000    0.000    0.000    0.000 
#    0.000    0.000    0.000    0.000    0.000    0.000 
#
# Total GULP energy -743603.011422 kJ/mol
# GULP energy per Si atom -12393.383524 kJ/mol
# Density = 2.045894 g / cm^3
# Si number density = 20.505608 Si / 1000 Ang^3
#
#
#
# Elastic Constant Matrix: (Units=GPa)
#
#
# Indices 1 2 3 4 5 6 
#
# 1 99.8819 46.6500 43.1449 0.0000 0.0000 0.0000
# 2 46.6500 85.7071 46.8803 0.0000 0.0000 0.0000
# 3 43.1449 46.8803 90.0683 0.0000 0.0000 0.0000
# 4 0.0000 0.0000 0.0000 24.9873 0.0000 0.0000
# 5 0.0000 0.0000 0.0000 0.0000 31.9219 0.0000
# 6 0.0000 0.0000 0.0000 0.0000 0.0000 38.1569
#
#
#
# Elastic Compliance Matrix: (Units=1/GPa)
#
#
# Indices 1 2 3 4 5 6 
#
# 1 0.014354 -0.005665 -0.003928 0.000000 0.000000 0.000000
# 2 -0.005665 0.018547 -0.006940 0.000000 0.000000 0.000000
# 3 -0.003928 -0.006940 0.016596 0.000000 0.000000 0.000000
# 4 0.000000 0.000000 0.000000 0.040020 0.000000 0.000000
# 5 0.000000 0.000000 0.000000 0.000000 0.031326 0.000000
# 6 0.000000 0.000000 0.000000 0.000000 0.000000 0.026208
#
#
# Mechanical properties :
#
#
# Convention : Reuss Voigt Hill
#
# Bulk Modulus (GPa) = 60.85365 61.00085 60.92725
# Shear Modulus (GPa) = 26.94053 28.27869 27.60961
#
# Velocity S-wave (km/s) = 3.62859 3.71761 3.67337
# Velocity P-wave (km/s) = 6.87725 6.94554 6.91148
#
# Compressibility (1/GPa) = 0.01643287
#
# Stress axis : x y z
#
# Youngs Moduli (GPa) = 69.66713 53.91706 60.25388
#
# Poissons Ratio (x) = 0.30541 0.23665
# Poissons Ratio (y) = 0.39463 0.41818
# Poissons Ratio (z) = 0.27362 0.37420
#
# Static dielectric constant tensor:
#      x y z
#    x 3.921010 0.000000 0.000000 
#    y 0.000000 3.525340 0.000000 
#    z 0.000000 0.000000 3.706930 
# 
# 
# High freq. dielectric constant tensor:
#      x y z
#    x 1.814490 0.000000 0.000000 
#    y 0.000000 1.792960 0.000000 
#    z 0.000000 0.000000 1.785770 
# 
# From -- ./inp_files/40947.got.cif
#   From: 2010.03.12/outbox.cif.g09.slc.cpg/sg68_21_cif.got.tgz:40947.got - 2010.04.10 23:14:56.
