data_PCOD8282322
_publ_section_title
;
Structure prediction by ZEFSAII (Michael W. Deem and Ramdas Pophale) SiO2 
 PCOD8282322
Probable space group: C C C A
;
_chemical_formula_sum "Si O2"
_cell_formula_units_Z 104
_cell_length_a 8.786770
_cell_length_b 29.141476
_cell_length_c 21.042339
_cell_angle_alpha 90.000000
_cell_angle_beta 90.000000
_cell_angle_gamma 90.000000
_cell_volume 5388.089689
_symmetry_space_group_name_H-M "C C C A"
_symmetry_group_IT_number 68
_space_group.IT_coordinate_system_code '2'
_symmetry_cell_setting 'orthorhombic'
loop_
_space_group_symop_operation_xyz
x,y,z
-x,1/2-y,z
x,1/2-y,1/2-z
-x,y,1/2-z
-x,-y,-z
x,1/2+y,-z
-x,1/2+y,1/2+z
x,-y,1/2+z
1/2+x,1/2+y,z
1/2-x,-y,z
1/2+x,-y,1/2-z
1/2-x,1/2+y,1/2-z
1/2-x,1/2-y,-z
1/2+x,y,-z
1/2-x,y,1/2+z
1/2+x,1/2-y,1/2+z
loop_
_atom_site_type_symbol
_atom_site_label
_atom_site_fract_x
_atom_site_fract_y
_atom_site_fract_z
Si Si1 0.578752 0.638173 0.927334
Si Si2 0.750000 0.000000 0.994669
Si Si3 0.250223 0.250000 0.250000
Si Si4 0.419887 0.794092 0.039895
Si Si5 0.501587 0.434525 0.970758
Si Si6 0.000000 0.826071 0.750000
Si Si7 0.879776 0.715531 0.120101
Si Si8 0.408717 0.639972 0.121259
O O1 0.447875 0.663277 0.884676
O O2 0.726816 0.630518 0.882455
O O3 0.629361 0.670652 0.985469
O O4 0.518673 0.590533 0.959611
O O5 0.872445 0.971797 0.953866
O O6 0.661705 0.961213 0.034724
O O7 0.148088 0.294845 0.239567
O O8 0.354403 0.235657 0.190706
O O9 0.500000 0.750000 0.008805
O O10 0.273245 0.781231 0.080440
O O11 0.550954 0.812435 0.087136
O O12 0.495798 0.398711 0.914522
O O13 0.012524 0.859968 0.809730
O O14 0.000000 0.750000 0.088052
#
# Coordination Sequence:
#
# PCOD8282322 Si02
#       8
#    16   8   8  16  16   8  16  16
#     4  11  23  37  58  91 125 152 196 257 308 359
#     4  10  20  38  66  98 128 152 180 244 324 384
#     4  11  23  40  54  80 112 170 228 250 282 338
#     4  11  21  36  55  81 118 160 200 247 309 352
#     4  10  21  38  64  98 128 152 190 246 315 387
#     4  11  22  38  62  76 118 170 218 252 284 338
#     4  12  24  36  55  81 117 165 208 255 290 340
#     4  11  22  38  58  86 120 161 207 246 294 365
#
# _framework density 19.301831
#
# number of rings (size 3 to 8) (size 9 to 14) (size 15 to 20)
#    0.000    1.077    3.077    5.308    2.154    1.846 
#    0.000    0.000    0.000    0.923    0.000    0.000 
#    0.000    0.000    0.000    0.000    0.000    0.000 
#
# Total GULP energy -644262.820930 kJ/mol
# GULP energy per Si atom -12389.669633 kJ/mol
# Density = 1.925790 g / cm^3
# Si number density = 19.301831 Si / 1000 Ang^3
#
#
#
# Elastic Constant Matrix: (Units=GPa)
#
#
# Indices 1 2 3 4 5 6 
#
# 1 93.6768 31.8783 33.5805 0.0000 0.0000 0.0000
# 2 31.8783 84.4168 32.5164 0.0000 0.0000 0.0000
# 3 33.5805 32.5164 115.9435 0.0000 0.0000 0.0000
# 4 0.0000 0.0000 0.0000 9.4543 0.0000 0.0000
# 5 0.0000 0.0000 0.0000 0.0000 28.4385 0.0000
# 6 0.0000 0.0000 0.0000 0.0000 0.0000 35.0531
#
#
#
# Elastic Compliance Matrix: (Units=1/GPa)
#
#
# Indices 1 2 3 4 5 6 
#
# 1 0.012945 -0.003861 -0.002666 0.000000 0.000000 0.000000
# 2 -0.003861 0.014432 -0.002929 0.000000 0.000000 0.000000
# 3 -0.002666 -0.002929 0.010219 0.000000 0.000000 0.000000
# 4 0.000000 0.000000 0.000000 0.105772 0.000000 0.000000
# 5 0.000000 0.000000 0.000000 0.000000 0.035164 0.000000
# 6 0.000000 0.000000 0.000000 0.000000 0.000000 0.028528
#
#
# Mechanical properties :
#
#
# Convention : Reuss Voigt Hill
#
# Bulk Modulus (GPa) = 53.52687 54.44306 53.98496
# Shear Modulus (GPa) = 21.53314 27.65997 24.59656
#
# Velocity S-wave (km/s) = 3.34368 3.78964 3.57362
# Velocity P-wave (km/s) = 6.53442 6.88592 6.71247
#
# Compressibility (1/GPa) = 0.01868221
#
# Stress axis : x y z
#
# Youngs Moduli (GPa) = 77.25107 69.28839 97.86060
#
# Poissons Ratio (x) = 0.26754 0.26092
# Poissons Ratio (y) = 0.29829 0.28666
# Poissons Ratio (z) = 0.20597 0.20296
#
# Static dielectric constant tensor:
#      x y z
#    x 3.804750 0.000000 0.000000 
#    y 0.000000 3.650980 0.000000 
#    z 0.000000 0.000000 3.379120 
# 
# 
# High freq. dielectric constant tensor:
#      x y z
#    x 1.772020 0.000000 0.000000 
#    y 0.000000 1.739990 0.000000 
#    z 0.000000 0.000000 1.722220 
# 
# From -- ./inp_files/36744.got.cif
#   From: 2010.03.12/outbox.cif.g09.slc.cpg/sg68_19_cif.got.tgz:36744.got - 2010.04.10 23:14:56.
