data_PCOD8282200
_publ_section_title
;
Structure prediction by ZEFSAII (Michael W. Deem and Ramdas Pophale) SiO2 
 PCOD8282200
Probable space group: C C C A
;
_chemical_formula_sum "Si O2"
_cell_formula_units_Z 88
_cell_length_a 12.536715
_cell_length_b 20.809063
_cell_length_c 16.795733
_cell_angle_alpha 90.000000
_cell_angle_beta 90.000000
_cell_angle_gamma 90.000000
_cell_volume 4381.625346
_symmetry_space_group_name_H-M "C C C A"
_symmetry_group_IT_number 68
_space_group.IT_coordinate_system_code '2'
_symmetry_cell_setting 'orthorhombic'
loop_
_space_group_symop_operation_xyz
x,y,z
-x,1/2-y,z
x,1/2-y,1/2-z
-x,y,1/2-z
-x,-y,-z
x,1/2+y,-z
-x,1/2+y,1/2+z
x,-y,1/2+z
1/2+x,1/2+y,z
1/2-x,-y,z
1/2+x,-y,1/2-z
1/2-x,1/2+y,1/2-z
1/2-x,1/2-y,-z
1/2+x,y,-z
1/2-x,y,1/2+z
1/2+x,1/2-y,1/2+z
loop_
_atom_site_type_symbol
_atom_site_label
_atom_site_fract_x
_atom_site_fract_y
_atom_site_fract_z
Si Si1 0.722930 0.657444 0.368233
Si Si2 0.445057 0.187119 0.430621
Si Si3 0.750000 0.000000 0.377092
Si Si4 0.115297 0.901616 0.718965
Si Si5 0.163397 0.798059 0.597207
Si Si6 0.152111 0.382509 0.963718
O O1 0.851404 0.660265 0.374621
O O2 0.695267 0.619829 0.288396
O O3 0.674906 0.728821 0.362894
O O4 0.672278 0.619146 0.442055
O O5 0.500000 0.250000 0.391398
O O6 0.398618 0.210207 0.515023
O O7 0.528570 0.129407 0.443313
O O8 0.834568 0.036684 0.322742
O O9 0.683883 0.047497 0.433327
O O10 0.097962 0.843608 0.656656
O O11 0.000000 0.922116 0.750000
O O12 0.279935 0.827263 0.580342
#
# Coordination Sequence:
#
# PCOD8282200 Si02
#       6
#    16  16   8  16  16  16
#     4  11  21  36  63  99 124 156 208 257 311 388
#     4  11  18  34  66  96 124 155 201 259 319 362
#     4  10  26  46  58  80 126 170 216 262 302 372
#     4  11  25  41  61  85 125 169 204 249 316 375
#     4  10  20  36  59  95 130 152 193 253 319 387
#     4  10  20  39  62  87 122 161 205 262 310 360
#
# _framework density 20.083872
#
# number of rings (size 3 to 8) (size 9 to 14) (size 15 to 20)
#    0.000    1.455    3.636    2.727    0.000    2.909 
#    0.000   15.455    0.000    0.000    0.000    0.000 
#    0.000    0.000    0.000    0.000    0.000    0.000 
#
# Total GULP energy -545849.090521 kJ/mol
# GULP energy per Si atom -12405.661148 kJ/mol
# Density = 2.003816 g / cm^3
# Si number density = 20.083872 Si / 1000 Ang^3
#
#
#
# Elastic Constant Matrix: (Units=GPa)
#
#
# Indices 1 2 3 4 5 6 
#
# 1 114.5168 39.6474 7.3116 0.0000 0.0000 0.0000
# 2 39.6474 120.3578 34.6420 0.0000 0.0000 0.0000
# 3 7.3116 34.6420 60.9305 0.0000 0.0000 0.0000
# 4 0.0000 0.0000 0.0000 15.4757 0.0000 0.0000
# 5 0.0000 0.0000 0.0000 0.0000 17.7698 0.0000
# 6 0.0000 0.0000 0.0000 0.0000 0.0000 24.5924
#
#
#
# Elastic Compliance Matrix: (Units=1/GPa)
#
#
# Indices 1 2 3 4 5 6 
#
# 1 0.009889 -0.003486 0.000796 0.000000 0.000000 0.000000
# 2 -0.003486 0.011163 -0.005929 0.000000 0.000000 0.000000
# 3 0.000796 -0.005929 0.019687 0.000000 0.000000 0.000000
# 4 0.000000 0.000000 0.000000 0.064618 0.000000 0.000000
# 5 0.000000 0.000000 0.000000 0.000000 0.056275 0.000000
# 6 0.000000 0.000000 0.000000 0.000000 0.000000 0.040663
#
#
# Mechanical properties :
#
#
# Convention : Reuss Voigt Hill
#
# Bulk Modulus (GPa) = 42.55222 51.00079 46.77650
# Shear Modulus (GPa) = 21.99082 25.84784 23.91933
#
# Velocity S-wave (km/s) = 3.31259 3.59136 3.45479
# Velocity P-wave (km/s) = 5.98868 6.53041 6.26540
#
# Compressibility (1/GPa) = 0.02350054
#
# Stress axis : x y z
#
# Youngs Moduli (GPa) = 101.12656 89.57811 50.79395
#
# Poissons Ratio (x) = 0.31231 -0.04041
# Poissons Ratio (y) = 0.35257 0.30114
# Poissons Ratio (z) = -0.08046 0.53107
#
# Static dielectric constant tensor:
#      x y z
#    x 3.831090 0.000000 0.000000 
#    y 0.000000 3.530970 0.000000 
#    z 0.000000 0.000000 3.608530 
# 
# 
# High freq. dielectric constant tensor:
#      x y z
#    x 1.795790 0.000000 0.000000 
#    y 0.000000 1.776210 0.000000 
#    z 0.000000 0.000000 1.775000 
# 
# From -- ./inp_files/29628.got.cif
#   From: 2010.03.12/outbox.cif.g09.slc.cpg/sg68_15_cif.got.tgz:29628.got - 2010.04.10 23:14:56.
