data_PCOD8282716
_publ_section_title
;
Structure prediction by ZEFSAII (Michael W. Deem and Ramdas Pophale) SiO2 
 PCOD8282716
Probable space group: C C C A
;
_chemical_formula_sum "Si O2"
_cell_formula_units_Z 80
_cell_length_a 17.124616
_cell_length_b 9.062185
_cell_length_c 26.163212
_cell_angle_alpha 90.000000
_cell_angle_beta 90.000000
_cell_angle_gamma 90.000000
_cell_volume 4060.175683
_symmetry_space_group_name_H-M "C C C A"
_symmetry_group_IT_number 68
_space_group.IT_coordinate_system_code '2'
_symmetry_cell_setting 'orthorhombic'
loop_
_space_group_symop_operation_xyz
x,y,z
-x,1/2-y,z
x,1/2-y,1/2-z
-x,y,1/2-z
-x,-y,-z
x,1/2+y,-z
-x,1/2+y,1/2+z
x,-y,1/2+z
1/2+x,1/2+y,z
1/2-x,-y,z
1/2+x,-y,1/2-z
1/2-x,1/2+y,1/2-z
1/2-x,1/2-y,-z
1/2+x,y,-z
1/2-x,y,1/2+z
1/2+x,1/2-y,1/2+z
loop_
_atom_site_type_symbol
_atom_site_label
_atom_site_fract_x
_atom_site_fract_y
_atom_site_fract_z
Si Si1 0.250000 0.000000 0.130121
Si Si2 0.163280 0.553238 0.535344
Si Si3 0.865052 0.546577 0.848648
Si Si4 0.876262 0.625205 0.555251
Si Si5 0.000000 0.250000 0.373327
Si Si6 0.215731 0.721063 0.190734
O O1 0.187583 0.075751 0.095088
O O2 0.295918 0.120448 0.164493
O O3 0.250000 0.500000 0.522656
O O4 0.137589 0.503216 0.591740
O O5 0.155939 0.726972 0.529401
O O6 0.107393 0.485703 0.491468
O O7 0.858494 0.390340 0.818192
O O8 0.792519 0.647985 0.833268
O O9 0.943882 0.644052 0.838450
O O10 0.953800 0.643052 0.588514
O O11 0.227752 0.750000 0.250000
#
# Coordination Sequence:
#
# PCOD8282716 Si02
#       6
#     8  16  16  16   8  16
#     4  12  20  38  62  98 118 166 210 270 310 378
#     4  11  19  36  59  94 125 168 218 257 305 375
#     4  10  21  41  66  93 130 172 202 273 318 389
#     4  11  24  33  64  87 131 167 213 252 315 386
#     4  10  22  46  59  96 134 170 207 254 338 384
#     4  11  22  40  69  96 118 159 230 267 318 375
#
# _framework density 19.703579999999999
#
# number of rings (size 3 to 8) (size 9 to 14) (size 15 to 20)
#    0.000    1.200    7.000    1.800    2.800    3.200 
#    0.000    1.500    0.000    1.200    0.000    0.000 
#    0.000    0.000    0.000    0.000    0.000    0.000 
#
# Total GULP energy -495782.521474 kJ/mol
# GULP energy per Si atom -12394.563037 kJ/mol
# Density = 1.965873 g / cm^3
# Si number density = 19.703580 Si / 1000 Ang^3
#
#
#
# Elastic Constant Matrix: (Units=GPa)
#
#
# Indices 1 2 3 4 5 6 
#
# 1 91.3977 39.3749 19.1928 0.0000 0.0000 0.0000
# 2 39.3749 144.8473 45.7220 0.0000 0.0000 0.0000
# 3 19.1928 45.7220 102.7883 0.0000 0.0000 0.0000
# 4 0.0000 0.0000 0.0000 27.9617 0.0000 0.0000
# 5 0.0000 0.0000 0.0000 0.0000 9.8667 0.0000
# 6 0.0000 0.0000 0.0000 0.0000 0.0000 34.1890
#
#
#
# Elastic Compliance Matrix: (Units=1/GPa)
#
#
# Indices 1 2 3 4 5 6 
#
# 1 0.012473 -0.003089 -0.000955 0.000000 0.000000 0.000000
# 2 -0.003089 0.008797 -0.003336 0.000000 0.000000 0.000000
# 3 -0.000955 -0.003336 0.011391 0.000000 0.000000 0.000000
# 4 0.000000 0.000000 0.000000 0.035763 0.000000 0.000000
# 5 0.000000 0.000000 0.000000 0.000000 0.101351 0.000000
# 6 0.000000 0.000000 0.000000 0.000000 0.000000 0.029249
#
#
# Mechanical properties :
#
#
# Convention : Reuss Voigt Hill
#
# Bulk Modulus (GPa) = 55.86556 60.84585 58.35571
# Shear Modulus (GPa) = 22.75313 30.05307 26.40310
#
# Velocity S-wave (km/s) = 3.40188 3.90969 3.66459
# Velocity P-wave (km/s) = 6.62155 7.16440 6.89832
#
# Compressibility (1/GPa) = 0.01790011
#
# Stress axis : x y z
#
# Youngs Moduli (GPa) = 80.17635 113.68013 87.78889
#
# Poissons Ratio (x) = 0.35117 0.08382
# Poissons Ratio (y) = 0.24767 0.29287
# Poissons Ratio (z) = 0.07655 0.37925
#
# Static dielectric constant tensor:
#      x y z
#    x 3.352180 0.000000 0.000000 
#    y 0.000000 4.117970 0.000000 
#    z 0.000000 0.000000 3.570780 
# 
# 
# High freq. dielectric constant tensor:
#      x y z
#    x 1.742110 0.000000 0.000000 
#    y 0.000000 1.782120 0.000000 
#    z 0.000000 0.000000 1.767280 
# 
# From -- ./inp_files/51335.got.cif
#   From: 2010.03.12/outbox.cif.g09.slc.cpg/sg68_26_cif.got.tgz:51335.got - 2010.04.10 23:14:56.
