data_PCOD8282511
_publ_section_title
;
Structure prediction by ZEFSAII (Michael W. Deem and Ramdas Pophale) SiO2 
 PCOD8282511
Probable space group: C C C A
;
_chemical_formula_sum "Si O2"
_cell_formula_units_Z 80
_cell_length_a 12.427043
_cell_length_b 12.919030
_cell_length_c 24.252379
_cell_angle_alpha 90.000000
_cell_angle_beta 90.000000
_cell_angle_gamma 90.000000
_cell_volume 3893.606465
_symmetry_space_group_name_H-M "C C C A"
_symmetry_group_IT_number 68
_space_group.IT_coordinate_system_code '2'
_symmetry_cell_setting 'orthorhombic'
loop_
_space_group_symop_operation_xyz
x,y,z
-x,1/2-y,z
x,1/2-y,1/2-z
-x,y,1/2-z
-x,-y,-z
x,1/2+y,-z
-x,1/2+y,1/2+z
x,-y,1/2+z
1/2+x,1/2+y,z
1/2-x,-y,z
1/2+x,-y,1/2-z
1/2-x,1/2+y,1/2-z
1/2-x,1/2-y,-z
1/2+x,y,-z
1/2-x,y,1/2+z
1/2+x,1/2-y,1/2+z
loop_
_atom_site_type_symbol
_atom_site_label
_atom_site_fract_x
_atom_site_fract_y
_atom_site_fract_z
Si Si1 0.324360 0.099886 0.975520
Si Si2 0.026756 0.632030 0.906849
Si Si3 0.241877 0.200189 0.579584
Si Si4 0.919501 0.541935 0.703651
Si Si5 0.298799 0.164065 0.203419
O O1 0.445393 0.084436 0.952140
O O2 0.261908 0.182786 0.938227
O O3 0.250000 0.000000 0.972317
O O4 0.340311 0.142724 0.037927
O O5 0.149847 0.630676 0.927581
O O6 0.019213 0.558641 0.853846
O O7 0.000000 0.750000 0.890411
O O8 0.193603 0.206905 0.641005
O O9 0.817838 0.615637 0.710531
O O10 0.889976 0.422055 0.710824
O O11 0.000000 0.578367 0.750000
O O12 0.319289 0.250000 0.250000
#
# Coordination Sequence:
#
# PCOD8282511 Si02
#       5
#    16  16  16  16  16
#     4  10  21  36  63  89 123 159 209 256 300 370
#     4   9  20  38  61  90 124 159 212 255 298 373
#     4   9  21  41  59  88 124 162 202 252 312 360
#     4  10  23  38  63  94 118 164 208 254 313 367
#     4  10  23  42  64  87 125 164 202 260 311 370
#
# _framework density 20.546503000000001
#
# number of rings (size 3 to 8) (size 9 to 14) (size 15 to 20)
#    0.000    2.400    0.000    0.000   14.000    2.800 
#    0.000    0.000    8.800    0.000    0.000    0.000 
#    0.000    0.000    0.000    0.000    0.000    0.000 
#
# Total GULP energy -495923.919502 kJ/mol
# GULP energy per Si atom -12398.097988 kJ/mol
# Density = 2.049974 g / cm^3
# Si number density = 20.546503 Si / 1000 Ang^3
#
#
#
# Elastic Constant Matrix: (Units=GPa)
#
#
# Indices 1 2 3 4 5 6 
#
# 1 50.9255 5.8892 45.0113 0.0000 0.0000 0.0000
# 2 5.8892 80.8857 57.1386 0.0000 0.0000 0.0000
# 3 45.0113 57.1386 170.5674 0.0000 0.0000 0.0000
# 4 0.0000 0.0000 0.0000 12.0929 0.0000 0.0000
# 5 0.0000 0.0000 0.0000 0.0000 35.0750 0.0000
# 6 0.0000 0.0000 0.0000 0.0000 0.0000 10.2271
#
#
#
# Elastic Compliance Matrix: (Units=1/GPa)
#
#
# Indices 1 2 3 4 5 6 
#
# 1 0.026539 0.003950 -0.008327 0.000000 0.000000 0.000000
# 2 0.003950 0.016784 -0.006665 0.000000 0.000000 0.000000
# 3 -0.008327 -0.006665 0.010293 0.000000 0.000000 0.000000
# 4 0.000000 0.000000 0.000000 0.082693 0.000000 0.000000
# 5 0.000000 0.000000 0.000000 0.000000 0.028510 0.000000
# 6 0.000000 0.000000 0.000000 0.000000 0.000000 0.097779
#
#
# Mechanical properties :
#
#
# Convention : Reuss Voigt Hill
#
# Bulk Modulus (GPa) = 31.71330 57.60632 44.65981
# Shear Modulus (GPa) = 16.93812 24.43498 20.68655
#
# Velocity S-wave (km/s) = 2.87432 3.45230 3.17648
# Velocity P-wave (km/s) = 5.14626 6.63242 5.93603
#
# Compressibility (1/GPa) = 0.03153251
#
# Stress axis : x y z
#
# Youngs Moduli (GPa) = 37.67986 59.58227 97.15617
#
# Poissons Ratio (x) = -0.23533 0.80898
# Poissons Ratio (y) = -0.14883 0.64751
# Poissons Ratio (z) = 0.31375 0.39709
#
# Static dielectric constant tensor:
#      x y z
#    x 3.702280 0.000000 0.000000 
#    y 0.000000 3.656340 0.000000 
#    z 0.000000 0.000000 3.897760 
# 
# 
# High freq. dielectric constant tensor:
#      x y z
#    x 1.791810 0.000000 0.000000 
#    y 0.000000 1.803200 0.000000 
#    z 0.000000 0.000000 1.811450 
# 
# From -- ./inp_files/45389.got.cif
#   From: 2010.03.12/outbox.cif.g09.slc.cpg/sg68_23_cif.got.tgz:45389.got - 2010.04.10 23:14:56.
