data_PCOD8282187
_publ_section_title
;
Structure prediction by ZEFSAII (Michael W. Deem and Ramdas Pophale) SiO2 
 PCOD8282187
Probable space group: C C C A
;
_chemical_formula_sum "Si O2"
_cell_formula_units_Z 88
_cell_length_a 19.946532
_cell_length_b 8.421475
_cell_length_c 26.642104
_cell_angle_alpha 90.000000
_cell_angle_beta 90.000000
_cell_angle_gamma 90.000000
_cell_volume 4475.319864
_symmetry_space_group_name_H-M "C C C A"
_symmetry_group_IT_number 68
_space_group.IT_coordinate_system_code '2'
_symmetry_cell_setting 'orthorhombic'
loop_
_space_group_symop_operation_xyz
x,y,z
-x,1/2-y,z
x,1/2-y,1/2-z
-x,y,1/2-z
-x,-y,-z
x,1/2+y,-z
-x,1/2+y,1/2+z
x,-y,1/2+z
1/2+x,1/2+y,z
1/2-x,-y,z
1/2+x,-y,1/2-z
1/2-x,1/2+y,1/2-z
1/2-x,1/2-y,-z
1/2+x,y,-z
1/2-x,y,1/2+z
1/2+x,1/2-y,1/2+z
loop_
_atom_site_type_symbol
_atom_site_label
_atom_site_fract_x
_atom_site_fract_y
_atom_site_fract_z
Si Si1 0.060832 0.413434 0.720295
Si Si2 0.738072 0.315675 0.896284
Si Si3 0.183681 0.902850 0.518358
Si Si4 0.368368 0.694720 0.929716
Si Si5 0.809739 0.376809 0.292539
Si Si6 0.000000 0.750000 0.129510
O O1 0.080094 0.250000 0.750000
O O2 0.121436 0.533826 0.717485
O O3 0.000000 0.498057 0.750000
O O4 0.033838 0.384060 0.664161
O O5 0.750000 0.500000 0.906128
O O6 0.703238 0.243620 0.945593
O O7 0.809757 0.224869 0.888117
O O8 0.691874 0.290203 0.846944
O O9 0.143672 0.832799 0.470982
O O10 0.250000 0.000000 0.501902
O O11 0.134512 0.019835 0.547253
O O12 0.441366 0.689641 0.906157
O O13 0.797282 0.250000 0.250000
O O14 0.750000 0.500000 0.291225
#
# Coordination Sequence:
#
# PCOD8282187 Si02
#       6
#    16  16  16  16  16   8
#     4   9  21  41  60  80 114 157 190 225 286 351
#     4  10  20  36  58  83 113 145 184 235 286 333
#     4  10  21  36  57  82 110 147 188 233 283 335
#     4  11  21  36  56  82 113 149 190 231 281 337
#     4  11  23  37  60  89 116 144 188 242 283 332
#     4  10  21  36  60  82 112 154 191 230 280 340
#
# _framework density 19.663398000000001
#
# number of rings (size 3 to 8) (size 9 to 14) (size 15 to 20)
#    0.000    2.000    0.000    6.545    0.000    7.636 
#    0.000    0.000    0.000    0.000    0.000    0.000 
#    0.000    0.000    0.000    0.000    0.000    0.000 
#
# Total GULP energy -545354.738434 kJ/mol
# GULP energy per Si atom -12394.425873 kJ/mol
# Density = 1.961864 g / cm^3
# Si number density = 19.663398 Si / 1000 Ang^3
#
#
#
# Elastic Constant Matrix: (Units=GPa)
#
#
# Indices 1 2 3 4 5 6 
#
# 1 97.1149 12.5810 37.3803 0.0000 0.0000 0.0000
# 2 12.5810 69.7064 39.3941 0.0000 0.0000 0.0000
# 3 37.3803 39.3941 119.0525 0.0000 0.0000 0.0000
# 4 0.0000 0.0000 0.0000 43.4983 0.0000 0.0000
# 5 0.0000 0.0000 0.0000 0.0000 32.4286 0.0000
# 6 0.0000 0.0000 0.0000 0.0000 0.0000 22.9970
#
#
#
# Elastic Compliance Matrix: (Units=1/GPa)
#
#
# Indices 1 2 3 4 5 6 
#
# 1 0.011713 -0.000044 -0.003663 0.000000 0.000000 0.000000
# 2 -0.000044 0.017646 -0.005825 0.000000 0.000000 0.000000
# 3 -0.003663 -0.005825 0.011477 0.000000 0.000000 0.000000
# 4 0.000000 0.000000 0.000000 0.022989 0.000000 0.000000
# 5 0.000000 0.000000 0.000000 0.000000 0.030837 0.000000
# 6 0.000000 0.000000 0.000000 0.000000 0.000000 0.043484
#
#
# Mechanical properties :
#
#
# Convention : Reuss Voigt Hill
#
# Bulk Modulus (GPa) = 45.93111 51.62049 48.77580
# Shear Modulus (GPa) = 30.40111 32.88600 31.64356
#
# Velocity S-wave (km/s) = 3.93628 4.09399 4.01591
# Velocity P-wave (km/s) = 6.63841 6.97544 6.80901
#
# Compressibility (1/GPa) = 0.02177174
#
# Stress axis : x y z
#
# Youngs Moduli (GPa) = 85.37736 56.67047 87.12829
#
# Poissons Ratio (x) = 0.00248 0.31916
# Poissons Ratio (y) = 0.00374 0.50754
# Poissons Ratio (z) = 0.31274 0.33012
#
# Static dielectric constant tensor:
#      x y z
#    x 3.570650 0.000000 0.000000 
#    y 0.000000 3.587730 0.000000 
#    z 0.000000 0.000000 3.970040 
# 
# 
# High freq. dielectric constant tensor:
#      x y z
#    x 1.753690 0.000000 0.000000 
#    y 0.000000 1.760450 0.000000 
#    z 0.000000 0.000000 1.782150 
# 
# From -- ./inp_files/46515.got.cif
#   From: 2010.03.12/outbox.cif.g09.slc.cpg/sg68_24_cif.got.tgz:46515.got - 2010.04.10 23:14:56.
