data_PCOD8282731
_publ_section_title
;
Structure prediction by ZEFSAII (Michael W. Deem and Ramdas Pophale) SiO2 
 PCOD8282731
Probable space group: C C C A
;
_chemical_formula_sum "Si O2"
_cell_formula_units_Z 104
_cell_length_a 28.788461
_cell_length_b 19.008130
_cell_length_c 8.907261
_cell_angle_alpha 90.000000
_cell_angle_beta 90.000000
_cell_angle_gamma 90.000000
_cell_volume 4874.185129
_symmetry_space_group_name_H-M "C C C A"
_symmetry_group_IT_number 68
_space_group.IT_coordinate_system_code '2'
_symmetry_cell_setting 'orthorhombic'
loop_
_space_group_symop_operation_xyz
x,y,z
-x,1/2-y,z
x,1/2-y,1/2-z
-x,y,1/2-z
-x,-y,-z
x,1/2+y,-z
-x,1/2+y,1/2+z
x,-y,1/2+z
1/2+x,1/2+y,z
1/2-x,-y,z
1/2+x,-y,1/2-z
1/2-x,1/2+y,1/2-z
1/2-x,1/2-y,-z
1/2+x,y,-z
1/2-x,y,1/2+z
1/2+x,1/2-y,1/2+z
loop_
_atom_site_type_symbol
_atom_site_label
_atom_site_fract_x
_atom_site_fract_y
_atom_site_fract_z
Si Si1 0.549289 0.011550 0.078584
Si Si2 0.391388 0.557598 0.310060
Si Si3 0.362477 0.302208 0.365313
Si Si4 0.187713 0.551151 0.339933
Si Si5 0.452560 0.338228 0.184008
Si Si6 0.095868 0.289476 0.394853
Si Si7 0.250000 0.000000 0.900010
O O1 0.545399 0.077604 0.189287
O O2 0.568864 0.946861 0.179360
O O3 0.589124 0.024291 0.960329
O O4 0.500000 0.000000 0.000000
O O5 0.345800 0.510989 0.277819
O O6 0.378460 0.639321 0.337487
O O7 0.335533 0.250000 0.250000
O O8 0.337176 0.375827 0.372925
O O9 0.413839 0.313400 0.299655
O O10 0.366853 0.263200 0.526452
O O11 0.210321 0.533996 0.498960
O O12 0.226561 0.558812 0.209336
O O13 0.500000 0.306868 0.250000
O O14 0.444206 0.311189 0.013241
O O15 0.074165 0.250000 0.250000
#
# Coordination Sequence:
#
# PCOD8282731 Si02
#       7
#    16  16  16  16  16  16   8
#     4  11  22  36  60 102 131 169 231 278 320 375
#     4  11  23  40  69  91 132 179 217 276 325 395
#     4  10  23  43  68  95 134 183 221 264 332 411
#     4  11  23  46  73  98 134 166 223 274 345 415
#     4  10  21  42  63  90 132 183 230 268 321 380
#     4  10  25  40  61 101 129 178 227 273 327 387
#     4  10  26  42  74 108 124 162 220 286 348 410
#
# _framework density 21.336901000000001
#
# number of rings (size 3 to 8) (size 9 to 14) (size 15 to 20)
#    0.000    1.538    1.538    2.308    8.615    2.769 
#    0.000    8.462    0.000    0.000    0.000    0.000 
#    0.000    0.000    0.000    0.000    0.000    0.000 
#
# Total GULP energy -644467.238786 kJ/mol
# GULP energy per Si atom -12393.600746 kJ/mol
# Density = 2.128834 g / cm^3
# Si number density = 21.336901 Si / 1000 Ang^3
#
#
#
# Elastic Constant Matrix: (Units=GPa)
#
#
# Indices 1 2 3 4 5 6 
#
# 1 89.3344 54.7500 39.0408 0.0000 0.0000 0.0000
# 2 54.7500 153.4365 61.2504 0.0000 0.0000 0.0000
# 3 39.0408 61.2504 124.6991 0.0000 0.0000 0.0000
# 4 0.0000 0.0000 0.0000 39.1990 0.0000 0.0000
# 5 0.0000 0.0000 0.0000 0.0000 33.0297 0.0000
# 6 0.0000 0.0000 0.0000 0.0000 0.0000 -5.3868
#
#
#
# Elastic Compliance Matrix: (Units=1/GPa)
#
#
# Indices 1 2 3 4 5 6 
#
# 1 0.014958 -0.004314 -0.002564 0.000000 0.000000 0.000000
# 2 -0.004314 0.009351 -0.003242 0.000000 0.000000 0.000000
# 3 -0.002564 -0.003242 0.010415 0.000000 0.000000 0.000000
# 4 0.000000 0.000000 0.000000 0.025511 0.000000 0.000000
# 5 0.000000 0.000000 0.000000 0.000000 0.030276 0.000000
# 6 0.000000 0.000000 0.000000 0.000000 0.000000 -0.185638
#
#
# Mechanical properties :
#
#
# Convention : Reuss Voigt Hill
#
# Bulk Modulus (GPa) = 69.04689 75.28360 72.16525
# Shear Modulus (GPa) = -71.36882 27.53030 -21.91926
#
# Velocity S-wave (km/s) = -5.78975 3.59593 -3.20862
# Velocity P-wave (km/s) = 3.50204 7.25264 4.49091
#
# Compressibility (1/GPa) = 0.01448291
#
# Stress axis : x y z
#
# Youngs Moduli (GPa) = 66.85223 106.94006 96.01738
#
# Poissons Ratio (x) = 0.46133 0.24621
# Poissons Ratio (y) = 0.28839 0.31134
# Poissons Ratio (z) = 0.17143 0.34675
#
# Static dielectric constant tensor:
#      x y z
#    x 3.675100 0.000000 0.000000 
#    y 0.000000 4.008850 0.000000 
#    z 0.000000 0.000000 3.704610 
# 
# 
# High freq. dielectric constant tensor:
#      x y z
#    x 1.806520 0.000000 0.000000 
#    y 0.000000 1.844410 0.000000 
#    z 0.000000 0.000000 1.856840 
# 
# From -- ./inp_files/9600.got.cif
#   From: 2010.03.12/outbox.cif.g09.slc.cpg/sg68_5_cif.got.tgz:9600.got - 2010.04.10 23:14:56.
