data_PCOD8282013
_publ_section_title
;
Structure prediction by ZEFSAII (Michael W. Deem and Ramdas Pophale) SiO2 
 PCOD8282013
Probable space group: C C C A
;
_chemical_formula_sum "Si O2"
_cell_formula_units_Z 104
_cell_length_a 22.518496
_cell_length_b 13.873687
_cell_length_c 17.419793
_cell_angle_alpha 90.000000
_cell_angle_beta 90.000000
_cell_angle_gamma 90.000000
_cell_volume 5442.197056
_symmetry_space_group_name_H-M "C C C A"
_symmetry_group_IT_number 68
_space_group.IT_coordinate_system_code '2'
_symmetry_cell_setting 'orthorhombic'
loop_
_space_group_symop_operation_xyz
x,y,z
-x,1/2-y,z
x,1/2-y,1/2-z
-x,y,1/2-z
-x,-y,-z
x,1/2+y,-z
-x,1/2+y,1/2+z
x,-y,1/2+z
1/2+x,1/2+y,z
1/2-x,-y,z
1/2+x,-y,1/2-z
1/2-x,1/2+y,1/2-z
1/2-x,1/2-y,-z
1/2+x,y,-z
1/2-x,y,1/2+z
1/2+x,1/2-y,1/2+z
loop_
_atom_site_type_symbol
_atom_site_label
_atom_site_fract_x
_atom_site_fract_y
_atom_site_fract_z
Si Si1 0.019513 0.488152 0.377353
Si Si2 0.912690 0.051826 0.231779
Si Si3 0.533236 0.151486 0.019872
Si Si4 0.283221 0.769123 0.397407
Si Si5 0.667525 0.336441 0.461058
Si Si6 0.649380 0.250000 0.750000
Si Si7 0.186054 0.520435 0.621496
O O1 0.071796 0.499634 0.313319
O O2 0.039295 0.413549 0.443489
O O3 0.965337 0.444400 0.329885
O O4 0.001700 0.591309 0.414295
O O5 0.894782 0.161533 0.243724
O O6 0.858829 0.996004 0.190808
O O7 0.500000 0.250000 0.000087
O O8 0.598001 0.186577 0.049189
O O9 0.307025 0.690573 0.456555
O O10 0.211207 0.781396 0.400376
O O11 0.303945 0.729272 0.316859
O O12 0.317075 0.871194 0.411645
O O13 0.673680 0.451544 0.450899
O O14 0.250000 0.500000 0.658503
#
# Coordination Sequence:
#
# PCOD8282013 Si02
#       7
#    16  16  16  16  16   8  16
#     4  10  23  38  58  87 118 152 206 241 288 354
#     4  10  20  37  60  87 119 151 193 248 299 354
#     4  11  24  38  58  85 119 163 198 243 289 347
#     4   9  20  34  61  92 113 148 196 241 305 352
#     4  10  19  37  58  82 119 156 190 236 290 361
#     4  10  20  35  62  94 115 142 188 260 310 346
#     4   9  18  35  61  87 116 155 186 241 304 349
#
# _framework density 19.109929000000001
#
# number of rings (size 3 to 8) (size 9 to 14) (size 15 to 20)
#    0.000    2.154    1.538    0.923    6.462    0.615 
#    0.000    6.154    0.000   34.154    0.000    0.000 
#    0.000    0.000    0.000    0.000    0.000    0.000 
#
# Total GULP energy -644339.686030 kJ/mol
# GULP energy per Si atom -12391.147808 kJ/mol
# Density = 1.906643 g / cm^3
# Si number density = 19.109929 Si / 1000 Ang^3
#
#
#
# Elastic Constant Matrix: (Units=GPa)
#
#
# Indices 1 2 3 4 5 6 
#
# 1 118.5123 37.2302 47.0512 0.0000 0.0000 0.0000
# 2 37.2302 84.3224 44.5825 0.0000 0.0000 0.0000
# 3 47.0512 44.5825 113.2245 0.0000 0.0000 0.0000
# 4 0.0000 0.0000 0.0000 28.7746 0.0000 0.0000
# 5 0.0000 0.0000 0.0000 0.0000 29.6645 0.0000
# 6 0.0000 0.0000 0.0000 0.0000 0.0000 19.9595
#
#
#
# Elastic Compliance Matrix: (Units=1/GPa)
#
#
# Indices 1 2 3 4 5 6 
#
# 1 0.010670 -0.002989 -0.003257 0.000000 0.000000 0.000000
# 2 -0.002989 0.015815 -0.004985 0.000000 0.000000 0.000000
# 3 -0.003257 -0.004985 0.012148 0.000000 0.000000 0.000000
# 4 0.000000 0.000000 0.000000 0.034753 0.000000 0.000000
# 5 0.000000 0.000000 0.000000 0.000000 0.033710 0.000000
# 6 0.000000 0.000000 0.000000 0.000000 0.000000 0.050101
#
#
# Mechanical properties :
#
#
# Convention : Reuss Voigt Hill
#
# Bulk Modulus (GPa) = 61.83937 63.75411 62.79674
# Shear Modulus (GPa) = 27.01974 28.15940 27.58957
#
# Velocity S-wave (km/s) = 3.76428 3.84285 3.80377
# Velocity P-wave (km/s) = 7.16402 7.28863 7.22659
#
# Compressibility (1/GPa) = 0.01617093
#
# Stress axis : x y z
#
# Youngs Moduli (GPa) = 93.72039 63.23285 82.31574
#
# Poissons Ratio (x) = 0.18900 0.26811
# Poissons Ratio (y) = 0.28013 0.41034
# Poissons Ratio (z) = 0.30525 0.31521
#
# Static dielectric constant tensor:
#      x y z
#    x 3.849820 0.000000 0.000000 
#    y 0.000000 3.429170 0.000000 
#    z 0.000000 0.000000 3.586030 
# 
# 
# High freq. dielectric constant tensor:
#      x y z
#    x 1.756180 0.000000 0.000000 
#    y 0.000000 1.731590 0.000000 
#    z 0.000000 0.000000 1.736260 
# 
# From -- ./inp_files/32995.got.cif
#   From: 2010.03.12/outbox.cif.g09.slc.cpg/sg68_17_cif.got.tgz:32995.got - 2010.04.10 23:14:56.
