data_PCOD8282287
_publ_section_title
;
Structure prediction by ZEFSAII (Michael W. Deem and Ramdas Pophale) SiO2 
 PCOD8282287
Probable space group: C C C A
;
_chemical_formula_sum "Si O2"
_cell_formula_units_Z 120
_cell_length_a 26.796658
_cell_length_b 26.761106
_cell_length_c 8.734549
_cell_angle_alpha 90.000000
_cell_angle_beta 90.000000
_cell_angle_gamma 90.000000
_cell_volume 6263.616756
_symmetry_space_group_name_H-M "C C C A"
_symmetry_group_IT_number 68
_space_group.IT_coordinate_system_code '2'
_symmetry_cell_setting 'orthorhombic'
loop_
_space_group_symop_operation_xyz
x,y,z
-x,1/2-y,z
x,1/2-y,1/2-z
-x,y,1/2-z
-x,-y,-z
x,1/2+y,-z
-x,1/2+y,1/2+z
x,-y,1/2+z
1/2+x,1/2+y,z
1/2-x,-y,z
1/2+x,-y,1/2-z
1/2-x,1/2+y,1/2-z
1/2-x,1/2-y,-z
1/2+x,y,-z
1/2-x,y,1/2+z
1/2+x,1/2-y,1/2+z
loop_
_atom_site_type_symbol
_atom_site_label
_atom_site_fract_x
_atom_site_fract_y
_atom_site_fract_z
Si Si1 0.654547 0.438882 0.333080
Si Si2 0.772990 0.750000 0.250000
Si Si3 0.795802 0.812952 0.528832
Si Si4 0.952729 0.459981 0.846286
Si Si5 0.811789 0.470881 0.516883
Si Si6 0.550772 0.934669 0.303545
Si Si7 0.649237 0.109522 0.695870
Si Si8 0.224631 0.401369 0.465801
O O1 0.596387 0.427097 0.305943
O O2 0.666749 0.474298 0.480148
O O3 0.679271 0.467421 0.195949
O O4 0.685760 0.390332 0.391865
O O5 0.807180 0.777669 0.380134
O O6 0.736562 0.713477 0.341597
O O7 0.845520 0.835755 0.612244
O O8 0.766504 0.859724 0.459650
O O9 0.940876 0.517208 0.804448
O O10 0.000000 0.439169 0.750000
O O11 0.960344 0.455084 0.026939
O O12 0.848917 0.432713 0.432536
O O13 0.753012 0.455132 0.500167
O O14 0.500000 0.906683 0.250000
O O15 0.596947 0.896044 0.288461
O O16 0.696742 0.100731 0.804189
#
# Coordination Sequence:
#
# PCOD8282287 Si02
#       8
#    16   8  16  16  16  16  16  16
#     4  12  22  35  51  73 107 154 200 236 282 322
#     4  10  20  38  60  84 113 149 174 212 276 356
#     4  10  21  37  59  84 117 145 179 220 278 350
#     4  11  22  36  53  72 102 148 210 250 278 316
#     4  11  23  33  50  71 108 154 192 230 270 334
#     4  11  22  37  55  74 105 149 198 249 289 321
#     4  11  21  37  55  80 111 145 187 237 286 333
#     4  11  22  37  50  79 114 148 184 231 278 332
#
# _framework density 19.158259999999999
#
# number of rings (size 3 to 8) (size 9 to 14) (size 15 to 20)
#    0.000    1.067    4.000    5.200    3.733    1.067 
#    0.000    0.000    0.000    0.000    0.000    0.467 
#    0.000    1.067    0.000    0.000    0.000    0.000 
#
# Total GULP energy -743311.667372 kJ/mol
# GULP energy per Si atom -12388.527790 kJ/mol
# Density = 1.911466 g / cm^3
# Si number density = 19.158260 Si / 1000 Ang^3
#
#
#
# Elastic Constant Matrix: (Units=GPa)
#
#
# Indices 1 2 3 4 5 6 
#
# 1 123.8244 21.7304 33.6785 0.0000 0.0000 0.0000
# 2 21.7304 43.5475 22.3452 0.0000 0.0000 0.0000
# 3 33.6785 22.3452 114.1947 0.0000 0.0000 0.0000
# 4 0.0000 0.0000 0.0000 26.9211 0.0000 0.0000
# 5 0.0000 0.0000 0.0000 0.0000 34.3673 0.0000
# 6 0.0000 0.0000 0.0000 0.0000 0.0000 17.5349
#
#
#
# Elastic Compliance Matrix: (Units=1/GPa)
#
#
# Indices 1 2 3 4 5 6 
#
# 1 0.009256 -0.003577 -0.002030 0.000000 0.000000 0.000000
# 2 -0.003577 0.026909 -0.004210 0.000000 0.000000 0.000000
# 3 -0.002030 -0.004210 0.010179 0.000000 0.000000 0.000000
# 4 0.000000 0.000000 0.000000 0.037146 0.000000 0.000000
# 5 0.000000 0.000000 0.000000 0.000000 0.029097 0.000000
# 6 0.000000 0.000000 0.000000 0.000000 0.000000 0.057029
#
#
# Mechanical properties :
#
#
# Convention : Reuss Voigt Hill
#
# Bulk Modulus (GPa) = 37.43996 48.56389 43.00193
# Shear Modulus (GPa) = 25.23285 29.35214 27.29250
#
# Velocity S-wave (km/s) = 3.63309 3.91844 3.77846
# Velocity P-wave (km/s) = 6.09787 6.77318 6.44438
#
# Compressibility (1/GPa) = 0.02670943
#
# Stress axis : x y z
#
# Youngs Moduli (GPa) = 108.04049 37.16233 98.23679
#
# Poissons Ratio (x) = 0.13294 0.19940
# Poissons Ratio (y) = 0.38648 0.41362
# Poissons Ratio (z) = 0.21930 0.15647
#
# Static dielectric constant tensor:
#      x y z
#    x 3.750730 0.000000 0.000000 
#    y 0.000000 3.437220 0.000000 
#    z 0.000000 0.000000 3.786180 
# 
# 
# High freq. dielectric constant tensor:
#      x y z
#    x 1.732900 0.000000 0.000000 
#    y 0.000000 1.690560 0.000000 
#    z 0.000000 0.000000 1.775300 
# 
# From -- ./inp_files/9214.got.cif
#   From: 2010.03.12/outbox.cif.g09.slc.cpg/sg68_5_cif.got.tgz:9214.got - 2010.04.10 23:14:56.
