data_PCOD8282635
_publ_section_title
;
Structure prediction by ZEFSAII (Michael W. Deem and Ramdas Pophale) SiO2 
 PCOD8282635
Probable space group: C C C A
;
_chemical_formula_sum "Si O2"
_cell_formula_units_Z 104
_cell_length_a 9.050066
_cell_length_b 18.740409
_cell_length_c 28.463636
_cell_angle_alpha 90.000000
_cell_angle_beta 90.000000
_cell_angle_gamma 90.000000
_cell_volume 4827.487837
_symmetry_space_group_name_H-M "C C C A"
_symmetry_group_IT_number 68
_space_group.IT_coordinate_system_code '2'
_symmetry_cell_setting 'orthorhombic'
loop_
_space_group_symop_operation_xyz
x,y,z
-x,1/2-y,z
x,1/2-y,1/2-z
-x,y,1/2-z
-x,-y,-z
x,1/2+y,-z
-x,1/2+y,1/2+z
x,-y,1/2+z
1/2+x,1/2+y,z
1/2-x,-y,z
1/2+x,-y,1/2-z
1/2-x,1/2+y,1/2-z
1/2-x,1/2-y,-z
1/2+x,y,-z
1/2-x,y,1/2+z
1/2+x,1/2-y,1/2+z
loop_
_atom_site_type_symbol
_atom_site_label
_atom_site_fract_x
_atom_site_fract_y
_atom_site_fract_z
Si Si1 0.043602 0.832028 0.039641
Si Si2 0.014877 0.668752 0.354829
Si Si3 0.750405 0.082929 0.526769
Si Si4 0.315697 0.876680 0.371904
Si Si5 0.000000 0.750000 0.839142
Si Si6 0.239724 0.184481 0.720776
Si Si7 0.140658 0.061437 0.279088
O O1 0.092249 0.835996 0.094133
O O2 0.000000 0.750000 0.026445
O O3 0.914844 0.888578 0.031072
O O4 0.178341 0.861728 0.009515
O O5 0.125612 0.641653 0.313652
O O6 0.000000 0.750000 0.340383
O O7 0.855805 0.631045 0.356080
O O8 0.668250 0.088331 0.576934
O O9 0.750000 0.000000 0.509895
O O10 0.402050 0.801388 0.372466
O O11 0.392089 0.930644 0.334914
O O12 0.111789 0.704968 0.807224
O O13 0.167966 0.250000 0.750000
O O14 0.289382 0.135263 0.763245
O O15 0.000000 0.039833 0.250000
O O16 0.250000 0.000000 0.267275
#
# Coordination Sequence:
#
# PCOD8282635 Si02
#       7
#    16  16  16  16   8  16  16
#     4  10  23  43  70  99 135 167 227 280 334 401
#     4  10  21  39  62  99 130 161 212 276 329 386
#     4  11  24  45  69 100 134 180 218 278 350 413
#     4  11  24  41  66  92 135 170 218 274 332 398
#     4  12  21  40  66  94 126 164 220 276 321 374
#     4  12  22  41  67  94 125 169 222 270 322 385
#     4  12  26  43  59  91 133 173 217 269 326 400
#
# _framework density 21.543296999999999
#
# number of rings (size 3 to 8) (size 9 to 14) (size 15 to 20)
#    0.000    0.923    4.615    1.615    3.231    2.769 
#    0.000    0.769    0.000    0.000    0.000    0.000 
#    0.000    0.000    0.000    0.000    0.000    0.000 
#
# Total GULP energy -644616.441826 kJ/mol
# GULP energy per Si atom -12396.470035 kJ/mol
# Density = 2.149426 g / cm^3
# Si number density = 21.543297 Si / 1000 Ang^3
#
#
#
# Elastic Constant Matrix: (Units=GPa)
#
#
# Indices 1 2 3 4 5 6 
#
# 1 71.0335 15.5413 34.2628 0.0000 0.0000 0.0000
# 2 15.5413 92.2831 8.9774 0.0000 0.0000 0.0000
# 3 34.2628 8.9774 102.6095 0.0000 0.0000 0.0000
# 4 0.0000 0.0000 0.0000 3.4781 0.0000 0.0000
# 5 0.0000 0.0000 0.0000 0.0000 20.0288 0.0000
# 6 0.0000 0.0000 0.0000 0.0000 0.0000 9.3762
#
#
#
# Elastic Compliance Matrix: (Units=1/GPa)
#
#
# Indices 1 2 3 4 5 6 
#
# 1 0.017279 -0.002369 -0.005563 0.000000 0.000000 0.000000
# 2 -0.002369 0.011254 -0.000194 0.000000 0.000000 0.000000
# 3 -0.005563 -0.000194 0.011620 0.000000 0.000000 0.000000
# 4 0.000000 0.000000 0.000000 0.287514 0.000000 0.000000
# 5 0.000000 0.000000 0.000000 0.000000 0.049928 0.000000
# 6 0.000000 0.000000 0.000000 0.000000 0.000000 0.106653
#
#
# Mechanical properties :
#
#
# Convention : Reuss Voigt Hill
#
# Bulk Modulus (GPa) = 41.83535 42.60990 42.22262
# Shear Modulus (GPa) = 9.83351 20.38625 15.10988
#
# Velocity S-wave (km/s) = 2.13879 3.07952 2.65122
# Velocity P-wave (km/s) = 5.05575 5.69792 5.38641
#
# Compressibility (1/GPa) = 0.02390323
#
# Stress axis : x y z
#
# Youngs Moduli (GPa) = 57.87299 88.85732 86.05820
#
# Poissons Ratio (x) = 0.21049 0.47870
# Poissons Ratio (y) = 0.13709 0.01666
# Poissons Ratio (z) = 0.32192 0.01721
#
# Static dielectric constant tensor:
#      x y z
#    x 5.256860 0.000000 0.000000 
#    y 0.000000 3.582010 0.000000 
#    z 0.000000 0.000000 4.104910 
# 
# 
# High freq. dielectric constant tensor:
#      x y z
#    x 1.841630 0.000000 0.000000 
#    y 0.000000 1.835870 0.000000 
#    z 0.000000 0.000000 1.856320 
# 
# From -- ./inp_files/54142.got.cif
#   From: 2010.03.12/outbox.cif.g09.slc.cpg/sg68_28_cif.got.tgz:54142.got - 2010.04.10 23:14:56.
