data_PCOD8282726
_publ_section_title
;
Structure prediction by ZEFSAII (Michael W. Deem and Ramdas Pophale) SiO2 
 PCOD8282726
Probable space group: C C C A
;
_chemical_formula_sum "Si O2"
_cell_formula_units_Z 40
_cell_length_a 4.980131
_cell_length_b 13.604728
_cell_length_c 26.301930
_cell_angle_alpha 90.000000
_cell_angle_beta 90.000000
_cell_angle_gamma 90.000000
_cell_volume 1782.043281
_symmetry_space_group_name_H-M "C C C A"
_symmetry_group_IT_number 68
_space_group.IT_coordinate_system_code '2'
_symmetry_cell_setting 'orthorhombic'
loop_
_space_group_symop_operation_xyz
x,y,z
-x,1/2-y,z
x,1/2-y,1/2-z
-x,y,1/2-z
-x,-y,-z
x,1/2+y,-z
-x,1/2+y,1/2+z
x,-y,1/2+z
1/2+x,1/2+y,z
1/2-x,-y,z
1/2+x,-y,1/2-z
1/2-x,1/2+y,1/2-z
1/2-x,1/2-y,-z
1/2+x,y,-z
1/2-x,y,1/2+z
1/2+x,1/2-y,1/2+z
loop_
_atom_site_type_symbol
_atom_site_label
_atom_site_fract_x
_atom_site_fract_y
_atom_site_fract_z
Si Si1 0.750000 0.000000 0.536204
Si Si2 0.227904 0.188106 0.395623
Si Si3 0.996545 0.431177 0.307594
O O1 0.796004 0.093544 0.571695
O O2 0.500000 0.000000 0.500000
O O3 0.500000 0.250000 0.383832
O O4 0.000000 0.250000 0.426398
O O5 0.056117 0.160214 0.344745
O O6 0.250000 0.500000 0.321646
O O7 0.000000 0.390512 0.250000
O O8 0.750000 0.500000 0.316228
#
# Coordination Sequence:
#
# PCOD8282726 Si02
#       3
#     8  16  16
#     4  12  28  48  74 100 138 182 232 298 358 408
#     4  12  26  44  74 105 140 181 233 288 350 421
#     4  10  21  41  70 101 140 188 230 277 342 418
#
# _framework density 22.446144
#
# number of rings (size 3 to 8) (size 9 to 14) (size 15 to 20)
#    0.000    0.800    2.000    4.800    2.800    5.600 
#    0.000    2.000    0.000    0.000    0.000    0.000 
#    0.000    0.000    0.000    0.000    0.000    0.000 
#
# Total GULP energy -247814.329112 kJ/mol
# GULP energy per Si atom -12390.716456 kJ/mol
# Density = 2.239506 g / cm^3
# Si number density = 22.446144 Si / 1000 Ang^3
#
#
#
# Elastic Constant Matrix: (Units=GPa)
#
#
# Indices 1 2 3 4 5 6 
#
# 1 210.2504 74.4877 60.7470 0.0000 0.0000 0.0000
# 2 74.4877 146.3095 73.4316 0.0000 0.0000 0.0000
# 3 60.7470 73.4316 125.7551 0.0000 0.0000 0.0000
# 4 0.0000 0.0000 0.0000 -0.4163 0.0000 0.0000
# 5 0.0000 0.0000 0.0000 0.0000 38.6062 0.0000
# 6 0.0000 0.0000 0.0000 0.0000 0.0000 67.0659
#
#
#
# Elastic Compliance Matrix: (Units=1/GPa)
#
#
# Indices 1 2 3 4 5 6 
#
# 1 0.006017 -0.002270 -0.001581 0.000000 0.000000 0.000000
# 2 -0.002270 0.010525 -0.005049 0.000000 0.000000 0.000000
# 3 -0.001581 -0.005049 0.011664 0.000000 0.000000 0.000000
# 4 0.000000 0.000000 0.000000 -2.401844 0.000000 0.000000
# 5 0.000000 0.000000 0.000000 0.000000 0.025903 0.000000
# 6 0.000000 0.000000 0.000000 0.000000 0.000000 0.014911
#
#
# Mechanical properties :
#
#
# Convention : Reuss Voigt Hill
#
# Bulk Modulus (GPa) = 96.10287 99.96086 98.03187
# Shear Modulus (GPa) = -2.16305 39.29439 18.56567
#
# Velocity S-wave (km/s) = -0.98273 4.18857 2.87909
# Velocity P-wave (km/s) = 6.45137 8.24757 7.40414
#
# Compressibility (1/GPa) = 0.01040552
#
# Stress axis : x y z
#
# Youngs Moduli (GPa) = 166.18851 95.01629 85.73319
#
# Poissons Ratio (x) = 0.21567 0.13557
# Poissons Ratio (y) = 0.37722 0.43287
# Poissons Ratio (z) = 0.26279 0.47974
#
# Static dielectric constant tensor:
#      x y z
#    x 4.089240 0.000000 0.000000 
#    y 0.000000 4.303530 0.000000 
#    z 0.000000 0.000000 3.336380 
# 
# 
# High freq. dielectric constant tensor:
#      x y z
#    x 1.911680 0.000000 0.000000 
#    y 0.000000 1.899410 0.000000 
#    z 0.000000 0.000000 1.881730 
# 
# From -- ./inp_files/47677.got.cif
#   From: 2010.03.12/outbox.cif.g09.slc.cpg/sg68_24_cif.got.tgz:47677.got - 2010.04.10 23:14:56.
