data_PCOD8282391
_publ_section_title
;
Structure prediction by ZEFSAII (Michael W. Deem and Ramdas Pophale) SiO2 
 PCOD8282391
Probable space group: C C C A
;
_chemical_formula_sum "Si O2"
_cell_formula_units_Z 104
_cell_length_a 20.749537
_cell_length_b 23.400818
_cell_length_c 10.055507
_cell_angle_alpha 90.000000
_cell_angle_beta 90.000000
_cell_angle_gamma 90.000000
_cell_volume 4882.513154
_symmetry_space_group_name_H-M "C C C A"
_symmetry_group_IT_number 68
_space_group.IT_coordinate_system_code '2'
_symmetry_cell_setting 'orthorhombic'
loop_
_space_group_symop_operation_xyz
x,y,z
-x,1/2-y,z
x,1/2-y,1/2-z
-x,y,1/2-z
-x,-y,-z
x,1/2+y,-z
-x,1/2+y,1/2+z
x,-y,1/2+z
1/2+x,1/2+y,z
1/2-x,-y,z
1/2+x,-y,1/2-z
1/2-x,1/2+y,1/2-z
1/2-x,1/2-y,-z
1/2+x,y,-z
1/2-x,y,1/2+z
1/2+x,1/2-y,1/2+z
loop_
_atom_site_type_symbol
_atom_site_label
_atom_site_fract_x
_atom_site_fract_y
_atom_site_fract_z
Si Si1 0.645945 0.072475 0.471652
Si Si2 0.931151 0.271034 0.442926
Si Si3 0.790762 0.114999 0.718811
Si Si4 0.108500 0.648865 0.001322
Si Si5 0.655396 0.349509 0.784988
Si Si6 0.750000 0.500000 0.418017
Si Si7 0.523474 0.376723 0.100997
O O1 0.686574 0.112742 0.371578
O O2 0.636597 0.100136 0.615583
O O3 0.572335 0.068516 0.413574
O O4 0.686244 0.013469 0.490486
O O5 0.896817 0.217293 0.510983
O O6 0.886460 0.293490 0.321275
O O7 0.938278 0.319588 0.555882
O O8 0.000000 0.250000 0.384953
O O9 0.849396 0.131782 0.626487
O O10 0.732647 0.161063 0.707034
O O11 0.764716 0.053283 0.675318
O O12 0.139618 0.629219 0.863201
O O13 0.039605 0.616553 0.009060
O O14 0.500000 0.368693 0.250000
#
# Coordination Sequence:
#
# PCOD8282391 Si02
#       7
#    16  16  16  16  16   8  16
#     4  10  21  40  65  93 123 161 209 266 318 388
#     4   9  21  36  59  87 124 172 213 255 310 381
#     4  11  22  40  63  89 122 161 207 266 324 387
#     4  11  22  37  62  90 127 167 212 257 317 377
#     4  10  21  37  58  90 125 164 212 261 312 375
#     4  10  22  40  68  92 116 162 212 258 330 390
#     4  10  20  40  64  93 130 165 212 261 313 373
#
# _framework density 21.300507
#
# number of rings (size 3 to 8) (size 9 to 14) (size 15 to 20)
#    0.000    1.846    1.538    2.769    0.000   12.000 
#    0.000    3.846    0.000    0.000    0.000    0.000 
#    0.000    0.000    0.000    0.000    0.000    0.000 
#
# Total GULP energy -644457.904546 kJ/mol
# GULP energy per Si atom -12393.421241 kJ/mol
# Density = 2.125203 g / cm^3
# Si number density = 21.300507 Si / 1000 Ang^3
#
#
#
# Elastic Constant Matrix: (Units=GPa)
#
#
# Indices 1 2 3 4 5 6 
#
# 1 150.0885 48.7412 29.7428 0.0000 0.0000 0.0000
# 2 48.7412 61.1213 20.2657 0.0000 0.0000 0.0000
# 3 29.7428 20.2657 101.4108 0.0000 0.0000 0.0000
# 4 0.0000 0.0000 0.0000 23.4982 0.0000 0.0000
# 5 0.0000 0.0000 0.0000 0.0000 40.4227 0.0000
# 6 0.0000 0.0000 0.0000 0.0000 0.0000 43.1466
#
#
#
# Elastic Compliance Matrix: (Units=1/GPa)
#
#
# Indices 1 2 3 4 5 6 
#
# 1 0.009152 -0.006863 -0.001313 0.000000 0.000000 0.000000
# 2 -0.006863 0.022668 -0.002517 0.000000 0.000000 0.000000
# 3 -0.001313 -0.002517 0.010749 0.000000 0.000000 0.000000
# 4 0.000000 0.000000 0.000000 0.042556 0.000000 0.000000
# 5 0.000000 0.000000 0.000000 0.000000 0.024739 0.000000
# 6 0.000000 0.000000 0.000000 0.000000 0.000000 0.023177
#
#
# Mechanical properties :
#
#
# Convention : Reuss Voigt Hill
#
# Bulk Modulus (GPa) = 47.20636 56.68000 51.94318
# Shear Modulus (GPa) = 30.96231 35.67154 33.31692
#
# Velocity S-wave (km/s) = 3.81674 4.09673 3.95921
# Velocity P-wave (km/s) = 6.45241 7.00321 6.73344
#
# Compressibility (1/GPa) = 0.02118359
#
# Stress axis : x y z
#
# Youngs Moduli (GPa) = 109.27169 44.11473 93.03276
#
# Poissons Ratio (x) = 0.30274 0.12212
# Poissons Ratio (y) = 0.74989 0.23418
# Poissons Ratio (z) = 0.14343 0.11105
#
# Static dielectric constant tensor:
#      x y z
#    x 4.453600 0.000000 0.000000 
#    y 0.000000 3.654550 0.000000 
#    z 0.000000 0.000000 3.843120 
# 
# 
# High freq. dielectric constant tensor:
#      x y z
#    x 1.855140 0.000000 0.000000 
#    y 0.000000 1.794500 0.000000 
#    z 0.000000 0.000000 1.845980 
# 
# From -- ./inp_files/7357.got.cif
#   From: 2010.03.12/outbox.cif.g09.slc.cpg/sg68_4_cif.got.tgz:7357.got - 2010.04.10 23:14:56.
