data_PCOD8282943
_publ_section_title
;
Structure prediction by ZEFSAII (Michael W. Deem and Ramdas Pophale) SiO2 
 PCOD8282943
Probable space group: C C C A
;
_chemical_formula_sum "Si O2"
_cell_formula_units_Z 64
_cell_length_a 10.141244
_cell_length_b 17.510186
_cell_length_c 13.733941
_cell_angle_alpha 90.000000
_cell_angle_beta 90.000000
_cell_angle_gamma 90.000000
_cell_volume 2438.805517
_symmetry_space_group_name_H-M "C C C A"
_symmetry_group_IT_number 68
_space_group.IT_coordinate_system_code '2'
_symmetry_cell_setting 'orthorhombic'
loop_
_space_group_symop_operation_xyz
x,y,z
-x,1/2-y,z
x,1/2-y,1/2-z
-x,y,1/2-z
-x,-y,-z
x,1/2+y,-z
-x,1/2+y,1/2+z
x,-y,1/2+z
1/2+x,1/2+y,z
1/2-x,-y,z
1/2+x,-y,1/2-z
1/2-x,1/2+y,1/2-z
1/2-x,1/2-y,-z
1/2+x,y,-z
1/2-x,y,1/2+z
1/2+x,1/2-y,1/2+z
loop_
_atom_site_type_symbol
_atom_site_label
_atom_site_fract_x
_atom_site_fract_y
_atom_site_fract_z
Si Si1 0.378102 0.947483 0.024776
Si Si2 0.785284 0.163684 0.086325
Si Si3 0.380663 0.196083 0.110836
Si Si4 0.215488 0.585510 0.777741
O O1 0.390193 0.912126 0.133823
O O2 0.250000 0.000000 0.027263
O O3 0.351198 0.880728 0.945104
O O4 0.500000 0.000000 0.000000
O O5 0.750940 0.251534 0.107339
O O6 0.846396 0.125677 0.182662
O O7 0.894192 0.158838 0.998408
O O8 0.500000 0.250000 0.143855
O O9 0.350826 0.129975 0.189544
O O10 0.250000 0.500000 0.745872
#
# Coordination Sequence:
#
# PCOD8282943 Si02
#       4
#    16  16  16  16
#     4  10  23  43  70 103 151 195 241 312 388 448
#     4  10  22  41  71 100 145 197 253 316 381 464
#     4  10  23  43  72 102 147 200 251 315 392 470
#     4  10  22  42  68 108 145 193 253 315 374 463
#
# _framework density 26.242355
#
# number of rings (size 3 to 8) (size 9 to 14) (size 15 to 20)
#    0.000    2.000    0.000    1.500   10.500    3.000 
#    0.000    6.250    5.500    0.000    0.000    0.000 
#    0.000    0.000    0.000    0.000    0.000    0.000 
#
# Total GULP energy -396751.179376 kJ/mol
# GULP energy per Si atom -12398.474356 kJ/mol
# Density = 2.618263 g / cm^3
# Si number density = 26.242355 Si / 1000 Ang^3
#
#
#
# Elastic Constant Matrix: (Units=GPa)
#
#
# Indices 1 2 3 4 5 6 
#
# 1 94.2223 23.5422 18.6356 0.0000 0.0000 0.0000
# 2 23.5422 134.4791 55.2463 0.0000 0.0000 0.0000
# 3 18.6356 55.2463 168.4003 0.0000 0.0000 0.0000
# 4 0.0000 0.0000 0.0000 45.1887 0.0000 0.0000
# 5 0.0000 0.0000 0.0000 0.0000 13.8159 0.0000
# 6 0.0000 0.0000 0.0000 0.0000 0.0000 49.2845
#
#
#
# Elastic Compliance Matrix: (Units=1/GPa)
#
#
# Indices 1 2 3 4 5 6 
#
# 1 0.011167 -0.001673 -0.000687 0.000000 0.000000 0.000000
# 2 -0.001673 0.008845 -0.002717 0.000000 0.000000 0.000000
# 3 -0.000687 -0.002717 0.006905 0.000000 0.000000 0.000000
# 4 0.000000 0.000000 0.000000 0.022129 0.000000 0.000000
# 5 0.000000 0.000000 0.000000 0.000000 0.072380 0.000000
# 6 0.000000 0.000000 0.000000 0.000000 0.000000 0.020290
#
#
# Mechanical properties :
#
#
# Convention : Reuss Voigt Hill
#
# Bulk Modulus (GPa) = 59.64875 65.77223 62.71049
# Shear Modulus (GPa) = 31.75444 41.63634 36.69539
#
# Velocity S-wave (km/s) = 3.48234 3.98755 3.74348
# Velocity P-wave (km/s) = 6.24085 6.80577 6.52942
#
# Compressibility (1/GPa) = 0.01676481
#
# Stress axis : x y z
#
# Youngs Moduli (GPa) = 89.54944 113.05876 144.81230
#
# Poissons Ratio (x) = 0.18911 0.09949
# Poissons Ratio (y) = 0.14979 0.39340
# Poissons Ratio (z) = 0.06152 0.30714
#
# Static dielectric constant tensor:
#      x y z
#    x 3.272020 0.000000 0.000000 
#    y 0.000000 5.146710 0.000000 
#    z 0.000000 0.000000 5.031770 
# 
# 
# High freq. dielectric constant tensor:
#      x y z
#    x 2.003670 0.000000 0.000000 
#    y 0.000000 2.079120 0.000000 
#    z 0.000000 0.000000 2.058860 
# 
# From -- ./inp_files/20409.got.cif
#   From: 2010.03.12/outbox.cif.g09.slc.cpg/sg68_11_cif.got.tgz:20409.got - 2010.04.10 23:14:56.
