data_PCOD8282073
_publ_section_title
;
Structure prediction by ZEFSAII (Michael W. Deem and Ramdas Pophale) SiO2 
 PCOD8282073
Probable space group: C C C A
;
_chemical_formula_sum "Si O2"
_cell_formula_units_Z 96
_cell_length_a 20.416819
_cell_length_b 12.578786
_cell_length_c 18.378099
_cell_angle_alpha 90.000000
_cell_angle_beta 90.000000
_cell_angle_gamma 90.000000
_cell_volume 4719.841276
_symmetry_space_group_name_H-M "C C C A"
_symmetry_group_IT_number 68
_space_group.IT_coordinate_system_code '2'
_symmetry_cell_setting 'orthorhombic'
loop_
_space_group_symop_operation_xyz
x,y,z
-x,1/2-y,z
x,1/2-y,1/2-z
-x,y,1/2-z
-x,-y,-z
x,1/2+y,-z
-x,1/2+y,1/2+z
x,-y,1/2+z
1/2+x,1/2+y,z
1/2-x,-y,z
1/2+x,-y,1/2-z
1/2-x,1/2+y,1/2-z
1/2-x,1/2-y,-z
1/2+x,y,-z
1/2-x,y,1/2+z
1/2+x,1/2-y,1/2+z
loop_
_atom_site_type_symbol
_atom_site_label
_atom_site_fract_x
_atom_site_fract_y
_atom_site_fract_z
Si Si1 0.873256 0.892070 0.038739
Si Si2 0.105135 0.663768 0.443648
Si Si3 0.157484 0.718494 0.829445
Si Si4 0.076495 0.097631 0.403119
Si Si5 0.931848 0.953109 0.885020
Si Si6 0.252843 0.618899 0.442537
O O1 0.902557 0.787170 0.079138
O O2 0.880258 0.989829 0.094210
O O3 0.914859 0.913907 0.966059
O O4 0.797624 0.876573 0.015145
O O5 0.062782 0.641869 0.515896
O O6 0.083145 0.580790 0.380651
O O7 0.180667 0.649797 0.467359
O O8 0.183499 0.750000 0.750000
O O9 0.113066 0.815132 0.856268
O O10 0.113368 0.610954 0.827998
O O11 0.220230 0.699028 0.880779
O O12 0.007012 0.070452 0.366279
O O13 0.250000 0.500000 0.409683
#
# Coordination Sequence:
#
# PCOD8282073 Si02
#       6
#    16  16  16  16  16  16
#     4  10  20  31  55  89 120 146 181 235 300 363
#     4  11  19  34  59  87 122 148 185 237 310 357
#     4  11  24  41  59  83 112 158 211 245 282 341
#     4  11  21  34  54  90 118 152 193 234 293 351
#     4  10  21  34  56  85 121 156 189 236 290 350
#     4  11  19  37  60  83 117 153 190 241 305 350
#
# _framework density 20.339666999999999
#
# number of rings (size 3 to 8) (size 9 to 14) (size 15 to 20)
#    0.000    1.333    8.333    3.000    0.000    3.333 
#    0.000    1.667    0.000    0.000    0.000    2.333 
#    0.000    0.000    0.000    0.000    0.000    0.000 
#
# Total GULP energy -594997.014033 kJ/mol
# GULP energy per Si atom -12395.771126 kJ/mol
# Density = 2.029337 g / cm^3
# Si number density = 20.339667 Si / 1000 Ang^3
#
#
#
# Elastic Constant Matrix: (Units=GPa)
#
#
# Indices 1 2 3 4 5 6 
#
# 1 67.0011 -1.2529 0.4127 0.0000 0.0000 0.0000
# 2 -1.2529 142.6169 13.4548 0.0000 0.0000 0.0000
# 3 0.4127 13.4548 33.1677 0.0000 0.0000 0.0000
# 4 0.0000 0.0000 0.0000 21.1497 0.0000 0.0000
# 5 0.0000 0.0000 0.0000 0.0000 7.5632 0.0000
# 6 0.0000 0.0000 0.0000 0.0000 0.0000 30.5683
#
#
#
# Elastic Compliance Matrix: (Units=1/GPa)
#
#
# Indices 1 2 3 4 5 6 
#
# 1 0.014930 0.000155 -0.000248 0.000000 0.000000 0.000000
# 2 0.000155 0.007292 -0.002960 0.000000 0.000000 0.000000
# 3 -0.000248 -0.002960 0.031354 0.000000 0.000000 0.000000
# 4 0.000000 0.000000 0.000000 0.047282 0.000000 0.000000
# 5 0.000000 0.000000 0.000000 0.000000 0.132220 0.000000
# 6 0.000000 0.000000 0.000000 0.000000 0.000000 0.032714
#
#
# Mechanical properties :
#
#
# Convention : Reuss Voigt Hill
#
# Bulk Modulus (GPa) = 21.06701 29.77944 25.42322
# Shear Modulus (GPa) = 17.37790 27.20098 22.28944
#
# Velocity S-wave (km/s) = 2.92616 3.66093 3.31397
# Velocity P-wave (km/s) = 4.66868 5.70462 5.21245
#
# Compressibility (1/GPa) = 0.04746759
#
# Stress axis : x y z
#
# Youngs Moduli (GPa) = 66.98130 137.12869 31.89415
#
# Poissons Ratio (x) = -0.02120 0.00792
# Poissons Ratio (y) = -0.01035 0.09441
# Poissons Ratio (z) = 0.01664 0.40592
#
# Static dielectric constant tensor:
#      x y z
#    x 3.717050 0.000000 0.000000 
#    y 0.000000 4.373340 0.000000 
#    z 0.000000 0.000000 3.098840 
# 
# 
# High freq. dielectric constant tensor:
#      x y z
#    x 1.798740 0.000000 0.000000 
#    y 0.000000 1.823270 0.000000 
#    z 0.000000 0.000000 1.709730 
# 
# From -- ./inp_files/40211.got.cif
#   From: 2010.03.12/outbox.cif.g09.slc.cpg/sg68_21_cif.got.tgz:40211.got - 2010.04.10 23:14:56.
