data_PCOD8282472
_publ_section_title
;
Structure prediction by ZEFSAII (Michael W. Deem and Ramdas Pophale) SiO2 
 PCOD8282472
Probable space group: C C C A
;
_chemical_formula_sum "Si O2"
_cell_formula_units_Z 52
_cell_length_a 5.183927
_cell_length_b 13.985816
_cell_length_c 29.260990
_cell_angle_alpha 90.000000
_cell_angle_beta 90.000000
_cell_angle_gamma 90.000000
_cell_volume 2121.464179
_symmetry_space_group_name_H-M "C C C A"
_symmetry_group_IT_number 68
_space_group.IT_coordinate_system_code '2'
_symmetry_cell_setting 'orthorhombic'
loop_
_space_group_symop_operation_xyz
x,y,z
-x,1/2-y,z
x,1/2-y,1/2-z
-x,y,1/2-z
-x,-y,-z
x,1/2+y,-z
-x,1/2+y,1/2+z
x,-y,1/2+z
1/2+x,1/2+y,z
1/2-x,-y,z
1/2+x,-y,1/2-z
1/2-x,1/2+y,1/2-z
1/2-x,1/2-y,-z
1/2+x,y,-z
1/2-x,y,1/2+z
1/2+x,1/2-y,1/2+z
loop_
_atom_site_type_symbol
_atom_site_label
_atom_site_fract_x
_atom_site_fract_y
_atom_site_fract_z
Si Si1 0.248907 0.612944 0.820649
Si Si2 0.000000 0.750000 0.750000
Si Si3 0.249458 0.611169 0.622875
Si Si4 0.230391 0.645305 0.019964
O O1 0.250000 0.500000 0.806981
O O2 0.525178 0.641725 0.841928
O O3 0.192796 0.679550 0.777270
O O4 0.027611 0.639723 0.857042
O O5 0.250000 0.500000 0.613313
O O6 0.293346 0.659248 0.574173
O O7 0.250000 0.750000 0.000000
O O8 0.487262 0.589992 0.002871
#
# Coordination Sequence:
#
# PCOD8282472 Si02
#       4
#    16   4  16  16
#     4  10  25  46  70 101 137 176 229 288 345 426
#     4  12  28  46  80 108 136 186 232 294 376 424
#     4  10  22  43  65  91 135 182 221 278 348 406
#     4  10  21  35  57  89 125 167 217 274 321 385
#
# _framework density 24.511374
#
# number of rings (size 3 to 8) (size 9 to 14) (size 15 to 20)
#    0.000    1.846    0.000    1.846    0.000   16.000 
#    0.000    0.000    0.000    0.000    0.000    0.000 
#    0.000    0.000    0.000    0.000    0.000    0.000 
#
# Total GULP energy -322279.597833 kJ/mol
# GULP energy per Si atom -12395.369147 kJ/mol
# Density = 2.445558 g / cm^3
# Si number density = 24.511374 Si / 1000 Ang^3
#
#
#
# Elastic Constant Matrix: (Units=GPa)
#
#
# Indices 1 2 3 4 5 6 
#
# 1 192.3931 17.0310 50.0460 0.0000 0.0000 0.0000
# 2 17.0310 91.8945 63.6480 0.0000 0.0000 0.0000
# 3 50.0460 63.6480 170.0088 0.0000 0.0000 0.0000
# 4 0.0000 0.0000 0.0000 128.6101 0.0000 0.0000
# 5 0.0000 0.0000 0.0000 0.0000 106.5583 0.0000
# 6 0.0000 0.0000 0.0000 0.0000 0.0000 8.6637
#
#
#
# Elastic Compliance Matrix: (Units=1/GPa)
#
#
# Indices 1 2 3 4 5 6 
#
# 1 0.005630 0.000141 -0.001710 0.000000 0.000000 0.000000
# 2 0.000141 0.014695 -0.005543 0.000000 0.000000 0.000000
# 3 -0.001710 -0.005543 0.008461 0.000000 0.000000 0.000000
# 4 0.000000 0.000000 0.000000 0.007775 0.000000 0.000000
# 5 0.000000 0.000000 0.000000 0.000000 0.009385 0.000000
# 6 0.000000 0.000000 0.000000 0.000000 0.000000 0.115424
#
#
# Mechanical properties :
#
#
# Convention : Reuss Voigt Hill
#
# Bulk Modulus (GPa) = 68.67414 79.52738 74.10076
# Shear Modulus (GPa) = 27.70872 70.33786 49.02329
#
# Velocity S-wave (km/s) = 3.36585 5.36268 4.47701
# Velocity P-wave (km/s) = 6.57141 8.41783 7.55127
#
# Compressibility (1/GPa) = 0.01456152
#
# Stress axis : x y z
#
# Youngs Moduli (GPa) = 177.61820 68.04960 118.19350
#
# Poissons Ratio (x) = -0.00960 0.20213
# Poissons Ratio (y) = -0.02505 0.65516
# Poissons Ratio (z) = 0.30375 0.37721
#
# Static dielectric constant tensor:
#      x y z
#    x 2.851480 0.000000 0.000000 
#    y 0.000000 4.492250 0.000000 
#    z 0.000000 0.000000 4.368600 
# 
# 
# High freq. dielectric constant tensor:
#      x y z
#    x 2.000290 0.000000 0.000000 
#    y 0.000000 1.979540 0.000000 
#    z 0.000000 0.000000 1.969520 
# 
# From -- ./inp_files/51119.got.cif
#   From: 2010.03.12/outbox.cif.g09.slc.cpg/sg68_26_cif.got.tgz:51119.got - 2010.04.10 23:14:56.
