data_PCOD8282797
_publ_section_title
;
Structure prediction by ZEFSAII (Michael W. Deem and Ramdas Pophale) SiO2 
 PCOD8282797
Probable space group: C C C A
;
_chemical_formula_sum "Si O2"
_cell_formula_units_Z 80
_cell_length_a 32.183982
_cell_length_b 21.610695
_cell_length_c 5.029745
_cell_angle_alpha 90.000000
_cell_angle_beta 90.000000
_cell_angle_gamma 90.000000
_cell_volume 3498.279284
_symmetry_space_group_name_H-M "C C C A"
_symmetry_group_IT_number 68
_space_group.IT_coordinate_system_code '2'
_symmetry_cell_setting 'orthorhombic'
loop_
_space_group_symop_operation_xyz
x,y,z
-x,1/2-y,z
x,1/2-y,1/2-z
-x,y,1/2-z
-x,-y,-z
x,1/2+y,-z
-x,1/2+y,1/2+z
x,-y,1/2+z
1/2+x,1/2+y,z
1/2-x,-y,z
1/2+x,-y,1/2-z
1/2-x,1/2+y,1/2-z
1/2-x,1/2-y,-z
1/2+x,y,-z
1/2-x,y,1/2+z
1/2+x,1/2-y,1/2+z
loop_
_atom_site_type_symbol
_atom_site_label
_atom_site_fract_x
_atom_site_fract_y
_atom_site_fract_z
Si Si1 0.473732 0.662182 0.015750
Si Si2 0.268837 0.068771 0.576070
Si Si3 0.938886 0.461643 0.283507
Si Si4 0.640193 0.109015 0.825742
Si Si5 0.118191 0.316239 0.846932
O O1 0.500000 0.664276 0.750000
O O2 0.468506 0.593235 0.127668
O O3 0.428986 0.692050 0.953943
O O4 0.500000 0.697361 0.250000
O O5 0.256637 0.104222 0.306073
O O6 0.317838 0.071160 0.621221
O O7 0.250000 0.000000 0.522386
O O8 0.947855 0.481147 0.980353
O O9 0.891049 0.440578 0.302514
O O10 0.646183 0.161538 0.597841
O O11 0.621303 0.136454 0.098950
O O12 0.135058 0.250000 0.750000
#
# Coordination Sequence:
#
# PCOD8282797 Si02
#       5
#    16  16  16  16  16
#     4  11  23  41  61  90 127 161 218 281 325 375
#     4  10  22  37  62  99 134 170 198 257 323 386
#     4  11  23  36  59  88 124 177 208 246 314 399
#     4  11  23  41  66  94 136 166 214 271 312 388
#     4  11  24  45  69  93 121 174 227 270 330 378
#
# _framework density 22.868387999999999
#
# number of rings (size 3 to 8) (size 9 to 14) (size 15 to 20)
#    0.000    1.200    0.000    7.800    5.600    2.800 
#    0.000    3.000    0.000   12.000    0.000    0.000 
#    0.000    0.000    0.000    0.000    0.000    0.000 
#
# Total GULP energy -495727.700711 kJ/mol
# GULP energy per Si atom -12393.192518 kJ/mol
# Density = 2.281634 g / cm^3
# Si number density = 22.868388 Si / 1000 Ang^3
#
#
#
# Elastic Constant Matrix: (Units=GPa)
#
#
# Indices 1 2 3 4 5 6 
#
# 1 92.9770 13.1264 23.5897 0.0000 0.0000 0.0000
# 2 13.1264 56.6486 10.0065 0.0000 0.0000 0.0000
# 3 23.5897 10.0065 159.7945 0.0000 0.0000 0.0000
# 4 0.0000 0.0000 0.0000 -287.7628 0.0000 0.0000
# 5 0.0000 0.0000 0.0000 0.0000 43.6000 0.0000
# 6 0.0000 0.0000 0.0000 0.0000 0.0000 9.9875
#
#
#
# Elastic Compliance Matrix: (Units=1/GPa)
#
#
# Indices 1 2 3 4 5 6 
#
# 1 0.011485 -0.002388 -0.001546 0.000000 0.000000 0.000000
# 2 -0.002388 0.018347 -0.000796 0.000000 0.000000 0.000000
# 3 -0.001546 -0.000796 0.006536 0.000000 0.000000 0.000000
# 4 0.000000 0.000000 0.000000 -0.003475 0.000000 0.000000
# 5 0.000000 0.000000 0.000000 0.000000 0.022936 0.000000
# 6 0.000000 0.000000 0.000000 0.000000 0.000000 0.100125
#
#
# Mechanical properties :
#
#
# Convention : Reuss Voigt Hill
#
# Bulk Modulus (GPa) = 37.16527 44.76281 40.96404
# Shear Modulus (GPa) = 28.67251 -29.32189 -0.32469
#
# Velocity S-wave (km/s) = 3.54475 -3.58467 -0.37721
# Velocity P-wave (km/s) = 5.74811 1.57590 4.21451
#
# Compressibility (1/GPa) = 0.02690684
#
# Stress axis : x y z
#
# Youngs Moduli (GPa) = 87.07221 54.50567 152.99603
#
# Poissons Ratio (x) = 0.13017 0.23652
# Poissons Ratio (y) = 0.20794 0.12184
# Poissons Ratio (z) = 0.13460 0.04341
#
# Static dielectric constant tensor:
#      x y z
#    x 3.506280 0.000000 0.000000 
#    y 0.000000 3.858550 0.000000 
#    z 0.000000 0.000000 5.036680 
# 
# 
# High freq. dielectric constant tensor:
#      x y z
#    x 1.892160 0.000000 0.000000 
#    y 0.000000 1.869540 0.000000 
#    z 0.000000 0.000000 1.942120 
# 
# From -- ./inp_files/2737.got.cif
#   From: 2010.03.12/outbox.cif.g09.slc.cpg/sg68_2_cif.got.tgz:2737.got - 2010.04.10 23:14:56.
