data_PCOD8282630
_publ_section_title
;
Structure prediction by ZEFSAII (Michael W. Deem and Ramdas Pophale) SiO2 
 PCOD8282630
Probable space group: C C C A
;
_chemical_formula_sum "Si O2"
_cell_formula_units_Z 64
_cell_length_a 15.679455
_cell_length_b 13.752492
_cell_length_c 12.343804
_cell_angle_alpha 90.000000
_cell_angle_beta 90.000000
_cell_angle_gamma 90.000000
_cell_volume 2661.713953
_symmetry_space_group_name_H-M "C C C A"
_symmetry_group_IT_number 68
_space_group.IT_coordinate_system_code '2'
_symmetry_cell_setting 'orthorhombic'
loop_
_space_group_symop_operation_xyz
x,y,z
-x,1/2-y,z
x,1/2-y,1/2-z
-x,y,1/2-z
-x,-y,-z
x,1/2+y,-z
-x,1/2+y,1/2+z
x,-y,1/2+z
1/2+x,1/2+y,z
1/2-x,-y,z
1/2+x,-y,1/2-z
1/2-x,1/2+y,1/2-z
1/2-x,1/2-y,-z
1/2+x,y,-z
1/2-x,y,1/2+z
1/2+x,1/2-y,1/2+z
loop_
_atom_site_type_symbol
_atom_site_label
_atom_site_fract_x
_atom_site_fract_y
_atom_site_fract_z
Si Si1 0.395833 0.839508 0.322909
Si Si2 0.703702 0.314594 0.354441
Si Si3 0.076329 0.184362 0.554561
Si Si4 0.653851 0.474086 0.210804
O O1 0.426779 0.750000 0.250000
O O2 0.302948 0.825930 0.375145
O O3 0.451642 0.848929 0.432850
O O4 0.400553 0.930266 0.240484
O O5 0.685757 0.250000 0.250000
O O6 0.656982 0.259459 0.452772
O O7 0.663326 0.419354 0.326289
O O8 0.099914 0.088252 0.623830
O O9 0.000000 0.250000 0.606231
O O10 0.750000 0.500000 0.165797
#
# Coordination Sequence:
#
# PCOD8282630 Si02
#       4
#    16  16  16  16
#     4  10  21  39  62  89 125 170 222 271 316 387
#     4   8  17  36  62  90 122 166 220 269 316 381
#     4  11  23  39  63  97 132 171 213 270 341 392
#     4   9  20  39  65  94 123 167 222 269 316 385
#
# _framework density 24.044657999999998
#
# number of rings (size 3 to 8) (size 9 to 14) (size 15 to 20)
#    0.000    2.500    0.000    2.250    0.000   10.000 
#    0.000    7.500    0.000    0.000    0.000    0.000 
#    0.000    0.000    0.000    0.000    0.000    0.000 
#
# Total GULP energy -396446.250359 kJ/mol
# GULP energy per Si atom -12388.945324 kJ/mol
# Density = 2.398993 g / cm^3
# Si number density = 24.044658 Si / 1000 Ang^3
#
#
#
# Elastic Constant Matrix: (Units=GPa)
#
#
# Indices 1 2 3 4 5 6 
#
# 1 62.5967 36.4203 25.6976 0.0000 0.0000 0.0000
# 2 36.4203 167.5683 65.9385 0.0000 0.0000 0.0000
# 3 25.6976 65.9385 123.3529 0.0000 0.0000 0.0000
# 4 0.0000 0.0000 0.0000 73.3422 0.0000 0.0000
# 5 0.0000 0.0000 0.0000 0.0000 22.4975 0.0000
# 6 0.0000 0.0000 0.0000 0.0000 0.0000 30.3783
#
#
#
# Elastic Compliance Matrix: (Units=1/GPa)
#
#
# Indices 1 2 3 4 5 6 
#
# 1 0.018743 -0.003213 -0.002187 0.000000 0.000000 0.000000
# 2 -0.003213 0.008108 -0.003665 0.000000 0.000000 0.000000
# 3 -0.002187 -0.003665 0.010522 0.000000 0.000000 0.000000
# 4 0.000000 0.000000 0.000000 0.013635 0.000000 0.000000
# 5 0.000000 0.000000 0.000000 0.000000 0.044449 0.000000
# 6 0.000000 0.000000 0.000000 0.000000 0.000000 0.032918
#
#
# Mechanical properties :
#
#
# Convention : Reuss Voigt Hill
#
# Bulk Modulus (GPa) = 51.96870 67.73675 59.85273
# Shear Modulus (GPa) = 32.69714 40.27436 36.48575
#
# Velocity S-wave (km/s) = 3.69162 4.09709 3.89963
# Velocity P-wave (km/s) = 6.31118 7.11435 6.72477
#
# Compressibility (1/GPa) = 0.01924235
#
# Stress axis : x y z
#
# Youngs Moduli (GPa) = 53.35464 123.33188 95.04333
#
# Poissons Ratio (x) = 0.39627 0.20786
# Poissons Ratio (y) = 0.17143 0.34832
# Poissons Ratio (z) = 0.11669 0.45200
#
# Static dielectric constant tensor:
#      x y z
#    x 3.544760 0.000000 0.000000 
#    y 0.000000 4.720330 0.000000 
#    z 0.000000 0.000000 3.890120 
# 
# 
# High freq. dielectric constant tensor:
#      x y z
#    x 1.947370 0.000000 0.000000 
#    y 0.000000 1.960920 0.000000 
#    z 0.000000 0.000000 1.934880 
# 
# From -- ./inp_files/14000.got.cif
#   From: 2010.03.12/outbox.cif.g09.slc.cpg/sg68_7_cif.got.tgz:14000.got - 2010.04.10 23:14:56.
