data_PCOD8282669
_publ_section_title
;
Structure prediction by ZEFSAII (Michael W. Deem and Ramdas Pophale) SiO2 
 PCOD8282669
Probable space group: C C C A
;
_chemical_formula_sum "Si O2"
_cell_formula_units_Z 52
_cell_length_a 17.417184
_cell_length_b 7.305832
_cell_length_c 21.728668
_cell_angle_alpha 90.000000
_cell_angle_beta 90.000000
_cell_angle_gamma 90.000000
_cell_volume 2764.908256
_symmetry_space_group_name_H-M "C C C A"
_symmetry_group_IT_number 68
_space_group.IT_coordinate_system_code '2'
_symmetry_cell_setting 'orthorhombic'
loop_
_space_group_symop_operation_xyz
x,y,z
-x,1/2-y,z
x,1/2-y,1/2-z
-x,y,1/2-z
-x,-y,-z
x,1/2+y,-z
-x,1/2+y,1/2+z
x,-y,1/2+z
1/2+x,1/2+y,z
1/2-x,-y,z
1/2+x,-y,1/2-z
1/2-x,1/2+y,1/2-z
1/2-x,1/2-y,-z
1/2+x,y,-z
1/2-x,y,1/2+z
1/2+x,1/2-y,1/2+z
loop_
_atom_site_type_symbol
_atom_site_label
_atom_site_fract_x
_atom_site_fract_y
_atom_site_fract_z
Si Si1 0.000000 0.250000 0.250000
Si Si2 0.663255 0.565687 0.431809
Si Si3 0.572998 0.852350 0.367455
Si Si4 0.915755 0.795649 0.447140
O O1 0.055942 0.371373 0.294033
O O2 0.750000 0.500000 0.431383
O O3 0.647530 0.724868 0.381358
O O4 0.613018 0.389112 0.414930
O O5 0.641170 0.645137 0.498630
O O6 0.500000 0.750000 0.399455
O O7 0.583844 0.052397 0.394505
O O8 0.000000 0.750000 0.473982
#
# Coordination Sequence:
#
# PCOD8282669 Si02
#       4
#     4  16  16  16
#     4   8  20  44  62  84 108 158 206 254 282 328
#     4  12  24  35  57  95 130 152 189 241 310 359
#     4  10  21  40  63  83 120 150 202 253 281 355
#     4  12  21  36  60  92 117 161 196 237 296 356
#
# _framework density 18.807134000000001
#
# number of rings (size 3 to 8) (size 9 to 14) (size 15 to 20)
#    0.923    0.000    6.154    2.769    0.000    0.000 
#    0.000    6.923    6.769    0.000    0.000    0.000 
#    0.000    0.000    0.000    0.000    0.000    0.000 
#
# Total GULP energy -322226.299178 kJ/mol
# GULP energy per Si atom -12393.319199 kJ/mol
# Density = 1.876433 g / cm^3
# Si number density = 18.807134 Si / 1000 Ang^3
#
#
#
# Elastic Constant Matrix: (Units=GPa)
#
#
# Indices 1 2 3 4 5 6 
#
# 1 108.2676 19.8175 21.8629 0.0000 0.0000 0.0000
# 2 19.8175 121.0812 40.6199 0.0000 0.0000 0.0000
# 3 21.8629 40.6199 124.5140 0.0000 0.0000 0.0000
# 4 0.0000 0.0000 0.0000 14.1765 0.0000 0.0000
# 5 0.0000 0.0000 0.0000 0.0000 19.2415 0.0000
# 6 0.0000 0.0000 0.0000 0.0000 0.0000 34.1448
#
#
#
# Elastic Compliance Matrix: (Units=1/GPa)
#
#
# Indices 1 2 3 4 5 6 
#
# 1 0.009715 -0.001143 -0.001333 0.000000 0.000000 0.000000
# 2 -0.001143 0.009408 -0.002869 0.000000 0.000000 0.000000
# 3 -0.001333 -0.002869 0.009201 0.000000 0.000000 0.000000
# 4 0.000000 0.000000 0.000000 0.070539 0.000000 0.000000
# 5 0.000000 0.000000 0.000000 0.000000 0.051971 0.000000
# 6 0.000000 0.000000 0.000000 0.000000 0.000000 0.029287
#
#
# Mechanical properties :
#
#
# Convention : Reuss Voigt Hill
#
# Bulk Modulus (GPa) = 56.70418 57.60702 57.15560
# Shear Modulus (GPa) = 25.42089 31.61672 28.51881
#
# Velocity S-wave (km/s) = 3.68048 4.10457 3.89830
# Velocity P-wave (km/s) = 6.94817 7.29111 7.12171
#
# Compressibility (1/GPa) = 0.01763538
#
# Stress axis : x y z
#
# Youngs Moduli (GPa) = 102.93648 106.28900 108.68284
#
# Poissons Ratio (x) = 0.12147 0.14487
# Poissons Ratio (y) = 0.11764 0.31177
# Poissons Ratio (z) = 0.13721 0.30490
#
# Static dielectric constant tensor:
#      x y z
#    x 2.626420 0.000000 0.000000 
#    y 0.000000 3.543340 0.000000 
#    z 0.000000 0.000000 3.086340 
# 
# 
# High freq. dielectric constant tensor:
#      x y z
#    x 1.723720 0.000000 0.000000 
#    y 0.000000 1.744970 0.000000 
#    z 0.000000 0.000000 1.694340 
# 
# From -- ./inp_files/42627.got.cif
#   From: 2010.03.12/outbox.cif.g09.slc.cpg/sg68_22_cif.got.tgz:42627.got - 2010.04.10 23:14:56.
