data_PCOD8282387
_publ_section_title
;
Structure prediction by ZEFSAII (Michael W. Deem and Ramdas Pophale) SiO2 
 PCOD8282387
Probable space group: C C C A
;
_chemical_formula_sum "Si O2"
_cell_formula_units_Z 108
_cell_length_a 13.382778
_cell_length_b 13.436650
_cell_length_c 26.528972
_cell_angle_alpha 90.000000
_cell_angle_beta 90.000000
_cell_angle_gamma 90.000000
_cell_volume 4770.431893
_symmetry_space_group_name_H-M "C C C A"
_symmetry_group_IT_number 68
_space_group.IT_coordinate_system_code '2'
_symmetry_cell_setting 'orthorhombic'
loop_
_space_group_symop_operation_xyz
x,y,z
-x,1/2-y,z
x,1/2-y,1/2-z
-x,y,1/2-z
-x,-y,-z
x,1/2+y,-z
-x,1/2+y,1/2+z
x,-y,1/2+z
1/2+x,1/2+y,z
1/2-x,-y,z
1/2+x,-y,1/2-z
1/2-x,1/2+y,1/2-z
1/2-x,1/2-y,-z
1/2+x,y,-z
1/2-x,y,1/2+z
1/2+x,1/2-y,1/2+z
loop_
_atom_site_type_symbol
_atom_site_label
_atom_site_fract_x
_atom_site_fract_y
_atom_site_fract_z
Si Si1 0.742876 0.299210 0.903341
Si Si2 0.446543 0.645104 0.045607
Si Si3 0.465017 0.492851 0.869797
Si Si4 0.657496 0.664705 0.179254
Si Si5 0.000000 0.750000 0.750000
Si Si6 0.581413 0.670430 0.566196
Si Si7 0.158336 0.927308 0.321697
Si Si8 0.314579 0.750000 0.750000
O O1 0.671104 0.354083 0.942324
O O2 0.667482 0.246190 0.864406
O O3 0.809818 0.221615 0.934839
O O4 0.810546 0.380739 0.875284
O O5 0.500000 0.750000 0.054402
O O6 0.501456 0.565347 0.080186
O O7 0.448831 0.617361 0.986354
O O8 0.368276 0.442704 0.843777
O O9 0.418201 0.595856 0.887191
O O10 0.558346 0.507704 0.831139
O O11 0.562800 0.680891 0.213994
O O12 0.754276 0.674088 0.214170
O O13 0.500000 0.750000 0.581352
O O14 0.129325 0.833719 0.284211
O O15 0.250000 0.000000 0.302495
#
# Coordination Sequence:
#
# PCOD8282387 Si02
#       8
#    16  16  16  16   4  16  16   8
#     4  11  21  44  67  96 131 186 216 268 337 393
#     4  11  22  41  69 101 133 176 233 275 325 387
#     4  12  23  43  68 100 129 179 218 275 338 398
#     4  10  22  39  69  93 129 159 224 275 330 389
#     4  10  20  40  64 106 120 160 210 296 336 378
#     4  11  25  42  61  98 147 179 217 276 329 399
#     4  11  23  42  72  94 133 173 227 268 336 406
#     4   9  24  47  66  96 126 170 219 284 330 399
#
# _framework density 22.63946
#
# number of rings (size 3 to 8) (size 9 to 14) (size 15 to 20)
#    0.000    1.185    4.444    1.778    4.148    0.593 
#    5.333    1.481    3.259    0.000    0.000    0.000 
#    0.000    0.000    0.000    0.000    0.000    0.000 
#
# Total GULP energy -669207.513354 kJ/mol
# GULP energy per Si atom -12392.731729 kJ/mol
# Density = 2.258793 g / cm^3
# Si number density = 22.639460 Si / 1000 Ang^3
#
#
#
# Elastic Constant Matrix: (Units=GPa)
#
#
# Indices 1 2 3 4 5 6 
#
# 1 52.6630 15.1292 11.3646 0.0000 0.0000 0.0000
# 2 15.1292 85.3532 41.2621 0.0000 0.0000 0.0000
# 3 11.3646 41.2621 77.6575 0.0000 0.0000 0.0000
# 4 0.0000 0.0000 0.0000 47.1404 0.0000 0.0000
# 5 0.0000 0.0000 0.0000 0.0000 13.0850 0.0000
# 6 0.0000 0.0000 0.0000 0.0000 0.0000 30.1076
#
#
#
# Elastic Compliance Matrix: (Units=1/GPa)
#
#
# Indices 1 2 3 4 5 6 
#
# 1 0.020122 -0.002884 -0.001412 0.000000 0.000000 0.000000
# 2 -0.002884 0.016179 -0.008174 0.000000 0.000000 0.000000
# 3 -0.001412 -0.008174 0.017427 0.000000 0.000000 0.000000
# 4 0.000000 0.000000 0.000000 0.021213 0.000000 0.000000
# 5 0.000000 0.000000 0.000000 0.000000 0.076423 0.000000
# 6 0.000000 0.000000 0.000000 0.000000 0.000000 0.033214
#
#
# Mechanical properties :
#
#
# Convention : Reuss Voigt Hill
#
# Bulk Modulus (GPa) = 34.73837 39.02061 36.87949
# Shear Modulus (GPa) = 22.81902 27.92780 25.37341
#
# Velocity S-wave (km/s) = 3.17824 3.51606 3.35141
# Velocity P-wave (km/s) = 5.37082 5.81005 5.59475
#
# Compressibility (1/GPa) = 0.02878661
#
# Stress axis : x y z
#
# Youngs Moduli (GPa) = 49.69697 61.80888 57.38204
#
# Poissons Ratio (x) = 0.17825 0.08105
# Poissons Ratio (y) = 0.14332 0.46906
# Poissons Ratio (z) = 0.07019 0.50525
#
# Static dielectric constant tensor:
#      x y z
#    x 3.870690 0.000000 0.000000 
#    y 0.000000 4.013060 0.000000 
#    z 0.000000 0.000000 4.218640 
# 
# 
# High freq. dielectric constant tensor:
#      x y z
#    x 1.881920 0.000000 0.000000 
#    y 0.000000 1.889250 0.000000 
#    z 0.000000 0.000000 1.899390 
# 
# From -- ./inp_files/45566.got.cif
#   From: 2010.03.12/outbox.cif.g09.slc.cpg/sg68_23_cif.got.tgz:45566.got - 2010.04.10 23:14:56.
