data_PCOD8282021
_publ_section_title
;
Structure prediction by ZEFSAII (Michael W. Deem and Ramdas Pophale) SiO2 
 PCOD8282021
Probable space group: C C C A
;
_chemical_formula_sum "Si O2"
_cell_formula_units_Z 96
_cell_length_a 16.942943
_cell_length_b 23.527796
_cell_length_c 11.036320
_cell_angle_alpha 90.000000
_cell_angle_beta 90.000000
_cell_angle_gamma 90.000000
_cell_volume 4399.409417
_symmetry_space_group_name_H-M "C C C A"
_symmetry_group_IT_number 68
_space_group.IT_coordinate_system_code '2'
_symmetry_cell_setting 'orthorhombic'
loop_
_space_group_symop_operation_xyz
x,y,z
-x,1/2-y,z
x,1/2-y,1/2-z
-x,y,1/2-z
-x,-y,-z
x,1/2+y,-z
-x,1/2+y,1/2+z
x,-y,1/2+z
1/2+x,1/2+y,z
1/2-x,-y,z
1/2+x,-y,1/2-z
1/2-x,1/2+y,1/2-z
1/2-x,1/2-y,-z
1/2+x,y,-z
1/2-x,y,1/2+z
1/2+x,1/2-y,1/2+z
loop_
_atom_site_type_symbol
_atom_site_label
_atom_site_fract_x
_atom_site_fract_y
_atom_site_fract_z
Si Si1 0.405041 0.847317 0.247768
Si Si2 0.447453 0.603845 0.921762
Si Si3 0.352479 0.202616 0.979089
Si Si4 0.822067 0.828006 0.000803
Si Si5 0.614572 0.085405 0.177100
Si Si6 0.569778 0.963926 0.154405
O O1 0.500000 0.838936 0.250000
O O2 0.361277 0.799634 0.331191
O O3 0.371727 0.849323 0.113135
O O4 0.381747 0.909842 0.297352
O O5 0.531128 0.611513 0.860673
O O6 0.379815 0.588168 0.823230
O O7 0.425553 0.664760 0.977211
O O8 0.459292 0.553694 0.020298
O O9 0.359196 0.266214 0.031901
O O10 0.270212 0.177739 0.028186
O O11 0.823596 0.873089 0.111251
O O12 0.625224 0.019287 0.139612
O O13 0.500000 0.979994 0.250000
#
# Coordination Sequence:
#
# PCOD8282021 Si02
#       6
#    16  16  16  16  16  16
#     4  10  22  41  69  95 119 168 224 269 306 384
#     4  10  22  38  61  95 128 159 209 261 312 384
#     4  10  24  43  61  91 127 166 214 266 322 388
#     4  11  24  40  66  89 126 172 211 265 332 377
#     4  11  22  35  64  94 125 169 202 256 326 379
#     4  10  19  37  65  92 126 163 212 260 308 378
#
# _framework density 21.821110999999998
#
# number of rings (size 3 to 8) (size 9 to 14) (size 15 to 20)
#    0.000    1.667    1.667    4.000    4.667    4.000 
#    0.000    5.000    0.000    0.000    0.000    0.000 
#    0.000    0.000    0.000    0.000    0.000    0.000 
#
# Total GULP energy -594863.790749 kJ/mol
# GULP energy per Si atom -12392.995641 kJ/mol
# Density = 2.177145 g / cm^3
# Si number density = 21.821111 Si / 1000 Ang^3
#
#
#
# Elastic Constant Matrix: (Units=GPa)
#
#
# Indices 1 2 3 4 5 6 
#
# 1 50.8247 29.7472 19.0820 0.0000 0.0000 0.0000
# 2 29.7472 136.1475 29.7639 0.0000 0.0000 0.0000
# 3 19.0820 29.7639 116.7102 0.0000 0.0000 0.0000
# 4 0.0000 0.0000 0.0000 27.6745 0.0000 0.0000
# 5 0.0000 0.0000 0.0000 0.0000 25.9714 0.0000
# 6 0.0000 0.0000 0.0000 0.0000 0.0000 25.3853
#
#
#
# Elastic Compliance Matrix: (Units=1/GPa)
#
#
# Indices 1 2 3 4 5 6 
#
# 1 0.023316 -0.004513 -0.002661 0.000000 0.000000 0.000000
# 2 -0.004513 0.008652 -0.001469 0.000000 0.000000 0.000000
# 3 -0.002661 -0.001469 0.009378 0.000000 0.000000 0.000000
# 4 0.000000 0.000000 0.000000 0.036134 0.000000 0.000000
# 5 0.000000 0.000000 0.000000 0.000000 0.038504 0.000000
# 6 0.000000 0.000000 0.000000 0.000000 0.000000 0.039393
#
#
# Mechanical properties :
#
#
# Convention : Reuss Voigt Hill
#
# Bulk Modulus (GPa) = 41.56156 51.20762 46.38459
# Shear Modulus (GPa) = 27.67291 30.81219 29.24255
#
# Velocity S-wave (km/s) = 3.56500 3.76178 3.66471
# Velocity P-wave (km/s) = 6.00279 6.51045 6.26177
#
# Compressibility (1/GPa) = 0.02406069
#
# Stress axis : x y z
#
# Youngs Moduli (GPa) = 42.88936 115.58021 106.63372
#
# Poissons Ratio (x) = 0.52156 0.28379
# Poissons Ratio (y) = 0.19354 0.15661
# Poissons Ratio (z) = 0.11414 0.16975
#
# Static dielectric constant tensor:
#      x y z
#    x 3.560860 0.000000 0.000000 
#    y 0.000000 4.034130 0.000000 
#    z 0.000000 0.000000 4.371270 
# 
# 
# High freq. dielectric constant tensor:
#      x y z
#    x 1.819820 0.000000 0.000000 
#    y 0.000000 1.868200 0.000000 
#    z 0.000000 0.000000 1.868870 
# 
# From -- ./inp_files/14628.got.cif
#   From: 2010.03.12/outbox.cif.g09.slc.cpg/sg68_8_cif.got.tgz:14628.got - 2010.04.10 23:14:56.
