data_PCOD8282625
_publ_section_title
;
Structure prediction by ZEFSAII (Michael W. Deem and Ramdas Pophale) SiO2 
 PCOD8282625
Probable space group: C C C A
;
_chemical_formula_sum "Si O2"
_cell_formula_units_Z 116
_cell_length_a 22.666554
_cell_length_b 28.730160
_cell_length_c 8.676417
_cell_angle_alpha 90.000000
_cell_angle_beta 90.000000
_cell_angle_gamma 90.000000
_cell_volume 5650.201817
_symmetry_space_group_name_H-M "C C C A"
_symmetry_group_IT_number 68
_space_group.IT_coordinate_system_code '2'
_symmetry_cell_setting 'orthorhombic'
loop_
_space_group_symop_operation_xyz
x,y,z
-x,1/2-y,z
x,1/2-y,1/2-z
-x,y,1/2-z
-x,-y,-z
x,1/2+y,-z
-x,1/2+y,1/2+z
x,-y,1/2+z
1/2+x,1/2+y,z
1/2-x,-y,z
1/2+x,-y,1/2-z
1/2-x,1/2+y,1/2-z
1/2-x,1/2-y,-z
1/2+x,y,-z
1/2-x,y,1/2+z
1/2+x,1/2-y,1/2+z
loop_
_atom_site_type_symbol
_atom_site_label
_atom_site_fract_x
_atom_site_fract_y
_atom_site_fract_z
Si Si1 0.643762 0.441022 0.889557
Si Si2 0.790423 0.861402 0.791609
Si Si3 0.314936 0.978574 0.711521
Si Si4 0.500000 0.750000 0.750000
Si Si5 0.176528 0.381095 0.639948
Si Si6 0.059573 0.333301 0.578590
Si Si7 0.105646 0.303582 0.253141
Si Si8 0.035951 0.122076 0.404188
O O1 0.684768 0.401096 0.820103
O O2 0.637936 0.481952 0.762280
O O3 0.579682 0.421037 0.934949
O O4 0.675285 0.462330 0.038142
O O5 0.721152 0.855042 0.757780
O O6 0.824107 0.813325 0.749672
O O7 0.800428 0.875024 0.967451
O O8 0.324470 0.935675 0.826943
O O9 0.250000 0.000000 0.730171
O O10 0.542131 0.783772 0.651113
O O11 0.112359 0.358197 0.672027
O O12 0.080581 0.325746 0.406581
O O13 0.004088 0.368909 0.557441
O O14 0.090995 0.250000 0.250000
O O15 0.072312 0.329553 0.114300
O O16 0.000000 0.109483 0.250000
#
# Coordination Sequence:
#
# PCOD8282625 Si02
#       8
#    16  16  16   4  16  16  16  16
#     4  11  23  39  64  96 124 167 214 267 316 382
#     4  10  21  39  61  92 129 166 204 263 322 380
#     4  12  24  39  64  95 124 161 214 266 318 385
#     4  12  24  40  62  92 132 172 220 250 314 388
#     4  11  23  42  63  91 131 164 211 262 323 374
#     4  10  23  40  62  92 127 167 208 266 306 381
#     4   9  18  38  65  94 118 161 214 259 312 373
#     4   9  20  41  67  88 125 168 213 260 318 374
#
# _framework density 20.530242000000001
#
# number of rings (size 3 to 8) (size 9 to 14) (size 15 to 20)
#    0.000    1.655    1.379    3.724    1.931    1.931 
#    3.724    4.138    0.000    0.000    0.000    0.000 
#    0.000    0.000    0.000    0.000    0.000    0.000 
#
# Total GULP energy -719039.372689 kJ/mol
# GULP energy per Si atom -12397.230564 kJ/mol
# Density = 2.048351 g / cm^3
# Si number density = 20.530242 Si / 1000 Ang^3
#
#
#
# Elastic Constant Matrix: (Units=GPa)
#
#
# Indices 1 2 3 4 5 6 
#
# 1 125.9649 68.6922 28.6413 0.0000 0.0000 0.0000
# 2 68.6922 94.8467 27.6939 0.0000 0.0000 0.0000
# 3 28.6413 27.6939 68.2945 0.0000 0.0000 0.0000
# 4 0.0000 0.0000 0.0000 31.7111 0.0000 0.0000
# 5 0.0000 0.0000 0.0000 0.0000 26.4519 0.0000
# 6 0.0000 0.0000 0.0000 0.0000 0.0000 38.1141
#
#
#
# Elastic Compliance Matrix: (Units=1/GPa)
#
#
# Indices 1 2 3 4 5 6 
#
# 1 0.013335 -0.009103 -0.001901 0.000000 0.000000 0.000000
# 2 -0.009103 0.018173 -0.003552 0.000000 0.000000 0.000000
# 3 -0.001901 -0.003552 0.016880 0.000000 0.000000 0.000000
# 4 0.000000 0.000000 0.000000 0.031535 0.000000 0.000000
# 5 0.000000 0.000000 0.000000 0.000000 0.037804 0.000000
# 6 0.000000 0.000000 0.000000 0.000000 0.000000 0.026237
#
#
# Mechanical properties :
#
#
# Convention : Reuss Voigt Hill
#
# Bulk Modulus (GPa) = 51.87620 59.90675 55.89147
# Shear Modulus (GPa) = 27.85503 30.19401 29.02452
#
# Velocity S-wave (km/s) = 3.68745 3.83914 3.76406
# Velocity P-wave (km/s) = 6.59187 6.99251 6.79514
#
# Compressibility (1/GPa) = 0.01927666
#
# Stress axis : x y z
#
# Youngs Moduli (GPa) = 74.99112 55.02695 59.24150
#
# Poissons Ratio (x) = 0.50089 0.11263
# Poissons Ratio (y) = 0.68261 0.21041
# Poissons Ratio (z) = 0.14257 0.19544
#
# Static dielectric constant tensor:
#      x y z
#    x 4.193190 0.000000 0.000000 
#    y 0.000000 3.791930 0.000000 
#    z 0.000000 0.000000 3.668540 
# 
# 
# High freq. dielectric constant tensor:
#      x y z
#    x 1.805510 0.000000 0.000000 
#    y 0.000000 1.793570 0.000000 
#    z 0.000000 0.000000 1.804050 
# 
# From -- ./inp_files/8365.got.cif
#   From: 2010.03.12/outbox.cif.g09.slc.cpg/sg68_5_cif.got.tgz:8365.got - 2010.04.10 23:14:56.
