data_PCOD8282810
_publ_section_title
;
Structure prediction by ZEFSAII (Michael W. Deem and Ramdas Pophale) SiO2 
 PCOD8282810
Probable space group: C C C A
;
_chemical_formula_sum "Si O2"
_cell_formula_units_Z 64
_cell_length_a 8.196828
_cell_length_b 26.431938
_cell_length_c 12.379481
_cell_angle_alpha 90.000000
_cell_angle_beta 90.000000
_cell_angle_gamma 90.000000
_cell_volume 2682.114207
_symmetry_space_group_name_H-M "C C C A"
_symmetry_group_IT_number 68
_space_group.IT_coordinate_system_code '2'
_symmetry_cell_setting 'orthorhombic'
loop_
_space_group_symop_operation_xyz
x,y,z
-x,1/2-y,z
x,1/2-y,1/2-z
-x,y,1/2-z
-x,-y,-z
x,1/2+y,-z
-x,1/2+y,1/2+z
x,-y,1/2+z
1/2+x,1/2+y,z
1/2-x,-y,z
1/2+x,-y,1/2-z
1/2-x,1/2+y,1/2-z
1/2-x,1/2-y,-z
1/2+x,y,-z
1/2-x,y,1/2+z
1/2+x,1/2-y,1/2+z
loop_
_atom_site_type_symbol
_atom_site_label
_atom_site_fract_x
_atom_site_fract_y
_atom_site_fract_z
Si Si1 0.945392 0.051151 0.634453
Si Si2 0.127226 0.212872 0.556008
Si Si3 0.070130 0.162654 0.138497
Si Si4 0.909810 0.564328 0.912863
O O1 0.776639 0.080068 0.608839
O O2 0.000000 0.072110 0.750000
O O3 0.074710 0.065306 0.542602
O O4 0.935298 0.990599 0.638087
O O5 0.250000 0.250000 0.500000
O O6 0.235456 0.175430 0.631291
O O7 0.000000 0.250000 0.620559
O O8 0.029992 0.182126 0.464749
O O9 0.000000 0.186543 0.250000
O O10 0.039945 0.102140 0.142111
#
# Coordination Sequence:
#
# PCOD8282810 Si02
#       4
#    16  16  16  16
#     4  10  22  39  60  87 132 182 220 272 327 373
#     4   9  21  41  62  91 124 155 206 264 324 405
#     4  11  22  40  66  93 126 168 212 270 331 386
#     4  10  22  38  60  93 127 170 232 273 315 389
#
# _framework density 23.861771999999998
#
# number of rings (size 3 to 8) (size 9 to 14) (size 15 to 20)
#    0.000    2.000    0.000    2.250    0.000   16.500 
#    0.000    8.750    0.000    0.000    0.000    0.000 
#    0.000    0.000    0.000    0.000    0.000    0.000 
#
# Total GULP energy -396572.424361 kJ/mol
# GULP energy per Si atom -12392.888261 kJ/mol
# Density = 2.380746 g / cm^3
# Si number density = 23.861772 Si / 1000 Ang^3
#
#
#
# Elastic Constant Matrix: (Units=GPa)
#
#
# Indices 1 2 3 4 5 6 
#
# 1 177.2337 55.0563 68.4960 0.0000 0.0000 0.0000
# 2 55.0563 92.9490 4.6160 0.0000 0.0000 0.0000
# 3 68.4960 4.6160 139.0672 0.0000 0.0000 0.0000
# 4 0.0000 0.0000 0.0000 5.7116 0.0000 0.0000
# 5 0.0000 0.0000 0.0000 0.0000 33.6665 0.0000
# 6 0.0000 0.0000 0.0000 0.0000 0.0000 50.0136
#
#
#
# Elastic Compliance Matrix: (Units=1/GPa)
#
#
# Indices 1 2 3 4 5 6 
#
# 1 0.008813 -0.005013 -0.004174 0.000000 0.000000 0.000000
# 2 -0.005013 0.013628 0.002017 0.000000 0.000000 0.000000
# 3 -0.004174 0.002017 0.009180 0.000000 0.000000 0.000000
# 4 0.000000 0.000000 0.000000 0.175083 0.000000 0.000000
# 5 0.000000 0.000000 0.000000 0.000000 0.029703 0.000000
# 6 0.000000 0.000000 0.000000 0.000000 0.000000 0.019995
#
#
# Mechanical properties :
#
#
# Convention : Reuss Voigt Hill
#
# Bulk Modulus (GPa) = 57.87205 73.95404 65.91304
# Shear Modulus (GPa) = 18.08311 36.61711 27.35011
#
# Velocity S-wave (km/s) = 2.75585 3.92158 3.38921
# Velocity P-wave (km/s) = 5.86788 7.18088 6.55733
#
# Compressibility (1/GPa) = 0.01727950
#
# Stress axis : x y z
#
# Youngs Moduli (GPa) = 113.47370 73.38058 108.93513
#
# Poissons Ratio (x) = 0.36783 0.45471
# Poissons Ratio (y) = 0.56881 -0.21968
# Poissons Ratio (z) = 0.47366 -0.14798
#
# Static dielectric constant tensor:
#      x y z
#    x 4.986820 0.000000 0.000000 
#    y 0.000000 4.606530 0.000000 
#    z 0.000000 0.000000 4.038860 
# 
# 
# High freq. dielectric constant tensor:
#      x y z
#    x 1.951460 0.000000 0.000000 
#    y 0.000000 1.942290 0.000000 
#    z 0.000000 0.000000 1.929550 
# 
# From -- ./inp_files/10755.got.cif
#   From: 2010.03.12/outbox.cif.g09.slc.cpg/sg68_6_cif.got.tgz:10755.got - 2010.04.10 23:14:56.
