data_PCOD8282911
_publ_section_title
;
Structure prediction by ZEFSAII (Michael W. Deem and Ramdas Pophale) SiO2 
 PCOD8282911
Probable space group: C C C A
;
_chemical_formula_sum "Si O2"
_cell_formula_units_Z 116
_cell_length_a 9.064453
_cell_length_b 26.078044
_cell_length_c 24.877877
_cell_angle_alpha 90.000000
_cell_angle_beta 90.000000
_cell_angle_gamma 90.000000
_cell_volume 5880.712278
_symmetry_space_group_name_H-M "C C C A"
_symmetry_group_IT_number 68
_space_group.IT_coordinate_system_code '2'
_symmetry_cell_setting 'orthorhombic'
loop_
_space_group_symop_operation_xyz
x,y,z
-x,1/2-y,z
x,1/2-y,1/2-z
-x,y,1/2-z
-x,-y,-z
x,1/2+y,-z
-x,1/2+y,1/2+z
x,-y,1/2+z
1/2+x,1/2+y,z
1/2-x,-y,z
1/2+x,-y,1/2-z
1/2-x,1/2+y,1/2-z
1/2-x,1/2-y,-z
1/2+x,y,-z
1/2-x,y,1/2+z
1/2+x,1/2-y,1/2+z
loop_
_atom_site_type_symbol
_atom_site_label
_atom_site_fract_x
_atom_site_fract_y
_atom_site_fract_z
Si Si1 0.754754 0.169386 0.383055
Si Si2 0.811996 0.116808 0.484951
Si Si3 0.500000 0.250000 0.250000
Si Si4 0.218640 0.446555 0.140926
Si Si5 0.970889 0.642886 0.812353
Si Si6 0.438137 0.632269 0.600356
Si Si7 0.058356 0.049012 0.467538
Si Si8 0.216359 0.282787 0.661706
O O1 0.793213 0.167286 0.447060
O O2 0.606085 0.135560 0.379541
O O3 0.730891 0.226497 0.362511
O O4 0.878656 0.143880 0.345895
O O5 0.909259 0.129858 0.536933
O O6 0.659744 0.087322 0.496775
O O7 0.912699 0.079096 0.449206
O O8 0.392139 0.215261 0.286568
O O9 0.250000 0.500000 0.172923
O O10 0.113471 0.409439 0.174169
O O11 0.371409 0.417313 0.129697
O O12 0.145445 0.466436 0.085517
O O13 0.875860 0.694058 0.824128
O O14 0.000000 0.642296 0.750000
O O15 0.353539 0.683884 0.615155
O O16 0.000000 0.000000 0.500000
#
# Coordination Sequence:
#
# PCOD8282911 Si02
#       8
#    16  16   4  16  16  16  16  16
#     4  12  22  42  63  95 133 168 223 272 324 393
#     4  11  22  36  61  91 131 171 215 267 328 399
#     4  12  20  40  70  96 120 160 230 264 318 388
#     4  10  22  42  64  91 130 169 212 268 328 392
#     4  11  25  45  68  93 128 168 214 281 331 381
#     4  10  22  41  61  93 133 174 216 262 329 402
#     4  11  20  37  61  93 123 172 219 271 322 387
#     4  11  24  40  66  94 127 167 221 270 328 388
#
# _framework density 19.725501999999999
#
# number of rings (size 3 to 8) (size 9 to 14) (size 15 to 20)
#    0.000    1.103    4.138    3.310    0.000    1.103 
#    0.000    3.448    0.000    0.000    0.000    0.000 
#    0.000    0.000    0.000    0.000    0.000    0.000 
#
# Total GULP energy -718798.660783 kJ/mol
# GULP energy per Si atom -12393.080358 kJ/mol
# Density = 1.968061 g / cm^3
# Si number density = 19.725502 Si / 1000 Ang^3
#
#
#
# Elastic Constant Matrix: (Units=GPa)
#
#
# Indices 1 2 3 4 5 6 
#
# 1 145.5037 52.5458 53.4553 0.0000 0.0000 0.0000
# 2 52.5458 110.6526 33.8984 0.0000 0.0000 0.0000
# 3 53.4553 33.8984 80.9529 0.0000 0.0000 0.0000
# 4 0.0000 0.0000 0.0000 17.4395 0.0000 0.0000
# 5 0.0000 0.0000 0.0000 0.0000 26.1357 0.0000
# 6 0.0000 0.0000 0.0000 0.0000 0.0000 18.4352
#
#
#
# Elastic Compliance Matrix: (Units=1/GPa)
#
#
# Indices 1 2 3 4 5 6 
#
# 1 0.009923 -0.003103 -0.005253 0.000000 0.000000 0.000000
# 2 -0.003103 0.011337 -0.002699 0.000000 0.000000 0.000000
# 3 -0.005253 -0.002699 0.016952 0.000000 0.000000 0.000000
# 4 0.000000 0.000000 0.000000 0.057341 0.000000 0.000000
# 5 0.000000 0.000000 0.000000 0.000000 0.038262 0.000000
# 6 0.000000 0.000000 0.000000 0.000000 0.000000 0.054244
#
#
# Mechanical properties :
#
#
# Convention : Reuss Voigt Hill
#
# Bulk Modulus (GPa) = 62.10020 68.54534 65.32277
# Shear Modulus (GPa) = 23.19797 25.54941 24.37369
#
# Velocity S-wave (km/s) = 3.43306 3.60286 3.51899
# Velocity P-wave (km/s) = 6.87496 7.22028 7.04974
#
# Compressibility (1/GPa) = 0.01610301
#
# Stress axis : x y z
#
# Youngs Moduli (GPa) = 100.77438 88.20303 58.99117
#
# Poissons Ratio (x) = 0.27369 0.30989
# Poissons Ratio (y) = 0.31269 0.15919
# Poissons Ratio (z) = 0.52939 0.23802
#
# Static dielectric constant tensor:
#      x y z
#    x 3.924940 0.000000 0.000000 
#    y 0.000000 3.730540 0.000000 
#    z 0.000000 0.000000 3.562260 
# 
# 
# High freq. dielectric constant tensor:
#      x y z
#    x 1.792980 0.000000 0.000000 
#    y 0.000000 1.766030 0.000000 
#    z 0.000000 0.000000 1.756270 
# 
# From -- ./inp_files/43533.got.cif
#   From: 2010.03.12/outbox.cif.g09.slc.cpg/sg68_22_cif.got.tgz:43533.got - 2010.04.10 23:14:56.
