data_PCOD8282981
_publ_section_title
;
Structure prediction by ZEFSAII (Michael W. Deem and Ramdas Pophale) SiO2 
 PCOD8282981
Probable space group: C C C A
;
_chemical_formula_sum "Si O2"
_cell_formula_units_Z 64
_cell_length_a 19.272880
_cell_length_b 5.480210
_cell_length_c 27.504096
_cell_angle_alpha 90.000000
_cell_angle_beta 90.000000
_cell_angle_gamma 90.000000
_cell_volume 2904.966934
_symmetry_space_group_name_H-M "C C C A"
_symmetry_group_IT_number 68
_space_group.IT_coordinate_system_code '2'
_symmetry_cell_setting 'orthorhombic'
loop_
_space_group_symop_operation_xyz
x,y,z
-x,1/2-y,z
x,1/2-y,1/2-z
-x,y,1/2-z
-x,-y,-z
x,1/2+y,-z
-x,1/2+y,1/2+z
x,-y,1/2+z
1/2+x,1/2+y,z
1/2-x,-y,z
1/2+x,-y,1/2-z
1/2-x,1/2+y,1/2-z
1/2-x,1/2-y,-z
1/2+x,y,-z
1/2-x,y,1/2+z
1/2+x,1/2-y,1/2+z
loop_
_atom_site_type_symbol
_atom_site_label
_atom_site_fract_x
_atom_site_fract_y
_atom_site_fract_z
Si Si1 0.000000 0.750000 0.845227
Si Si2 0.000000 0.750000 0.469799
Si Si3 0.750000 0.500000 0.318144
Si Si4 0.103365 0.397066 0.703417
Si Si5 0.250000 0.500000 0.878467
Si Si6 0.102818 0.596486 0.394414
O O1 0.955561 0.591916 0.807774
O O2 0.050762 0.622523 0.883434
O O3 0.069306 0.761795 0.436543
O O4 0.000000 0.500000 0.500000
O O5 0.819803 0.494811 0.285095
O O6 0.754426 0.250869 0.348587
O O7 0.076932 0.250000 0.750000
O O8 0.111445 0.234335 0.656020
O O9 0.179619 0.492225 0.911084
#
# Coordination Sequence:
#
# PCOD8282981 Si02
#       6
#     8   8   8  16   8  16
#     4  12  21  45  69  98 146 187 240 295 351 408
#     4  12  27  46  76 106 141 187 238 303 380 438
#     4  10  22  43  64 103 142 198 238 281 342 427
#     4  11  25  41  70 103 146 191 242 290 349 422
#     4  10  22  43  74 101 138 190 236 293 354 421
#     4  11  24  44  70 105 141 187 240 297 355 433
#
# _framework density 22.031233
#
# number of rings (size 3 to 8) (size 9 to 14) (size 15 to 20)
#    0.000    1.000    5.000    0.750    0.000    8.000 
#    0.000    1.250    0.000    0.000    0.000    0.000 
#    0.000    0.000    0.000    0.000    0.000    0.000 
#
# Total GULP energy -396538.757715 kJ/mol
# GULP energy per Si atom -12391.836179 kJ/mol
# Density = 2.198109 g / cm^3
# Si number density = 22.031233 Si / 1000 Ang^3
#
#
#
# Elastic Constant Matrix: (Units=GPa)
#
#
# Indices 1 2 3 4 5 6 
#
# 1 225.6702 56.2665 51.6892 0.0000 0.0000 0.0000
# 2 56.2665 129.6355 39.6861 0.0000 0.0000 0.0000
# 3 51.6892 39.6861 102.2696 0.0000 0.0000 0.0000
# 4 0.0000 0.0000 0.0000 31.8036 0.0000 0.0000
# 5 0.0000 0.0000 0.0000 0.0000 -16.2616 0.0000
# 6 0.0000 0.0000 0.0000 0.0000 0.0000 5.6037
#
#
#
# Elastic Compliance Matrix: (Units=1/GPa)
#
#
# Indices 1 2 3 4 5 6 
#
# 1 0.005317 -0.001685 -0.002033 0.000000 0.000000 0.000000
# 2 -0.001685 0.009288 -0.002752 0.000000 0.000000 0.000000
# 3 -0.002033 -0.002752 0.011874 0.000000 0.000000 0.000000
# 4 0.000000 0.000000 0.000000 0.031443 0.000000 0.000000
# 5 0.000000 0.000000 0.000000 0.000000 -0.061494 0.000000
# 6 0.000000 0.000000 0.000000 0.000000 0.000000 0.178455
#
#
# Mechanical properties :
#
#
# Convention : Reuss Voigt Hill
#
# Bulk Modulus (GPa) = 73.87312 83.65097 78.76204
# Shear Modulus (GPa) = 25.99600 24.89136 25.44368
#
# Velocity S-wave (km/s) = 3.43878 3.36493 3.40206
# Velocity P-wave (km/s) = 7.02644 7.29031 7.15959
#
# Compressibility (1/GPa) = 0.01353672
#
# Stress axis : x y z
#
# Youngs Moduli (GPa) = 188.06871 107.66505 84.21828
#
# Poissons Ratio (x) = 0.18145 0.17125
# Poissons Ratio (y) = 0.31696 0.23181
# Poissons Ratio (z) = 0.38242 0.29634
#
# Static dielectric constant tensor:
#      x y z
#    x 5.436430 0.000000 0.000000 
#    y 0.000000 4.194960 0.000000 
#    z 0.000000 0.000000 3.655720 
# 
# 
# High freq. dielectric constant tensor:
#      x y z
#    x 1.903650 0.000000 0.000000 
#    y 0.000000 1.878970 0.000000 
#    z 0.000000 0.000000 1.823850 
# 
# From -- ./inp_files/51610.got.cif
#   From: 2010.03.12/outbox.cif.g09.slc.cpg/sg68_26_cif.got.tgz:51610.got - 2010.04.10 23:14:56.
