data_PCOD8282342
_publ_section_title
;
Structure prediction by ZEFSAII (Michael W. Deem and Ramdas Pophale) SiO2 
 PCOD8282342
Probable space group: C C C A
;
_chemical_formula_sum "Si O2"
_cell_formula_units_Z 68
_cell_length_a 16.339750
_cell_length_b 21.407711
_cell_length_c 8.971686
_cell_angle_alpha 90.000000
_cell_angle_beta 90.000000
_cell_angle_gamma 90.000000
_cell_volume 3138.265670
_symmetry_space_group_name_H-M "C C C A"
_symmetry_group_IT_number 68
_space_group.IT_coordinate_system_code '2'
_symmetry_cell_setting 'orthorhombic'
loop_
_space_group_symop_operation_xyz
x,y,z
-x,1/2-y,z
x,1/2-y,1/2-z
-x,y,1/2-z
-x,-y,-z
x,1/2+y,-z
-x,1/2+y,1/2+z
x,-y,1/2+z
1/2+x,1/2+y,z
1/2-x,-y,z
1/2+x,-y,1/2-z
1/2-x,1/2+y,1/2-z
1/2-x,1/2-y,-z
1/2+x,y,-z
1/2-x,y,1/2+z
1/2+x,1/2-y,1/2+z
loop_
_atom_site_type_symbol
_atom_site_label
_atom_site_fract_x
_atom_site_fract_y
_atom_site_fract_z
Si Si1 0.922825 0.455305 0.357082
Si Si2 0.200328 0.693096 0.343996
Si Si3 0.414950 0.924019 0.693262
Si Si4 0.648898 0.826093 0.161559
Si Si5 0.000000 0.750000 0.750000
O O1 0.939625 0.455878 0.534705
O O2 0.884016 0.521212 0.304725
O O3 0.856970 0.400514 0.336568
O O4 0.000000 0.441178 0.250000
O O5 0.159340 0.750000 0.250000
O O6 0.153632 0.628812 0.306399
O O7 0.297130 0.690689 0.305430
O O8 0.197437 0.701991 0.520728
O O9 0.500000 0.894004 0.750000
O O10 0.558791 0.795084 0.154498
#
# Coordination Sequence:
#
# PCOD8282342 Si02
#       5
#    16  16  16  16   4
#     4  10  20  39  62  94 128 171 219 268 319 389
#     4  11  25  43  64  97 133 168 215 273 325 386
#     4  10  22  38  63  95 130 172 217 269 325 385
#     4  11  25  43  69  94 133 170 216 268 328 392
#     4  12  24  44  70  96 122 180 208 256 344 380
#
# _framework density 21.668019999999999
#
# number of rings (size 3 to 8) (size 9 to 14) (size 15 to 20)
#    0.000    1.412    2.353    3.529    0.000    8.941 
#    0.000    4.706    0.000    0.000    0.000    0.000 
#    0.000    0.000    0.000    0.000    0.000    0.000 
#
# Total GULP energy -421366.983612 kJ/mol
# GULP energy per Si atom -12393.146577 kJ/mol
# Density = 2.161870 g / cm^3
# Si number density = 21.668020 Si / 1000 Ang^3
#
#
#
# Elastic Constant Matrix: (Units=GPa)
#
#
# Indices 1 2 3 4 5 6 
#
# 1 110.2923 31.0424 46.1040 0.0000 0.0000 0.0000
# 2 31.0424 86.5752 24.0392 0.0000 0.0000 0.0000
# 3 46.1040 24.0392 127.9620 0.0000 0.0000 0.0000
# 4 0.0000 0.0000 0.0000 33.6286 0.0000 0.0000
# 5 0.0000 0.0000 0.0000 0.0000 27.8171 0.0000
# 6 0.0000 0.0000 0.0000 0.0000 0.0000 16.6885
#
#
#
# Elastic Compliance Matrix: (Units=1/GPa)
#
#
# Indices 1 2 3 4 5 6 
#
# 1 0.011419 -0.003114 -0.003529 0.000000 0.000000 0.000000
# 2 -0.003114 0.013036 -0.001327 0.000000 0.000000 0.000000
# 3 -0.003529 -0.001327 0.009336 0.000000 0.000000 0.000000
# 4 0.000000 0.000000 0.000000 0.029737 0.000000 0.000000
# 5 0.000000 0.000000 0.000000 0.000000 0.035949 0.000000
# 6 0.000000 0.000000 0.000000 0.000000 0.000000 0.059922
#
#
# Mechanical properties :
#
#
# Convention : Reuss Voigt Hill
#
# Bulk Modulus (GPa) = 56.02389 58.57787 57.30088
# Shear Modulus (GPa) = 27.58053 30.53642 29.05847
#
# Velocity S-wave (km/s) = 3.57160 3.75812 3.66604
# Velocity P-wave (km/s) = 6.55134 6.77674 6.66499
#
# Compressibility (1/GPa) = 0.01784953
#
# Stress axis : x y z
#
# Youngs Moduli (GPa) = 87.57693 76.71209 107.11735
#
# Poissons Ratio (x) = 0.23891 0.37801
# Poissons Ratio (y) = 0.27274 0.14213
# Poissons Ratio (z) = 0.30906 0.10178
#
# Static dielectric constant tensor:
#      x y z
#    x 3.588250 0.000000 0.000000 
#    y 0.000000 4.313950 0.000000 
#    z 0.000000 0.000000 4.043840 
# 
# 
# High freq. dielectric constant tensor:
#      x y z
#    x 1.831920 0.000000 0.000000 
#    y 0.000000 1.878230 0.000000 
#    z 0.000000 0.000000 1.857600 
# 
# From -- ./inp_files/5927.got.cif
#   From: 2010.03.12/outbox.cif.g09.slc.cpg/sg68_3_cif.got.tgz:5927.got - 2010.04.10 23:14:56.
