data_PCOD8282288
_publ_section_title
;
Structure prediction by ZEFSAII (Michael W. Deem and Ramdas Pophale) SiO2 
 PCOD8282288
Probable space group: C C C A
;
_chemical_formula_sum "Si O2"
_cell_formula_units_Z 120
_cell_length_a 11.479186
_cell_length_b 19.929504
_cell_length_c 23.227794
_cell_angle_alpha 90.000000
_cell_angle_beta 90.000000
_cell_angle_gamma 90.000000
_cell_volume 5313.926571
_symmetry_space_group_name_H-M "C C C A"
_symmetry_group_IT_number 68
_space_group.IT_coordinate_system_code '2'
_symmetry_cell_setting 'orthorhombic'
loop_
_space_group_symop_operation_xyz
x,y,z
-x,1/2-y,z
x,1/2-y,1/2-z
-x,y,1/2-z
-x,-y,-z
x,1/2+y,-z
-x,1/2+y,1/2+z
x,-y,1/2+z
1/2+x,1/2+y,z
1/2-x,-y,z
1/2+x,-y,1/2-z
1/2-x,1/2+y,1/2-z
1/2-x,1/2-y,-z
1/2+x,y,-z
1/2-x,y,1/2+z
1/2+x,1/2-y,1/2+z
loop_
_atom_site_type_symbol
_atom_site_label
_atom_site_fract_x
_atom_site_fract_y
_atom_site_fract_z
Si Si1 0.510650 0.386729 0.419788
Si Si2 0.792228 0.824676 0.740575
Si Si3 0.606163 0.120880 0.538585
Si Si4 0.874187 0.535511 0.722868
Si Si5 0.396434 0.198179 0.169734
Si Si6 0.062497 0.530538 0.906829
Si Si7 0.250000 0.500000 0.497317
Si Si8 0.766485 0.809227 0.113573
O O1 0.445648 0.359802 0.476779
O O2 0.437776 0.368167 0.362584
O O3 0.521204 0.466839 0.420484
O O4 0.634351 0.352726 0.416603
O O5 0.849672 0.750000 0.750000
O O6 0.870138 0.884461 0.765696
O O7 0.665140 0.823643 0.771296
O O8 0.771296 0.842231 0.674082
O O9 0.510925 0.098108 0.585761
O O10 0.662431 0.187511 0.567042
O O11 0.697593 0.059530 0.535494
O O12 0.750000 0.500000 0.744571
O O13 0.878701 0.524687 0.654987
O O14 0.000000 0.509270 0.750000
O O15 0.500000 0.250000 0.183477
O O16 0.304650 0.233208 0.125935
O O17 0.157078 0.535426 0.956449
#
# Coordination Sequence:
#
# PCOD8282288 Si02
#       8
#    16  16  16  16  16  16   8  16
#     4  10  21  36  60  90 124 168 214 276 335 401
#     4  10  23  44  69  98 132 184 232 279 351 420
#     4  11  21  36  60  88 127 169 217 270 331 410
#     4  12  27  46  69 104 143 180 230 296 357 417
#     4   9  20  39  65  94 127 168 223 282 335 402
#     4  11  22  39  61  92 129 173 220 269 344 410
#     4  10  20  38  60  88 126 174 218 264 338 410
#     4  10  21  38  60  90 127 164 221 276 333 400
#
# _framework density 22.582170999999999
#
# number of rings (size 3 to 8) (size 9 to 14) (size 15 to 20)
#    0.000    1.600    0.667    4.800    3.733    6.933 
#    4.800    0.000    5.867    0.000    0.000    0.000 
#    0.000    0.000    0.000    0.000    0.000    0.000 
#
# Total GULP energy -743572.145476 kJ/mol
# GULP energy per Si atom -12392.869091 kJ/mol
# Density = 2.253077 g / cm^3
# Si number density = 22.582171 Si / 1000 Ang^3
#
#
#
# Elastic Constant Matrix: (Units=GPa)
#
#
# Indices 1 2 3 4 5 6 
#
# 1 75.2900 21.8332 21.4943 0.0000 0.0000 0.0000
# 2 21.8332 50.2004 8.8269 0.0000 0.0000 0.0000
# 3 21.4943 8.8269 94.0193 0.0000 0.0000 0.0000
# 4 0.0000 0.0000 0.0000 24.0683 0.0000 0.0000
# 5 0.0000 0.0000 0.0000 0.0000 14.5068 0.0000
# 6 0.0000 0.0000 0.0000 0.0000 0.0000 31.3948
#
#
#
# Elastic Compliance Matrix: (Units=1/GPa)
#
#
# Indices 1 2 3 4 5 6 
#
# 1 0.016020 -0.006429 -0.003059 0.000000 0.000000 0.000000
# 2 -0.006429 0.022835 -0.000674 0.000000 0.000000 0.000000
# 3 -0.003059 -0.000674 0.011399 0.000000 0.000000 0.000000
# 4 0.000000 0.000000 0.000000 0.041548 0.000000 0.000000
# 5 0.000000 0.000000 0.000000 0.000000 0.068933 0.000000
# 6 0.000000 0.000000 0.000000 0.000000 0.000000 0.031852
#
#
# Mechanical properties :
#
#
# Convention : Reuss Voigt Hill
#
# Bulk Modulus (GPa) = 33.41240 35.97981 34.69610
# Shear Modulus (GPa) = 22.43281 25.15100 23.79190
#
# Velocity S-wave (km/s) = 3.15522 3.34092 3.24940
# Velocity P-wave (km/s) = 5.30113 5.55425 5.42917
#
# Compressibility (1/GPa) = 0.02992901
#
# Stress axis : x y z
#
# Youngs Moduli (GPa) = 62.42329 43.79254 87.72961
#
# Poissons Ratio (x) = 0.28156 0.26834
# Poissons Ratio (y) = 0.40135 0.05913
# Poissons Ratio (z) = 0.19094 0.02951
#
# Static dielectric constant tensor:
#      x y z
#    x 4.360160 0.000000 0.000000 
#    y 0.000000 4.025270 0.000000 
#    z 0.000000 0.000000 4.060120 
# 
# 
# High freq. dielectric constant tensor:
#      x y z
#    x 1.891800 0.000000 0.000000 
#    y 0.000000 1.870980 0.000000 
#    z 0.000000 0.000000 1.897160 
# 
# From -- ./inp_files/44652.got.cif
#   From: 2010.03.12/outbox.cif.g09.slc.cpg/sg68_23_cif.got.tgz:44652.got - 2010.04.10 23:14:56.
