data_PCOD8282935
_publ_section_title
;
Structure prediction by ZEFSAII (Michael W. Deem and Ramdas Pophale) SiO2 
 PCOD8282935
Probable space group: C C C A
;
_chemical_formula_sum "Si O2"
_cell_formula_units_Z 56
_cell_length_a 39.175966
_cell_length_b 4.946545
_cell_length_c 13.151207
_cell_angle_alpha 90.000000
_cell_angle_beta 90.000000
_cell_angle_gamma 90.000000
_cell_volume 2548.515575
_symmetry_space_group_name_H-M "C C C A"
_symmetry_group_IT_number 68
_space_group.IT_coordinate_system_code '2'
_symmetry_cell_setting 'orthorhombic'
loop_
_space_group_symop_operation_xyz
x,y,z
-x,1/2-y,z
x,1/2-y,1/2-z
-x,y,1/2-z
-x,-y,-z
x,1/2+y,-z
-x,1/2+y,1/2+z
x,-y,1/2+z
1/2+x,1/2+y,z
1/2-x,-y,z
1/2+x,-y,1/2-z
1/2-x,1/2+y,1/2-z
1/2-x,1/2-y,-z
1/2+x,y,-z
1/2-x,y,1/2+z
1/2+x,1/2-y,1/2+z
loop_
_atom_site_type_symbol
_atom_site_label
_atom_site_fract_x
_atom_site_fract_y
_atom_site_fract_z
Si Si1 0.461103 0.734604 0.934167
Si Si2 0.250000 0.000000 0.316517
Si Si3 0.316843 0.330588 0.569196
Si Si4 0.367017 0.250000 0.750000
Si Si5 0.912940 0.750000 0.250000
O O1 0.500000 0.750000 0.895071
O O2 0.436484 0.829212 0.844536
O O3 0.454024 0.429782 0.970067
O O4 0.235234 0.750000 0.250000
O O5 0.279348 0.873846 0.385704
O O6 0.322016 0.533710 0.476102
O O7 0.344281 0.364172 0.657987
O O8 0.390205 0.498065 0.785386
#
# Coordination Sequence:
#
# PCOD8282935 Si02
#       5
#    16   8  16   8   8
#     4  10  22  41  67  98 130 168 220 277 327 386
#     4  12  24  44  76 100 134 168 218 290 338 394
#     4  12  26  46  70  98 132 176 222 273 338 397
#     4  12  28  44  64  98 136 179 220 275 318 406
#     4  12  25  42  67  94 134 179 220 263 338 388
#
# _framework density 21.973576999999999
#
# number of rings (size 3 to 8) (size 9 to 14) (size 15 to 20)
#    0.000    0.571    1.429    6.429    2.000    6.857 
#    0.000    5.714    0.000    0.000    0.000    0.000 
#    0.000    0.000    0.000    0.000    0.000    0.000 
#
# Total GULP energy -347387.239351 kJ/mol
# GULP energy per Si atom -12406.687120 kJ/mol
# Density = 2.192356 g / cm^3
# Si number density = 21.973577 Si / 1000 Ang^3
#
#
#
# Elastic Constant Matrix: (Units=GPa)
#
#
# Indices 1 2 3 4 5 6 
#
# 1 123.3075 31.0860 58.8643 0.0000 0.0000 0.0000
# 2 31.0860 103.5171 17.0843 0.0000 0.0000 0.0000
# 3 58.8643 17.0843 100.3217 0.0000 0.0000 0.0000
# 4 0.0000 0.0000 0.0000 42.1736 0.0000 0.0000
# 5 0.0000 0.0000 0.0000 0.0000 -54.7376 0.0000
# 6 0.0000 0.0000 0.0000 0.0000 0.0000 27.0043
#
#
#
# Elastic Compliance Matrix: (Units=1/GPa)
#
#
# Indices 1 2 3 4 5 6 
#
# 1 0.011854 -0.002482 -0.006533 0.000000 0.000000 0.000000
# 2 -0.002482 0.010459 -0.000325 0.000000 0.000000 0.000000
# 3 -0.006533 -0.000325 0.013856 0.000000 0.000000 0.000000
# 4 0.000000 0.000000 0.000000 0.023712 0.000000 0.000000
# 5 0.000000 0.000000 0.000000 0.000000 -0.018269 0.000000
# 6 0.000000 0.000000 0.000000 0.000000 0.000000 0.037031
#
#
# Mechanical properties :
#
#
# Convention : Reuss Voigt Hill
#
# Bulk Modulus (GPa) = 57.17328 60.13505 58.65417
# Shear Modulus (GPa) = 48.47197 17.56218 33.01707
#
# Velocity S-wave (km/s) = 4.70182 2.83015 3.88052
# Velocity P-wave (km/s) = 7.45330 6.17301 6.84316
#
# Compressibility (1/GPa) = 0.01749069
#
# Stress axis : x y z
#
# Youngs Moduli (GPa) = 84.35938 95.61055 72.16855
#
# Poissons Ratio (x) = 0.23727 0.47146
# Poissons Ratio (y) = 0.20934 0.02346
# Poissons Ratio (z) = 0.55110 0.03108
#
# Static dielectric constant tensor:
#      x y z
#    x 4.036000 0.000000 0.000000 
#    y 0.000000 4.211000 0.000000 
#    z 0.000000 0.000000 3.850390 
# 
# 
# High freq. dielectric constant tensor:
#      x y z
#    x 1.870920 0.000000 0.000000 
#    y 0.000000 1.880100 0.000000 
#    z 0.000000 0.000000 1.865870 
# 
# From -- ./inp_files/18364.got.cif
#   From: 2010.03.12/outbox.cif.g09.slc.cpg/sg68_10_cif.got.tgz:18364.got - 2010.04.10 23:14:56.
