data_PCOD8282353
_publ_section_title
;
Structure prediction by ZEFSAII (Michael W. Deem and Ramdas Pophale) SiO2 
 PCOD8282353
Probable space group: C C C A
;
_chemical_formula_sum "Si O2"
_cell_formula_units_Z 80
_cell_length_a 12.770167
_cell_length_b 25.974802
_cell_length_c 13.185363
_cell_angle_alpha 90.000000
_cell_angle_beta 90.000000
_cell_angle_gamma 90.000000
_cell_volume 4373.618653
_symmetry_space_group_name_H-M "C C C A"
_symmetry_group_IT_number 68
_space_group.IT_coordinate_system_code '2'
_symmetry_cell_setting 'orthorhombic'
loop_
_space_group_symop_operation_xyz
x,y,z
-x,1/2-y,z
x,1/2-y,1/2-z
-x,y,1/2-z
-x,-y,-z
x,1/2+y,-z
-x,1/2+y,1/2+z
x,-y,1/2+z
1/2+x,1/2+y,z
1/2-x,-y,z
1/2+x,-y,1/2-z
1/2-x,1/2+y,1/2-z
1/2-x,1/2-y,-z
1/2+x,y,-z
1/2-x,y,1/2+z
1/2+x,1/2-y,1/2+z
loop_
_atom_site_type_symbol
_atom_site_label
_atom_site_fract_x
_atom_site_fract_y
_atom_site_fract_z
Si Si1 0.193865 0.384904 0.881119
Si Si2 0.762099 0.057151 0.184294
Si Si3 0.508368 0.693891 0.633552
Si Si4 0.440341 0.052632 0.975350
Si Si5 0.372006 0.385545 0.030083
O O1 0.245930 0.401301 0.773885
O O2 0.116968 0.336311 0.880915
O O3 0.134287 0.434552 0.928334
O O4 0.285444 0.365136 0.953427
O O5 0.876023 0.057402 0.129862
O O6 0.672980 0.068276 0.100265
O O7 0.750000 0.000000 0.229480
O O8 0.500000 0.750000 0.578281
O O9 0.500000 0.704517 0.750000
O O10 0.407748 0.661568 0.599346
O O11 0.530228 0.095186 0.964280
O O12 0.500000 0.000000 0.000000
#
# Coordination Sequence:
#
# PCOD8282353 Si02
#       5
#    16  16  16  16  16
#     4  10  23  36  57  86 115 150 195 238 286 353
#     4  11  21  34  55  81 119 158 191 234 284 338
#     4  10  20  39  65  85 109 149 195 247 295 342
#     4  10  21  36  53  79 117 159 194 232 281 348
#     4  10  21  39  55  83 119 146 194 239 285 352
#
# _framework density 18.29149
#
# number of rings (size 3 to 8) (size 9 to 14) (size 15 to 20)
#    0.000    1.800    4.000    0.000    2.800    1.600 
#    0.000    0.000    0.000    0.000    0.000    1.400 
#    0.000    0.000    0.000    0.000    0.000    0.000 
#
# Total GULP energy -495634.249656 kJ/mol
# GULP energy per Si atom -12390.856241 kJ/mol
# Density = 1.824986 g / cm^3
# Si number density = 18.291490 Si / 1000 Ang^3
#
#
#
# Elastic Constant Matrix: (Units=GPa)
#
#
# Indices 1 2 3 4 5 6 
#
# 1 123.5110 55.3082 55.0466 0.0000 0.0000 0.0000
# 2 55.3082 115.2010 39.3566 0.0000 0.0000 0.0000
# 3 55.0466 39.3566 82.5831 0.0000 0.0000 0.0000
# 4 0.0000 0.0000 0.0000 14.8190 0.0000 0.0000
# 5 0.0000 0.0000 0.0000 0.0000 32.1234 0.0000
# 6 0.0000 0.0000 0.0000 0.0000 0.0000 30.6141
#
#
#
# Elastic Compliance Matrix: (Units=1/GPa)
#
#
# Indices 1 2 3 4 5 6 
#
# 1 0.012812 -0.003862 -0.006699 0.000000 0.000000 0.000000
# 2 -0.003862 0.011533 -0.002922 0.000000 0.000000 0.000000
# 3 -0.006699 -0.002922 0.017967 0.000000 0.000000 0.000000
# 4 0.000000 0.000000 0.000000 0.067481 0.000000 0.000000
# 5 0.000000 0.000000 0.000000 0.000000 0.031130 0.000000
# 6 0.000000 0.000000 0.000000 0.000000 0.000000 0.032665
#
#
# Mechanical properties :
#
#
# Convention : Reuss Voigt Hill
#
# Bulk Modulus (GPa) = 65.16759 68.96866 67.06812
# Shear Modulus (GPa) = 24.31096 26.95020 25.63058
#
# Velocity S-wave (km/s) = 3.64962 3.84262 3.74736
# Velocity P-wave (km/s) = 7.31192 7.58121 7.44779
#
# Compressibility (1/GPa) = 0.01534505
#
# Stress axis : x y z
#
# Youngs Moduli (GPa) = 78.05408 86.70813 55.65816
#
# Poissons Ratio (x) = 0.33489 0.37286
# Poissons Ratio (y) = 0.30146 0.16262
# Poissons Ratio (z) = 0.52289 0.25335
#
# Static dielectric constant tensor:
#      x y z
#    x 3.692110 0.000000 0.000000 
#    y 0.000000 3.504220 0.000000 
#    z 0.000000 0.000000 3.378430 
# 
# 
# High freq. dielectric constant tensor:
#      x y z
#    x 1.722310 0.000000 0.000000 
#    y 0.000000 1.696150 0.000000 
#    z 0.000000 0.000000 1.698560 
# 
# From -- ./inp_files/11930.got.cif
#   From: 2010.03.12/outbox.cif.g09.slc.cpg/sg68_6_cif.got.tgz:11930.got - 2010.04.10 23:14:56.
