data_PCOD8282213
_publ_section_title
;
Structure prediction by ZEFSAII (Michael W. Deem and Ramdas Pophale) SiO2 
 PCOD8282213
Probable space group: C C C A
;
_chemical_formula_sum "Si O2"
_cell_formula_units_Z 80
_cell_length_a 13.751265
_cell_length_b 20.450663
_cell_length_c 13.741348
_cell_angle_alpha 90.000000
_cell_angle_beta 90.000000
_cell_angle_gamma 90.000000
_cell_volume 3864.376050
_symmetry_space_group_name_H-M "C C C A"
_symmetry_group_IT_number 68
_space_group.IT_coordinate_system_code '2'
_symmetry_cell_setting 'orthorhombic'
loop_
_space_group_symop_operation_xyz
x,y,z
-x,1/2-y,z
x,1/2-y,1/2-z
-x,y,1/2-z
-x,-y,-z
x,1/2+y,-z
-x,1/2+y,1/2+z
x,-y,1/2+z
1/2+x,1/2+y,z
1/2-x,-y,z
1/2+x,-y,1/2-z
1/2-x,1/2+y,1/2-z
1/2-x,1/2-y,-z
1/2+x,y,-z
1/2-x,y,1/2+z
1/2+x,1/2-y,1/2+z
loop_
_atom_site_type_symbol
_atom_site_label
_atom_site_fract_x
_atom_site_fract_y
_atom_site_fract_z
Si Si1 0.228223 0.789713 0.346334
Si Si2 0.012170 0.995865 0.362466
Si Si3 0.616993 0.919535 0.993905
Si Si4 0.288666 0.434660 0.129135
Si Si5 0.605992 0.271138 0.991172
O O1 0.205804 0.750000 0.250000
O O2 0.231848 0.866395 0.316158
O O3 0.329186 0.766577 0.393934
O O4 0.143215 0.777905 0.425056
O O5 0.096130 0.942217 0.386307
O O6 0.000000 0.012196 0.250000
O O7 0.911323 0.964746 0.401578
O O8 0.042061 0.062615 0.417771
O O9 0.728272 0.933330 0.026860
O O10 0.606212 0.844111 0.965291
O O11 0.250000 0.500000 0.187233
O O12 0.500000 0.250000 0.958031
#
# Coordination Sequence:
#
# PCOD8282213 Si02
#       5
#    16  16  16  16  16
#     4  10  22  38  61  91 121 156 209 250 294 373
#     4  10  20  36  62  91 116 157 206 250 293 367
#     4   9  20  39  57  85 126 153 195 253 307 357
#     4   9  19  39  59  84 124 154 194 253 305 354
#     4  10  21  40  60  85 122 163 193 248 310 357
#
# _framework density 20.701920000000001
#
# number of rings (size 3 to 8) (size 9 to 14) (size 15 to 20)
#    0.000    2.400    0.000    1.200    2.800    0.800 
#   10.800   15.000    0.000    0.000    0.000    0.000 
#    0.000    0.000    0.000    0.000    0.000    0.000 
#
# Total GULP energy -495765.446663 kJ/mol
# GULP energy per Si atom -12394.136167 kJ/mol
# Density = 2.065480 g / cm^3
# Si number density = 20.701920 Si / 1000 Ang^3
#
#
#
# Elastic Constant Matrix: (Units=GPa)
#
#
# Indices 1 2 3 4 5 6 
#
# 1 93.9747 11.5425 10.5227 0.0000 0.0000 0.0000
# 2 11.5425 125.0891 20.3960 0.0000 0.0000 0.0000
# 3 10.5227 20.3960 81.2528 0.0000 0.0000 0.0000
# 4 0.0000 0.0000 0.0000 20.0715 0.0000 0.0000
# 5 0.0000 0.0000 0.0000 0.0000 13.2140 0.0000
# 6 0.0000 0.0000 0.0000 0.0000 0.0000 25.4436
#
#
#
# Elastic Compliance Matrix: (Units=1/GPa)
#
#
# Indices 1 2 3 4 5 6 
#
# 1 0.010875 -0.000807 -0.001206 0.000000 0.000000 0.000000
# 2 -0.000807 0.008395 -0.002003 0.000000 0.000000 0.000000
# 3 -0.001206 -0.002003 0.012966 0.000000 0.000000 0.000000
# 4 0.000000 0.000000 0.000000 0.049822 0.000000 0.000000
# 5 0.000000 0.000000 0.000000 0.000000 0.075677 0.000000
# 6 0.000000 0.000000 0.000000 0.000000 0.000000 0.039303
#
#
# Mechanical properties :
#
#
# Convention : Reuss Voigt Hill
#
# Bulk Modulus (GPa) = 41.31289 42.80434 42.05861
# Shear Modulus (GPa) = 23.45890 28.93616 26.19753
#
# Velocity S-wave (km/s) = 3.36992 3.74271 3.56120
# Velocity P-wave (km/s) = 5.92800 6.27683 6.10491
#
# Compressibility (1/GPa) = 0.02420552
#
# Stress axis : x y z
#
# Youngs Moduli (GPa) = 91.95150 119.11376 77.12357
#
# Poissons Ratio (x) = 0.09611 0.09300
# Poissons Ratio (y) = 0.07419 0.15447
# Poissons Ratio (z) = 0.11088 0.23857
#
# Static dielectric constant tensor:
#      x y z
#    x 3.862130 0.000000 0.000000 
#    y 0.000000 4.016840 0.000000 
#    z 0.000000 0.000000 3.313090 
# 
# 
# High freq. dielectric constant tensor:
#      x y z
#    x 1.814080 0.000000 0.000000 
#    y 0.000000 1.819790 0.000000 
#    z 0.000000 0.000000 1.771530 
# 
# From -- ./inp_files/22142.got.cif
#   From: 2010.03.12/outbox.cif.g09.slc.cpg/sg68_12_cif.got.tgz:22142.got - 2010.04.10 23:14:56.
