data_PCOD8282196
_publ_section_title
;
Structure prediction by ZEFSAII (Michael W. Deem and Ramdas Pophale) SiO2 
 PCOD8282196
Probable space group: C C C A
;
_chemical_formula_sum "Si O2"
_cell_formula_units_Z 96
_cell_length_a 23.987284
_cell_length_b 17.576619
_cell_length_c 9.329163
_cell_angle_alpha 90.000000
_cell_angle_beta 90.000000
_cell_angle_gamma 90.000000
_cell_volume 3933.318339
_symmetry_space_group_name_H-M "C C C A"
_symmetry_group_IT_number 68
_space_group.IT_coordinate_system_code '2'
_symmetry_cell_setting 'orthorhombic'
loop_
_space_group_symop_operation_xyz
x,y,z
-x,1/2-y,z
x,1/2-y,1/2-z
-x,y,1/2-z
-x,-y,-z
x,1/2+y,-z
-x,1/2+y,1/2+z
x,-y,1/2+z
1/2+x,1/2+y,z
1/2-x,-y,z
1/2+x,-y,1/2-z
1/2-x,1/2+y,1/2-z
1/2-x,1/2-y,-z
1/2+x,y,-z
1/2-x,y,1/2+z
1/2+x,1/2-y,1/2+z
loop_
_atom_site_type_symbol
_atom_site_label
_atom_site_fract_x
_atom_site_fract_y
_atom_site_fract_z
Si Si1 0.407078 0.821591 0.829083
Si Si2 0.772778 0.849823 0.603007
Si Si3 0.443551 0.025037 0.425411
Si Si4 0.331561 0.801892 0.083019
Si Si5 0.309335 0.093364 0.180914
Si Si6 0.374720 0.551133 0.299739
O O1 0.436887 0.750000 0.750000
O O2 0.449541 0.893442 0.843792
O O3 0.354844 0.844670 0.728885
O O4 0.387261 0.794405 0.986823
O O5 0.716993 0.827067 0.521789
O O6 0.812140 0.778764 0.648118
O O7 0.751514 0.887392 0.751942
O O8 0.805624 0.905468 0.493469
O O9 0.394798 0.034980 0.539957
O O10 0.500000 0.000000 0.500000
O O11 0.425520 0.959256 0.312942
O O12 0.347186 0.864689 0.208940
O O13 0.326917 0.010314 0.235709
#
# Coordination Sequence:
#
# PCOD8282196 Si02
#       6
#    16  16  16  16  16  16
#     4   9  16  34  63  96 129 170 223 281 343 407
#     4  10  20  36  59  85 128 179 233 270 322 393
#     4  10  21  39  69 102 135 172 224 286 360 433
#     4   9  19  33  59  91 127 176 228 275 332 385
#     4  10  21  36  58  89 133 181 223 278 330 398
#     4  10  22  41  63  97 137 176 223 286 351 414
#
# _framework density 24.406870999999999
#
# number of rings (size 3 to 8) (size 9 to 14) (size 15 to 20)
#    0.000    2.333    1.667    1.500    0.000    2.000 
#    0.000    6.667    0.000    8.000    0.000    0.000 
#    5.000    0.000    0.000    0.000    0.000    0.000 
#
# Total GULP energy -594956.484251 kJ/mol
# GULP energy per Si atom -12394.926755 kJ/mol
# Density = 2.435132 g / cm^3
# Si number density = 24.406871 Si / 1000 Ang^3
#
#
#
# Elastic Constant Matrix: (Units=GPa)
#
#
# Indices 1 2 3 4 5 6 
#
# 1 79.0825 74.8478 37.9370 0.0000 0.0000 0.0000
# 2 74.8478 155.4936 65.0641 0.0000 0.0000 0.0000
# 3 37.9370 65.0641 118.1879 0.0000 0.0000 0.0000
# 4 0.0000 0.0000 0.0000 41.7075 0.0000 0.0000
# 5 0.0000 0.0000 0.0000 0.0000 42.3623 0.0000
# 6 0.0000 0.0000 0.0000 0.0000 0.0000 24.6084
#
#
#
# Elastic Compliance Matrix: (Units=1/GPa)
#
#
# Indices 1 2 3 4 5 6 
#
# 1 0.023489 -0.010592 -0.001709 0.000000 0.000000 0.000000
# 2 -0.010592 0.013132 -0.003829 0.000000 0.000000 0.000000
# 3 -0.001709 -0.003829 0.011118 0.000000 0.000000 0.000000
# 4 0.000000 0.000000 0.000000 0.023977 0.000000 0.000000
# 5 0.000000 0.000000 0.000000 0.000000 0.023606 0.000000
# 6 0.000000 0.000000 0.000000 0.000000 0.000000 0.040637
#
#
# Mechanical properties :
#
#
# Convention : Reuss Voigt Hill
#
# Bulk Modulus (GPa) = 64.60419 78.71798 71.66109
# Shear Modulus (GPa) = 28.83873 33.39663 31.11768
#
# Velocity S-wave (km/s) = 3.44114 3.70311 3.57453
# Velocity P-wave (km/s) = 6.50506 7.11382 6.81624
#
# Compressibility (1/GPa) = 0.01547887
#
# Stress axis : x y z
#
# Youngs Moduli (GPa) = 42.57247 76.15048 89.94543
#
# Poissons Ratio (x) = 0.80656 0.15371
# Poissons Ratio (y) = 0.45091 0.34444
# Poissons Ratio (z) = 0.07275 0.29162
#
# Static dielectric constant tensor:
#      x y z
#    x 3.962220 0.000000 0.000000 
#    y 0.000000 4.573710 0.000000 
#    z 0.000000 0.000000 4.821370 
# 
# 
# High freq. dielectric constant tensor:
#      x y z
#    x 1.937600 0.000000 0.000000 
#    y 0.000000 1.967010 0.000000 
#    z 0.000000 0.000000 1.998040 
# 
# From -- ./inp_files/8915.got.cif
#   From: 2010.03.12/outbox.cif.g09.slc.cpg/sg68_5_cif.got.tgz:8915.got - 2010.04.10 23:14:56.
