data_PCOD8282881
_publ_section_title
;
Structure prediction by ZEFSAII (Michael W. Deem and Ramdas Pophale) SiO2 
 PCOD8282881
Probable space group: C C C A
;
_chemical_formula_sum "Si O2"
_cell_formula_units_Z 104
_cell_length_a 16.561598
_cell_length_b 21.544109
_cell_length_c 15.045303
_cell_angle_alpha 90.000000
_cell_angle_beta 90.000000
_cell_angle_gamma 90.000000
_cell_volume 5368.237419
_symmetry_space_group_name_H-M "C C C A"
_symmetry_group_IT_number 68
_space_group.IT_coordinate_system_code '2'
_symmetry_cell_setting 'orthorhombic'
loop_
_space_group_symop_operation_xyz
x,y,z
-x,1/2-y,z
x,1/2-y,1/2-z
-x,y,1/2-z
-x,-y,-z
x,1/2+y,-z
-x,1/2+y,1/2+z
x,-y,1/2+z
1/2+x,1/2+y,z
1/2-x,-y,z
1/2+x,-y,1/2-z
1/2-x,1/2+y,1/2-z
1/2-x,1/2-y,-z
1/2+x,y,-z
1/2-x,y,1/2+z
1/2+x,1/2-y,1/2+z
loop_
_atom_site_type_symbol
_atom_site_label
_atom_site_fract_x
_atom_site_fract_y
_atom_site_fract_z
Si Si1 0.481019 0.491193 0.100394
Si Si2 0.500000 0.589613 0.250000
Si Si3 0.750978 0.169137 0.080944
Si Si4 0.679747 0.451020 0.334659
Si Si5 0.789210 0.804889 0.381049
Si Si6 0.926607 0.615492 0.192917
Si Si7 0.855429 0.681714 0.758500
O O1 0.505359 0.548355 0.162276
O O2 0.384756 0.486649 0.106015
O O3 0.528629 0.428968 0.124288
O O4 0.500000 0.500000 0.000000
O O5 0.421047 0.630846 0.263957
O O6 0.705085 0.107191 0.106488
O O7 0.700749 0.230681 0.109179
O O8 0.832890 0.171170 0.138283
O O9 0.765657 0.166232 0.975897
O O10 0.750000 0.500000 0.310122
O O11 0.637114 0.427447 0.245283
O O12 0.877344 0.829682 0.354233
O O13 0.722658 0.823974 0.306789
O O14 0.000000 0.645418 0.250000
O O15 0.894026 0.750000 0.750000
#
# Coordination Sequence:
#
# PCOD8282881 Si02
#       7
#    16   8  16  16  16  16  16
#     4  11  26  42  58  89 129 163 208 259 313 375
#     4  12  23  42  64  86 127 166 198 264 312 364
#     4  10  22  40  65  96 124 161 212 261 305 377
#     4  11  22  41  63  90 124 163 210 254 310 382
#     4  10  22  41  66  94 127 164 211 261 310 372
#     4  10  22  42  63  90 128 166 216 259 313 381
#     4  10  22  40  66  93 121 160 209 258 310 374
#
# _framework density 19.373211999999999
#
# number of rings (size 3 to 8) (size 9 to 14) (size 15 to 20)
#    0.000    1.538    3.846    1.154    6.462    0.000 
#    0.000    5.385    0.000    0.000    0.000    0.000 
#    0.000    0.000    0.000    0.000    0.000    0.000 
#
# Total GULP energy -644539.146582 kJ/mol
# GULP energy per Si atom -12394.983588 kJ/mol
# Density = 1.932912 g / cm^3
# Si number density = 19.373212 Si / 1000 Ang^3
#
#
#
# Elastic Constant Matrix: (Units=GPa)
#
#
# Indices 1 2 3 4 5 6 
#
# 1 111.8667 64.3965 35.1742 0.0000 0.0000 0.0000
# 2 64.3965 105.0101 36.6346 0.0000 0.0000 0.0000
# 3 35.1742 36.6346 116.5752 0.0000 0.0000 0.0000
# 4 0.0000 0.0000 0.0000 19.6151 0.0000 0.0000
# 5 0.0000 0.0000 0.0000 0.0000 20.1596 0.0000
# 6 0.0000 0.0000 0.0000 0.0000 0.0000 42.7317
#
#
#
# Elastic Compliance Matrix: (Units=1/GPa)
#
#
# Indices 1 2 3 4 5 6 
#
# 1 0.014120 -0.008056 -0.001729 0.000000 0.000000 0.000000
# 2 -0.008056 0.015292 -0.002375 0.000000 0.000000 0.000000
# 3 -0.001729 -0.002375 0.009846 0.000000 0.000000 0.000000
# 4 0.000000 0.000000 0.000000 0.050981 0.000000 0.000000
# 5 0.000000 0.000000 0.000000 0.000000 0.049604 0.000000
# 6 0.000000 0.000000 0.000000 0.000000 0.000000 0.023402
#
#
# Mechanical properties :
#
#
# Convention : Reuss Voigt Hill
#
# Bulk Modulus (GPa) = 66.93994 67.31806 67.12900
# Shear Modulus (GPa) = 25.96810 29.65107 27.80958
#
# Velocity S-wave (km/s) = 3.66514 3.91643 3.79286
# Velocity P-wave (km/s) = 7.24837 7.43469 7.34212
#
# Compressibility (1/GPa) = 0.01493877
#
# Stress axis : x y z
#
# Youngs Moduli (GPa) = 70.82011 65.39515 101.56315
#
# Poissons Ratio (x) = 0.52682 0.17559
# Poissons Ratio (y) = 0.57053 0.24119
# Poissons Ratio (z) = 0.12244 0.15530
#
# Static dielectric constant tensor:
#      x y z
#    x 4.124820 0.000000 0.000000 
#    y 0.000000 3.697940 0.000000 
#    z 0.000000 0.000000 3.642300 
# 
# 
# High freq. dielectric constant tensor:
#      x y z
#    x 1.752680 0.000000 0.000000 
#    y 0.000000 1.766030 0.000000 
#    z 0.000000 0.000000 1.756490 
# 
# From -- ./inp_files/23798.got.cif
#   From: 2010.03.12/outbox.cif.g09.slc.cpg/sg68_12_cif.got.tgz:23798.got - 2010.04.10 23:14:56.
