data_PCOD8282446
_publ_section_title
;
Structure prediction by ZEFSAII (Michael W. Deem and Ramdas Pophale) SiO2 
 PCOD8282446
Probable space group: C C C A
;
_chemical_formula_sum "Si O2"
_cell_formula_units_Z 84
_cell_length_a 22.792736
_cell_length_b 19.240748
_cell_length_c 10.166413
_cell_angle_alpha 90.000000
_cell_angle_beta 90.000000
_cell_angle_gamma 90.000000
_cell_volume 4458.473199
_symmetry_space_group_name_H-M "C C C A"
_symmetry_group_IT_number 68
_space_group.IT_coordinate_system_code '2'
_symmetry_cell_setting 'orthorhombic'
loop_
_space_group_symop_operation_xyz
x,y,z
-x,1/2-y,z
x,1/2-y,1/2-z
-x,y,1/2-z
-x,-y,-z
x,1/2+y,-z
-x,1/2+y,1/2+z
x,-y,1/2+z
1/2+x,1/2+y,z
1/2-x,-y,z
1/2+x,-y,1/2-z
1/2-x,1/2+y,1/2-z
1/2-x,1/2-y,-z
1/2+x,y,-z
1/2-x,y,1/2+z
1/2+x,1/2-y,1/2+z
loop_
_atom_site_type_symbol
_atom_site_label
_atom_site_fract_x
_atom_site_fract_y
_atom_site_fract_z
Si Si1 0.000000 0.750000 0.250000
Si Si2 0.041214 0.110755 0.364189
Si Si3 0.558422 0.659604 0.960409
Si Si4 0.813282 0.032218 0.332974
Si Si5 0.860778 0.821096 0.804076
Si Si6 0.115211 0.485155 0.588764
O O1 0.953673 0.793942 0.165689
O O2 0.088658 0.161484 0.300035
O O3 0.000000 0.078233 0.250000
O O4 0.003090 0.156743 0.462696
O O5 0.071519 0.048399 0.443496
O O6 0.577170 0.583955 0.911718
O O7 0.610187 0.690550 0.052279
O O8 0.813394 0.116003 0.309601
O O9 0.833706 0.015575 0.480298
O O10 0.750000 0.000000 0.309563
O O11 0.857582 0.995536 0.232684
O O12 0.830427 0.750000 0.750000
#
# Coordination Sequence:
#
# PCOD8282446 Si02
#       6
#     4  16  16  16  16  16
#     4  12  24  28  46  76 124 164 162 218 276 328
#     4   9  18  32  56  83 107 148 185 223 263 328
#     4  10  21  32  48  80 118 150 182 213 273 332
#     4  10  21  38  61  83 105 141 189 247 286 319
#     4   9  18  36  58  79 107 144 192 222 265 339
#     4  10  21  35  58  82 109 145 187 235 277 329
#
# _framework density 18.840530999999999
#
# number of rings (size 3 to 8) (size 9 to 14) (size 15 to 20)
#    0.000    2.286    0.000    3.429    4.000    2.667 
#    0.000    0.000    2.095    6.857    0.000    0.000 
#    0.000    0.000    0.000    0.000    0.000    0.000 
#
# Total GULP energy -520771.030731 kJ/mol
# GULP energy per Si atom -12399.310255 kJ/mol
# Density = 1.879765 g / cm^3
# Si number density = 18.840531 Si / 1000 Ang^3
#
#
#
# Elastic Constant Matrix: (Units=GPa)
#
#
# Indices 1 2 3 4 5 6 
#
# 1 67.7816 29.4696 15.1154 0.0000 0.0000 0.0000
# 2 29.4696 99.3483 45.4526 0.0000 0.0000 0.0000
# 3 15.1154 45.4526 85.3739 0.0000 0.0000 0.0000
# 4 0.0000 0.0000 0.0000 30.1145 0.0000 0.0000
# 5 0.0000 0.0000 0.0000 0.0000 13.4808 0.0000
# 6 0.0000 0.0000 0.0000 0.0000 0.0000 21.3001
#
#
#
# Elastic Compliance Matrix: (Units=1/GPa)
#
#
# Indices 1 2 3 4 5 6 
#
# 1 0.016949 -0.004832 -0.000429 0.000000 0.000000 0.000000
# 2 -0.004832 0.014684 -0.006962 0.000000 0.000000 0.000000
# 3 -0.000429 -0.006962 0.015496 0.000000 0.000000 0.000000
# 4 0.000000 0.000000 0.000000 0.033207 0.000000 0.000000
# 5 0.000000 0.000000 0.000000 0.000000 0.074180 0.000000
# 6 0.000000 0.000000 0.000000 0.000000 0.000000 0.046948
#
#
# Mechanical properties :
#
#
# Convention : Reuss Voigt Hill
#
# Bulk Modulus (GPa) = 44.08324 48.06432 46.07378
# Shear Modulus (GPa) = 21.41602 23.81016 22.61309
#
# Velocity S-wave (km/s) = 3.37515 3.55882 3.46820
# Velocity P-wave (km/s) = 6.21593 6.51563 6.36754
#
# Compressibility (1/GPa) = 0.02268436
#
# Stress axis : x y z
#
# Youngs Moduli (GPa) = 58.99880 68.10081 64.53383
#
# Poissons Ratio (x) = 0.32904 0.02766
# Poissons Ratio (y) = 0.28506 0.44930
# Poissons Ratio (z) = 0.02528 0.47414
#
# Static dielectric constant tensor:
#      x y z
#    x 3.199040 0.000000 0.000000 
#    y 0.000000 3.444080 0.000000 
#    z 0.000000 0.000000 3.567620 
# 
# 
# High freq. dielectric constant tensor:
#      x y z
#    x 1.704700 0.000000 0.000000 
#    y 0.000000 1.734260 0.000000 
#    z 0.000000 0.000000 1.739050 
# 
# From -- ./inp_files/8873.got.cif
#   From: 2010.03.12/outbox.cif.g09.slc.cpg/sg68_5_cif.got.tgz:8873.got - 2010.04.10 23:14:56.
