data_PCOD8282683
_publ_section_title
;
Structure prediction by ZEFSAII (Michael W. Deem and Ramdas Pophale) SiO2 
 PCOD8282683
Probable space group: C C C A
;
_chemical_formula_sum "Si O2"
_cell_formula_units_Z 72
_cell_length_a 10.787898
_cell_length_b 15.539827
_cell_length_c 18.071339
_cell_angle_alpha 90.000000
_cell_angle_beta 90.000000
_cell_angle_gamma 90.000000
_cell_volume 3029.516653
_symmetry_space_group_name_H-M "C C C A"
_symmetry_group_IT_number 68
_space_group.IT_coordinate_system_code '2'
_symmetry_cell_setting 'orthorhombic'
loop_
_space_group_symop_operation_xyz
x,y,z
-x,1/2-y,z
x,1/2-y,1/2-z
-x,y,1/2-z
-x,-y,-z
x,1/2+y,-z
-x,1/2+y,1/2+z
x,-y,1/2+z
1/2+x,1/2+y,z
1/2-x,-y,z
1/2+x,-y,1/2-z
1/2-x,1/2+y,1/2-z
1/2-x,1/2-y,-z
1/2+x,y,-z
1/2-x,y,1/2+z
1/2+x,1/2-y,1/2+z
loop_
_atom_site_type_symbol
_atom_site_label
_atom_site_fract_x
_atom_site_fract_y
_atom_site_fract_z
Si Si1 0.241469 0.159425 0.541273
Si Si2 0.500000 0.594757 0.250000
Si Si3 0.127820 0.542656 0.166571
Si Si4 0.478864 0.352506 0.036382
Si Si5 0.760156 0.837775 0.284904
O O1 0.250000 0.250000 0.500000
O O2 0.373948 0.115204 0.522524
O O3 0.217945 0.166741 0.628058
O O4 0.115457 0.110051 0.512904
O O5 0.468974 0.533996 0.180022
O O6 0.386128 0.655232 0.270701
O O7 0.250000 0.500000 0.129288
O O8 0.066371 0.614876 0.115934
O O9 0.165959 0.583956 0.246386
O O10 0.500000 0.250000 0.041137
O O11 0.810109 0.750000 0.250000
#
# Coordination Sequence:
#
# PCOD8282683 Si02
#       5
#    16   8  16  16  16
#     4  10  22  38  62  95 127 161 213 268 313 369
#     4  10  23  38  59  92 130 160 202 264 323 374
#     4  10  22  41  62  92 128 163 208 264 322 379
#     4  10  21  40  65  91 124 167 211 260 310 377
#     4  11  22  39  66  93 120 164 215 262 313 376
#
# _framework density 23.766168
#
# number of rings (size 3 to 8) (size 9 to 14) (size 15 to 20)
#    0.000    1.778    0.000    4.333    0.000    8.889 
#    0.000   12.222    0.000    0.000    0.000    0.000 
#    0.000    0.000    0.000    0.000    0.000    0.000 
#
# Total GULP energy -446051.050109 kJ/mol
# GULP energy per Si atom -12390.306947 kJ/mol
# Density = 2.371208 g / cm^3
# Si number density = 23.766168 Si / 1000 Ang^3
#
#
#
# Elastic Constant Matrix: (Units=GPa)
#
#
# Indices 1 2 3 4 5 6 
#
# 1 187.1898 16.6086 55.7478 0.0000 0.0000 0.0000
# 2 16.6086 53.4430 10.4431 0.0000 0.0000 0.0000
# 3 55.7478 10.4431 114.8015 0.0000 0.0000 0.0000
# 4 0.0000 0.0000 0.0000 24.5196 0.0000 0.0000
# 5 0.0000 0.0000 0.0000 0.0000 21.9367 0.0000
# 6 0.0000 0.0000 0.0000 0.0000 0.0000 24.5688
#
#
#
# Elastic Compliance Matrix: (Units=1/GPa)
#
#
# Indices 1 2 3 4 5 6 
#
# 1 0.006346 -0.001395 -0.002955 0.000000 0.000000 0.000000
# 2 -0.001395 0.019357 -0.001084 0.000000 0.000000 0.000000
# 3 -0.002955 -0.001084 0.010244 0.000000 0.000000 0.000000
# 4 0.000000 0.000000 0.000000 0.040784 0.000000 0.000000
# 5 0.000000 0.000000 0.000000 0.000000 0.045586 0.000000
# 6 0.000000 0.000000 0.000000 0.000000 0.000000 0.040702
#
#
# Mechanical properties :
#
#
# Convention : Reuss Voigt Hill
#
# Bulk Modulus (GPa) = 39.87128 57.89258 48.88193
# Shear Modulus (GPa) = 27.43573 32.38068 29.90820
#
# Velocity S-wave (km/s) = 3.40134 3.69517 3.55129
# Velocity P-wave (km/s) = 5.67788 6.52823 6.11785
#
# Compressibility (1/GPa) = 0.02508071
#
# Stress axis : x y z
#
# Youngs Moduli (GPa) = 157.58273 51.66171 97.61757
#
# Poissons Ratio (x) = 0.07206 0.28843
# Poissons Ratio (y) = 0.21979 0.10577
# Poissons Ratio (z) = 0.46561 0.05598
#
# Static dielectric constant tensor:
#      x y z
#    x -4.555270 0.000000 0.000000 
#    y 0.000000 3.948600 0.000000 
#    z 0.000000 0.000000 4.015920 
# 
# 
# High freq. dielectric constant tensor:
#      x y z
#    x 1.977960 0.000000 0.000000 
#    y 0.000000 1.919610 0.000000 
#    z 0.000000 0.000000 1.923060 
# 
# From -- ./inp_files/29374.got.cif
#   From: 2010.03.12/outbox.cif.g09.slc.cpg/sg68_15_cif.got.tgz:29374.got - 2010.04.10 23:14:56.
