data_PCOD8282352
_publ_section_title
;
Structure prediction by ZEFSAII (Michael W. Deem and Ramdas Pophale) SiO2 
 PCOD8282352
Probable space group: C C C A
;
_chemical_formula_sum "Si O2"
_cell_formula_units_Z 116
_cell_length_a 19.922856
_cell_length_b 17.308835
_cell_length_c 16.800329
_cell_angle_alpha 90.000000
_cell_angle_beta 90.000000
_cell_angle_gamma 90.000000
_cell_volume 5793.449430
_symmetry_space_group_name_H-M "C C C A"
_symmetry_group_IT_number 68
_space_group.IT_coordinate_system_code '2'
_symmetry_cell_setting 'orthorhombic'
loop_
_space_group_symop_operation_xyz
x,y,z
-x,1/2-y,z
x,1/2-y,1/2-z
-x,y,1/2-z
-x,-y,-z
x,1/2+y,-z
-x,1/2+y,1/2+z
x,-y,1/2+z
1/2+x,1/2+y,z
1/2-x,-y,z
1/2+x,-y,1/2-z
1/2-x,1/2+y,1/2-z
1/2-x,1/2-y,-z
1/2+x,y,-z
1/2-x,y,1/2+z
1/2+x,1/2-y,1/2+z
loop_
_atom_site_type_symbol
_atom_site_label
_atom_site_fract_x
_atom_site_fract_y
_atom_site_fract_z
Si Si1 0.085347 0.662838 0.628039
Si Si2 0.866354 0.684324 0.553097
Si Si3 0.489732 0.410085 0.000223
Si Si4 0.774955 0.413677 0.332963
Si Si5 0.000000 0.250000 0.250000
Si Si6 0.829122 0.703663 0.380940
Si Si7 0.026975 0.164594 0.834010
Si Si8 0.268039 0.315510 0.809673
O O1 0.100436 0.748802 0.601982
O O2 0.045575 0.624782 0.556219
O O3 0.146909 0.604462 0.648141
O O4 0.041968 0.683578 0.704660
O O5 0.843515 0.724581 0.471692
O O6 0.806597 0.657318 0.611012
O O7 0.916404 0.613659 0.533298
O O8 0.500000 0.500000 0.000000
O O9 0.500211 0.384074 0.091573
O O10 0.750000 0.500000 0.350857
O O11 0.730757 0.358134 0.388005
O O12 0.758327 0.393366 0.240958
O O13 0.892133 0.667271 0.333967
O O14 0.804023 0.780426 0.335368
O O15 0.000000 0.250000 0.845879
O O16 0.000000 0.129403 0.750000
O O17 0.302961 0.250000 0.750000
#
# Coordination Sequence:
#
# PCOD8282352 Si02
#       8
#    16  16  16  16   4  16  16  16
#     4  12  23  42  71  99 134 174 231 283 340 400
#     4  11  20  42  69  95 123 175 229 271 327 401
#     4  11  25  43  62  99 141 173 214 278 345 408
#     4  11  26  42  62  96 140 176 213 280 344 397
#     4  12  24  44  76 108 122 180 248 288 332 400
#     4  10  22  40  68  92 128 168 223 274 324 391
#     4  10  23  43  68  96 125 173 224 271 328 397
#     4  10  20  39  64  97 123 164 226 276 322 396
#
# _framework density 20.022614000000001
#
# number of rings (size 3 to 8) (size 9 to 14) (size 15 to 20)
#    0.000    1.241    4.138    2.897    9.655    0.000 
#    3.724    0.690    0.000    0.000    0.000    0.000 
#    0.000    0.000    0.000    0.000    0.000    0.000 
#
# Total GULP energy -718630.610394 kJ/mol
# GULP energy per Si atom -12390.182938 kJ/mol
# Density = 1.997704 g / cm^3
# Si number density = 20.022614 Si / 1000 Ang^3
#
#
#
# Elastic Constant Matrix: (Units=GPa)
#
#
# Indices 1 2 3 4 5 6 
#
# 1 114.2818 27.2257 57.5871 0.0000 0.0000 0.0000
# 2 27.2257 71.1193 26.8553 0.0000 0.0000 0.0000
# 3 57.5871 26.8553 143.0243 0.0000 0.0000 0.0000
# 4 0.0000 0.0000 0.0000 7.8209 0.0000 0.0000
# 5 0.0000 0.0000 0.0000 0.0000 12.3974 0.0000
# 6 0.0000 0.0000 0.0000 0.0000 0.0000 73.4680
#
#
#
# Elastic Compliance Matrix: (Units=1/GPa)
#
#
# Indices 1 2 3 4 5 6 
#
# 1 0.011492 -0.002854 -0.004091 0.000000 0.000000 0.000000
# 2 -0.002854 0.015843 -0.001825 0.000000 0.000000 0.000000
# 3 -0.004091 -0.001825 0.008982 0.000000 0.000000 0.000000
# 4 0.000000 0.000000 0.000000 0.127863 0.000000 0.000000
# 5 0.000000 0.000000 0.000000 0.000000 0.080662 0.000000
# 6 0.000000 0.000000 0.000000 0.000000 0.000000 0.013611
#
#
# Mechanical properties :
#
#
# Convention : Reuss Voigt Hill
#
# Bulk Modulus (GPa) = 53.26351 61.30682 57.28517
# Shear Modulus (GPa) = 17.71456 33.18773 25.45114
#
# Velocity S-wave (km/s) = 2.97766 4.07567 3.56914
# Velocity P-wave (km/s) = 6.20334 7.26866 6.75703
#
# Compressibility (1/GPa) = 0.01877458
#
# Stress axis : x y z
#
# Youngs Moduli (GPa) = 87.01822 63.11961 111.33603
#
# Poissons Ratio (x) = 0.18017 0.45549
# Poissons Ratio (y) = 0.24839 0.20324
# Poissons Ratio (z) = 0.35600 0.11522
#
# Static dielectric constant tensor:
#      x y z
#    x 4.078930 0.000000 0.000000 
#    y 0.000000 3.386940 0.000000 
#    z 0.000000 0.000000 3.835330 
# 
# 
# High freq. dielectric constant tensor:
#      x y z
#    x 1.789600 0.000000 0.000000 
#    y 0.000000 1.748360 0.000000 
#    z 0.000000 0.000000 1.803880 
# 
# From -- ./inp_files/32166.got.cif
#   From: 2010.03.12/outbox.cif.g09.slc.cpg/sg68_17_cif.got.tgz:32166.got - 2010.04.10 23:14:56.
