data_PCOD8282973
_publ_section_title
;
Structure prediction by ZEFSAII (Michael W. Deem and Ramdas Pophale) SiO2 
 PCOD8282973
Probable space group: C C C A
;
_chemical_formula_sum "Si O2"
_cell_formula_units_Z 64
_cell_length_a 28.408447
_cell_length_b 8.345125
_cell_length_c 12.142132
_cell_angle_alpha 90.000000
_cell_angle_beta 90.000000
_cell_angle_gamma 90.000000
_cell_volume 2878.560019
_symmetry_space_group_name_H-M "C C C A"
_symmetry_group_IT_number 68
_space_group.IT_coordinate_system_code '2'
_symmetry_cell_setting 'orthorhombic'
loop_
_space_group_symop_operation_xyz
x,y,z
-x,1/2-y,z
x,1/2-y,1/2-z
-x,y,1/2-z
-x,-y,-z
x,1/2+y,-z
-x,1/2+y,1/2+z
x,-y,1/2+z
1/2+x,1/2+y,z
1/2-x,-y,z
1/2+x,-y,1/2-z
1/2-x,1/2+y,1/2-z
1/2-x,1/2-y,-z
1/2+x,y,-z
1/2-x,y,1/2+z
1/2+x,1/2-y,1/2+z
loop_
_atom_site_type_symbol
_atom_site_label
_atom_site_fract_x
_atom_site_fract_y
_atom_site_fract_z
Si Si1 0.000000 0.250000 0.035526
Si Si2 0.616772 0.250000 0.250000
Si Si3 0.810356 0.663722 0.411412
Si Si4 0.202228 0.305519 0.133359
Si Si5 0.962109 0.043727 0.656752
O O1 0.032728 0.359463 0.116014
O O2 0.033495 0.147500 0.955300
O O3 0.651849 0.219277 0.352637
O O4 0.586416 0.408529 0.281704
O O5 0.819616 0.478928 0.386890
O O6 0.816987 0.685387 0.541364
O O7 0.758570 0.707357 0.369316
O O8 0.182653 0.250000 0.250000
O O9 0.000000 0.085537 0.750000
#
# Coordination Sequence:
#
# PCOD8282973 Si02
#       5
#     8   8  16  16  16
#     4  10  22  42  74  96 128 194 226 264 370 446
#     4  12  23  42  68 106 144 178 240 310 345 412
#     4  10  24  39  69  98 139 187 242 301 353 421
#     4  10  22  44  67  94 138 198 241 283 370 425
#     4  11  22  45  70 100 139 184 223 291 362 427
#
# _framework density 22.233338
#
# number of rings (size 3 to 8) (size 9 to 14) (size 15 to 20)
#    0.000    1.500    3.750    0.375    3.500    4.000 
#    0.000    2.500    0.000    0.000    0.000    0.000 
#    0.000    0.000    0.000    0.000    0.000    0.000 
#
# Total GULP energy -396539.935111 kJ/mol
# GULP energy per Si atom -12391.872972 kJ/mol
# Density = 2.218273 g / cm^3
# Si number density = 22.233338 Si / 1000 Ang^3
#
#
#
# Elastic Constant Matrix: (Units=GPa)
#
#
# Indices 1 2 3 4 5 6 
#
# 1 89.1388 50.0806 45.5197 0.0000 0.0000 0.0000
# 2 50.0806 136.1267 93.8660 0.0000 0.0000 0.0000
# 3 45.5197 93.8660 187.0930 0.0000 0.0000 0.0000
# 4 0.0000 0.0000 0.0000 48.5292 0.0000 0.0000
# 5 0.0000 0.0000 0.0000 0.0000 36.6644 0.0000
# 6 0.0000 0.0000 0.0000 0.0000 0.0000 18.9375
#
#
#
# Elastic Compliance Matrix: (Units=1/GPa)
#
#
# Indices 1 2 3 4 5 6 
#
# 1 0.014341 -0.004388 -0.001288 0.000000 0.000000 0.000000
# 2 -0.004388 0.012575 -0.005241 0.000000 0.000000 0.000000
# 3 -0.001288 -0.005241 0.008288 0.000000 0.000000 0.000000
# 4 0.000000 0.000000 0.000000 0.020606 0.000000 0.000000
# 5 0.000000 0.000000 0.000000 0.000000 0.027274 0.000000
# 6 0.000000 0.000000 0.000000 0.000000 0.000000 0.052805
#
#
# Mechanical properties :
#
#
# Convention : Reuss Voigt Hill
#
# Bulk Modulus (GPa) = 74.79599 87.92122 81.35861
# Shear Modulus (GPa) = 30.82991 35.68569 33.25780
#
# Velocity S-wave (km/s) = 3.72782 4.01066 3.87182
# Velocity P-wave (km/s) = 7.22795 7.81523 7.52732
#
# Compressibility (1/GPa) = 0.01336970
#
# Stress axis : x y z
#
# Youngs Moduli (GPa) = 69.72783 79.52599 120.66086
#
# Poissons Ratio (x) = 0.34898 0.15537
# Poissons Ratio (y) = 0.30599 0.63239
# Poissons Ratio (z) = 0.08978 0.41680
#
# Static dielectric constant tensor:
#      x y z
#    x 3.808640 0.000000 0.000000 
#    y 0.000000 3.941720 0.000000 
#    z 0.000000 0.000000 4.311690 
# 
# 
# High freq. dielectric constant tensor:
#      x y z
#    x 1.847130 0.000000 0.000000 
#    y 0.000000 1.865200 0.000000 
#    z 0.000000 0.000000 1.896150 
# 
# From -- ./inp_files/17478.got.cif
#   From: 2010.03.12/outbox.cif.g09.slc.cpg/sg68_9_cif.got.tgz:17478.got - 2010.04.10 23:14:56.
