data_PCOD8282302
_publ_section_title
;
Structure prediction by ZEFSAII (Michael W. Deem and Ramdas Pophale) SiO2 
 PCOD8282302
Probable space group: C C C A
;
_chemical_formula_sum "Si O2"
_cell_formula_units_Z 88
_cell_length_a 10.933128
_cell_length_b 17.183730
_cell_length_c 22.294474
_cell_angle_alpha 90.000000
_cell_angle_beta 90.000000
_cell_angle_gamma 90.000000
_cell_volume 4188.505627
_symmetry_space_group_name_H-M "C C C A"
_symmetry_group_IT_number 68
_space_group.IT_coordinate_system_code '2'
_symmetry_cell_setting 'orthorhombic'
loop_
_space_group_symop_operation_xyz
x,y,z
-x,1/2-y,z
x,1/2-y,1/2-z
-x,y,1/2-z
-x,-y,-z
x,1/2+y,-z
-x,1/2+y,1/2+z
x,-y,1/2+z
1/2+x,1/2+y,z
1/2-x,-y,z
1/2+x,-y,1/2-z
1/2-x,1/2+y,1/2-z
1/2-x,1/2-y,-z
1/2+x,y,-z
1/2-x,y,1/2+z
1/2+x,1/2-y,1/2+z
loop_
_atom_site_type_symbol
_atom_site_label
_atom_site_fract_x
_atom_site_fract_y
_atom_site_fract_z
Si Si1 0.740726 0.586367 0.260074
Si Si2 0.426230 0.824549 0.350506
Si Si3 0.000000 0.072281 0.750000
Si Si4 0.625525 0.465338 0.025489
Si Si5 0.591937 0.036191 0.849099
Si Si6 0.128994 0.793992 0.979993
O O1 0.750000 0.500000 0.290456
O O2 0.655136 0.645438 0.295355
O O3 0.877365 0.623817 0.257065
O O4 0.700622 0.573371 0.191065
O O5 0.500000 0.750000 0.326121
O O6 0.516289 0.891263 0.374583
O O7 0.347204 0.804245 0.408904
O O8 0.994048 0.015713 0.807248
O O9 0.750000 0.500000 0.994392
O O10 0.638047 0.484548 0.095839
O O11 0.500000 0.500000 0.000000
O O12 0.623281 0.373422 0.016926
O O13 0.000000 0.750000 0.991501
O O14 0.250000 0.750000 0.000000
#
# Coordination Sequence:
#
# PCOD8282302 Si02
#       6
#    16  16   8  16  16  16
#     4  10  20  39  65 101 138 170 226 293 341 406
#     4  11  23  41  71  96 136 186 234 272 345 424
#     4  10  20  38  63  97 140 164 220 302 342 388
#     4  12  25  42  73 102 130 183 239 282 346 421
#     4  11  21  41  66 102 131 181 233 283 337 423
#     4  11  26  48  66 102 144 181 230 294 347 411
#
# _framework density 21.009879999999999
#
# number of rings (size 3 to 8) (size 9 to 14) (size 15 to 20)
#    0.000    1.091    5.455    2.727    2.545    5.091 
#    0.000    0.000    0.000    1.091    0.000    0.000 
#    0.000    0.000    0.000    0.000    0.000    0.000 
#
# Total GULP energy -545273.895139 kJ/mol
# GULP energy per Si atom -12392.588526 kJ/mol
# Density = 2.096206 g / cm^3
# Si number density = 21.009880 Si / 1000 Ang^3
#
#
#
# Elastic Constant Matrix: (Units=GPa)
#
#
# Indices 1 2 3 4 5 6 
#
# 1 182.3084 66.6378 66.7953 0.0000 0.0000 0.0000
# 2 66.6378 133.9531 58.4953 0.0000 0.0000 0.0000
# 3 66.7953 58.4953 129.9855 0.0000 0.0000 0.0000
# 4 0.0000 0.0000 0.0000 77.3093 0.0000 0.0000
# 5 0.0000 0.0000 0.0000 0.0000 28.6236 0.0000
# 6 0.0000 0.0000 0.0000 0.0000 0.0000 37.6100
#
#
#
# Elastic Compliance Matrix: (Units=1/GPa)
#
#
# Indices 1 2 3 4 5 6 
#
# 1 0.007377 -0.002507 -0.002663 0.000000 0.000000 0.000000
# 2 -0.002507 0.010143 -0.003276 0.000000 0.000000 0.000000
# 3 -0.002663 -0.003276 0.010536 0.000000 0.000000 0.000000
# 4 0.000000 0.000000 0.000000 0.012935 0.000000 0.000000
# 5 0.000000 0.000000 0.000000 0.000000 0.034936 0.000000
# 6 0.000000 0.000000 0.000000 0.000000 0.000000 0.026589
#
#
# Mechanical properties :
#
#
# Convention : Reuss Voigt Hill
#
# Bulk Modulus (GPa) = 89.57308 92.23375 90.90342
# Shear Modulus (GPa) = 40.60760 45.66315 43.13538
#
# Velocity S-wave (km/s) = 4.40112 4.66705 4.53603
# Velocity P-wave (km/s) = 8.27966 8.54618 8.41398
#
# Compressibility (1/GPa) = 0.01116407
#
# Stress axis : x y z
#
# Youngs Moduli (GPa) = 135.55271 98.58780 94.91490
#
# Poissons Ratio (x) = 0.24718 0.25272
# Poissons Ratio (y) = 0.33986 0.31096
# Poissons Ratio (z) = 0.36093 0.32300
#
# Static dielectric constant tensor:
#      x y z
#    x 4.077480 0.000000 0.000000 
#    y 0.000000 4.132420 0.000000 
#    z 0.000000 0.000000 3.750290 
# 
# 
# High freq. dielectric constant tensor:
#      x y z
#    x 1.845930 0.000000 0.000000 
#    y 0.000000 1.807030 0.000000 
#    z 0.000000 0.000000 1.818960 
# 
# From -- ./inp_files/37440.got.cif
#   From: 2010.03.12/outbox.cif.g09.slc.cpg/sg68_19_cif.got.tgz:37440.got - 2010.04.10 23:14:56.
