data_PCOD8282208
_publ_section_title
;
Structure prediction by ZEFSAII (Michael W. Deem and Ramdas Pophale) SiO2 
 PCOD8282208
Probable space group: C C C A
;
_chemical_formula_sum "Si O2"
_cell_formula_units_Z 116
_cell_length_a 23.971438
_cell_length_b 8.757150
_cell_length_c 26.827747
_cell_angle_alpha 90.000000
_cell_angle_beta 90.000000
_cell_angle_gamma 90.000000
_cell_volume 5631.720309
_symmetry_space_group_name_H-M "C C C A"
_symmetry_group_IT_number 68
_space_group.IT_coordinate_system_code '2'
_symmetry_cell_setting 'orthorhombic'
loop_
_space_group_symop_operation_xyz
x,y,z
-x,1/2-y,z
x,1/2-y,1/2-z
-x,y,1/2-z
-x,-y,-z
x,1/2+y,-z
-x,1/2+y,1/2+z
x,-y,1/2+z
1/2+x,1/2+y,z
1/2-x,-y,z
1/2+x,-y,1/2-z
1/2-x,1/2+y,1/2-z
1/2-x,1/2-y,-z
1/2+x,y,-z
1/2-x,y,1/2+z
1/2+x,1/2-y,1/2+z
loop_
_atom_site_type_symbol
_atom_site_label
_atom_site_fract_x
_atom_site_fract_y
_atom_site_fract_z
Si Si1 0.394623 0.721966 0.101649
Si Si2 0.693084 0.571530 0.255395
Si Si3 0.606420 0.787947 0.886453
Si Si4 0.090525 0.056483 0.188612
Si Si5 0.039162 0.526944 0.071133
Si Si6 0.084580 0.508000 0.965171
Si Si7 0.312615 0.021771 0.368649
Si Si8 0.500000 0.250000 0.750000
O O1 0.385618 0.816103 0.151624
O O2 0.453057 0.627326 0.103744
O O3 0.395322 0.825740 0.052283
O O4 0.346784 0.594734 0.096881
O O5 0.699045 0.750000 0.250000
O O6 0.750000 0.500000 0.233235
O O7 0.638900 0.511204 0.226799
O O8 0.683517 0.524069 0.311603
O O9 0.555650 0.672475 0.896309
O O10 0.662752 0.694573 0.872369
O O11 0.581127 0.901882 0.843688
O O12 0.622562 0.881134 0.937293
O O13 0.037272 0.132226 0.216721
O O14 0.976392 0.539402 0.054597
O O15 0.082801 0.507937 0.024585
O O16 0.250000 0.000000 0.388427
#
# Coordination Sequence:
#
# PCOD8282208 Si02
#       8
#    16  16  16  16  16  16  16   4
#     4  10  20  36  61  84 120 162 200 247 303 383
#     4  11  23  42  67  93 119 161 225 279 316 354
#     4  10  23  37  60  94 126 156 210 258 303 375
#     4  11  24  40  61  92 124 176 211 244 327 381
#     4  10  20  37  60  91 125 158 205 251 308 349
#     4  10  20  36  61  92 122 160 203 256 298 361
#     4  10  22  41  64  88 121 159 203 272 321 356
#     4  12  24  44  64  82 144 184 206 242 312 460
#
# _framework density 20.597615000000001
#
# number of rings (size 3 to 8) (size 9 to 14) (size 15 to 20)
#    0.000    1.655    2.069    1.655    7.724    2.207 
#    2.483    2.069    0.000   14.897    0.000    1.931 
#    0.000    0.000    0.000    0.000    0.000    0.000 
#
# Total GULP energy -718658.365067 kJ/mol
# GULP energy per Si atom -12390.661467 kJ/mol
# Density = 2.055073 g / cm^3
# Si number density = 20.597615 Si / 1000 Ang^3
#
#
#
# Elastic Constant Matrix: (Units=GPa)
#
#
# Indices 1 2 3 4 5 6 
#
# 1 95.9537 43.8804 47.4366 0.0000 0.0000 0.0000
# 2 43.8804 142.2776 42.4786 0.0000 0.0000 0.0000
# 3 47.4366 42.4786 72.7216 0.0000 0.0000 0.0000
# 4 0.0000 0.0000 0.0000 28.0706 0.0000 0.0000
# 5 0.0000 0.0000 0.0000 0.0000 30.0854 0.0000
# 6 0.0000 0.0000 0.0000 0.0000 0.0000 27.4817
#
#
#
# Elastic Compliance Matrix: (Units=1/GPa)
#
#
# Indices 1 2 3 4 5 6 
#
# 1 0.015928 -0.002193 -0.009109 0.000000 0.000000 0.000000
# 2 -0.002193 0.008815 -0.003719 0.000000 0.000000 0.000000
# 3 -0.009109 -0.003719 0.021865 0.000000 0.000000 0.000000
# 4 0.000000 0.000000 0.000000 0.035625 0.000000 0.000000
# 5 0.000000 0.000000 0.000000 0.000000 0.033239 0.000000
# 6 0.000000 0.000000 0.000000 0.000000 0.000000 0.036388
#
#
# Mechanical properties :
#
#
# Convention : Reuss Voigt Hill
#
# Bulk Modulus (GPa) = 60.36084 64.28269 62.32176
# Shear Modulus (GPa) = 26.67780 28.93800 27.80790
#
# Velocity S-wave (km/s) = 3.60278 3.75229 3.67829
# Velocity P-wave (km/s) = 6.83191 7.07457 6.95430
#
# Compressibility (1/GPa) = 0.01656703
#
# Stress axis : x y z
#
# Youngs Moduli (GPa) = 62.78421 113.44203 45.73516
#
# Poissons Ratio (x) = 0.24875 0.41659
# Poissons Ratio (y) = 0.13767 0.17008
# Poissons Ratio (z) = 0.57189 0.42187
#
# Static dielectric constant tensor:
#      x y z
#    x 3.781650 0.000000 0.000000 
#    y 0.000000 4.866170 0.000000 
#    z 0.000000 0.000000 4.023310 
# 
# 
# High freq. dielectric constant tensor:
#      x y z
#    x 1.782080 0.000000 0.000000 
#    y 0.000000 1.827730 0.000000 
#    z 0.000000 0.000000 1.805490 
# 
# From -- ./inp_files/56088.got.cif
#   From: 2010.03.12/outbox.cif.g09.slc.cpg/sg68_29_cif.got.tgz:56088.got - 2010.04.10 23:14:56.
