data_PCOD8282499
_publ_section_title
;
Structure prediction by ZEFSAII (Michael W. Deem and Ramdas Pophale) SiO2 
 PCOD8282499
Probable space group: C C C A
;
_chemical_formula_sum "Si O2"
_cell_formula_units_Z 96
_cell_length_a 18.293460
_cell_length_b 9.048303
_cell_length_c 28.978030
_cell_angle_alpha 90.000000
_cell_angle_beta 90.000000
_cell_angle_gamma 90.000000
_cell_volume 4796.581722
_symmetry_space_group_name_H-M "C C C A"
_symmetry_group_IT_number 68
_space_group.IT_coordinate_system_code '2'
_symmetry_cell_setting 'orthorhombic'
loop_
_space_group_symop_operation_xyz
x,y,z
-x,1/2-y,z
x,1/2-y,1/2-z
-x,y,1/2-z
-x,-y,-z
x,1/2+y,-z
-x,1/2+y,1/2+z
x,-y,1/2+z
1/2+x,1/2+y,z
1/2-x,-y,z
1/2+x,-y,1/2-z
1/2-x,1/2+y,1/2-z
1/2-x,1/2-y,-z
1/2+x,y,-z
1/2-x,y,1/2+z
1/2+x,1/2-y,1/2+z
loop_
_atom_site_type_symbol
_atom_site_label
_atom_site_fract_x
_atom_site_fract_y
_atom_site_fract_z
Si Si1 0.930484 0.334950 0.854268
Si Si2 0.298617 0.689736 0.376287
Si Si3 0.553859 0.130349 0.494728
Si Si4 0.711679 0.839878 0.703144
Si Si5 0.064558 0.856873 0.899922
Si Si6 0.156440 0.113690 0.586436
O O1 0.870285 0.370690 0.815393
O O2 0.956380 0.480904 0.882118
O O3 0.899234 0.228338 0.892735
O O4 0.000000 0.250000 0.831632
O O5 0.255017 0.724232 0.329362
O O6 0.357219 0.819065 0.378328
O O7 0.237458 0.687041 0.417308
O O8 0.339342 0.530901 0.380142
O O9 0.500000 0.250000 0.471460
O O10 0.579882 0.170642 0.546029
O O11 0.624539 0.082853 0.464586
O O12 0.500000 0.000000 0.500000
O O13 0.705703 0.750000 0.750000
O O14 0.750000 0.000000 0.708683
O O15 0.000000 0.750000 0.882485
#
# Coordination Sequence:
#
# PCOD8282499 Si02
#       6
#    16  16  16  16  16  16
#     4  11  22  40  66  95 130 167 216 264 321 388
#     4  10  22  41  61  92 122 166 215 256 330 391
#     4  11  21  35  56  88 126 174 225 265 315 367
#     4  11  25  45  72  95 124 162 204 260 331 406
#     4  11  22  38  63  88 131 175 219 270 319 377
#     4  10  21  36  60  90 130 173 215 266 313 373
#
# _framework density 20.014253
#
# number of rings (size 3 to 8) (size 9 to 14) (size 15 to 20)
#    0.000    1.333    1.667    5.500    4.667    1.000 
#    0.000    5.000    0.000    0.500    0.000    0.000 
#    0.000    0.000    0.000    0.000    0.000    0.000 
#
# Total GULP energy -594692.047491 kJ/mol
# GULP energy per Si atom -12389.417656 kJ/mol
# Density = 1.996870 g / cm^3
# Si number density = 20.014253 Si / 1000 Ang^3
#
#
#
# Elastic Constant Matrix: (Units=GPa)
#
#
# Indices 1 2 3 4 5 6 
#
# 1 124.5121 56.8476 47.0051 0.0000 0.0000 0.0000
# 2 56.8476 137.5436 38.8907 0.0000 0.0000 0.0000
# 3 47.0051 38.8907 88.2672 0.0000 0.0000 0.0000
# 4 0.0000 0.0000 0.0000 30.1816 0.0000 0.0000
# 5 0.0000 0.0000 0.0000 0.0000 18.4501 0.0000
# 6 0.0000 0.0000 0.0000 0.0000 0.0000 44.3011
#
#
#
# Elastic Compliance Matrix: (Units=1/GPa)
#
#
# Indices 1 2 3 4 5 6 
#
# 1 0.011282 -0.003386 -0.004516 0.000000 0.000000 0.000000
# 2 -0.003386 0.009321 -0.002304 0.000000 0.000000 0.000000
# 3 -0.004516 -0.002304 0.014749 0.000000 0.000000 0.000000
# 4 0.000000 0.000000 0.000000 0.033133 0.000000 0.000000
# 5 0.000000 0.000000 0.000000 0.000000 0.054200 0.000000
# 6 0.000000 0.000000 0.000000 0.000000 0.000000 0.022573
#
#
# Mechanical properties :
#
#
# Convention : Reuss Voigt Hill
#
# Bulk Modulus (GPa) = 66.93137 70.64553 68.78845
# Shear Modulus (GPa) = 29.29953 32.42520 30.86237
#
# Velocity S-wave (km/s) = 3.83029 4.02942 3.93112
# Velocity P-wave (km/s) = 7.28532 7.55133 7.41952
#
# Compressibility (1/GPa) = 0.01494068
#
# Stress axis : x y z
#
# Youngs Moduli (GPa) = 88.63486 107.28121 67.79958
#
# Poissons Ratio (x) = 0.36326 0.30620
# Poissons Ratio (y) = 0.30012 0.15620
# Poissons Ratio (z) = 0.40030 0.24716
#
# Static dielectric constant tensor:
#      x y z
#    x 3.961360 0.000000 0.000000 
#    y 0.000000 3.773730 0.000000 
#    z 0.000000 0.000000 3.095960 
# 
# 
# High freq. dielectric constant tensor:
#      x y z
#    x 1.798100 0.000000 0.000000 
#    y 0.000000 1.797490 0.000000 
#    z 0.000000 0.000000 1.750130 
# 
# From -- ./inp_files/51764.got.cif
#   From: 2010.03.12/outbox.cif.g09.slc.cpg/sg68_26_cif.got.tgz:51764.got - 2010.04.10 23:14:56.
