data_PCOD8282660
_publ_section_title
;
Structure prediction by ZEFSAII (Michael W. Deem and Ramdas Pophale) SiO2 
 PCOD8282660
Probable space group: C C C A
;
_chemical_formula_sum "Si O2"
_cell_formula_units_Z 96
_cell_length_a 21.073369
_cell_length_b 11.509850
_cell_length_c 19.383389
_cell_angle_alpha 90.000000
_cell_angle_beta 90.000000
_cell_angle_gamma 90.000000
_cell_volume 4701.466514
_symmetry_space_group_name_H-M "C C C A"
_symmetry_group_IT_number 68
_space_group.IT_coordinate_system_code '2'
_symmetry_cell_setting 'orthorhombic'
loop_
_space_group_symop_operation_xyz
x,y,z
-x,1/2-y,z
x,1/2-y,1/2-z
-x,y,1/2-z
-x,-y,-z
x,1/2+y,-z
-x,1/2+y,1/2+z
x,-y,1/2+z
1/2+x,1/2+y,z
1/2-x,-y,z
1/2+x,-y,1/2-z
1/2-x,1/2+y,1/2-z
1/2-x,1/2-y,-z
1/2+x,y,-z
1/2-x,y,1/2+z
1/2+x,1/2-y,1/2+z
loop_
_atom_site_type_symbol
_atom_site_label
_atom_site_fract_x
_atom_site_fract_y
_atom_site_fract_z
Si Si1 0.820204 0.489420 0.474636
Si Si2 0.691658 0.915741 0.307753
Si Si3 0.852201 0.165134 0.627547
Si Si4 0.984939 0.384152 0.823641
Si Si5 0.892526 0.574849 0.107396
Si Si6 0.711732 0.342064 0.841290
O O1 0.750000 0.500000 0.508849
O O2 0.842708 0.617644 0.450429
O O3 0.871588 0.444676 0.528844
O O4 0.817163 0.403771 0.408556
O O5 0.678604 0.892223 0.227051
O O6 0.702169 0.795475 0.348717
O O7 0.750000 0.000000 0.321833
O O8 0.630735 0.975736 0.340836
O O9 0.911125 0.094452 0.659959
O O10 0.864696 0.301486 0.630792
O O11 0.787389 0.133568 0.668303
O O12 0.000000 0.250000 0.816394
O O13 0.000000 0.444970 0.750000
O O14 0.030902 0.430967 0.885013
#
# Coordination Sequence:
#
# PCOD8282660 Si02
#       6
#    16  16  16  16  16  16
#     4  10  23  38  58  90 126 160 194 252 314 364
#     4  11  21  36  61  93 121 158 203 249 309 368
#     4  10  21  40  60  85 122 157 204 248 302 361
#     4   9  21  37  59  88 115 153 205 259 295 347
#     4  11  23  37  62  89 120 159 207 247 303 370
#     4  10  23  37  60  92 125 157 195 254 315 363
#
# _framework density 20.419160000000002
#
# number of rings (size 3 to 8) (size 9 to 14) (size 15 to 20)
#    0.000    1.833    1.667    2.000    7.000    3.333 
#    0.000    0.000    0.000    0.000    0.000    0.000 
#    0.000    0.000    0.000    0.000    0.000    0.000 
#
# Total GULP energy -595005.184466 kJ/mol
# GULP energy per Si atom -12395.941343 kJ/mol
# Density = 2.037268 g / cm^3
# Si number density = 20.419160 Si / 1000 Ang^3
#
#
#
# Elastic Constant Matrix: (Units=GPa)
#
#
# Indices 1 2 3 4 5 6 
#
# 1 120.2925 33.3547 62.7543 0.0000 0.0000 0.0000
# 2 33.3547 90.1376 38.1911 0.0000 0.0000 0.0000
# 3 62.7543 38.1911 116.6169 0.0000 0.0000 0.0000
# 4 0.0000 0.0000 0.0000 20.6852 0.0000 0.0000
# 5 0.0000 0.0000 0.0000 0.0000 25.0254 0.0000
# 6 0.0000 0.0000 0.0000 0.0000 0.0000 17.4300
#
#
#
# Elastic Compliance Matrix: (Units=1/GPa)
#
#
# Indices 1 2 3 4 5 6 
#
# 1 0.011847 -0.001954 -0.005735 0.000000 0.000000 0.000000
# 2 -0.001954 0.013204 -0.003273 0.000000 0.000000 0.000000
# 3 -0.005735 -0.003273 0.012733 0.000000 0.000000 0.000000
# 4 0.000000 0.000000 0.000000 0.048344 0.000000 0.000000
# 5 0.000000 0.000000 0.000000 0.000000 0.039959 0.000000
# 6 0.000000 0.000000 0.000000 0.000000 0.000000 0.057372
#
#
# Mechanical properties :
#
#
# Convention : Reuss Voigt Hill
#
# Bulk Modulus (GPa) = 63.05084 66.18302 64.61693
# Shear Modulus (GPa) = 23.73386 25.47790 24.60588
#
# Velocity S-wave (km/s) = 3.41300 3.53617 3.47513
# Velocity P-wave (km/s) = 6.81738 7.01108 6.91491
#
# Compressibility (1/GPa) = 0.01586022
#
# Stress axis : x y z
#
# Youngs Moduli (GPa) = 84.41131 75.73573 78.53536
#
# Poissons Ratio (x) = 0.14797 0.45041
# Poissons Ratio (y) = 0.16492 0.25703
# Poissons Ratio (z) = 0.48411 0.24786
#
# Static dielectric constant tensor:
#      x y z
#    x 3.753560 0.000000 0.000000 
#    y 0.000000 3.810680 0.000000 
#    z 0.000000 0.000000 3.628510 
# 
# 
# High freq. dielectric constant tensor:
#      x y z
#    x 1.784440 0.000000 0.000000 
#    y 0.000000 1.794880 0.000000 
#    z 0.000000 0.000000 1.792490 
# 
# From -- ./inp_files/46005.got.cif
#   From: 2010.03.12/outbox.cif.g09.slc.cpg/sg68_24_cif.got.tgz:46005.got - 2010.04.10 23:14:56.
