data_PCOD8282724
_publ_section_title
;
Structure prediction by ZEFSAII (Michael W. Deem and Ramdas Pophale) SiO2 
 PCOD8282724
Probable space group: C C C A
;
_chemical_formula_sum "Si O2"
_cell_formula_units_Z 108
_cell_length_a 5.229417
_cell_length_b 29.929563
_cell_length_c 32.150971
_cell_angle_alpha 90.000000
_cell_angle_beta 90.000000
_cell_angle_gamma 90.000000
_cell_volume 5032.082398
_symmetry_space_group_name_H-M "C C C A"
_symmetry_group_IT_number 68
_space_group.IT_coordinate_system_code '2'
_symmetry_cell_setting 'orthorhombic'
loop_
_space_group_symop_operation_xyz
x,y,z
-x,1/2-y,z
x,1/2-y,1/2-z
-x,y,1/2-z
-x,-y,-z
x,1/2+y,-z
-x,1/2+y,1/2+z
x,-y,1/2+z
1/2+x,1/2+y,z
1/2-x,-y,z
1/2+x,-y,1/2-z
1/2-x,1/2+y,1/2-z
1/2-x,1/2-y,-z
1/2+x,y,-z
1/2-x,y,1/2+z
1/2+x,1/2-y,1/2+z
loop_
_atom_site_type_symbol
_atom_site_label
_atom_site_fract_x
_atom_site_fract_y
_atom_site_fract_z
Si Si1 0.451100 0.879142 0.591914
Si Si2 0.361824 0.545788 0.294468
Si Si3 0.995281 0.801482 0.026711
Si Si4 0.230237 0.447759 0.975070
Si Si5 0.817986 0.178589 0.214881
Si Si6 0.956566 0.882173 0.645129
Si Si7 0.000000 0.250000 0.750000
Si Si8 0.500000 0.102888 0.250000
O O1 0.475633 0.833763 0.565839
O O2 0.352574 0.921501 0.565800
O O3 0.233266 0.872946 0.625972
O O4 0.727178 0.888970 0.612384
O O5 0.500000 0.536880 0.250000
O O6 0.250000 0.500000 0.313786
O O7 0.540870 0.572544 0.326811
O O8 0.106438 0.574453 0.288083
O O9 0.000000 0.750000 0.041937
O O10 0.226302 0.811878 0.995257
O O11 0.250000 0.500000 0.964417
O O12 0.513514 0.434513 0.990873
O O13 0.615872 0.218238 0.213988
O O14 0.729332 0.131399 0.232435
O O15 0.000000 0.199138 0.250000
O O16 0.924899 0.165084 0.169953
#
# Coordination Sequence:
#
# PCOD8282724 Si02
#       8
#    16  16  16  16  16  16   4   8
#     4  12  25  42  66  99 141 182 210 264 350 411
#     4  12  24  40  67  94 122 179 242 290 328 399
#     4  10  21  42  73 101 129 168 223 273 315 390
#     4  10  21  41  69  98 129 174 229 272 309 383
#     4  11  22  43  67  89 125 172 232 286 326 404
#     4  12  26  43  66  96 144 180 211 278 352 401
#     4  10  26  40  72  94 112 168 254 284 326 398
#     4  11  18  39  66  88 120 158 232 293 332 375
#
# _framework density 21.462287
#
# number of rings (size 3 to 8) (size 9 to 14) (size 15 to 20)
#    0.000    0.889    3.704    3.778    2.074    0.593 
#    1.333    2.963    0.000    0.000    0.000    0.000 
#    0.000    0.000    0.000    0.000    0.000    0.000 
#
# Total GULP energy -669088.599866 kJ/mol
# GULP energy per Si atom -12390.529627 kJ/mol
# Density = 2.141344 g / cm^3
# Si number density = 21.462287 Si / 1000 Ang^3
#
#
#
# Elastic Constant Matrix: (Units=GPa)
#
#
# Indices 1 2 3 4 5 6 
#
# 1 97.8690 37.0656 25.9169 0.0000 0.0000 0.0000
# 2 37.0656 130.8118 55.3471 0.0000 0.0000 0.0000
# 3 25.9169 55.3471 92.0983 0.0000 0.0000 0.0000
# 4 0.0000 0.0000 0.0000 16.7538 0.0000 0.0000
# 5 0.0000 0.0000 0.0000 0.0000 46.6679 0.0000
# 6 0.0000 0.0000 0.0000 0.0000 0.0000 48.1282
#
#
#
# Elastic Compliance Matrix: (Units=1/GPa)
#
#
# Indices 1 2 3 4 5 6 
#
# 1 0.011649 -0.002566 -0.001736 0.000000 0.000000 0.000000
# 2 -0.002566 0.010816 -0.005778 0.000000 0.000000 0.000000
# 3 -0.001736 -0.005778 0.014819 0.000000 0.000000 0.000000
# 4 0.000000 0.000000 0.000000 0.059688 0.000000 0.000000
# 5 0.000000 0.000000 0.000000 0.000000 0.021428 0.000000
# 6 0.000000 0.000000 0.000000 0.000000 0.000000 0.020778
#
#
# Mechanical properties :
#
#
# Convention : Reuss Voigt Hill
#
# Bulk Modulus (GPa) = 58.39757 61.93760 60.16758
# Shear Modulus (GPa) = 30.29436 35.80662 33.05049
#
# Velocity S-wave (km/s) = 3.76109 4.08898 3.92846
# Velocity P-wave (km/s) = 6.79187 7.15643 6.97653
#
# Compressibility (1/GPa) = 0.01712400
#
# Stress axis : x y z
#
# Youngs Moduli (GPa) = 85.84139 92.45151 67.48181
#
# Poissons Ratio (x) = 0.23727 0.11714
# Poissons Ratio (y) = 0.22030 0.38991
# Poissons Ratio (z) = 0.14901 0.53419
#
# Static dielectric constant tensor:
#      x y z
#    x 4.180340 0.000000 0.000000 
#    y 0.000000 4.005420 0.000000 
#    z 0.000000 0.000000 3.857650 
# 
# 
# High freq. dielectric constant tensor:
#      x y z
#    x 1.864850 0.000000 0.000000 
#    y 0.000000 1.854430 0.000000 
#    z 0.000000 0.000000 1.821010 
# 
# From -- ./inp_files/53536.got.cif
#   From: 2010.03.12/outbox.cif.g09.slc.cpg/sg68_27_cif.got.tgz:53536.got - 2010.04.10 23:14:56.
