data_PCOD8282142
_publ_section_title
;
Structure prediction by ZEFSAII (Michael W. Deem and Ramdas Pophale) SiO2 
 PCOD8282142
Probable space group: C C C A
;
_chemical_formula_sum "Si O2"
_cell_formula_units_Z 104
_cell_length_a 16.022916
_cell_length_b 13.443783
_cell_length_c 25.830170
_cell_angle_alpha 90.000000
_cell_angle_beta 90.000000
_cell_angle_gamma 90.000000
_cell_volume 5564.040906
_symmetry_space_group_name_H-M "C C C A"
_symmetry_group_IT_number 68
_space_group.IT_coordinate_system_code '2'
_symmetry_cell_setting 'orthorhombic'
loop_
_space_group_symop_operation_xyz
x,y,z
-x,1/2-y,z
x,1/2-y,1/2-z
-x,y,1/2-z
-x,-y,-z
x,1/2+y,-z
-x,1/2+y,1/2+z
x,-y,1/2+z
1/2+x,1/2+y,z
1/2-x,-y,z
1/2+x,-y,1/2-z
1/2-x,1/2+y,1/2-z
1/2-x,1/2-y,-z
1/2+x,y,-z
1/2-x,y,1/2+z
1/2+x,1/2-y,1/2+z
loop_
_atom_site_type_symbol
_atom_site_label
_atom_site_fract_x
_atom_site_fract_y
_atom_site_fract_z
Si Si1 0.785904 0.193733 0.303898
Si Si2 0.632799 0.576579 0.060216
Si Si3 0.250000 0.500000 0.854809
Si Si4 0.820671 0.928379 0.054895
Si Si5 0.046902 0.053118 0.404069
Si Si6 0.027555 0.138776 0.194346
Si Si7 0.692324 0.709794 0.408201
O O1 0.763549 0.250000 0.250000
O O2 0.728255 0.098494 0.319660
O O3 0.873635 0.136647 0.304122
O O4 0.786363 0.279436 0.347233
O O5 0.670258 0.511740 0.107144
O O6 0.532584 0.567255 0.058775
O O7 0.660726 0.689037 0.067582
O O8 0.665720 0.541997 0.004744
O O9 0.780393 0.819357 0.063884
O O10 0.750000 0.000000 0.079053
O O11 0.907934 0.946024 0.086163
O O12 0.116871 0.134109 0.418046
O O13 0.013636 0.062147 0.345532
O O14 0.000000 0.250000 0.179697
O O15 0.000000 0.102740 0.250000
#
# Coordination Sequence:
#
# PCOD8282142 Si02
#       7
#    16  16   8  16  16  16  16
#     4  11  20  37  58  82 112 143 188 237 280 343
#     4  11  19  37  58  74 112 151 195 226 271 346
#     4  10  22  34  58  84 108 154 188 230 290 340
#     4  10  22  34  51  85 116 147 178 232 288 331
#     4  11  19  34  55  84 112 137 189 236 279 335
#     4  11  17  31  56  82 107 134 177 234 292 314
#     4  10  20  35  56  80 114 142 185 239 289 325
#
# _framework density 18.691452000000002
#
# number of rings (size 3 to 8) (size 9 to 14) (size 15 to 20)
#    0.000    1.385    6.923    1.385    0.000    0.000 
#    6.923    0.000    0.000    0.000    0.000    1.077 
#    0.000    0.000    0.000    0.000    0.000    0.000 
#
# Total GULP energy -644304.117359 kJ/mol
# GULP energy per Si atom -12390.463795 kJ/mol
# Density = 1.864891 g / cm^3
# Si number density = 18.691452 Si / 1000 Ang^3
#
#
#
# Elastic Constant Matrix: (Units=GPa)
#
#
# Indices 1 2 3 4 5 6 
#
# 1 107.0765 62.7067 49.6131 0.0000 0.0000 0.0000
# 2 62.7067 55.4142 16.8633 0.0000 0.0000 0.0000
# 3 49.6131 16.8633 102.9378 0.0000 0.0000 0.0000
# 4 0.0000 0.0000 0.0000 46.3498 0.0000 0.0000
# 5 0.0000 0.0000 0.0000 0.0000 25.4834 0.0000
# 6 0.0000 0.0000 0.0000 0.0000 0.0000 31.8863
#
#
#
# Elastic Compliance Matrix: (Units=1/GPa)
#
#
# Indices 1 2 3 4 5 6 
#
# 1 0.037612 -0.038989 -0.011741 0.000000 0.000000 0.000000
# 2 -0.038989 0.059409 0.009059 0.000000 0.000000 0.000000
# 3 -0.011741 0.009059 0.013889 0.000000 0.000000 0.000000
# 4 0.000000 0.000000 0.000000 0.021575 0.000000 0.000000
# 5 0.000000 0.000000 0.000000 0.000000 0.039241 0.000000
# 6 0.000000 0.000000 0.000000 0.000000 0.000000 0.031361
#
#
# Mechanical properties :
#
#
# Convention : Reuss Voigt Hill
#
# Bulk Modulus (GPa) = 36.27243 58.19943 47.23593
# Shear Modulus (GPa) = 16.91372 29.82691 23.37032
#
# Velocity S-wave (km/s) = 3.01140 3.99902 3.53982
# Velocity P-wave (km/s) = 5.61600 7.24758 6.48332
#
# Compressibility (1/GPa) = 0.02756915
#
# Stress axis : x y z
#
# Youngs Moduli (GPa) = 26.58733 16.83255 71.99822
#
# Poissons Ratio (x) = 0.65628 0.84531
# Poissons Ratio (y) = 1.03661 -0.65224
# Poissons Ratio (z) = 0.31215 -0.15249
#
# Static dielectric constant tensor:
#      x y z
#    x 3.622950 0.000000 0.000000 
#    y 0.000000 3.452920 0.000000 
#    z 0.000000 0.000000 3.027390 
# 
# 
# High freq. dielectric constant tensor:
#      x y z
#    x 1.723040 0.000000 0.000000 
#    y 0.000000 1.700300 0.000000 
#    z 0.000000 0.000000 1.729530 
# 
# From -- ./inp_files/45531.got.cif
#   From: 2010.03.12/outbox.cif.g09.slc.cpg/sg68_23_cif.got.tgz:45531.got - 2010.04.10 23:14:56.
