data_PCOD8282379
_publ_section_title
;
Structure prediction by ZEFSAII (Michael W. Deem and Ramdas Pophale) SiO2 
 PCOD8282379
Probable space group: C C C A
;
_chemical_formula_sum "Si O2"
_cell_formula_units_Z 80
_cell_length_a 8.847502
_cell_length_b 16.089092
_cell_length_c 26.729101
_cell_angle_alpha 90.000000
_cell_angle_beta 90.000000
_cell_angle_gamma 90.000000
_cell_volume 3804.841384
_symmetry_space_group_name_H-M "C C C A"
_symmetry_group_IT_number 68
_space_group.IT_coordinate_system_code '2'
_symmetry_cell_setting 'orthorhombic'
loop_
_space_group_symop_operation_xyz
x,y,z
-x,1/2-y,z
x,1/2-y,1/2-z
-x,y,1/2-z
-x,-y,-z
x,1/2+y,-z
-x,1/2+y,1/2+z
x,-y,1/2+z
1/2+x,1/2+y,z
1/2-x,-y,z
1/2+x,-y,1/2-z
1/2-x,1/2+y,1/2-z
1/2-x,1/2-y,-z
1/2+x,y,-z
1/2-x,y,1/2+z
1/2+x,1/2-y,1/2+z
loop_
_atom_site_type_symbol
_atom_site_label
_atom_site_fract_x
_atom_site_fract_y
_atom_site_fract_z
Si Si1 0.337227 0.238611 0.157317
Si Si2 0.941822 0.661255 0.694767
Si Si3 0.317965 0.088953 0.864890
Si Si4 0.087605 0.672731 0.452656
Si Si5 0.286984 0.911016 0.972548
O O1 0.500000 0.250000 0.183182
O O2 0.239881 0.172039 0.190119
O O3 0.271889 0.332111 0.157067
O O4 0.357140 0.197375 0.102571
O O5 0.000000 0.750000 0.675967
O O6 0.000000 0.639474 0.750000
O O7 0.010418 0.592655 0.656859
O O8 0.322454 0.097127 0.924546
O O9 0.250000 0.000000 0.848043
O O10 0.235635 0.654698 0.485582
O O11 0.000000 0.750000 0.477115
O O12 0.961965 0.598468 0.454822
O O13 0.250000 0.000000 0.996793
#
# Coordination Sequence:
#
# PCOD8282379 Si02
#       5
#    16  16  16  16  16
#     4  10  20  40  61  89 124 153 205 254 301 367
#     4   9  20  40  67  91 115 157 209 249 312 376
#     4  10  21  39  61  83 124 161 196 252 308 356
#     4  11  22  37  57  88 119 161 206 243 301 356
#     4  11  23  38  58  84 124 162 204 248 300 356
#
# _framework density 21.025843999999999
#
# number of rings (size 3 to 8) (size 9 to 14) (size 15 to 20)
#    0.000    1.800    4.000    1.200    2.800    0.800 
#    0.000   11.000    0.000    0.000    0.000    0.000 
#    0.000    0.000    0.000    0.000    0.000    0.000 
#
# Total GULP energy -495528.424458 kJ/mol
# GULP energy per Si atom -12388.210611 kJ/mol
# Density = 2.097799 g / cm^3
# Si number density = 21.025844 Si / 1000 Ang^3
#
#
#
# Elastic Constant Matrix: (Units=GPa)
#
#
# Indices 1 2 3 4 5 6 
#
# 1 136.1650 27.5440 54.3842 0.0000 0.0000 0.0000
# 2 27.5440 69.9624 22.0217 0.0000 0.0000 0.0000
# 3 54.3842 22.0217 83.9980 0.0000 0.0000 0.0000
# 4 0.0000 0.0000 0.0000 14.3994 0.0000 0.0000
# 5 0.0000 0.0000 0.0000 0.0000 29.4689 0.0000
# 6 0.0000 0.0000 0.0000 0.0000 0.0000 32.2247
#
#
#
# Elastic Compliance Matrix: (Units=1/GPa)
#
#
# Indices 1 2 3 4 5 6 
#
# 1 0.010183 -0.002108 -0.006040 0.000000 0.000000 0.000000
# 2 -0.002108 0.016015 -0.002834 0.000000 0.000000 0.000000
# 3 -0.006040 -0.002834 0.016559 0.000000 0.000000 0.000000
# 4 0.000000 0.000000 0.000000 0.069447 0.000000 0.000000
# 5 0.000000 0.000000 0.000000 0.000000 0.033934 0.000000
# 6 0.000000 0.000000 0.000000 0.000000 0.000000 0.031032
#
#
# Mechanical properties :
#
#
# Convention : Reuss Voigt Hill
#
# Bulk Modulus (GPa) = 48.09354 55.33612 51.71483
# Shear Modulus (GPa) = 24.26410 27.63029 25.94719
#
# Velocity S-wave (km/s) = 3.40076 3.62900 3.51673
# Velocity P-wave (km/s) = 6.19221 6.62833 6.41398
#
# Compressibility (1/GPa) = 0.02079281
#
# Stress axis : x y z
#
# Youngs Moduli (GPa) = 98.20408 62.44043 60.39071
#
# Poissons Ratio (x) = 0.13161 0.36478
# Poissons Ratio (y) = 0.20698 0.17115
# Poissons Ratio (z) = 0.59318 0.17696
#
# Static dielectric constant tensor:
#      x y z
#    x 4.303650 0.000000 0.000000 
#    y 0.000000 3.906120 0.000000 
#    z 0.000000 0.000000 3.494300 
# 
# 
# High freq. dielectric constant tensor:
#      x y z
#    x 1.825530 0.000000 0.000000 
#    y 0.000000 1.814370 0.000000 
#    z 0.000000 0.000000 1.801900 
# 
# From -- ./inp_files/53992.got.cif
#   From: 2010.03.12/outbox.cif.g09.slc.cpg/sg68_27_cif.got.tgz:53992.got - 2010.04.10 23:14:56.
