data_PCOD8282237
_publ_section_title
;
Structure prediction by ZEFSAII (Michael W. Deem and Ramdas Pophale) SiO2 
 PCOD8282237
Probable space group: C C C A
;
_chemical_formula_sum "Si O2"
_cell_formula_units_Z 80
_cell_length_a 18.213503
_cell_length_b 12.830005
_cell_length_c 17.617660
_cell_angle_alpha 90.000000
_cell_angle_beta 90.000000
_cell_angle_gamma 90.000000
_cell_volume 4116.883065
_symmetry_space_group_name_H-M "C C C A"
_symmetry_group_IT_number 68
_space_group.IT_coordinate_system_code '2'
_symmetry_cell_setting 'orthorhombic'
loop_
_space_group_symop_operation_xyz
x,y,z
-x,1/2-y,z
x,1/2-y,1/2-z
-x,y,1/2-z
-x,-y,-z
x,1/2+y,-z
-x,1/2+y,1/2+z
x,-y,1/2+z
1/2+x,1/2+y,z
1/2-x,-y,z
1/2+x,-y,1/2-z
1/2-x,1/2+y,1/2-z
1/2-x,1/2-y,-z
1/2+x,y,-z
1/2-x,y,1/2+z
1/2+x,1/2-y,1/2+z
loop_
_atom_site_type_symbol
_atom_site_label
_atom_site_fract_x
_atom_site_fract_y
_atom_site_fract_z
Si Si1 0.063134 0.387956 0.108029
Si Si2 0.327632 0.556222 0.552163
Si Si3 0.599382 0.152875 0.910508
Si Si4 0.303822 0.358646 0.211727
Si Si5 0.353437 0.924564 0.248115
O O1 0.109669 0.470351 0.061161
O O2 0.085680 0.274432 0.079889
O O3 0.076624 0.399341 0.198705
O O4 0.977660 0.409110 0.090389
O O5 0.250000 0.500000 0.542874
O O6 0.346116 0.620696 0.477400
O O7 0.329064 0.634853 0.623978
O O8 0.640856 0.128823 0.832704
O O9 0.327714 0.250000 0.250000
O O10 0.342628 0.450771 0.259998
O O11 0.216469 0.373961 0.210109
#
# Coordination Sequence:
#
# PCOD8282237 Si02
#       5
#    16  16  16  16  16
#     4  10  21  42  58  86 122 158 196 249 302 351
#     4  11  23  40  57  90 127 154 194 256 303 349
#     4  11  23  35  65  89 115 158 204 248 300 360
#     4  10  20  38  59  83 123 159 193 242 304 362
#     4  10  20  37  59  89 116 152 204 248 294 355
#
# _framework density 19.432178
#
# number of rings (size 3 to 8) (size 9 to 14) (size 15 to 20)
#    0.000    1.600    4.000    3.000    2.800    4.000 
#    0.000    0.000    0.000    8.400    0.000    0.000 
#    0.000    0.000    0.000    0.000    0.000    0.000 
#
# Total GULP energy -496068.294426 kJ/mol
# GULP energy per Si atom -12401.707361 kJ/mol
# Density = 1.938795 g / cm^3
# Si number density = 19.432178 Si / 1000 Ang^3
#
#
#
# Elastic Constant Matrix: (Units=GPa)
#
#
# Indices 1 2 3 4 5 6 
#
# 1 75.6404 22.8275 25.3680 0.0000 0.0000 0.0000
# 2 22.8275 82.1470 22.3816 0.0000 0.0000 0.0000
# 3 25.3680 22.3816 101.8383 0.0000 0.0000 0.0000
# 4 0.0000 0.0000 0.0000 25.8719 0.0000 0.0000
# 5 0.0000 0.0000 0.0000 0.0000 25.6678 0.0000
# 6 0.0000 0.0000 0.0000 0.0000 0.0000 24.2879
#
#
#
# Elastic Compliance Matrix: (Units=1/GPa)
#
#
# Indices 1 2 3 4 5 6 
#
# 1 0.015275 -0.003412 -0.003055 0.000000 0.000000 0.000000
# 2 -0.003412 0.013711 -0.002163 0.000000 0.000000 0.000000
# 3 -0.003055 -0.002163 0.011056 0.000000 0.000000 0.000000
# 4 0.000000 0.000000 0.000000 0.038652 0.000000 0.000000
# 5 0.000000 0.000000 0.000000 0.000000 0.038959 0.000000
# 6 0.000000 0.000000 0.000000 0.000000 0.000000 0.041173
#
#
# Mechanical properties :
#
#
# Convention : Reuss Voigt Hill
#
# Bulk Modulus (GPa) = 43.89735 44.53108 44.21421
# Shear Modulus (GPa) = 27.22117 27.76876 27.49496
#
# Velocity S-wave (km/s) = 3.74683 3.78432 3.76562
# Velocity P-wave (km/s) = 6.43097 6.48542 6.45825
#
# Compressibility (1/GPa) = 0.02278042
#
# Stress axis : x y z
#
# Youngs Moduli (GPa) = 65.46716 72.93442 90.44909
#
# Poissons Ratio (x) = 0.24887 0.27632
# Poissons Ratio (y) = 0.22339 0.19567
# Poissons Ratio (z) = 0.20000 0.15778
#
# Static dielectric constant tensor:
#      x y z
#    x 3.609270 0.000000 0.000000 
#    y 0.000000 3.603630 0.000000 
#    z 0.000000 0.000000 3.477280 
# 
# 
# High freq. dielectric constant tensor:
#      x y z
#    x 1.757060 0.000000 0.000000 
#    y 0.000000 1.756770 0.000000 
#    z 0.000000 0.000000 1.753400 
# 
# From -- ./inp_files/31755.got.cif
#   From: 2010.03.12/outbox.cif.g09.slc.cpg/sg68_16_cif.got.tgz:31755.got - 2010.04.10 23:14:56.
