data_PCOD8282313
_publ_section_title
;
Structure prediction by ZEFSAII (Michael W. Deem and Ramdas Pophale) SiO2 
 PCOD8282313
Probable space group: C C C A
;
_chemical_formula_sum "Si O2"
_cell_formula_units_Z 112
_cell_length_a 24.789747
_cell_length_b 13.608738
_cell_length_c 16.222638
_cell_angle_alpha 90.000000
_cell_angle_beta 90.000000
_cell_angle_gamma 90.000000
_cell_volume 5472.823278
_symmetry_space_group_name_H-M "C C C A"
_symmetry_group_IT_number 68
_space_group.IT_coordinate_system_code '2'
_symmetry_cell_setting 'orthorhombic'
loop_
_space_group_symop_operation_xyz
x,y,z
-x,1/2-y,z
x,1/2-y,1/2-z
-x,y,1/2-z
-x,-y,-z
x,1/2+y,-z
-x,1/2+y,1/2+z
x,-y,1/2+z
1/2+x,1/2+y,z
1/2-x,-y,z
1/2+x,-y,1/2-z
1/2-x,1/2+y,1/2-z
1/2-x,1/2-y,-z
1/2+x,y,-z
1/2-x,y,1/2+z
1/2+x,1/2-y,1/2+z
loop_
_atom_site_type_symbol
_atom_site_label
_atom_site_fract_x
_atom_site_fract_y
_atom_site_fract_z
Si Si1 0.582298 0.980348 0.137069
Si Si2 0.781390 0.598311 0.584623
Si Si3 0.975366 0.954498 0.416753
Si Si4 0.126598 0.004654 0.183517
Si Si5 0.363008 0.845255 0.954660
Si Si6 0.314633 0.801090 0.667774
Si Si7 0.054287 0.705547 0.530895
O O1 0.523909 0.033942 0.149307
O O2 0.608070 0.962764 0.226039
O O3 0.618002 0.049148 0.078087
O O4 0.579329 0.874113 0.093315
O O5 0.750000 0.500000 0.561272
O O6 0.827440 0.579235 0.653164
O O7 0.806902 0.639557 0.501393
O O8 0.739197 0.677768 0.616785
O O9 0.922707 0.009446 0.381618
O O10 0.959808 0.843064 0.441268
O O11 0.000000 0.000000 0.500000
O O12 0.150627 0.896301 0.189149
O O13 0.354112 0.772059 0.879465
O O14 0.405504 0.796142 0.017284
O O15 0.294100 0.750000 0.750000
O O16 0.000000 0.750000 0.571105
#
# Coordination Sequence:
#
# PCOD8282313 Si02
#       7
#    16  16  16  16  16  16  16
#     4  11  24  39  67 103 132 178 216 274 334 395
#     4  10  25  43  65  93 128 174 221 280 333 396
#     4  10  20  38  65  92 129 172 213 257 320 394
#     4  11  22  43  65  94 138 170 218 277 338 387
#     4  12  23  43  71  95 131 175 225 271 330 401
#     4  11  23  43  65  96 128 168 225 285 334 386
#     4  11  23  39  66  97 136 176 219 262 326 407
#
# _framework density 20.464756999999999
#
# number of rings (size 3 to 8) (size 9 to 14) (size 15 to 20)
#    0.000    1.143    4.286    2.571    4.000    1.143 
#    2.571    0.000    3.143    0.000    0.000    0.000 
#    0.000    0.000    0.000    0.000    0.000    0.000 
#
# Total GULP energy -694416.863566 kJ/mol
# GULP energy per Si atom -12400.301135 kJ/mol
# Density = 2.041818 g / cm^3
# Si number density = 20.464757 Si / 1000 Ang^3
#
#
#
# Elastic Constant Matrix: (Units=GPa)
#
#
# Indices 1 2 3 4 5 6 
#
# 1 107.1451 25.6032 31.2605 0.0000 0.0000 0.0000
# 2 25.6032 80.5208 36.2438 0.0000 0.0000 0.0000
# 3 31.2605 36.2438 81.8883 0.0000 0.0000 0.0000
# 4 0.0000 0.0000 0.0000 25.5285 0.0000 0.0000
# 5 0.0000 0.0000 0.0000 0.0000 38.3987 0.0000
# 6 0.0000 0.0000 0.0000 0.0000 0.0000 29.2074
#
#
#
# Elastic Compliance Matrix: (Units=1/GPa)
#
#
# Indices 1 2 3 4 5 6 
#
# 1 0.010745 -0.001961 -0.003234 0.000000 0.000000 0.000000
# 2 -0.001961 0.015867 -0.006274 0.000000 0.000000 0.000000
# 3 -0.003234 -0.006274 0.016223 0.000000 0.000000 0.000000
# 4 0.000000 0.000000 0.000000 0.039172 0.000000 0.000000
# 5 0.000000 0.000000 0.000000 0.000000 0.026043 0.000000
# 6 0.000000 0.000000 0.000000 0.000000 0.000000 0.034238
#
#
# Mechanical properties :
#
#
# Convention : Reuss Voigt Hill
#
# Bulk Modulus (GPa) = 50.25843 50.64101 50.44972
# Shear Modulus (GPa) = 29.09378 30.39003 29.74191
#
# Velocity S-wave (km/s) = 3.77457 3.85774 3.81638
# Velocity P-wave (km/s) = 6.60366 6.68147 6.64268
#
# Compressibility (1/GPa) = 0.01989716
#
# Stress axis : x y z
#
# Youngs Moduli (GPa) = 93.06401 63.02495 61.64006
#
# Poissons Ratio (x) = 0.12359 0.19935
# Poissons Ratio (y) = 0.18250 0.38673
# Poissons Ratio (z) = 0.30097 0.39542
#
# Static dielectric constant tensor:
#      x y z
#    x 4.005170 0.000000 0.000000 
#    y 0.000000 3.722650 0.000000 
#    z 0.000000 0.000000 3.579400 
# 
# 
# High freq. dielectric constant tensor:
#      x y z
#    x 1.814540 0.000000 0.000000 
#    y 0.000000 1.801040 0.000000 
#    z 0.000000 0.000000 1.787350 
# 
# From -- ./inp_files/25428.got.cif
#   From: 2010.03.12/outbox.cif.g09.slc.cpg/sg68_13_cif.got.tgz:25428.got - 2010.04.10 23:14:56.
