data_PCOD8282051
_publ_section_title
;
Structure prediction by ZEFSAII (Michael W. Deem and Ramdas Pophale) SiO2 
 PCOD8282051
Probable space group: C C C A
;
_chemical_formula_sum "Si O2"
_cell_formula_units_Z 116
_cell_length_a 8.555948
_cell_length_b 24.909267
_cell_length_c 23.867453
_cell_angle_alpha 90.000000
_cell_angle_beta 90.000000
_cell_angle_gamma 90.000000
_cell_volume 5086.688702
_symmetry_space_group_name_H-M "C C C A"
_symmetry_group_IT_number 68
_space_group.IT_coordinate_system_code '2'
_symmetry_cell_setting 'orthorhombic'
loop_
_space_group_symop_operation_xyz
x,y,z
-x,1/2-y,z
x,1/2-y,1/2-z
-x,y,1/2-z
-x,-y,-z
x,1/2+y,-z
-x,1/2+y,1/2+z
x,-y,1/2+z
1/2+x,1/2+y,z
1/2-x,-y,z
1/2+x,-y,1/2-z
1/2-x,1/2+y,1/2-z
1/2-x,1/2-y,-z
1/2+x,y,-z
1/2-x,y,1/2+z
1/2+x,1/2-y,1/2+z
loop_
_atom_site_type_symbol
_atom_site_label
_atom_site_fract_x
_atom_site_fract_y
_atom_site_fract_z
Si Si1 0.000000 0.750000 0.750000
Si Si2 0.038617 0.960776 0.356709
Si Si3 0.882061 0.575801 0.848284
Si Si4 0.843539 0.133675 0.043064
Si Si5 0.117520 0.536894 0.467424
Si Si6 0.262079 0.664840 0.225104
Si Si7 0.438324 0.646429 0.827474
Si Si8 0.514452 0.813186 0.556538
O O1 0.884077 0.712890 0.786953
O O2 0.220233 0.951250 0.364359
O O3 0.972936 0.938568 0.415417
O O4 0.961007 0.917734 0.314219
O O5 0.002315 0.023602 0.340644
O O6 0.934141 0.614014 0.900325
O O7 0.857892 0.610834 0.792070
O O8 0.692275 0.166845 0.061979
O O9 0.801434 0.081426 0.006414
O O10 0.953981 0.170711 0.005033
O O11 0.250000 0.500000 0.440960
O O12 0.000000 0.500000 0.500000
O O13 0.212541 0.663482 0.290910
O O14 0.102281 0.674784 0.190630
O O15 0.411379 0.661965 0.892372
O O16 0.500000 0.750000 0.561984
#
# Coordination Sequence:
#
# PCOD8282051 Si02
#       8
#     4  16  16  16  16  16  16  16
#     4  12  28  50  72 104 128 166 240 308 354 384
#     4  10  19  39  66 104 133 180 225 271 344 426
#     4  10  20  40  72  99 142 179 220 283 357 416
#     4  12  22  42  62  99 144 179 232 292 338 426
#     4  12  22  34  61  98 133 182 227 272 334 411
#     4  10  24  47  72 101 133 180 237 295 356 410
#     4  10  22  46  77  98 134 187 246 281 340 451
#     4  12  26  43  66 100 136 187 243 291 360 411
#
# _framework density 22.804621000000001
#
# number of rings (size 3 to 8) (size 9 to 14) (size 15 to 20)
#    0.000    1.103    5.517    2.069    1.931    0.552 
#    6.207    5.517    0.000    0.000    0.000    0.000 
#    0.000    0.000    0.000    0.000    0.000    0.000 
#
# Total GULP energy -718596.418181 kJ/mol
# GULP energy per Si atom -12389.593417 kJ/mol
# Density = 2.275272 g / cm^3
# Si number density = 22.804621 Si / 1000 Ang^3
#
#
#
# Elastic Constant Matrix: (Units=GPa)
#
#
# Indices 1 2 3 4 5 6 
#
# 1 59.4266 48.6043 27.4420 0.0000 0.0000 0.0000
# 2 48.6043 167.9541 45.1020 0.0000 0.0000 0.0000
# 3 27.4420 45.1020 86.9151 0.0000 0.0000 0.0000
# 4 0.0000 0.0000 0.0000 19.6828 0.0000 0.0000
# 5 0.0000 0.0000 0.0000 0.0000 29.2843 0.0000
# 6 0.0000 0.0000 0.0000 0.0000 0.0000 30.5104
#
#
#
# Elastic Compliance Matrix: (Units=1/GPa)
#
#
# Indices 1 2 3 4 5 6 
#
# 1 0.023478 -0.005582 -0.004516 0.000000 0.000000 0.000000
# 2 -0.005582 0.008245 -0.002516 0.000000 0.000000 0.000000
# 3 -0.004516 -0.002516 0.014237 0.000000 0.000000 0.000000
# 4 0.000000 0.000000 0.000000 0.050806 0.000000 0.000000
# 5 0.000000 0.000000 0.000000 0.000000 0.034148 0.000000
# 6 0.000000 0.000000 0.000000 0.000000 0.000000 0.032776
#
#
# Mechanical properties :
#
#
# Convention : Reuss Voigt Hill
#
# Bulk Modulus (GPa) = 48.23481 61.84360 55.03920
# Shear Modulus (GPa) = 25.53250 28.77199 27.15224
#
# Velocity S-wave (km/s) = 3.34970 3.55586 3.45432
# Velocity P-wave (km/s) = 6.01315 6.63601 6.33224
#
# Compressibility (1/GPa) = 0.02073192
#
# Stress axis : x y z
#
# Youngs Moduli (GPa) = 42.59282 121.28654 70.23856
#
# Poissons Ratio (x) = 0.67696 0.31723
# Poissons Ratio (y) = 0.23773 0.17673
# Poissons Ratio (z) = 0.19237 0.30518
#
# Static dielectric constant tensor:
#      x y z
#    x 3.642460 0.000000 0.000000 
#    y 0.000000 4.395440 0.000000 
#    z 0.000000 0.000000 3.903200 
# 
# 
# High freq. dielectric constant tensor:
#      x y z
#    x 1.873850 0.000000 0.000000 
#    y 0.000000 1.912040 0.000000 
#    z 0.000000 0.000000 1.889530 
# 
# From -- ./inp_files/43520.got.cif
#   From: 2010.03.12/outbox.cif.g09.slc.cpg/sg68_22_cif.got.tgz:43520.got - 2010.04.10 23:14:56.
