data_PCOD8282776
_publ_section_title
;
Structure prediction by ZEFSAII (Michael W. Deem and Ramdas Pophale) SiO2 
 PCOD8282776
Probable space group: C C C A
;
_chemical_formula_sum "Si O2"
_cell_formula_units_Z 104
_cell_length_a 17.620136
_cell_length_b 23.048664
_cell_length_c 13.448745
_cell_angle_alpha 90.000000
_cell_angle_beta 90.000000
_cell_angle_gamma 90.000000
_cell_volume 5461.812312
_symmetry_space_group_name_H-M "C C C A"
_symmetry_group_IT_number 68
_space_group.IT_coordinate_system_code '2'
_symmetry_cell_setting 'orthorhombic'
loop_
_space_group_symop_operation_xyz
x,y,z
-x,1/2-y,z
x,1/2-y,1/2-z
-x,y,1/2-z
-x,-y,-z
x,1/2+y,-z
-x,1/2+y,1/2+z
x,-y,1/2+z
1/2+x,1/2+y,z
1/2-x,-y,z
1/2+x,-y,1/2-z
1/2-x,1/2+y,1/2-z
1/2-x,1/2-y,-z
1/2+x,y,-z
1/2-x,y,1/2+z
1/2+x,1/2-y,1/2+z
loop_
_atom_site_type_symbol
_atom_site_label
_atom_site_fract_x
_atom_site_fract_y
_atom_site_fract_z
Si Si1 0.388208 0.908116 0.709393
Si Si2 0.025102 0.132927 0.889979
Si Si3 0.769808 0.402149 0.131749
Si Si4 0.000000 0.750000 0.472548
Si Si5 0.591271 0.336419 0.580818
Si Si6 0.000000 0.395899 0.250000
Si Si7 0.858033 0.967702 0.701319
Si Si8 0.750000 0.500000 0.972574
O O1 0.413177 0.866771 0.800861
O O2 0.458694 0.913215 0.632487
O O3 0.315679 0.881011 0.652934
O O4 0.369112 0.972067 0.743533
O O5 0.981833 0.195463 0.901162
O O6 0.068570 0.118297 0.992214
O O7 0.819751 0.345132 0.104336
O O8 0.800573 0.430184 0.233065
O O9 0.776237 0.446985 0.041149
O O10 0.929001 0.729401 0.544043
O O11 0.540961 0.352989 0.674601
O O12 0.938999 0.435725 0.308413
O O13 0.821083 0.978457 0.593639
#
# Coordination Sequence:
#
# PCOD8282776 Si02
#       8
#    16  16  16   8  16   8  16   8
#     4  11  19  37  56  90 121 159 198 247 298 378
#     4   9  21  37  64  80 117 153 204 251 307 353
#     4  11  22  36  57  89 126 164 197 239 310 374
#     4   8  20  42  62  86 108 154 208 258 318 348
#     4   9  21  40  59  90 113 160 203 253 309 368
#     4  10  22  35  60  86 120 155 210 242 296 390
#     4  11  22  36  52  88 126 160 195 239 302 379
#     4  12  20  34  58  78 132 168 186 244 306 354
#
# _framework density 19.041298000000001
#
# number of rings (size 3 to 8) (size 9 to 14) (size 15 to 20)
#    0.923    0.923    3.077    1.846    2.154    1.538 
#    0.000    4.615    0.000    3.692    0.000    0.000 
#    0.000    0.000    0.000    0.000    0.000    0.000 
#
# Total GULP energy -644233.499097 kJ/mol
# GULP energy per Si atom -12389.105752 kJ/mol
# Density = 1.899796 g / cm^3
# Si number density = 19.041298 Si / 1000 Ang^3
#
#
#
# Elastic Constant Matrix: (Units=GPa)
#
#
# Indices 1 2 3 4 5 6 
#
# 1 111.3417 16.2974 38.0548 0.0000 0.0000 0.0000
# 2 16.2974 45.3039 2.1803 0.0000 0.0000 0.0000
# 3 38.0548 2.1803 79.6281 0.0000 0.0000 0.0000
# 4 0.0000 0.0000 0.0000 19.0203 0.0000 0.0000
# 5 0.0000 0.0000 0.0000 0.0000 27.9928 0.0000
# 6 0.0000 0.0000 0.0000 0.0000 0.0000 18.0421
#
#
#
# Elastic Compliance Matrix: (Units=1/GPa)
#
#
# Indices 1 2 3 4 5 6 
#
# 1 0.011362 -0.003831 -0.005325 0.000000 0.000000 0.000000
# 2 -0.003831 0.023394 0.001190 0.000000 0.000000 0.000000
# 3 -0.005325 0.001190 0.015071 0.000000 0.000000 0.000000
# 4 0.000000 0.000000 0.000000 0.052576 0.000000 0.000000
# 5 0.000000 0.000000 0.000000 0.000000 0.035724 0.000000
# 6 0.000000 0.000000 0.000000 0.000000 0.000000 0.055426
#
#
# Mechanical properties :
#
#
# Convention : Reuss Voigt Hill
#
# Bulk Modulus (GPa) = 29.50273 38.81540 34.15906
# Shear Modulus (GPa) = 22.64675 24.99377 23.82026
#
# Velocity S-wave (km/s) = 3.45244 3.62692 3.54075
# Velocity P-wave (km/s) = 5.60537 6.16186 5.89019
#
# Compressibility (1/GPa) = 0.03389517
#
# Stress axis : x y z
#
# Youngs Moduli (GPa) = 88.01115 42.74586 66.35378
#
# Poissons Ratio (x) = 0.16376 0.35335
# Poissons Ratio (y) = 0.33718 -0.07899
# Poissons Ratio (z) = 0.46867 -0.05088
#
# Static dielectric constant tensor:
#      x y z
#    x 3.748620 0.000000 0.000000 
#    y 0.000000 3.144440 0.000000 
#    z 0.000000 0.000000 3.582420 
# 
# 
# High freq. dielectric constant tensor:
#      x y z
#    x 1.744040 0.000000 0.000000 
#    y 0.000000 1.702940 0.000000 
#    z 0.000000 0.000000 1.750320 
# 
# From -- ./inp_files/23976.got.cif
#   From: 2010.03.12/outbox.cif.g09.slc.cpg/sg68_12_cif.got.tgz:23976.got - 2010.04.10 23:14:56.
