data_PCOD8282072
_publ_section_title
;
Structure prediction by ZEFSAII (Michael W. Deem and Ramdas Pophale) SiO2 
 PCOD8282072
Probable space group: C C C A
;
_chemical_formula_sum "Si O2"
_cell_formula_units_Z 104
_cell_length_a 11.638364
_cell_length_b 18.885423
_cell_length_c 26.050539
_cell_angle_alpha 90.000000
_cell_angle_beta 90.000000
_cell_angle_gamma 90.000000
_cell_volume 5725.789347
_symmetry_space_group_name_H-M "C C C A"
_symmetry_group_IT_number 68
_space_group.IT_coordinate_system_code '2'
_symmetry_cell_setting 'orthorhombic'
loop_
_space_group_symop_operation_xyz
x,y,z
-x,1/2-y,z
x,1/2-y,1/2-z
-x,y,1/2-z
-x,-y,-z
x,1/2+y,-z
-x,1/2+y,1/2+z
x,-y,1/2+z
1/2+x,1/2+y,z
1/2-x,-y,z
1/2+x,-y,1/2-z
1/2-x,1/2+y,1/2-z
1/2-x,1/2-y,-z
1/2+x,y,-z
1/2-x,y,1/2+z
1/2+x,1/2-y,1/2+z
loop_
_atom_site_type_symbol
_atom_site_label
_atom_site_fract_x
_atom_site_fract_y
_atom_site_fract_z
Si Si1 0.411854 0.311428 0.919017
Si Si2 0.500000 0.364061 0.750000
Si Si3 0.915779 0.603268 0.855078
Si Si4 0.767613 0.724756 0.359986
Si Si5 0.008673 0.380633 0.511940
Si Si6 0.876690 0.515433 0.944873
Si Si7 0.190006 0.250000 0.250000
Si Si8 0.000000 0.750000 0.417375
O O1 0.500000 0.250000 0.933813
O O2 0.469826 0.360687 0.876696
O O3 0.293833 0.284043 0.894927
O O4 0.390659 0.352503 0.973246
O O5 0.548372 0.412653 0.796290
O O6 0.391939 0.315345 0.764918
O O7 0.802825 0.651604 0.863746
O O8 0.888492 0.530037 0.883915
O O9 0.771704 0.741846 0.299413
O O10 0.896552 0.720988 0.381734
O O11 0.910041 0.412558 0.475033
O O12 0.048077 0.446203 0.546155
O O13 0.961832 0.316945 0.547593
O O14 0.750000 0.500000 0.963145
#
# Coordination Sequence:
#
# PCOD8282072 Si02
#       8
#    16   8  16  16  16  16   8   8
#     4   9  16  32  52  81 106 134 177 234 270 314
#     4   9  14  28  58  86 106 125 180 246 286 319
#     4   9  17  32  56  83 105 136 185 233 286 319
#     4  10  20  31  54  81 116 143 176 232 282 334
#     4  10  22  36  53  78 110 149 195 220 276 330
#     4  10  21  37  54  76 112 153 182 231 278 333
#     4   9  16  31  52  86 112 139 173 232 294 328
#     4  12  24  35  50  84 114 157 188 218 276 352
#
# _framework density 18.163433999999999
#
# number of rings (size 3 to 8) (size 9 to 14) (size 15 to 20)
#    0.000    2.308    2.308    0.923    2.154    0.923 
#    0.000    0.000    0.000    5.538    0.000    0.000 
#    0.000    0.000    0.000    0.000    0.000    0.000 
#
# Total GULP energy -644250.871980 kJ/mol
# GULP energy per Si atom -12389.439846 kJ/mol
# Density = 1.812209 g / cm^3
# Si number density = 18.163434 Si / 1000 Ang^3
#
#
#
# Elastic Constant Matrix: (Units=GPa)
#
#
# Indices 1 2 3 4 5 6 
#
# 1 71.1893 13.7294 37.1259 0.0000 0.0000 0.0000
# 2 13.7294 71.4594 47.1713 0.0000 0.0000 0.0000
# 3 37.1259 47.1713 127.7712 0.0000 0.0000 0.0000
# 4 0.0000 0.0000 0.0000 29.0577 0.0000 0.0000
# 5 0.0000 0.0000 0.0000 0.0000 18.2763 0.0000
# 6 0.0000 0.0000 0.0000 0.0000 0.0000 15.5984
#
#
#
# Elastic Compliance Matrix: (Units=1/GPa)
#
#
# Indices 1 2 3 4 5 6 
#
# 1 0.016556 -0.000007 -0.004808 0.000000 0.000000 0.000000
# 2 -0.000007 0.018503 -0.006829 0.000000 0.000000 0.000000
# 3 -0.004808 -0.006829 0.011745 0.000000 0.000000 0.000000
# 4 0.000000 0.000000 0.000000 0.034414 0.000000 0.000000
# 5 0.000000 0.000000 0.000000 0.000000 0.054716 0.000000
# 6 0.000000 0.000000 0.000000 0.000000 0.000000 0.064109
#
#
# Mechanical properties :
#
#
# Convention : Reuss Voigt Hill
#
# Bulk Modulus (GPa) = 42.52494 51.83034 47.17764
# Shear Modulus (GPa) = 21.62917 24.07939 22.85428
#
# Velocity S-wave (km/s) = 3.45455 3.64498 3.55104
# Velocity P-wave (km/s) = 6.27496 6.80529 6.54550
#
# Compressibility (1/GPa) = 0.02351561
#
# Stress axis : x y z
#
# Youngs Moduli (GPa) = 60.40177 54.04444 85.14470
#
# Poissons Ratio (x) = 0.00038 0.40937
# Poissons Ratio (y) = 0.00043 0.58146
# Poissons Ratio (z) = 0.29041 0.36907
#
# Static dielectric constant tensor:
#      x y z
#    x 3.061460 0.000000 0.000000 
#    y 0.000000 3.292120 0.000000 
#    z 0.000000 0.000000 3.546400 
# 
# 
# High freq. dielectric constant tensor:
#      x y z
#    x 1.676230 0.000000 0.000000 
#    y 0.000000 1.684610 0.000000 
#    z 0.000000 0.000000 1.714050 
# 
# From -- ./inp_files/50339.got.cif
#   From: 2010.03.12/outbox.cif.g09.slc.cpg/sg68_26_cif.got.tgz:50339.got - 2010.04.10 23:14:56.
