data_PCOD8282874
_publ_section_title
;
Structure prediction by ZEFSAII (Michael W. Deem and Ramdas Pophale) SiO2 
 PCOD8282874
Probable space group: C C C A
;
_chemical_formula_sum "Si O2"
_cell_formula_units_Z 72
_cell_length_a 28.102613
_cell_length_b 13.016007
_cell_length_c 8.496453
_cell_angle_alpha 90.000000
_cell_angle_beta 90.000000
_cell_angle_gamma 90.000000
_cell_volume 3107.864929
_symmetry_space_group_name_H-M "C C C A"
_symmetry_group_IT_number 68
_space_group.IT_coordinate_system_code '2'
_symmetry_cell_setting 'orthorhombic'
loop_
_space_group_symop_operation_xyz
x,y,z
-x,1/2-y,z
x,1/2-y,1/2-z
-x,y,1/2-z
-x,-y,-z
x,1/2+y,-z
-x,1/2+y,1/2+z
x,-y,1/2+z
1/2+x,1/2+y,z
1/2-x,-y,z
1/2+x,-y,1/2-z
1/2-x,1/2+y,1/2-z
1/2-x,1/2-y,-z
1/2+x,y,-z
1/2-x,y,1/2+z
1/2+x,1/2-y,1/2+z
loop_
_atom_site_type_symbol
_atom_site_label
_atom_site_fract_x
_atom_site_fract_y
_atom_site_fract_z
Si Si1 0.713535 0.653791 0.486581
Si Si2 0.879669 0.760022 0.068577
Si Si3 0.250000 0.000000 0.733997
Si Si4 0.543099 0.878275 0.046833
Si Si5 0.438139 0.409708 0.900052
O O1 0.750000 0.750000 0.500000
O O2 0.661688 0.703938 0.471617
O O3 0.715837 0.573526 0.631481
O O4 0.720277 0.582451 0.334272
O O5 0.864723 0.750000 0.250000
O O6 0.931449 0.714294 0.039710
O O7 0.890752 0.873970 0.998645
O O8 0.487399 0.851504 0.056388
O O9 0.569111 0.894807 0.214274
O O10 0.553078 0.972038 0.931171
#
# Coordination Sequence:
#
# PCOD8282874 Si02
#       5
#    16  16   8  16  16
#     4  11  25  46  69  98 132 171 220 277 336 404
#     4  12  25  39  62  94 128 166 213 265 324 390
#     4  10  24  46  72  94 130 176 218 274 342 402
#     4  10  22  40  63  90 126 168 216 265 323 392
#     4  10  22  41  62  90 126 169 215 267 323 386
#
# _framework density 23.167028999999999
#
# number of rings (size 3 to 8) (size 9 to 14) (size 15 to 20)
#    0.000    1.333    0.000    4.667    0.000   16.000 
#    0.000    0.000    0.000    0.000    0.000    0.000 
#    0.000    0.000    0.000    0.000    0.000    0.000 
#
# Total GULP energy -446089.041403 kJ/mol
# GULP energy per Si atom -12391.362261 kJ/mol
# Density = 2.311430 g / cm^3
# Si number density = 23.167029 Si / 1000 Ang^3
#
#
#
# Elastic Constant Matrix: (Units=GPa)
#
#
# Indices 1 2 3 4 5 6 
#
# 1 90.0003 35.5770 22.0066 0.0000 0.0000 0.0000
# 2 35.5770 85.0434 22.2369 0.0000 0.0000 0.0000
# 3 22.0066 22.2369 83.7790 0.0000 0.0000 0.0000
# 4 0.0000 0.0000 0.0000 39.6807 0.0000 0.0000
# 5 0.0000 0.0000 0.0000 0.0000 20.0095 0.0000
# 6 0.0000 0.0000 0.0000 0.0000 0.0000 46.9389
#
#
#
# Elastic Compliance Matrix: (Units=1/GPa)
#
#
# Indices 1 2 3 4 5 6 
#
# 1 0.013690 -0.005144 -0.002231 0.000000 0.000000 0.000000
# 2 -0.005144 0.014568 -0.002516 0.000000 0.000000 0.000000
# 3 -0.002231 -0.002516 0.013190 0.000000 0.000000 0.000000
# 4 0.000000 0.000000 0.000000 0.025201 0.000000 0.000000
# 5 0.000000 0.000000 0.000000 0.000000 0.049976 0.000000
# 6 0.000000 0.000000 0.000000 0.000000 0.000000 0.021304
#
#
# Mechanical properties :
#
#
# Convention : Reuss Voigt Hill
#
# Bulk Modulus (GPa) = 46.15137 46.49595 46.32366
# Shear Modulus (GPa) = 30.31544 33.25929 31.78737
#
# Velocity S-wave (km/s) = 3.62133 3.79308 3.70820
# Velocity P-wave (km/s) = 6.11962 6.26871 6.19461
#
# Compressibility (1/GPa) = 0.02166783
#
# Stress axis : x y z
#
# Youngs Moduli (GPa) = 73.04694 68.64214 75.81607
#
# Poissons Ratio (x) = 0.35308 0.16912
# Poissons Ratio (y) = 0.37573 0.19073
# Poissons Ratio (z) = 0.16295 0.17268
#
# Static dielectric constant tensor:
#      x y z
#    x 4.223920 0.000000 0.000000 
#    y 0.000000 4.425600 0.000000 
#    z 0.000000 0.000000 4.336960 
# 
# 
# High freq. dielectric constant tensor:
#      x y z
#    x 1.902470 0.000000 0.000000 
#    y 0.000000 1.936020 0.000000 
#    z 0.000000 0.000000 1.918180 
# 
# From -- ./inp_files/8654.got.cif
#   From: 2010.03.12/outbox.cif.g09.slc.cpg/sg68_5_cif.got.tgz:8654.got - 2010.04.10 23:14:56.
