data_PCOD8282108
_publ_section_title
;
Structure prediction by ZEFSAII (Michael W. Deem and Ramdas Pophale) SiO2 
 PCOD8282108
Probable space group: C C C A
;
_chemical_formula_sum "Si O2"
_cell_formula_units_Z 64
_cell_length_a 15.876972
_cell_length_b 22.939704
_cell_length_c 7.971881
_cell_angle_alpha 90.000000
_cell_angle_beta 90.000000
_cell_angle_gamma 90.000000
_cell_volume 2903.462998
_symmetry_space_group_name_H-M "C C C A"
_symmetry_group_IT_number 68
_space_group.IT_coordinate_system_code '2'
_symmetry_cell_setting 'orthorhombic'
loop_
_space_group_symop_operation_xyz
x,y,z
-x,1/2-y,z
x,1/2-y,1/2-z
-x,y,1/2-z
-x,-y,-z
x,1/2+y,-z
-x,1/2+y,1/2+z
x,-y,1/2+z
1/2+x,1/2+y,z
1/2-x,-y,z
1/2+x,-y,1/2-z
1/2-x,1/2+y,1/2-z
1/2-x,1/2-y,-z
1/2+x,y,-z
1/2-x,y,1/2+z
1/2+x,1/2-y,1/2+z
loop_
_atom_site_type_symbol
_atom_site_label
_atom_site_fract_x
_atom_site_fract_y
_atom_site_fract_z
Si Si1 0.058413 0.380611 0.093632
Si Si2 0.594871 0.423734 0.390988
Si Si3 0.596421 0.811423 0.796129
Si Si4 0.340846 0.026107 0.721470
O O1 0.134021 0.422373 0.150365
O O2 0.000000 0.359905 0.250000
O O3 0.101518 0.326000 0.996325
O O4 0.999632 0.413723 0.957814
O O5 0.635018 0.364180 0.315120
O O6 0.656240 0.448082 0.535263
O O7 0.592637 0.473079 0.245728
O O8 0.642745 0.750000 0.750000
O O9 0.500000 0.804408 0.750000
O O10 0.250000 0.000000 0.763659
#
# Coordination Sequence:
#
# PCOD8282108 Si02
#       4
#    16  16  16  16
#     4   9  19  35  57  84 114 149 190 237 289 346
#     4  10  20  34  54  81 113 148 187 234 292 349
#     4   9  18  35  57  82 112 148 191 239 286 336
#     4  11  21  34  54  82 115 147 187 239 292 351
#
# _framework density 22.042643000000002
#
# number of rings (size 3 to 8) (size 9 to 14) (size 15 to 20)
#    0.000    2.250    0.000    3.000    0.000    7.000 
#    0.000   22.500    0.000    6.000    0.000    0.000 
#    0.000    0.000    0.000    0.000    0.000    2.000 
#
# Total GULP energy -396518.251621 kJ/mol
# GULP energy per Si atom -12391.195363 kJ/mol
# Density = 2.199247 g / cm^3
# Si number density = 22.042643 Si / 1000 Ang^3
#
#
#
# Elastic Constant Matrix: (Units=GPa)
#
#
# Indices 1 2 3 4 5 6 
#
# 1 54.6929 23.6093 34.8315 0.0000 0.0000 0.0000
# 2 23.6093 186.5455 107.8637 0.0000 0.0000 0.0000
# 3 34.8315 107.8637 137.3714 0.0000 0.0000 0.0000
# 4 0.0000 0.0000 0.0000 37.1903 0.0000 0.0000
# 5 0.0000 0.0000 0.0000 0.0000 18.6666 0.0000
# 6 0.0000 0.0000 0.0000 0.0000 0.0000 9.4790
#
#
#
# Elastic Compliance Matrix: (Units=1/GPa)
#
#
# Indices 1 2 3 4 5 6 
#
# 1 0.021870 0.000803 -0.006176 0.000000 0.000000 0.000000
# 2 0.000803 0.009848 -0.007936 0.000000 0.000000 0.000000
# 3 -0.006176 -0.007936 0.015077 0.000000 0.000000 0.000000
# 4 0.000000 0.000000 0.000000 0.026889 0.000000 0.000000
# 5 0.000000 0.000000 0.000000 0.000000 0.053572 0.000000
# 6 0.000000 0.000000 0.000000 0.000000 0.000000 0.105497
#
#
# Mechanical properties :
#
#
# Convention : Reuss Voigt Hill
#
# Bulk Modulus (GPa) = 49.56093 79.02432 64.29262
# Shear Modulus (GPa) = 18.79022 27.22086 23.00554
#
# Velocity S-wave (km/s) = 2.92284 3.51795 3.23411
# Velocity P-wave (km/s) = 5.82440 7.24084 6.57090
#
# Compressibility (1/GPa) = 0.02017718
#
# Stress axis : x y z
#
# Youngs Moduli (GPa) = 45.72374 101.54616 66.32665
#
# Poissons Ratio (x) = -0.08156 0.40964
# Poissons Ratio (y) = -0.03672 0.52637
# Poissons Ratio (z) = 0.28239 0.80588
#
# Static dielectric constant tensor:
#      x y z
#    x 3.351950 0.000000 0.000000 
#    y 0.000000 4.878650 0.000000 
#    z 0.000000 0.000000 4.457650 
# 
# 
# High freq. dielectric constant tensor:
#      x y z
#    x 1.815460 0.000000 0.000000 
#    y 0.000000 1.859130 0.000000 
#    z 0.000000 0.000000 1.887990 
# 
# From -- ./inp_files/4972.got.cif
#   From: 2010.03.12/outbox.cif.g09.slc.cpg/sg68_3_cif.got.tgz:4972.got - 2010.04.10 23:14:56.
