data_PCOD8282382
_publ_section_title
;
Structure prediction by ZEFSAII (Michael W. Deem and Ramdas Pophale) SiO2 
 PCOD8282382
Probable space group: C C C A
;
_chemical_formula_sum "Si O2"
_cell_formula_units_Z 96
_cell_length_a 21.754510
_cell_length_b 24.758619
_cell_length_c 8.035559
_cell_angle_alpha 90.000000
_cell_angle_beta 90.000000
_cell_angle_gamma 90.000000
_cell_volume 4328.045488
_symmetry_space_group_name_H-M "C C C A"
_symmetry_group_IT_number 68
_space_group.IT_coordinate_system_code '2'
_symmetry_cell_setting 'orthorhombic'
loop_
_space_group_symop_operation_xyz
x,y,z
-x,1/2-y,z
x,1/2-y,1/2-z
-x,y,1/2-z
-x,-y,-z
x,1/2+y,-z
-x,1/2+y,1/2+z
x,-y,1/2+z
1/2+x,1/2+y,z
1/2-x,-y,z
1/2+x,-y,1/2-z
1/2-x,1/2+y,1/2-z
1/2-x,1/2-y,-z
1/2+x,y,-z
1/2-x,y,1/2+z
1/2+x,1/2-y,1/2+z
loop_
_atom_site_type_symbol
_atom_site_label
_atom_site_fract_x
_atom_site_fract_y
_atom_site_fract_z
Si Si1 0.928751 0.943497 0.255792
Si Si2 0.111502 0.750000 0.250000
Si Si3 0.184962 0.639673 0.791169
Si Si4 0.887821 0.947386 0.630785
Si Si5 0.000000 0.118153 0.250000
Si Si6 0.210558 0.303261 0.965066
Si Si7 0.926900 0.340221 0.971169
O O1 0.899561 0.935470 0.437537
O O2 0.923337 0.887495 0.162712
O O3 0.000000 0.962536 0.250000
O O4 0.887960 0.988509 0.161110
O O5 0.154749 0.793201 0.159085
O O6 0.068393 0.716869 0.123374
O O7 0.174078 0.579651 0.710389
O O8 0.181297 0.680909 0.639246
O O9 0.249816 0.646940 0.886570
O O10 0.133758 0.658999 0.918900
O O11 0.941481 0.919943 0.736529
O O12 0.988150 0.154532 0.414338
O O13 0.250000 0.250000 0.000000
#
# Coordination Sequence:
#
# PCOD8282382 Si02
#       7
#    16   8  16  16   8  16  16
#     4  12  22  42  70 102 137 185 225 269 326 420
#     4  12  24  42  71  96 126 185 234 284 336 396
#     4  11  23  40  69 103 129 169 225 291 335 396
#     4  11  22  38  70 102 139 172 222 274 341 398
#     4  10  20  40  62 101 132 179 216 280 328 412
#     4  12  21  41  69  98 126 172 236 281 333 403
#     4  11  24  40  68  96 139 175 234 276 343 398
#
# _framework density 22.180913
#
# number of rings (size 3 to 8) (size 9 to 14) (size 15 to 20)
#    0.000    0.667    5.833    3.500    0.000    0.000 
#    0.000    0.417    3.667   21.000    0.000    0.000 
#    0.000    0.000    0.000    0.000    0.000    0.000 
#
# Total GULP energy -595149.343416 kJ/mol
# GULP energy per Si atom -12398.944654 kJ/mol
# Density = 2.213043 g / cm^3
# Si number density = 22.180913 Si / 1000 Ang^3
#
#
#
# Elastic Constant Matrix: (Units=GPa)
#
#
# Indices 1 2 3 4 5 6 
#
# 1 38.9017 40.3109 20.3703 0.0000 0.0000 0.0000
# 2 40.3109 115.7538 53.4715 0.0000 0.0000 0.0000
# 3 20.3703 53.4715 141.2993 0.0000 0.0000 0.0000
# 4 0.0000 0.0000 0.0000 39.2396 0.0000 0.0000
# 5 0.0000 0.0000 0.0000 0.0000 31.6342 0.0000
# 6 0.0000 0.0000 0.0000 0.0000 0.0000 28.7928
#
#
#
# Elastic Compliance Matrix: (Units=1/GPa)
#
#
# Indices 1 2 3 4 5 6 
#
# 1 0.040262 -0.013742 -0.000604 0.000000 0.000000 0.000000
# 2 -0.013742 0.015160 -0.003756 0.000000 0.000000 0.000000
# 3 -0.000604 -0.003756 0.008585 0.000000 0.000000 0.000000
# 4 0.000000 0.000000 0.000000 0.025484 0.000000 0.000000
# 5 0.000000 0.000000 0.000000 0.000000 0.031611 0.000000
# 6 0.000000 0.000000 0.000000 0.000000 0.000000 0.034731
#
#
# Mechanical properties :
#
#
# Convention : Reuss Voigt Hill
#
# Bulk Modulus (GPa) = 35.96655 58.25113 47.10884
# Shear Modulus (GPa) = 24.83790 32.05348 28.44569
#
# Velocity S-wave (km/s) = 3.34995 3.80556 3.58500
# Velocity P-wave (km/s) = 5.58688 6.75489 6.19846
#
# Compressibility (1/GPa) = 0.02780361
#
# Stress axis : x y z
#
# Youngs Moduli (GPa) = 24.83727 65.96481 116.47557
#
# Poissons Ratio (x) = 0.90650 0.07034
# Poissons Ratio (y) = 0.34132 0.43744
# Poissons Ratio (z) = 0.01500 0.24774
#
# Static dielectric constant tensor:
#      x y z
#    x 4.015790 0.000000 0.000000 
#    y 0.000000 4.172490 0.000000 
#    z 0.000000 0.000000 4.306600 
# 
# 
# High freq. dielectric constant tensor:
#      x y z
#    x 1.848330 0.000000 0.000000 
#    y 0.000000 1.864470 0.000000 
#    z 0.000000 0.000000 1.901500 
# 
# From -- ./inp_files/8188.got.cif
#   From: 2010.03.12/outbox.cif.g09.slc.cpg/sg68_5_cif.got.tgz:8188.got - 2010.04.10 23:14:56.
