data_PCOD8282599
_publ_section_title
;
Structure prediction by ZEFSAII (Michael W. Deem and Ramdas Pophale) SiO2 
 PCOD8282599
Probable space group: C C C A
;
_chemical_formula_sum "Si O2"
_cell_formula_units_Z 88
_cell_length_a 14.881738
_cell_length_b 10.679113
_cell_length_c 23.993121
_cell_angle_alpha 90.000000
_cell_angle_beta 90.000000
_cell_angle_gamma 90.000000
_cell_volume 3813.077045
_symmetry_space_group_name_H-M "C C C A"
_symmetry_group_IT_number 68
_space_group.IT_coordinate_system_code '2'
_symmetry_cell_setting 'orthorhombic'
loop_
_space_group_symop_operation_xyz
x,y,z
-x,1/2-y,z
x,1/2-y,1/2-z
-x,y,1/2-z
-x,-y,-z
x,1/2+y,-z
-x,1/2+y,1/2+z
x,-y,1/2+z
1/2+x,1/2+y,z
1/2-x,-y,z
1/2+x,-y,1/2-z
1/2-x,1/2+y,1/2-z
1/2-x,1/2-y,-z
1/2+x,y,-z
1/2-x,y,1/2+z
1/2+x,1/2-y,1/2+z
loop_
_atom_site_type_symbol
_atom_site_label
_atom_site_fract_x
_atom_site_fract_y
_atom_site_fract_z
Si Si1 0.832777 0.594173 0.942002
Si Si2 0.846851 0.437518 0.565785
Si Si3 0.259484 0.253420 0.363487
Si Si4 0.622124 0.126519 0.781790
Si Si5 0.506759 0.602449 0.117848
Si Si6 0.250000 0.500000 0.202102
O O1 0.750000 0.500000 0.941086
O O2 0.800091 0.728197 0.918804
O O3 0.909864 0.544061 0.898754
O O4 0.869205 0.616069 0.004338
O O5 0.750000 0.500000 0.567755
O O6 0.847761 0.326750 0.613160
O O7 0.920948 0.540756 0.577652
O O8 0.204692 0.343544 0.322858
O O9 0.279025 0.120270 0.334201
O O10 0.589895 0.250000 0.750000
O O11 0.535890 0.077134 0.817342
O O12 0.660523 0.024967 0.738673
O O13 0.500000 0.750000 0.105886
#
# Coordination Sequence:
#
# PCOD8282599 Si02
#       6
#    16  16  16  16  16   8
#     4  11  24  42  65 101 143 189 233 285 359 433
#     4  11  22  40  71 105 142 187 227 292 369 431
#     4  11  20  42  70  99 143 177 230 292 361 439
#     4  10  21  38  67 100 129 174 232 296 349 417
#     4  12  23  43  67 102 138 180 247 296 341 428
#     4  10  22  40  68 108 140 180 232 294 382 428
#
# _framework density 23.078475000000001
#
# number of rings (size 3 to 8) (size 9 to 14) (size 15 to 20)
#    0.000    1.091    4.545    2.182    0.000    1.818 
#    0.000    0.909    0.000    0.000    4.727    0.000 
#    0.000    0.000    0.000    0.000    0.000    0.000 
#
# Total GULP energy -545294.678497 kJ/mol
# GULP energy per Si atom -12393.060875 kJ/mol
# Density = 2.302595 g / cm^3
# Si number density = 23.078475 Si / 1000 Ang^3
#
#
#
# Elastic Constant Matrix: (Units=GPa)
#
#
# Indices 1 2 3 4 5 6 
#
# 1 110.3817 41.2842 40.0640 0.0000 0.0000 0.0000
# 2 41.2842 99.4378 54.0622 0.0000 0.0000 0.0000
# 3 40.0640 54.0622 154.5248 0.0000 0.0000 0.0000
# 4 0.0000 0.0000 0.0000 29.4621 0.0000 0.0000
# 5 0.0000 0.0000 0.0000 0.0000 23.1845 0.0000
# 6 0.0000 0.0000 0.0000 0.0000 0.0000 30.9754
#
#
#
# Elastic Compliance Matrix: (Units=1/GPa)
#
#
# Indices 1 2 3 4 5 6 
#
# 1 0.011018 -0.003731 -0.001551 0.000000 0.000000 0.000000
# 2 -0.003731 0.013682 -0.003820 0.000000 0.000000 0.000000
# 3 -0.001551 -0.003820 0.008210 0.000000 0.000000 0.000000
# 4 0.000000 0.000000 0.000000 0.033942 0.000000 0.000000
# 5 0.000000 0.000000 0.000000 0.000000 0.043132 0.000000
# 6 0.000000 0.000000 0.000000 0.000000 0.000000 0.032284
#
#
# Mechanical properties :
#
#
# Convention : Reuss Voigt Hill
#
# Bulk Modulus (GPa) = 67.99737 70.57389 69.28563
# Shear Modulus (GPa) = 30.23456 31.98667 31.11061
#
# Velocity S-wave (km/s) = 3.62342 3.72694 3.67554
# Velocity P-wave (km/s) = 6.85807 7.01188 6.93540
#
# Compressibility (1/GPa) = 0.01470645
#
# Stress axis : x y z
#
# Youngs Moduli (GPa) = 90.76078 73.08805 121.80314
#
# Poissons Ratio (x) = 0.27269 0.18896
# Poissons Ratio (y) = 0.33863 0.46523
# Poissons Ratio (z) = 0.14080 0.27916
#
# Static dielectric constant tensor:
#      x y z
#    x 4.232800 0.000000 0.000000 
#    y 0.000000 4.070030 0.000000 
#    z 0.000000 0.000000 4.909450 
# 
# 
# High freq. dielectric constant tensor:
#      x y z
#    x 1.893170 0.000000 0.000000 
#    y 0.000000 1.893480 0.000000 
#    z 0.000000 0.000000 1.936800 
# 
# From -- ./inp_files/45296.got.cif
#   From: 2010.03.12/outbox.cif.g09.slc.cpg/sg68_23_cif.got.tgz:45296.got - 2010.04.10 23:14:56.
