data_PCOD8282867
_publ_section_title
;
Structure prediction by ZEFSAII (Michael W. Deem and Ramdas Pophale) SiO2 
 PCOD8282867
Probable space group: C C C A
;
_chemical_formula_sum "Si O2"
_cell_formula_units_Z 72
_cell_length_a 10.177318
_cell_length_b 24.408360
_cell_length_c 13.781069
_cell_angle_alpha 90.000000
_cell_angle_beta 90.000000
_cell_angle_gamma 90.000000
_cell_volume 3423.377973
_symmetry_space_group_name_H-M "C C C A"
_symmetry_group_IT_number 68
_space_group.IT_coordinate_system_code '2'
_symmetry_cell_setting 'orthorhombic'
loop_
_space_group_symop_operation_xyz
x,y,z
-x,1/2-y,z
x,1/2-y,1/2-z
-x,y,1/2-z
-x,-y,-z
x,1/2+y,-z
-x,1/2+y,1/2+z
x,-y,1/2+z
1/2+x,1/2+y,z
1/2-x,-y,z
1/2+x,-y,1/2-z
1/2-x,1/2+y,1/2-z
1/2-x,1/2-y,-z
1/2+x,y,-z
1/2-x,y,1/2+z
1/2+x,1/2-y,1/2+z
loop_
_atom_site_type_symbol
_atom_site_label
_atom_site_fract_x
_atom_site_fract_y
_atom_site_fract_z
Si Si1 0.187149 0.397595 0.586897
Si Si2 0.460395 0.632977 0.055754
Si Si3 0.500000 0.933216 0.250000
Si Si4 0.134092 0.295193 0.688514
Si Si5 0.250000 0.500000 0.699523
Si Si6 0.500000 0.250000 0.491245
O O1 0.318131 0.390010 0.522521
O O2 0.202852 0.353993 0.676818
O O3 0.174511 0.457493 0.630927
O O4 0.057169 0.387236 0.527056
O O5 0.498735 0.606358 0.157655
O O6 0.455414 0.699437 0.059881
O O7 0.366945 0.970182 0.240312
O O8 0.218967 0.250000 0.750000
O O9 0.115521 0.271346 0.579665
O O10 0.000000 0.303748 0.750000
#
# Coordination Sequence:
#
# PCOD8282867 Si02
#       6
#    16  16   8  16   8   8
#     4  10  22  40  62  89 119 164 203 252 301 368
#     4  10  22  41  59  93 124 157 206 243 313 358
#     4  10  24  43  58  92 121 158 206 256 298 366
#     4   8  16  34  59  93 116 154 205 244 296 365
#     4  10  24  42  62  88 120 158 214 246 304 354
#     4   8  17  37  60  86 124 162 188 247 297 376
#
# _framework density 21.031859000000001
#
# number of rings (size 3 to 8) (size 9 to 14) (size 15 to 20)
#    0.000    2.889    0.000    0.000    1.556   10.222 
#   28.000    0.000    0.000    0.000    0.000    0.000 
#    0.000    0.000    0.000    0.000    0.000    0.000 
#
# Total GULP energy -445986.370661 kJ/mol
# GULP energy per Si atom -12388.510296 kJ/mol
# Density = 2.098399 g / cm^3
# Si number density = 21.031859 Si / 1000 Ang^3
#
#
#
# Elastic Constant Matrix: (Units=GPa)
#
#
# Indices 1 2 3 4 5 6 
#
# 1 98.3530 35.5238 28.9258 0.0000 0.0000 0.0000
# 2 35.5238 162.5231 57.3378 0.0000 0.0000 0.0000
# 3 28.9258 57.3378 69.9038 0.0000 0.0000 0.0000
# 4 0.0000 0.0000 0.0000 13.6119 0.0000 0.0000
# 5 0.0000 0.0000 0.0000 0.0000 1.9878 0.0000
# 6 0.0000 0.0000 0.0000 0.0000 0.0000 31.9778
#
#
#
# Elastic Compliance Matrix: (Units=1/GPa)
#
#
# Indices 1 2 3 4 5 6 
#
# 1 0.011740 -0.001199 -0.003874 0.000000 0.000000 0.000000
# 2 -0.001199 0.008781 -0.006706 0.000000 0.000000 0.000000
# 3 -0.003874 -0.006706 0.021409 0.000000 0.000000 0.000000
# 4 0.000000 0.000000 0.000000 0.073465 0.000000 0.000000
# 5 0.000000 0.000000 0.000000 0.000000 0.503063 0.000000
# 6 0.000000 0.000000 0.000000 0.000000 0.000000 0.031272
#
#
# Mechanical properties :
#
#
# Convention : Reuss Voigt Hill
#
# Bulk Modulus (GPa) = 54.43451 63.81719 59.12585
# Shear Modulus (GPa) = 7.35928 23.44833 15.40381
#
# Velocity S-wave (km/s) = 1.87262 3.34263 2.70923
# Velocity P-wave (km/s) = 5.53297 6.73101 6.16118
#
# Compressibility (1/GPa) = 0.01837070
#
# Stress axis : x y z
#
# Youngs Moduli (GPa) = 85.17854 113.88105 46.70858
#
# Poissons Ratio (x) = 0.13657 0.18096
# Poissons Ratio (y) = 0.10215 0.31324
# Poissons Ratio (z) = 0.33001 0.76373
#
# Static dielectric constant tensor:
#      x y z
#    x 3.771410 0.000000 0.000000 
#    y 0.000000 4.310820 0.000000 
#    z 0.000000 0.000000 3.606290 
# 
# 
# High freq. dielectric constant tensor:
#      x y z
#    x 1.812110 0.000000 0.000000 
#    y 0.000000 1.846510 0.000000 
#    z 0.000000 0.000000 1.800200 
# 
# From -- ./inp_files/20804.got.cif
#   From: 2010.03.12/outbox.cif.g09.slc.cpg/sg68_11_cif.got.tgz:20804.got - 2010.04.10 23:14:56.
