data_PCOD8282962
_publ_section_title
;
Structure prediction by ZEFSAII (Michael W. Deem and Ramdas Pophale) SiO2 
 PCOD8282962
Probable space group: C C C A
;
_chemical_formula_sum "Si O2"
_cell_formula_units_Z 80
_cell_length_a 14.503042
_cell_length_b 18.175763
_cell_length_c 14.535143
_cell_angle_alpha 90.000000
_cell_angle_beta 90.000000
_cell_angle_gamma 90.000000
_cell_volume 3831.519716
_symmetry_space_group_name_H-M "C C C A"
_symmetry_group_IT_number 68
_space_group.IT_coordinate_system_code '2'
_symmetry_cell_setting 'orthorhombic'
loop_
_space_group_symop_operation_xyz
x,y,z
-x,1/2-y,z
x,1/2-y,1/2-z
-x,y,1/2-z
-x,-y,-z
x,1/2+y,-z
-x,1/2+y,1/2+z
x,-y,1/2+z
1/2+x,1/2+y,z
1/2-x,-y,z
1/2+x,-y,1/2-z
1/2-x,1/2+y,1/2-z
1/2-x,1/2-y,-z
1/2+x,y,-z
1/2-x,y,1/2+z
1/2+x,1/2-y,1/2+z
loop_
_atom_site_type_symbol
_atom_site_label
_atom_site_fract_x
_atom_site_fract_y
_atom_site_fract_z
Si Si1 0.912232 0.704109 0.885413
Si Si2 0.970272 0.583603 0.012781
Si Si3 0.214892 0.582093 0.376090
Si Si4 0.736914 0.177823 0.207270
Si Si5 0.652617 0.669704 0.989707
O O1 0.846675 0.693090 0.797506
O O2 0.867103 0.748350 0.972469
O O3 0.000000 0.750000 0.850645
O O4 0.936693 0.621212 0.918065
O O5 0.889223 0.588937 0.087756
O O6 0.000000 0.500000 0.000000
O O7 0.059528 0.629523 0.042807
O O8 0.250000 0.500000 0.381270
O O9 0.213998 0.607667 0.269734
O O10 0.289132 0.629518 0.431579
O O11 0.687492 0.250000 0.250000
O O12 0.711477 0.168551 0.101873
#
# Coordination Sequence:
#
# PCOD8282962 Si02
#       5
#    16  16  16  16  16
#     4  10  22  42  69 100 129 183 237 277 346 420
#     4  11  23  42  71  96 133 186 230 279 344 421
#     4  12  25  43  68 102 137 180 234 279 354 426
#     4  12  24  41  70 100 136 175 226 291 342 411
#     4  11  23  46  70  94 136 184 226 288 349 415
#
# _framework density 20.879443999999999
#
# number of rings (size 3 to 8) (size 9 to 14) (size 15 to 20)
#    0.000    0.800    6.000    1.800    0.000    3.600 
#    0.000    1.000    0.000    0.000    0.000    0.000 
#    0.000    0.000    0.000    0.000    0.000    0.000 
#
# Total GULP energy -495889.491371 kJ/mol
# GULP energy per Si atom -12397.237284 kJ/mol
# Density = 2.083192 g / cm^3
# Si number density = 20.879444 Si / 1000 Ang^3
#
#
#
# Elastic Constant Matrix: (Units=GPa)
#
#
# Indices 1 2 3 4 5 6 
#
# 1 118.2013 30.4586 28.8978 0.0000 0.0000 0.0000
# 2 30.4586 123.8746 16.5065 0.0000 0.0000 0.0000
# 3 28.8978 16.5065 55.2752 0.0000 0.0000 0.0000
# 4 0.0000 0.0000 0.0000 24.6488 0.0000 0.0000
# 5 0.0000 0.0000 0.0000 0.0000 22.4340 0.0000
# 6 0.0000 0.0000 0.0000 0.0000 0.0000 28.4817
#
#
#
# Elastic Compliance Matrix: (Units=1/GPa)
#
#
# Indices 1 2 3 4 5 6 
#
# 1 0.010092 -0.001852 -0.004723 0.000000 0.000000 0.000000
# 2 -0.001852 0.008747 -0.001644 0.000000 0.000000 0.000000
# 3 -0.004723 -0.001644 0.021051 0.000000 0.000000 0.000000
# 4 0.000000 0.000000 0.000000 0.040570 0.000000 0.000000
# 5 0.000000 0.000000 0.000000 0.000000 0.044575 0.000000
# 6 0.000000 0.000000 0.000000 0.000000 0.000000 0.035110
#
#
# Mechanical properties :
#
#
# Convention : Reuss Voigt Hill
#
# Bulk Modulus (GPa) = 42.63912 49.89743 46.26828
# Shear Modulus (GPa) = 27.11473 29.87876 28.49674
#
# Velocity S-wave (km/s) = 3.60756 3.78698 3.69836
# Velocity P-wave (km/s) = 6.14968 6.56288 6.35964
#
# Compressibility (1/GPa) = 0.02345264
#
# Stress axis : x y z
#
# Youngs Moduli (GPa) = 99.08741 114.32327 47.50281
#
# Poissons Ratio (x) = 0.21174 0.22436
# Poissons Ratio (y) = 0.18352 0.07809
# Poissons Ratio (z) = 0.46799 0.18793
#
# Static dielectric constant tensor:
#      x y z
#    x 4.290480 0.000000 0.000000 
#    y 0.000000 3.925650 0.000000 
#    z 0.000000 0.000000 3.524280 
# 
# 
# High freq. dielectric constant tensor:
#      x y z
#    x 1.837660 0.000000 0.000000 
#    y 0.000000 1.825160 0.000000 
#    z 0.000000 0.000000 1.805500 
# 
# From -- ./inp_files/22165.got.cif
#   From: 2010.03.12/outbox.cif.g09.slc.cpg/sg68_12_cif.got.tgz:22165.got - 2010.04.10 23:14:56.
