data_PCOD8282247
_publ_section_title
;
Structure prediction by ZEFSAII (Michael W. Deem and Ramdas Pophale) SiO2 
 PCOD8282247
Probable space group: C C C A
;
_chemical_formula_sum "Si O2"
_cell_formula_units_Z 88
_cell_length_a 30.511554
_cell_length_b 7.967677
_cell_length_c 17.636601
_cell_angle_alpha 90.000000
_cell_angle_beta 90.000000
_cell_angle_gamma 90.000000
_cell_volume 4287.567174
_symmetry_space_group_name_H-M "C C C A"
_symmetry_group_IT_number 68
_space_group.IT_coordinate_system_code '2'
_symmetry_cell_setting 'orthorhombic'
loop_
_space_group_symop_operation_xyz
x,y,z
-x,1/2-y,z
x,1/2-y,1/2-z
-x,y,1/2-z
-x,-y,-z
x,1/2+y,-z
-x,1/2+y,1/2+z
x,-y,1/2+z
1/2+x,1/2+y,z
1/2-x,-y,z
1/2+x,-y,1/2-z
1/2-x,1/2+y,1/2-z
1/2-x,1/2-y,-z
1/2+x,y,-z
1/2-x,y,1/2+z
1/2+x,1/2-y,1/2+z
loop_
_atom_site_type_symbol
_atom_site_label
_atom_site_fract_x
_atom_site_fract_y
_atom_site_fract_z
Si Si1 0.605267 0.468188 0.474252
Si Si2 0.128425 0.565745 0.257025
Si Si3 0.217432 0.854409 0.320864
Si Si4 0.845212 0.835384 0.412977
Si Si5 0.950962 0.739082 0.585714
Si Si6 0.572069 0.750000 0.250000
O O1 0.620834 0.320639 0.419199
O O2 0.649243 0.559231 0.509089
O O3 0.574937 0.408851 0.543934
O O4 0.575591 0.589447 0.424431
O O5 0.105391 0.750000 0.250000
O O6 0.172349 0.564017 0.207073
O O7 0.140349 0.540419 0.345371
O O8 0.100373 0.412066 0.227160
O O9 0.238447 0.750000 0.250000
O O10 0.204031 0.734230 0.392963
O O11 0.250000 0.000000 0.348646
O O12 0.955816 0.701461 0.675785
O O13 0.000000 0.750000 0.551850
#
# Coordination Sequence:
#
# PCOD8282247 Si02
#       6
#    16  16  16  16  16   8
#     4  10  20  37  61  79 113 163 198 238 301 370
#     4   9  19  35  56  82 113 150 193 242 293 356
#     4   9  19  35  55  83 118 146 193 250 302 354
#     4   9  18  37  55  83 111 150 203 239 284 367
#     4  11  22  36  57  85 116 149 200 253 304 359
#     4  12  21  36  62  86 116 154 202 254 302 352
#
# _framework density 20.524459
#
# number of rings (size 3 to 8) (size 9 to 14) (size 15 to 20)
#    0.000    2.545    1.818    3.000    1.273    0.000 
#    0.000    0.909    0.000    2.182    0.000    0.000 
#    0.000    0.000    0.000    0.000    0.000    0.000 
#
# Total GULP energy -545128.504568 kJ/mol
# GULP energy per Si atom -12389.284195 kJ/mol
# Density = 2.047774 g / cm^3
# Si number density = 20.524459 Si / 1000 Ang^3
#
#
#
# Elastic Constant Matrix: (Units=GPa)
#
#
# Indices 1 2 3 4 5 6 
#
# 1 63.0672 30.3121 23.9084 0.0000 0.0000 0.0000
# 2 30.3121 76.1177 5.5448 0.0000 0.0000 0.0000
# 3 23.9084 5.5448 84.3129 0.0000 0.0000 0.0000
# 4 0.0000 0.0000 0.0000 22.3212 0.0000 0.0000
# 5 0.0000 0.0000 0.0000 0.0000 15.0976 0.0000
# 6 0.0000 0.0000 0.0000 0.0000 0.0000 19.5999
#
#
#
# Elastic Compliance Matrix: (Units=1/GPa)
#
#
# Indices 1 2 3 4 5 6 
#
# 1 0.022034 -0.008359 -0.005698 0.000000 0.000000 0.000000
# 2 -0.008359 0.016372 0.001294 0.000000 0.000000 0.000000
# 3 -0.005698 0.001294 0.013391 0.000000 0.000000 0.000000
# 4 0.000000 0.000000 0.000000 0.044800 0.000000 0.000000
# 5 0.000000 0.000000 0.000000 0.000000 0.066236 0.000000
# 6 0.000000 0.000000 0.000000 0.000000 0.000000 0.051021
#
#
# Mechanical properties :
#
#
# Convention : Reuss Voigt Hill
#
# Bulk Modulus (GPa) = 38.06691 38.11428 38.09060
# Shear Modulus (GPa) = 20.14995 22.31923 21.23459
#
# Velocity S-wave (km/s) = 3.13669 3.30122 3.22001
# Velocity P-wave (km/s) = 5.63079 5.75684 5.69417
#
# Compressibility (1/GPa) = 0.02626953
#
# Stress axis : x y z
#
# Youngs Moduli (GPa) = 45.38402 61.07888 74.67481
#
# Poissons Ratio (x) = 0.51059 0.42553
# Poissons Ratio (y) = 0.37939 -0.09661
# Poissons Ratio (z) = 0.25862 -0.07902
#
# Static dielectric constant tensor:
#      x y z
#    x 3.368470 0.000000 0.000000 
#    y 0.000000 3.740840 0.000000 
#    z 0.000000 0.000000 3.754830 
# 
# 
# High freq. dielectric constant tensor:
#      x y z
#    x 1.761960 0.000000 0.000000 
#    y 0.000000 1.801150 0.000000 
#    z 0.000000 0.000000 1.811060 
# 
# From -- ./inp_files/34367.got.cif
#   From: 2010.03.12/outbox.cif.g09.slc.cpg/sg68_18_cif.got.tgz:34367.got - 2010.04.10 23:14:56.
