data_PCOD8282914
_publ_section_title
;
Structure prediction by ZEFSAII (Michael W. Deem and Ramdas Pophale) SiO2 
 PCOD8282914
Probable space group: C C C A
;
_chemical_formula_sum "Si O2"
_cell_formula_units_Z 96
_cell_length_a 24.531052
_cell_length_b 15.077246
_cell_length_c 13.083287
_cell_angle_alpha 90.000000
_cell_angle_beta 90.000000
_cell_angle_gamma 90.000000
_cell_volume 4838.993762
_symmetry_space_group_name_H-M "C C C A"
_symmetry_group_IT_number 68
_space_group.IT_coordinate_system_code '2'
_symmetry_cell_setting 'orthorhombic'
loop_
_space_group_symop_operation_xyz
x,y,z
-x,1/2-y,z
x,1/2-y,1/2-z
-x,y,1/2-z
-x,-y,-z
x,1/2+y,-z
-x,1/2+y,1/2+z
x,-y,1/2+z
1/2+x,1/2+y,z
1/2-x,-y,z
1/2+x,-y,1/2-z
1/2-x,1/2+y,1/2-z
1/2-x,1/2-y,-z
1/2+x,y,-z
1/2-x,y,1/2+z
1/2+x,1/2-y,1/2+z
loop_
_atom_site_type_symbol
_atom_site_label
_atom_site_fract_x
_atom_site_fract_y
_atom_site_fract_z
Si Si1 0.376304 0.636153 0.921505
Si Si2 0.556263 0.783676 0.634831
Si Si3 0.313458 0.750000 0.250000
Si Si4 0.937622 0.457405 0.761977
Si Si5 0.143546 0.585335 0.640153
Si Si6 0.750000 0.500000 0.441275
Si Si7 0.747480 0.334707 0.073535
O O1 0.394738 0.739453 0.928885
O O2 0.415062 0.586847 0.841163
O O3 0.313118 0.637970 0.891471
O O4 0.384342 0.588493 0.029471
O O5 0.500000 0.750000 0.583278
O O6 0.557503 0.750000 0.750000
O O7 0.563521 0.889764 0.641006
O O8 0.349108 0.814191 0.320816
O O9 0.278436 0.815112 0.178278
O O10 0.898207 0.539082 0.783533
O O11 0.000000 0.489875 0.750000
O O12 0.201197 0.533549 0.632078
O O13 0.771967 0.580881 0.512350
O O14 0.750000 0.250000 0.000000
#
# Coordination Sequence:
#
# PCOD8282914 Si02
#       7
#    16  16   8  16  16   8  16
#     4  10  22  41  62  97 128 171 217 272 345 393
#     4   9  16  36  62  92 120 149 213 283 319 375
#     4  12  26  44  63  96 141 180 224 278 340 420
#     4  11  23  42  69  98 129 171 233 288 327 394
#     4  11  27  42  65  96 138 181 221 275 349 412
#     4  10  24  46  64 102 132 174 236 270 344 420
#     4  11  24  43  65  98 138 171 224 280 340 416
#
# _framework density 19.838835
#
# number of rings (size 3 to 8) (size 9 to 14) (size 15 to 20)
#    0.000    1.500    6.667    0.000   12.833    0.667 
#    0.000    0.417    0.000    0.000    0.000    0.000 
#    0.000    0.000    0.000    0.000    0.000    0.000 
#
# Total GULP energy -594988.498242 kJ/mol
# GULP energy per Si atom -12395.593713 kJ/mol
# Density = 1.979368 g / cm^3
# Si number density = 19.838835 Si / 1000 Ang^3
#
#
#
# Elastic Constant Matrix: (Units=GPa)
#
#
# Indices 1 2 3 4 5 6 
#
# 1 106.9341 40.3601 42.9265 0.0000 0.0000 0.0000
# 2 40.3601 110.3934 35.7508 0.0000 0.0000 0.0000
# 3 42.9265 35.7508 73.3204 0.0000 0.0000 0.0000
# 4 0.0000 0.0000 0.0000 35.6419 0.0000 0.0000
# 5 0.0000 0.0000 0.0000 0.0000 15.6443 0.0000
# 6 0.0000 0.0000 0.0000 0.0000 0.0000 30.2560
#
#
#
# Elastic Compliance Matrix: (Units=1/GPa)
#
#
# Indices 1 2 3 4 5 6 
#
# 1 0.012863 -0.002688 -0.006220 0.000000 0.000000 0.000000
# 2 -0.002688 0.011319 -0.003945 0.000000 0.000000 0.000000
# 3 -0.006220 -0.003945 0.019204 0.000000 0.000000 0.000000
# 4 0.000000 0.000000 0.000000 0.028057 0.000000 0.000000
# 5 0.000000 0.000000 0.000000 0.000000 0.063921 0.000000
# 6 0.000000 0.000000 0.000000 0.000000 0.000000 0.033051
#
#
# Mechanical properties :
#
#
# Convention : Reuss Voigt Hill
#
# Bulk Modulus (GPa) = 56.56443 58.74700 57.65571
# Shear Modulus (GPa) = 24.99803 27.74913 26.37358
#
# Velocity S-wave (km/s) = 3.55358 3.74401 3.65004
# Velocity P-wave (km/s) = 6.73877 6.95461 6.84754
#
# Compressibility (1/GPa) = 0.01767895
#
# Stress axis : x y z
#
# Youngs Moduli (GPa) = 77.74133 88.34663 52.07236
#
# Poissons Ratio (x) = 0.23752 0.32389
# Poissons Ratio (y) = 0.20900 0.20543
# Poissons Ratio (z) = 0.48356 0.34854
#
# Static dielectric constant tensor:
#      x y z
#    x 3.693180 0.000000 0.000000 
#    y 0.000000 3.987850 0.000000 
#    z 0.000000 0.000000 3.451510 
# 
# 
# High freq. dielectric constant tensor:
#      x y z
#    x 1.770700 0.000000 0.000000 
#    y 0.000000 1.777220 0.000000 
#    z 0.000000 0.000000 1.754530 
# 
# From -- ./inp_files/25412.got.cif
#   From: 2010.03.12/outbox.cif.g09.slc.cpg/sg68_13_cif.got.tgz:25412.got - 2010.04.10 23:14:56.
