data_PCOD8282140
_publ_section_title
;
Structure prediction by ZEFSAII (Michael W. Deem and Ramdas Pophale) SiO2 
 PCOD8282140
Probable space group: C C C A
;
_chemical_formula_sum "Si O2"
_cell_formula_units_Z 68
_cell_length_a 36.848989
_cell_length_b 19.342967
_cell_length_c 5.034886
_cell_angle_alpha 90.000000
_cell_angle_beta 90.000000
_cell_angle_gamma 90.000000
_cell_volume 3588.709543
_symmetry_space_group_name_H-M "C C C A"
_symmetry_group_IT_number 68
_space_group.IT_coordinate_system_code '2'
_symmetry_cell_setting 'orthorhombic'
loop_
_space_group_symop_operation_xyz
x,y,z
-x,1/2-y,z
x,1/2-y,1/2-z
-x,y,1/2-z
-x,-y,-z
x,1/2+y,-z
-x,1/2+y,1/2+z
x,-y,1/2+z
1/2+x,1/2+y,z
1/2-x,-y,z
1/2+x,-y,1/2-z
1/2-x,1/2+y,1/2-z
1/2-x,1/2-y,-z
1/2+x,y,-z
1/2-x,y,1/2+z
1/2+x,1/2-y,1/2+z
loop_
_atom_site_type_symbol
_atom_site_label
_atom_site_fract_x
_atom_site_fract_y
_atom_site_fract_z
Si Si1 0.674613 0.453901 0.869275
Si Si2 0.500000 0.250000 0.250000
Si Si3 0.977551 0.619669 0.006529
Si Si4 0.726308 0.671254 0.239059
Si Si5 0.591430 0.458002 0.858749
O O1 0.684878 0.511081 0.648637
O O2 0.695074 0.382580 0.813742
O O3 0.632546 0.431867 0.882769
O O4 0.475217 0.298024 0.439144
O O5 0.935940 0.599504 0.965917
O O6 0.000000 0.599400 0.750000
O O7 0.000000 0.583231 0.250000
O O8 0.711120 0.750000 0.250000
O O9 0.759582 0.658931 0.441190
O O10 0.584568 0.476035 0.550909
#
# Coordination Sequence:
#
# PCOD8282140 Si02
#       5
#    16   4  16  16  16
#     4  10  21  37  58  83 115 145 187 233 277 331
#     4   8  22  36  50  76 106 136 182 230 258 316
#     4  10  20  35  56  75 107 140 179 226 271 321
#     4  10  21  37  58  83 116 149 185 230 278 332
#     4  10  21  36  55  81 110 140 177 228 281 325
#
# _framework density 18.948314
#
# number of rings (size 3 to 8) (size 9 to 14) (size 15 to 20)
#    0.706    1.412    0.000    3.176    0.000    5.647 
#    0.000    2.353    7.765    0.000    0.000    0.000 
#    0.000    0.000    0.000    0.000    0.000    0.000 
#
# Total GULP energy -421318.726969 kJ/mol
# GULP energy per Si atom -12391.727264 kJ/mol
# Density = 1.890519 g / cm^3
# Si number density = 18.948314 Si / 1000 Ang^3
#
#
#
# Elastic Constant Matrix: (Units=GPa)
#
#
# Indices 1 2 3 4 5 6 
#
# 1 102.1831 75.4607 29.7162 0.0000 0.0000 0.0000
# 2 75.4607 105.8549 22.7315 0.0000 0.0000 0.0000
# 3 29.7162 22.7315 107.5298 0.0000 0.0000 0.0000
# 4 0.0000 0.0000 0.0000 17.9099 0.0000 0.0000
# 5 0.0000 0.0000 0.0000 0.0000 28.9343 0.0000
# 6 0.0000 0.0000 0.0000 0.0000 0.0000 17.6961
#
#
#
# Elastic Compliance Matrix: (Units=1/GPa)
#
#
# Indices 1 2 3 4 5 6 
#
# 1 0.021454 -0.014688 -0.002824 0.000000 0.000000 0.000000
# 2 -0.014688 0.019951 -0.000159 0.000000 0.000000 0.000000
# 3 -0.002824 -0.000159 0.010114 0.000000 0.000000 0.000000
# 4 0.000000 0.000000 0.000000 0.055835 0.000000 0.000000
# 5 0.000000 0.000000 0.000000 0.000000 0.034561 0.000000
# 6 0.000000 0.000000 0.000000 0.000000 0.000000 0.056510
#
#
# Mechanical properties :
#
#
# Convention : Reuss Voigt Hill
#
# Bulk Modulus (GPa) = 61.80999 63.48718 62.64859
# Shear Modulus (GPa) = 20.90665 25.41869 23.16267
#
# Velocity S-wave (km/s) = 3.32528 3.66659 3.50010
# Velocity P-wave (km/s) = 6.88726 7.17658 7.03341
#
# Compressibility (1/GPa) = 0.01617862
#
# Stress axis : x y z
#
# Youngs Moduli (GPa) = 46.61096 50.12204 98.87557
#
# Poissons Ratio (x) = 0.73617 0.27923
# Poissons Ratio (y) = 0.68460 0.01569
# Poissons Ratio (z) = 0.13163 0.00795
#
# Static dielectric constant tensor:
#      x y z
#    x 3.366650 0.000000 0.000000 
#    y 0.000000 3.252940 0.000000 
#    z 0.000000 0.000000 3.793260 
# 
# 
# High freq. dielectric constant tensor:
#      x y z
#    x 1.722670 0.000000 0.000000 
#    y 0.000000 1.717900 0.000000 
#    z 0.000000 0.000000 1.762390 
# 
# From -- ./inp_files/2673.got.cif
#   From: 2010.03.12/outbox.cif.g09.slc.cpg/sg68_2_cif.got.tgz:2673.got - 2010.04.10 23:14:56.
