data_PCOD8282471
_publ_section_title
;
Structure prediction by ZEFSAII (Michael W. Deem and Ramdas Pophale) SiO2 
 PCOD8282471
Probable space group: C C C A
;
_chemical_formula_sum "Si O2"
_cell_formula_units_Z 120
_cell_length_a 25.614697
_cell_length_b 26.098152
_cell_length_c 9.191859
_cell_angle_alpha 90.000000
_cell_angle_beta 90.000000
_cell_angle_gamma 90.000000
_cell_volume 6144.723325
_symmetry_space_group_name_H-M "C C C A"
_symmetry_group_IT_number 68
_space_group.IT_coordinate_system_code '2'
_symmetry_cell_setting 'orthorhombic'
loop_
_space_group_symop_operation_xyz
x,y,z
-x,1/2-y,z
x,1/2-y,1/2-z
-x,y,1/2-z
-x,-y,-z
x,1/2+y,-z
-x,1/2+y,1/2+z
x,-y,1/2+z
1/2+x,1/2+y,z
1/2-x,-y,z
1/2+x,-y,1/2-z
1/2-x,1/2+y,1/2-z
1/2-x,1/2-y,-z
1/2+x,y,-z
1/2-x,y,1/2+z
1/2+x,1/2-y,1/2+z
loop_
_atom_site_type_symbol
_atom_site_label
_atom_site_fract_x
_atom_site_fract_y
_atom_site_fract_z
Si Si1 0.292473 0.439324 0.760964
Si Si2 0.809159 0.956833 0.420508
Si Si3 0.000000 0.638277 0.250000
Si Si4 0.945319 0.967813 0.688786
Si Si5 0.116809 0.871171 0.721041
Si Si6 0.947106 0.309673 0.998453
Si Si7 0.943166 0.790059 0.618438
Si Si8 0.075736 0.559860 0.377313
O O1 0.233624 0.429471 0.817609
O O2 0.293111 0.456185 0.591086
O O3 0.316043 0.484554 0.864087
O O4 0.321547 0.384143 0.784433
O O5 0.863485 0.925804 0.400346
O O6 0.041360 0.672269 0.163059
O O7 0.037466 0.608024 0.360404
O O8 0.904011 0.927954 0.750130
O O9 0.945479 0.971262 0.515290
O O10 0.000000 0.949109 0.750000
O O11 0.930742 0.025074 0.735450
O O12 0.096793 0.846113 0.570985
O O13 0.100231 0.834033 0.855812
O O14 0.929686 0.249374 0.985877
O O15 0.000059 0.315544 0.095939
O O16 0.943392 0.750000 0.750000
#
# Coordination Sequence:
#
# PCOD8282471 Si02
#       8
#    16  16   8  16  16  16  16  16
#     4  11  23  37  64  82 118 163 218 259 311 358
#     4  11  22  41  54  87 115 163 207 264 302 358
#     4  12  26  35  54  90 124 170 197 246 306 396
#     4  12  23  36  55  83 122 169 199 242 292 370
#     4  11  19  34  61  86 111 161 207 253 305 363
#     4  10  21  35  57  86 124 156 200 252 308 369
#     4   9  18  37  60  87 117 150 200 259 300 378
#     4  12  24  38  53  81 130 161 208 240 303 369
#
# _framework density 19.528949999999998
#
# number of rings (size 3 to 8) (size 9 to 14) (size 15 to 20)
#    0.000    1.067    3.333    7.200    1.867    3.200 
#    0.000    0.000    0.000    0.000    0.000   14.933 
#    0.000    0.000    0.000    0.000    0.000    0.000 
#
# Total GULP energy -743457.868253 kJ/mol
# GULP energy per Si atom -12390.964471 kJ/mol
# Density = 1.948450 g / cm^3
# Si number density = 19.528950 Si / 1000 Ang^3
#
#
#
# Elastic Constant Matrix: (Units=GPa)
#
#
# Indices 1 2 3 4 5 6 
#
# 1 115.6025 40.9823 42.6387 0.0000 0.0000 0.0000
# 2 40.9823 70.6465 18.8135 0.0000 0.0000 0.0000
# 3 42.6387 18.8135 108.7873 0.0000 0.0000 0.0000
# 4 0.0000 0.0000 0.0000 8.7363 0.0000 0.0000
# 5 0.0000 0.0000 0.0000 0.0000 21.3889 0.0000
# 6 0.0000 0.0000 0.0000 0.0000 0.0000 35.3739
#
#
#
# Elastic Compliance Matrix: (Units=1/GPa)
#
#
# Indices 1 2 3 4 5 6 
#
# 1 0.012176 -0.006072 -0.003722 0.000000 0.000000 0.000000
# 2 -0.006072 0.017866 -0.000710 0.000000 0.000000 0.000000
# 3 -0.003722 -0.000710 0.010774 0.000000 0.000000 0.000000
# 4 0.000000 0.000000 0.000000 0.114465 0.000000 0.000000
# 5 0.000000 0.000000 0.000000 0.000000 0.046753 0.000000
# 6 0.000000 0.000000 0.000000 0.000000 0.000000 0.028269
#
#
# Mechanical properties :
#
#
# Convention : Reuss Voigt Hill
#
# Bulk Modulus (GPa) = 50.48466 55.54504 53.01485
# Shear Modulus (GPa) = 19.38623 25.93993 22.66308
#
# Velocity S-wave (km/s) = 3.15412 3.64851 3.41029
# Velocity P-wave (km/s) = 6.25875 6.80096 6.53548
#
# Compressibility (1/GPa) = 0.01980800
#
# Stress axis : x y z
#
# Youngs Moduli (GPa) = 82.13008 55.97094 92.81689
#
# Poissons Ratio (x) = 0.33986 0.34548
# Poissons Ratio (y) = 0.49869 0.06589
# Poissons Ratio (z) = 0.30570 0.03973
#
# Static dielectric constant tensor:
#      x y z
#    x 3.709630 0.000000 0.000000 
#    y 0.000000 4.309730 0.000000 
#    z 0.000000 0.000000 3.952290 
# 
# 
# High freq. dielectric constant tensor:
#      x y z
#    x 1.740680 0.000000 0.000000 
#    y 0.000000 1.743970 0.000000 
#    z 0.000000 0.000000 1.767350 
# 
# From -- ./inp_files/9227.got.cif
#   From: 2010.03.12/outbox.cif.g09.slc.cpg/sg68_5_cif.got.tgz:9227.got - 2010.04.10 23:14:56.
