data_PCOD8282210
_publ_section_title
;
Structure prediction by ZEFSAII (Michael W. Deem and Ramdas Pophale) SiO2 
 PCOD8282210
Probable space group: C C C A
;
_chemical_formula_sum "Si O2"
_cell_formula_units_Z 104
_cell_length_a 27.310860
_cell_length_b 16.302775
_cell_length_c 10.956881
_cell_angle_alpha 90.000000
_cell_angle_beta 90.000000
_cell_angle_gamma 90.000000
_cell_volume 4878.472437
_symmetry_space_group_name_H-M "C C C A"
_symmetry_group_IT_number 68
_space_group.IT_coordinate_system_code '2'
_symmetry_cell_setting 'orthorhombic'
loop_
_space_group_symop_operation_xyz
x,y,z
-x,1/2-y,z
x,1/2-y,1/2-z
-x,y,1/2-z
-x,-y,-z
x,1/2+y,-z
-x,1/2+y,1/2+z
x,-y,1/2+z
1/2+x,1/2+y,z
1/2-x,-y,z
1/2+x,-y,1/2-z
1/2-x,1/2+y,1/2-z
1/2-x,1/2-y,-z
1/2+x,y,-z
1/2-x,y,1/2+z
1/2+x,1/2-y,1/2+z
loop_
_atom_site_type_symbol
_atom_site_label
_atom_site_fract_x
_atom_site_fract_y
_atom_site_fract_z
Si Si1 0.064873 0.576627 0.465238
Si Si2 0.619053 0.690733 0.144677
Si Si3 0.802042 0.293247 0.501643
Si Si4 0.648116 0.576632 0.347304
Si Si5 0.958873 0.101255 0.508505
Si Si6 0.337091 0.750000 0.750000
Si Si7 0.612904 0.406436 0.286607
O O1 0.096275 0.592653 0.586270
O O2 0.046492 0.484555 0.436772
O O3 0.100925 0.600689 0.356053
O O4 0.015292 0.630794 0.478819
O O5 0.599408 0.750000 0.250000
O O6 0.645465 0.613727 0.210855
O O7 0.572248 0.668154 0.064072
O O8 0.658937 0.733635 0.060356
O O9 0.750000 0.250000 0.500000
O O10 0.807727 0.381532 0.428838
O O11 0.808679 0.303227 0.647715
O O12 0.651995 0.477890 0.326439
O O13 0.938067 0.083458 0.643085
O O14 0.366386 0.681805 0.673137
#
# Coordination Sequence:
#
# PCOD8282210 Si02
#       7
#    16  16  16  16  16   8  16
#     4  10  20  36  62  95 128 179 225 267 322 404
#     4  10  21  40  62  92 125 170 218 277 342 402
#     4  11  25  45  71  95 127 170 221 279 353 409
#     4  10  22  41  67  92 133 174 219 275 332 407
#     4  10  20  36  61  93 131 174 225 265 324 401
#     4  12  24  42  71  96 126 176 211 284 344 398
#     4  11  21  40  65  93 137 170 222 265 336 394
#
# _framework density 21.318148000000001
#
# number of rings (size 3 to 8) (size 9 to 14) (size 15 to 20)
#    0.000    1.538    4.615    0.462    3.231    0.615 
#    0.000   10.769    0.000    0.000    0.000    0.000 
#    0.000    0.000    0.000    0.000    0.000    0.000 
#
# Total GULP energy -644230.757008 kJ/mol
# GULP energy per Si atom -12389.053019 kJ/mol
# Density = 2.126963 g / cm^3
# Si number density = 21.318148 Si / 1000 Ang^3
#
#
#
# Elastic Constant Matrix: (Units=GPa)
#
#
# Indices 1 2 3 4 5 6 
#
# 1 99.1686 40.1415 20.7712 0.0000 0.0000 0.0000
# 2 40.1415 107.9670 21.4216 0.0000 0.0000 0.0000
# 3 20.7712 21.4216 97.2982 0.0000 0.0000 0.0000
# 4 0.0000 0.0000 0.0000 35.3743 0.0000 0.0000
# 5 0.0000 0.0000 0.0000 0.0000 19.1211 0.0000
# 6 0.0000 0.0000 0.0000 0.0000 0.0000 30.1053
#
#
#
# Elastic Compliance Matrix: (Units=1/GPa)
#
#
# Indices 1 2 3 4 5 6 
#
# 1 0.012124 -0.004177 -0.001669 0.000000 0.000000 0.000000
# 2 -0.004177 0.011124 -0.001557 0.000000 0.000000 0.000000
# 3 -0.001669 -0.001557 0.010977 0.000000 0.000000 0.000000
# 4 0.000000 0.000000 0.000000 0.028269 0.000000 0.000000
# 5 0.000000 0.000000 0.000000 0.000000 0.052298 0.000000
# 6 0.000000 0.000000 0.000000 0.000000 0.000000 0.033217
#
#
# Mechanical properties :
#
#
# Convention : Reuss Voigt Hill
#
# Bulk Modulus (GPa) = 51.49527 52.12249 51.80888
# Shear Modulus (GPa) = 29.53559 31.72677 30.63118
#
# Velocity S-wave (km/s) = 3.72622 3.86197 3.79471
# Velocity P-wave (km/s) = 6.53613 6.66253 6.59964
#
# Compressibility (1/GPa) = 0.01941926
#
# Stress axis : x y z
#
# Youngs Moduli (GPa) = 82.48159 89.89643 91.10105
#
# Poissons Ratio (x) = 0.37545 0.15202
# Poissons Ratio (y) = 0.34449 0.14189
# Poissons Ratio (z) = 0.13764 0.14001
#
# Static dielectric constant tensor:
#      x y z
#    x 3.686960 0.000000 0.000000 
#    y 0.000000 4.074880 0.000000 
#    z 0.000000 0.000000 -30.938820 
# 
# 
# High freq. dielectric constant tensor:
#      x y z
#    x 1.802120 0.000000 0.000000 
#    y 0.000000 1.833160 0.000000 
#    z 0.000000 0.000000 1.852940 
# 
# From -- ./inp_files/17201.got.cif
#   From: 2010.03.12/outbox.cif.g09.slc.cpg/sg68_9_cif.got.tgz:17201.got - 2010.04.10 23:14:56.
