data_PCOD8282742
_publ_section_title
;
Structure prediction by ZEFSAII (Michael W. Deem and Ramdas Pophale) SiO2 
 PCOD8282742
Probable space group: C C C A
;
_chemical_formula_sum "Si O2"
_cell_formula_units_Z 104
_cell_length_a 15.778192
_cell_length_b 17.168430
_cell_length_c 18.110895
_cell_angle_alpha 90.000000
_cell_angle_beta 90.000000
_cell_angle_gamma 90.000000
_cell_volume 4906.002118
_symmetry_space_group_name_H-M "C C C A"
_symmetry_group_IT_number 68
_space_group.IT_coordinate_system_code '2'
_symmetry_cell_setting 'orthorhombic'
loop_
_space_group_symop_operation_xyz
x,y,z
-x,1/2-y,z
x,1/2-y,1/2-z
-x,y,1/2-z
-x,-y,-z
x,1/2+y,-z
-x,1/2+y,1/2+z
x,-y,1/2+z
1/2+x,1/2+y,z
1/2-x,-y,z
1/2+x,-y,1/2-z
1/2-x,1/2+y,1/2-z
1/2-x,1/2-y,-z
1/2+x,y,-z
1/2-x,y,1/2+z
1/2+x,1/2-y,1/2+z
loop_
_atom_site_type_symbol
_atom_site_label
_atom_site_fract_x
_atom_site_fract_y
_atom_site_fract_z
Si Si1 0.321729 0.841210 0.236331
Si Si2 0.067201 0.935400 0.632580
Si Si3 0.268474 0.184169 0.441623
Si Si4 0.500000 0.443211 0.250000
Si Si5 0.142414 0.675175 0.212181
Si Si6 0.839547 0.531568 0.492460
Si Si7 0.615142 0.904265 0.116990
O O1 0.346268 0.750000 0.250000
O O2 0.361834 0.873571 0.160297
O O3 0.220390 0.852963 0.235631
O O4 0.359877 0.899658 0.297457
O O5 0.095843 0.980903 0.559274
O O6 0.984273 0.884388 0.611984
O O7 0.045250 0.003088 0.690098
O O8 0.250000 0.250000 0.500000
O O9 0.314930 0.205313 0.364736
O O10 0.331781 0.122720 0.477501
O O11 0.172980 0.154872 0.428218
O O12 0.428938 0.391377 0.207643
O O13 0.098818 0.750000 0.250000
O O14 0.750000 0.500000 0.519768
O O15 0.869315 0.490571 0.416411
#
# Coordination Sequence:
#
# PCOD8282742 Si02
#       7
#    16  16  16   8  16  16  16
#     4  10  23  42  69  98 132 173 229 276 347 404
#     4  12  24  40  67 101 131 177 226 281 338 409
#     4  10  23  43  69  94 132 178 231 275 347 411
#     4  12  25  42  65 100 140 170 230 278 347 412
#     4  10  24  43  69  95 135 177 222 284 341 409
#     4  10  24  41  64  92 134 175 225 274 337 417
#     4  10  21  43  62  95 134 173 211 285 342 401
#
# _framework density 21.198523000000002
#
# number of rings (size 3 to 8) (size 9 to 14) (size 15 to 20)
#    0.000    1.538    1.538    1.615    8.615    3.692 
#    0.000    1.538    0.000    0.000    0.000    0.000 
#    0.000    0.000    0.000    0.000    0.000    0.000 
#
# Total GULP energy -644441.447582 kJ/mol
# GULP energy per Si atom -12393.104761 kJ/mol
# Density = 2.115027 g / cm^3
# Si number density = 21.198523 Si / 1000 Ang^3
#
#
#
# Elastic Constant Matrix: (Units=GPa)
#
#
# Indices 1 2 3 4 5 6 
#
# 1 98.9287 27.8559 31.5396 0.0000 0.0000 0.0000
# 2 27.8559 107.1482 54.2114 0.0000 0.0000 0.0000
# 3 31.5396 54.2114 104.7392 0.0000 0.0000 0.0000
# 4 0.0000 0.0000 0.0000 38.7565 0.0000 0.0000
# 5 0.0000 0.0000 0.0000 0.0000 35.9399 0.0000
# 6 0.0000 0.0000 0.0000 0.0000 0.0000 28.8167
#
#
#
# Elastic Compliance Matrix: (Units=1/GPa)
#
#
# Indices 1 2 3 4 5 6 
#
# 1 0.011396 -0.001662 -0.002572 0.000000 0.000000 0.000000
# 2 -0.001662 0.012886 -0.006169 0.000000 0.000000 0.000000
# 3 -0.002572 -0.006169 0.013515 0.000000 0.000000 0.000000
# 4 0.000000 0.000000 0.000000 0.025802 0.000000 0.000000
# 5 0.000000 0.000000 0.000000 0.000000 0.027824 0.000000
# 6 0.000000 0.000000 0.000000 0.000000 0.000000 0.034702
#
#
# Mechanical properties :
#
#
# Convention : Reuss Voigt Hill
#
# Bulk Modulus (GPa) = 58.85063 59.78111 59.31587
# Shear Modulus (GPa) = 32.76649 33.84990 33.30819
#
# Velocity S-wave (km/s) = 3.93580 4.00034 3.96820
# Velocity P-wave (km/s) = 6.96247 7.04264 7.00267
#
# Compressibility (1/GPa) = 0.01699217
#
# Stress axis : x y z
#
# Youngs Moduli (GPa) = 87.75000 77.60233 73.99150
#
# Poissons Ratio (x) = 0.12894 0.19028
# Poissons Ratio (y) = 0.14580 0.45648
# Poissons Ratio (z) = 0.22566 0.47876
#
# Static dielectric constant tensor:
#      x y z
#    x 4.078310 0.000000 0.000000 
#    y 0.000000 3.788100 0.000000 
#    z 0.000000 0.000000 3.917420 
# 
# 
# High freq. dielectric constant tensor:
#      x y z
#    x 1.837840 0.000000 0.000000 
#    y 0.000000 1.823170 0.000000 
#    z 0.000000 0.000000 1.832360 
# 
# From -- ./inp_files/32090.got.cif
#   From: 2010.03.12/outbox.cif.g09.slc.cpg/sg68_17_cif.got.tgz:32090.got - 2010.04.10 23:14:56.
