data_PCOD8282050
_publ_section_title
;
Structure prediction by ZEFSAII (Michael W. Deem and Ramdas Pophale) SiO2 
 PCOD8282050
Probable space group: C C C A
;
_chemical_formula_sum "Si O2"
_cell_formula_units_Z 116
_cell_length_a 13.592563
_cell_length_b 18.018303
_cell_length_c 23.676977
_cell_angle_alpha 90.000000
_cell_angle_beta 90.000000
_cell_angle_gamma 90.000000
_cell_volume 5798.844897
_symmetry_space_group_name_H-M "C C C A"
_symmetry_group_IT_number 68
_space_group.IT_coordinate_system_code '2'
_symmetry_cell_setting 'orthorhombic'
loop_
_space_group_symop_operation_xyz
x,y,z
-x,1/2-y,z
x,1/2-y,1/2-z
-x,y,1/2-z
-x,-y,-z
x,1/2+y,-z
-x,1/2+y,1/2+z
x,-y,1/2+z
1/2+x,1/2+y,z
1/2-x,-y,z
1/2+x,-y,1/2-z
1/2-x,1/2+y,1/2-z
1/2-x,1/2-y,-z
1/2+x,y,-z
1/2-x,y,1/2+z
1/2+x,1/2-y,1/2+z
loop_
_atom_site_type_symbol
_atom_site_label
_atom_site_fract_x
_atom_site_fract_y
_atom_site_fract_z
Si Si1 0.992764 0.482265 0.886303
Si Si2 0.850654 0.458729 0.192804
Si Si3 0.331884 0.444948 0.685426
Si Si4 0.500000 0.750000 0.250000
Si Si5 0.977243 0.627006 0.945295
Si Si6 0.555413 0.674452 0.936358
Si Si7 0.890747 0.311865 0.146403
Si Si8 0.217727 0.324715 0.099394
O O1 0.890730 0.511354 0.862017
O O2 0.010298 0.540111 0.938657
O O3 0.989004 0.396830 0.904534
O O4 0.071040 0.486441 0.835975
O O5 0.750000 0.500000 0.195834
O O6 0.888583 0.430553 0.255206
O O7 0.833041 0.389023 0.151685
O O8 0.250000 0.500000 0.706518
O O9 0.286377 0.370900 0.657838
O O10 0.426980 0.794416 0.209232
O O11 0.858256 0.639854 0.947057
O O12 0.010030 0.674131 0.890094
O O13 0.033360 0.662442 0.997902
O O14 0.500000 0.750000 0.915760
O O15 0.672776 0.678891 0.926616
O O16 0.814578 0.257733 0.116010
#
# Coordination Sequence:
#
# PCOD8282050 Si02
#       8
#    16  16  16   4  16  16  16  16
#     4  10  22  42  63  91 128 158 219 263 312 378
#     4  10  23  37  62  91 125 165 206 259 322 382
#     4  10  19  39  65  90 116 162 212 258 314 374
#     4  12  20  36  68 100 130 152 206 288 338 360
#     4  10  23  43  64  93 122 164 219 272 316 372
#     4  12  26  41  65  90 130 180 210 259 326 386
#     4  11  22  37  63  97 128 154 211 270 331 377
#     4  11  22  41  66  92 128 163 212 265 320 399
#
# _framework density 20.003983999999999
#
# number of rings (size 3 to 8) (size 9 to 14) (size 15 to 20)
#    0.000    1.379    2.759    2.483    5.793    2.207 
#    2.483    0.000    0.000    1.655    0.000    0.000 
#    0.000    0.000    0.000    0.000    0.000    0.000 
#
# Total GULP energy -718620.390106 kJ/mol
# GULP energy per Si atom -12390.006726 kJ/mol
# Density = 1.995845 g / cm^3
# Si number density = 20.003984 Si / 1000 Ang^3
#
#
#
# Elastic Constant Matrix: (Units=GPa)
#
#
# Indices 1 2 3 4 5 6 
#
# 1 113.9240 47.4606 55.9261 0.0000 0.0000 0.0000
# 2 47.4606 133.9996 43.7485 0.0000 0.0000 0.0000
# 3 55.9261 43.7485 101.3833 0.0000 0.0000 0.0000
# 4 0.0000 0.0000 0.0000 30.0341 0.0000 0.0000
# 5 0.0000 0.0000 0.0000 0.0000 22.4609 0.0000
# 6 0.0000 0.0000 0.0000 0.0000 0.0000 28.4436
#
#
#
# Elastic Compliance Matrix: (Units=1/GPa)
#
#
# Indices 1 2 3 4 5 6 
#
# 1 0.012764 -0.002586 -0.005925 0.000000 0.000000 0.000000
# 2 -0.002586 0.009211 -0.002548 0.000000 0.000000 0.000000
# 3 -0.005925 -0.002548 0.014231 0.000000 0.000000 0.000000
# 4 0.000000 0.000000 0.000000 0.033296 0.000000 0.000000
# 5 0.000000 0.000000 0.000000 0.000000 0.044522 0.000000
# 6 0.000000 0.000000 0.000000 0.000000 0.000000 0.035157
#
#
# Mechanical properties :
#
#
# Convention : Reuss Voigt Hill
#
# Bulk Modulus (GPa) = 70.98412 71.50859 71.24636
# Shear Modulus (GPa) = 28.41002 29.66583 29.03793
#
# Velocity S-wave (km/s) = 3.77267 3.85515 3.81413
# Velocity P-wave (km/s) = 7.38508 7.45929 7.42228
#
# Compressibility (1/GPa) = 0.01408766
#
# Stress axis : x y z
#
# Youngs Moduli (GPa) = 78.34644 108.57089 70.26767
#
# Poissons Ratio (x) = 0.28081 0.41633
# Poissons Ratio (y) = 0.20263 0.17903
# Poissons Ratio (z) = 0.46419 0.27661
#
# Static dielectric constant tensor:
#      x y z
#    x 3.609050 0.000000 0.000000 
#    y 0.000000 3.845770 0.000000 
#    z 0.000000 0.000000 3.658630 
# 
# 
# High freq. dielectric constant tensor:
#      x y z
#    x 1.770750 0.000000 0.000000 
#    y 0.000000 1.793190 0.000000 
#    z 0.000000 0.000000 1.779280 
# 
# From -- ./inp_files/45666.got.cif
#   From: 2010.03.12/outbox.cif.g09.slc.cpg/sg68_23_cif.got.tgz:45666.got - 2010.04.10 23:14:56.
