data_PCOD8282129
_publ_section_title
;
Structure prediction by ZEFSAII (Michael W. Deem and Ramdas Pophale) SiO2 
 PCOD8282129
Probable space group: C C C A
;
_chemical_formula_sum "Si O2"
_cell_formula_units_Z 88
_cell_length_a 17.728970
_cell_length_b 22.725588
_cell_length_c 9.551785
_cell_angle_alpha 90.000000
_cell_angle_beta 90.000000
_cell_angle_gamma 90.000000
_cell_volume 3848.426287
_symmetry_space_group_name_H-M "C C C A"
_symmetry_group_IT_number 68
_space_group.IT_coordinate_system_code '2'
_symmetry_cell_setting 'orthorhombic'
loop_
_space_group_symop_operation_xyz
x,y,z
-x,1/2-y,z
x,1/2-y,1/2-z
-x,y,1/2-z
-x,-y,-z
x,1/2+y,-z
-x,1/2+y,1/2+z
x,-y,1/2+z
1/2+x,1/2+y,z
1/2-x,-y,z
1/2+x,-y,1/2-z
1/2-x,1/2+y,1/2-z
1/2-x,1/2-y,-z
1/2+x,y,-z
1/2-x,y,1/2+z
1/2+x,1/2-y,1/2+z
loop_
_atom_site_type_symbol
_atom_site_label
_atom_site_fract_x
_atom_site_fract_y
_atom_site_fract_z
Si Si1 0.166642 0.899522 0.842661
Si Si2 0.431246 0.357915 0.165579
Si Si3 0.250000 0.500000 0.773102
Si Si4 0.273292 0.791854 0.876888
Si Si5 0.947014 0.418387 0.124021
Si Si6 0.603533 0.954213 0.895203
O O1 0.209276 0.840978 0.884845
O O2 0.133860 0.896560 0.684128
O O3 0.228896 0.949685 0.836839
O O4 0.101638 0.917902 0.957258
O O5 0.500000 0.324234 0.250000
O O6 0.359443 0.316725 0.129991
O O7 0.411249 0.412946 0.262844
O O8 0.464635 0.385309 0.021793
O O9 0.313385 0.521196 0.878839
O O10 0.259639 0.750000 0.750000
O O11 0.250000 0.750000 0.000000
O O12 0.951914 0.489197 0.100808
O O13 0.000000 0.397307 0.250000
#
# Coordination Sequence:
#
# PCOD8282129 Si02
#       6
#    16  16   8  16  16  16
#     4  11  23  41  69 103 139 182 234 292 363 430
#     4  12  26  45  69 100 142 192 245 300 371 448
#     4  10  20  34  66 104 144 172 226 286 362 434
#     4  12  27  48  73 101 138 186 249 315 362 424
#     4  11  24  42  65 104 149 190 230 288 363 447
#     4  11  22  37  67 104 146 188 231 289 362 447
#
# _framework density 22.866489999999999
#
# number of rings (size 3 to 8) (size 9 to 14) (size 15 to 20)
#    0.000    0.727    1.818    6.545    5.091    2.545 
#    0.000    0.000    0.000    3.818    0.000    0.000 
#    0.000    0.000    0.000    0.000    0.000    0.000 
#
# Total GULP energy -545137.101967 kJ/mol
# GULP energy per Si atom -12389.479590 kJ/mol
# Density = 2.281445 g / cm^3
# Si number density = 22.866490 Si / 1000 Ang^3
#
#
#
# Elastic Constant Matrix: (Units=GPa)
#
#
# Indices 1 2 3 4 5 6 
#
# 1 62.7599 33.7477 40.4619 0.0000 0.0000 0.0000
# 2 33.7477 105.9746 62.4341 0.0000 0.0000 0.0000
# 3 40.4619 62.4341 177.1435 0.0000 0.0000 0.0000
# 4 0.0000 0.0000 0.0000 24.2328 0.0000 0.0000
# 5 0.0000 0.0000 0.0000 0.0000 44.3832 0.0000
# 6 0.0000 0.0000 0.0000 0.0000 0.0000 24.3653
#
#
#
# Elastic Compliance Matrix: (Units=1/GPa)
#
#
# Indices 1 2 3 4 5 6 
#
# 1 0.020410 -0.004737 -0.002993 0.000000 0.000000 0.000000
# 2 -0.004737 0.013008 -0.003503 0.000000 0.000000 0.000000
# 3 -0.002993 -0.003503 0.007563 0.000000 0.000000 0.000000
# 4 0.000000 0.000000 0.000000 0.041266 0.000000 0.000000
# 5 0.000000 0.000000 0.000000 0.000000 0.022531 0.000000
# 6 0.000000 0.000000 0.000000 0.000000 0.000000 0.041042
#
#
# Mechanical properties :
#
#
# Convention : Reuss Voigt Hill
#
# Bulk Modulus (GPa) = 54.00251 68.79614 61.39933
# Shear Modulus (GPa) = 28.66032 32.54523 30.60278
#
# Velocity S-wave (km/s) = 3.54415 3.77672 3.66228
# Velocity P-wave (km/s) = 6.35733 7.01210 6.69273
#
# Compressibility (1/GPa) = 0.01851766
#
# Stress axis : x y z
#
# Youngs Moduli (GPa) = 48.99550 76.87424 132.21828
#
# Poissons Ratio (x) = 0.36412 0.39567
# Poissons Ratio (y) = 0.23207 0.46314
# Poissons Ratio (z) = 0.14662 0.26928
#
# Static dielectric constant tensor:
#      x y z
#    x 4.532820 0.000000 0.000000 
#    y 0.000000 4.032950 0.000000 
#    z 0.000000 0.000000 4.364890 
# 
# 
# High freq. dielectric constant tensor:
#      x y z
#    x 1.924410 0.000000 0.000000 
#    y 0.000000 1.875620 0.000000 
#    z 0.000000 0.000000 1.926550 
# 
# From -- ./inp_files/7124.got.cif
#   From: 2010.03.12/outbox.cif.g09.slc.cpg/sg68_4_cif.got.tgz:7124.got - 2010.04.10 23:14:56.
