data_PCOD8282437
_publ_section_title
;
Structure prediction by ZEFSAII (Michael W. Deem and Ramdas Pophale) SiO2 
 PCOD8282437
Probable space group: C C C A
;
_chemical_formula_sum "Si O2"
_cell_formula_units_Z 88
_cell_length_a 18.050941
_cell_length_b 13.683093
_cell_length_c 18.338325
_cell_angle_alpha 90.000000
_cell_angle_beta 90.000000
_cell_angle_gamma 90.000000
_cell_volume 4529.432487
_symmetry_space_group_name_H-M "C C C A"
_symmetry_group_IT_number 68
_space_group.IT_coordinate_system_code '2'
_symmetry_cell_setting 'orthorhombic'
loop_
_space_group_symop_operation_xyz
x,y,z
-x,1/2-y,z
x,1/2-y,1/2-z
-x,y,1/2-z
-x,-y,-z
x,1/2+y,-z
-x,1/2+y,1/2+z
x,-y,1/2+z
1/2+x,1/2+y,z
1/2-x,-y,z
1/2+x,-y,1/2-z
1/2-x,1/2+y,1/2-z
1/2-x,1/2-y,-z
1/2+x,y,-z
1/2-x,y,1/2+z
1/2+x,1/2-y,1/2+z
loop_
_atom_site_type_symbol
_atom_site_label
_atom_site_fract_x
_atom_site_fract_y
_atom_site_fract_z
Si Si1 0.750000 0.000000 0.116609
Si Si2 0.725336 0.637745 0.251555
Si Si3 0.028036 0.856446 0.057392
Si Si4 0.115561 0.148022 0.707876
Si Si5 0.921898 0.048247 0.229048
Si Si6 0.594975 0.519941 0.432313
O O1 0.746051 0.903908 0.168308
O O2 0.819645 0.986275 0.062705
O O3 0.705305 0.750000 0.250000
O O4 0.796832 0.620307 0.199578
O O5 0.648748 0.587264 0.224284
O O6 0.077525 0.848056 0.129489
O O7 0.000000 0.750000 0.033422
O O8 0.957393 0.925839 0.066537
O O9 0.079266 0.901453 0.994619
O O10 0.106295 0.250000 0.750000
O O11 0.074473 0.067990 0.757480
O O12 0.912695 0.074509 0.144730
O O13 0.000000 0.097512 0.250000
#
# Coordination Sequence:
#
# PCOD8282437 Si02
#       6
#     8  16  16  16  16  16
#     4  10  20  44  64  82 130 170 198 256 318 364
#     4  10  21  37  61  94 123 152 210 261 305 364
#     4  11  24  40  62  94 127 157 206 263 312 371
#     4  11  21  36  68  97 118 152 212 270 308 354
#     4  11  20  39  63  90 124 167 206 256 311 366
#     4  10  22  43  60  87 128 168 198 249 320 375
#
# _framework density 19.428481999999999
#
# number of rings (size 3 to 8) (size 9 to 14) (size 15 to 20)
#    0.000    1.455    5.455    1.091    2.545    0.364 
#    9.818    0.909    0.000    0.000    0.000    0.000 
#    0.000    0.000    0.000    0.000    0.000    0.000 
#
# Total GULP energy -545241.019368 kJ/mol
# GULP energy per Si atom -12391.841349 kJ/mol
# Density = 1.938426 g / cm^3
# Si number density = 19.428482 Si / 1000 Ang^3
#
#
#
# Elastic Constant Matrix: (Units=GPa)
#
#
# Indices 1 2 3 4 5 6 
#
# 1 197.5326 57.7502 63.4728 0.0000 0.0000 0.0000
# 2 57.7502 117.8227 53.8015 0.0000 0.0000 0.0000
# 3 63.4728 53.8015 100.4204 0.0000 0.0000 0.0000
# 4 0.0000 0.0000 0.0000 22.0070 0.0000 0.0000
# 5 0.0000 0.0000 0.0000 0.0000 -280.9619 0.0000
# 6 0.0000 0.0000 0.0000 0.0000 0.0000 20.9089
#
#
#
# Elastic Compliance Matrix: (Units=1/GPa)
#
#
# Indices 1 2 3 4 5 6 
#
# 1 0.006619 -0.001766 -0.003238 0.000000 0.000000 0.000000
# 2 -0.001766 0.011707 -0.005156 0.000000 0.000000 0.000000
# 3 -0.003238 -0.005156 0.014767 0.000000 0.000000 0.000000
# 4 0.000000 0.000000 0.000000 0.045440 0.000000 0.000000
# 5 0.000000 0.000000 0.000000 0.000000 -0.003559 0.000000
# 6 0.000000 0.000000 0.000000 0.000000 0.000000 0.047827
#
#
# Mechanical properties :
#
#
# Convention : Reuss Voigt Hill
#
# Bulk Modulus (GPa) = 78.28373 85.09160 81.68767
# Shear Modulus (GPa) = 33.92627 -31.55913 1.18357
#
# Velocity S-wave (km/s) = 4.18330 -4.03473 0.78136
# Velocity P-wave (km/s) = 7.98211 4.71032 6.55367
#
# Compressibility (1/GPa) = 0.01277405
#
# Stress axis : x y z
#
# Youngs Moduli (GPa) = 151.07862 85.41641 67.71843
#
# Poissons Ratio (x) = 0.15084 0.21925
# Poissons Ratio (y) = 0.26679 0.34917
# Poissons Ratio (z) = 0.48913 0.44042
#
# Static dielectric constant tensor:
#      x y z
#    x 4.156860 0.000000 0.000000 
#    y 0.000000 3.563450 0.000000 
#    z 0.000000 0.000000 3.321560 
# 
# 
# High freq. dielectric constant tensor:
#      x y z
#    x 1.788290 0.000000 0.000000 
#    y 0.000000 1.752040 0.000000 
#    z 0.000000 0.000000 1.722390 
# 
# From -- ./inp_files/31846.got.cif
#   From: 2010.03.12/outbox.cif.g09.slc.cpg/sg68_16_cif.got.tgz:31846.got - 2010.04.10 23:14:56.
