data_PCOD8282242
_publ_section_title
;
Structure prediction by ZEFSAII (Michael W. Deem and Ramdas Pophale) SiO2 
 PCOD8282242
Probable space group: C C C A
;
_chemical_formula_sum "Si O2"
_cell_formula_units_Z 88
_cell_length_a 18.347239
_cell_length_b 12.976813
_cell_length_c 18.839445
_cell_angle_alpha 90.000000
_cell_angle_beta 90.000000
_cell_angle_gamma 90.000000
_cell_volume 4485.458772
_symmetry_space_group_name_H-M "C C C A"
_symmetry_group_IT_number 68
_space_group.IT_coordinate_system_code '2'
_symmetry_cell_setting 'orthorhombic'
loop_
_space_group_symop_operation_xyz
x,y,z
-x,1/2-y,z
x,1/2-y,1/2-z
-x,y,1/2-z
-x,-y,-z
x,1/2+y,-z
-x,1/2+y,1/2+z
x,-y,1/2+z
1/2+x,1/2+y,z
1/2-x,-y,z
1/2+x,-y,1/2-z
1/2-x,1/2+y,1/2-z
1/2-x,1/2-y,-z
1/2+x,y,-z
1/2-x,y,1/2+z
1/2+x,1/2-y,1/2+z
loop_
_atom_site_type_symbol
_atom_site_label
_atom_site_fract_x
_atom_site_fract_y
_atom_site_fract_z
Si Si1 0.987382 0.489306 0.673655
Si Si2 0.250000 0.000000 0.584438
Si Si3 0.623713 0.524902 0.976308
Si Si4 0.655760 0.869911 0.822645
Si Si5 0.873514 0.862219 0.163000
Si Si6 0.489369 0.870166 0.456250
O O1 0.907179 0.449537 0.656844
O O2 0.001749 0.580979 0.620538
O O3 0.000000 0.541269 0.750000
O O4 0.041685 0.391083 0.671169
O O5 0.315453 0.040808 0.535440
O O6 0.227725 0.094875 0.635120
O O7 0.657592 0.565033 0.900879
O O8 0.593188 0.406221 0.978681
O O9 0.550488 0.592135 0.988369
O O10 0.633602 0.758539 0.853260
O O11 0.669409 0.877767 0.737703
O O12 0.500000 0.750000 0.449819
#
# Coordination Sequence:
#
# PCOD8282242 Si02
#       6
#    16   8  16  16  16  16
#     4   9  17  35  62  89 116 146 200 252 292 340
#     4  12  24  38  58  84 128 158 188 244 308 362
#     4  10  23  39  58  90 118 156 196 246 300 352
#     4  10  20  37  60  89 118 155 195 250 298 354
#     4   9  20  37  63  86 113 154 204 248 293 351
#     4  10  21  38  60  87 117 156 199 246 294 349
#
# _framework density 19.618950999999999
#
# number of rings (size 3 to 8) (size 9 to 14) (size 15 to 20)
#    0.000    2.182    1.818    0.545    2.545    4.000 
#    0.000    0.000    8.000    0.000    0.000    0.000 
#    0.000    0.000    0.000    0.000    0.000    0.000 
#
# Total GULP energy -545228.757154 kJ/mol
# GULP energy per Si atom -12391.562663 kJ/mol
# Density = 1.957430 g / cm^3
# Si number density = 19.618951 Si / 1000 Ang^3
#
#
#
# Elastic Constant Matrix: (Units=GPa)
#
#
# Indices 1 2 3 4 5 6 
#
# 1 75.2440 34.1754 47.8019 0.0000 0.0000 0.0000
# 2 34.1754 126.8431 45.6546 0.0000 0.0000 0.0000
# 3 47.8019 45.6546 117.2252 0.0000 0.0000 0.0000
# 4 0.0000 0.0000 0.0000 24.1734 0.0000 0.0000
# 5 0.0000 0.0000 0.0000 0.0000 36.6945 0.0000
# 6 0.0000 0.0000 0.0000 0.0000 0.0000 18.5684
#
#
#
# Elastic Compliance Matrix: (Units=1/GPa)
#
#
# Indices 1 2 3 4 5 6 
#
# 1 0.018680 -0.002665 -0.006580 0.000000 0.000000 0.000000
# 2 -0.002665 0.009549 -0.002632 0.000000 0.000000 0.000000
# 3 -0.006580 -0.002632 0.012239 0.000000 0.000000 0.000000
# 4 0.000000 0.000000 0.000000 0.041368 0.000000 0.000000
# 5 0.000000 0.000000 0.000000 0.000000 0.027252 0.000000
# 6 0.000000 0.000000 0.000000 0.000000 0.000000 0.053855
#
#
# Mechanical properties :
#
#
# Convention : Reuss Voigt Hill
#
# Bulk Modulus (GPa) = 59.82736 63.84178 61.83457
# Shear Modulus (GPa) = 26.00528 28.66595 27.33562
#
# Velocity S-wave (km/s) = 3.64472 3.82663 3.73678
# Velocity P-wave (km/s) = 6.94787 7.22050 7.08549
#
# Compressibility (1/GPa) = 0.01671476
#
# Stress axis : x y z
#
# Youngs Moduli (GPa) = 53.53193 104.72062 81.70729
#
# Poissons Ratio (x) = 0.27907 0.53760
# Poissons Ratio (y) = 0.14266 0.21508
# Poissons Ratio (z) = 0.35222 0.27566
#
# Static dielectric constant tensor:
#      x y z
#    x 3.458320 0.000000 0.000000 
#    y 0.000000 3.385880 0.000000 
#    z 0.000000 0.000000 4.075060 
# 
# 
# High freq. dielectric constant tensor:
#      x y z
#    x 1.739040 0.000000 0.000000 
#    y 0.000000 1.743580 0.000000 
#    z 0.000000 0.000000 1.792590 
# 
# From -- ./inp_files/39414.got.cif
#   From: 2010.03.12/outbox.cif.g09.slc.cpg/sg68_20_cif.got.tgz:39414.got - 2010.04.10 23:14:56.
