data_PCOD8282202
_publ_section_title
;
Structure prediction by ZEFSAII (Michael W. Deem and Ramdas Pophale) SiO2 
 PCOD8282202
Probable space group: C C C A
;
_chemical_formula_sum "Si O2"
_cell_formula_units_Z 72
_cell_length_a 9.245907
_cell_length_b 28.131083
_cell_length_c 13.446291
_cell_angle_alpha 90.000000
_cell_angle_beta 90.000000
_cell_angle_gamma 90.000000
_cell_volume 3497.345023
_symmetry_space_group_name_H-M "C C C A"
_symmetry_group_IT_number 68
_space_group.IT_coordinate_system_code '2'
_symmetry_cell_setting 'orthorhombic'
loop_
_space_group_symop_operation_xyz
x,y,z
-x,1/2-y,z
x,1/2-y,1/2-z
-x,y,1/2-z
-x,-y,-z
x,1/2+y,-z
-x,1/2+y,1/2+z
x,-y,1/2+z
1/2+x,1/2+y,z
1/2-x,-y,z
1/2+x,-y,1/2-z
1/2-x,1/2+y,1/2-z
1/2-x,1/2-y,-z
1/2+x,y,-z
1/2-x,y,1/2+z
1/2+x,1/2-y,1/2+z
loop_
_atom_site_type_symbol
_atom_site_label
_atom_site_fract_x
_atom_site_fract_y
_atom_site_fract_z
Si Si1 0.249277 0.314207 0.551536
Si Si2 0.500000 0.250000 0.492261
Si Si3 0.491624 0.054393 0.970657
Si Si4 0.729686 0.895448 0.906714
Si Si5 0.645779 0.890633 0.200679
O O1 0.382895 0.277627 0.559273
O O2 0.096134 0.287474 0.571611
O O3 0.248640 0.340710 0.443387
O O4 0.270231 0.352062 0.637260
O O5 0.654332 0.071687 0.961719
O O6 0.400539 0.064337 0.868493
O O7 0.426161 0.085181 0.060914
O O8 0.500000 0.000000 0.000000
O O9 0.743390 0.903356 0.788630
O O10 0.500000 0.869066 0.250000
#
# Coordination Sequence:
#
# PCOD8282202 Si02
#       5
#    16   8  16  16  16
#     4  10  20  38  59  83 116 151 190 237 290 343
#     4  10  20  36  60  86 114 148 190 242 288 340
#     4  10  20  37  60  86 115 148 189 235 280 334
#     4  10  20  39  61  82 115 153 188 232 288 342
#     4   9  19  37  60  82 112 155 192 229 287 346
#
# _framework density 20.587046000000001
#
# number of rings (size 3 to 8) (size 9 to 14) (size 15 to 20)
#    0.000    2.222    0.000    4.667    0.000    0.000 
#    0.000   46.111    0.000    0.000    0.000    0.000 
#    0.000    0.000    0.000    0.000    0.000    0.000 
#
# Total GULP energy -446181.832115 kJ/mol
# GULP energy per Si atom -12393.939781 kJ/mol
# Density = 2.054019 g / cm^3
# Si number density = 20.587046 Si / 1000 Ang^3
#
#
#
# Elastic Constant Matrix: (Units=GPa)
#
#
# Indices 1 2 3 4 5 6 
#
# 1 83.8645 43.9855 34.8755 0.0000 0.0000 0.0000
# 2 43.9855 130.9764 39.3002 0.0000 0.0000 0.0000
# 3 34.8755 39.3002 113.7338 0.0000 0.0000 0.0000
# 4 0.0000 0.0000 0.0000 11.7188 0.0000 0.0000
# 5 0.0000 0.0000 0.0000 0.0000 29.9448 0.0000
# 6 0.0000 0.0000 0.0000 0.0000 0.0000 39.4466
#
#
#
# Elastic Compliance Matrix: (Units=1/GPa)
#
#
# Indices 1 2 3 4 5 6 
#
# 1 0.015508 -0.004218 -0.003298 0.000000 0.000000 0.000000
# 2 -0.004218 0.009666 -0.002046 0.000000 0.000000 0.000000
# 3 -0.003298 -0.002046 0.010511 0.000000 0.000000 0.000000
# 4 0.000000 0.000000 0.000000 0.085333 0.000000 0.000000
# 5 0.000000 0.000000 0.000000 0.000000 0.033395 0.000000
# 6 0.000000 0.000000 0.000000 0.000000 0.000000 0.025351
#
#
# Mechanical properties :
#
#
# Convention : Reuss Voigt Hill
#
# Bulk Modulus (GPa) = 60.38917 62.76637 61.57777
# Shear Modulus (GPa) = 24.46089 30.24960 27.35524
#
# Velocity S-wave (km/s) = 3.45072 3.83737 3.64917
# Velocity P-wave (km/s) = 6.72859 7.08437 6.90877
#
# Compressibility (1/GPa) = 0.01655926
#
# Stress axis : x y z
#
# Youngs Moduli (GPa) = 64.48334 103.45890 95.14045
#
# Poissons Ratio (x) = 0.43644 0.31374
# Poissons Ratio (y) = 0.27202 0.19469
# Poissons Ratio (z) = 0.21265 0.21172
#
# Static dielectric constant tensor:
#      x y z
#    x 3.984540 0.000000 0.000000 
#    y 0.000000 3.747020 0.000000 
#    z 0.000000 0.000000 3.805320 
# 
# 
# High freq. dielectric constant tensor:
#      x y z
#    x 1.818800 0.000000 0.000000 
#    y 0.000000 1.800410 0.000000 
#    z 0.000000 0.000000 1.783080 
# 
# From -- ./inp_files/19582.got.cif
#   From: 2010.03.12/outbox.cif.g09.slc.cpg/sg68_10_cif.got.tgz:19582.got - 2010.04.10 23:14:56.
