data_PCOD8282435
_publ_section_title
;
Structure prediction by ZEFSAII (Michael W. Deem and Ramdas Pophale) SiO2 
 PCOD8282435
Probable space group: C C C A
;
_chemical_formula_sum "Si O2"
_cell_formula_units_Z 104
_cell_length_a 17.077717
_cell_length_b 11.163879
_cell_length_c 25.708445
_cell_angle_alpha 90.000000
_cell_angle_beta 90.000000
_cell_angle_gamma 90.000000
_cell_volume 4901.406720
_symmetry_space_group_name_H-M "C C C A"
_symmetry_group_IT_number 68
_space_group.IT_coordinate_system_code '2'
_symmetry_cell_setting 'orthorhombic'
loop_
_space_group_symop_operation_xyz
x,y,z
-x,1/2-y,z
x,1/2-y,1/2-z
-x,y,1/2-z
-x,-y,-z
x,1/2+y,-z
-x,1/2+y,1/2+z
x,-y,1/2+z
1/2+x,1/2+y,z
1/2-x,-y,z
1/2+x,-y,1/2-z
1/2-x,1/2+y,1/2-z
1/2-x,1/2-y,-z
1/2+x,y,-z
1/2-x,y,1/2+z
1/2+x,1/2-y,1/2+z
loop_
_atom_site_type_symbol
_atom_site_label
_atom_site_fract_x
_atom_site_fract_y
_atom_site_fract_z
Si Si1 0.000000 0.250000 0.029389
Si Si2 0.671838 0.250000 0.750000
Si Si3 0.250000 0.500000 0.550946
Si Si4 0.258352 0.243485 0.087696
Si Si5 0.707272 0.624243 0.682228
Si Si6 0.580058 0.469257 0.721868
Si Si7 0.634692 0.601630 0.525317
Si Si8 0.898798 0.901758 0.896872
O O1 0.033848 0.150176 0.067207
O O2 0.060392 0.321883 0.993106
O O3 0.729688 0.281659 0.703452
O O4 0.617398 0.366706 0.759197
O O5 0.255828 0.613864 0.588574
O O6 0.330691 0.490019 0.517657
O O7 0.320381 0.194983 0.130975
O O8 0.293681 0.195402 0.033355
O O9 0.173543 0.189249 0.100483
O O10 0.750000 0.500000 0.665774
O O11 0.635462 0.588340 0.720303
O O12 0.500000 0.507561 0.750000
O O13 0.571415 0.418955 0.662744
O O14 0.619266 0.531317 0.578889
#
# Coordination Sequence:
#
# PCOD8282435 Si02
#       8
#     8   8   8  16  16  16  16  16
#     4  12  28  40  63 108 157 176 232 292 354 422
#     4  10  21  38  71 102 128 166 236 288 343 414
#     4  12  24  36  70 110 134 180 252 292 330 416
#     4  12  21  43  72 100 135 189 243 287 339 429
#     4  10  20  43  69  99 132 177 228 284 357 419
#     4  11  24  43  73 102 137 181 232 293 361 425
#     4  12  23  45  70  99 142 196 231 287 352 423
#     4  12  23  43  73 101 141 189 232 289 361 420
#
# _framework density 21.218399000000002
#
# number of rings (size 3 to 8) (size 9 to 14) (size 15 to 20)
#    0.000    0.615    7.692    2.077    2.154    0.000 
#    4.154    1.923    0.000    0.000    0.000    0.000 
#    0.000    0.000    0.000    0.000    0.000    0.000 
#
# Total GULP energy -644296.198927 kJ/mol
# GULP energy per Si atom -12390.311518 kJ/mol
# Density = 2.117010 g / cm^3
# Si number density = 21.218399 Si / 1000 Ang^3
#
#
#
# Elastic Constant Matrix: (Units=GPa)
#
#
# Indices 1 2 3 4 5 6 
#
# 1 122.0049 48.9193 53.0613 0.0000 0.0000 0.0000
# 2 48.9193 119.8037 68.1992 0.0000 0.0000 0.0000
# 3 53.0613 68.1992 90.4145 0.0000 0.0000 0.0000
# 4 0.0000 0.0000 0.0000 26.7376 0.0000 0.0000
# 5 0.0000 0.0000 0.0000 0.0000 33.3188 0.0000
# 6 0.0000 0.0000 0.0000 0.0000 0.0000 36.2206
#
#
#
# Elastic Compliance Matrix: (Units=1/GPa)
#
#
# Indices 1 2 3 4 5 6 
#
# 1 0.011147 -0.001451 -0.005448 0.000000 0.000000 0.000000
# 2 -0.001451 0.014817 -0.010325 0.000000 0.000000 0.000000
# 3 -0.005448 -0.010325 0.022045 0.000000 0.000000 0.000000
# 4 0.000000 0.000000 0.000000 0.037401 0.000000 0.000000
# 5 0.000000 0.000000 0.000000 0.000000 0.030013 0.000000
# 6 0.000000 0.000000 0.000000 0.000000 0.000000 0.027609
#
#
# Mechanical properties :
#
#
# Convention : Reuss Voigt Hill
#
# Bulk Modulus (GPa) = 73.73100 74.73139 74.23120
# Shear Modulus (GPa) = 27.47258 30.05830 28.76544
#
# Velocity S-wave (km/s) = 3.60217 3.76788 3.68596
# Velocity P-wave (km/s) = 7.21976 7.36381 7.29214
#
# Compressibility (1/GPa) = 0.01356282
#
# Stress axis : x y z
#
# Youngs Moduli (GPa) = 89.70744 67.49057 45.36083
#
# Poissons Ratio (x) = 0.09790 0.24712
# Poissons Ratio (y) = 0.13012 0.46835
# Poissons Ratio (z) = 0.48871 0.69684
#
# Static dielectric constant tensor:
#      x y z
#    x 3.755140 0.000000 0.000000 
#    y 0.000000 4.140090 0.000000 
#    z 0.000000 0.000000 3.948880 
# 
# 
# High freq. dielectric constant tensor:
#      x y z
#    x 1.823400 0.000000 0.000000 
#    y 0.000000 1.835140 0.000000 
#    z 0.000000 0.000000 1.831330 
# 
# From -- ./inp_files/51467.got.cif
#   From: 2010.03.12/outbox.cif.g09.slc.cpg/sg68_26_cif.got.tgz:51467.got - 2010.04.10 23:14:56.
