data_PCOD8282450
_publ_section_title
;
Structure prediction by ZEFSAII (Michael W. Deem and Ramdas Pophale) SiO2 
 PCOD8282450
Probable space group: C C C A
;
_chemical_formula_sum "Si O2"
_cell_formula_units_Z 88
_cell_length_a 15.921814
_cell_length_b 27.619531
_cell_length_c 10.521850
_cell_angle_alpha 90.000000
_cell_angle_beta 90.000000
_cell_angle_gamma 90.000000
_cell_volume 4627.015475
_symmetry_space_group_name_H-M "C C C A"
_symmetry_group_IT_number 68
_space_group.IT_coordinate_system_code '2'
_symmetry_cell_setting 'orthorhombic'
loop_
_space_group_symop_operation_xyz
x,y,z
-x,1/2-y,z
x,1/2-y,1/2-z
-x,y,1/2-z
-x,-y,-z
x,1/2+y,-z
-x,1/2+y,1/2+z
x,-y,1/2+z
1/2+x,1/2+y,z
1/2-x,-y,z
1/2+x,-y,1/2-z
1/2-x,1/2+y,1/2-z
1/2-x,1/2-y,-z
1/2+x,y,-z
1/2-x,y,1/2+z
1/2+x,1/2-y,1/2+z
loop_
_atom_site_type_symbol
_atom_site_label
_atom_site_fract_x
_atom_site_fract_y
_atom_site_fract_z
Si Si1 0.431014 0.867154 0.992727
Si Si2 0.096841 0.698328 0.220060
Si Si3 0.899863 0.105621 0.863968
Si Si4 0.150186 0.555576 0.611776
Si Si5 0.660282 0.946252 0.630037
Si Si6 0.000000 0.393757 0.250000
O O1 0.395095 0.817385 0.929852
O O2 0.503191 0.886938 0.898660
O O3 0.360692 0.909231 0.985646
O O4 0.465870 0.859484 0.135558
O O5 0.142174 0.750000 0.250000
O O6 0.137644 0.656516 0.309237
O O7 0.000000 0.704782 0.250000
O O8 0.892986 0.064719 0.756338
O O9 0.848594 0.088387 0.986200
O O10 0.242493 0.559919 0.672053
O O11 0.135386 0.499225 0.578684
O O12 0.077285 0.572952 0.706628
#
# Coordination Sequence:
#
# PCOD8282450 Si02
#       6
#    16  16  16  16  16   8
#     4   9  19  34  53  78 107 137 177 226 265 319
#     4   8  14  30  58  80  97 130 178 222 259 314
#     4   9  19  34  50  78 104 130 184 222 257 324
#     4  10  23  32  50  76 108 149 180 218 266 315
#     4  10  21  33  52  74 103 147 191 217 251 320
#     4  10  22  34  50  79 116 142 167 224 284 306
#
# _framework density 19.018737999999999
#
# number of rings (size 3 to 8) (size 9 to 14) (size 15 to 20)
#    0.000    2.727    0.000    1.636    7.636    2.909 
#    0.000    0.000    0.000   24.000    0.000    0.000 
#    0.000    0.000    0.000    0.000    0.000    0.000 
#
# Total GULP energy -545149.959965 kJ/mol
# GULP energy per Si atom -12389.771817 kJ/mol
# Density = 1.897545 g / cm^3
# Si number density = 19.018738 Si / 1000 Ang^3
#
#
#
# Elastic Constant Matrix: (Units=GPa)
#
#
# Indices 1 2 3 4 5 6 
#
# 1 48.6205 26.2240 30.9951 0.0000 0.0000 0.0000
# 2 26.2240 140.1931 63.2275 0.0000 0.0000 0.0000
# 3 30.9951 63.2275 124.6109 0.0000 0.0000 0.0000
# 4 0.0000 0.0000 0.0000 19.2964 0.0000 0.0000
# 5 0.0000 0.0000 0.0000 0.0000 18.3439 0.0000
# 6 0.0000 0.0000 0.0000 0.0000 0.0000 4.5708
#
#
#
# Elastic Compliance Matrix: (Units=1/GPa)
#
#
# Indices 1 2 3 4 5 6 
#
# 1 0.025068 -0.002434 -0.005000 0.000000 0.000000 0.000000
# 2 -0.002434 0.009486 -0.004208 0.000000 0.000000 0.000000
# 3 -0.005000 -0.004208 0.011404 0.000000 0.000000 0.000000
# 4 0.000000 0.000000 0.000000 0.051823 0.000000 0.000000
# 5 0.000000 0.000000 0.000000 0.000000 0.054514 0.000000
# 6 0.000000 0.000000 0.000000 0.000000 0.000000 0.218780
#
#
# Mechanical properties :
#
#
# Convention : Reuss Voigt Hill
#
# Bulk Modulus (GPa) = 44.10418 61.59084 52.84751
# Shear Modulus (GPa) = 12.44039 21.30741 16.87390
#
# Velocity S-wave (km/s) = 2.56034 3.35078 2.98186
# Velocity P-wave (km/s) = 5.65514 6.88657 6.30101
#
# Compressibility (1/GPa) = 0.02267359
#
# Stress axis : x y z
#
# Youngs Moduli (GPa) = 39.89177 105.41813 87.69045
#
# Poissons Ratio (x) = 0.25658 0.43848
# Poissons Ratio (y) = 0.09709 0.36898
# Poissons Ratio (z) = 0.19947 0.44358
#
# Static dielectric constant tensor:
#      x y z
#    x 3.323530 0.000000 0.000000 
#    y 0.000000 3.768410 0.000000 
#    z 0.000000 0.000000 3.500470 
# 
# 
# High freq. dielectric constant tensor:
#      x y z
#    x 1.718750 0.000000 0.000000 
#    y 0.000000 1.721880 0.000000 
#    z 0.000000 0.000000 1.733730 
# 
# From -- ./inp_files/13454.got.cif
#   From: 2010.03.12/outbox.cif.g09.slc.cpg/sg68_7_cif.got.tgz:13454.got - 2010.04.10 23:14:56.
