data_PCOD8282297
_publ_section_title
;
Structure prediction by ZEFSAII (Michael W. Deem and Ramdas Pophale) SiO2 
 PCOD8282297
Probable space group: C C C A
;
_chemical_formula_sum "Si O2"
_cell_formula_units_Z 112
_cell_length_a 12.352909
_cell_length_b 15.636278
_cell_length_c 27.768921
_cell_angle_alpha 90.000000
_cell_angle_beta 90.000000
_cell_angle_gamma 90.000000
_cell_volume 5363.664816
_symmetry_space_group_name_H-M "C C C A"
_symmetry_group_IT_number 68
_space_group.IT_coordinate_system_code '2'
_symmetry_cell_setting 'orthorhombic'
loop_
_space_group_symop_operation_xyz
x,y,z
-x,1/2-y,z
x,1/2-y,1/2-z
-x,y,1/2-z
-x,-y,-z
x,1/2+y,-z
-x,1/2+y,1/2+z
x,-y,1/2+z
1/2+x,1/2+y,z
1/2-x,-y,z
1/2+x,-y,1/2-z
1/2-x,1/2+y,1/2-z
1/2-x,1/2-y,-z
1/2+x,y,-z
1/2-x,y,1/2+z
1/2+x,1/2-y,1/2+z
loop_
_atom_site_type_symbol
_atom_site_label
_atom_site_fract_x
_atom_site_fract_y
_atom_site_fract_z
Si Si1 0.993359 0.885489 0.694374
Si Si2 0.154150 0.933310 0.547803
Si Si3 0.180495 0.243625 0.194466
Si Si4 0.315073 0.417335 0.063831
Si Si5 0.606833 0.298757 0.135093
Si Si6 0.012585 0.969802 0.119830
Si Si7 0.752868 0.740152 0.056008
O O1 0.889449 0.827501 0.682151
O O2 0.000000 0.911638 0.750000
O O3 0.105637 0.837779 0.682350
O O4 0.979234 0.970820 0.663803
O O5 0.137756 0.922210 0.490649
O O6 0.173590 0.838023 0.571000
O O7 0.250000 0.000000 0.558184
O O8 0.050792 0.972053 0.574701
O O9 0.215354 0.250000 0.250000
O O10 0.288475 0.237549 0.162910
O O11 0.250000 0.500000 0.077954
O O12 0.414354 0.411009 0.100867
O O13 0.231705 0.337973 0.073480
O O14 0.500000 0.250000 0.153496
O O15 0.598170 0.401390 0.141240
O O16 0.628429 0.282275 0.077851
O O17 0.750000 0.750000 0.000000
#
# Coordination Sequence:
#
# PCOD8282297 Si02
#       7
#    16  16  16  16  16  16  16
#     4   9  21  43  70  95 121 162 215 271 317 373
#     4  10  20  38  62  89 122 165 216 261 310 371
#     4   9  21  45  70  92 124 164 214 265 315 386
#     4  10  23  40  58  86 129 170 211 260 310 373
#     4  12  24  40  64  95 133 171 207 261 332 387
#     4  12  23  38  64  95 127 159 206 267 321 381
#     4  10  21  40  60  82 124 174 212 255 306 376
#
# _framework density 20.881245
#
# number of rings (size 3 to 8) (size 9 to 14) (size 15 to 20)
#    0.000    1.714    2.857    2.143    2.000    0.286 
#    2.571    0.000    3.143    0.000    0.000    0.000 
#    0.000    0.000    0.000    0.000    0.000    0.000 
#
# Total GULP energy -693751.991171 kJ/mol
# GULP energy per Si atom -12388.428414 kJ/mol
# Density = 2.083372 g / cm^3
# Si number density = 20.881245 Si / 1000 Ang^3
#
#
#
# Elastic Constant Matrix: (Units=GPa)
#
#
# Indices 1 2 3 4 5 6 
#
# 1 108.3654 44.7724 53.5689 0.0000 0.0000 0.0000
# 2 44.7724 163.2602 48.9616 0.0000 0.0000 0.0000
# 3 53.5689 48.9616 93.8376 0.0000 0.0000 0.0000
# 4 0.0000 0.0000 0.0000 31.0253 0.0000 0.0000
# 5 0.0000 0.0000 0.0000 0.0000 30.0068 0.0000
# 6 0.0000 0.0000 0.0000 0.0000 0.0000 28.5675
#
#
#
# Elastic Compliance Matrix: (Units=1/GPa)
#
#
# Indices 1 2 3 4 5 6 
#
# 1 0.013205 -0.001613 -0.006697 0.000000 0.000000 0.000000
# 2 -0.001613 0.007458 -0.002971 0.000000 0.000000 0.000000
# 3 -0.006697 -0.002971 0.016030 0.000000 0.000000 0.000000
# 4 0.000000 0.000000 0.000000 0.032232 0.000000 0.000000
# 5 0.000000 0.000000 0.000000 0.000000 0.033326 0.000000
# 6 0.000000 0.000000 0.000000 0.000000 0.000000 0.035005
#
#
# Mechanical properties :
#
#
# Convention : Reuss Voigt Hill
#
# Bulk Modulus (GPa) = 70.76049 73.34098 72.05073
# Shear Modulus (GPa) = 30.39017 32.46394 31.42705
#
# Velocity S-wave (km/s) = 3.81908 3.94724 3.88369
# Velocity P-wave (km/s) = 7.30807 7.48154 7.39531
#
# Compressibility (1/GPa) = 0.01413218
#
# Stress axis : x y z
#
# Youngs Moduli (GPa) = 75.72977 134.07563 62.38428
#
# Poissons Ratio (x) = 0.21626 0.41776
# Poissons Ratio (y) = 0.12215 0.18533
# Poissons Ratio (z) = 0.50713 0.39831
#
# Static dielectric constant tensor:
#      x y z
#    x 3.708990 0.000000 0.000000 
#    y 0.000000 4.437610 0.000000 
#    z 0.000000 0.000000 3.926310 
# 
# 
# High freq. dielectric constant tensor:
#      x y z
#    x 1.793520 0.000000 0.000000 
#    y 0.000000 1.839330 0.000000 
#    z 0.000000 0.000000 1.812150 
# 
# From -- ./inp_files/54815.got.cif
#   From: 2010.03.12/outbox.cif.g09.slc.cpg/sg68_28_cif.got.tgz:54815.got - 2010.04.10 23:14:56.
