data_PCOD8282007
_publ_section_title
;
Structure prediction by ZEFSAII (Michael W. Deem and Ramdas Pophale) SiO2 
 PCOD8282007
Probable space group: C C C A
;
_chemical_formula_sum "Si O2"
_cell_formula_units_Z 104
_cell_length_a 18.354458
_cell_length_b 13.168677
_cell_length_c 24.759830
_cell_angle_alpha 90.000000
_cell_angle_beta 90.000000
_cell_angle_gamma 90.000000
_cell_volume 5984.548190
_symmetry_space_group_name_H-M "C C C A"
_symmetry_group_IT_number 68
_space_group.IT_coordinate_system_code '2'
_symmetry_cell_setting 'orthorhombic'
loop_
_space_group_symop_operation_xyz
x,y,z
-x,1/2-y,z
x,1/2-y,1/2-z
-x,y,1/2-z
-x,-y,-z
x,1/2+y,-z
-x,1/2+y,1/2+z
x,-y,1/2+z
1/2+x,1/2+y,z
1/2-x,-y,z
1/2+x,-y,1/2-z
1/2-x,1/2+y,1/2-z
1/2-x,1/2-y,-z
1/2+x,y,-z
1/2-x,y,1/2+z
1/2+x,1/2-y,1/2+z
loop_
_atom_site_type_symbol
_atom_site_label
_atom_site_fract_x
_atom_site_fract_y
_atom_site_fract_z
Si Si1 0.079079 0.128360 0.308896
Si Si2 0.194997 0.907607 0.595639
Si Si3 0.254347 0.207525 0.441049
Si Si4 0.000000 0.750000 0.530007
Si Si5 0.611667 0.405211 0.922261
Si Si6 0.386870 0.105081 0.482147
Si Si7 0.089491 0.866370 0.690540
O O1 0.115423 0.068184 0.358551
O O2 0.096878 0.246529 0.315261
O O3 0.112231 0.094940 0.250859
O O4 0.994203 0.103036 0.315122
O O5 0.239427 0.800540 0.600544
O O6 0.152325 0.913378 0.539291
O O7 0.138445 0.919479 0.644990
O O8 0.250000 0.000000 0.599781
O O9 0.250000 0.250000 0.500000
O O10 0.193713 0.120900 0.438009
O O11 0.334001 0.155977 0.436625
O O12 0.943532 0.810643 0.568205
O O13 0.956849 0.675213 0.490475
O O14 0.584729 0.499170 0.958053
#
# Coordination Sequence:
#
# PCOD8282007 Si02
#       7
#    16  16  16   8  16  16  16
#     4   9  17  31  57  79 109 136 173 233 281 318
#     4  11  20  33  56  78 108 150 185 220 269 332
#     4  10  19  37  51  70 111 144 178 218 265 326
#     4  12  22  34  54  81 118 139 182 236 264 334
#     4  12  20  35  56  81 108 146 182 222 273 329
#     4  11  23  36  53  80 112 151 181 216 281 326
#     4   9  17  33  53  82 108 138 175 228 285 314
#
# _framework density 17.378087000000001
#
# number of rings (size 3 to 8) (size 9 to 14) (size 15 to 20)
#    0.000    1.538    4.615    5.538    0.000    0.000 
#    0.000    1.538    0.000    0.000    0.000    0.000 
#    0.000    0.000    0.000    0.000    0.000    0.000 
#
# Total GULP energy -644508.582378 kJ/mol
# GULP energy per Si atom -12394.395815 kJ/mol
# Density = 1.733853 g / cm^3
# Si number density = 17.378087 Si / 1000 Ang^3
#
#
#
# Elastic Constant Matrix: (Units=GPa)
#
#
# Indices 1 2 3 4 5 6 
#
# 1 72.0760 26.2145 45.3820 0.0000 0.0000 0.0000
# 2 26.2145 73.1061 41.2791 0.0000 0.0000 0.0000
# 3 45.3820 41.2791 128.9786 0.0000 0.0000 0.0000
# 4 0.0000 0.0000 0.0000 14.8945 0.0000 0.0000
# 5 0.0000 0.0000 0.0000 0.0000 16.8385 0.0000
# 6 0.0000 0.0000 0.0000 0.0000 0.0000 33.2418
#
#
#
# Elastic Compliance Matrix: (Units=1/GPa)
#
#
# Indices 1 2 3 4 5 6 
#
# 1 0.018578 -0.003626 -0.005376 0.000000 0.000000 0.000000
# 2 -0.003626 0.017404 -0.004294 0.000000 0.000000 0.000000
# 3 -0.005376 -0.004294 0.011019 0.000000 0.000000 0.000000
# 4 0.000000 0.000000 0.000000 0.067139 0.000000 0.000000
# 5 0.000000 0.000000 0.000000 0.000000 0.059388 0.000000
# 6 0.000000 0.000000 0.000000 0.000000 0.000000 0.030083
#
#
# Mechanical properties :
#
#
# Convention : Reuss Voigt Hill
#
# Bulk Modulus (GPa) = 49.00032 55.54579 52.27305
# Shear Modulus (GPa) = 21.09650 23.74729 22.42189
#
# Velocity S-wave (km/s) = 3.48799 3.70064 3.59589
# Velocity P-wave (km/s) = 6.66928 7.09170 6.88373
#
# Compressibility (1/GPa) = 0.02040803
#
# Stress axis : x y z
#
# Youngs Moduli (GPa) = 53.82636 57.45926 90.75028
#
# Poissons Ratio (x) = 0.20835 0.48791
# Poissons Ratio (y) = 0.19518 0.38969
# Poissons Ratio (z) = 0.28939 0.24674
#
# Static dielectric constant tensor:
#      x y z
#    x 3.445730 0.000000 0.000000 
#    y 0.000000 3.333020 0.000000 
#    z 0.000000 0.000000 3.495240 
# 
# 
# High freq. dielectric constant tensor:
#      x y z
#    x 1.666980 0.000000 0.000000 
#    y 0.000000 1.648710 0.000000 
#    z 0.000000 0.000000 1.664070 
# 
# From -- ./inp_files/51433.got.cif
#   From: 2010.03.12/outbox.cif.g09.slc.cpg/sg68_26_cif.got.tgz:51433.got - 2010.04.10 23:14:56.
