data_PCOD8282604
_publ_section_title
;
Structure prediction by ZEFSAII (Michael W. Deem and Ramdas Pophale) SiO2 
 PCOD8282604
Probable space group: C C C A
;
_chemical_formula_sum "Si O2"
_cell_formula_units_Z 112
_cell_length_a 11.744981
_cell_length_b 32.859232
_cell_length_c 13.380653
_cell_angle_alpha 90.000000
_cell_angle_beta 90.000000
_cell_angle_gamma 90.000000
_cell_volume 5164.009536
_symmetry_space_group_name_H-M "C C C A"
_symmetry_group_IT_number 68
_space_group.IT_coordinate_system_code '2'
_symmetry_cell_setting 'orthorhombic'
loop_
_space_group_symop_operation_xyz
x,y,z
-x,1/2-y,z
x,1/2-y,1/2-z
-x,y,1/2-z
-x,-y,-z
x,1/2+y,-z
-x,1/2+y,1/2+z
x,-y,1/2+z
1/2+x,1/2+y,z
1/2-x,-y,z
1/2+x,-y,1/2-z
1/2-x,1/2+y,1/2-z
1/2-x,1/2-y,-z
1/2+x,y,-z
1/2-x,y,1/2+z
1/2+x,1/2-y,1/2+z
loop_
_atom_site_type_symbol
_atom_site_label
_atom_site_fract_x
_atom_site_fract_y
_atom_site_fract_z
Si Si1 0.875980 0.497646 0.052868
Si Si2 0.928717 0.911028 0.944027
Si Si3 0.250804 0.361112 0.336230
Si Si4 0.947234 0.077268 0.856649
Si Si5 0.410498 0.640358 0.167133
Si Si6 0.686168 0.731402 0.647475
Si Si7 0.397865 0.776591 0.437109
O O1 0.750000 0.500000 0.995955
O O2 0.879683 0.452953 0.103490
O O3 0.873508 0.536243 0.126475
O O4 0.000000 0.500000 0.000000
O O5 0.838454 0.875049 0.922298
O O6 0.047831 0.900367 0.889503
O O7 0.952083 0.916251 0.062173
O O8 0.369797 0.382662 0.357066
O O9 0.205930 0.371613 0.224218
O O10 0.261548 0.312934 0.338012
O O11 0.000000 0.071467 0.750000
O O12 0.500000 0.655492 0.250000
O O13 0.403295 0.675552 0.084725
O O14 0.631930 0.750000 0.750000
O O15 0.596464 0.729361 0.557164
O O16 0.783869 0.762166 0.615133
O O17 0.500000 0.750000 0.390723
#
# Coordination Sequence:
#
# PCOD8282604 Si02
#       7
#    16  16  16  16  16  16  16
#     4  10  21  45  72 101 142 184 232 290 357 431
#     4  10  22  42  68  97 132 177 230 275 351 423
#     4  11  22  42  67  91 134 169 226 292 347 417
#     4  11  25  42  63 102 137 180 224 285 355 428
#     4  10  21  38  67  99 122 173 232 285 339 416
#     4  11  24  42  61  94 129 171 220 290 347 420
#     4  11  23  40  65  92 125 174 227 278 354 412
#
# _framework density 21.688572000000001
#
# number of rings (size 3 to 8) (size 9 to 14) (size 15 to 20)
#    0.000    1.429    2.857    2.571    0.000    4.286 
#    7.714    0.714    0.000    0.000    0.000    0.000 
#    0.000    0.000    0.000    0.000    0.000    0.000 
#
# Total GULP energy -693782.932301 kJ/mol
# GULP energy per Si atom -12388.980934 kJ/mol
# Density = 2.163921 g / cm^3
# Si number density = 21.688572 Si / 1000 Ang^3
#
#
#
# Elastic Constant Matrix: (Units=GPa)
#
#
# Indices 1 2 3 4 5 6 
#
# 1 95.9497 29.9456 31.6992 0.0000 0.0000 0.0000
# 2 29.9456 136.2740 37.1520 0.0000 0.0000 0.0000
# 3 31.6992 37.1520 111.2916 0.0000 0.0000 0.0000
# 4 0.0000 0.0000 0.0000 22.0600 0.0000 0.0000
# 5 0.0000 0.0000 0.0000 0.0000 24.1028 0.0000
# 6 0.0000 0.0000 0.0000 0.0000 0.0000 25.8024
#
#
#
# Elastic Compliance Matrix: (Units=1/GPa)
#
#
# Indices 1 2 3 4 5 6 
#
# 1 0.011920 -0.001863 -0.002773 0.000000 0.000000 0.000000
# 2 -0.001863 0.008364 -0.002261 0.000000 0.000000 0.000000
# 3 -0.002773 -0.002261 0.010530 0.000000 0.000000 0.000000
# 4 0.000000 0.000000 0.000000 0.045331 0.000000 0.000000
# 5 0.000000 0.000000 0.000000 0.000000 0.041489 0.000000
# 6 0.000000 0.000000 0.000000 0.000000 0.000000 0.038756
#
#
# Mechanical properties :
#
#
# Convention : Reuss Voigt Hill
#
# Bulk Modulus (GPa) = 58.75974 60.12321 59.44147
# Shear Modulus (GPa) = 28.43195 30.70762 29.56979
#
# Velocity S-wave (km/s) = 3.62459 3.76685 3.69640
# Velocity P-wave (km/s) = 6.68342 6.83376 6.75901
#
# Compressibility (1/GPa) = 0.01701846
#
# Stress axis : x y z
#
# Youngs Moduli (GPa) = 83.89393 119.55801 94.96503
#
# Poissons Ratio (x) = 0.22277 0.26335
# Poissons Ratio (y) = 0.15632 0.21476
# Poissons Ratio (z) = 0.23265 0.27037
#
# Static dielectric constant tensor:
#      x y z
#    x 4.077530 0.000000 0.000000 
#    y 0.000000 4.279840 0.000000 
#    z 0.000000 0.000000 3.933940 
# 
# 
# High freq. dielectric constant tensor:
#      x y z
#    x 1.851120 0.000000 0.000000 
#    y 0.000000 1.869480 0.000000 
#    z 0.000000 0.000000 1.831720 
# 
# From -- ./inp_files/21253.got.cif
#   From: 2010.03.12/outbox.cif.g09.slc.cpg/sg68_11_cif.got.tgz:21253.got - 2010.04.10 23:14:56.
