data_PCOD8282010
_publ_section_title
;
Structure prediction by ZEFSAII (Michael W. Deem and Ramdas Pophale) SiO2 
 PCOD8282010
Probable space group: C C C A
;
_chemical_formula_sum "Si O2"
_cell_formula_units_Z 116
_cell_length_a 21.942039
_cell_length_b 17.200144
_cell_length_c 15.527838
_cell_angle_alpha 90.000000
_cell_angle_beta 90.000000
_cell_angle_gamma 90.000000
_cell_volume 5860.302807
_symmetry_space_group_name_H-M "C C C A"
_symmetry_group_IT_number 68
_space_group.IT_coordinate_system_code '2'
_symmetry_cell_setting 'orthorhombic'
loop_
_space_group_symop_operation_xyz
x,y,z
-x,1/2-y,z
x,1/2-y,1/2-z
-x,y,1/2-z
-x,-y,-z
x,1/2+y,-z
-x,1/2+y,1/2+z
x,-y,1/2+z
1/2+x,1/2+y,z
1/2-x,-y,z
1/2+x,-y,1/2-z
1/2-x,1/2+y,1/2-z
1/2-x,1/2-y,-z
1/2+x,y,-z
1/2-x,y,1/2+z
1/2+x,1/2-y,1/2+z
loop_
_atom_site_type_symbol
_atom_site_label
_atom_site_fract_x
_atom_site_fract_y
_atom_site_fract_z
Si Si1 0.382120 0.033548 0.378035
Si Si2 0.418820 0.299290 0.599101
Si Si3 0.608189 0.128634 0.950112
Si Si4 0.301057 0.887666 0.409137
Si Si5 0.500000 0.250000 0.750000
Si Si6 0.743608 0.908419 0.415889
Si Si7 0.715125 0.419958 0.261833
Si Si8 0.989827 0.441956 0.423550
O O1 0.391548 0.098738 0.451363
O O2 0.356059 0.070374 0.289286
O O3 0.329193 0.974654 0.411182
O O4 0.445195 0.987445 0.356321
O O5 0.415985 0.217283 0.550361
O O6 0.350206 0.324140 0.618118
O O7 0.455938 0.300838 0.689295
O O8 0.453428 0.365011 0.542105
O O9 0.673096 0.116879 0.905342
O O10 0.557733 0.081856 0.891938
O O11 0.273721 0.866286 0.502347
O O12 0.247792 0.875539 0.339764
O O13 0.779480 0.877232 0.330668
O O14 0.750000 0.000000 0.430079
O O15 0.750000 0.500000 0.244673
O O16 0.000000 0.500000 0.500000
#
# Coordination Sequence:
#
# PCOD8282010 Si02
#       8
#    16  16  16  16   4  16  16  16
#     4   9  17  35  59  82 118 155 206 261 306 365
#     4  11  24  37  59  86 127 160 198 256 329 393
#     4  11  19  35  59  85 119 161 199 250 318 385
#     4  10  19  37  56  82 119 163 204 260 307 383
#     4  12  24  44  56  92 140 158 198 272 338 392
#     4  11  20  34  58  86 122 162 214 260 314 372
#     4   9  18  32  54  83 115 160 207 259 310 359
#     4   9  19  36  61  87 112 156 206 257 314 381
#
# _framework density 19.794198999999999
#
# number of rings (size 3 to 8) (size 9 to 14) (size 15 to 20)
#    0.000    1.931    4.138    0.414    1.931    0.552 
#    0.000    0.000    0.000    0.000    0.000    0.000 
#    8.276    0.000    0.000    0.000    0.000    0.000 
#
# Total GULP energy -718537.945687 kJ/mol
# GULP energy per Si atom -12388.585270 kJ/mol
# Density = 1.974915 g / cm^3
# Si number density = 19.794199 Si / 1000 Ang^3
#
#
#
# Elastic Constant Matrix: (Units=GPa)
#
#
# Indices 1 2 3 4 5 6 
#
# 1 143.1966 35.4528 52.5895 0.0000 0.0000 0.0000
# 2 35.4528 85.6467 26.0060 0.0000 0.0000 0.0000
# 3 52.5895 26.0060 116.9244 0.0000 0.0000 0.0000
# 4 0.0000 0.0000 0.0000 5.7561 0.0000 0.0000
# 5 0.0000 0.0000 0.0000 0.0000 31.1246 0.0000
# 6 0.0000 0.0000 0.0000 0.0000 0.0000 29.9960
#
#
#
# Elastic Compliance Matrix: (Units=1/GPa)
#
#
# Indices 1 2 3 4 5 6 
#
# 1 0.008891 -0.002645 -0.003411 0.000000 0.000000 0.000000
# 2 -0.002645 0.013308 -0.001770 0.000000 0.000000 0.000000
# 3 -0.003411 -0.001770 0.010480 0.000000 0.000000 0.000000
# 4 0.000000 0.000000 0.000000 0.173728 0.000000 0.000000
# 5 0.000000 0.000000 0.000000 0.000000 0.032129 0.000000
# 6 0.000000 0.000000 0.000000 0.000000 0.000000 0.033338
#
#
# Mechanical properties :
#
#
# Convention : Reuss Voigt Hill
#
# Bulk Modulus (GPa) = 58.72752 63.76270 61.24511
# Shear Modulus (GPa) = 17.05312 28.82330 22.93821
#
# Velocity S-wave (km/s) = 2.93835 3.82009 3.40786
# Velocity P-wave (km/s) = 6.42225 7.19307 6.81856
#
# Compressibility (1/GPa) = 0.01702779
#
# Stress axis : x y z
#
# Youngs Moduli (GPa) = 112.47673 75.14163 95.41697
#
# Poissons Ratio (x) = 0.19872 0.32543
# Poissons Ratio (y) = 0.29746 0.16893
# Poissons Ratio (z) = 0.38361 0.13304
#
# Static dielectric constant tensor:
#      x y z
#    x 4.218930 0.000000 0.000000 
#    y 0.000000 3.535460 0.000000 
#    z 0.000000 0.000000 3.509620 
# 
# 
# High freq. dielectric constant tensor:
#      x y z
#    x 1.788390 0.000000 0.000000 
#    y 0.000000 1.747430 0.000000 
#    z 0.000000 0.000000 1.740970 
# 
# From -- ./inp_files/25614.got.cif
#   From: 2010.03.12/outbox.cif.g09.slc.cpg/sg68_13_cif.got.tgz:25614.got - 2010.04.10 23:14:56.
