data_PCOD8282617
_publ_section_title
;
Structure prediction by ZEFSAII (Michael W. Deem and Ramdas Pophale) SiO2 
 PCOD8282617
Probable space group: C C C A
;
_chemical_formula_sum "Si O2"
_cell_formula_units_Z 64
_cell_length_a 5.331614
_cell_length_b 19.016825
_cell_length_c 28.019047
_cell_angle_alpha 90.000000
_cell_angle_beta 90.000000
_cell_angle_gamma 90.000000
_cell_volume 2840.861554
_symmetry_space_group_name_H-M "C C C A"
_symmetry_group_IT_number 68
_space_group.IT_coordinate_system_code '2'
_symmetry_cell_setting 'orthorhombic'
loop_
_space_group_symop_operation_xyz
x,y,z
-x,1/2-y,z
x,1/2-y,1/2-z
-x,y,1/2-z
-x,-y,-z
x,1/2+y,-z
-x,1/2+y,1/2+z
x,-y,1/2+z
1/2+x,1/2+y,z
1/2-x,-y,z
1/2+x,-y,1/2-z
1/2-x,1/2+y,1/2-z
1/2-x,1/2-y,-z
1/2+x,y,-z
1/2-x,y,1/2+z
1/2+x,1/2-y,1/2+z
loop_
_atom_site_type_symbol
_atom_site_label
_atom_site_fract_x
_atom_site_fract_y
_atom_site_fract_z
Si Si1 0.244235 0.221180 0.196063
Si Si2 0.007638 0.169667 0.970052
Si Si3 0.879722 0.071811 0.798282
Si Si4 0.990486 0.042997 0.600261
O O1 0.500000 0.250000 0.171523
O O2 0.240058 0.250000 0.250000
O O3 0.202483 0.137488 0.189289
O O4 0.000000 0.250000 0.168291
O O5 0.987285 0.117353 0.925645
O O6 0.000000 0.250000 0.951374
O O7 0.770026 0.154565 0.003766
O O8 0.058990 0.057416 0.843510
O O9 0.000000 0.100839 0.750000
O O10 0.750000 0.000000 0.783289
O O11 0.250000 0.000000 0.593424
O O12 0.750000 0.000000 0.580447
#
# Coordination Sequence:
#
# PCOD8282617 Si02
#       4
#    16  16  16  16
#     4  10  21  39  59  85 115 155 215 271 305 375
#     4  10  22  43  71  99 132 169 210 264 334 393
#     4  11  24  41  64  92 132 180 217 270 321 376
#     4  11  25  43  64 100 133 170 222 265 322 388
#
# _framework density 22.528376000000002
#
# number of rings (size 3 to 8) (size 9 to 14) (size 15 to 20)
#    0.000    1.500    2.500    2.250    3.500    8.000 
#    0.000    3.750    0.000    0.000    0.000    0.000 
#    0.000    0.000    0.000    0.000    0.000    0.000 
#
# Total GULP energy -396479.865009 kJ/mol
# GULP energy per Si atom -12389.995782 kJ/mol
# Density = 2.247710 g / cm^3
# Si number density = 22.528376 Si / 1000 Ang^3
#
#
#
# Elastic Constant Matrix: (Units=GPa)
#
#
# Indices 1 2 3 4 5 6 
#
# 1 174.3499 65.6044 21.7434 0.0000 0.0000 0.0000
# 2 65.6044 182.0034 40.3118 0.0000 0.0000 0.0000
# 3 21.7434 40.3118 87.1367 0.0000 0.0000 0.0000
# 4 0.0000 0.0000 0.0000 150.3734 0.0000 0.0000
# 5 0.0000 0.0000 0.0000 0.0000 9.4724 0.0000
# 6 0.0000 0.0000 0.0000 0.0000 0.0000 34.4885
#
#
#
# Elastic Compliance Matrix: (Units=1/GPa)
#
#
# Indices 1 2 3 4 5 6 
#
# 1 0.006665 -0.002266 -0.000615 0.000000 0.000000 0.000000
# 2 -0.002266 0.006892 -0.002623 0.000000 0.000000 0.000000
# 3 -0.000615 -0.002623 0.012843 0.000000 0.000000 0.000000
# 4 0.000000 0.000000 0.000000 0.006650 0.000000 0.000000
# 5 0.000000 0.000000 0.000000 0.000000 0.105570 0.000000
# 6 0.000000 0.000000 0.000000 0.000000 0.000000 0.028995
#
#
# Mechanical properties :
#
#
# Convention : Reuss Voigt Hill
#
# Bulk Modulus (GPa) = 64.96740 77.64546 71.30643
# Shear Modulus (GPa) = 27.21017 59.92222 43.56620
#
# Velocity S-wave (km/s) = 3.47914 5.16297 4.40231
# Velocity P-wave (km/s) = 6.71117 8.37151 7.58690
#
# Compressibility (1/GPa) = 0.01539233
#
# Stress axis : x y z
#
# Youngs Moduli (GPa) = 150.03719 145.08978 77.86290
#
# Poissons Ratio (x) = 0.32882 0.04786
# Poissons Ratio (y) = 0.34003 0.20424
# Poissons Ratio (z) = 0.09223 0.38058
#
# Static dielectric constant tensor:
#      x y z
#    x 5.096600 0.000000 0.000000 
#    y 0.000000 4.305980 0.000000 
#    z 0.000000 0.000000 3.682650 
# 
# 
# High freq. dielectric constant tensor:
#      x y z
#    x 1.890650 0.000000 0.000000 
#    y 0.000000 1.916340 0.000000 
#    z 0.000000 0.000000 1.854180 
# 
# From -- ./inp_files/52916.got.cif
#   From: 2010.03.12/outbox.cif.g09.slc.cpg/sg68_27_cif.got.tgz:52916.got - 2010.04.10 23:14:56.
