data_PCOD8282052
_publ_section_title
;
Structure prediction by ZEFSAII (Michael W. Deem and Ramdas Pophale) SiO2 
 PCOD8282052
Probable space group: C C C A
;
_chemical_formula_sum "Si O2"
_cell_formula_units_Z 56
_cell_length_a 14.887876
_cell_length_b 13.475763
_cell_length_c 14.299366
_cell_angle_alpha 90.000000
_cell_angle_beta 90.000000
_cell_angle_gamma 90.000000
_cell_volume 2868.817290
_symmetry_space_group_name_H-M "C C C A"
_symmetry_group_IT_number 68
_space_group.IT_coordinate_system_code '2'
_symmetry_cell_setting 'orthorhombic'
loop_
_space_group_symop_operation_xyz
x,y,z
-x,1/2-y,z
x,1/2-y,1/2-z
-x,y,1/2-z
-x,-y,-z
x,1/2+y,-z
-x,1/2+y,1/2+z
x,-y,1/2+z
1/2+x,1/2+y,z
1/2-x,-y,z
1/2+x,-y,1/2-z
1/2-x,1/2+y,1/2-z
1/2-x,1/2-y,-z
1/2+x,y,-z
1/2-x,y,1/2+z
1/2+x,1/2-y,1/2+z
loop_
_atom_site_type_symbol
_atom_site_label
_atom_site_fract_x
_atom_site_fract_y
_atom_site_fract_z
Si Si1 0.062525 0.072180 0.444019
Si Si2 0.000000 0.501112 0.250000
Si Si3 0.500000 0.250000 0.055014
Si Si4 0.250000 0.000000 0.897215
Si Si5 0.865076 0.848149 0.199022
O O1 0.164207 0.033058 0.457302
O O2 0.059206 0.181924 0.486294
O O3 0.027581 0.069069 0.336591
O O4 0.000000 0.000000 0.500000
O O5 0.916075 0.576149 0.230164
O O6 0.434444 0.318817 0.116607
O O7 0.276447 0.903408 0.836687
O O8 0.831039 0.750000 0.250000
#
# Coordination Sequence:
#
# PCOD8282052 Si02
#       5
#    16   8   8   8  16
#     4  11  22  43  64  96 132 169 213 274 321 385
#     4  10  19  39  66  86 128 174 211 259 330 376
#     4  12  21  39  74  88 126 180 216 256 332 392
#     4  10  24  40  64  98 132 160 222 270 322 378
#     4  11  19  41  68  94 123 176 223 256 320 400
#
# _framework density 19.520240000000001
#
# number of rings (size 3 to 8) (size 9 to 14) (size 15 to 20)
#    0.000    1.143    8.571    0.000    0.000    1.714 
#   10.286    7.143    0.000    0.000    0.000    0.000 
#    0.000    0.000    0.000    0.000    0.000    0.000 
#
# Total GULP energy -347021.416049 kJ/mol
# GULP energy per Si atom -12393.622002 kJ/mol
# Density = 1.947581 g / cm^3
# Si number density = 19.520240 Si / 1000 Ang^3
#
#
#
# Elastic Constant Matrix: (Units=GPa)
#
#
# Indices 1 2 3 4 5 6 
#
# 1 144.2524 53.6330 44.5626 0.0000 0.0000 0.0000
# 2 53.6330 110.3054 41.8706 0.0000 0.0000 0.0000
# 3 44.5626 41.8706 81.1673 0.0000 0.0000 0.0000
# 4 0.0000 0.0000 0.0000 40.1087 0.0000 0.0000
# 5 0.0000 0.0000 0.0000 0.0000 30.9496 0.0000
# 6 0.0000 0.0000 0.0000 0.0000 0.0000 37.4778
#
#
#
# Elastic Compliance Matrix: (Units=1/GPa)
#
#
# Indices 1 2 3 4 5 6 
#
# 1 0.009158 -0.003164 -0.003396 0.000000 0.000000 0.000000
# 2 -0.003164 0.012366 -0.004642 0.000000 0.000000 0.000000
# 3 -0.003396 -0.004642 0.016579 0.000000 0.000000 0.000000
# 4 0.000000 0.000000 0.000000 0.024932 0.000000 0.000000
# 5 0.000000 0.000000 0.000000 0.000000 0.032311 0.000000
# 6 0.000000 0.000000 0.000000 0.000000 0.000000 0.026682
#
#
# Mechanical properties :
#
#
# Convention : Reuss Voigt Hill
#
# Bulk Modulus (GPa) = 63.69515 68.42861 66.06188
# Shear Modulus (GPa) = 33.40804 34.75114 34.07959
#
# Velocity S-wave (km/s) = 4.14146 4.22389 4.18288
# Velocity P-wave (km/s) = 7.45454 7.67592 7.56604
#
# Compressibility (1/GPa) = 0.01569978
#
# Stress axis : x y z
#
# Youngs Moduli (GPa) = 109.19960 80.86630 60.31634
#
# Poissons Ratio (x) = 0.25583 0.20482
# Poissons Ratio (y) = 0.34547 0.28000
# Poissons Ratio (z) = 0.37081 0.37540
#
# Static dielectric constant tensor:
#      x y z
#    x 3.605380 0.000000 0.000000 
#    y 0.000000 3.981340 0.000000 
#    z 0.000000 0.000000 3.871620 
# 
# 
# High freq. dielectric constant tensor:
#      x y z
#    x 1.751980 0.000000 0.000000 
#    y 0.000000 1.773310 0.000000 
#    z 0.000000 0.000000 1.744800 
# 
# From -- ./inp_files/12543.got.cif
#   From: 2010.03.12/outbox.cif.g09.slc.cpg/sg68_7_cif.got.tgz:12543.got - 2010.04.10 23:14:56.
