data_PCOD8282492
_publ_section_title
;
Structure prediction by ZEFSAII (Michael W. Deem and Ramdas Pophale) SiO2 
 PCOD8282492
Probable space group: C C C A
;
_chemical_formula_sum "Si O2"
_cell_formula_units_Z 56
_cell_length_a 14.735483
_cell_length_b 4.854864
_cell_length_c 31.732102
_cell_angle_alpha 90.000000
_cell_angle_beta 90.000000
_cell_angle_gamma 90.000000
_cell_volume 2270.075418
_symmetry_space_group_name_H-M "C C C A"
_symmetry_group_IT_number 68
_space_group.IT_coordinate_system_code '2'
_symmetry_cell_setting 'orthorhombic'
loop_
_space_group_symop_operation_xyz
x,y,z
-x,1/2-y,z
x,1/2-y,1/2-z
-x,y,1/2-z
-x,-y,-z
x,1/2+y,-z
-x,1/2+y,1/2+z
x,-y,1/2+z
1/2+x,1/2+y,z
1/2-x,-y,z
1/2+x,-y,1/2-z
1/2-x,1/2+y,1/2-z
1/2-x,1/2-y,-z
1/2+x,y,-z
1/2-x,y,1/2+z
1/2+x,1/2-y,1/2+z
loop_
_atom_site_type_symbol
_atom_site_label
_atom_site_fract_x
_atom_site_fract_y
_atom_site_fract_z
Si Si1 0.605418 0.226597 0.472548
Si Si2 0.411406 0.104517 0.661817
Si Si3 0.250000 0.000000 0.222275
Si Si4 0.150994 0.579829 0.115844
O O1 0.500000 0.250000 0.460539
O O2 0.630939 0.422935 0.511877
O O3 0.661990 0.304218 0.431194
O O4 0.500000 0.250000 0.683417
O O5 0.330403 0.135241 0.694989
O O6 0.400519 0.289203 0.619102
O O7 0.407267 0.788391 0.645670
O O8 0.209653 0.750000 0.250000
O O9 0.250000 0.500000 0.133899
#
# Coordination Sequence:
#
# PCOD8282492 Si02
#       4
#    16  16   8  16
#     4  10  21  36  56  89 133 181 235 295 355 415
#     4  12  25  46  73 104 139 187 236 283 359 439
#     4  12  26  48  76 106 146 178 226 300 364 438
#     4  12  23  42  68  99 139 183 241 299 351 423
#
# _framework density 24.668783999999999
#
# number of rings (size 3 to 8) (size 9 to 14) (size 15 to 20)
#    0.000    0.571    2.857    6.000    0.000    4.000 
#    0.000    1.429    0.000    0.000    0.000    0.000 
#    0.000    0.000    0.000    0.000    0.000    0.000 
#
# Total GULP energy -346894.437322 kJ/mol
# GULP energy per Si atom -12389.087047 kJ/mol
# Density = 2.461264 g / cm^3
# Si number density = 24.668784 Si / 1000 Ang^3
#
#
#
# Elastic Constant Matrix: (Units=GPa)
#
#
# Indices 1 2 3 4 5 6 
#
# 1 136.9113 39.3790 32.0465 0.0000 0.0000 0.0000
# 2 39.3790 120.0961 22.0398 0.0000 0.0000 0.0000
# 3 32.0465 22.0398 91.1026 0.0000 0.0000 0.0000
# 4 0.0000 0.0000 0.0000 32.3969 0.0000 0.0000
# 5 0.0000 0.0000 0.0000 0.0000 11.4227 0.0000
# 6 0.0000 0.0000 0.0000 0.0000 0.0000 43.5896
#
#
#
# Elastic Compliance Matrix: (Units=1/GPa)
#
#
# Indices 1 2 3 4 5 6 
#
# 1 0.008553 -0.002357 -0.002438 0.000000 0.000000 0.000000
# 2 -0.002357 0.009363 -0.001436 0.000000 0.000000 0.000000
# 3 -0.002438 -0.001436 0.012182 0.000000 0.000000 0.000000
# 4 0.000000 0.000000 0.000000 0.030867 0.000000 0.000000
# 5 0.000000 0.000000 0.000000 0.000000 0.087545 0.000000
# 6 0.000000 0.000000 0.000000 0.000000 0.000000 0.022941
#
#
# Mechanical properties :
#
#
# Convention : Reuss Voigt Hill
#
# Bulk Modulus (GPa) = 56.70584 59.44897 58.07741
# Shear Modulus (GPa) = 26.34466 34.45815 30.40141
#
# Velocity S-wave (km/s) = 3.27147 3.74148 3.51434
# Velocity P-wave (km/s) = 6.10793 6.54340 6.32941
#
# Compressibility (1/GPa) = 0.01763487
#
# Stress axis : x y z
#
# Youngs Moduli (GPa) = 116.92307 106.80313 82.08998
#
# Poissons Ratio (x) = 0.25172 0.20016
# Poissons Ratio (y) = 0.27558 0.11789
# Poissons Ratio (z) = 0.28509 0.15338
#
# Static dielectric constant tensor:
#      x y z
#    x 4.554440 0.000000 0.000000 
#    y 0.000000 4.662090 0.000000 
#    z 0.000000 0.000000 4.085580 
# 
# 
# High freq. dielectric constant tensor:
#      x y z
#    x 1.975320 0.000000 0.000000 
#    y 0.000000 2.004020 0.000000 
#    z 0.000000 0.000000 1.959900 
# 
# From -- ./inp_files/55035.got.cif
#   From: 2010.03.12/outbox.cif.g09.slc.cpg/sg68_28_cif.got.tgz:55035.got - 2010.04.10 23:14:56.
