data_PCOD8282860
_publ_section_title
;
Structure prediction by ZEFSAII (Michael W. Deem and Ramdas Pophale) SiO2 
 PCOD8282860
Probable space group: C C C A
;
_chemical_formula_sum "Si O2"
_cell_formula_units_Z 104
_cell_length_a 9.426734
_cell_length_b 19.023603
_cell_length_c 28.351328
_cell_angle_alpha 90.000000
_cell_angle_beta 90.000000
_cell_angle_gamma 90.000000
_cell_volume 5084.256272
_symmetry_space_group_name_H-M "C C C A"
_symmetry_group_IT_number 68
_space_group.IT_coordinate_system_code '2'
_symmetry_cell_setting 'orthorhombic'
loop_
_space_group_symop_operation_xyz
x,y,z
-x,1/2-y,z
x,1/2-y,1/2-z
-x,y,1/2-z
-x,-y,-z
x,1/2+y,-z
-x,1/2+y,1/2+z
x,-y,1/2+z
1/2+x,1/2+y,z
1/2-x,-y,z
1/2+x,-y,1/2-z
1/2-x,1/2+y,1/2-z
1/2-x,1/2-y,-z
1/2+x,y,-z
1/2-x,y,1/2+z
1/2+x,1/2-y,1/2+z
loop_
_atom_site_type_symbol
_atom_site_label
_atom_site_fract_x
_atom_site_fract_y
_atom_site_fract_z
Si Si1 0.158754 0.098013 0.081652
Si Si2 0.841246 0.901987 0.581652
Si Si3 0.167373 0.327197 0.750000
Si Si4 0.661023 0.250000 0.546109
Si Si5 0.250000 0.000000 0.500000
Si Si6 0.168592 0.434214 0.828504
Si Si7 0.668592 0.934214 0.671496
O O1 0.196360 0.179846 0.074985
O O2 0.277494 0.071783 0.117877
O O3 0.000000 0.090560 0.102909
O O4 0.160177 0.052387 0.033452
O O5 0.803641 0.820154 0.574985
O O6 0.839823 0.947613 0.533452
O O7 0.722506 0.928217 0.617877
O O8 0.238698 0.250000 0.750000
O O9 0.214131 0.367134 0.797526
O O10 0.214131 0.367134 0.702474
O O11 0.000000 0.320252 0.750000
O O12 0.500000 0.250000 0.529412
O O13 0.750000 0.250000 0.500000
O O14 0.250000 0.500000 0.805067
O O15 0.000000 0.446476 0.828395
O O16 0.750000 0.000000 0.694933
#
# Coordination Sequence:
#
# PCOD8282860 Si02
#       7
#    16  16  16  16   8  16  16
#     4  11  24  40  61  91 127 164 209 256 309 368
#     4  11  24  40  61  91 127 164 209 256 309 368
#     4   9  21  42  65  93 126 163 208 256 307 370
#     4  10  22  40  58  83 122 165 205 256 307 367
#     4  12  22  38  68  88 130 162 210 256 306 364
#     4  11  23  40  66  93 124 163 206 257 311 369
#     4  11  23  40  66  93 124 163 206 257 311 369
#
# _framework density 20.455302
#
# number of rings (size 3 to 8) (size 9 to 14) (size 15 to 20)
#    0.000    1.385    3.077    1.846    2.154    2.462 
#    0.000    2.308    0.000    3.692    0.000    0.000 
#    0.000    0.000    0.000    0.000    0.000    0.000 
#
# Total GULP energy -644574.859550 kJ/mol
# GULP energy per Si atom -12395.670376 kJ/mol
# Density = 2.040874 g / cm^3
# Si number density = 20.455302 Si / 1000 Ang^3
#
#
#
# Elastic Constant Matrix: (Units=GPa)
#
#
# Indices 1 2 3 4 5 6 
#
# 1 95.5453 46.0628 36.9837 0.0000 0.0000 0.0000
# 2 46.0628 181.9774 56.2474 0.0000 0.0000 0.0000
# 3 36.9837 56.2474 110.2143 0.0000 0.0000 0.0000
# 4 0.0000 0.0000 0.0000 26.2022 0.0000 0.0000
# 5 0.0000 0.0000 0.0000 0.0000 15.7339 0.0000
# 6 0.0000 0.0000 0.0000 0.0000 0.0000 29.4841
#
#
#
# Elastic Compliance Matrix: (Units=1/GPa)
#
#
# Indices 1 2 3 4 5 6 
#
# 1 0.012769 -0.002265 -0.003129 0.000000 0.000000 0.000000
# 2 -0.002265 0.006926 -0.002775 0.000000 0.000000 0.000000
# 3 -0.003129 -0.002775 0.011539 0.000000 0.000000 0.000000
# 4 0.000000 0.000000 0.000000 0.038165 0.000000 0.000000
# 5 0.000000 0.000000 0.000000 0.000000 0.063557 0.000000
# 6 0.000000 0.000000 0.000000 0.000000 0.000000 0.033917
#
#
# Mechanical properties :
#
#
# Convention : Reuss Voigt Hill
#
# Bulk Modulus (GPa) = 67.12587 74.03607 70.58097
# Shear Modulus (GPa) = 26.57083 30.84692 28.70888
#
# Velocity S-wave (km/s) = 3.60803 3.88753 3.75039
# Velocity P-wave (km/s) = 7.08832 7.51154 7.30300
#
# Compressibility (1/GPa) = 0.01489739
#
# Stress axis : x y z
#
# Youngs Moduli (GPa) = 78.31216 144.38016 86.66098
#
# Poissons Ratio (x) = 0.32704 0.27116
# Poissons Ratio (y) = 0.17739 0.24045
# Poissons Ratio (z) = 0.24503 0.40060
#
# Static dielectric constant tensor:
#      x y z
#    x 3.512530 0.000000 0.000000 
#    y 0.000000 4.621940 0.000000 
#    z 0.000000 0.000000 3.456640 
# 
# 
# High freq. dielectric constant tensor:
#      x y z
#    x 1.785380 0.000000 0.000000 
#    y 0.000000 1.827160 0.000000 
#    z 0.000000 0.000000 1.792300 
# 
# From -- ./inp_files/49418.got.cif
#   From: 2010.03.12/outbox.cif.g09.slc.cpg/sg68_25_cif.got.tgz:49418.got - 2010.04.10 23:14:56.
