data_PCOD8282752
_publ_section_title
;
Structure prediction by ZEFSAII (Michael W. Deem and Ramdas Pophale) SiO2 
 PCOD8282752
Probable space group: C C C A
;
_chemical_formula_sum "Si O2"
_cell_formula_units_Z 72
_cell_length_a 8.666010
_cell_length_b 17.677949
_cell_length_c 23.379681
_cell_angle_alpha 90.000000
_cell_angle_beta 90.000000
_cell_angle_gamma 90.000000
_cell_volume 3581.703602
_symmetry_space_group_name_H-M "C C C A"
_symmetry_group_IT_number 68
_space_group.IT_coordinate_system_code '2'
_symmetry_cell_setting 'orthorhombic'
loop_
_space_group_symop_operation_xyz
x,y,z
-x,1/2-y,z
x,1/2-y,1/2-z
-x,y,1/2-z
-x,-y,-z
x,1/2+y,-z
-x,1/2+y,1/2+z
x,-y,1/2+z
1/2+x,1/2+y,z
1/2-x,-y,z
1/2+x,-y,1/2-z
1/2-x,1/2+y,1/2-z
1/2-x,1/2-y,-z
1/2+x,y,-z
1/2-x,y,1/2+z
1/2+x,1/2-y,1/2+z
loop_
_atom_site_type_symbol
_atom_site_label
_atom_site_fract_x
_atom_site_fract_y
_atom_site_fract_z
Si Si1 0.250065 0.749918 0.812400
Si Si2 0.000000 0.750000 0.404127
Si Si3 0.484597 0.372596 0.812096
Si Si4 0.032827 0.557761 0.929382
Si Si5 0.129084 0.102630 0.536401
O O1 0.332546 0.750000 0.750000
O O2 0.362299 0.775520 0.862803
O O3 0.110979 0.807930 0.812052
O O4 0.183084 0.665493 0.822714
O O5 0.052921 0.680880 0.443716
O O6 0.500000 0.414136 0.750000
O O7 0.509571 0.431236 0.863131
O O8 0.040492 0.467533 0.934778
O O9 0.190329 0.599420 0.949044
O O10 0.896164 0.593688 0.967964
#
# Coordination Sequence:
#
# PCOD8282752 Si02
#       5
#    16   8  16  16  16
#     4   9  19  34  56  86 121 152 187 242 294 341
#     4  12  21  36  56  94 111 152 194 246 290 352
#     4   9  18  37  63  82 110 159 198 234 285 352
#     4  10  21  44  57  85 118 157 193 243 290 361
#     4  10  24  37  63  81 122 154 189 242 307 334
#
# _framework density 20.102164999999999
#
# number of rings (size 3 to 8) (size 9 to 14) (size 15 to 20)
#    0.000    2.222    2.222    1.667    3.111    2.667 
#    0.000    2.222    0.000    0.000    0.000    0.000 
#    0.000    0.000    0.000    0.000    0.000    0.000 
#
# Total GULP energy -446209.687221 kJ/mol
# GULP energy per Si atom -12394.713534 kJ/mol
# Density = 2.005641 g / cm^3
# Si number density = 20.102165 Si / 1000 Ang^3
#
#
#
# Elastic Constant Matrix: (Units=GPa)
#
#
# Indices 1 2 3 4 5 6 
#
# 1 52.1998 12.2795 25.6548 0.0000 0.0000 0.0000
# 2 12.2795 93.3523 48.9232 0.0000 0.0000 0.0000
# 3 25.6548 48.9232 164.0864 0.0000 0.0000 0.0000
# 4 0.0000 0.0000 0.0000 27.5236 0.0000 0.0000
# 5 0.0000 0.0000 0.0000 0.0000 29.8326 0.0000
# 6 0.0000 0.0000 0.0000 0.0000 0.0000 18.1165
#
#
#
# Elastic Compliance Matrix: (Units=1/GPa)
#
#
# Indices 1 2 3 4 5 6 
#
# 1 0.020870 -0.001227 -0.002897 0.000000 0.000000 0.000000
# 2 -0.001227 0.012768 -0.003615 0.000000 0.000000 0.000000
# 3 -0.002897 -0.003615 0.007625 0.000000 0.000000 0.000000
# 4 0.000000 0.000000 0.000000 0.036332 0.000000 0.000000
# 5 0.000000 0.000000 0.000000 0.000000 0.033520 0.000000
# 6 0.000000 0.000000 0.000000 0.000000 0.000000 0.055198
#
#
# Mechanical properties :
#
#
# Convention : Reuss Voigt Hill
#
# Bulk Modulus (GPa) = 38.78267 53.70593 46.24430
# Shear Modulus (GPa) = 26.26232 29.94663 28.10448
#
# Velocity S-wave (km/s) = 3.61840 3.86388 3.74315
# Velocity P-wave (km/s) = 6.06562 6.83232 6.46035
#
# Compressibility (1/GPa) = 0.02578472
#
# Stress axis : x y z
#
# Youngs Moduli (GPa) = 47.91654 78.32074 131.14486
#
# Poissons Ratio (x) = 0.09609 0.37995
# Poissons Ratio (y) = 0.05879 0.47409
# Poissons Ratio (z) = 0.13882 0.28313
#
# Static dielectric constant tensor:
#      x y z
#    x 3.628650 0.000000 0.000000 
#    y 0.000000 3.689390 0.000000 
#    z 0.000000 0.000000 3.942630 
# 
# 
# High freq. dielectric constant tensor:
#      x y z
#    x 1.777540 0.000000 0.000000 
#    y 0.000000 1.759640 0.000000 
#    z 0.000000 0.000000 1.798780 
# 
# From -- ./inp_files/40083.got.cif
#   From: 2010.03.12/outbox.cif.g09.slc.cpg/sg68_21_cif.got.tgz:40083.got - 2010.04.10 23:14:56.
