data_PCOD8282016
_publ_section_title
;
Structure prediction by ZEFSAII (Michael W. Deem and Ramdas Pophale) SiO2 
 PCOD8282016
Probable space group: C C C A
;
_chemical_formula_sum "Si O2"
_cell_formula_units_Z 48
_cell_length_a 13.331799
_cell_length_b 13.875063
_cell_length_c 12.324506
_cell_angle_alpha 90.000000
_cell_angle_beta 90.000000
_cell_angle_gamma 90.000000
_cell_volume 2279.781587
_symmetry_space_group_name_H-M "C C C A"
_symmetry_group_IT_number 68
_space_group.IT_coordinate_system_code '2'
_symmetry_cell_setting 'orthorhombic'
loop_
_space_group_symop_operation_xyz
x,y,z
-x,1/2-y,z
x,1/2-y,1/2-z
-x,y,1/2-z
-x,-y,-z
x,1/2+y,-z
-x,1/2+y,1/2+z
x,-y,1/2+z
1/2+x,1/2+y,z
1/2-x,-y,z
1/2+x,-y,1/2-z
1/2-x,1/2+y,1/2-z
1/2-x,1/2-y,-z
1/2+x,y,-z
1/2-x,y,1/2+z
1/2+x,1/2-y,1/2+z
loop_
_atom_site_type_symbol
_atom_site_label
_atom_site_fract_x
_atom_site_fract_y
_atom_site_fract_z
Si Si1 0.023126 0.642015 0.010603
Si Si2 0.386959 0.651088 0.287221
Si Si3 0.359546 0.018591 0.897514
O O1 0.109417 0.638972 0.916902
O O2 0.000000 0.750000 0.050945
O O3 0.917792 0.596664 0.971448
O O4 0.072404 0.578759 0.107110
O O5 0.330145 0.750000 0.250000
O O6 0.500000 0.661307 0.250000
O O7 0.341060 0.558818 0.224831
O O8 0.250000 0.000000 0.948748
#
# Coordination Sequence:
#
# PCOD8282016 Si02
#       3
#    16  16  16
#     4  10  19  37  61  80 113 155 187 229 284 339
#     4   9  15  34  58  74 101 154 193 214 268 346
#     4  10  21  33  57  90 113 142 194 236 274 332
#
# _framework density 21.054649000000001
#
# number of rings (size 3 to 8) (size 9 to 14) (size 15 to 20)
#    0.000    2.333    6.667    0.000    0.000    2.667 
#    0.000    0.000    0.000    2.000    0.000    0.000 
#    0.000    0.000    0.000    0.000    0.000    0.000 
#
# Total GULP energy -297315.095293 kJ/mol
# GULP energy per Si atom -12388.128971 kJ/mol
# Density = 2.100673 g / cm^3
# Si number density = 21.054649 Si / 1000 Ang^3
#
#
#
# Elastic Constant Matrix: (Units=GPa)
#
#
# Indices 1 2 3 4 5 6 
#
# 1 85.6599 46.7080 5.7292 0.0000 0.0000 0.0000
# 2 46.7080 187.8175 40.1277 0.0000 0.0000 0.0000
# 3 5.7292 40.1277 49.6350 0.0000 0.0000 0.0000
# 4 0.0000 0.0000 0.0000 17.4349 0.0000 0.0000
# 5 0.0000 0.0000 0.0000 0.0000 4.1945 0.0000
# 6 0.0000 0.0000 0.0000 0.0000 0.0000 7.7525
#
#
#
# Elastic Compliance Matrix: (Units=1/GPa)
#
#
# Indices 1 2 3 4 5 6 
#
# 1 0.013586 -0.003679 0.001406 0.000000 0.000000 0.000000
# 2 -0.003679 0.007432 -0.005584 0.000000 0.000000 0.000000
# 3 0.001406 -0.005584 0.024499 0.000000 0.000000 0.000000
# 4 0.000000 0.000000 0.000000 0.057356 0.000000 0.000000
# 5 0.000000 0.000000 0.000000 0.000000 0.238407 0.000000
# 6 0.000000 0.000000 0.000000 0.000000 0.000000 0.128991
#
#
# Mechanical properties :
#
#
# Convention : Reuss Voigt Hill
#
# Bulk Modulus (GPa) = 33.55278 56.47133 45.01206
# Shear Modulus (GPa) = 10.08226 21.24621 15.66424
#
# Velocity S-wave (km/s) = 2.19066 3.18008 2.73056
# Velocity P-wave (km/s) = 4.72962 6.35322 5.60057
#
# Compressibility (1/GPa) = 0.02980379
#
# Stress axis : x y z
#
# Youngs Moduli (GPa) = 73.60426 134.54746 40.81768
#
# Poissons Ratio (x) = 0.49502 -0.05740
# Poissons Ratio (y) = 0.27080 0.22793
# Poissons Ratio (z) = -0.10351 0.75132
#
# Static dielectric constant tensor:
#      x y z
#    x 3.569490 0.000000 0.000000 
#    y 0.000000 4.673510 0.000000 
#    z 0.000000 0.000000 4.050040 
# 
# 
# High freq. dielectric constant tensor:
#      x y z
#    x 1.786250 0.000000 0.000000 
#    y 0.000000 1.841750 0.000000 
#    z 0.000000 0.000000 1.782670 
# 
# From -- ./inp_files/12352.got.cif
#   From: 2010.03.12/outbox.cif.g09.slc.cpg/sg68_7_cif.got.tgz:12352.got - 2010.04.10 23:14:56.
