data_PCOD8282152
_publ_section_title
;
Structure prediction by ZEFSAII (Michael W. Deem and Ramdas Pophale) SiO2 
 PCOD8282152
Probable space group: C C C A
;
_chemical_formula_sum "Si O2"
_cell_formula_units_Z 80
_cell_length_a 16.442035
_cell_length_b 10.398519
_cell_length_c 23.478793
_cell_angle_alpha 90.000000
_cell_angle_beta 90.000000
_cell_angle_gamma 90.000000
_cell_volume 4014.235293
_symmetry_space_group_name_H-M "C C C A"
_symmetry_group_IT_number 68
_space_group.IT_coordinate_system_code '2'
_symmetry_cell_setting 'orthorhombic'
loop_
_space_group_symop_operation_xyz
x,y,z
-x,1/2-y,z
x,1/2-y,1/2-z
-x,y,1/2-z
-x,-y,-z
x,1/2+y,-z
-x,1/2+y,1/2+z
x,-y,1/2+z
1/2+x,1/2+y,z
1/2-x,-y,z
1/2+x,-y,1/2-z
1/2-x,1/2+y,1/2-z
1/2-x,1/2-y,-z
1/2+x,y,-z
1/2-x,y,1/2+z
1/2+x,1/2-y,1/2+z
loop_
_atom_site_type_symbol
_atom_site_label
_atom_site_fract_x
_atom_site_fract_y
_atom_site_fract_z
Si Si1 0.847776 0.228052 0.566799
Si Si2 0.599558 0.534540 0.626141
Si Si3 0.183625 0.894596 0.240298
Si Si4 0.555975 0.377380 0.334153
Si Si5 0.194241 0.623863 0.952044
O O1 0.900013 0.359261 0.574991
O O2 0.874552 0.132724 0.617453
O O3 0.862855 0.162328 0.505508
O O4 0.751008 0.258125 0.568247
O O5 0.660626 0.588719 0.674392
O O6 0.507984 0.510740 0.648659
O O7 0.634259 0.402471 0.601039
O O8 0.218053 0.750000 0.250000
O O9 0.100322 0.913604 0.275720
O O10 0.250000 0.000000 0.259016
O O11 0.500000 0.250000 0.326951
O O12 0.250000 0.500000 0.966979
#
# Coordination Sequence:
#
# PCOD8282152 Si02
#       5
#    16  16  16  16  16
#     4   9  17  31  52  80 113 152 201 246 295 360
#     4  10  20  35  58  85 118 156 205 258 304 360
#     4  12  23  38  64  99 122 161 207 261 309 373
#     4  10  20  35  61  89 117 155 210 252 294 374
#     4   9  18  32  51  81 116 157 190 250 311 351
#
# _framework density 19.929075999999998
#
# number of rings (size 3 to 8) (size 9 to 14) (size 15 to 20)
#    0.000    2.000    4.000    2.400    0.000    1.600 
#    0.000    0.000    0.000    2.400    0.000    0.000 
#    0.000    0.000    0.000    0.000    0.000    0.000 
#
# Total GULP energy -495723.359784 kJ/mol
# GULP energy per Si atom -12393.083995 kJ/mol
# Density = 1.988372 g / cm^3
# Si number density = 19.929076 Si / 1000 Ang^3
#
#
#
# Elastic Constant Matrix: (Units=GPa)
#
#
# Indices 1 2 3 4 5 6 
#
# 1 95.7672 46.7282 51.7267 0.0000 0.0000 0.0000
# 2 46.7282 65.5913 45.5258 0.0000 0.0000 0.0000
# 3 51.7267 45.5258 117.3637 0.0000 0.0000 0.0000
# 4 0.0000 0.0000 0.0000 35.6865 0.0000 0.0000
# 5 0.0000 0.0000 0.0000 0.0000 29.7935 0.0000
# 6 0.0000 0.0000 0.0000 0.0000 0.0000 27.3139
#
#
#
# Elastic Compliance Matrix: (Units=1/GPa)
#
#
# Indices 1 2 3 4 5 6 
#
# 1 0.017201 -0.009568 -0.003869 0.000000 0.000000 0.000000
# 2 -0.009568 0.026186 -0.005940 0.000000 0.000000 0.000000
# 3 -0.003869 -0.005940 0.012530 0.000000 0.000000 0.000000
# 4 0.000000 0.000000 0.000000 0.028022 0.000000 0.000000
# 5 0.000000 0.000000 0.000000 0.000000 0.033564 0.000000
# 6 0.000000 0.000000 0.000000 0.000000 0.000000 0.036611
#
#
# Mechanical properties :
#
#
# Convention : Reuss Voigt Hill
#
# Bulk Modulus (GPa) = 58.27399 62.96485 60.61942
# Shear Modulus (GPa) = 25.17742 27.54153 26.35948
#
# Velocity S-wave (km/s) = 3.55822 3.72153 3.64079
# Velocity P-wave (km/s) = 6.79599 7.08021 6.93955
#
# Compressibility (1/GPa) = 0.01716031
#
# Stress axis : x y z
#
# Youngs Moduli (GPa) = 58.13712 38.18883 79.80698
#
# Poissons Ratio (x) = 0.36540 0.30881
# Poissons Ratio (y) = 0.55628 0.47408
# Poissons Ratio (z) = 0.22496 0.22686
#
# Static dielectric constant tensor:
#      x y z
#    x 3.871380 0.000000 0.000000 
#    y 0.000000 3.427570 0.000000 
#    z 0.000000 0.000000 3.778590 
# 
# 
# High freq. dielectric constant tensor:
#      x y z
#    x 1.768260 0.000000 0.000000 
#    y 0.000000 1.733100 0.000000 
#    z 0.000000 0.000000 1.785690 
# 
# From -- ./inp_files/45168.got.cif
#   From: 2010.03.12/outbox.cif.g09.slc.cpg/sg68_23_cif.got.tgz:45168.got - 2010.04.10 23:14:56.
