data_PCOD8282851
_publ_section_title
;
Structure prediction by ZEFSAII (Michael W. Deem and Ramdas Pophale) SiO2 
 PCOD8282851
Probable space group: C C C A
;
_chemical_formula_sum "Si O2"
_cell_formula_units_Z 88
_cell_length_a 16.752734
_cell_length_b 9.828573
_cell_length_c 23.652263
_cell_angle_alpha 90.000000
_cell_angle_beta 90.000000
_cell_angle_gamma 90.000000
_cell_volume 3894.474459
_symmetry_space_group_name_H-M "C C C A"
_symmetry_group_IT_number 68
_space_group.IT_coordinate_system_code '2'
_symmetry_cell_setting 'orthorhombic'
loop_
_space_group_symop_operation_xyz
x,y,z
-x,1/2-y,z
x,1/2-y,1/2-z
-x,y,1/2-z
-x,-y,-z
x,1/2+y,-z
-x,1/2+y,1/2+z
x,-y,1/2+z
1/2+x,1/2+y,z
1/2-x,-y,z
1/2+x,-y,1/2-z
1/2-x,1/2+y,1/2-z
1/2-x,1/2-y,-z
1/2+x,y,-z
1/2-x,y,1/2+z
1/2+x,1/2-y,1/2+z
loop_
_atom_site_type_symbol
_atom_site_label
_atom_site_fract_x
_atom_site_fract_y
_atom_site_fract_z
Si Si1 0.922468 0.478548 0.536912
Si Si2 0.438689 0.868982 0.656791
Si Si3 0.000000 0.935997 0.750000
Si Si4 0.363157 0.885308 0.328883
Si Si5 0.310729 0.192660 0.309516
Si Si6 0.094588 0.729727 0.550130
O O1 0.957459 0.439179 0.597735
O O2 0.869616 0.616945 0.543149
O O3 0.874537 0.359142 0.503812
O O4 0.000000 0.500000 0.500000
O O5 0.500000 0.750000 0.670756
O O6 0.445106 0.977484 0.707289
O O7 0.349751 0.804720 0.648921
O O8 0.937916 0.846082 0.711921
O O9 0.284669 0.803199 0.310456
O O10 0.378759 0.844996 0.393108
O O11 0.347832 0.046294 0.324101
O O12 0.341673 0.250000 0.250000
O O13 0.000000 0.750000 0.551045
#
# Coordination Sequence:
#
# PCOD8282851 Si02
#       6
#    16  16   8  16  16  16
#     4  10  22  39  66 100 135 175 232 297 359 416
#     4  12  21  38  70  99 133 183 242 284 350 444
#     4  12  21  40  73 104 132 181 245 294 344 437
#     4  11  25  42  67 100 143 175 236 299 352 418
#     4  11  24  44  65  99 139 190 226 288 361 432
#     4  10  22  42  65  99 132 177 229 292 355 420
#
# _framework density 22.596115999999999
#
# number of rings (size 3 to 8) (size 9 to 14) (size 15 to 20)
#    0.000    1.091    3.636    4.091    2.545    2.909 
#    0.000    1.818    0.000    0.000    0.000    0.000 
#    0.000    0.000    0.000    0.000    0.000    0.000 
#
# Total GULP energy -545289.609497 kJ/mol
# GULP energy per Si atom -12392.945670 kJ/mol
# Density = 2.254469 g / cm^3
# Si number density = 22.596116 Si / 1000 Ang^3
#
#
#
# Elastic Constant Matrix: (Units=GPa)
#
#
# Indices 1 2 3 4 5 6 
#
# 1 95.1902 32.6963 19.4354 0.0000 0.0000 0.0000
# 2 32.6963 108.2200 52.6864 0.0000 0.0000 0.0000
# 3 19.4354 52.6864 148.6436 0.0000 0.0000 0.0000
# 4 0.0000 0.0000 0.0000 37.2246 0.0000 0.0000
# 5 0.0000 0.0000 0.0000 0.0000 23.0216 0.0000
# 6 0.0000 0.0000 0.0000 0.0000 0.0000 27.8441
#
#
#
# Elastic Compliance Matrix: (Units=1/GPa)
#
#
# Indices 1 2 3 4 5 6 
#
# 1 0.011736 -0.003382 -0.000336 0.000000 0.000000 0.000000
# 2 -0.003382 0.012142 -0.003862 0.000000 0.000000 0.000000
# 3 -0.000336 -0.003862 0.008140 0.000000 0.000000 0.000000
# 4 0.000000 0.000000 0.000000 0.026864 0.000000 0.000000
# 5 0.000000 0.000000 0.000000 0.000000 0.043437 0.000000
# 6 0.000000 0.000000 0.000000 0.000000 0.000000 0.035914
#
#
# Mechanical properties :
#
#
# Convention : Reuss Voigt Hill
#
# Bulk Modulus (GPa) = 59.31516 62.40997 60.86257
# Shear Modulus (GPa) = 31.44415 34.10046 32.77230
#
# Velocity S-wave (km/s) = 3.73443 3.88897 3.81248
# Velocity P-wave (km/s) = 6.70088 6.91702 6.80980
#
# Compressibility (1/GPa) = 0.01685910
#
# Stress axis : x y z
#
# Youngs Moduli (GPa) = 85.21113 82.35670 122.84841
#
# Poissons Ratio (x) = 0.27855 0.04123
# Poissons Ratio (y) = 0.28821 0.47439
# Poissons Ratio (z) = 0.02860 0.31803
#
# Static dielectric constant tensor:
#      x y z
#    x 4.426230 0.000000 0.000000 
#    y 0.000000 4.662900 0.000000 
#    z 0.000000 0.000000 4.266290 
# 
# 
# High freq. dielectric constant tensor:
#      x y z
#    x 1.856440 0.000000 0.000000 
#    y 0.000000 1.908690 0.000000 
#    z 0.000000 0.000000 1.901990 
# 
# From -- ./inp_files/39433.got.cif
#   From: 2010.03.12/outbox.cif.g09.slc.cpg/sg68_20_cif.got.tgz:39433.got - 2010.04.10 23:14:56.
