data_PCOD8282306
_publ_section_title
;
Structure prediction by ZEFSAII (Michael W. Deem and Ramdas Pophale) SiO2 
 PCOD8282306
Probable space group: C C C A
;
_chemical_formula_sum "Si O2"
_cell_formula_units_Z 88
_cell_length_a 15.686697
_cell_length_b 11.543399
_cell_length_c 23.407682
_cell_angle_alpha 90.000000
_cell_angle_beta 90.000000
_cell_angle_gamma 90.000000
_cell_volume 4238.611617
_symmetry_space_group_name_H-M "C C C A"
_symmetry_group_IT_number 68
_space_group.IT_coordinate_system_code '2'
_symmetry_cell_setting 'orthorhombic'
loop_
_space_group_symop_operation_xyz
x,y,z
-x,1/2-y,z
x,1/2-y,1/2-z
-x,y,1/2-z
-x,-y,-z
x,1/2+y,-z
-x,1/2+y,1/2+z
x,-y,1/2+z
1/2+x,1/2+y,z
1/2-x,-y,z
1/2+x,-y,1/2-z
1/2-x,1/2+y,1/2-z
1/2-x,1/2-y,-z
1/2+x,y,-z
1/2-x,y,1/2+z
1/2+x,1/2-y,1/2+z
loop_
_atom_site_type_symbol
_atom_site_label
_atom_site_fract_x
_atom_site_fract_y
_atom_site_fract_z
Si Si1 0.875465 0.698343 0.944308
Si Si2 0.917958 0.327807 0.570468
Si Si3 0.270361 0.215763 0.362448
Si Si4 0.637508 0.147378 0.789815
Si Si5 0.461968 0.913579 0.102899
Si Si6 0.250000 0.500000 0.213484
O O1 0.781935 0.678624 0.918750
O O2 0.904719 0.832146 0.938092
O O3 0.939235 0.616564 0.907770
O O4 0.869328 0.663244 0.010231
O O5 0.859191 0.272748 0.619281
O O6 0.945519 0.454717 0.588325
O O7 0.000000 0.250000 0.561317
O O8 0.218013 0.310255 0.326827
O O9 0.288713 0.103188 0.324482
O O10 0.602204 0.250000 0.750000
O O11 0.560412 0.107938 0.830621
O O12 0.670117 0.040945 0.751587
#
# Coordination Sequence:
#
# PCOD8282306 Si02
#       6
#    16  16  16  16  16   8
#     4  10  22  41  63  92 120 169 218 257 307 386
#     4  12  24  38  62  93 134 170 198 263 334 382
#     4  10  23  38  63  93 125 165 220 255 329 381
#     4   9  19  40  66  91 117 165 215 267 305 367
#     4  10  21  40  65  89 128 160 215 266 310 376
#     4  10  20  38  64  88 130 160 208 276 318 386
#
# _framework density 20.761516
#
# number of rings (size 3 to 8) (size 9 to 14) (size 15 to 20)
#    0.000    1.818    1.818    2.182    2.545    2.182 
#    0.000   15.455    4.000    3.818    0.000    0.000 
#    0.000    0.000    0.000    0.000    0.000    0.000 
#
# Total GULP energy -545776.723094 kJ/mol
# GULP energy per Si atom -12404.016434 kJ/mol
# Density = 2.071426 g / cm^3
# Si number density = 20.761516 Si / 1000 Ang^3
#
#
#
# Elastic Constant Matrix: (Units=GPa)
#
#
# Indices 1 2 3 4 5 6 
#
# 1 48.4565 29.7729 23.3545 0.0000 0.0000 0.0000
# 2 29.7729 138.4582 58.6678 0.0000 0.0000 0.0000
# 3 23.3545 58.6678 109.7861 0.0000 0.0000 0.0000
# 4 0.0000 0.0000 0.0000 27.3250 0.0000 0.0000
# 5 0.0000 0.0000 0.0000 0.0000 58.5471 0.0000
# 6 0.0000 0.0000 0.0000 0.0000 0.0000 18.6783
#
#
#
# Elastic Compliance Matrix: (Units=1/GPa)
#
#
# Indices 1 2 3 4 5 6 
#
# 1 0.024572 -0.003967 -0.003107 0.000000 0.000000 0.000000
# 2 -0.003967 0.009977 -0.004488 0.000000 0.000000 0.000000
# 3 -0.003107 -0.004488 0.012168 0.000000 0.000000 0.000000
# 4 0.000000 0.000000 0.000000 0.036597 0.000000 0.000000
# 5 0.000000 0.000000 0.000000 0.000000 0.017080 0.000000
# 6 0.000000 0.000000 0.000000 0.000000 0.000000 0.053538
#
#
# Mechanical properties :
#
#
# Convention : Reuss Voigt Hill
#
# Bulk Modulus (GPa) = 42.38562 57.81013 50.09788
# Shear Modulus (GPa) = 27.03875 33.23713 30.13794
#
# Velocity S-wave (km/s) = 3.61272 4.00547 3.81415
# Velocity P-wave (km/s) = 6.15322 7.02118 6.60148
#
# Compressibility (1/GPa) = 0.02359291
#
# Stress axis : x y z
#
# Youngs Moduli (GPa) = 40.69643 100.23090 82.18494
#
# Poissons Ratio (x) = 0.39764 0.25536
# Poissons Ratio (y) = 0.16145 0.36881
# Poissons Ratio (z) = 0.12645 0.44979
#
# Static dielectric constant tensor:
#      x y z
#    x 3.544910 0.000000 0.000000 
#    y 0.000000 3.749240 0.000000 
#    z 0.000000 0.000000 3.981900 
# 
# 
# High freq. dielectric constant tensor:
#      x y z
#    x 1.795870 0.000000 0.000000 
#    y 0.000000 1.814080 0.000000 
#    z 0.000000 0.000000 1.825300 
# 
# From -- ./inp_files/45298.got.cif
#   From: 2010.03.12/outbox.cif.g09.slc.cpg/sg68_23_cif.got.tgz:45298.got - 2010.04.10 23:14:56.
