data_PCOD8282775
_publ_section_title
;
Structure prediction by ZEFSAII (Michael W. Deem and Ramdas Pophale) SiO2 
 PCOD8282775
Probable space group: C C C A
;
_chemical_formula_sum "Si O2"
_cell_formula_units_Z 88
_cell_length_a 21.481695
_cell_length_b 22.996137
_cell_length_c 8.946777
_cell_angle_alpha 90.000000
_cell_angle_beta 90.000000
_cell_angle_gamma 90.000000
_cell_volume 4419.672062
_symmetry_space_group_name_H-M "C C C A"
_symmetry_group_IT_number 68
_space_group.IT_coordinate_system_code '2'
_symmetry_cell_setting 'orthorhombic'
loop_
_space_group_symop_operation_xyz
x,y,z
-x,1/2-y,z
x,1/2-y,1/2-z
-x,y,1/2-z
-x,-y,-z
x,1/2+y,-z
-x,1/2+y,1/2+z
x,-y,1/2+z
1/2+x,1/2+y,z
1/2-x,-y,z
1/2+x,-y,1/2-z
1/2-x,1/2+y,1/2-z
1/2-x,1/2-y,-z
1/2+x,y,-z
1/2-x,y,1/2+z
1/2+x,1/2-y,1/2+z
loop_
_atom_site_type_symbol
_atom_site_label
_atom_site_fract_x
_atom_site_fract_y
_atom_site_fract_z
Si Si1 0.474025 0.810433 0.082742
Si Si2 0.736066 0.172807 0.238781
Si Si3 0.000000 0.493553 0.750000
Si Si4 0.169945 0.143713 0.484997
Si Si5 0.046863 0.420812 0.003744
Si Si6 0.664230 0.222660 0.966135
O O1 0.500000 0.750000 0.010622
O O2 0.500000 0.815133 0.250000
O O3 0.498017 0.867272 0.995294
O O4 0.398625 0.812530 0.074871
O O5 0.776023 0.129551 0.134878
O O6 0.693830 0.133598 0.346405
O O7 0.781047 0.211540 0.346150
O O8 0.690201 0.210589 0.132600
O O9 0.953326 0.452383 0.656576
O O10 0.963842 0.533595 0.865099
O O11 0.114690 0.100626 0.455366
O O12 0.147035 0.209691 0.458636
#
# Coordination Sequence:
#
# PCOD8282775 Si02
#       6
#    16  16   8  16  16  16
#     4  11  22  36  62 101 132 158 202 261 330 385
#     4  10  22  35  57  94 135 175 197 234 314 397
#     4  10  26  46  64  88 116 170 226 260 326 364
#     4  11  20  37  60  91 129 164 204 249 305 384
#     4  11  23  44  66  91 120 167 214 270 321 373
#     4  11  20  35  57  93 137 166 200 239 309 397
#
# _framework density 19.910979000000001
#
# number of rings (size 3 to 8) (size 9 to 14) (size 15 to 20)
#    0.000    1.273    2.727    5.455    5.091    0.000 
#    0.000    0.455    0.000    3.273    0.000    0.000 
#    0.000    0.000    0.000    0.000    0.000    0.000 
#
# Total GULP energy -545437.261817 kJ/mol
# GULP energy per Si atom -12396.301405 kJ/mol
# Density = 1.986566 g / cm^3
# Si number density = 19.910979 Si / 1000 Ang^3
#
#
#
# Elastic Constant Matrix: (Units=GPa)
#
#
# Indices 1 2 3 4 5 6 
#
# 1 115.8735 40.2472 40.9342 0.0000 0.0000 0.0000
# 2 40.2472 91.8996 36.0782 0.0000 0.0000 0.0000
# 3 40.9342 36.0782 129.7677 0.0000 0.0000 0.0000
# 4 0.0000 0.0000 0.0000 -22.9716 0.0000 0.0000
# 5 0.0000 0.0000 0.0000 0.0000 22.3268 0.0000
# 6 0.0000 0.0000 0.0000 0.0000 0.0000 23.1431
#
#
#
# Elastic Compliance Matrix: (Units=1/GPa)
#
#
# Indices 1 2 3 4 5 6 
#
# 1 0.010778 -0.003800 -0.002343 0.000000 0.000000 0.000000
# 2 -0.003800 0.013555 -0.002570 0.000000 0.000000 0.000000
# 3 -0.002343 -0.002570 0.009160 0.000000 0.000000 0.000000
# 4 0.000000 0.000000 0.000000 -0.043532 0.000000 0.000000
# 5 0.000000 0.000000 0.000000 0.000000 0.044789 0.000000
# 6 0.000000 0.000000 0.000000 0.000000 0.000000 0.043210
#
#
# Mechanical properties :
#
#
# Convention : Reuss Voigt Hill
#
# Bulk Modulus (GPa) = 62.24428 63.56224 62.90326
# Shear Modulus (GPa) = 49.63256 19.18507 34.40881
#
# Velocity S-wave (km/s) = 4.99813 3.10746 4.16159
# Velocity P-wave (km/s) = 8.03975 6.69833 7.39950
#
# Compressibility (1/GPa) = 0.01606573
#
# Stress axis : x y z
#
# Youngs Moduli (GPa) = 92.78292 73.77584 109.17418
#
# Poissons Ratio (x) = 0.28036 0.25582
# Poissons Ratio (y) = 0.35260 0.28055
# Poissons Ratio (z) = 0.21741 0.18958
#
# Static dielectric constant tensor:
#      x y z
#    x 3.749440 0.000000 0.000000 
#    y 0.000000 3.520320 0.000000 
#    z 0.000000 0.000000 4.044320 
# 
# 
# High freq. dielectric constant tensor:
#      x y z
#    x 1.779350 0.000000 0.000000 
#    y 0.000000 1.741420 0.000000 
#    z 0.000000 0.000000 1.793860 
# 
# From -- ./inp_files/7137.got.cif
#   From: 2010.03.12/outbox.cif.g09.slc.cpg/sg68_4_cif.got.tgz:7137.got - 2010.04.10 23:14:56.
