data_PCOD8282559
_publ_section_title
;
Structure prediction by ZEFSAII (Michael W. Deem and Ramdas Pophale) SiO2 
 PCOD8282559
Probable space group: C C C A
;
_chemical_formula_sum "Si O2"
_cell_formula_units_Z 64
_cell_length_a 26.602362
_cell_length_b 5.271574
_cell_length_c 16.977806
_cell_angle_alpha 90.000000
_cell_angle_beta 90.000000
_cell_angle_gamma 90.000000
_cell_volume 2380.905033
_symmetry_space_group_name_H-M "C C C A"
_symmetry_group_IT_number 68
_space_group.IT_coordinate_system_code '2'
_symmetry_cell_setting 'orthorhombic'
loop_
_space_group_symop_operation_xyz
x,y,z
-x,1/2-y,z
x,1/2-y,1/2-z
-x,y,1/2-z
-x,-y,-z
x,1/2+y,-z
-x,1/2+y,1/2+z
x,-y,1/2+z
1/2+x,1/2+y,z
1/2-x,-y,z
1/2+x,-y,1/2-z
1/2-x,1/2+y,1/2-z
1/2-x,1/2-y,-z
1/2+x,y,-z
1/2-x,y,1/2+z
1/2+x,1/2-y,1/2+z
loop_
_atom_site_type_symbol
_atom_site_label
_atom_site_fract_x
_atom_site_fract_y
_atom_site_fract_z
Si Si1 0.056217 0.835226 0.532948
Si Si2 0.932990 0.496041 0.209996
Si Si3 0.176686 0.999978 0.277152
Si Si4 0.309836 0.986736 0.454233
O O1 0.082385 0.553319 0.524325
O O2 0.000000 0.750000 0.505469
O O3 0.056607 0.967861 0.617692
O O4 0.956797 0.750000 0.250000
O O5 0.873594 0.498591 0.224592
O O6 0.958161 0.250000 0.250000
O O7 0.207545 0.750000 0.250000
O O8 0.164229 0.997415 0.369298
O O9 0.207667 0.250000 0.250000
O O10 0.327568 0.222211 0.507444
O O11 0.250000 0.000000 0.441726
#
# Coordination Sequence:
#
# PCOD8282559 Si02
#       4
#    16  16  16  16
#     4  10  21  39  62  87 116 152 194 241 293 350
#     4  10  21  39  58  86 122 155 197 243 297 359
#     4  10  21  38  57  85 120 155 198 244 298 358
#     4  10  21  38  60  86 117 155 200 249 299 353
#
# _framework density 26.880534999999998
#
# number of rings (size 3 to 8) (size 9 to 14) (size 15 to 20)
#    0.000    2.000    0.000    3.000    0.000    1.500 
#    0.000   31.250    0.000    0.000    0.000    0.000 
#    0.000    0.000    0.000    0.000    0.000    0.000 
#
# Total GULP energy -396464.510805 kJ/mol
# GULP energy per Si atom -12389.515963 kJ/mol
# Density = 2.681935 g / cm^3
# Si number density = 26.880535 Si / 1000 Ang^3
#
#
#
# Elastic Constant Matrix: (Units=GPa)
#
#
# Indices 1 2 3 4 5 6 
#
# 1 37.8248 0.2069 -1.4969 0.0000 0.0000 0.0000
# 2 0.2069 351.8865 117.0347 0.0000 0.0000 0.0000
# 3 -1.4969 117.0347 205.7391 0.0000 0.0000 0.0000
# 4 0.0000 0.0000 0.0000 65.1417 0.0000 0.0000
# 5 0.0000 0.0000 0.0000 0.0000 102.6361 0.0000
# 6 0.0000 0.0000 0.0000 0.0000 0.0000 -15.2675
#
#
#
# Elastic Compliance Matrix: (Units=1/GPa)
#
#
# Indices 1 2 3 4 5 6 
#
# 1 0.026448 -0.000098 0.000248 0.000000 0.000000 0.000000
# 2 -0.000098 0.003505 -0.001995 0.000000 0.000000 0.000000
# 3 0.000248 -0.001995 0.005997 0.000000 0.000000 0.000000
# 4 0.000000 0.000000 0.000000 0.015351 0.000000 0.000000
# 5 0.000000 0.000000 0.000000 0.000000 0.009743 0.000000
# 6 0.000000 0.000000 0.000000 0.000000 0.000000 -0.065499
#
#
# Mechanical properties :
#
#
# Convention : Reuss Voigt Hill
#
# Bulk Modulus (GPa) = 30.99698 91.88220 61.43959
# Shear Modulus (GPa) = 500.55568 62.48244 281.51906
#
# Velocity S-wave (km/s) = 13.66086 4.82648 10.24486
# Velocity P-wave (km/s) = 16.13636 8.08182 12.76123
#
# Compressibility (1/GPa) = 0.03226120
#
# Stress axis : x y z
#
# Youngs Moduli (GPa) = 37.80999 285.28167 166.74947
#
# Poissons Ratio (x) = 0.02799 -0.04140
# Poissons Ratio (y) = 0.00371 0.33262
# Poissons Ratio (z) = -0.00939 0.56905
#
# Static dielectric constant tensor:
#      x y z
#    x 4.661920 0.000000 0.000000 
#    y 0.000000 9.126070 0.000000 
#    z 0.000000 0.000000 4.425160 
# 
# 
# High freq. dielectric constant tensor:
#      x y z
#    x 2.078810 0.000000 0.000000 
#    y 0.000000 2.123540 0.000000 
#    z 0.000000 0.000000 2.067210 
# 
# From -- ./inp_files/34274.got.cif
#   From: 2010.03.12/outbox.cif.g09.slc.cpg/sg68_18_cif.got.tgz:34274.got - 2010.04.10 23:14:56.
