data_PCOD8282043
_publ_section_title
;
Structure prediction by ZEFSAII (Michael W. Deem and Ramdas Pophale) SiO2 
 PCOD8282043
Probable space group: C C C A
;
_chemical_formula_sum "Si O2"
_cell_formula_units_Z 52
_cell_length_a 13.614491
_cell_length_b 12.740466
_cell_length_c 13.423762
_cell_angle_alpha 90.000000
_cell_angle_beta 90.000000
_cell_angle_gamma 90.000000
_cell_volume 2328.418097
_symmetry_space_group_name_H-M "C C C A"
_symmetry_group_IT_number 68
_space_group.IT_coordinate_system_code '2'
_symmetry_cell_setting 'orthorhombic'
loop_
_space_group_symop_operation_xyz
x,y,z
-x,1/2-y,z
x,1/2-y,1/2-z
-x,y,1/2-z
-x,-y,-z
x,1/2+y,-z
-x,1/2+y,1/2+z
x,-y,1/2+z
1/2+x,1/2+y,z
1/2-x,-y,z
1/2+x,-y,1/2-z
1/2-x,1/2+y,1/2-z
1/2-x,1/2-y,-z
1/2+x,y,-z
1/2-x,y,1/2+z
1/2+x,1/2-y,1/2+z
loop_
_atom_site_type_symbol
_atom_site_label
_atom_site_fract_x
_atom_site_fract_y
_atom_site_fract_z
Si Si1 0.321955 0.133869 0.166586
Si Si2 0.000000 0.750000 0.250000
Si Si3 0.884435 0.991618 0.507726
Si Si4 0.246713 0.649924 0.115409
O O1 0.431868 0.178141 0.180939
O O2 0.259315 0.223752 0.107263
O O3 0.269551 0.110907 0.271065
O O4 0.335336 0.029172 0.100989
O O5 0.852471 0.893932 0.579405
O O6 0.839649 0.099298 0.548433
O O7 0.000000 0.000000 0.500000
#
# Coordination Sequence:
#
# PCOD8282043 Si02
#       4
#    16   4  16  16
#     4  10  19  39  60  82 125 165 207 258 304 381
#     4   8  16  32  60  84 104 162 212 248 316 368
#     4  11  21  35  61  92 118 151 205 263 311 363
#     4   9  22  38  58  87 118 166 208 244 314 372
#
# _framework density 22.33276
#
# number of rings (size 3 to 8) (size 9 to 14) (size 15 to 20)
#    0.000    2.462    0.000    4.615    0.000    4.923 
#    0.000    0.000    0.000    7.385    0.000    8.615 
#    0.000    0.000    0.000    0.000    0.000    0.000 
#
# Total GULP energy -322243.798776 kJ/mol
# GULP energy per Si atom -12393.992261 kJ/mol
# Density = 2.228193 g / cm^3
# Si number density = 22.332760 Si / 1000 Ang^3
#
#
#
# Elastic Constant Matrix: (Units=GPa)
#
#
# Indices 1 2 3 4 5 6 
#
# 1 171.4094 35.6015 48.8978 0.0000 0.0000 0.0000
# 2 35.6015 78.8587 32.9369 0.0000 0.0000 0.0000
# 3 48.8978 32.9369 116.2903 0.0000 0.0000 0.0000
# 4 0.0000 0.0000 0.0000 50.9427 0.0000 0.0000
# 5 0.0000 0.0000 0.0000 0.0000 29.6448 0.0000
# 6 0.0000 0.0000 0.0000 0.0000 0.0000 36.7858
#
#
#
# Elastic Compliance Matrix: (Units=1/GPa)
#
#
# Indices 1 2 3 4 5 6 
#
# 1 0.006942 -0.002172 -0.002304 0.000000 0.000000 0.000000
# 2 -0.002172 0.015062 -0.003353 0.000000 0.000000 0.000000
# 3 -0.002304 -0.003353 0.010518 0.000000 0.000000 0.000000
# 4 0.000000 0.000000 0.000000 0.019630 0.000000 0.000000
# 5 0.000000 0.000000 0.000000 0.000000 0.033733 0.000000
# 6 0.000000 0.000000 0.000000 0.000000 0.000000 0.027184
#
#
# Mechanical properties :
#
#
# Convention : Reuss Voigt Hill
#
# Bulk Modulus (GPa) = 59.29618 66.82565 63.06091
# Shear Modulus (GPa) = 37.21699 40.08280 38.64989
#
# Velocity S-wave (km/s) = 4.08668 4.24110 4.16461
# Velocity P-wave (km/s) = 6.99119 7.34645 7.17102
#
# Compressibility (1/GPa) = 0.01686449
#
# Stress axis : x y z
#
# Youngs Moduli (GPa) = 144.04375 66.39337 95.07937
#
# Poissons Ratio (x) = 0.14420 0.21906
# Poissons Ratio (y) = 0.31285 0.31877
# Poissons Ratio (z) = 0.33187 0.22260
#
# Static dielectric constant tensor:
#      x y z
#    x 3.878440 0.000000 0.000000 
#    y 0.000000 3.970710 0.000000 
#    z 0.000000 0.000000 4.343030 
# 
# 
# High freq. dielectric constant tensor:
#      x y z
#    x 1.863710 0.000000 0.000000 
#    y 0.000000 1.877350 0.000000 
#    z 0.000000 0.000000 1.897680 
# 
# From -- ./inp_files/13878.got.cif
#   From: 2010.03.12/outbox.cif.g09.slc.cpg/sg68_7_cif.got.tgz:13878.got - 2010.04.10 23:14:56.
