data_PCOD8282422
_publ_section_title
;
Structure prediction by ZEFSAII (Michael W. Deem and Ramdas Pophale) SiO2 
 PCOD8282422
Probable space group: C C C A
;
_chemical_formula_sum "Si O2"
_cell_formula_units_Z 80
_cell_length_a 11.550050
_cell_length_b 24.577063
_cell_length_c 13.821726
_cell_angle_alpha 90.000000
_cell_angle_beta 90.000000
_cell_angle_gamma 90.000000
_cell_volume 3923.522309
_symmetry_space_group_name_H-M "C C C A"
_symmetry_group_IT_number 68
_space_group.IT_coordinate_system_code '2'
_symmetry_cell_setting 'orthorhombic'
loop_
_space_group_symop_operation_xyz
x,y,z
-x,1/2-y,z
x,1/2-y,1/2-z
-x,y,1/2-z
-x,-y,-z
x,1/2+y,-z
-x,1/2+y,1/2+z
x,-y,1/2+z
1/2+x,1/2+y,z
1/2-x,-y,z
1/2+x,-y,1/2-z
1/2-x,1/2+y,1/2-z
1/2-x,1/2-y,-z
1/2+x,y,-z
1/2-x,y,1/2+z
1/2+x,1/2-y,1/2+z
loop_
_atom_site_type_symbol
_atom_site_label
_atom_site_fract_x
_atom_site_fract_y
_atom_site_fract_z
Si Si1 0.107770 0.427625 0.296806
Si Si2 0.294602 0.117566 0.069444
Si Si3 0.365908 0.809199 0.729796
Si Si4 0.988598 0.043128 0.855151
Si Si5 0.778881 0.905562 0.138018
O O1 0.170097 0.395680 0.382696
O O2 0.045060 0.480395 0.343155
O O3 0.196813 0.441817 0.208703
O O4 0.000000 0.393329 0.250000
O O5 0.342255 0.173234 0.117684
O O6 0.385471 0.069226 0.085424
O O7 0.284066 0.120703 0.954515
O O8 0.309278 0.750000 0.750000
O O9 0.500000 0.805326 0.750000
O O10 0.311386 0.853088 0.800427
O O11 0.000000 0.071978 0.750000
O O12 0.115374 0.055944 0.900699
#
# Coordination Sequence:
#
# PCOD8282422 Si02
#       5
#    16  16  16  16  16
#     4  10  24  38  57  86 126 168 201 241 307 361
#     4  11  22  39  60  92 124 155 212 257 304 364
#     4  10  20  41  69  89 116 160 205 260 320 370
#     4  11  20  42  58  82 125 166 206 245 293 371
#     4  11  23  40  64  88 127 162 200 265 300 358
#
# _framework density 20.389842999999999
#
# number of rings (size 3 to 8) (size 9 to 14) (size 15 to 20)
#    0.000    1.400    6.000    0.600    5.600    1.600 
#   10.800    0.000    0.000    9.600    0.000    0.000 
#    0.000    0.000    0.000    0.000    0.000    0.000 
#
# Total GULP energy -495577.603449 kJ/mol
# GULP energy per Si atom -12389.440086 kJ/mol
# Density = 2.034343 g / cm^3
# Si number density = 20.389843 Si / 1000 Ang^3
#
#
#
# Elastic Constant Matrix: (Units=GPa)
#
#
# Indices 1 2 3 4 5 6 
#
# 1 87.9714 23.1355 3.8416 0.0000 0.0000 0.0000
# 2 23.1355 95.3572 22.9519 0.0000 0.0000 0.0000
# 3 3.8416 22.9519 96.2763 0.0000 0.0000 0.0000
# 4 0.0000 0.0000 0.0000 -11.2214 0.0000 0.0000
# 5 0.0000 0.0000 0.0000 0.0000 20.2705 0.0000
# 6 0.0000 0.0000 0.0000 0.0000 0.0000 12.8355
#
#
#
# Elastic Compliance Matrix: (Units=1/GPa)
#
#
# Indices 1 2 3 4 5 6 
#
# 1 0.012147 -0.003003 0.000231 0.000000 0.000000 0.000000
# 2 -0.003003 0.011868 -0.002709 0.000000 0.000000 0.000000
# 3 0.000231 -0.002709 0.011023 0.000000 0.000000 0.000000
# 4 0.000000 0.000000 0.000000 -0.089115 0.000000 0.000000
# 5 0.000000 0.000000 0.000000 0.000000 0.049333 0.000000
# 6 0.000000 0.000000 0.000000 0.000000 0.000000 0.077909
#
#
# Mechanical properties :
#
#
# Convention : Reuss Voigt Hill
#
# Bulk Modulus (GPa) = 41.53503 42.16252 41.84878
# Shear Modulus (GPa) = 54.25854 19.68865 36.97359
#
# Velocity S-wave (km/s) = 5.16414 3.11080 4.26295
# Velocity P-wave (km/s) = 7.48147 5.79878 6.69322
#
# Compressibility (1/GPa) = 0.02407606
#
# Stress axis : x y z
#
# Youngs Moduli (GPa) = 82.32539 84.26354 90.71573
#
# Poissons Ratio (x) = 0.25302 -0.02097
# Poissons Ratio (y) = 0.24720 0.24578
# Poissons Ratio (z) = -0.01903 0.22830
#
# Static dielectric constant tensor:
#      x y z
#    x 4.725140 0.000000 0.000000 
#    y 0.000000 3.757480 0.000000 
#    z 0.000000 0.000000 3.800130 
# 
# 
# High freq. dielectric constant tensor:
#      x y z
#    x 1.813400 0.000000 0.000000 
#    y 0.000000 1.761200 0.000000 
#    z 0.000000 0.000000 1.792740 
# 
# From -- ./inp_files/21084.got.cif
#   From: 2010.03.12/outbox.cif.g09.slc.cpg/sg68_11_cif.got.tgz:21084.got - 2010.04.10 23:14:56.
