data_PCOD8282887
_publ_section_title
;
Structure prediction by ZEFSAII (Michael W. Deem and Ramdas Pophale) SiO2 
 PCOD8282887
Probable space group: C C C A
;
_chemical_formula_sum "Si O2"
_cell_formula_units_Z 96
_cell_length_a 13.974087
_cell_length_b 18.768455
_cell_length_c 17.796601
_cell_angle_alpha 90.000000
_cell_angle_beta 90.000000
_cell_angle_gamma 90.000000
_cell_volume 4667.550547
_symmetry_space_group_name_H-M "C C C A"
_symmetry_group_IT_number 68
_space_group.IT_coordinate_system_code '2'
_symmetry_cell_setting 'orthorhombic'
loop_
_space_group_symop_operation_xyz
x,y,z
-x,1/2-y,z
x,1/2-y,1/2-z
-x,y,1/2-z
-x,-y,-z
x,1/2+y,-z
-x,1/2+y,1/2+z
x,-y,1/2+z
1/2+x,1/2+y,z
1/2-x,-y,z
1/2+x,-y,1/2-z
1/2-x,1/2+y,1/2-z
1/2-x,1/2-y,-z
1/2+x,y,-z
1/2-x,y,1/2+z
1/2+x,1/2-y,1/2+z
loop_
_atom_site_type_symbol
_atom_site_label
_atom_site_fract_x
_atom_site_fract_y
_atom_site_fract_z
Si Si1 0.283886 0.282209 0.668733
Si Si2 0.472957 0.463188 0.111063
Si Si3 0.645443 0.024695 0.960263
Si Si4 0.923697 0.807195 0.103349
Si Si5 0.558002 0.389313 0.824193
Si Si6 0.094878 0.673116 0.928263
O O1 0.266617 0.250000 0.750000
O O2 0.182961 0.289208 0.628356
O O3 0.333914 0.359407 0.679101
O O4 0.353609 0.234136 0.618434
O O5 0.587072 0.473621 0.096843
O O6 0.454475 0.383201 0.139958
O O7 0.437616 0.524695 0.168222
O O8 0.413851 0.472635 0.035769
O O9 0.750000 0.000000 0.979501
O O10 0.660204 0.102733 0.924766
O O11 0.000000 0.750000 0.134546
O O12 0.925800 0.803952 0.013279
O O13 0.500000 0.367788 0.750000
O O14 0.507540 0.349488 0.893970
#
# Coordination Sequence:
#
# PCOD8282887 Si02
#       6
#    16  16  16  16  16  16
#     4  12  25  41  67  98 132 176 217 267 338 395
#     4   9  22  40  61  98 125 171 218 264 328 377
#     4   9  19  36  66  93 134 165 211 278 321 380
#     4  11  25  44  66  95 138 178 215 271 325 403
#     4  11  22  42  70  97 131 167 221 286 327 382
#     4  10  22  40  67 105 127 169 221 276 334 385
#
# _framework density 20.567533000000001
#
# number of rings (size 3 to 8) (size 9 to 14) (size 15 to 20)
#    0.000    1.667    1.667    3.000    7.000    0.333 
#    3.000    0.000    0.000    0.000    0.000    0.000 
#    0.000    0.000    0.000    0.000    0.000    0.000 
#
# Total GULP energy -595051.739469 kJ/mol
# GULP energy per Si atom -12396.911239 kJ/mol
# Density = 2.052072 g / cm^3
# Si number density = 20.567533 Si / 1000 Ang^3
#
#
#
# Elastic Constant Matrix: (Units=GPa)
#
#
# Indices 1 2 3 4 5 6 
#
# 1 75.7815 57.5650 20.9471 0.0000 0.0000 0.0000
# 2 57.5650 133.4105 30.3940 0.0000 0.0000 0.0000
# 3 20.9471 30.3940 78.2922 0.0000 0.0000 0.0000
# 4 0.0000 0.0000 0.0000 34.1808 0.0000 0.0000
# 5 0.0000 0.0000 0.0000 0.0000 5.5567 0.0000
# 6 0.0000 0.0000 0.0000 0.0000 0.0000 -6.5219
#
#
#
# Elastic Compliance Matrix: (Units=1/GPa)
#
#
# Indices 1 2 3 4 5 6 
#
# 1 0.019967 -0.008116 -0.002191 0.000000 0.000000 0.000000
# 2 -0.008116 0.011522 -0.002302 0.000000 0.000000 0.000000
# 3 -0.002191 -0.002302 0.014252 0.000000 0.000000 0.000000
# 4 0.000000 0.000000 0.000000 0.029256 0.000000 0.000000
# 5 0.000000 0.000000 0.000000 0.000000 0.179964 0.000000
# 6 0.000000 0.000000 0.000000 0.000000 0.000000 -0.153330
#
#
# Mechanical properties :
#
#
# Convention : Reuss Voigt Hill
#
# Bulk Modulus (GPa) = 48.72530 56.14403 52.43467
# Shear Modulus (GPa) = 37.39972 18.54833 27.97403
#
# Velocity S-wave (km/s) = 4.26888 3.00630 3.69196
# Velocity P-wave (km/s) = 6.93106 6.27751 6.61236
#
# Compressibility (1/GPa) = 0.02052322
#
# Stress axis : x y z
#
# Youngs Moduli (GPa) = 50.08332 86.79030 70.16355
#
# Poissons Ratio (x) = 0.70440 0.15375
# Poissons Ratio (y) = 0.40648 0.16148
# Poissons Ratio (z) = 0.10975 0.19975
#
# Static dielectric constant tensor:
#      x y z
#    x 3.661300 0.000000 0.000000 
#    y 0.000000 4.329730 0.000000 
#    z 0.000000 0.000000 3.630030 
# 
# 
# High freq. dielectric constant tensor:
#      x y z
#    x 1.801050 0.000000 0.000000 
#    y 0.000000 1.816990 0.000000 
#    z 0.000000 0.000000 1.790490 
# 
# From -- ./inp_files/38564.got.cif
#   From: 2010.03.12/outbox.cif.g09.slc.cpg/sg68_20_cif.got.tgz:38564.got - 2010.04.10 23:14:56.
