data_PCOD8282673
_publ_section_title
;
Structure prediction by ZEFSAII (Michael W. Deem and Ramdas Pophale) SiO2 
 PCOD8282673
Probable space group: C C C A
;
_chemical_formula_sum "Si O2"
_cell_formula_units_Z 64
_cell_length_a 9.489316
_cell_length_b 15.772690
_cell_length_c 20.227528
_cell_angle_alpha 90.000000
_cell_angle_beta 90.000000
_cell_angle_gamma 90.000000
_cell_volume 3027.495371
_symmetry_space_group_name_H-M "C C C A"
_symmetry_group_IT_number 68
_space_group.IT_coordinate_system_code '2'
_symmetry_cell_setting 'orthorhombic'
loop_
_space_group_symop_operation_xyz
x,y,z
-x,1/2-y,z
x,1/2-y,1/2-z
-x,y,1/2-z
-x,-y,-z
x,1/2+y,-z
-x,1/2+y,1/2+z
x,-y,1/2+z
1/2+x,1/2+y,z
1/2-x,-y,z
1/2+x,-y,1/2-z
1/2-x,1/2+y,1/2-z
1/2-x,1/2-y,-z
1/2+x,y,-z
1/2-x,y,1/2+z
1/2+x,1/2-y,1/2+z
loop_
_atom_site_type_symbol
_atom_site_label
_atom_site_fract_x
_atom_site_fract_y
_atom_site_fract_z
Si Si1 0.049737 0.162254 0.478778
Si Si2 0.357801 0.922945 0.784205
Si Si3 0.000000 0.750000 0.643846
Si Si4 0.171839 0.912353 0.437857
Si Si5 0.766404 0.750000 0.750000
O O1 0.991438 0.165971 0.402818
O O2 0.219173 0.154661 0.471453
O O3 0.000000 0.250000 0.514983
O O4 0.973757 0.087939 0.520231
O O5 0.500000 0.956623 0.750000
O O6 0.369198 0.898051 0.861443
O O7 0.322048 0.836363 0.744974
O O8 0.250000 0.000000 0.773264
O O9 0.859657 0.756727 0.685165
O O10 0.250000 0.000000 0.446631
#
# Coordination Sequence:
#
# PCOD8282673 Si02
#       5
#    16  16   8  16   8
#     4  10  21  40  63  92 127 170 213 259 316 389
#     4  11  26  43  66  98 131 170 222 275 327 393
#     4   9  22  36  72  92 127 172 222 260 333 384
#     4  11  23  41  62  96 131 165 213 266 326 386
#     4  11  21  44  68  94 132 174 220 270 330 388
#
# _framework density 21.139588
#
# number of rings (size 3 to 8) (size 9 to 14) (size 15 to 20)
#    0.750    0.750    2.500    1.875    3.500    4.000 
#    0.000    2.500    0.000    0.000    0.000    0.000 
#    0.000    0.000    0.000    0.000    0.000    0.000 
#
# Total GULP energy -396425.501511 kJ/mol
# GULP energy per Si atom -12388.296922 kJ/mol
# Density = 2.109147 g / cm^3
# Si number density = 21.139588 Si / 1000 Ang^3
#
#
#
# Elastic Constant Matrix: (Units=GPa)
#
#
# Indices 1 2 3 4 5 6 
#
# 1 126.5049 22.8786 65.0445 0.0000 0.0000 0.0000
# 2 22.8786 86.1700 38.0998 0.0000 0.0000 0.0000
# 3 65.0445 38.0998 114.1014 0.0000 0.0000 0.0000
# 4 0.0000 0.0000 0.0000 -28.7104 0.0000 0.0000
# 5 0.0000 0.0000 0.0000 0.0000 -53.3036 0.0000
# 6 0.0000 0.0000 0.0000 0.0000 0.0000 29.1589
#
#
#
# Elastic Compliance Matrix: (Units=1/GPa)
#
#
# Indices 1 2 3 4 5 6 
#
# 1 0.011185 -0.000177 -0.006317 0.000000 0.000000 0.000000
# 2 -0.000177 0.013618 -0.004446 0.000000 0.000000 0.000000
# 3 -0.006317 -0.004446 0.013850 0.000000 0.000000 0.000000
# 4 0.000000 0.000000 0.000000 -0.034831 0.000000 0.000000
# 5 0.000000 0.000000 0.000000 0.000000 -0.018760 0.000000
# 6 0.000000 0.000000 0.000000 0.000000 0.000000 0.034295
#
#
# Mechanical properties :
#
#
# Convention : Reuss Voigt Hill
#
# Bulk Modulus (GPa) = 59.62183 64.31358 61.96771
# Shear Modulus (GPa) = 106.77511 2.81253 54.79382
#
# Velocity S-wave (km/s) = 7.11472 1.15471 5.09669
# Velocity P-wave (km/s) = 9.78557 5.68042 8.00077
#
# Compressibility (1/GPa) = 0.01677238
#
# Stress axis : x y z
#
# Youngs Moduli (GPa) = 89.40739 73.43302 72.20251
#
# Poissons Ratio (x) = 0.01297 0.45610
# Poissons Ratio (y) = 0.01579 0.32105
# Poissons Ratio (z) = 0.56479 0.32652
#
# Static dielectric constant tensor:
#      x y z
#    x 3.942670 0.000000 0.000000 
#    y 0.000000 3.627160 0.000000 
#    z 0.000000 0.000000 3.760920 
# 
# 
# High freq. dielectric constant tensor:
#      x y z
#    x 1.828920 0.000000 0.000000 
#    y 0.000000 1.823420 0.000000 
#    z 0.000000 0.000000 1.826960 
# 
# From -- ./inp_files/42878.got.cif
#   From: 2010.03.12/outbox.cif.g09.slc.cpg/sg68_22_cif.got.tgz:42878.got - 2010.04.10 23:14:56.
