data_PCOD8282174
_publ_section_title
;
Structure prediction by ZEFSAII (Michael W. Deem and Ramdas Pophale) SiO2 
 PCOD8282174
Probable space group: C C C A
;
_chemical_formula_sum "Si O2"
_cell_formula_units_Z 96
_cell_length_a 28.516099
_cell_length_b 8.479246
_cell_length_c 20.833309
_cell_angle_alpha 90.000000
_cell_angle_beta 90.000000
_cell_angle_gamma 90.000000
_cell_volume 5037.390333
_symmetry_space_group_name_H-M "C C C A"
_symmetry_group_IT_number 68
_space_group.IT_coordinate_system_code '2'
_symmetry_cell_setting 'orthorhombic'
loop_
_space_group_symop_operation_xyz
x,y,z
-x,1/2-y,z
x,1/2-y,1/2-z
-x,y,1/2-z
-x,-y,-z
x,1/2+y,-z
-x,1/2+y,1/2+z
x,-y,1/2+z
1/2+x,1/2+y,z
1/2-x,-y,z
1/2+x,-y,1/2-z
1/2-x,1/2+y,1/2-z
1/2-x,1/2-y,-z
1/2+x,y,-z
1/2-x,y,1/2+z
1/2+x,1/2-y,1/2+z
loop_
_atom_site_type_symbol
_atom_site_label
_atom_site_fract_x
_atom_site_fract_y
_atom_site_fract_z
Si Si1 0.197167 0.478242 0.590109
Si Si2 0.609866 0.938041 0.922453
Si Si3 0.972890 0.089730 0.688910
Si Si4 0.631506 0.305614 0.315999
Si Si5 0.342140 0.271723 0.982892
Si Si6 0.991421 0.432267 0.069357
O O1 0.250000 0.500000 0.614713
O O2 0.163923 0.436509 0.650160
O O3 0.183025 0.645694 0.561218
O O4 0.193285 0.339431 0.536970
O O5 0.626185 0.850708 0.858642
O O6 0.643191 0.084968 0.937536
O O7 0.559331 0.009794 0.909195
O O8 0.612988 0.811433 0.981532
O O9 0.918449 0.118444 0.703524
O O10 0.000000 0.250000 0.673485
O O11 0.000000 0.008990 0.750000
O O12 0.972740 0.987882 0.624160
O O13 0.656058 0.250000 0.250000
O O14 0.000000 0.250000 0.063871
O O15 0.000000 0.500000 0.000000
#
# Coordination Sequence:
#
# PCOD8282174 Si02
#       6
#    16  16  16  16  16  16
#     4  10  21  38  64  90 117 152 198 250 309 360
#     4  10  20  36  54  85 117 155 191 239 297 357
#     4  11  21  41  62  82 116 166 209 237 295 371
#     4  11  22  40  62  83 117 162 204 244 291 360
#     4   9  20  36  61  85 120 149 191 242 309 368
#     4  12  25  33  55  87 126 153 197 252 302 349
#
# _framework density 19.057486999999998
#
# number of rings (size 3 to 8) (size 9 to 14) (size 15 to 20)
#    0.000    1.500    3.333    2.000    9.333    0.333 
#    0.000    2.500    0.000    0.000    0.000    0.000 
#    0.000    0.000    0.000    0.000    0.000    0.000 
#
# Total GULP energy -595022.827357 kJ/mol
# GULP energy per Si atom -12396.308903 kJ/mol
# Density = 1.901411 g / cm^3
# Si number density = 19.057487 Si / 1000 Ang^3
#
#
#
# Elastic Constant Matrix: (Units=GPa)
#
#
# Indices 1 2 3 4 5 6 
#
# 1 100.9316 32.6042 33.8729 0.0000 0.0000 0.0000
# 2 32.6042 96.2485 49.6433 0.0000 0.0000 0.0000
# 3 33.8729 49.6433 136.7381 0.0000 0.0000 0.0000
# 4 0.0000 0.0000 0.0000 14.2906 0.0000 0.0000
# 5 0.0000 0.0000 0.0000 0.0000 24.5030 0.0000
# 6 0.0000 0.0000 0.0000 0.0000 0.0000 21.0633
#
#
#
# Elastic Compliance Matrix: (Units=1/GPa)
#
#
# Indices 1 2 3 4 5 6 
#
# 1 0.011459 -0.002975 -0.001759 0.000000 0.000000 0.000000
# 2 -0.002975 0.013556 -0.004185 0.000000 0.000000 0.000000
# 3 -0.001759 -0.004185 0.009268 0.000000 0.000000 0.000000
# 4 0.000000 0.000000 0.000000 0.069976 0.000000 0.000000
# 5 0.000000 0.000000 0.000000 0.000000 0.040811 0.000000
# 6 0.000000 0.000000 0.000000 0.000000 0.000000 0.047476
#
#
# Mechanical properties :
#
#
# Convention : Reuss Voigt Hill
#
# Bulk Modulus (GPa) = 60.80130 62.90655 61.85392
# Shear Modulus (GPa) = 23.16274 26.49124 24.82699
#
# Velocity S-wave (km/s) = 3.49006 3.73241 3.61327
# Velocity P-wave (km/s) = 6.94364 7.18714 7.06644
#
# Compressibility (1/GPa) = 0.01644702
#
# Stress axis : x y z
#
# Youngs Moduli (GPa) = 87.26918 73.76937 107.89649
#
# Poissons Ratio (x) = 0.21943 0.18975
# Poissons Ratio (y) = 0.25959 0.45150
# Poissons Ratio (z) = 0.15348 0.30870
#
# Static dielectric constant tensor:
#      x y z
#    x 3.471780 0.000000 0.000000 
#    y 0.000000 3.596090 0.000000 
#    z 0.000000 0.000000 3.468030 
# 
# 
# High freq. dielectric constant tensor:
#      x y z
#    x 1.725150 0.000000 0.000000 
#    y 0.000000 1.743750 0.000000 
#    z 0.000000 0.000000 1.742800 
# 
# From -- ./inp_files/36466.got.cif
#   From: 2010.03.12/outbox.cif.g09.slc.cpg/sg68_19_cif.got.tgz:36466.got - 2010.04.10 23:14:56.
