data_PCOD8282900
_publ_section_title
;
Structure prediction by ZEFSAII (Michael W. Deem and Ramdas Pophale) SiO2 
 PCOD8282900
Probable space group: C C C A
;
_chemical_formula_sum "Si O2"
_cell_formula_units_Z 60
_cell_length_a 22.241418
_cell_length_b 15.131900
_cell_length_c 7.472627
_cell_angle_alpha 90.000000
_cell_angle_beta 90.000000
_cell_angle_gamma 90.000000
_cell_volume 2514.949330
_symmetry_space_group_name_H-M "C C C A"
_symmetry_group_IT_number 68
_space_group.IT_coordinate_system_code '2'
_symmetry_cell_setting 'orthorhombic'
loop_
_space_group_symop_operation_xyz
x,y,z
-x,1/2-y,z
x,1/2-y,1/2-z
-x,y,1/2-z
-x,-y,-z
x,1/2+y,-z
-x,1/2+y,1/2+z
x,-y,1/2+z
1/2+x,1/2+y,z
1/2-x,-y,z
1/2+x,-y,1/2-z
1/2-x,1/2+y,1/2-z
1/2-x,1/2-y,-z
1/2+x,y,-z
1/2-x,y,1/2+z
1/2+x,1/2-y,1/2+z
loop_
_atom_site_type_symbol
_atom_site_label
_atom_site_fract_x
_atom_site_fract_y
_atom_site_fract_z
Si Si1 0.321440 0.342875 0.180987
Si Si2 0.123959 0.060691 0.520788
Si Si3 0.095737 0.121303 0.129290
Si Si4 0.750000 0.500000 0.916474
Si Si5 0.000000 0.250000 0.250000
O O1 0.295626 0.250000 0.250000
O O2 0.377065 0.373197 0.310323
O O3 0.265181 0.410903 0.196211
O O4 0.349340 0.335055 0.981729
O O5 0.112614 0.112417 0.338522
O O6 0.079459 0.976647 0.551483
O O7 0.190493 0.017426 0.531795
O O8 0.039077 0.187115 0.119262
#
# Coordination Sequence:
#
# PCOD8282900 Si02
#       5
#    16  16  16   8   4
#     4  11  24  43  69 105 146 187 228 281 344 426
#     4  11  22  43  72 102 144 180 229 283 348 426
#     4  11  24  46  70 100 137 180 235 298 347 415
#     4  10  22  40  70 106 146 190 222 270 350 420
#     4  12  28  48  70 100 134 178 248 304 358 406
#
# _framework density 23.857339
#
# number of rings (size 3 to 8) (size 9 to 14) (size 15 to 20)
#    0.000    1.067    5.333    2.400    3.733    2.133 
#    2.400    4.667    0.000    0.000    0.000    0.000 
#    0.000    0.000    0.000    0.000    0.000    0.000 
#
# Total GULP energy -371729.607738 kJ/mol
# GULP energy per Si atom -12390.986925 kJ/mol
# Density = 2.380304 g / cm^3
# Si number density = 23.857339 Si / 1000 Ang^3
#
#
#
# Elastic Constant Matrix: (Units=GPa)
#
#
# Indices 1 2 3 4 5 6 
#
# 1 85.4882 59.5942 29.7084 0.0000 0.0000 0.0000
# 2 59.5942 184.1700 46.3301 0.0000 0.0000 0.0000
# 3 29.7084 46.3301 123.5842 0.0000 0.0000 0.0000
# 4 0.0000 0.0000 0.0000 31.0484 0.0000 0.0000
# 5 0.0000 0.0000 0.0000 0.0000 14.8902 0.0000
# 6 0.0000 0.0000 0.0000 0.0000 0.0000 51.8543
#
#
#
# Elastic Compliance Matrix: (Units=1/GPa)
#
#
# Indices 1 2 3 4 5 6 
#
# 1 0.015559 -0.004520 -0.002046 0.000000 0.000000 0.000000
# 2 -0.004520 0.007308 -0.001653 0.000000 0.000000 0.000000
# 3 -0.002046 -0.001653 0.009203 0.000000 0.000000 0.000000
# 4 0.000000 0.000000 0.000000 0.032208 0.000000 0.000000
# 5 0.000000 0.000000 0.000000 0.000000 0.067158 0.000000
# 6 0.000000 0.000000 0.000000 0.000000 0.000000 0.019285
#
#
# Mechanical properties :
#
#
# Convention : Reuss Voigt Hill
#
# Bulk Modulus (GPa) = 63.96843 73.83420 68.90131
# Shear Modulus (GPa) = 29.00720 36.73255 32.86988
#
# Velocity S-wave (km/s) = 3.49070 3.92813 3.71586
# Velocity P-wave (km/s) = 6.56641 7.18255 6.88138
#
# Compressibility (1/GPa) = 0.01563271
#
# Stress axis : x y z
#
# Youngs Moduli (GPa) = 64.26955 136.83119 108.65783
#
# Poissons Ratio (x) = 0.61849 0.22229
# Poissons Ratio (y) = 0.29051 0.17963
# Poissons Ratio (z) = 0.13148 0.22621
#
# Static dielectric constant tensor:
#      x y z
#    x 3.931440 0.000000 0.000000 
#    y 0.000000 4.547740 0.000000 
#    z 0.000000 0.000000 4.214900 
# 
# 
# High freq. dielectric constant tensor:
#      x y z
#    x 1.892000 0.000000 0.000000 
#    y 0.000000 1.960810 0.000000 
#    z 0.000000 0.000000 1.954600 
# 
# From -- ./inp_files/4928.got.cif
#   From: 2010.03.12/outbox.cif.g09.slc.cpg/sg68_3_cif.got.tgz:4928.got - 2010.04.10 23:14:56.
