data_PCOD8282983
_publ_section_title
;
Structure prediction by ZEFSAII (Michael W. Deem and Ramdas Pophale) SiO2 
 PCOD8282983
Probable space group: C C C A
;
_chemical_formula_sum "Si O2"
_cell_formula_units_Z 64
_cell_length_a 11.746974
_cell_length_b 15.833095
_cell_length_c 16.493338
_cell_angle_alpha 90.000000
_cell_angle_beta 90.000000
_cell_angle_gamma 90.000000
_cell_volume 3067.611691
_symmetry_space_group_name_H-M "C C C A"
_symmetry_group_IT_number 68
_space_group.IT_coordinate_system_code '2'
_symmetry_cell_setting 'orthorhombic'
loop_
_space_group_symop_operation_xyz
x,y,z
-x,1/2-y,z
x,1/2-y,1/2-z
-x,y,1/2-z
-x,-y,-z
x,1/2+y,-z
-x,1/2+y,1/2+z
x,-y,1/2+z
1/2+x,1/2+y,z
1/2-x,-y,z
1/2+x,-y,1/2-z
1/2-x,1/2+y,1/2-z
1/2-x,1/2-y,-z
1/2+x,y,-z
1/2-x,y,1/2+z
1/2+x,1/2-y,1/2+z
loop_
_atom_site_type_symbol
_atom_site_label
_atom_site_fract_x
_atom_site_fract_y
_atom_site_fract_z
Si Si1 0.263157 0.868831 0.930667
Si Si2 0.624909 0.209010 0.913478
Si Si3 0.597880 0.005220 0.636652
Si Si4 0.639220 0.048041 0.820012
O O1 0.215462 0.781994 0.894821
O O2 0.156879 0.935999 0.933169
O O3 0.357905 0.909126 0.871144
O O4 0.327812 0.850610 0.014542
O O5 0.500000 0.250000 0.930770
O O6 0.628796 0.148368 0.835753
O O7 0.632195 0.041154 0.723884
O O8 0.462417 0.003652 0.629699
O O9 0.750000 0.000000 0.853478
#
# Coordination Sequence:
#
# PCOD8282983 Si02
#       4
#    16  16  16  16
#     4  10  22  43  64  92 139 166 210 278 329 379
#     4  11  24  41  67 101 128 173 219 274 327 385
#     4  10  22  44  64  94 136 168 215 274 321 392
#     4  11  23  41  68  99 124 176 223 257 332 390
#
# _framework density 20.863136999999998
#
# number of rings (size 3 to 8) (size 9 to 14) (size 15 to 20)
#    0.000    1.500    5.000    0.000    3.500    6.000 
#    0.000    0.000    0.000    0.000    0.000    0.000 
#    0.000    0.000    0.000    0.000    0.000    0.000 
#
# Total GULP energy -396475.557221 kJ/mol
# GULP energy per Si atom -12389.861163 kJ/mol
# Density = 2.081565 g / cm^3
# Si number density = 20.863137 Si / 1000 Ang^3
#
#
#
# Elastic Constant Matrix: (Units=GPa)
#
#
# Indices 1 2 3 4 5 6 
#
# 1 167.6617 84.3526 40.7090 0.0000 0.0000 0.0000
# 2 84.3526 144.1877 71.9809 0.0000 0.0000 0.0000
# 3 40.7090 71.9809 78.3260 0.0000 0.0000 0.0000
# 4 0.0000 0.0000 0.0000 33.7452 0.0000 0.0000
# 5 0.0000 0.0000 0.0000 0.0000 24.4372 0.0000
# 6 0.0000 0.0000 0.0000 0.0000 0.0000 41.4249
#
#
#
# Elastic Compliance Matrix: (Units=1/GPa)
#
#
# Indices 1 2 3 4 5 6 
#
# 1 0.008455 -0.005086 0.000279 0.000000 0.000000 0.000000
# 2 -0.005086 0.015874 -0.011944 0.000000 0.000000 0.000000
# 3 0.000279 -0.011944 0.023599 0.000000 0.000000 0.000000
# 4 0.000000 0.000000 0.000000 0.029634 0.000000 0.000000
# 5 0.000000 0.000000 0.000000 0.000000 0.040921 0.000000
# 6 0.000000 0.000000 0.000000 0.000000 0.000000 0.024140
#
#
# Mechanical properties :
#
#
# Convention : Reuss Voigt Hill
#
# Bulk Modulus (GPa) = 69.32014 87.14005 78.23009
# Shear Modulus (GPa) = 27.63448 32.79698 30.21573
#
# Velocity S-wave (km/s) = 3.64340 3.96915 3.80976
# Velocity P-wave (km/s) = 7.14125 7.92867 7.54523
#
# Compressibility (1/GPa) = 0.01442582
#
# Stress axis : x y z
#
# Youngs Moduli (GPa) = 118.26745 62.99735 42.37534
#
# Poissons Ratio (x) = 0.32041 -0.01184
# Poissons Ratio (y) = 0.60152 0.50615
# Poissons Ratio (z) = -0.03305 0.75246
#
# Static dielectric constant tensor:
#      x y z
#    x 4.328720 0.000000 0.000000 
#    y 0.000000 3.916000 0.000000 
#    z 0.000000 0.000000 3.527000 
# 
# 
# High freq. dielectric constant tensor:
#      x y z
#    x 1.835490 0.000000 0.000000 
#    y 0.000000 1.822450 0.000000 
#    z 0.000000 0.000000 1.793290 
# 
# From -- ./inp_files/20452.got.cif
#   From: 2010.03.12/outbox.cif.g09.slc.cpg/sg68_11_cif.got.tgz:20452.got - 2010.04.10 23:14:56.
