data_PCOD8282093
_publ_section_title
;
Structure prediction by ZEFSAII (Michael W. Deem and Ramdas Pophale) SiO2 
 PCOD8282093
Probable space group: C C C A
;
_chemical_formula_sum "Si O2"
_cell_formula_units_Z 96
_cell_length_a 11.598443
_cell_length_b 22.134338
_cell_length_c 19.203401
_cell_angle_alpha 90.000000
_cell_angle_beta 90.000000
_cell_angle_gamma 90.000000
_cell_volume 4929.971184
_symmetry_space_group_name_H-M "C C C A"
_symmetry_group_IT_number 68
_space_group.IT_coordinate_system_code '2'
_symmetry_cell_setting 'orthorhombic'
loop_
_space_group_symop_operation_xyz
x,y,z
-x,1/2-y,z
x,1/2-y,1/2-z
-x,y,1/2-z
-x,-y,-z
x,1/2+y,-z
-x,1/2+y,1/2+z
x,-y,1/2+z
1/2+x,1/2+y,z
1/2-x,-y,z
1/2+x,-y,1/2-z
1/2-x,1/2+y,1/2-z
1/2-x,1/2-y,-z
1/2+x,y,-z
1/2-x,y,1/2+z
1/2+x,1/2-y,1/2+z
loop_
_atom_site_type_symbol
_atom_site_label
_atom_site_fract_x
_atom_site_fract_y
_atom_site_fract_z
Si Si1 0.898661 0.352304 0.799250
Si Si2 0.572658 0.691244 0.448073
Si Si3 0.414949 0.355372 0.405936
Si Si4 0.759536 0.752810 0.136485
Si Si5 0.570915 0.338932 0.682405
Si Si6 0.235045 0.070830 0.693526
O O1 0.803621 0.300534 0.806566
O O2 0.837311 0.409610 0.762402
O O3 0.000000 0.327463 0.750000
O O4 0.957065 0.366739 0.874033
O O5 0.500000 0.750000 0.471209
O O6 0.576749 0.642395 0.510583
O O7 0.703213 0.711320 0.428802
O O8 0.513979 0.656733 0.383481
O O9 0.365448 0.288962 0.387334
O O10 0.330319 0.407082 0.376465
O O11 0.660231 0.714977 0.172900
O O12 0.500000 0.322289 0.750000
O O13 0.636702 0.402009 0.693271
O O14 0.250000 0.000000 0.693289
#
# Coordination Sequence:
#
# PCOD8282093 Si02
#       6
#    16  16  16  16  16  16
#     4  10  21  34  55  83 110 144 184 231 280 336
#     4  10  20  34  55  85 118 150 180 220 281 351
#     4  10  21  36  56  83 114 147 183 228 279 337
#     4  10  20  33  54  87 122 149 177 222 283 346
#     4  10  22  36  56  83 114 149 185 228 280 341
#     4  10  23  41  57  76 105 146 193 241 284 324
#
# _framework density 19.472729999999999
#
# number of rings (size 3 to 8) (size 9 to 14) (size 15 to 20)
#    0.000    2.000    0.000    3.000    0.000   23.667 
#    0.000    0.833    0.000    5.000    0.000    0.000 
#    0.000    0.000    0.000    0.000    0.000    0.000 
#
# Total GULP energy -595199.959364 kJ/mol
# GULP energy per Si atom -12399.999153 kJ/mol
# Density = 1.942841 g / cm^3
# Si number density = 19.472730 Si / 1000 Ang^3
#
#
#
# Elastic Constant Matrix: (Units=GPa)
#
#
# Indices 1 2 3 4 5 6 
#
# 1 86.4890 45.4634 51.2042 0.0000 0.0000 0.0000
# 2 45.4634 107.2336 58.9455 0.0000 0.0000 0.0000
# 3 51.2042 58.9455 145.1933 0.0000 0.0000 0.0000
# 4 0.0000 0.0000 0.0000 19.4417 0.0000 0.0000
# 5 0.0000 0.0000 0.0000 0.0000 25.2167 0.0000
# 6 0.0000 0.0000 0.0000 0.0000 0.0000 15.1346
#
#
#
# Elastic Compliance Matrix: (Units=1/GPa)
#
#
# Indices 1 2 3 4 5 6 
#
# 1 0.016361 -0.004846 -0.003802 0.000000 0.000000 0.000000
# 2 -0.004846 0.013440 -0.003747 0.000000 0.000000 0.000000
# 3 -0.003802 -0.003747 0.009750 0.000000 0.000000 0.000000
# 4 0.000000 0.000000 0.000000 0.051436 0.000000 0.000000
# 5 0.000000 0.000000 0.000000 0.000000 0.039656 0.000000
# 6 0.000000 0.000000 0.000000 0.000000 0.000000 0.066074
#
#
# Mechanical properties :
#
#
# Convention : Reuss Voigt Hill
#
# Bulk Modulus (GPa) = 67.75720 72.23803 69.99762
# Shear Modulus (GPa) = 22.08214 24.17879 23.13047
#
# Velocity S-wave (km/s) = 3.37115 3.52756 3.45024
# Velocity P-wave (km/s) = 7.07279 7.33275 7.20394
#
# Compressibility (1/GPa) = 0.01475858
#
# Stress axis : x y z
#
# Youngs Moduli (GPa) = 61.12201 74.40520 102.56825
#
# Poissons Ratio (x) = 0.36059 0.39000
# Poissons Ratio (y) = 0.29621 0.38435
# Poissons Ratio (z) = 0.23241 0.27881
#
# Static dielectric constant tensor:
#      x y z
#    x 4.093060 0.000000 0.000000 
#    y 0.000000 3.123720 0.000000 
#    z 0.000000 0.000000 3.683040 
# 
# 
# High freq. dielectric constant tensor:
#      x y z
#    x 1.777860 0.000000 0.000000 
#    y 0.000000 1.707940 0.000000 
#    z 0.000000 0.000000 1.761820 
# 
# From -- ./inp_files/29837.got.cif
#   From: 2010.03.12/outbox.cif.g09.slc.cpg/sg68_15_cif.got.tgz:29837.got - 2010.04.10 23:14:56.
