data_PCOD8282347
_publ_section_title
;
Structure prediction by ZEFSAII (Michael W. Deem and Ramdas Pophale) SiO2 
 PCOD8282347
Probable space group: C C C A
;
_chemical_formula_sum "Si O2"
_cell_formula_units_Z 116
_cell_length_a 21.603674
_cell_length_b 26.507384
_cell_length_c 9.934548
_cell_angle_alpha 90.000000
_cell_angle_beta 90.000000
_cell_angle_gamma 90.000000
_cell_volume 5689.087287
_symmetry_space_group_name_H-M "C C C A"
_symmetry_group_IT_number 68
_space_group.IT_coordinate_system_code '2'
_symmetry_cell_setting 'orthorhombic'
loop_
_space_group_symop_operation_xyz
x,y,z
-x,1/2-y,z
x,1/2-y,1/2-z
-x,y,1/2-z
-x,-y,-z
x,1/2+y,-z
-x,1/2+y,1/2+z
x,-y,1/2+z
1/2+x,1/2+y,z
1/2-x,-y,z
1/2+x,-y,1/2-z
1/2-x,1/2+y,1/2-z
1/2-x,1/2-y,-z
1/2+x,y,-z
1/2-x,y,1/2+z
1/2+x,1/2-y,1/2+z
loop_
_atom_site_type_symbol
_atom_site_label
_atom_site_fract_x
_atom_site_fract_y
_atom_site_fract_z
Si Si1 0.922706 0.325410 0.919999
Si Si2 0.000000 0.250000 0.750000
Si Si3 0.009447 0.073970 0.910189
Si Si4 0.840554 0.761692 0.900349
Si Si5 0.898802 0.985895 0.505431
Si Si6 0.806941 0.873606 0.207648
Si Si7 0.820603 0.488020 0.760026
Si Si8 0.726141 0.326130 0.022012
O O1 0.967849 0.371387 0.960355
O O2 0.868258 0.342551 0.821769
O O3 0.958921 0.283484 0.843474
O O4 0.894714 0.298489 0.050331
O O5 0.000000 0.072431 0.750000
O O6 0.943866 0.062095 0.982721
O O7 0.060430 0.033881 0.954353
O O8 0.859321 0.750000 0.750000
O O9 0.775535 0.790288 0.905999
O O10 0.832739 0.708831 0.982045
O O11 0.861158 0.997572 0.371157
O O12 0.849548 0.975340 0.625043
O O13 0.823080 0.931587 0.181939
O O14 0.791850 0.867264 0.365705
O O15 0.751811 0.854947 0.109872
O O16 0.750000 0.500000 0.726090
#
# Coordination Sequence:
#
# PCOD8282347 Si02
#       8
#    16   4  16  16  16  16  16  16
#     4  11  23  40  69  96 133 174 239 290 343 406
#     4  12  24  40  70  92 120 176 228 294 336 396
#     4  11  21  45  75  98 130 182 244 289 348 425
#     4  10  20  39  63  97 136 175 223 284 343 407
#     4  11  24  45  72  98 133 182 226 293 349 422
#     4  11  23  41  63  97 134 181 229 277 341 423
#     4  12  27  43  66 102 145 174 228 289 360 424
#     4  10  21  37  65  93 134 188 222 270 339 418
#
# _framework density 20.389914000000001
#
# number of rings (size 3 to 8) (size 9 to 14) (size 15 to 20)
#    0.000    1.103    4.828    1.241    3.862    0.000 
#    0.000    0.345    3.034    0.000    0.000    0.000 
#    0.000    0.000    0.000    0.000    0.000    0.000 
#
# Total GULP energy -719240.667602 kJ/mol
# GULP energy per Si atom -12400.701166 kJ/mol
# Density = 2.034351 g / cm^3
# Si number density = 20.389914 Si / 1000 Ang^3
#
#
#
# Elastic Constant Matrix: (Units=GPa)
#
#
# Indices 1 2 3 4 5 6 
#
# 1 116.4074 54.5527 60.9737 0.0000 0.0000 0.0000
# 2 54.5527 101.0014 57.2392 0.0000 0.0000 0.0000
# 3 60.9737 57.2392 137.5325 0.0000 0.0000 0.0000
# 4 0.0000 0.0000 0.0000 44.7720 0.0000 0.0000
# 5 0.0000 0.0000 0.0000 0.0000 13.4203 0.0000
# 6 0.0000 0.0000 0.0000 0.0000 0.0000 46.2138
#
#
#
# Elastic Compliance Matrix: (Units=1/GPa)
#
#
# Indices 1 2 3 4 5 6 
#
# 1 0.012764 -0.004825 -0.003651 0.000000 0.000000 0.000000
# 2 -0.004825 0.014781 -0.004012 0.000000 0.000000 0.000000
# 3 -0.003651 -0.004012 0.010559 0.000000 0.000000 0.000000
# 4 0.000000 0.000000 0.000000 0.022335 0.000000 0.000000
# 5 0.000000 0.000000 0.000000 0.000000 0.074514 0.000000
# 6 0.000000 0.000000 0.000000 0.000000 0.000000 0.021639
#
#
# Mechanical properties :
#
#
# Convention : Reuss Voigt Hill
#
# Bulk Modulus (GPa) = 76.17396 77.83028 77.00212
# Shear Modulus (GPa) = 26.88977 33.02627 29.95802
#
# Velocity S-wave (km/s) = 3.63544 4.02896 3.83725
# Velocity P-wave (km/s) = 7.42035 7.73933 7.58152
#
# Compressibility (1/GPa) = 0.01312785
#
# Stress axis : x y z
#
# Youngs Moduli (GPa) = 78.34577 67.65472 94.70239
#
# Poissons Ratio (x) = 0.32645 0.34572
# Poissons Ratio (y) = 0.37803 0.37999
# Poissons Ratio (z) = 0.28601 0.27146
#
# Static dielectric constant tensor:
#      x y z
#    x 4.006170 0.000000 0.000000 
#    y 0.000000 3.841480 0.000000 
#    z 0.000000 0.000000 3.670270 
# 
# 
# High freq. dielectric constant tensor:
#      x y z
#    x 1.802480 0.000000 0.000000 
#    y 0.000000 1.797110 0.000000 
#    z 0.000000 0.000000 1.797080 
# 
# From -- ./inp_files/8334.got.cif
#   From: 2010.03.12/outbox.cif.g09.slc.cpg/sg68_5_cif.got.tgz:8334.got - 2010.04.10 23:14:56.
