data_PCOD8282952
_publ_section_title
;
Structure prediction by ZEFSAII (Michael W. Deem and Ramdas Pophale) SiO2 
 PCOD8282952
Probable space group: C C C A
;
_chemical_formula_sum "Si O2"
_cell_formula_units_Z 64
_cell_length_a 9.462628
_cell_length_b 24.315439
_cell_length_c 12.452989
_cell_angle_alpha 90.000000
_cell_angle_beta 90.000000
_cell_angle_gamma 90.000000
_cell_volume 2865.282759
_symmetry_space_group_name_H-M "C C C A"
_symmetry_group_IT_number 68
_space_group.IT_coordinate_system_code '2'
_symmetry_cell_setting 'orthorhombic'
loop_
_space_group_symop_operation_xyz
x,y,z
-x,1/2-y,z
x,1/2-y,1/2-z
-x,y,1/2-z
-x,-y,-z
x,1/2+y,-z
-x,1/2+y,1/2+z
x,-y,1/2+z
1/2+x,1/2+y,z
1/2-x,-y,z
1/2+x,-y,1/2-z
1/2-x,1/2+y,1/2-z
1/2-x,1/2-y,-z
1/2+x,y,-z
1/2-x,y,1/2+z
1/2+x,1/2-y,1/2+z
loop_
_atom_site_type_symbol
_atom_site_label
_atom_site_fract_x
_atom_site_fract_y
_atom_site_fract_z
Si Si1 0.152164 0.347535 0.061249
Si Si2 0.252777 0.938811 0.610179
Si Si3 0.500000 0.101865 0.250000
Si Si4 0.500000 0.899958 0.250000
Si Si5 0.430754 0.195568 0.408701
O O1 0.265435 0.297584 0.065790
O O2 0.113439 0.365836 0.181156
O O3 0.216680 0.396121 0.986076
O O4 0.014078 0.318425 0.016267
O O5 0.377166 0.935648 0.699157
O O6 0.097779 0.932515 0.664643
O O7 0.250000 0.000000 0.559997
O O8 0.430434 0.141505 0.336412
O O9 0.500000 0.250000 0.354520
#
# Coordination Sequence:
#
# PCOD8282952 Si02
#       5
#    16  16   8   8  16
#     4  11  24  43  64  99 138 175 231 290 340 421
#     4  11  24  42  69  98 137 185 232 290 351 414
#     4  10  22  42  64  97 133 174 233 279 340 420
#     4  12  23  44  69  95 145 180 229 295 344 412
#     4  11  22  42  68  95 134 178 223 282 351 410
#
# _framework density 22.336365000000001
#
# number of rings (size 3 to 8) (size 9 to 14) (size 15 to 20)
#    0.000    1.000    5.000    1.875    0.000    2.000 
#    0.000    0.625    0.000    0.000    0.000    0.000 
#    0.000    0.000    0.000    0.000    0.000    0.000 
#
# Total GULP energy -396565.825451 kJ/mol
# GULP energy per Si atom -12392.682045 kJ/mol
# Density = 2.228553 g / cm^3
# Si number density = 22.336365 Si / 1000 Ang^3
#
#
#
# Elastic Constant Matrix: (Units=GPa)
#
#
# Indices 1 2 3 4 5 6 
#
# 1 147.3542 38.1743 40.7598 0.0000 0.0000 0.0000
# 2 38.1743 94.5945 16.0912 0.0000 0.0000 0.0000
# 3 40.7598 16.0912 86.8295 0.0000 0.0000 0.0000
# 4 0.0000 0.0000 0.0000 -149.5530 0.0000 0.0000
# 5 0.0000 0.0000 0.0000 0.0000 36.6649 0.0000
# 6 0.0000 0.0000 0.0000 0.0000 0.0000 28.3736
#
#
#
# Elastic Compliance Matrix: (Units=1/GPa)
#
#
# Indices 1 2 3 4 5 6 
#
# 1 0.008476 -0.002833 -0.003454 0.000000 0.000000 0.000000
# 2 -0.002833 0.011862 -0.000869 0.000000 0.000000 0.000000
# 3 -0.003454 -0.000869 0.013299 0.000000 0.000000 0.000000
# 4 0.000000 0.000000 0.000000 -0.006687 0.000000 0.000000
# 5 0.000000 0.000000 0.000000 0.000000 0.027274 0.000000
# 6 0.000000 0.000000 0.000000 0.000000 0.000000 0.035244
#
#
# Mechanical properties :
#
#
# Convention : Reuss Voigt Hill
#
# Bulk Modulus (GPa) = 51.74138 57.64765 54.69451
# Shear Modulus (GPa) = 45.36344 -1.31938 22.02203
#
# Velocity S-wave (km/s) = 4.51147 -0.76939 3.14335
# Velocity P-wave (km/s) = 7.09596 5.00756 6.14118
#
# Compressibility (1/GPa) = 0.01932689
#
# Stress axis : x y z
#
# Youngs Moduli (GPa) = 117.98588 84.29990 75.19363
#
# Poissons Ratio (x) = 0.23881 0.25969
# Poissons Ratio (y) = 0.33424 0.06531
# Poissons Ratio (z) = 0.40748 0.07322
#
# Static dielectric constant tensor:
#      x y z
#    x 4.311740 0.000000 0.000000 
#    y 0.000000 3.843010 0.000000 
#    z 0.000000 0.000000 3.918700 
# 
# 
# High freq. dielectric constant tensor:
#      x y z
#    x 1.906810 0.000000 0.000000 
#    y 0.000000 1.861730 0.000000 
#    z 0.000000 0.000000 1.875050 
# 
# From -- ./inp_files/19303.got.cif
#   From: 2010.03.12/outbox.cif.g09.slc.cpg/sg68_10_cif.got.tgz:19303.got - 2010.04.10 23:14:56.
