data_PCOD8282753
_publ_section_title
;
Structure prediction by ZEFSAII (Michael W. Deem and Ramdas Pophale) SiO2 
 PCOD8282753
Probable space group: C C C A
;
_chemical_formula_sum "Si O2"
_cell_formula_units_Z 116
_cell_length_a 26.601203
_cell_length_b 23.351420
_cell_length_c 9.713381
_cell_angle_alpha 90.000000
_cell_angle_beta 90.000000
_cell_angle_gamma 90.000000
_cell_volume 6033.717833
_symmetry_space_group_name_H-M "C C C A"
_symmetry_group_IT_number 68
_space_group.IT_coordinate_system_code '2'
_symmetry_cell_setting 'orthorhombic'
loop_
_space_group_symop_operation_xyz
x,y,z
-x,1/2-y,z
x,1/2-y,1/2-z
-x,y,1/2-z
-x,-y,-z
x,1/2+y,-z
-x,1/2+y,1/2+z
x,-y,1/2+z
1/2+x,1/2+y,z
1/2-x,-y,z
1/2+x,-y,1/2-z
1/2-x,1/2+y,1/2-z
1/2-x,1/2-y,-z
1/2+x,y,-z
1/2-x,y,1/2+z
1/2+x,1/2-y,1/2+z
loop_
_atom_site_type_symbol
_atom_site_label
_atom_site_fract_x
_atom_site_fract_y
_atom_site_fract_z
Si Si1 0.383271 0.599557 0.132758
Si Si2 0.561753 0.347288 0.610646
Si Si3 0.841805 0.682430 0.095573
Si Si4 0.143573 0.684726 0.092143
Si Si5 0.737960 0.867621 0.446540
Si Si6 0.487061 0.450770 0.601611
Si Si7 0.000000 0.250000 0.250000
Si Si8 0.723839 0.559327 0.317138
O O1 0.399605 0.632507 0.271157
O O2 0.428269 0.560128 0.081199
O O3 0.336366 0.556432 0.159178
O O4 0.373006 0.644753 0.011686
O O5 0.591846 0.339436 0.469101
O O6 0.518308 0.392792 0.579042
O O7 0.535398 0.288369 0.653617
O O8 0.859352 0.747181 0.084818
O O9 0.850608 0.661007 0.252535
O O10 0.783230 0.677917 0.055824
O O11 0.188958 0.664987 0.996059
O O12 0.731661 0.891155 0.293713
O O13 0.749172 0.921893 0.542879
O O14 0.500000 0.476016 0.750000
O O15 0.500000 0.500000 0.500000
O O16 0.750000 0.500000 0.270247
#
# Coordination Sequence:
#
# PCOD8282753 Si02
#       8
#    16  16  16  16  16  16   4  16
#     4  10  21  44  63  91 124 164 213 255 319 380
#     4  11  22  39  70  95 123 166 213 269 324 378
#     4  10  23  39  59  91 131 163 202 255 316 389
#     4  11  22  38  62  93 125 163 205 254 325 374
#     4  11  21  41  58  87 128 163 206 252 311 381
#     4  10  23  44  64  92 124 164 218 260 316 382
#     4  12  20  40  72  98 132 152 224 280 316 384
#     4  11  23  39  62  90 122 164 208 260 308 368
#
# _framework density 19.225294999999999
#
# number of rings (size 3 to 8) (size 9 to 14) (size 15 to 20)
#    0.000    1.379    4.828    1.655    0.000    2.207 
#    9.931    0.000    0.000    0.000    0.000    0.000 
#    0.000    0.000    0.000    0.000    0.000    0.000 
#
# Total GULP energy -719267.131840 kJ/mol
# GULP energy per Si atom -12401.157446 kJ/mol
# Density = 1.918154 g / cm^3
# Si number density = 19.225295 Si / 1000 Ang^3
#
#
#
# Elastic Constant Matrix: (Units=GPa)
#
#
# Indices 1 2 3 4 5 6 
#
# 1 126.8786 45.2684 49.0496 0.0000 0.0000 0.0000
# 2 45.2684 89.9610 39.8945 0.0000 0.0000 0.0000
# 3 49.0496 39.8945 78.9818 0.0000 0.0000 0.0000
# 4 0.0000 0.0000 0.0000 32.0760 0.0000 0.0000
# 5 0.0000 0.0000 0.0000 0.0000 28.0459 0.0000
# 6 0.0000 0.0000 0.0000 0.0000 0.0000 20.8228
#
#
#
# Elastic Compliance Matrix: (Units=1/GPa)
#
#
# Indices 1 2 3 4 5 6 
#
# 1 0.011062 -0.003247 -0.005229 0.000000 0.000000 0.000000
# 2 -0.003247 0.015278 -0.005700 0.000000 0.000000 0.000000
# 3 -0.005229 -0.005700 0.018788 0.000000 0.000000 0.000000
# 4 0.000000 0.000000 0.000000 0.031176 0.000000 0.000000
# 5 0.000000 0.000000 0.000000 0.000000 0.035656 0.000000
# 6 0.000000 0.000000 0.000000 0.000000 0.000000 0.048024
#
#
# Mechanical properties :
#
#
# Convention : Reuss Voigt Hill
#
# Bulk Modulus (GPa) = 59.61745 62.69405 61.15575
# Shear Modulus (GPa) = 25.78264 26.96287 26.37275
#
# Velocity S-wave (km/s) = 3.66605 3.74902 3.70776
# Velocity P-wave (km/s) = 6.99979 7.17085 7.08584
#
# Compressibility (1/GPa) = 0.01677361
#
# Stress axis : x y z
#
# Youngs Moduli (GPa) = 90.40178 65.45420 53.22526
#
# Poissons Ratio (x) = 0.21254 0.27834
# Poissons Ratio (y) = 0.29355 0.30341
# Poissons Ratio (z) = 0.47275 0.37312
#
# Static dielectric constant tensor:
#      x y z
#    x 4.030210 0.000000 0.000000 
#    y 0.000000 3.266130 0.000000 
#    z 0.000000 0.000000 3.582070 
# 
# 
# High freq. dielectric constant tensor:
#      x y z
#    x 1.760800 0.000000 0.000000 
#    y 0.000000 1.739760 0.000000 
#    z 0.000000 0.000000 1.756970 
# 
# From -- ./inp_files/9170.got.cif
#   From: 2010.03.12/outbox.cif.g09.slc.cpg/sg68_5_cif.got.tgz:9170.got - 2010.04.10 23:14:56.
