data_PCOD8282276
_publ_section_title
;
Structure prediction by ZEFSAII (Michael W. Deem and Ramdas Pophale) SiO2 
 PCOD8282276
Probable space group: C C C A
;
_chemical_formula_sum "Si O2"
_cell_formula_units_Z 88
_cell_length_a 12.359477
_cell_length_b 21.145783
_cell_length_c 17.076441
_cell_angle_alpha 90.000000
_cell_angle_beta 90.000000
_cell_angle_gamma 90.000000
_cell_volume 4462.941835
_symmetry_space_group_name_H-M "C C C A"
_symmetry_group_IT_number 68
_space_group.IT_coordinate_system_code '2'
_symmetry_cell_setting 'orthorhombic'
loop_
_space_group_symop_operation_xyz
x,y,z
-x,1/2-y,z
x,1/2-y,1/2-z
-x,y,1/2-z
-x,-y,-z
x,1/2+y,-z
-x,1/2+y,1/2+z
x,-y,1/2+z
1/2+x,1/2+y,z
1/2-x,-y,z
1/2+x,-y,1/2-z
1/2-x,1/2+y,1/2-z
1/2-x,1/2-y,-z
1/2+x,y,-z
1/2-x,y,1/2+z
1/2+x,1/2-y,1/2+z
loop_
_atom_site_type_symbol
_atom_site_label
_atom_site_fract_x
_atom_site_fract_y
_atom_site_fract_z
Si Si1 0.879471 0.313845 0.285262
Si Si2 0.215337 0.190735 0.449385
Si Si3 0.624339 0.907834 0.929013
Si Si4 0.621428 0.101714 0.113453
Si Si5 0.776297 0.425073 0.735081
Si Si6 0.750000 0.500000 0.979982
O O1 0.823955 0.250000 0.250000
O O2 0.873849 0.302285 0.379617
O O3 0.823082 0.380504 0.262755
O O4 0.000000 0.318772 0.250000
O O5 0.250000 0.250000 0.500000
O O6 0.163749 0.144436 0.511802
O O7 0.327996 0.169452 0.408394
O O8 0.497250 0.903987 0.919261
O O9 0.687524 0.899144 0.848308
O O10 0.652601 0.976090 0.964849
O O11 0.623523 0.087377 0.206048
O O12 0.704213 0.053434 0.074878
O O13 0.750000 0.500000 0.733206
#
# Coordination Sequence:
#
# PCOD8282276 Si02
#       6
#    16  16  16  16  16   8
#     4  10  23  42  67  94 128 172 219 269 328 399
#     4  10  23  42  63  92 128 164 210 275 321 385
#     4  11  22  37  61  89 118 163 209 254 318 384
#     4  10  22  38  59  84 123 161 201 258 318 381
#     4  11  22  41  60  90 129 169 215 264 323 390
#     4  10  20  38  54  86 120 154 200 258 306 372
#
# _framework density 19.717935000000001
#
# number of rings (size 3 to 8) (size 9 to 14) (size 15 to 20)
#    0.000    1.636    1.818    2.182    0.000    8.000 
#    0.000    0.000    0.000    3.273    0.000    0.000 
#    0.000    0.000    0.000    0.000    0.000    0.000 
#
# Total GULP energy -545234.878756 kJ/mol
# GULP energy per Si atom -12391.701790 kJ/mol
# Density = 1.967306 g / cm^3
# Si number density = 19.717935 Si / 1000 Ang^3
#
#
#
# Elastic Constant Matrix: (Units=GPa)
#
#
# Indices 1 2 3 4 5 6 
#
# 1 92.7167 41.9264 41.8076 0.0000 0.0000 0.0000
# 2 41.9264 113.0111 53.1455 0.0000 0.0000 0.0000
# 3 41.8076 53.1455 167.2493 0.0000 0.0000 0.0000
# 4 0.0000 0.0000 0.0000 28.3902 0.0000 0.0000
# 5 0.0000 0.0000 0.0000 0.0000 -126.6689 0.0000
# 6 0.0000 0.0000 0.0000 0.0000 0.0000 22.7293
#
#
#
# Elastic Compliance Matrix: (Units=1/GPa)
#
#
# Indices 1 2 3 4 5 6 
#
# 1 0.013563 -0.004041 -0.002106 0.000000 0.000000 0.000000
# 2 -0.004041 0.011607 -0.002678 0.000000 0.000000 0.000000
# 3 -0.002106 -0.002678 0.007357 0.000000 0.000000 0.000000
# 4 0.000000 0.000000 0.000000 0.035223 0.000000 0.000000
# 5 0.000000 0.000000 0.000000 0.000000 -0.007895 0.000000
# 6 0.000000 0.000000 0.000000 0.000000 0.000000 0.043996
#
#
# Mechanical properties :
#
#
# Convention : Reuss Voigt Hill
#
# Bulk Modulus (GPa) = 67.22431 71.85958 69.54194
# Shear Modulus (GPa) = 39.53779 0.62995 20.08387
#
# Velocity S-wave (km/s) = 4.48277 0.56584 3.19495
# Velocity P-wave (km/s) = 7.80773 6.07863 6.99680
#
# Compressibility (1/GPa) = 0.01487557
#
# Stress axis : x y z
#
# Youngs Moduli (GPa) = 73.73180 86.15177 135.93217
#
# Poissons Ratio (x) = 0.34816 0.28629
# Poissons Ratio (y) = 0.29797 0.36405
# Poissons Ratio (z) = 0.15529 0.23073
#
# Static dielectric constant tensor:
#      x y z
#    x 3.353080 0.000000 0.000000 
#    y 0.000000 3.667120 0.000000 
#    z 0.000000 0.000000 3.993310 
# 
# 
# High freq. dielectric constant tensor:
#      x y z
#    x 1.753670 0.000000 0.000000 
#    y 0.000000 1.776770 0.000000 
#    z 0.000000 0.000000 1.795680 
# 
# From -- ./inp_files/20954.got.cif
#   From: 2010.03.12/outbox.cif.g09.slc.cpg/sg68_11_cif.got.tgz:20954.got - 2010.04.10 23:14:56.
