data_PCOD8282440
_publ_section_title
;
Structure prediction by ZEFSAII (Michael W. Deem and Ramdas Pophale) SiO2 
 PCOD8282440
Probable space group: C C C A
;
_chemical_formula_sum "Si O2"
_cell_formula_units_Z 72
_cell_length_a 14.954303
_cell_length_b 11.269417
_cell_length_c 18.757855
_cell_angle_alpha 90.000000
_cell_angle_beta 90.000000
_cell_angle_gamma 90.000000
_cell_volume 3161.191457
_symmetry_space_group_name_H-M "C C C A"
_symmetry_group_IT_number 68
_space_group.IT_coordinate_system_code '2'
_symmetry_cell_setting 'orthorhombic'
loop_
_space_group_symop_operation_xyz
x,y,z
-x,1/2-y,z
x,1/2-y,1/2-z
-x,y,1/2-z
-x,-y,-z
x,1/2+y,-z
-x,1/2+y,1/2+z
x,-y,1/2+z
1/2+x,1/2+y,z
1/2-x,-y,z
1/2+x,-y,1/2-z
1/2-x,1/2+y,1/2-z
1/2-x,1/2-y,-z
1/2+x,y,-z
1/2-x,y,1/2+z
1/2+x,1/2-y,1/2+z
loop_
_atom_site_type_symbol
_atom_site_label
_atom_site_fract_x
_atom_site_fract_y
_atom_site_fract_z
Si Si1 0.423416 0.899552 0.998061
Si Si2 0.500000 0.750000 0.117240
Si Si3 0.413285 0.815497 0.841259
Si Si4 0.750000 0.500000 0.448461
Si Si5 0.861739 0.919779 0.677246
Si Si6 0.738469 0.250000 0.250000
O O1 0.428425 0.823636 0.925645
O O2 0.322908 0.947687 0.001953
O O3 0.430214 0.817059 0.066531
O O4 0.500000 0.000000 0.000000
O O5 0.550598 0.840539 0.168335
O O6 0.500000 0.750000 0.808395
O O7 0.326791 0.736385 0.819181
O O8 0.395154 0.946450 0.807466
O O9 0.802291 0.410314 0.395142
O O10 0.801531 0.866991 0.741731
#
# Coordination Sequence:
#
# PCOD8282440 Si02
#       6
#    16   8  16   8  16   8
#     4  11  21  42  73 107 150 189 243 310 375 455
#     4  12  24  43  74 109 146 186 240 316 386 456
#     4  11  23  45  75 104 140 197 246 307 373 447
#     4  10  20  44  70 100 150 188 238 300 364 448
#     4  11  24  47  69 106 144 188 249 307 375 439
#     4  12  23  49  70  94 144 198 246 309 351 444
#
# _framework density 22.776223000000002
#
# number of rings (size 3 to 8) (size 9 to 14) (size 15 to 20)
#    0.000    0.889   10.000    0.333    0.000    1.333 
#   16.000    0.000    0.000    0.000    0.000    0.000 
#    0.000    0.000    0.000    0.000    0.000    0.000 
#
# Total GULP energy -446008.193549 kJ/mol
# GULP energy per Si atom -12389.116487 kJ/mol
# Density = 2.272438 g / cm^3
# Si number density = 22.776223 Si / 1000 Ang^3
#
#
#
# Elastic Constant Matrix: (Units=GPa)
#
#
# Indices 1 2 3 4 5 6 
#
# 1 184.4805 91.5582 48.5837 0.0000 0.0000 0.0000
# 2 91.5582 122.1188 42.5546 0.0000 0.0000 0.0000
# 3 48.5837 42.5546 73.1186 0.0000 0.0000 0.0000
# 4 0.0000 0.0000 0.0000 36.6688 0.0000 0.0000
# 5 0.0000 0.0000 0.0000 0.0000 37.8943 0.0000
# 6 0.0000 0.0000 0.0000 0.0000 0.0000 54.3288
#
#
#
# Elastic Compliance Matrix: (Units=1/GPa)
#
#
# Indices 1 2 3 4 5 6 
#
# 1 0.009004 -0.005853 -0.002576 0.000000 0.000000 0.000000
# 2 -0.005853 0.014077 -0.004304 0.000000 0.000000 0.000000
# 3 -0.002576 -0.004304 0.017893 0.000000 0.000000 0.000000
# 4 0.000000 0.000000 0.000000 0.027271 0.000000 0.000000
# 5 0.000000 0.000000 0.000000 0.000000 0.026389 0.000000
# 6 0.000000 0.000000 0.000000 0.000000 0.000000 0.018406
#
#
# Mechanical properties :
#
#
# Convention : Reuss Voigt Hill
#
# Bulk Modulus (GPa) = 64.48328 82.79013 73.63670
# Shear Modulus (GPa) = 34.80079 38.91314 36.85697
#
# Velocity S-wave (km/s) = 3.91313 4.13788 4.02708
# Velocity P-wave (km/s) = 6.98498 7.69790 7.35009
#
# Compressibility (1/GPa) = 0.01550790
#
# Stress axis : x y z
#
# Youngs Moduli (GPa) = 111.06279 71.03999 55.88819
#
# Poissons Ratio (x) = 0.41579 0.14399
# Poissons Ratio (y) = 0.65004 0.24052
# Poissons Ratio (z) = 0.28613 0.30572
#
# Static dielectric constant tensor:
#      x y z
#    x 4.586810 0.000000 0.000000 
#    y 0.000000 4.162430 0.000000 
#    z 0.000000 0.000000 3.853950 
# 
# 
# High freq. dielectric constant tensor:
#      x y z
#    x 1.925150 0.000000 0.000000 
#    y 0.000000 1.885900 0.000000 
#    z 0.000000 0.000000 1.873640 
# 
# From -- ./inp_files/45108.got.cif
#   From: 2010.03.12/outbox.cif.g09.slc.cpg/sg68_23_cif.got.tgz:45108.got - 2010.04.10 23:14:56.
