data_PCOD8282537
_publ_section_title
;
Structure prediction by ZEFSAII (Michael W. Deem and Ramdas Pophale) SiO2 
 PCOD8282537
Probable space group: C C C A
;
_chemical_formula_sum "Si O2"
_cell_formula_units_Z 104
_cell_length_a 8.625403
_cell_length_b 25.617926
_cell_length_c 22.134657
_cell_angle_alpha 90.000000
_cell_angle_beta 90.000000
_cell_angle_gamma 90.000000
_cell_volume 4890.983062
_symmetry_space_group_name_H-M "C C C A"
_symmetry_group_IT_number 68
_space_group.IT_coordinate_system_code '2'
_symmetry_cell_setting 'orthorhombic'
loop_
_space_group_symop_operation_xyz
x,y,z
-x,1/2-y,z
x,1/2-y,1/2-z
-x,y,1/2-z
-x,-y,-z
x,1/2+y,-z
-x,1/2+y,1/2+z
x,-y,1/2+z
1/2+x,1/2+y,z
1/2-x,-y,z
1/2+x,-y,1/2-z
1/2-x,1/2+y,1/2-z
1/2-x,1/2-y,-z
1/2+x,y,-z
1/2-x,y,1/2+z
1/2+x,1/2-y,1/2+z
loop_
_atom_site_type_symbol
_atom_site_label
_atom_site_fract_x
_atom_site_fract_y
_atom_site_fract_z
Si Si1 0.754800 0.441263 0.557279
Si Si2 0.500000 0.444365 0.750000
Si Si3 0.073653 0.626849 0.848843
Si Si4 0.273735 0.658157 0.648689
Si Si5 0.236811 0.729829 0.812704
Si Si6 0.750000 0.500000 0.832244
Si Si7 0.388627 0.922520 0.929673
Si Si8 0.000000 0.826990 0.250000
O O1 0.750000 0.500000 0.583784
O O2 0.643197 0.401793 0.592876
O O3 0.700127 0.441915 0.488450
O O4 0.929652 0.423185 0.560115
O O5 0.385178 0.407796 0.790261
O O6 0.610375 0.479235 0.791314
O O7 0.134575 0.685889 0.844552
O O8 0.888607 0.627988 0.849840
O O9 0.252313 0.720503 0.643143
O O10 0.355528 0.637908 0.587591
O O11 0.375609 0.641574 0.708720
O O12 0.157799 0.750000 0.750000
O O13 0.407124 0.708160 0.798050
O O14 0.670167 0.543740 0.873361
#
# Coordination Sequence:
#
# PCOD8282537 Si02
#       8
#    16   8  16  16  16   8  16   8
#     4  12  27  48  77  98 136 185 249 297 350 419
#     4  12  26  43  64 106 148 182 235 284 366 428
#     4  12  25  43  68 104 140 189 233 290 352 425
#     4  11  22  41  67 102 142 176 237 282 355 426
#     4  10  21  39  66 101 142 188 227 287 354 435
#     4  12  28  44  68 102 148 188 226 302 352 428
#     4  12  26  47  72 100 135 186 238 298 357 418
#     4  10  21  37  63 100 142 187 223 278 350 429
#
# _framework density 21.263618000000001
#
# number of rings (size 3 to 8) (size 9 to 14) (size 15 to 20)
#    0.000    0.615    2.308    7.615    3.231    2.462 
#    0.000    0.769    0.000    1.846    0.000    0.000 
#    0.000    0.000    0.000    0.000    0.000    0.000 
#
# Total GULP energy -644607.165390 kJ/mol
# GULP energy per Si atom -12396.291642 kJ/mol
# Density = 2.121522 g / cm^3
# Si number density = 21.263618 Si / 1000 Ang^3
#
#
#
# Elastic Constant Matrix: (Units=GPa)
#
#
# Indices 1 2 3 4 5 6 
#
# 1 164.8037 49.7033 60.4116 0.0000 0.0000 0.0000
# 2 49.7033 126.4015 57.4465 0.0000 0.0000 0.0000
# 3 60.4116 57.4465 100.9407 0.0000 0.0000 0.0000
# 4 0.0000 0.0000 0.0000 32.1108 0.0000 0.0000
# 5 0.0000 0.0000 0.0000 0.0000 21.2340 0.0000
# 6 0.0000 0.0000 0.0000 0.0000 0.0000 28.0044
#
#
#
# Elastic Compliance Matrix: (Units=1/GPa)
#
#
# Indices 1 2 3 4 5 6 
#
# 1 0.007928 -0.001296 -0.004007 0.000000 0.000000 0.000000
# 2 -0.001296 0.010883 -0.005418 0.000000 0.000000 0.000000
# 3 -0.004007 -0.005418 0.015388 0.000000 0.000000 0.000000
# 4 0.000000 0.000000 0.000000 0.031142 0.000000 0.000000
# 5 0.000000 0.000000 0.000000 0.000000 0.047094 0.000000
# 6 0.000000 0.000000 0.000000 0.000000 0.000000 0.035709
#
#
# Mechanical properties :
#
#
# Convention : Reuss Voigt Hill
#
# Bulk Modulus (GPa) = 78.38848 80.80762 79.59805
# Shear Modulus (GPa) = 28.76223 31.24213 30.00218
#
# Velocity S-wave (km/s) = 3.68183 3.83727 3.76035
# Velocity P-wave (km/s) = 7.41752 7.59725 7.50792
#
# Compressibility (1/GPa) = 0.01275698
#
# Stress axis : x y z
#
# Youngs Moduli (GPa) = 126.14289 91.88309 64.98440
#
# Poissons Ratio (x) = 0.11910 0.26038
# Poissons Ratio (y) = 0.16351 0.35209
# Poissons Ratio (z) = 0.50543 0.49783
#
# Static dielectric constant tensor:
#      x y z
#    x 3.976250 0.000000 0.000000 
#    y 0.000000 4.037180 0.000000 
#    z 0.000000 0.000000 3.031980 
# 
# 
# High freq. dielectric constant tensor:
#      x y z
#    x 1.855360 0.000000 0.000000 
#    y 0.000000 1.842390 0.000000 
#    z 0.000000 0.000000 1.810160 
# 
# From -- ./inp_files/36624.got.cif
#   From: 2010.03.12/outbox.cif.g09.slc.cpg/sg68_19_cif.got.tgz:36624.got - 2010.04.10 23:14:56.
