data_PCOD8282269
_publ_section_title
;
Structure prediction by ZEFSAII (Michael W. Deem and Ramdas Pophale) SiO2 
 PCOD8282269
Probable space group: C C C A
;
_chemical_formula_sum "Si O2"
_cell_formula_units_Z 88
_cell_length_a 14.364514
_cell_length_b 14.271394
_cell_length_c 17.834285
_cell_angle_alpha 90.000000
_cell_angle_beta 90.000000
_cell_angle_gamma 90.000000
_cell_volume 3656.057654
_symmetry_space_group_name_H-M "C C C A"
_symmetry_group_IT_number 68
_space_group.IT_coordinate_system_code '2'
_symmetry_cell_setting 'orthorhombic'
loop_
_space_group_symop_operation_xyz
x,y,z
-x,1/2-y,z
x,1/2-y,1/2-z
-x,y,1/2-z
-x,-y,-z
x,1/2+y,-z
-x,1/2+y,1/2+z
x,-y,1/2+z
1/2+x,1/2+y,z
1/2-x,-y,z
1/2+x,-y,1/2-z
1/2-x,1/2+y,1/2-z
1/2-x,1/2-y,-z
1/2+x,y,-z
1/2-x,y,1/2+z
1/2+x,1/2-y,1/2+z
loop_
_atom_site_type_symbol
_atom_site_label
_atom_site_fract_x
_atom_site_fract_y
_atom_site_fract_z
Si Si1 0.559984 0.163955 0.143099
Si Si2 0.750000 0.000000 0.330914
Si Si3 0.417119 0.468265 0.430438
Si Si4 0.638004 0.839974 0.488195
Si Si5 0.668920 0.358627 0.943712
Si Si6 0.744645 0.149492 0.715595
O O1 0.500000 0.250000 0.177699
O O2 0.502277 0.069964 0.120653
O O3 0.643806 0.139509 0.200080
O O4 0.600190 0.203538 0.065532
O O5 0.673140 0.050423 0.381043
O O6 0.792489 0.080436 0.279206
O O7 0.425204 0.579184 0.450105
O O8 0.411203 0.417079 0.512537
O O9 0.642951 0.750668 0.434514
O O10 0.740366 0.879892 0.505533
O O11 0.687493 0.385605 0.857574
O O12 0.720321 0.250000 0.750000
#
# Coordination Sequence:
#
# PCOD8282269 Si02
#       6
#    16   8  16  16  16  16
#     4  11  23  40  67  99 134 170 223 289 350 392
#     4  12  26  40  66  96 132 184 226 272 350 410
#     4  12  22  41  68  97 132 174 232 287 331 404
#     4  10  20  37  64  98 125 167 218 283 334 385
#     4  10  21  39  69  94 132 174 231 282 329 406
#     4  11  26  44  66 100 142 182 222 280 350 426
#
# _framework density 24.069642999999999
#
# number of rings (size 3 to 8) (size 9 to 14) (size 15 to 20)
#    0.000    1.091    3.636    2.727    7.636    2.545 
#    0.000    0.000    0.000    0.000    0.000    0.000 
#    0.000    0.000    0.000    0.000    0.000    0.000 
#
# Total GULP energy -545248.936149 kJ/mol
# GULP energy per Si atom -12392.021276 kJ/mol
# Density = 2.401486 g / cm^3
# Si number density = 24.069643 Si / 1000 Ang^3
#
#
#
# Elastic Constant Matrix: (Units=GPa)
#
#
# Indices 1 2 3 4 5 6 
#
# 1 47.2699 -3.4483 16.7461 0.0000 0.0000 0.0000
# 2 -3.4483 92.0957 34.1387 0.0000 0.0000 0.0000
# 3 16.7461 34.1387 110.2975 0.0000 0.0000 0.0000
# 4 0.0000 0.0000 0.0000 37.5403 0.0000 0.0000
# 5 0.0000 0.0000 0.0000 0.0000 115.9750 0.0000
# 6 0.0000 0.0000 0.0000 0.0000 0.0000 8.8420
#
#
#
# Elastic Compliance Matrix: (Units=1/GPa)
#
#
# Indices 1 2 3 4 5 6 
#
# 1 0.022824 0.002416 -0.004213 0.000000 0.000000 0.000000
# 2 0.002416 0.012521 -0.004242 0.000000 0.000000 0.000000
# 3 -0.004213 -0.004242 0.011019 0.000000 0.000000 0.000000
# 4 0.000000 0.000000 0.000000 0.026638 0.000000 0.000000
# 5 0.000000 0.000000 0.000000 0.000000 0.008623 0.000000
# 6 0.000000 0.000000 0.000000 0.000000 0.000000 0.113096
#
#
# Mechanical properties :
#
#
# Convention : Reuss Voigt Hill
#
# Bulk Modulus (GPa) = 29.16641 38.28179 33.72410
# Shear Modulus (GPa) = 22.91175 45.95324 34.43250
#
# Velocity S-wave (km/s) = 3.08863 4.37415 3.78635
# Velocity P-wave (km/s) = 4.98631 6.43817 5.75818
#
# Compressibility (1/GPa) = 0.03428602
#
# Stress axis : x y z
#
# Youngs Moduli (GPa) = 43.81358 79.86351 90.75105
#
# Poissons Ratio (x) = -0.19298 0.38235
# Poissons Ratio (y) = -0.10587 0.38500
# Poissons Ratio (z) = 0.18460 0.33881
#
# Static dielectric constant tensor:
#      x y z
#    x 4.376600 0.000000 0.000000 
#    y 0.000000 4.251280 0.000000 
#    z 0.000000 0.000000 4.325160 
# 
# 
# High freq. dielectric constant tensor:
#      x y z
#    x 1.942510 0.000000 0.000000 
#    y 0.000000 1.956180 0.000000 
#    z 0.000000 0.000000 1.954140 
# 
# From -- ./inp_files/31882.got.cif
#   From: 2010.03.12/outbox.cif.g09.slc.cpg/sg68_16_cif.got.tgz:31882.got - 2010.04.10 23:14:56.
