data_PCOD8282235
_publ_section_title
;
Structure prediction by ZEFSAII (Michael W. Deem and Ramdas Pophale) SiO2 
 PCOD8282235
Probable space group: C C C A
;
_chemical_formula_sum "Si O2"
_cell_formula_units_Z 104
_cell_length_a 9.406111
_cell_length_b 26.452347
_cell_length_c 20.031077
_cell_angle_alpha 90.000000
_cell_angle_beta 90.000000
_cell_angle_gamma 90.000000
_cell_volume 4984.006626
_symmetry_space_group_name_H-M "C C C A"
_symmetry_group_IT_number 68
_space_group.IT_coordinate_system_code '2'
_symmetry_cell_setting 'orthorhombic'
loop_
_space_group_symop_operation_xyz
x,y,z
-x,1/2-y,z
x,1/2-y,1/2-z
-x,y,1/2-z
-x,-y,-z
x,1/2+y,-z
-x,1/2+y,1/2+z
x,-y,1/2+z
1/2+x,1/2+y,z
1/2-x,-y,z
1/2+x,-y,1/2-z
1/2-x,1/2+y,1/2-z
1/2-x,1/2-y,-z
1/2+x,y,-z
1/2-x,y,1/2+z
1/2+x,1/2-y,1/2+z
loop_
_atom_site_type_symbol
_atom_site_label
_atom_site_fract_x
_atom_site_fract_y
_atom_site_fract_z
Si Si1 0.784666 0.442521 0.224509
Si Si2 0.250000 0.500000 0.957536
Si Si3 0.208248 0.578035 0.063338
Si Si4 0.694215 0.336190 0.021843
Si Si5 0.527635 0.303988 0.582716
Si Si6 0.954180 0.407736 0.347536
Si Si7 0.920470 0.579811 0.119565
O O1 0.750000 0.500000 0.246903
O O2 0.849032 0.408399 0.283516
O O3 0.643107 0.415901 0.194629
O O4 0.904680 0.441144 0.165259
O O5 0.137360 0.472203 0.911026
O O6 0.166666 0.539278 0.005039
O O7 0.210043 0.633493 0.031520
O O8 0.365427 0.566115 0.092704
O O9 0.091624 0.576045 0.122602
O O10 0.573273 0.305159 0.982965
O O11 0.618690 0.373119 0.073961
O O12 0.806450 0.301997 0.061762
O O13 0.500000 0.250000 0.618923
O O14 0.495621 0.350187 0.633393
#
# Coordination Sequence:
#
# PCOD8282235 Si02
#       7
#    16   8  16  16  16  16  16
#     4  11  24  41  62  80 120 168 217 259 304 362
#     4  10  22  30  54  90 118 166 208 246 306 392
#     4  10  22  34  57  85 129 155 201 258 314 371
#     4  10  20  37  58  96 127 157 197 258 321 396
#     4  11  21  40  68  96 128 166 207 265 330 378
#     4  10  25  43  58  90 125 159 219 263 300 382
#     4  11  20  36  57  82 125 168 205 256 316 363
#
# _framework density 20.866745000000002
#
# number of rings (size 3 to 8) (size 9 to 14) (size 15 to 20)
#    0.000    1.538    3.846    0.923    3.231    1.846 
#    0.000    1.538    0.000    0.000    0.000    0.000 
#    9.231    0.000    0.000    0.000    0.000    0.000 
#
# Total GULP energy -644548.278360 kJ/mol
# GULP energy per Si atom -12395.159199 kJ/mol
# Density = 2.081925 g / cm^3
# Si number density = 20.866745 Si / 1000 Ang^3
#
#
#
# Elastic Constant Matrix: (Units=GPa)
#
#
# Indices 1 2 3 4 5 6 
#
# 1 78.3167 25.7488 -0.7594 0.0000 0.0000 0.0000
# 2 25.7488 88.1476 13.3219 0.0000 0.0000 0.0000
# 3 -0.7594 13.3219 43.1385 0.0000 0.0000 0.0000
# 4 0.0000 0.0000 0.0000 20.2247 0.0000 0.0000
# 5 0.0000 0.0000 0.0000 0.0000 37.3383 0.0000
# 6 0.0000 0.0000 0.0000 0.0000 0.0000 19.1432
#
#
#
# Elastic Compliance Matrix: (Units=1/GPa)
#
#
# Indices 1 2 3 4 5 6 
#
# 1 0.014231 -0.004400 0.001609 0.000000 0.000000 0.000000
# 2 -0.004400 0.013261 -0.004173 0.000000 0.000000 0.000000
# 3 0.001609 -0.004173 0.024498 0.000000 0.000000 0.000000
# 4 0.000000 0.000000 0.000000 0.049444 0.000000 0.000000
# 5 0.000000 0.000000 0.000000 0.000000 0.026782 0.000000
# 6 0.000000 0.000000 0.000000 0.000000 0.000000 0.052238
#
#
# Mechanical properties :
#
#
# Convention : Reuss Voigt Hill
#
# Bulk Modulus (GPa) = 26.27241 31.80283 29.03762
# Shear Modulus (GPa) = 24.14662 26.76068 25.45365
#
# Velocity S-wave (km/s) = 3.40543 3.58502 3.49638
# Velocity P-wave (km/s) = 5.29910 5.69302 5.49959
#
# Compressibility (1/GPa) = 0.03806275
#
# Stress axis : x y z
#
# Youngs Moduli (GPa) = 70.26923 75.41151 40.81965
#
# Poissons Ratio (x) = 0.33183 -0.06569
# Poissons Ratio (y) = 0.30920 0.17032
# Poissons Ratio (z) = -0.11309 0.31466
#
# Static dielectric constant tensor:
#      x y z
#    x 4.006900 0.000000 0.000000 
#    y 0.000000 3.593800 0.000000 
#    z 0.000000 0.000000 3.744960 
# 
# 
# High freq. dielectric constant tensor:
#      x y z
#    x 1.832340 0.000000 0.000000 
#    y 0.000000 1.789450 0.000000 
#    z 0.000000 0.000000 1.801390 
# 
# From -- ./inp_files/43473.got.cif
#   From: 2010.03.12/outbox.cif.g09.slc.cpg/sg68_22_cif.got.tgz:43473.got - 2010.04.10 23:14:56.
