data_PCOD8282460
_publ_section_title
;
Structure prediction by ZEFSAII (Michael W. Deem and Ramdas Pophale) SiO2 
 PCOD8282460
Probable space group: C C C A
;
_chemical_formula_sum "Si O2"
_cell_formula_units_Z 116
_cell_length_a 28.235736
_cell_length_b 21.416676
_cell_length_c 9.445913
_cell_angle_alpha 90.000000
_cell_angle_beta 90.000000
_cell_angle_gamma 90.000000
_cell_volume 5712.091037
_symmetry_space_group_name_H-M "C C C A"
_symmetry_group_IT_number 68
_space_group.IT_coordinate_system_code '2'
_symmetry_cell_setting 'orthorhombic'
loop_
_space_group_symop_operation_xyz
x,y,z
-x,1/2-y,z
x,1/2-y,1/2-z
-x,y,1/2-z
-x,-y,-z
x,1/2+y,-z
-x,1/2+y,1/2+z
x,-y,1/2+z
1/2+x,1/2+y,z
1/2-x,-y,z
1/2+x,-y,1/2-z
1/2-x,1/2+y,1/2-z
1/2-x,1/2-y,-z
1/2+x,y,-z
1/2-x,y,1/2+z
1/2+x,1/2-y,1/2+z
loop_
_atom_site_type_symbol
_atom_site_label
_atom_site_fract_x
_atom_site_fract_y
_atom_site_fract_z
Si Si1 0.195578 0.890602 0.400361
Si Si2 0.419331 0.019376 0.618943
Si Si3 0.774576 0.932404 0.785816
Si Si4 0.962711 0.346253 0.044155
Si Si5 0.891043 0.817545 0.190639
Si Si6 0.500000 0.750000 0.250000
Si Si7 0.460431 0.107781 0.133817
Si Si8 0.856899 0.989091 0.631070
O O1 0.210207 0.902889 0.563752
O O2 0.241068 0.883432 0.297867
O O3 0.159080 0.833749 0.383795
O O4 0.167475 0.946765 0.328266
O O5 0.438296 0.087099 0.576663
O O6 0.405438 0.021489 0.783599
O O7 0.458244 0.965801 0.598707
O O8 0.372164 0.996409 0.533154
O O9 0.819279 0.936075 0.676810
O O10 0.750000 0.000000 0.812438
O O11 0.964047 0.295607 0.167554
O O12 0.932439 0.313550 0.923339
O O13 0.018078 0.357280 0.003255
O O14 0.882315 0.750000 0.250000
O O15 0.909573 0.864489 0.315754
O O16 0.500000 0.118492 0.250000
#
# Coordination Sequence:
#
# PCOD8282460 Si02
#       8
#    16  16  16  16  16   4  16  16
#     4  11  21  39  58  95 123 164 208 254 311 379
#     4  12  22  37  65  96 134 161 209 267 327 376
#     4  10  21  34  62  91 132 161 197 253 320 383
#     4  11  24  42  59  90 129 165 217 264 316 379
#     4  11  22  43  68  85 119 170 222 262 302 383
#     4  12  28  40  58  88 128 180 210 258 320 380
#     4  10  22  39  64  95 120 166 215 265 323 377
#     4  11  20  36  59  96 128 162 198 256 319 382
#
# _framework density 20.307798999999999
#
# number of rings (size 3 to 8) (size 9 to 14) (size 15 to 20)
#    0.000    1.103    4.138    3.310    4.828    1.931 
#    0.000    0.690    3.034    0.000    0.000    0.000 
#    0.000    0.000    0.000    0.000    0.000    0.000 
#
# Total GULP energy -718559.516746 kJ/mol
# GULP energy per Si atom -12388.957185 kJ/mol
# Density = 2.026158 g / cm^3
# Si number density = 20.307799 Si / 1000 Ang^3
#
#
#
# Elastic Constant Matrix: (Units=GPa)
#
#
# Indices 1 2 3 4 5 6 
#
# 1 90.5427 41.4320 35.4683 0.0000 0.0000 0.0000
# 2 41.4320 92.1571 41.1202 0.0000 0.0000 0.0000
# 3 35.4683 41.1202 69.7476 0.0000 0.0000 0.0000
# 4 0.0000 0.0000 0.0000 24.7659 0.0000 0.0000
# 5 0.0000 0.0000 0.0000 0.0000 12.5408 0.0000
# 6 0.0000 0.0000 0.0000 0.0000 0.0000 19.6026
#
#
#
# Elastic Compliance Matrix: (Units=1/GPa)
#
#
# Indices 1 2 3 4 5 6 
#
# 1 0.015082 -0.004557 -0.004983 0.000000 0.000000 0.000000
# 2 -0.004557 0.016101 -0.007175 0.000000 0.000000 0.000000
# 3 -0.004983 -0.007175 0.021101 0.000000 0.000000 0.000000
# 4 0.000000 0.000000 0.000000 0.040378 0.000000 0.000000
# 5 0.000000 0.000000 0.000000 0.000000 0.079740 0.000000
# 6 0.000000 0.000000 0.000000 0.000000 0.000000 0.051014
#
#
# Mechanical properties :
#
#
# Convention : Reuss Voigt Hill
#
# Bulk Modulus (GPa) = 53.03825 54.27648 53.65737
# Shear Modulus (GPa) = 19.00193 20.34367 19.67280
#
# Velocity S-wave (km/s) = 3.06223 3.16850 3.11582
# Velocity P-wave (km/s) = 6.21908 6.33805 6.27884
#
# Compressibility (1/GPa) = 0.01885432
#
# Stress axis : x y z
#
# Youngs Moduli (GPa) = 66.30545 62.10618 47.39003
#
# Poissons Ratio (x) = 0.28303 0.23613
# Poissons Ratio (y) = 0.30217 0.34004
# Poissons Ratio (z) = 0.33038 0.44563
#
# Static dielectric constant tensor:
#      x y z
#    x 4.053220 0.000000 0.000000 
#    y 0.000000 3.417230 0.000000 
#    z 0.000000 0.000000 3.817950 
# 
# 
# High freq. dielectric constant tensor:
#      x y z
#    x 1.798320 0.000000 0.000000 
#    y 0.000000 1.761180 0.000000 
#    z 0.000000 0.000000 1.799150 
# 
# From -- ./inp_files/8341.got.cif
#   From: 2010.03.12/outbox.cif.g09.slc.cpg/sg68_5_cif.got.tgz:8341.got - 2010.04.10 23:14:56.
