data_PCOD8282434
_publ_section_title
;
Structure prediction by ZEFSAII (Michael W. Deem and Ramdas Pophale) SiO2 
 PCOD8282434
Probable space group: C C C A
;
_chemical_formula_sum "Si O2"
_cell_formula_units_Z 96
_cell_length_a 18.029574
_cell_length_b 9.543124
_cell_length_c 27.311750
_cell_angle_alpha 90.000000
_cell_angle_beta 90.000000
_cell_angle_gamma 90.000000
_cell_volume 4699.217654
_symmetry_space_group_name_H-M "C C C A"
_symmetry_group_IT_number 68
_space_group.IT_coordinate_system_code '2'
_symmetry_cell_setting 'orthorhombic'
loop_
_space_group_symop_operation_xyz
x,y,z
-x,1/2-y,z
x,1/2-y,1/2-z
-x,y,1/2-z
-x,-y,-z
x,1/2+y,-z
-x,1/2+y,1/2+z
x,-y,1/2+z
1/2+x,1/2+y,z
1/2-x,-y,z
1/2+x,-y,1/2-z
1/2-x,1/2+y,1/2-z
1/2-x,1/2-y,-z
1/2+x,y,-z
1/2-x,y,1/2+z
1/2+x,1/2-y,1/2+z
loop_
_atom_site_type_symbol
_atom_site_label
_atom_site_fract_x
_atom_site_fract_y
_atom_site_fract_z
Si Si1 0.690515 0.606521 0.722351
Si Si2 0.419631 0.015344 0.475128
Si Si3 0.583808 0.602065 0.263800
Si Si4 0.865135 0.049938 0.129760
Si Si5 0.326913 0.286465 0.475058
Si Si6 0.275779 0.768403 0.871568
O O1 0.688322 0.750000 0.750000
O O2 0.750000 0.500000 0.746376
O O3 0.613461 0.525276 0.730046
O O4 0.713547 0.643999 0.667346
O O5 0.392800 0.174070 0.481090
O O6 0.500000 0.000000 0.500000
O O7 0.418488 0.966590 0.417940
O O8 0.357280 0.930179 0.503881
O O9 0.624631 0.750000 0.250000
O O10 0.500000 0.616543 0.250000
O O11 0.587146 0.577576 0.321970
O O12 0.809267 0.181018 0.121336
O O13 0.822396 0.906488 0.141057
O O14 0.250000 0.250000 0.500000
O O15 0.308057 0.307205 0.418733
#
# Coordination Sequence:
#
# PCOD8282434 Si02
#       6
#    16  16  16  16  16  16
#     4  12  23  39  66  98 128 167 222 278 323 393
#     4  11  24  42  67  98 135 178 217 279 345 404
#     4  11  25  45  63  93 135 179 218 273 340 404
#     4  10  20  43  66  90 135 177 213 270 347 393
#     4  11  22  43  66  96 131 174 226 272 331 404
#     4  10  21  38  68  97 125 175 219 271 330 392
#
# _framework density 20.428933000000001
#
# number of rings (size 3 to 8) (size 9 to 14) (size 15 to 20)
#    0.000    1.167    3.333    3.500    0.000    3.000 
#    9.000    1.667    0.000    0.000    0.000    0.000 
#    0.000    0.000    0.000    0.000    0.000    0.000 
#
# Total GULP energy -595028.942299 kJ/mol
# GULP energy per Si atom -12396.436298 kJ/mol
# Density = 2.038244 g / cm^3
# Si number density = 20.428933 Si / 1000 Ang^3
#
#
#
# Elastic Constant Matrix: (Units=GPa)
#
#
# Indices 1 2 3 4 5 6 
#
# 1 95.8756 19.9263 37.8485 0.0000 0.0000 0.0000
# 2 19.9263 96.5908 39.7101 0.0000 0.0000 0.0000
# 3 37.8485 39.7101 106.1550 0.0000 0.0000 0.0000
# 4 0.0000 0.0000 0.0000 31.5644 0.0000 0.0000
# 5 0.0000 0.0000 0.0000 0.0000 36.9597 0.0000
# 6 0.0000 0.0000 0.0000 0.0000 0.0000 30.7383
#
#
#
# Elastic Compliance Matrix: (Units=1/GPa)
#
#
# Indices 1 2 3 4 5 6 
#
# 1 0.012199 -0.000861 -0.004027 0.000000 0.000000 0.000000
# 2 -0.000861 0.012295 -0.004292 0.000000 0.000000 0.000000
# 3 -0.004027 -0.004292 0.012462 0.000000 0.000000 0.000000
# 4 0.000000 0.000000 0.000000 0.031681 0.000000 0.000000
# 5 0.000000 0.000000 0.000000 0.000000 0.027057 0.000000
# 6 0.000000 0.000000 0.000000 0.000000 0.000000 0.032533
#
#
# Mechanical properties :
#
#
# Convention : Reuss Voigt Hill
#
# Bulk Modulus (GPa) = 53.77888 54.84343 54.31116
# Shear Modulus (GPa) = 32.72549 33.26157 32.99353
#
# Velocity S-wave (km/s) = 4.00674 4.03942 4.02312
# Velocity P-wave (km/s) = 6.91284 6.97568 6.94433
#
# Compressibility (1/GPa) = 0.01859466
#
# Stress axis : x y z
#
# Youngs Moduli (GPa) = 81.97405 81.33231 80.24517
#
# Poissons Ratio (x) = 0.07002 0.32318
# Poissons Ratio (y) = 0.07057 0.34445
# Poissons Ratio (z) = 0.33014 0.34911
#
# Static dielectric constant tensor:
#      x y z
#    x 3.608050 0.000000 0.000000 
#    y 0.000000 29.798880 0.000000 
#    z 0.000000 0.000000 4.342020 
# 
# 
# High freq. dielectric constant tensor:
#      x y z
#    x 1.787060 0.000000 0.000000 
#    y 0.000000 1.809780 0.000000 
#    z 0.000000 0.000000 1.811320 
# 
# From -- ./inp_files/51735.got.cif
#   From: 2010.03.12/outbox.cif.g09.slc.cpg/sg68_26_cif.got.tgz:51735.got - 2010.04.10 23:14:56.
