data_PCOD8282344
_publ_section_title
;
Structure prediction by ZEFSAII (Michael W. Deem and Ramdas Pophale) SiO2 
 PCOD8282344
Probable space group: C C C A
;
_chemical_formula_sum "Si O2"
_cell_formula_units_Z 44
_cell_length_a 5.112942
_cell_length_b 28.136299
_cell_length_c 15.287940
_cell_angle_alpha 90.000000
_cell_angle_beta 90.000000
_cell_angle_gamma 90.000000
_cell_volume 2199.311810
_symmetry_space_group_name_H-M "C C C A"
_symmetry_group_IT_number 68
_space_group.IT_coordinate_system_code '2'
_symmetry_cell_setting 'orthorhombic'
loop_
_space_group_symop_operation_xyz
x,y,z
-x,1/2-y,z
x,1/2-y,1/2-z
-x,y,1/2-z
-x,-y,-z
x,1/2+y,-z
-x,1/2+y,1/2+z
x,-y,1/2+z
1/2+x,1/2+y,z
1/2-x,-y,z
1/2+x,-y,1/2-z
1/2-x,1/2+y,1/2-z
1/2-x,1/2-y,-z
1/2+x,y,-z
1/2-x,y,1/2+z
1/2+x,1/2-y,1/2+z
loop_
_atom_site_type_symbol
_atom_site_label
_atom_site_fract_x
_atom_site_fract_y
_atom_site_fract_z
Si Si1 0.740014 0.340763 0.303419
Si Si2 0.500000 0.750000 0.750000
Si Si3 0.750000 0.500000 0.809576
Si Si4 0.261187 0.084512 0.442671
O O1 0.500000 0.365239 0.250000
O O2 0.681588 0.283900 0.311265
O O3 0.764062 0.363238 0.399570
O O4 0.000000 0.350909 0.250000
O O5 0.500000 0.508318 0.750000
O O6 0.794976 0.545855 0.869035
O O7 0.550730 0.078273 0.480794
#
# Coordination Sequence:
#
# PCOD8282344 Si02
#       4
#    16   4   8  16
#     4  10  20  39  63  88 116 165 208 250 297 362
#     4   8  22  36  70  84 118 156 224 256 286 354
#     4  12  24  42  66  92 120 168 214 242 292 374
#     4  12  24  40  61  94 131 160 195 259 316 358
#
# _framework density 20.006257000000002
#
# number of rings (size 3 to 8) (size 9 to 14) (size 15 to 20)
#    1.091    0.000    0.000    8.182    0.000    0.000 
#    0.000    1.818    0.000    0.000    0.000    0.000 
#    0.000    0.000    0.000    0.000    0.000    0.000 
#
# Total GULP energy -272773.328327 kJ/mol
# GULP energy per Si atom -12398.787651 kJ/mol
# Density = 1.996072 g / cm^3
# Si number density = 20.006257 Si / 1000 Ang^3
#
#
#
# Elastic Constant Matrix: (Units=GPa)
#
#
# Indices 1 2 3 4 5 6 
#
# 1 128.0413 15.3066 29.0603 0.0000 0.0000 0.0000
# 2 15.3066 119.4859 47.3971 0.0000 0.0000 0.0000
# 3 29.0603 47.3971 86.3169 0.0000 0.0000 0.0000
# 4 0.0000 0.0000 0.0000 20.3135 0.0000 0.0000
# 5 0.0000 0.0000 0.0000 0.0000 27.7766 0.0000
# 6 0.0000 0.0000 0.0000 0.0000 0.0000 6.0024
#
#
#
# Elastic Compliance Matrix: (Units=1/GPa)
#
#
# Indices 1 2 3 4 5 6 
#
# 1 0.008456 0.000059 -0.002879 0.000000 0.000000 0.000000
# 2 0.000059 0.010700 -0.005895 0.000000 0.000000 0.000000
# 3 -0.002879 -0.005895 0.015792 0.000000 0.000000 0.000000
# 4 0.000000 0.000000 0.000000 0.049228 0.000000 0.000000
# 5 0.000000 0.000000 0.000000 0.000000 0.036002 0.000000
# 6 0.000000 0.000000 0.000000 0.000000 0.000000 0.166599
#
#
# Mechanical properties :
#
#
# Convention : Reuss Voigt Hill
#
# Bulk Modulus (GPa) = 57.08828 57.48579 57.28704
# Shear Modulus (GPa) = 16.12652 26.95717 21.54185
#
# Velocity S-wave (km/s) = 2.84222 3.67473 3.28496
# Velocity P-wave (km/s) = 6.27440 6.84113 6.56389
#
# Compressibility (1/GPa) = 0.01751673
#
# Stress axis : x y z
#
# Youngs Moduli (GPa) = 118.25304 93.45628 63.32403
#
# Poissons Ratio (x) = -0.00550 0.18233
# Poissons Ratio (y) = -0.00696 0.37332
# Poissons Ratio (z) = 0.34049 0.55096
#
# Static dielectric constant tensor:
#      x y z
#    x 3.789800 0.000000 0.000000 
#    y 0.000000 3.691800 0.000000 
#    z 0.000000 0.000000 3.553860 
# 
# 
# High freq. dielectric constant tensor:
#      x y z
#    x 1.800760 0.000000 0.000000 
#    y 0.000000 1.783460 0.000000 
#    z 0.000000 0.000000 1.764370 
# 
# From -- ./inp_files/18160.got.cif
#   From: 2010.03.12/outbox.cif.g09.slc.cpg/sg68_10_cif.got.tgz:18160.got - 2010.04.10 23:14:56.
