data_PCOD8282663
_publ_section_title
;
Structure prediction by ZEFSAII (Michael W. Deem and Ramdas Pophale) SiO2 
 PCOD8282663
Probable space group: C C C A
;
_chemical_formula_sum "Si O2"
_cell_formula_units_Z 64
_cell_length_a 12.861505
_cell_length_b 33.750236
_cell_length_c 5.319632
_cell_angle_alpha 90.000000
_cell_angle_beta 90.000000
_cell_angle_gamma 90.000000
_cell_volume 2309.139630
_symmetry_space_group_name_H-M "C C C A"
_symmetry_group_IT_number 68
_space_group.IT_coordinate_system_code '2'
_symmetry_cell_setting 'orthorhombic'
loop_
_space_group_symop_operation_xyz
x,y,z
-x,1/2-y,z
x,1/2-y,1/2-z
-x,y,1/2-z
-x,-y,-z
x,1/2+y,-z
-x,1/2+y,1/2+z
x,-y,1/2+z
1/2+x,1/2+y,z
1/2-x,-y,z
1/2+x,-y,1/2-z
1/2-x,1/2+y,1/2-z
1/2-x,1/2-y,-z
1/2+x,y,-z
1/2-x,y,1/2+z
1/2+x,1/2-y,1/2+z
loop_
_atom_site_type_symbol
_atom_site_label
_atom_site_fract_x
_atom_site_fract_y
_atom_site_fract_z
Si Si1 0.115435 0.767000 0.503221
Si Si2 0.368929 0.641100 0.394715
Si Si3 0.135960 0.108655 0.610979
Si Si4 0.880432 0.481318 0.693406
O O1 0.174191 0.750000 0.750000
O O2 0.119140 0.813932 0.521074
O O3 0.000000 0.750000 0.503823
O O4 0.170253 0.750000 0.250000
O O5 0.249564 0.628089 0.348905
O O6 0.422257 0.616149 0.621736
O O7 0.422430 0.630548 0.124532
O O8 0.142362 0.061773 0.577402
O O9 0.832907 0.510570 0.474623
O O10 0.000000 0.489921 0.750000
#
# Coordination Sequence:
#
# PCOD8282663 Si02
#       4
#    16  16  16  16
#     4  10  21  40  62  88 122 162 212 263 315 376
#     4  10  21  40  61  88 131 156 212 257 317 380
#     4  10  21  40  61  93 125 167 203 259 319 373
#     4  10  21  40  64  91 127 166 210 256 307 375
#
# _framework density 27.715948000000001
#
# number of rings (size 3 to 8) (size 9 to 14) (size 15 to 20)
#    0.000    2.000    0.000    3.000    0.000    0.000 
#   13.500   30.000    0.000    0.000    0.000    0.000 
#    0.000    0.000    0.000    0.000    0.000    0.000 
#
# Total GULP energy -396433.523726 kJ/mol
# GULP energy per Si atom -12388.547616 kJ/mol
# Density = 2.765287 g / cm^3
# Si number density = 27.715948 Si / 1000 Ang^3
#
#
#
# Elastic Constant Matrix: (Units=GPa)
#
#
# Indices 1 2 3 4 5 6 
#
# 1 53.3379 -14.0828 -0.1345 0.0000 0.0000 0.0000
# 2 -14.0828 188.3171 91.8457 0.0000 0.0000 0.0000
# 3 -0.1345 91.8457 332.2717 0.0000 0.0000 0.0000
# 4 0.0000 0.0000 0.0000 56.4635 0.0000 0.0000
# 5 0.0000 0.0000 0.0000 0.0000 -76.8222 0.0000
# 6 0.0000 0.0000 0.0000 0.0000 0.0000 40.3896
#
#
#
# Elastic Compliance Matrix: (Units=1/GPa)
#
#
# Indices 1 2 3 4 5 6 
#
# 1 0.019184 0.001654 -0.000449 0.000000 0.000000 0.000000
# 2 0.001654 0.006280 -0.001735 0.000000 0.000000 0.000000
# 3 -0.000449 -0.001735 0.003489 0.000000 0.000000 0.000000
# 4 0.000000 0.000000 0.000000 0.017711 0.000000 0.000000
# 5 0.000000 0.000000 0.000000 0.000000 -0.013017 0.000000
# 6 0.000000 0.000000 0.000000 0.000000 0.000000 0.024759
#
#
# Mechanical properties :
#
#
# Convention : Reuss Voigt Hill
#
# Bulk Modulus (GPa) = 35.85329 81.02038 58.43684
# Shear Modulus (GPa) = 72.71199 37.09272 54.90236
#
# Velocity S-wave (km/s) = 5.12754 3.66227 4.45555
# Velocity P-wave (km/s) = 6.92962 6.86868 6.89922
#
# Compressibility (1/GPa) = 0.02789145
#
# Stress axis : x y z
#
# Youngs Moduli (GPa) = 52.12698 159.23064 286.60952
#
# Poissons Ratio (x) = -0.26333 0.12879
# Poissons Ratio (y) = -0.08621 0.49735
# Poissons Ratio (z) = 0.02342 0.27631
#
# Static dielectric constant tensor:
#      x y z
#    x 4.914880 0.000000 0.000000 
#    y 0.000000 4.857070 0.000000 
#    z 0.000000 0.000000 5.823080 
# 
# 
# High freq. dielectric constant tensor:
#      x y z
#    x 2.151690 0.000000 0.000000 
#    y 0.000000 2.094210 0.000000 
#    z 0.000000 0.000000 2.167960 
# 
# From -- ./inp_files/1110.got.cif
#   From: 2010.03.12/outbox.cif.g09.slc.cpg/sg68_1_cif.got.tgz:1110.got - 2010.04.10 23:14:56.
