data_PCOD8282944
_publ_section_title
;
Structure prediction by ZEFSAII (Michael W. Deem and Ramdas Pophale) SiO2 
 PCOD8282944
Probable space group: C C C A
;
_chemical_formula_sum "Si O2"
_cell_formula_units_Z 116
_cell_length_a 27.741327
_cell_length_b 22.378752
_cell_length_c 9.401164
_cell_angle_alpha 90.000000
_cell_angle_beta 90.000000
_cell_angle_gamma 90.000000
_cell_volume 5836.395635
_symmetry_space_group_name_H-M "C C C A"
_symmetry_group_IT_number 68
_space_group.IT_coordinate_system_code '2'
_symmetry_cell_setting 'orthorhombic'
loop_
_space_group_symop_operation_xyz
x,y,z
-x,1/2-y,z
x,1/2-y,1/2-z
-x,y,1/2-z
-x,-y,-z
x,1/2+y,-z
-x,1/2+y,1/2+z
x,-y,1/2+z
1/2+x,1/2+y,z
1/2-x,-y,z
1/2+x,-y,1/2-z
1/2-x,1/2+y,1/2-z
1/2-x,1/2-y,-z
1/2+x,y,-z
1/2-x,y,1/2+z
1/2+x,1/2-y,1/2+z
loop_
_atom_site_type_symbol
_atom_site_label
_atom_site_fract_x
_atom_site_fract_y
_atom_site_fract_z
Si Si1 0.500000 0.250000 0.250000
Si Si2 0.280737 0.929400 0.732575
Si Si3 0.693207 0.461842 0.553908
Si Si4 0.065511 0.339090 0.924780
Si Si5 0.946812 0.180566 0.236781
Si Si6 0.492854 0.943837 0.904300
Si Si7 0.345693 0.179868 0.263393
Si Si8 0.603497 0.116755 0.990193
O O1 0.466732 0.211990 0.146576
O O2 0.226199 0.926921 0.671124
O O3 0.298812 0.860997 0.737409
O O4 0.309448 0.970222 0.615430
O O5 0.284967 0.957610 0.892630
O O6 0.639233 0.436436 0.553996
O O7 0.037134 0.400092 0.923204
O O8 0.116620 0.342884 0.851488
O O9 0.078164 0.327560 0.086646
O O10 0.952956 0.250000 0.250000
O O11 0.912485 0.151252 0.351372
O O12 0.000000 0.150473 0.250000
O O13 0.500000 0.971320 0.750000
O O14 0.441881 0.910219 0.924435
O O15 0.500000 0.000000 0.000000
O O16 0.332557 0.250000 0.250000
O O17 0.368809 0.166406 0.416888
#
# Coordination Sequence:
#
# PCOD8282944 Si02
#       8
#     4  16  16  16  16  16  16  16
#     4  12  20  40  66  88 120 176 238 258 316 392
#     4  10  22  42  67 101 123 169 213 273 332 392
#     4  10  22  41  71  92 132 163 218 273 325 406
#     4  12  23  38  64  87 125 176 215 272 316 397
#     4  11  23  36  57  90 122 163 210 263 314 375
#     4  12  27  42  59  88 131 171 219 266 330 392
#     4  11  23  42  67  94 128 171 225 269 322 403
#     4  11  24  44  61  92 132 168 217 267 330 394
#
# _framework density 19.87528
#
# number of rings (size 3 to 8) (size 9 to 14) (size 15 to 20)
#    0.000    0.966    4.138    3.310    3.862    2.207 
#    0.000    3.448    0.000    0.000    0.000    0.000 
#    0.000    0.000    0.000    0.000    0.000    0.000 
#
# Total GULP energy -718795.062061 kJ/mol
# GULP energy per Si atom -12393.018311 kJ/mol
# Density = 1.983004 g / cm^3
# Si number density = 19.875280 Si / 1000 Ang^3
#
#
#
# Elastic Constant Matrix: (Units=GPa)
#
#
# Indices 1 2 3 4 5 6 
#
# 1 67.1467 34.1689 32.1647 0.0000 0.0000 0.0000
# 2 34.1689 138.4145 44.5697 0.0000 0.0000 0.0000
# 3 32.1647 44.5697 151.0142 0.0000 0.0000 0.0000
# 4 0.0000 0.0000 0.0000 36.3783 0.0000 0.0000
# 5 0.0000 0.0000 0.0000 0.0000 -66.3443 0.0000
# 6 0.0000 0.0000 0.0000 0.0000 0.0000 37.7326
#
#
#
# Elastic Compliance Matrix: (Units=1/GPa)
#
#
# Indices 1 2 3 4 5 6 
#
# 1 0.018039 -0.003554 -0.002793 0.000000 0.000000 0.000000
# 2 -0.003554 0.008683 -0.001806 0.000000 0.000000 0.000000
# 3 -0.002793 -0.001806 0.007750 0.000000 0.000000 0.000000
# 4 0.000000 0.000000 0.000000 0.027489 0.000000 0.000000
# 5 0.000000 0.000000 0.000000 0.000000 -0.015073 0.000000
# 6 0.000000 0.000000 0.000000 0.000000 0.000000 0.026502
#
#
# Mechanical properties :
#
#
# Convention : Reuss Voigt Hill
#
# Bulk Modulus (GPa) = 55.04608 64.26466 59.65537
# Shear Modulus (GPa) = 52.21816 17.93147 35.07482
#
# Velocity S-wave (km/s) = 5.13127 3.00692 4.20545
# Velocity P-wave (km/s) = 7.92859 6.66780 7.32537
#
# Compressibility (1/GPa) = 0.01816660
#
# Stress axis : x y z
#
# Youngs Moduli (GPa) = 55.43485 115.16184 129.03492
#
# Poissons Ratio (x) = 0.40925 0.36044
# Poissons Ratio (y) = 0.19700 0.23302
# Poissons Ratio (z) = 0.15485 0.20797
#
# Static dielectric constant tensor:
#      x y z
#    x 3.288300 0.000000 0.000000 
#    y 0.000000 3.708450 0.000000 
#    z 0.000000 0.000000 3.905400 
# 
# 
# High freq. dielectric constant tensor:
#      x y z
#    x 1.763820 0.000000 0.000000 
#    y 0.000000 1.774380 0.000000 
#    z 0.000000 0.000000 1.797390 
# 
# From -- ./inp_files/9171.got.cif
#   From: 2010.03.12/outbox.cif.g09.slc.cpg/sg68_5_cif.got.tgz:9171.got - 2010.04.10 23:14:56.
