data_PCOD8282723
_publ_section_title
;
Structure prediction by ZEFSAII (Michael W. Deem and Ramdas Pophale) SiO2 
 PCOD8282723
Probable space group: C C C A
;
_chemical_formula_sum "Si O2"
_cell_formula_units_Z 116
_cell_length_a 22.473986
_cell_length_b 27.941897
_cell_length_c 8.758075
_cell_angle_alpha 90.000000
_cell_angle_beta 90.000000
_cell_angle_gamma 90.000000
_cell_volume 5499.771591
_symmetry_space_group_name_H-M "C C C A"
_symmetry_group_IT_number 68
_space_group.IT_coordinate_system_code '2'
_symmetry_cell_setting 'orthorhombic'
loop_
_space_group_symop_operation_xyz
x,y,z
-x,1/2-y,z
x,1/2-y,1/2-z
-x,y,1/2-z
-x,-y,-z
x,1/2+y,-z
-x,1/2+y,1/2+z
x,-y,1/2+z
1/2+x,1/2+y,z
1/2-x,-y,z
1/2+x,-y,1/2-z
1/2-x,1/2+y,1/2-z
1/2-x,1/2-y,-z
1/2+x,y,-z
1/2-x,y,1/2+z
1/2+x,1/2-y,1/2+z
loop_
_atom_site_type_symbol
_atom_site_label
_atom_site_fract_x
_atom_site_fract_y
_atom_site_fract_z
Si Si1 0.030133 0.616122 0.402586
Si Si2 0.933246 0.331822 0.074118
Si Si3 0.140740 0.055349 0.605773
Si Si4 0.677616 0.630112 0.237217
Si Si5 0.105134 0.304126 0.752671
Si Si6 0.295081 0.351387 0.411849
Si Si7 0.500000 0.250000 0.750000
Si Si8 0.685878 0.522212 0.295467
O O1 0.077392 0.575693 0.454794
O O2 0.060473 0.666577 0.360483
O O3 0.000000 0.594985 0.250000
O O4 0.984484 0.628362 0.539658
O O5 0.888619 0.352557 0.200319
O O6 0.959711 0.282816 0.140484
O O7 0.896244 0.323556 0.919584
O O8 0.179305 0.100240 0.666899
O O9 0.176168 0.028372 0.473740
O O10 0.135615 0.015535 0.737883
O O11 0.692999 0.646898 0.407969
O O12 0.725131 0.653883 0.121787
O O13 0.679806 0.573195 0.212868
O O14 0.083166 0.250000 0.750000
O O15 0.170874 0.307701 0.827995
O O16 0.750000 0.500000 0.261174
#
# Coordination Sequence:
#
# PCOD8282723 Si02
#       8
#    16  16  16  16  16  16   4  16
#     4   9  21  43  66  91 128 174 219 270 327 388
#     4  11  25  42  67  95 131 178 216 275 326 386
#     4  10  22  38  64  94 130 166 222 267 323 395
#     4  11  24  41  66  96 135 172 213 271 335 390
#     4  10  21  41  69  97 124 170 221 269 327 390
#     4  10  22  41  64  95 132 168 210 273 330 394
#     4  12  28  40  70  96 136 172 234 272 310 412
#     4  11  22  38  64  97 124 167 214 271 323 395
#
# _framework density 21.091784000000001
#
# number of rings (size 3 to 8) (size 9 to 14) (size 15 to 20)
#    0.000    1.655    1.379    2.069    9.655    5.241 
#    1.241    4.138    0.000    0.000    0.000    0.000 
#    0.000    0.000    0.000    0.000    0.000    0.000 
#
# Total GULP energy -719176.241420 kJ/mol
# GULP energy per Si atom -12399.590369 kJ/mol
# Density = 2.104378 g / cm^3
# Si number density = 21.091784 Si / 1000 Ang^3
#
#
#
# Elastic Constant Matrix: (Units=GPa)
#
#
# Indices 1 2 3 4 5 6 
#
# 1 125.5463 52.2233 44.8316 0.0000 0.0000 0.0000
# 2 52.2233 88.9167 40.3990 0.0000 0.0000 0.0000
# 3 44.8316 40.3990 84.5796 0.0000 0.0000 0.0000
# 4 0.0000 0.0000 0.0000 30.9170 0.0000 0.0000
# 5 0.0000 0.0000 0.0000 0.0000 36.2271 0.0000
# 6 0.0000 0.0000 0.0000 0.0000 0.0000 29.4521
#
#
#
# Elastic Compliance Matrix: (Units=1/GPa)
#
#
# Indices 1 2 3 4 5 6 
#
# 1 0.011344 -0.005020 -0.003615 0.000000 0.000000 0.000000
# 2 -0.005020 0.016585 -0.005261 0.000000 0.000000 0.000000
# 3 -0.003615 -0.005261 0.016252 0.000000 0.000000 0.000000
# 4 0.000000 0.000000 0.000000 0.032345 0.000000 0.000000
# 5 0.000000 0.000000 0.000000 0.000000 0.027604 0.000000
# 6 0.000000 0.000000 0.000000 0.000000 0.000000 0.033953
#
#
# Mechanical properties :
#
#
# Convention : Reuss Voigt Hill
#
# Bulk Modulus (GPa) = 61.01575 63.77227 62.39401
# Shear Modulus (GPa) = 29.18181 30.09183 29.63682
#
# Velocity S-wave (km/s) = 3.72366 3.78128 3.75258
# Velocity P-wave (km/s) = 6.89050 7.02605 6.95860
#
# Compressibility (1/GPa) = 0.01638921
#
# Stress axis : x y z
#
# Youngs Moduli (GPa) = 88.14875 60.29427 61.53004
#
# Poissons Ratio (x) = 0.30270 0.22244
# Poissons Ratio (y) = 0.44254 0.32370
# Poissons Ratio (z) = 0.31868 0.31720
#
# Static dielectric constant tensor:
#      x y z
#    x 3.904900 0.000000 0.000000 
#    y 0.000000 3.801010 0.000000 
#    z 0.000000 0.000000 3.702720 
# 
# 
# High freq. dielectric constant tensor:
#      x y z
#    x 1.825620 0.000000 0.000000 
#    y 0.000000 1.813560 0.000000 
#    z 0.000000 0.000000 1.828290 
# 
# From -- ./inp_files/8351.got.cif
#   From: 2010.03.12/outbox.cif.g09.slc.cpg/sg68_5_cif.got.tgz:8351.got - 2010.04.10 23:14:56.
