data_PCOD8282131
_publ_section_title
;
Structure prediction by ZEFSAII (Michael W. Deem and Ramdas Pophale) SiO2 
 PCOD8282131
Probable space group: C C C A
;
_chemical_formula_sum "Si O2"
_cell_formula_units_Z 120
_cell_length_a 26.875552
_cell_length_b 26.805881
_cell_length_c 9.228139
_cell_angle_alpha 90.000000
_cell_angle_beta 90.000000
_cell_angle_gamma 90.000000
_cell_volume 6648.162187
_symmetry_space_group_name_H-M "C C C A"
_symmetry_group_IT_number 68
_space_group.IT_coordinate_system_code '2'
_symmetry_cell_setting 'orthorhombic'
loop_
_space_group_symop_operation_xyz
x,y,z
-x,1/2-y,z
x,1/2-y,1/2-z
-x,y,1/2-z
-x,-y,-z
x,1/2+y,-z
-x,1/2+y,1/2+z
x,-y,1/2+z
1/2+x,1/2+y,z
1/2-x,-y,z
1/2+x,-y,1/2-z
1/2-x,1/2+y,1/2-z
1/2-x,1/2-y,-z
1/2+x,y,-z
1/2-x,y,1/2+z
1/2+x,1/2-y,1/2+z
loop_
_atom_site_type_symbol
_atom_site_label
_atom_site_fract_x
_atom_site_fract_y
_atom_site_fract_z
Si Si1 0.200432 0.439699 0.740713
Si Si2 0.660756 0.977539 0.043046
Si Si3 0.689552 0.102298 0.751441
Si Si4 0.500000 0.495777 0.750000
Si Si5 0.287032 0.207153 0.865815
Si Si6 0.935994 0.457856 0.996653
Si Si7 0.361529 0.123095 0.454422
Si Si8 0.323317 0.225559 0.401802
O O1 0.187502 0.460042 0.898098
O O2 0.196602 0.483424 0.623088
O O3 0.255520 0.419012 0.741882
O O4 0.162343 0.395550 0.697117
O O5 0.607880 0.001332 0.003739
O O6 0.652842 0.930557 0.151032
O O7 0.687022 0.158512 0.695044
O O8 0.672286 0.101343 0.916323
O O9 0.470577 0.531765 0.641133
O O10 0.464409 0.461098 0.849271
O O11 0.282693 0.250000 0.750000
O O12 0.230077 0.196947 0.914822
O O13 0.322599 0.226780 0.993073
O O14 0.916000 0.401175 0.976781
O O15 0.363881 0.183555 0.448584
O O16 0.337357 0.250000 0.250000
#
# Coordination Sequence:
#
# PCOD8282131 Si02
#       8
#    16  16  16   8  16  16  16  16
#     4  11  23  35  48  74 111 163 195 222 262 311
#     4  11  23  36  52  77 116 143 193 231 271 326
#     4  12  22  33  52  74 113 163 195 225 263 308
#     4  10  20  40  64  80 109 137 170 220 306 368
#     4  10  20  35  49  73 107 158 204 225 262 297
#     4  10  21  38  59  84 109 138 172 230 285 352
#     4  11  21  36  55  81 114 142 192 236 269 317
#     4  10  21  33  53  74 111 150 192 240 262 303
#
# _framework density 18.050101999999999
#
# number of rings (size 3 to 8) (size 9 to 14) (size 15 to 20)
#    0.000    1.333    2.667    5.200    1.867    2.133 
#    0.000    0.000    0.000    0.000    0.000    0.467 
#    0.000    0.000    0.000    0.000    0.000    0.000 
#
# Total GULP energy -743967.627317 kJ/mol
# GULP energy per Si atom -12399.460455 kJ/mol
# Density = 1.800902 g / cm^3
# Si number density = 18.050102 Si / 1000 Ang^3
#
#
#
# Elastic Constant Matrix: (Units=GPa)
#
#
# Indices 1 2 3 4 5 6 
#
# 1 64.8841 40.3489 28.2299 0.0000 0.0000 0.0000
# 2 40.3489 104.3641 36.7111 0.0000 0.0000 0.0000
# 3 28.2299 36.7111 111.5691 0.0000 0.0000 0.0000
# 4 0.0000 0.0000 0.0000 30.7274 0.0000 0.0000
# 5 0.0000 0.0000 0.0000 0.0000 30.8889 0.0000
# 6 0.0000 0.0000 0.0000 0.0000 0.0000 16.8006
#
#
#
# Elastic Compliance Matrix: (Units=1/GPa)
#
#
# Indices 1 2 3 4 5 6 
#
# 1 0.021147 -0.007118 -0.003009 0.000000 0.000000 0.000000
# 2 -0.007118 0.013232 -0.002553 0.000000 0.000000 0.000000
# 3 -0.003009 -0.002553 0.010564 0.000000 0.000000 0.000000
# 4 0.000000 0.000000 0.000000 0.032544 0.000000 0.000000
# 5 0.000000 0.000000 0.000000 0.000000 0.032374 0.000000
# 6 0.000000 0.000000 0.000000 0.000000 0.000000 0.059522
#
#
# Mechanical properties :
#
#
# Convention : Reuss Voigt Hill
#
# Bulk Modulus (GPa) = 51.05991 54.59968 52.82980
# Shear Modulus (GPa) = 24.84223 27.38518 26.11371
#
# Velocity S-wave (km/s) = 3.71387 3.89932 3.80772
# Velocity P-wave (km/s) = 6.83664 7.11249 6.97593
#
# Compressibility (1/GPa) = 0.01958484
#
# Stress axis : x y z
#
# Youngs Moduli (GPa) = 47.28732 75.57678 94.65772
#
# Poissons Ratio (x) = 0.53792 0.28481
# Poissons Ratio (y) = 0.33657 0.24165
# Poissons Ratio (z) = 0.14228 0.19294
#
# Static dielectric constant tensor:
#      x y z
#    x 3.165160 0.000000 0.000000 
#    y 0.000000 3.332770 0.000000 
#    z 0.000000 0.000000 3.575110 
# 
# 
# High freq. dielectric constant tensor:
#      x y z
#    x 1.652520 0.000000 0.000000 
#    y 0.000000 1.698560 0.000000 
#    z 0.000000 0.000000 1.723930 
# 
# From -- ./inp_files/9218.got.cif
#   From: 2010.03.12/outbox.cif.g09.slc.cpg/sg68_5_cif.got.tgz:9218.got - 2010.04.10 23:14:56.
