data_PCOD8282701
_publ_section_title
;
Structure prediction by ZEFSAII (Michael W. Deem and Ramdas Pophale) SiO2 
 PCOD8282701
Probable space group: C C C A
;
_chemical_formula_sum "Si O2"
_cell_formula_units_Z 112
_cell_length_a 13.319817
_cell_length_b 26.871123
_cell_length_c 15.107778
_cell_angle_alpha 90.000000
_cell_angle_beta 90.000000
_cell_angle_gamma 90.000000
_cell_volume 5407.352348
_symmetry_space_group_name_H-M "C C C A"
_symmetry_group_IT_number 68
_space_group.IT_coordinate_system_code '2'
_symmetry_cell_setting 'orthorhombic'
loop_
_space_group_symop_operation_xyz
x,y,z
-x,1/2-y,z
x,1/2-y,1/2-z
-x,y,1/2-z
-x,-y,-z
x,1/2+y,-z
-x,1/2+y,1/2+z
x,-y,1/2+z
1/2+x,1/2+y,z
1/2-x,-y,z
1/2+x,-y,1/2-z
1/2-x,1/2+y,1/2-z
1/2-x,1/2-y,-z
1/2+x,y,-z
1/2-x,y,1/2+z
1/2+x,1/2-y,1/2+z
loop_
_atom_site_type_symbol
_atom_site_label
_atom_site_fract_x
_atom_site_fract_y
_atom_site_fract_z
Si Si1 0.000000 0.032414 0.750000
Si Si2 0.687553 0.208670 0.550600
Si Si3 0.146963 0.790847 0.322036
Si Si4 0.680665 0.898647 0.728694
Si Si5 0.500000 0.750000 0.966794
Si Si6 0.005823 0.534619 0.585061
Si Si7 0.215844 0.945845 0.621147
Si Si8 0.301497 0.405101 0.552660
O O1 0.095514 0.066167 0.730993
O O2 0.032750 0.999644 0.832578
O O3 0.750000 0.250000 0.500000
O O4 0.734489 0.212861 0.649700
O O5 0.569586 0.218605 0.534803
O O6 0.705418 0.151975 0.519986
O O7 0.119373 0.750000 0.250000
O O8 0.132149 0.844011 0.276299
O O9 0.070508 0.785069 0.405254
O O10 0.764874 0.903313 0.804895
O O11 0.724874 0.914911 0.633659
O O12 0.086372 0.579090 0.579550
O O13 0.000000 0.500000 0.500000
O O14 0.900496 0.560857 0.601073
O O15 0.274196 0.939186 0.529696
O O16 0.250000 0.000000 0.658213
#
# Coordination Sequence:
#
# PCOD8282701 Si02
#       8
#     8  16  16  16   8  16  16  16
#     4  12  24  38  65  90 132 169 222 270 324 386
#     4   9  22  43  66  98 130 171 218 278 342 407
#     4  10  23  42  66 100 134 169 219 286 344 404
#     4  11  26  42  65  95 131 175 219 276 338 396
#     4  10  21  40  75  94 134 166 224 274 339 406
#     4  12  24  40  63  95 128 172 222 267 327 400
#     4  12  24  42  65  95 130 177 219 273 332 400
#     4  11  25  43  67  94 135 174 221 274 340 402
#
# _framework density 20.712541000000002
#
# number of rings (size 3 to 8) (size 9 to 14) (size 15 to 20)
#    0.000    1.143    2.857    1.929    6.000    4.571 
#    0.000    0.357    0.000    0.000    0.000    0.000 
#    0.000    0.000    0.000    0.000    0.000    0.000 
#
# Total GULP energy -694130.429301 kJ/mol
# GULP energy per Si atom -12395.186238 kJ/mol
# Density = 2.066540 g / cm^3
# Si number density = 20.712541 Si / 1000 Ang^3
#
#
#
# Elastic Constant Matrix: (Units=GPa)
#
#
# Indices 1 2 3 4 5 6 
#
# 1 119.4224 46.2409 25.0887 0.0000 0.0000 0.0000
# 2 46.2409 112.1300 34.3385 0.0000 0.0000 0.0000
# 3 25.0887 34.3385 89.4927 0.0000 0.0000 0.0000
# 4 0.0000 0.0000 0.0000 27.9669 0.0000 0.0000
# 5 0.0000 0.0000 0.0000 0.0000 37.7503 0.0000
# 6 0.0000 0.0000 0.0000 0.0000 0.0000 24.1416
#
#
#
# Elastic Compliance Matrix: (Units=1/GPa)
#
#
# Indices 1 2 3 4 5 6 
#
# 1 0.010117 -0.003744 -0.001400 0.000000 0.000000 0.000000
# 2 -0.003744 0.011491 -0.003360 0.000000 0.000000 0.000000
# 3 -0.001400 -0.003360 0.012856 0.000000 0.000000 0.000000
# 4 0.000000 0.000000 0.000000 0.035757 0.000000 0.000000
# 5 0.000000 0.000000 0.000000 0.000000 0.026490 0.000000
# 6 0.000000 0.000000 0.000000 0.000000 0.000000 0.041422
#
#
# Mechanical properties :
#
#
# Convention : Reuss Voigt Hill
#
# Bulk Modulus (GPa) = 57.28132 59.15347 58.21740
# Shear Modulus (GPa) = 31.06408 32.33023 31.69716
#
# Velocity S-wave (km/s) = 3.87689 3.95511 3.91620
# Velocity P-wave (km/s) = 6.91056 7.03409 6.97260
#
# Compressibility (1/GPa) = 0.01745770
#
# Stress axis : x y z
#
# Youngs Moduli (GPa) = 98.84118 87.02598 77.78692
#
# Poissons Ratio (x) = 0.32578 0.10890
# Poissons Ratio (y) = 0.37001 0.26133
# Poissons Ratio (z) = 0.13837 0.29237
#
# Static dielectric constant tensor:
#      x y z
#    x 4.097000 0.000000 0.000000 
#    y 0.000000 3.809610 0.000000 
#    z 0.000000 0.000000 3.931060 
# 
# 
# High freq. dielectric constant tensor:
#      x y z
#    x 1.821450 0.000000 0.000000 
#    y 0.000000 1.808770 0.000000 
#    z 0.000000 0.000000 1.810080 
# 
# From -- ./inp_files/22767.got.cif
#   From: 2010.03.12/outbox.cif.g09.slc.cpg/sg68_12_cif.got.tgz:22767.got - 2010.04.10 23:14:56.
