data_PCOD8282820
_publ_section_title
;
Structure prediction by ZEFSAII (Michael W. Deem and Ramdas Pophale) SiO2 
 PCOD8282820
Probable space group: C C C A
;
_chemical_formula_sum "Si O2"
_cell_formula_units_Z 84
_cell_length_a 14.897706
_cell_length_b 18.143612
_cell_length_c 14.374385
_cell_angle_alpha 90.000000
_cell_angle_beta 90.000000
_cell_angle_gamma 90.000000
_cell_volume 3885.370354
_symmetry_space_group_name_H-M "C C C A"
_symmetry_group_IT_number 68
_space_group.IT_coordinate_system_code '2'
_symmetry_cell_setting 'orthorhombic'
loop_
_space_group_symop_operation_xyz
x,y,z
-x,1/2-y,z
x,1/2-y,1/2-z
-x,y,1/2-z
-x,-y,-z
x,1/2+y,-z
-x,1/2+y,1/2+z
x,-y,1/2+z
1/2+x,1/2+y,z
1/2-x,-y,z
1/2+x,-y,1/2-z
1/2-x,1/2+y,1/2-z
1/2-x,1/2-y,-z
1/2+x,y,-z
1/2-x,y,1/2+z
1/2+x,1/2-y,1/2+z
loop_
_atom_site_type_symbol
_atom_site_label
_atom_site_fract_x
_atom_site_fract_y
_atom_site_fract_z
Si Si1 0.761472 0.663408 0.992596
Si Si2 0.915406 0.630886 0.123477
Si Si3 0.165699 0.953808 0.876640
Si Si4 0.584466 0.025651 0.805225
Si Si5 0.500000 0.750000 0.750000
Si Si6 0.418793 0.577948 0.513713
O O1 0.813502 0.636514 0.085136
O O2 0.663794 0.632138 0.968844
O O3 0.750000 0.750000 0.000000
O O4 0.826462 0.631139 0.910763
O O5 0.917728 0.562332 0.192563
O O6 0.935658 0.702316 0.184498
O O7 0.989900 0.620221 0.041540
O O8 0.250000 0.000000 0.915154
O O9 0.165445 0.952679 0.764563
O O10 0.083191 0.000577 0.925990
O O11 0.500000 0.058382 0.750000
O O12 0.590745 0.062202 0.904847
#
# Coordination Sequence:
#
# PCOD8282820 Si02
#       6
#    16  16  16  16   4  16
#     4  11  25  44  66  96 140 187 219 279 353 414
#     4  12  23  42  68  99 139 177 229 286 348 410
#     4  10  22  38  65  98 134 172 231 278 335 405
#     4  12  22  38  69 102 126 176 232 291 337 401
#     4  12  24  40  68 104 134 174 226 288 352 416
#     4  11  23  45  68 102 136 179 230 288 341 406
#
# _framework density 21.61956
#
# number of rings (size 3 to 8) (size 9 to 14) (size 15 to 20)
#    0.000    0.762    4.762    2.857    2.667    1.524 
#    0.000    0.000    0.000    1.143    0.000    0.000 
#    0.000    0.000    0.000    0.000    0.000    0.000 
#
# Total GULP energy -520413.052960 kJ/mol
# GULP energy per Si atom -12390.786975 kJ/mol
# Density = 2.157035 g / cm^3
# Si number density = 21.619560 Si / 1000 Ang^3
#
#
#
# Elastic Constant Matrix: (Units=GPa)
#
#
# Indices 1 2 3 4 5 6 
#
# 1 60.0536 23.5040 2.1246 0.0000 0.0000 0.0000
# 2 23.5040 134.0316 46.5378 0.0000 0.0000 0.0000
# 3 2.1246 46.5378 139.3177 0.0000 0.0000 0.0000
# 4 0.0000 0.0000 0.0000 35.3675 0.0000 0.0000
# 5 0.0000 0.0000 0.0000 0.0000 30.4794 0.0000
# 6 0.0000 0.0000 0.0000 0.0000 0.0000 25.0342
#
#
#
# Elastic Compliance Matrix: (Units=1/GPa)
#
#
# Indices 1 2 3 4 5 6 
#
# 1 0.017974 -0.003458 0.000881 0.000000 0.000000 0.000000
# 2 -0.003458 0.009105 -0.002989 0.000000 0.000000 0.000000
# 3 0.000881 -0.002989 0.008163 0.000000 0.000000 0.000000
# 4 0.000000 0.000000 0.000000 0.028275 0.000000 0.000000
# 5 0.000000 0.000000 0.000000 0.000000 0.032809 0.000000
# 6 0.000000 0.000000 0.000000 0.000000 0.000000 0.039945
#
#
# Mechanical properties :
#
#
# Convention : Reuss Voigt Hill
#
# Bulk Modulus (GPa) = 41.47558 53.08173 47.27866
# Shear Modulus (GPa) = 32.16701 35.59198 33.87950
#
# Velocity S-wave (km/s) = 3.86147 4.06185 3.96293
# Velocity P-wave (km/s) = 6.25358 6.82672 6.54642
#
# Compressibility (1/GPa) = 0.02411057
#
# Stress axis : x y z
#
# Youngs Moduli (GPa) = 55.63604 109.82943 122.50759
#
# Poissons Ratio (x) = 0.37977 -0.10792
# Poissons Ratio (y) = 0.19238 0.36614
# Poissons Ratio (z) = -0.04901 0.32825
#
# Static dielectric constant tensor:
#      x y z
#    x 4.339320 0.000000 0.000000 
#    y 0.000000 3.796110 0.000000 
#    z 0.000000 0.000000 4.033970 
# 
# 
# High freq. dielectric constant tensor:
#      x y z
#    x 1.863090 0.000000 0.000000 
#    y 0.000000 1.826530 0.000000 
#    z 0.000000 0.000000 1.853170 
# 
# From -- ./inp_files/22250.got.cif
#   From: 2010.03.12/outbox.cif.g09.slc.cpg/sg68_12_cif.got.tgz:22250.got - 2010.04.10 23:14:56.
