data_PCOD8282148
_publ_section_title
;
Structure prediction by ZEFSAII (Michael W. Deem and Ramdas Pophale) SiO2 
 PCOD8282148
Probable space group: C C C A
;
_chemical_formula_sum "Si O2"
_cell_formula_units_Z 72
_cell_length_a 13.635824
_cell_length_b 28.082575
_cell_length_c 9.223408
_cell_angle_alpha 90.000000
_cell_angle_beta 90.000000
_cell_angle_gamma 90.000000
_cell_volume 3531.910865
_symmetry_space_group_name_H-M "C C C A"
_symmetry_group_IT_number 68
_space_group.IT_coordinate_system_code '2'
_symmetry_cell_setting 'orthorhombic'
loop_
_space_group_symop_operation_xyz
x,y,z
-x,1/2-y,z
x,1/2-y,1/2-z
-x,y,1/2-z
-x,-y,-z
x,1/2+y,-z
-x,1/2+y,1/2+z
x,-y,1/2+z
1/2+x,1/2+y,z
1/2-x,-y,z
1/2+x,-y,1/2-z
1/2-x,1/2+y,1/2-z
1/2-x,1/2-y,-z
1/2+x,y,-z
1/2-x,y,1/2+z
1/2+x,1/2-y,1/2+z
loop_
_atom_site_type_symbol
_atom_site_label
_atom_site_fract_x
_atom_site_fract_y
_atom_site_fract_z
Si Si1 0.715551 0.946474 0.274623
Si Si2 0.545281 0.610241 0.100801
Si Si3 0.304361 0.314467 0.001616
Si Si4 0.661306 0.103619 0.491115
Si Si5 0.260814 0.750000 0.750000
O O1 0.612997 0.935734 0.360025
O O2 0.801135 0.912268 0.334159
O O3 0.750000 0.000000 0.295383
O O4 0.705999 0.933483 0.106868
O O5 0.500000 0.631082 0.250000
O O6 0.608056 0.649061 0.017685
O O7 0.456094 0.598497 0.993052
O O8 0.200226 0.342519 0.019875
O O9 0.305288 0.280148 0.861790
O O10 0.325883 0.285097 0.149424
#
# Coordination Sequence:
#
# PCOD8282148 Si02
#       5
#    16  16  16  16   8
#     4  10  20  35  57  84 111 144 185 226 267 323
#     4   9  19  36  58  79 110 152 184 220 281 340
#     4  10  20  38  58  82 113 148 187 231 284 335
#     4  10  20  38  58  78 112 150 182 223 279 332
#     4  10  20  36  60  84 112 144 186 240 280 330
#
# _framework density 20.385566000000001
#
# number of rings (size 3 to 8) (size 9 to 14) (size 15 to 20)
#    0.000    2.222    0.000    4.667    0.000    0.889 
#    0.000   28.333    0.000    0.000    0.000    0.000 
#    0.000    0.000    0.000    0.000    0.000    0.000 
#
# Total GULP energy -446242.995618 kJ/mol
# GULP energy per Si atom -12395.638767 kJ/mol
# Density = 2.033917 g / cm^3
# Si number density = 20.385566 Si / 1000 Ang^3
#
#
#
# Elastic Constant Matrix: (Units=GPa)
#
#
# Indices 1 2 3 4 5 6 
#
# 1 113.8912 41.8887 36.9083 0.0000 0.0000 0.0000
# 2 41.8887 122.3540 41.6287 0.0000 0.0000 0.0000
# 3 36.9083 41.6287 86.2335 0.0000 0.0000 0.0000
# 4 0.0000 0.0000 0.0000 35.3123 0.0000 0.0000
# 5 0.0000 0.0000 0.0000 0.0000 27.6391 0.0000
# 6 0.0000 0.0000 0.0000 0.0000 0.0000 6.9829
#
#
#
# Elastic Compliance Matrix: (Units=1/GPa)
#
#
# Indices 1 2 3 4 5 6 
#
# 1 0.010819 -0.002547 -0.003401 0.000000 0.000000 0.000000
# 2 -0.002547 0.010379 -0.003920 0.000000 0.000000 0.000000
# 3 -0.003401 -0.003920 0.014945 0.000000 0.000000 0.000000
# 4 0.000000 0.000000 0.000000 0.028319 0.000000 0.000000
# 5 0.000000 0.000000 0.000000 0.000000 0.036181 0.000000
# 6 0.000000 0.000000 0.000000 0.000000 0.000000 0.143208
#
#
# Mechanical properties :
#
#
# Convention : Reuss Voigt Hill
#
# Bulk Modulus (GPa) = 60.95309 62.59223 61.77266
# Shear Modulus (GPa) = 18.58355 27.45704 23.02029
#
# Velocity S-wave (km/s) = 3.02255 3.67398 3.36407
# Velocity P-wave (km/s) = 6.49200 6.98343 6.74220
#
# Compressibility (1/GPa) = 0.01640606
#
# Stress axis : x y z
#
# Youngs Moduli (GPa) = 92.42782 96.35104 66.91373
#
# Poissons Ratio (x) = 0.24539 0.22759
# Poissons Ratio (y) = 0.23540 0.26232
# Poissons Ratio (z) = 0.31437 0.37772
#
# Static dielectric constant tensor:
#      x y z
#    x 3.721850 0.000000 0.000000 
#    y 0.000000 3.702350 0.000000 
#    z 0.000000 0.000000 3.798350 
# 
# 
# High freq. dielectric constant tensor:
#      x y z
#    x 1.778350 0.000000 0.000000 
#    y 0.000000 1.792450 0.000000 
#    z 0.000000 0.000000 1.804570 
# 
# From -- ./inp_files/5182.got.cif
#   From: 2010.03.12/outbox.cif.g09.slc.cpg/sg68_3_cif.got.tgz:5182.got - 2010.04.10 23:14:56.
