data_PCOD8282009
_publ_section_title
;
Structure prediction by ZEFSAII (Michael W. Deem and Ramdas Pophale) SiO2 
 PCOD8282009
Probable space group: C C C A
;
_chemical_formula_sum "Si O2"
_cell_formula_units_Z 72
_cell_length_a 21.259325
_cell_length_b 13.339846
_cell_length_c 13.267672
_cell_angle_alpha 90.000000
_cell_angle_beta 90.000000
_cell_angle_gamma 90.000000
_cell_volume 3762.660321
_symmetry_space_group_name_H-M "C C C A"
_symmetry_group_IT_number 68
_space_group.IT_coordinate_system_code '2'
_symmetry_cell_setting 'orthorhombic'
loop_
_space_group_symop_operation_xyz
x,y,z
-x,1/2-y,z
x,1/2-y,1/2-z
-x,y,1/2-z
-x,-y,-z
x,1/2+y,-z
-x,1/2+y,1/2+z
x,-y,1/2+z
1/2+x,1/2+y,z
1/2-x,-y,z
1/2+x,-y,1/2-z
1/2-x,1/2+y,1/2-z
1/2-x,1/2-y,-z
1/2+x,y,-z
1/2-x,y,1/2+z
1/2+x,1/2-y,1/2+z
loop_
_atom_site_type_symbol
_atom_site_label
_atom_site_fract_x
_atom_site_fract_y
_atom_site_fract_z
Si Si1 0.750000 0.000000 0.267052
Si Si2 0.210971 0.867961 0.409121
Si Si3 0.357879 0.963750 0.086113
Si Si4 0.570178 0.279053 0.635763
Si Si5 0.662206 0.329520 0.016795
O O1 0.714437 0.084523 0.201630
O O2 0.800830 0.056531 0.336431
O O3 0.160351 0.928048 0.474564
O O4 0.279303 0.879458 0.459311
O O5 0.188488 0.752297 0.403725
O O6 0.418078 0.898846 0.122874
O O7 0.373498 0.082682 0.079244
O O8 0.500000 0.250000 0.603514
O O9 0.584052 0.250000 0.750000
O O10 0.617089 0.218627 0.565189
#
# Coordination Sequence:
#
# PCOD8282009 Si02
#       5
#     8  16  16  16  16
#     4  12  18  32  56  86 126 160 182 244 304 370
#     4  10  20  33  51  88 121 147 190 233 304 363
#     4  11  21  36  56  89 118 150 196 239 304 358
#     4  10  23  40  60  84 111 157 212 247 291 355
#     4  10  19  37  55  81 122 149 190 253 292 361
#
# _framework density 19.135397000000001
#
# number of rings (size 3 to 8) (size 9 to 14) (size 15 to 20)
#    0.000    1.556    4.444    1.333    0.000    1.778 
#    0.000    0.000    0.000    0.000    0.000    0.000 
#    0.000    0.000    0.000    0.000    0.000    0.000 
#
# Total GULP energy -446360.925929 kJ/mol
# GULP energy per Si atom -12398.914609 kJ/mol
# Density = 1.909184 g / cm^3
# Si number density = 19.135397 Si / 1000 Ang^3
#
#
#
# Elastic Constant Matrix: (Units=GPa)
#
#
# Indices 1 2 3 4 5 6 
#
# 1 69.7037 27.1050 7.9666 0.0000 0.0000 0.0000
# 2 27.1050 125.2491 22.1378 0.0000 0.0000 0.0000
# 3 7.9666 22.1378 60.1314 0.0000 0.0000 0.0000
# 4 0.0000 0.0000 0.0000 26.6771 0.0000 0.0000
# 5 0.0000 0.0000 0.0000 0.0000 24.8215 0.0000
# 6 0.0000 0.0000 0.0000 0.0000 0.0000 34.0222
#
#
#
# Elastic Compliance Matrix: (Units=1/GPa)
#
#
# Indices 1 2 3 4 5 6 
#
# 1 0.015709 -0.003243 -0.000887 0.000000 0.000000 0.000000
# 2 -0.003243 0.009209 -0.002961 0.000000 0.000000 0.000000
# 3 -0.000887 -0.002961 0.017838 0.000000 0.000000 0.000000
# 4 0.000000 0.000000 0.000000 0.037485 0.000000 0.000000
# 5 0.000000 0.000000 0.000000 0.000000 0.040288 0.000000
# 6 0.000000 0.000000 0.000000 0.000000 0.000000 0.029393
#
#
# Mechanical properties :
#
#
# Convention : Reuss Voigt Hill
#
# Bulk Modulus (GPa) = 34.99677 41.05590 38.02633
# Shear Modulus (GPa) = 28.79722 30.29581 29.54651
#
# Velocity S-wave (km/s) = 3.88354 3.98330 3.93374
# Velocity P-wave (km/s) = 6.19983 6.53128 6.36771
#
# Compressibility (1/GPa) = 0.02857407
#
# Stress axis : x y z
#
# Youngs Moduli (GPa) = 63.65855 108.58764 56.06057
#
# Poissons Ratio (x) = 0.35211 0.04975
# Poissons Ratio (y) = 0.20642 0.16598
# Poissons Ratio (z) = 0.05649 0.32151
#
# Static dielectric constant tensor:
#      x y z
#    x 3.268860 0.000000 0.000000 
#    y 0.000000 3.835230 0.000000 
#    z 0.000000 0.000000 3.430850 
# 
# 
# High freq. dielectric constant tensor:
#      x y z
#    x 1.704940 0.000000 0.000000 
#    y 0.000000 1.764180 0.000000 
#    z 0.000000 0.000000 1.739650 
# 
# From -- ./inp_files/13112.got.cif
#   From: 2010.03.12/outbox.cif.g09.slc.cpg/sg68_7_cif.got.tgz:13112.got - 2010.04.10 23:14:56.
