data_PCOD8282393
_publ_section_title
;
Structure prediction by ZEFSAII (Michael W. Deem and Ramdas Pophale) SiO2 
 PCOD8282393
Probable space group: C C C A
;
_chemical_formula_sum "Si O2"
_cell_formula_units_Z 80
_cell_length_a 19.553996
_cell_length_b 19.740709
_cell_length_c 8.613429
_cell_angle_alpha 90.000000
_cell_angle_beta 90.000000
_cell_angle_gamma 90.000000
_cell_volume 3324.867530
_symmetry_space_group_name_H-M "C C C A"
_symmetry_group_IT_number 68
_space_group.IT_coordinate_system_code '2'
_symmetry_cell_setting 'orthorhombic'
loop_
_space_group_symop_operation_xyz
x,y,z
-x,1/2-y,z
x,1/2-y,1/2-z
-x,y,1/2-z
-x,-y,-z
x,1/2+y,-z
-x,1/2+y,1/2+z
x,-y,1/2+z
1/2+x,1/2+y,z
1/2-x,-y,z
1/2+x,-y,1/2-z
1/2-x,1/2+y,1/2-z
1/2-x,1/2-y,-z
1/2+x,y,-z
1/2-x,y,1/2+z
1/2+x,1/2-y,1/2+z
loop_
_atom_site_type_symbol
_atom_site_label
_atom_site_fract_x
_atom_site_fract_y
_atom_site_fract_z
Si Si1 0.694638 0.326310 0.224693
Si Si2 0.500000 0.580775 0.750000
Si Si3 0.422796 0.547879 0.241809
Si Si4 0.671701 0.635204 0.070650
Si Si5 0.594309 0.750000 0.250000
Si Si6 0.426795 0.851216 0.499436
O O1 0.722043 0.250000 0.250000
O O2 0.674314 0.361682 0.385469
O O3 0.752064 0.371722 0.140556
O O4 0.628503 0.320633 0.115836
O O5 0.568751 0.533999 0.764901
O O6 0.505832 0.627389 0.597157
O O7 0.500000 0.579190 0.250000
O O8 0.374301 0.569541 0.384552
O O9 0.393808 0.582048 0.083869
O O10 0.641011 0.702894 0.143698
O O11 0.550117 0.703902 0.369487
#
# Coordination Sequence:
#
# PCOD8282393 Si02
#       6
#    16   8  16  16   8  16
#     4  12  23  39  68 103 147 187 240 299 385 460
#     4  10  24  46  75  97 144 198 250 286 358 426
#     4   9  23  43  70  97 140 192 249 295 356 426
#     4  11  21  40  67 102 141 191 239 304 371 441
#     4  10  20  40  65 100 142 181 232 290 382 422
#     4  11  23  41  71 104 139 195 237 303 365 439
#
# _framework density 24.061108999999998
#
# number of rings (size 3 to 8) (size 9 to 14) (size 15 to 20)
#    0.600    0.800    3.000    3.600    2.800    0.000 
#    0.000   13.500    0.000    7.200    0.000    0.000 
#    0.000    0.000    0.000    0.000    0.000    0.000 
#
# Total GULP energy -495761.615628 kJ/mol
# GULP energy per Si atom -12394.040391 kJ/mol
# Density = 2.400635 g / cm^3
# Si number density = 24.061109 Si / 1000 Ang^3
#
#
#
# Elastic Constant Matrix: (Units=GPa)
#
#
# Indices 1 2 3 4 5 6 
#
# 1 84.7395 47.1498 46.4872 0.0000 0.0000 0.0000
# 2 47.1498 99.4653 67.5978 0.0000 0.0000 0.0000
# 3 46.4872 67.5978 195.4882 0.0000 0.0000 0.0000
# 4 0.0000 0.0000 0.0000 31.0467 0.0000 0.0000
# 5 0.0000 0.0000 0.0000 0.0000 32.2733 0.0000
# 6 0.0000 0.0000 0.0000 0.0000 0.0000 28.0896
#
#
#
# Elastic Compliance Matrix: (Units=1/GPa)
#
#
# Indices 1 2 3 4 5 6 
#
# 1 0.016395 -0.006696 -0.001583 0.000000 0.000000 0.000000
# 2 -0.006696 0.015877 -0.003898 0.000000 0.000000 0.000000
# 3 -0.001583 -0.003898 0.006840 0.000000 0.000000 0.000000
# 4 0.000000 0.000000 0.000000 0.032210 0.000000 0.000000
# 5 0.000000 0.000000 0.000000 0.000000 0.030985 0.000000
# 6 0.000000 0.000000 0.000000 0.000000 0.000000 0.035600
#
#
# Mechanical properties :
#
#
# Convention : Reuss Voigt Hill
#
# Bulk Modulus (GPa) = 67.76107 78.01808 72.88958
# Shear Modulus (GPa) = 29.90792 32.84580 31.37686
#
# Velocity S-wave (km/s) = 3.52944 3.69873 3.61508
# Velocity P-wave (km/s) = 6.69571 7.12293 6.91262
#
# Compressibility (1/GPa) = 0.01475774
#
# Stress axis : x y z
#
# Youngs Moduli (GPa) = 60.99393 62.98547 146.20409
#
# Poissons Ratio (x) = 0.42173 0.23151
# Poissons Ratio (y) = 0.40839 0.56987
# Poissons Ratio (z) = 0.09658 0.24550
#
# Static dielectric constant tensor:
#      x y z
#    x 4.002890 0.000000 0.000000 
#    y 0.000000 4.141340 0.000000 
#    z 0.000000 0.000000 4.510910 
# 
# 
# High freq. dielectric constant tensor:
#      x y z
#    x 1.930770 0.000000 0.000000 
#    y 0.000000 1.939440 0.000000 
#    z 0.000000 0.000000 1.973500 
# 
# From -- ./inp_files/7078.got.cif
#   From: 2010.03.12/outbox.cif.g09.slc.cpg/sg68_4_cif.got.tgz:7078.got - 2010.04.10 23:14:56.
