data_PCOD8282623
_publ_section_title
;
Structure prediction by ZEFSAII (Michael W. Deem and Ramdas Pophale) SiO2 
 PCOD8282623
Probable space group: C C C A
;
_chemical_formula_sum "Si O2"
_cell_formula_units_Z 72
_cell_length_a 9.883175
_cell_length_b 17.325301
_cell_length_c 18.924458
_cell_angle_alpha 90.000000
_cell_angle_beta 90.000000
_cell_angle_gamma 90.000000
_cell_volume 3240.415673
_symmetry_space_group_name_H-M "C C C A"
_symmetry_group_IT_number 68
_space_group.IT_coordinate_system_code '2'
_symmetry_cell_setting 'orthorhombic'
loop_
_space_group_symop_operation_xyz
x,y,z
-x,1/2-y,z
x,1/2-y,1/2-z
-x,y,1/2-z
-x,-y,-z
x,1/2+y,-z
-x,1/2+y,1/2+z
x,-y,1/2+z
1/2+x,1/2+y,z
1/2-x,-y,z
1/2+x,-y,1/2-z
1/2-x,1/2+y,1/2-z
1/2-x,1/2-y,-z
1/2+x,y,-z
1/2-x,y,1/2+z
1/2+x,1/2-y,1/2+z
loop_
_atom_site_type_symbol
_atom_site_label
_atom_site_fract_x
_atom_site_fract_y
_atom_site_fract_z
Si Si1 0.680689 0.183054 0.925949
Si Si2 0.383145 0.045094 0.835142
Si Si3 0.000000 0.576982 0.250000
Si Si4 0.780687 0.838982 0.767685
Si Si5 0.113697 0.652320 0.539241
O O1 0.669879 0.146569 0.848279
O O2 0.689971 0.276520 0.920744
O O3 0.546114 0.165954 0.971934
O O4 0.811292 0.144711 0.963838
O O5 0.388586 0.118798 0.782811
O O6 0.375646 0.073400 0.915983
O O7 0.250000 0.000000 0.813616
O O8 0.499872 0.981721 0.818350
O O9 0.128406 0.631938 0.256626
O O10 0.784972 0.750000 0.750000
#
# Coordination Sequence:
#
# PCOD8282623 Si02
#       5
#    16  16   8  16  16
#     4  10  22  39  66  94 125 166 220 273 320 380
#     4  10  21  39  61  89 132 168 212 269 332 391
#     4  10  23  38  59  96 136 172 208 278 337 396
#     4  11  21  40  65  98 125 171 228 272 324 393
#     4  10  21  41  61  95 127 169 212 272 327 388
#
# _framework density 22.219370999999999
#
# number of rings (size 3 to 8) (size 9 to 14) (size 15 to 20)
#    0.000    1.778    2.222    1.667    0.000    3.556 
#    8.000    7.778    0.000    0.000    0.000    0.000 
#    0.000    0.000    0.000    0.000    0.000    0.000 
#
# Total GULP energy -446196.007441 kJ/mol
# GULP energy per Si atom -12394.333540 kJ/mol
# Density = 2.216880 g / cm^3
# Si number density = 22.219371 Si / 1000 Ang^3
#
#
#
# Elastic Constant Matrix: (Units=GPa)
#
#
# Indices 1 2 3 4 5 6 
#
# 1 78.4796 5.8523 19.5000 0.0000 0.0000 0.0000
# 2 5.8523 84.9424 18.8891 0.0000 0.0000 0.0000
# 3 19.5000 18.8891 97.8800 0.0000 0.0000 0.0000
# 4 0.0000 0.0000 0.0000 27.4504 0.0000 0.0000
# 5 0.0000 0.0000 0.0000 0.0000 33.1225 0.0000
# 6 0.0000 0.0000 0.0000 0.0000 0.0000 11.3318
#
#
#
# Elastic Compliance Matrix: (Units=1/GPa)
#
#
# Indices 1 2 3 4 5 6 
#
# 1 0.013415 -0.000345 -0.002606 0.000000 0.000000 0.000000
# 2 -0.000345 0.012309 -0.002307 0.000000 0.000000 0.000000
# 3 -0.002606 -0.002307 0.011181 0.000000 0.000000 0.000000
# 4 0.000000 0.000000 0.000000 0.036429 0.000000 0.000000
# 5 0.000000 0.000000 0.000000 0.000000 0.030191 0.000000
# 6 0.000000 0.000000 0.000000 0.000000 0.000000 0.088247
#
#
# Mechanical properties :
#
#
# Convention : Reuss Voigt Hill
#
# Bulk Modulus (GPa) = 37.89256 38.86498 38.37877
# Shear Modulus (GPa) = 23.68708 28.85164 26.26936
#
# Velocity S-wave (km/s) = 3.26859 3.60737 3.44215
# Velocity P-wave (km/s) = 5.59784 5.90595 5.75396
#
# Compressibility (1/GPa) = 0.02639041
#
# Stress axis : x y z
#
# Youngs Moduli (GPa) = 74.54109 81.23858 89.43769
#
# Poissons Ratio (x) = 0.02801 0.23309
# Poissons Ratio (y) = 0.02570 0.20632
# Poissons Ratio (z) = 0.19426 0.18740
#
# Static dielectric constant tensor:
#      x y z
#    x 3.944090 0.000000 0.000000 
#    y 0.000000 4.151880 0.000000 
#    z 0.000000 0.000000 3.742240 
# 
# 
# High freq. dielectric constant tensor:
#      x y z
#    x 1.877730 0.000000 0.000000 
#    y 0.000000 1.877120 0.000000 
#    z 0.000000 0.000000 1.852300 
# 
# From -- ./inp_files/29411.got.cif
#   From: 2010.03.12/outbox.cif.g09.slc.cpg/sg68_15_cif.got.tgz:29411.got - 2010.04.10 23:14:56.
