data_PCOD8282798
_publ_section_title
;
Structure prediction by ZEFSAII (Michael W. Deem and Ramdas Pophale) SiO2 
 PCOD8282798
Probable space group: C C C A
;
_chemical_formula_sum "Si O2"
_cell_formula_units_Z 96
_cell_length_a 20.057433
_cell_length_b 18.757239
_cell_length_c 12.661610
_cell_angle_alpha 90.000000
_cell_angle_beta 90.000000
_cell_angle_gamma 90.000000
_cell_volume 4763.577054
_symmetry_space_group_name_H-M "C C C A"
_symmetry_group_IT_number 68
_space_group.IT_coordinate_system_code '2'
_symmetry_cell_setting 'orthorhombic'
loop_
_space_group_symop_operation_xyz
x,y,z
-x,1/2-y,z
x,1/2-y,1/2-z
-x,y,1/2-z
-x,-y,-z
x,1/2+y,-z
-x,1/2+y,1/2+z
x,-y,1/2+z
1/2+x,1/2+y,z
1/2-x,-y,z
1/2+x,-y,1/2-z
1/2-x,1/2+y,1/2-z
1/2-x,1/2-y,-z
1/2+x,y,-z
1/2-x,y,1/2+z
1/2+x,1/2-y,1/2+z
loop_
_atom_site_type_symbol
_atom_site_label
_atom_site_fract_x
_atom_site_fract_y
_atom_site_fract_z
Si Si1 0.935701 0.325088 0.805780
Si Si2 0.670494 0.567270 0.304144
Si Si3 0.001486 0.172543 0.478537
Si Si4 0.447597 0.547791 0.335348
Si Si5 0.308233 0.407136 0.258579
Si Si6 0.119653 0.918034 0.038482
O O1 0.924550 0.250000 0.750000
O O2 0.868016 0.368821 0.801094
O O3 0.000000 0.363347 0.750000
O O4 0.947824 0.316425 0.929437
O O5 0.609603 0.590158 0.229042
O O6 0.688245 0.488436 0.271850
O O7 0.734364 0.618821 0.278543
O O8 0.651580 0.565191 0.426335
O O9 0.983867 0.108123 0.402158
O O10 0.000000 0.250000 0.419597
O O11 0.072761 0.151515 0.529539
O O12 0.500000 0.515173 0.250000
O O13 0.421394 0.485278 0.412681
O O14 0.319015 0.397886 0.384384
#
# Coordination Sequence:
#
# PCOD8282798 Si02
#       6
#    16  16  16  16  16  16
#     4  11  20  38  63  97 118 159 220 270 319 368
#     4  10  23  40  56  95 124 167 208 250 334 385
#     4  12  23  38  63  94 129 162 209 269 326 380
#     4  11  24  39  64  95 127 169 216 265 327 387
#     4  10  22  37  64  84 127 158 202 275 307 380
#     4  11  22  39  64  90 125 165 217 264 317 385
#
# _framework density 20.152923000000001
#
# number of rings (size 3 to 8) (size 9 to 14) (size 15 to 20)
#    0.000    1.167    5.000    1.500    4.667    7.000 
#    0.000    1.667    0.000    4.000    0.000    0.000 
#    0.000    0.000    0.000    0.000    0.000    0.000 
#
# Total GULP energy -594800.487888 kJ/mol
# GULP energy per Si atom -12391.676831 kJ/mol
# Density = 2.010705 g / cm^3
# Si number density = 20.152923 Si / 1000 Ang^3
#
#
#
# Elastic Constant Matrix: (Units=GPa)
#
#
# Indices 1 2 3 4 5 6 
#
# 1 150.7098 30.5121 48.2999 0.0000 0.0000 0.0000
# 2 30.5121 52.7999 23.6349 0.0000 0.0000 0.0000
# 3 48.2999 23.6349 117.7288 0.0000 0.0000 0.0000
# 4 0.0000 0.0000 0.0000 26.9793 0.0000 0.0000
# 5 0.0000 0.0000 0.0000 0.0000 57.1529 0.0000
# 6 0.0000 0.0000 0.0000 0.0000 0.0000 -37.1015
#
#
#
# Elastic Compliance Matrix: (Units=1/GPa)
#
#
# Indices 1 2 3 4 5 6 
#
# 1 0.008205 -0.003554 -0.002653 0.000000 0.000000 0.000000
# 2 -0.003554 0.022349 -0.003029 0.000000 0.000000 0.000000
# 3 -0.002653 -0.003029 0.010190 0.000000 0.000000 0.000000
# 4 0.000000 0.000000 0.000000 0.037065 0.000000 0.000000
# 5 0.000000 0.000000 0.000000 0.000000 0.017497 0.000000
# 6 0.000000 0.000000 0.000000 0.000000 0.000000 -0.026953
#
#
# Mechanical properties :
#
#
# Convention : Reuss Voigt Hill
#
# Bulk Modulus (GPa) = 44.89621 58.45914 51.67767
# Shear Modulus (GPa) = 53.05104 23.99225 38.52164
#
# Velocity S-wave (km/s) = 5.13628 3.45412 4.37678
# Velocity P-wave (km/s) = 7.58296 6.70661 7.15821
#
# Compressibility (1/GPa) = 0.02227360
#
# Stress axis : x y z
#
# Youngs Moduli (GPa) = 121.87767 44.74485 98.13144
#
# Poissons Ratio (x) = 0.15903 0.26031
# Poissons Ratio (y) = 0.43316 0.29720
# Poissons Ratio (z) = 0.32330 0.13551
#
# Static dielectric constant tensor:
#      x y z
#    x 5.594170 0.000000 0.000000 
#    y 0.000000 3.690880 0.000000 
#    z 0.000000 0.000000 3.890210 
# 
# 
# High freq. dielectric constant tensor:
#      x y z
#    x 1.791460 0.000000 0.000000 
#    y 0.000000 1.760910 0.000000 
#    z 0.000000 0.000000 1.797500 
# 
# From -- ./inp_files/15565.got.cif
#   From: 2010.03.12/outbox.cif.g09.slc.cpg/sg68_8_cif.got.tgz:15565.got - 2010.04.10 23:14:56.
