data_PCOD8282708
_publ_section_title
;
Structure prediction by ZEFSAII (Michael W. Deem and Ramdas Pophale) SiO2 
 PCOD8282708
Probable space group: C C C A
;
_chemical_formula_sum "Si O2"
_cell_formula_units_Z 80
_cell_length_a 14.344048
_cell_length_b 12.618784
_cell_length_c 21.565753
_cell_angle_alpha 90.000000
_cell_angle_beta 90.000000
_cell_angle_gamma 90.000000
_cell_volume 3903.497118
_symmetry_space_group_name_H-M "C C C A"
_symmetry_group_IT_number 68
_space_group.IT_coordinate_system_code '2'
_symmetry_cell_setting 'orthorhombic'
loop_
_space_group_symop_operation_xyz
x,y,z
-x,1/2-y,z
x,1/2-y,1/2-z
-x,y,1/2-z
-x,-y,-z
x,1/2+y,-z
-x,1/2+y,1/2+z
x,-y,1/2+z
1/2+x,1/2+y,z
1/2-x,-y,z
1/2+x,-y,1/2-z
1/2-x,1/2+y,1/2-z
1/2-x,1/2-y,-z
1/2+x,y,-z
1/2-x,y,1/2+z
1/2+x,1/2-y,1/2+z
loop_
_atom_site_type_symbol
_atom_site_label
_atom_site_fract_x
_atom_site_fract_y
_atom_site_fract_z
Si Si1 0.069980 0.903536 0.998795
Si Si2 0.000000 0.750000 0.399509
Si Si3 0.000000 0.250000 0.395885
Si Si4 0.250000 0.000000 0.252953
Si Si5 0.250000 0.000000 0.045302
Si Si6 0.660821 0.192073 0.187723
Si Si7 0.679932 0.849470 0.349441
O O1 0.175444 0.945905 0.999773
O O2 0.055550 0.834803 0.060282
O O3 0.055693 0.834006 0.937735
O O4 0.000000 0.000000 0.000000
O O5 0.925538 0.686980 0.358592
O O6 0.074826 0.306541 0.351769
O O7 0.313775 0.071028 0.297354
O O8 0.184832 0.073137 0.209686
O O9 0.300063 0.911837 0.087194
O O10 0.627686 0.250000 0.250000
O O11 0.748087 0.253087 0.157567
#
# Coordination Sequence:
#
# PCOD8282708 Si02
#       7
#    16   8   8   8   8  16  16
#     4  11  24  39  63  97 124 170 217 251 318 384
#     4  11  23  40  65  92 127 160 213 271 302 368
#     4  11  24  40  66  96 130 162 218 267 312 380
#     4   9  22  42  67  90 124 169 212 252 329 386
#     4  11  20  42  65  84 130 169 198 258 317 366
#     4  10  21  41  64  93 121 163 212 259 316 376
#     4  10  21  41  65  90 128 165 203 267 319 364
#
# _framework density 20.494444000000001
#
# number of rings (size 3 to 8) (size 9 to 14) (size 15 to 20)
#    0.000    1.600    4.000    0.300    0.000    4.000 
#    0.000    6.500    0.000    0.000    0.000    0.000 
#    0.000    0.000    0.000    0.000    0.000    0.000 
#
# Total GULP energy -496225.247381 kJ/mol
# GULP energy per Si atom -12405.631185 kJ/mol
# Density = 2.044780 g / cm^3
# Si number density = 20.494444 Si / 1000 Ang^3
#
#
#
# Elastic Constant Matrix: (Units=GPa)
#
#
# Indices 1 2 3 4 5 6 
#
# 1 157.3527 65.1978 55.2413 0.0000 0.0000 0.0000
# 2 65.1978 122.9550 40.4256 0.0000 0.0000 0.0000
# 3 55.2413 40.4256 76.3662 0.0000 0.0000 0.0000
# 4 0.0000 0.0000 0.0000 21.6801 0.0000 0.0000
# 5 0.0000 0.0000 0.0000 0.0000 -12.3690 0.0000
# 6 0.0000 0.0000 0.0000 0.0000 0.0000 40.2258
#
#
#
# Elastic Compliance Matrix: (Units=1/GPa)
#
#
# Indices 1 2 3 4 5 6 
#
# 1 0.009554 -0.003383 -0.005121 0.000000 0.000000 0.000000
# 2 -0.003383 0.011044 -0.003400 0.000000 0.000000 0.000000
# 3 -0.005121 -0.003400 0.018599 0.000000 0.000000 0.000000
# 4 0.000000 0.000000 0.000000 0.046125 0.000000 0.000000
# 5 0.000000 0.000000 0.000000 0.000000 -0.080847 0.000000
# 6 0.000000 0.000000 0.000000 0.000000 0.000000 0.024860
#
#
# Mechanical properties :
#
#
# Convention : Reuss Voigt Hill
#
# Bulk Modulus (GPa) = 64.97110 75.37815 70.17462
# Shear Modulus (GPa) = 85.80458 22.96133 54.38295
#
# Velocity S-wave (km/s) = 6.47751 3.35082 5.15685
# Velocity P-wave (km/s) = 9.36562 7.19933 8.35300
#
# Compressibility (1/GPa) = 0.01539146
#
# Stress axis : x y z
#
# Youngs Moduli (GPa) = 104.66302 90.54286 53.76729
#
# Poissons Ratio (x) = 0.30628 0.27533
# Poissons Ratio (y) = 0.35404 0.18279
# Poissons Ratio (z) = 0.53596 0.30781
#
# Static dielectric constant tensor:
#      x y z
#    x 3.269550 0.000000 0.000000 
#    y 0.000000 3.892540 0.000000 
#    z 0.000000 0.000000 3.692580 
# 
# 
# High freq. dielectric constant tensor:
#      x y z
#    x 1.800590 0.000000 0.000000 
#    y 0.000000 1.813540 0.000000 
#    z 0.000000 0.000000 1.796850 
# 
# From -- ./inp_files/44184.got.cif
#   From: 2010.03.12/outbox.cif.g09.slc.cpg/sg68_23_cif.got.tgz:44184.got - 2010.04.10 23:14:56.
