data_PCOD8282700
_publ_section_title
;
Structure prediction by ZEFSAII (Michael W. Deem and Ramdas Pophale) SiO2 
 PCOD8282700
Probable space group: C C C A
;
_chemical_formula_sum "Si O2"
_cell_formula_units_Z 80
_cell_length_a 11.359620
_cell_length_b 10.445849
_cell_length_c 26.692311
_cell_angle_alpha 90.000000
_cell_angle_beta 90.000000
_cell_angle_gamma 90.000000
_cell_volume 3167.332985
_symmetry_space_group_name_H-M "C C C A"
_symmetry_group_IT_number 68
_space_group.IT_coordinate_system_code '2'
_symmetry_cell_setting 'orthorhombic'
loop_
_space_group_symop_operation_xyz
x,y,z
-x,1/2-y,z
x,1/2-y,1/2-z
-x,y,1/2-z
-x,-y,-z
x,1/2+y,-z
-x,1/2+y,1/2+z
x,-y,1/2+z
1/2+x,1/2+y,z
1/2-x,-y,z
1/2+x,-y,1/2-z
1/2-x,1/2+y,1/2-z
1/2-x,1/2-y,-z
1/2+x,y,-z
1/2-x,y,1/2+z
1/2+x,1/2-y,1/2+z
loop_
_atom_site_type_symbol
_atom_site_label
_atom_site_fract_x
_atom_site_fract_y
_atom_site_fract_z
Si Si1 0.121448 0.683090 0.141117
Si Si2 0.511529 0.432263 0.853403
Si Si3 0.110061 0.990670 0.045013
Si Si4 0.859469 0.204507 0.531874
Si Si5 0.665881 0.781111 0.307412
O O1 0.184209 0.662524 0.087150
O O2 0.197180 0.771604 0.178535
O O3 0.000000 0.750000 0.129659
O O4 0.092749 0.547871 0.166872
O O5 0.470215 0.453814 0.910377
O O6 0.393051 0.419042 0.818980
O O7 0.597037 0.311530 0.846086
O O8 0.250000 0.000000 0.058976
O O9 0.066487 0.839949 0.036955
O O10 0.085041 0.078230 0.996007
O O11 0.750000 0.250000 0.500000
O O12 0.643237 0.750000 0.250000
#
# Coordination Sequence:
#
# PCOD8282700 Si02
#       5
#    16  16  16  16  16
#     4  12  26  49  73 111 155 195 255 315 385 461
#     4  11  24  47  78 106 151 195 250 319 387 454
#     4  10  21  40  70 108 151 206 253 310 375 456
#     4  10  22  42  68 107 154 202 257 308 371 458
#     4  11  27  53  76 111 148 194 258 328 400 469
#
# _framework density 25.257845
#
# number of rings (size 3 to 8) (size 9 to 14) (size 15 to 20)
#    0.000    1.200    2.000    4.200    0.000    9.200 
#   18.000    0.000    0.000    0.000    0.000    0.000 
#    0.000    0.000    0.000    0.000    0.000    0.000 
#
# Total GULP energy -495676.722364 kJ/mol
# GULP energy per Si atom -12391.918059 kJ/mol
# Density = 2.520036 g / cm^3
# Si number density = 25.257845 Si / 1000 Ang^3
#
#
#
# Elastic Constant Matrix: (Units=GPa)
#
#
# Indices 1 2 3 4 5 6 
#
# 1 96.3528 40.1315 44.4349 0.0000 0.0000 0.0000
# 2 40.1315 145.3258 62.9432 0.0000 0.0000 0.0000
# 3 44.4349 62.9432 151.8932 0.0000 0.0000 0.0000
# 4 0.0000 0.0000 0.0000 18.9648 0.0000 0.0000
# 5 0.0000 0.0000 0.0000 0.0000 23.1824 0.0000
# 6 0.0000 0.0000 0.0000 0.0000 0.0000 49.6775
#
#
#
# Elastic Compliance Matrix: (Units=1/GPa)
#
#
# Indices 1 2 3 4 5 6 
#
# 1 0.012595 -0.002294 -0.002734 0.000000 0.000000 0.000000
# 2 -0.002294 0.008804 -0.002977 0.000000 0.000000 0.000000
# 3 -0.002734 -0.002977 0.008617 0.000000 0.000000 0.000000
# 4 0.000000 0.000000 0.000000 0.052729 0.000000 0.000000
# 5 0.000000 0.000000 0.000000 0.000000 0.043136 0.000000
# 6 0.000000 0.000000 0.000000 0.000000 0.000000 0.020130
#
#
# Mechanical properties :
#
#
# Convention : Reuss Voigt Hill
#
# Bulk Modulus (GPa) = 71.39925 76.51013 73.95469
# Shear Modulus (GPa) = 29.99581 34.76908 32.38244
#
# Velocity S-wave (km/s) = 3.44987 3.71423 3.58449
# Velocity P-wave (km/s) = 6.64818 6.98222 6.81725
#
# Compressibility (1/GPa) = 0.01400575
#
# Stress axis : x y z
#
# Youngs Moduli (GPa) = 79.39824 113.58404 116.04834
#
# Poissons Ratio (x) = 0.26055 0.31726
# Poissons Ratio (y) = 0.18213 0.34551
# Poissons Ratio (z) = 0.21707 0.33817
#
# Static dielectric constant tensor:
#      x y z
#    x 3.980760 0.000000 0.000000 
#    y 0.000000 4.640650 0.000000 
#    z 0.000000 0.000000 4.218920 
# 
# 
# High freq. dielectric constant tensor:
#      x y z
#    x 2.042890 0.000000 0.000000 
#    y 0.000000 2.019760 0.000000 
#    z 0.000000 0.000000 1.986480 
# 
# From -- ./inp_files/45157.got.cif
#   From: 2010.03.12/outbox.cif.g09.slc.cpg/sg68_23_cif.got.tgz:45157.got - 2010.04.10 23:14:56.
