data_PCOD8282579
_publ_section_title
;
Structure prediction by ZEFSAII (Michael W. Deem and Ramdas Pophale) SiO2 
 PCOD8282579
Probable space group: C C C A
;
_chemical_formula_sum "Si O2"
_cell_formula_units_Z 56
_cell_length_a 4.821656
_cell_length_b 16.085868
_cell_length_c 30.253469
_cell_angle_alpha 90.000000
_cell_angle_beta 90.000000
_cell_angle_gamma 90.000000
_cell_volume 2346.474847
_symmetry_space_group_name_H-M "C C C A"
_symmetry_group_IT_number 68
_space_group.IT_coordinate_system_code '2'
_symmetry_cell_setting 'orthorhombic'
loop_
_space_group_symop_operation_xyz
x,y,z
-x,1/2-y,z
x,1/2-y,1/2-z
-x,y,1/2-z
-x,-y,-z
x,1/2+y,-z
-x,1/2+y,1/2+z
x,-y,1/2+z
1/2+x,1/2+y,z
1/2-x,-y,z
1/2+x,-y,1/2-z
1/2-x,1/2+y,1/2-z
1/2-x,1/2-y,-z
1/2+x,y,-z
1/2-x,y,1/2+z
1/2+x,1/2-y,1/2+z
loop_
_atom_site_type_symbol
_atom_site_label
_atom_site_fract_x
_atom_site_fract_y
_atom_site_fract_z
Si Si1 0.367622 0.337538 0.165496
Si Si2 0.339001 0.092773 0.618774
Si Si3 0.500000 0.555510 0.750000
Si Si4 0.032376 0.844740 0.970390
O O1 0.500000 0.250000 0.179892
O O2 0.545668 0.361097 0.122107
O O3 0.402370 0.392060 0.208603
O O4 0.048380 0.354627 0.150978
O O5 0.456482 0.092756 0.569129
O O6 0.250000 0.000000 0.633791
O O7 0.750000 0.500000 0.732212
O O8 0.000000 0.750000 0.953203
O O9 0.343094 0.861672 0.986575
#
# Coordination Sequence:
#
# PCOD8282579 Si02
#       4
#    16  16   8  16
#     4  12  25  44  68  96 131 175 223 268 327 404
#     4  12  25  42  66  97 133 172 219 277 337 395
#     4  12  25  44  69  98 134 168 212 272 335 392
#     4  10  21  38  61  90 126 169 217 270 331 399
#
# _framework density 23.865587999999999
#
# number of rings (size 3 to 8) (size 9 to 14) (size 15 to 20)
#    0.000    0.571    0.000    9.857    0.000    3.429 
#    0.000    4.286    0.000    0.000    0.000    0.000 
#    0.000    0.000    0.000    0.000    0.000    0.000 
#
# Total GULP energy -346891.576467 kJ/mol
# GULP energy per Si atom -12388.984874 kJ/mol
# Density = 2.381127 g / cm^3
# Si number density = 23.865588 Si / 1000 Ang^3
#
#
#
# Elastic Constant Matrix: (Units=GPa)
#
#
# Indices 1 2 3 4 5 6 
#
# 1 89.1291 21.7004 -2.8919 0.0000 0.0000 0.0000
# 2 21.7004 91.1072 10.1904 0.0000 0.0000 0.0000
# 3 -2.8919 10.1904 90.1169 0.0000 0.0000 0.0000
# 4 0.0000 0.0000 0.0000 31.7984 0.0000 0.0000
# 5 0.0000 0.0000 0.0000 0.0000 26.0852 0.0000
# 6 0.0000 0.0000 0.0000 0.0000 0.0000 40.4998
#
#
#
# Elastic Compliance Matrix: (Units=1/GPa)
#
#
# Indices 1 2 3 4 5 6 
#
# 1 0.011956 -0.002928 0.000715 0.000000 0.000000 0.000000
# 2 -0.002928 0.011834 -0.001432 0.000000 0.000000 0.000000
# 3 0.000715 -0.001432 0.011282 0.000000 0.000000 0.000000
# 4 0.000000 0.000000 0.000000 0.031448 0.000000 0.000000
# 5 0.000000 0.000000 0.000000 0.000000 0.038336 0.000000
# 6 0.000000 0.000000 0.000000 0.000000 0.000000 0.024691
#
#
# Mechanical properties :
#
#
# Convention : Reuss Voigt Hill
#
# Bulk Modulus (GPa) = 35.99601 36.48345 36.23973
# Shear Modulus (GPa) = 34.22393 35.76696 34.99544
#
# Velocity S-wave (km/s) = 3.79096 3.87548 3.83346
# Velocity P-wave (km/s) = 5.85469 5.94526 5.90015
#
# Compressibility (1/GPa) = 0.02778086
#
# Stress axis : x y z
#
# Youngs Moduli (GPa) = 83.64237 84.50538 88.64009
#
# Poissons Ratio (x) = 0.24740 -0.06335
# Poissons Ratio (y) = 0.24487 0.12694
# Poissons Ratio (z) = -0.05978 0.12102
#
# Static dielectric constant tensor:
#      x y z
#    x -1.307060 0.000000 0.000000 
#    y 0.000000 4.621720 0.000000 
#    z 0.000000 0.000000 3.975300 
# 
# 
# High freq. dielectric constant tensor:
#      x y z
#    x 1.966680 0.000000 0.000000 
#    y 0.000000 1.938890 0.000000 
#    z 0.000000 0.000000 1.948660 
# 
# From -- ./inp_files/52782.got.cif
#   From: 2010.03.12/outbox.cif.g09.slc.cpg/sg68_27_cif.got.tgz:52782.got - 2010.04.10 23:14:56.
