data_PCOD8282813
_publ_section_title
;
Structure prediction by ZEFSAII (Michael W. Deem and Ramdas Pophale) SiO2 
 PCOD8282813
Probable space group: C C C A
;
_chemical_formula_sum "Si O2"
_cell_formula_units_Z 88
_cell_length_a 15.367945
_cell_length_b 13.041782
_cell_length_c 22.157604
_cell_angle_alpha 90.000000
_cell_angle_beta 90.000000
_cell_angle_gamma 90.000000
_cell_volume 4440.946389
_symmetry_space_group_name_H-M "C C C A"
_symmetry_group_IT_number 68
_space_group.IT_coordinate_system_code '2'
_symmetry_cell_setting 'orthorhombic'
loop_
_space_group_symop_operation_xyz
x,y,z
-x,1/2-y,z
x,1/2-y,1/2-z
-x,y,1/2-z
-x,-y,-z
x,1/2+y,-z
-x,1/2+y,1/2+z
x,-y,1/2+z
1/2+x,1/2+y,z
1/2-x,-y,z
1/2+x,-y,1/2-z
1/2-x,1/2+y,1/2-z
1/2-x,1/2-y,-z
1/2+x,y,-z
1/2-x,y,1/2+z
1/2+x,1/2-y,1/2+z
loop_
_atom_site_type_symbol
_atom_site_label
_atom_site_fract_x
_atom_site_fract_y
_atom_site_fract_z
Si Si1 0.295767 0.163551 0.886774
Si Si2 0.013092 0.862232 0.848924
Si Si3 0.750000 0.500000 0.182730
Si Si4 0.750000 0.000000 0.515698
Si Si5 0.148578 0.609468 0.914804
Si Si6 0.000000 0.984424 0.250000
Si Si7 0.167125 0.358214 0.724468
O O1 0.384504 0.120738 0.857594
O O2 0.300573 0.281906 0.907909
O O3 0.216193 0.146790 0.840049
O O4 0.284059 0.094094 0.945293
O O5 0.968684 0.942906 0.803917
O O6 0.000000 0.750000 0.820573
O O7 0.955788 0.870224 0.911101
O O8 0.828956 0.465308 0.140592
O O9 0.770094 0.595421 0.225416
O O10 0.672548 0.950763 0.475722
O O11 0.922219 0.920328 0.220343
O O12 0.138913 0.250000 0.750000
#
# Coordination Sequence:
#
# PCOD8282813 Si02
#       7
#    16  16   8   8  16   8  16
#     4  11  23  41  62  94 124 164 214 259 316 372
#     4  10  22  38  62  92 124 163 214 259 311 375
#     4  11  19  40  62  86 119 169 196 246 316 365
#     4  11  23  40  64  90 119 169 210 262 316 373
#     4  10  22  40  64  87 123 164 211 260 308 373
#     4  12  22  38  58  94 132 164 202 258 316 380
#     4  12  24  39  63  91 130 163 202 255 315 385
#
# _framework density 19.815595999999999
#
# number of rings (size 3 to 8) (size 9 to 14) (size 15 to 20)
#    0.000    1.091    3.636    3.818    0.000    0.727 
#    0.000    0.000    0.000    2.182    0.000    0.000 
#    0.000    0.000    0.000    0.000    0.000    0.000 
#
# Total GULP energy -545318.302720 kJ/mol
# GULP energy per Si atom -12393.597789 kJ/mol
# Density = 1.977050 g / cm^3
# Si number density = 19.815596 Si / 1000 Ang^3
#
#
#
# Elastic Constant Matrix: (Units=GPa)
#
#
# Indices 1 2 3 4 5 6 
#
# 1 122.0563 40.4553 47.7729 0.0000 0.0000 0.0000
# 2 40.4553 120.0167 60.9218 0.0000 0.0000 0.0000
# 3 47.7729 60.9218 114.2036 0.0000 0.0000 0.0000
# 4 0.0000 0.0000 0.0000 -725.9943 0.0000 0.0000
# 5 0.0000 0.0000 0.0000 0.0000 14.0660 0.0000
# 6 0.0000 0.0000 0.0000 0.0000 0.0000 23.8303
#
#
#
# Elastic Compliance Matrix: (Units=1/GPa)
#
#
# Indices 1 2 3 4 5 6 
#
# 1 0.010049 -0.001719 -0.003287 0.000000 0.000000 0.000000
# 2 -0.001719 0.011720 -0.005533 0.000000 0.000000 0.000000
# 3 -0.003287 -0.005533 0.013083 0.000000 0.000000 0.000000
# 4 0.000000 0.000000 0.000000 -0.001377 0.000000 0.000000
# 5 0.000000 0.000000 0.000000 0.000000 0.071094 0.000000
# 6 0.000000 0.000000 0.000000 0.000000 0.000000 0.041963
#
#
# Mechanical properties :
#
#
# Convention : Reuss Voigt Hill
#
# Bulk Modulus (GPa) = 72.59729 72.73073 72.66401
# Shear Modulus (GPa) = 29.03586 -123.81118 -47.38766
#
# Velocity S-wave (km/s) = 3.83208 -7.91311 -4.89553
# Velocity P-wave (km/s) = 7.50305 6.83420 2.18969
#
# Compressibility (1/GPa) = 0.01377462
#
# Stress axis : x y z
#
# Youngs Moduli (GPa) = 99.51130 85.32229 76.43644
#
# Poissons Ratio (x) = 0.14667 0.25122
# Poissons Ratio (y) = 0.17106 0.42293
# Poissons Ratio (z) = 0.32706 0.47209
#
# Static dielectric constant tensor:
#      x y z
#    x 3.616180 0.000000 0.000000 
#    y 0.000000 3.824520 0.000000 
#    z 0.000000 0.000000 3.466070 
# 
# 
# High freq. dielectric constant tensor:
#      x y z
#    x 1.771170 0.000000 0.000000 
#    y 0.000000 1.793930 0.000000 
#    z 0.000000 0.000000 1.759560 
# 
# From -- ./inp_files/38507.got.cif
#   From: 2010.03.12/outbox.cif.g09.slc.cpg/sg68_20_cif.got.tgz:38507.got - 2010.04.10 23:14:56.
