data_PCOD8282104
_publ_section_title
;
Structure prediction by ZEFSAII (Michael W. Deem and Ramdas Pophale) SiO2 
 PCOD8282104
Probable space group: C C C A
;
_chemical_formula_sum "Si O2"
_cell_formula_units_Z 112
_cell_length_a 13.373199
_cell_length_b 33.175171
_cell_length_c 14.519205
_cell_angle_alpha 90.000000
_cell_angle_beta 90.000000
_cell_angle_gamma 90.000000
_cell_volume 6441.563828
_symmetry_space_group_name_H-M "C C C A"
_symmetry_group_IT_number 68
_space_group.IT_coordinate_system_code '2'
_symmetry_cell_setting 'orthorhombic'
loop_
_space_group_symop_operation_xyz
x,y,z
-x,1/2-y,z
x,1/2-y,1/2-z
-x,y,1/2-z
-x,-y,-z
x,1/2+y,-z
-x,1/2+y,1/2+z
x,-y,1/2+z
1/2+x,1/2+y,z
1/2-x,-y,z
1/2+x,-y,1/2-z
1/2-x,1/2+y,1/2-z
1/2-x,1/2-y,-z
1/2+x,y,-z
1/2-x,y,1/2+z
1/2+x,1/2-y,1/2+z
loop_
_atom_site_type_symbol
_atom_site_label
_atom_site_fract_x
_atom_site_fract_y
_atom_site_fract_z
Si Si1 0.072280 0.464235 0.831931
Si Si2 0.655306 0.350966 0.046672
Si Si3 0.481501 0.412716 0.015182
Si Si4 0.323034 0.354107 0.097447
Si Si5 0.415355 0.947888 0.175390
Si Si6 0.728589 0.896497 0.785201
Si Si7 0.498171 0.702484 0.643432
O O1 0.010007 0.450642 0.921268
O O2 0.126598 0.507312 0.851959
O O3 0.141877 0.428998 0.795249
O O4 0.000000 0.474545 0.750000
O O5 0.575441 0.383069 0.010917
O O6 0.727484 0.368209 0.125555
O O7 0.595266 0.313059 0.088295
O O8 0.727664 0.339524 0.962035
O O9 0.381539 0.391627 0.053105
O O10 0.460907 0.427537 0.913911
O O11 0.285034 0.368267 0.196880
O O12 0.396228 0.315699 0.102464
O O13 0.500000 0.951105 0.250000
O O14 0.331364 0.920261 0.220776
O O15 0.500000 0.750000 0.632304
O O16 0.500000 0.688769 0.750000
#
# Coordination Sequence:
#
# PCOD8282104 Si02
#       7
#    16  16  16  16  16  16  16
#     4  10  20  34  54  73 106 145 189 239 285 313
#     4  10  21  35  59  86 108 148 182 224 282 328
#     4  10  20  35  54  78 106 144 196 227 273 338
#     4  11  20  36  61  84 111 149 185 231 276 335
#     4  11  22  35  50  76 112 146 181 236 288 329
#     4  11  20  35  55  80 106 144 191 232 269 335
#     4  10  21  38  62  91 116 144 185 227 275 340
#
# _framework density 17.387081999999999
#
# number of rings (size 3 to 8) (size 9 to 14) (size 15 to 20)
#    0.000    1.571    4.286    1.714    0.000    0.571 
#    0.000    0.000    0.000    0.000    0.000    1.000 
#    0.000    0.000    0.000    0.000    0.000    0.000 
#
# Total GULP energy -694272.104013 kJ/mol
# GULP energy per Si atom -12397.716143 kJ/mol
# Density = 1.734751 g / cm^3
# Si number density = 17.387082 Si / 1000 Ang^3
#
#
#
# Elastic Constant Matrix: (Units=GPa)
#
#
# Indices 1 2 3 4 5 6 
#
# 1 77.8857 27.7977 29.9579 0.0000 0.0000 0.0000
# 2 27.7977 86.0591 34.0383 0.0000 0.0000 0.0000
# 3 29.9579 34.0383 90.2423 0.0000 0.0000 0.0000
# 4 0.0000 0.0000 0.0000 21.6824 0.0000 0.0000
# 5 0.0000 0.0000 0.0000 0.0000 37.3031 0.0000
# 6 0.0000 0.0000 0.0000 0.0000 0.0000 11.8666
#
#
#
# Elastic Compliance Matrix: (Units=1/GPa)
#
#
# Indices 1 2 3 4 5 6 
#
# 1 0.015571 -0.003508 -0.003846 0.000000 0.000000 0.000000
# 2 -0.003508 0.014448 -0.004285 0.000000 0.000000 0.000000
# 3 -0.003846 -0.004285 0.013974 0.000000 0.000000 0.000000
# 4 0.000000 0.000000 0.000000 0.046120 0.000000 0.000000
# 5 0.000000 0.000000 0.000000 0.000000 0.026807 0.000000
# 6 0.000000 0.000000 0.000000 0.000000 0.000000 0.084270
#
#
# Mechanical properties :
#
#
# Convention : Reuss Voigt Hill
#
# Bulk Modulus (GPa) = 48.27467 48.64165 48.45816
# Shear Modulus (GPa) = 21.61007 24.99665 23.30336
#
# Velocity S-wave (km/s) = 3.52928 3.79576 3.66494
# Velocity P-wave (km/s) = 6.66578 6.87363 6.77051
#
# Compressibility (1/GPa) = 0.02071480
#
# Stress axis : x y z
#
# Youngs Moduli (GPa) = 64.22323 69.21412 71.56069
#
# Poissons Ratio (x) = 0.24283 0.27520
# Poissons Ratio (y) = 0.22532 0.30663
# Poissons Ratio (z) = 0.24698 0.29658
#
# Static dielectric constant tensor:
#      x y z
#    x 3.203930 0.000000 0.000000 
#    y 0.000000 3.202420 0.000000 
#    z 0.000000 0.000000 2.815970 
# 
# 
# High freq. dielectric constant tensor:
#      x y z
#    x 1.671430 0.000000 0.000000 
#    y 0.000000 1.665550 0.000000 
#    z 0.000000 0.000000 1.679090 
# 
# From -- ./inp_files/21245.got.cif
#   From: 2010.03.12/outbox.cif.g09.slc.cpg/sg68_11_cif.got.tgz:21245.got - 2010.04.10 23:14:56.
