data_PCOD8282351
_publ_section_title
;
Structure prediction by ZEFSAII (Michael W. Deem and Ramdas Pophale) SiO2 
 PCOD8282351
Probable space group: C C C A
;
_chemical_formula_sum "Si O2"
_cell_formula_units_Z 116
_cell_length_a 17.202358
_cell_length_b 18.089391
_cell_length_c 17.274448
_cell_angle_alpha 90.000000
_cell_angle_beta 90.000000
_cell_angle_gamma 90.000000
_cell_volume 5375.465838
_symmetry_space_group_name_H-M "C C C A"
_symmetry_group_IT_number 68
_space_group.IT_coordinate_system_code '2'
_symmetry_cell_setting 'orthorhombic'
loop_
_space_group_symop_operation_xyz
x,y,z
-x,1/2-y,z
x,1/2-y,1/2-z
-x,y,1/2-z
-x,-y,-z
x,1/2+y,-z
-x,1/2+y,1/2+z
x,-y,1/2+z
1/2+x,1/2+y,z
1/2-x,-y,z
1/2+x,-y,1/2-z
1/2-x,1/2+y,1/2-z
1/2-x,1/2-y,-z
1/2+x,y,-z
1/2-x,y,1/2+z
1/2+x,1/2-y,1/2+z
loop_
_atom_site_type_symbol
_atom_site_label
_atom_site_fract_x
_atom_site_fract_y
_atom_site_fract_z
Si Si1 0.106152 0.376984 0.764600
Si Si2 0.787185 0.360660 0.215124
Si Si3 0.431501 0.459139 0.805615
Si Si4 0.032111 0.922671 0.521351
Si Si5 0.374876 0.334426 0.090497
Si Si6 0.500000 0.250000 0.250000
Si Si7 0.569653 0.709375 0.487462
Si Si8 0.293255 0.281233 0.627103
O O1 0.196657 0.381710 0.784412
O O2 0.068060 0.451726 0.798007
O O3 0.094331 0.365819 0.672112
O O4 0.059009 0.305161 0.798920
O O5 0.844129 0.431137 0.213203
O O6 0.812908 0.318861 0.292127
O O7 0.794243 0.307169 0.140506
O O8 0.500000 0.428202 0.750000
O O9 0.450622 0.424197 0.888142
O O10 0.109420 0.898128 0.474087
O O11 0.960883 0.871571 0.492699
O O12 0.000000 0.000000 0.500000
O O13 0.284858 0.315143 0.093032
O O14 0.417244 0.258497 0.064723
O O15 0.500000 0.750000 0.439030
O O16 0.645106 0.699419 0.437070
#
# Coordination Sequence:
#
# PCOD8282351 Si02
#       8
#    16  16  16  16  16   4  16  16
#     4  11  24  41  67 100 133 178 230 296 345 421
#     4  10  22  40  64  97 135 175 232 289 343 414
#     4  12  24  44  66  95 138 189 228 278 359 429
#     4  11  25  41  63  96 134 175 226 287 350 420
#     4  10  22  41  66  94 134 170 225 287 345 406
#     4  12  24  40  72 100 130 170 250 280 360 396
#     4  10  21  38  61  90 125 168 213 281 341 410
#     4  10  20  39  64  95 126 173 227 277 339 407
#
# _framework density 21.579526000000001
#
# number of rings (size 3 to 8) (size 9 to 14) (size 15 to 20)
#    0.000    1.379    0.690    5.793    2.897    1.103 
#    0.000    4.828    0.000    0.000    0.000    0.000 
#    0.000    0.000    0.000    0.000    0.000    0.000 
#
# Total GULP energy -718508.475107 kJ/mol
# GULP energy per Si atom -12388.077157 kJ/mol
# Density = 2.153041 g / cm^3
# Si number density = 21.579526 Si / 1000 Ang^3
#
#
#
# Elastic Constant Matrix: (Units=GPa)
#
#
# Indices 1 2 3 4 5 6 
#
# 1 135.0387 54.1942 37.9353 0.0000 0.0000 0.0000
# 2 54.1942 141.5172 28.6322 0.0000 0.0000 0.0000
# 3 37.9353 28.6322 80.6845 0.0000 0.0000 0.0000
# 4 0.0000 0.0000 0.0000 27.7510 0.0000 0.0000
# 5 0.0000 0.0000 0.0000 0.0000 19.5952 0.0000
# 6 0.0000 0.0000 0.0000 0.0000 0.0000 30.8063
#
#
#
# Elastic Compliance Matrix: (Units=1/GPa)
#
#
# Indices 1 2 3 4 5 6 
#
# 1 0.009563 -0.002965 -0.003444 0.000000 0.000000 0.000000
# 2 -0.002965 0.008532 -0.001634 0.000000 0.000000 0.000000
# 3 -0.003444 -0.001634 0.014593 0.000000 0.000000 0.000000
# 4 0.000000 0.000000 0.000000 0.036035 0.000000 0.000000
# 5 0.000000 0.000000 0.000000 0.000000 0.051033 0.000000
# 6 0.000000 0.000000 0.000000 0.000000 0.000000 0.032461
#
#
# Mechanical properties :
#
#
# Convention : Reuss Voigt Hill
#
# Bulk Modulus (GPa) = 60.23213 66.52929 63.38071
# Shear Modulus (GPa) = 28.76269 31.39575 30.07922
#
# Velocity S-wave (km/s) = 3.65481 3.81844 3.73752
# Velocity P-wave (km/s) = 6.76627 7.09488 6.93253
#
# Compressibility (1/GPa) = 0.01660243
#
# Stress axis : x y z
#
# Youngs Moduli (GPa) = 104.57217 117.20071 68.52666
#
# Poissons Ratio (x) = 0.34754 0.23599
# Poissons Ratio (y) = 0.31009 0.11195
# Poissons Ratio (z) = 0.36013 0.19147
#
# Static dielectric constant tensor:
#      x y z
#    x 4.303660 0.000000 0.000000 
#    y 0.000000 4.166370 0.000000 
#    z 0.000000 0.000000 3.943490 
# 
# 
# High freq. dielectric constant tensor:
#      x y z
#    x 1.863670 0.000000 0.000000 
#    y 0.000000 1.848790 0.000000 
#    z 0.000000 0.000000 1.839520 
# 
# From -- ./inp_files/32168.got.cif
#   From: 2010.03.12/outbox.cif.g09.slc.cpg/sg68_17_cif.got.tgz:32168.got - 2010.04.10 23:14:56.
