data_PCOD8282062
_publ_section_title
;
Structure prediction by ZEFSAII (Michael W. Deem and Ramdas Pophale) SiO2 
 PCOD8282062
Probable space group: C C C A
;
_chemical_formula_sum "Si O2"
_cell_formula_units_Z 88
_cell_length_a 27.700250
_cell_length_b 14.595144
_cell_length_c 9.632925
_cell_angle_alpha 90.000000
_cell_angle_beta 90.000000
_cell_angle_gamma 90.000000
_cell_volume 3894.486941
_symmetry_space_group_name_H-M "C C C A"
_symmetry_group_IT_number 68
_space_group.IT_coordinate_system_code '2'
_symmetry_cell_setting 'orthorhombic'
loop_
_space_group_symop_operation_xyz
x,y,z
-x,1/2-y,z
x,1/2-y,1/2-z
-x,y,1/2-z
-x,-y,-z
x,1/2+y,-z
-x,1/2+y,1/2+z
x,-y,1/2+z
1/2+x,1/2+y,z
1/2-x,-y,z
1/2+x,-y,1/2-z
1/2-x,1/2+y,1/2-z
1/2-x,1/2-y,-z
1/2+x,y,-z
1/2-x,y,1/2+z
1/2+x,1/2-y,1/2+z
loop_
_atom_site_type_symbol
_atom_site_label
_atom_site_fract_x
_atom_site_fract_y
_atom_site_fract_z
Si Si1 0.551862 0.946697 0.794991
Si Si2 0.660525 0.336083 0.422339
Si Si3 0.305584 0.837203 0.440497
Si Si4 0.886737 0.014485 0.047190
Si Si5 0.080538 0.250000 0.750000
Si Si6 0.260300 0.894992 0.713435
O O1 0.500000 0.987572 0.750000
O O2 0.594084 0.987524 0.698883
O O3 0.547994 0.836368 0.793540
O O4 0.566445 0.977386 0.949343
O O5 0.688621 0.270335 0.527956
O O6 0.647790 0.430614 0.502648
O O7 0.612571 0.281533 0.380060
O O8 0.689961 0.359771 0.282249
O O9 0.265562 0.877524 0.548826
O O10 0.283954 0.841583 0.285933
O O11 0.355961 0.892271 0.451278
O O12 0.250000 0.000000 0.745315
#
# Coordination Sequence:
#
# PCOD8282062 Si02
#       6
#    16  16  16  16   8  16
#     4  11  23  43  73 104 130 168 221 284 345 407
#     4  11  21  41  65  92 132 179 224 266 330 391
#     4  12  24  43  62  93 134 179 228 272 324 385
#     4  11  24  43  70  96 135 177 217 276 342 403
#     4  10  19  40  72  96 130 172 224 270 327 414
#     4  12  24  39  64  94 130 174 228 278 316 383
#
# _framework density 22.596043000000002
#
# number of rings (size 3 to 8) (size 9 to 14) (size 15 to 20)
#    0.000    0.727    5.455    3.000    0.000    0.000 
#    0.000    2.727    0.000    1.091    0.000    0.000 
#    0.000    0.000    0.000    0.000    0.000    0.000 
#
# Total GULP energy -545691.431081 kJ/mol
# GULP energy per Si atom -12402.077979 kJ/mol
# Density = 2.254461 g / cm^3
# Si number density = 22.596043 Si / 1000 Ang^3
#
#
#
# Elastic Constant Matrix: (Units=GPa)
#
#
# Indices 1 2 3 4 5 6 
#
# 1 83.4967 13.5176 9.4695 0.0000 0.0000 0.0000
# 2 13.5176 99.6781 6.9139 0.0000 0.0000 0.0000
# 3 9.4695 6.9139 60.8614 0.0000 0.0000 0.0000
# 4 0.0000 0.0000 0.0000 23.9585 0.0000 0.0000
# 5 0.0000 0.0000 0.0000 0.0000 16.0476 0.0000
# 6 0.0000 0.0000 0.0000 0.0000 0.0000 29.2332
#
#
#
# Elastic Compliance Matrix: (Units=1/GPa)
#
#
# Indices 1 2 3 4 5 6 
#
# 1 0.012429 -0.001564 -0.001756 0.000000 0.000000 0.000000
# 2 -0.001564 0.010309 -0.000928 0.000000 0.000000 0.000000
# 3 -0.001756 -0.000928 0.016809 0.000000 0.000000 0.000000
# 4 0.000000 0.000000 0.000000 0.041739 0.000000 0.000000
# 5 0.000000 0.000000 0.000000 0.000000 0.062315 0.000000
# 6 0.000000 0.000000 0.000000 0.000000 0.000000 0.034208
#
#
# Mechanical properties :
#
#
# Convention : Reuss Voigt Hill
#
# Bulk Modulus (GPa) = 32.20439 33.75979 32.98209
# Shear Modulus (GPa) = 25.42535 28.12353 26.77444
#
# Velocity S-wave (km/s) = 3.35806 3.53175 3.44600
# Velocity P-wave (km/s) = 5.41466 5.62174 5.51917
#
# Compressibility (1/GPa) = 0.03105167
#
# Stress axis : x y z
#
# Youngs Moduli (GPa) = 80.45804 97.00541 59.49043
#
# Poissons Ratio (x) = 0.15169 0.10448
# Poissons Ratio (y) = 0.12581 0.05519
# Poissons Ratio (z) = 0.14130 0.09000
#
# Static dielectric constant tensor:
#      x y z
#    x 3.863960 0.000000 0.000000 
#    y 0.000000 4.306590 0.000000 
#    z 0.000000 0.000000 3.769540 
# 
# 
# High freq. dielectric constant tensor:
#      x y z
#    x 1.883100 0.000000 0.000000 
#    y 0.000000 1.905180 0.000000 
#    z 0.000000 0.000000 1.878790 
# 
# From -- ./inp_files/17071.got.cif
#   From: 2010.03.12/outbox.cif.g09.slc.cpg/sg68_9_cif.got.tgz:17071.got - 2010.04.10 23:14:56.
