data_PCOD8282470
_publ_section_title
;
Structure prediction by ZEFSAII (Michael W. Deem and Ramdas Pophale) SiO2 
 PCOD8282470
Probable space group: C C C A
;
_chemical_formula_sum "Si O2"
_cell_formula_units_Z 92
_cell_length_a 20.407471
_cell_length_b 10.744265
_cell_length_c 22.246217
_cell_angle_alpha 90.000000
_cell_angle_beta 90.000000
_cell_angle_gamma 90.000000
_cell_volume 4877.778427
_symmetry_space_group_name_H-M "C C C A"
_symmetry_group_IT_number 68
_space_group.IT_coordinate_system_code '2'
_symmetry_cell_setting 'orthorhombic'
loop_
_space_group_symop_operation_xyz
x,y,z
-x,1/2-y,z
x,1/2-y,1/2-z
-x,y,1/2-z
-x,-y,-z
x,1/2+y,-z
-x,1/2+y,1/2+z
x,-y,1/2+z
1/2+x,1/2+y,z
1/2-x,-y,z
1/2+x,-y,1/2-z
1/2-x,1/2+y,1/2-z
1/2-x,1/2-y,-z
1/2+x,y,-z
1/2-x,y,1/2+z
1/2+x,1/2-y,1/2+z
loop_
_atom_site_type_symbol
_atom_site_label
_atom_site_fract_x
_atom_site_fract_y
_atom_site_fract_z
Si Si1 0.604943 0.148659 0.337293
Si Si2 0.253435 0.244044 0.317217
Si Si3 0.750000 0.500000 0.888936
Si Si4 0.074418 0.247724 0.535243
Si Si5 0.500000 0.750000 0.750000
Si Si6 0.815679 0.059243 0.381423
Si Si7 0.854940 0.997292 0.510103
O O1 0.675182 0.193374 0.314488
O O2 0.582577 0.229513 0.393900
O O3 0.547264 0.159331 0.288335
O O4 0.617266 0.003211 0.355500
O O5 0.224519 0.250000 0.250000
O O6 0.195541 0.299028 0.360677
O O7 0.265923 0.109171 0.343246
O O8 0.811881 0.524712 0.931190
O O9 0.098015 0.385563 0.519299
O O10 0.000000 0.250000 0.514834
O O11 0.109612 0.135031 0.500156
O O12 0.811817 0.037706 0.452792
O O13 0.750000 0.000000 0.352518
#
# Coordination Sequence:
#
# PCOD8282470 Si02
#       7
#    16  16   8  16   4  16  16
#     4  10  21  35  57  83 114 150 201 241 293 342
#     4  11  23  37  56  86 124 153 195 243 301 363
#     4  12  24  36  62  96 116 152 198 254 308 360
#     4  11  22  39  57  88 118 160 201 244 297 360
#     4  12  20  36  60  88 118 156 204 254 276 348
#     4   9  20  37  58  84 117 155 186 243 311 352
#     4  11  22  38  63  88 124 152 199 256 304 364
#
# _framework density 18.861046000000002
#
# number of rings (size 3 to 8) (size 9 to 14) (size 15 to 20)
#    0.000    1.391    4.348    1.565    3.652    1.391 
#    0.000    0.000    0.000    0.000    0.000    1.217 
#    0.000    0.000    0.000    0.000    0.000    0.000 
#
# Total GULP energy -569906.759871 kJ/mol
# GULP energy per Si atom -12389.277388 kJ/mol
# Density = 1.881812 g / cm^3
# Si number density = 18.861046 Si / 1000 Ang^3
#
#
#
# Elastic Constant Matrix: (Units=GPa)
#
#
# Indices 1 2 3 4 5 6 
#
# 1 78.2934 10.2309 32.3813 0.0000 0.0000 0.0000
# 2 10.2309 39.4483 27.5921 0.0000 0.0000 0.0000
# 3 32.3813 27.5921 106.3115 0.0000 0.0000 0.0000
# 4 0.0000 0.0000 0.0000 14.8366 0.0000 0.0000
# 5 0.0000 0.0000 0.0000 0.0000 28.6303 0.0000
# 6 0.0000 0.0000 0.0000 0.0000 0.0000 12.3448
#
#
#
# Elastic Compliance Matrix: (Units=1/GPa)
#
#
# Indices 1 2 3 4 5 6 
#
# 1 0.014635 -0.000828 -0.004243 0.000000 0.000000 0.000000
# 2 -0.000828 0.031019 -0.007798 0.000000 0.000000 0.000000
# 3 -0.004243 -0.007798 0.012723 0.000000 0.000000 0.000000
# 4 0.000000 0.000000 0.000000 0.067401 0.000000 0.000000
# 5 0.000000 0.000000 0.000000 0.000000 0.034928 0.000000
# 6 0.000000 0.000000 0.000000 0.000000 0.000000 0.081006
#
#
# Mechanical properties :
#
#
# Convention : Reuss Voigt Hill
#
# Bulk Modulus (GPa) = 30.63878 40.49577 35.56727
# Shear Modulus (GPa) = 17.96428 21.41893 19.69160
#
# Velocity S-wave (km/s) = 3.08953 3.37355 3.23466
# Velocity P-wave (km/s) = 5.38579 6.05736 5.73142
#
# Compressibility (1/GPa) = 0.03263837
#
# Stress axis : x y z
#
# Youngs Moduli (GPa) = 68.32704 32.23830 78.59981
#
# Poissons Ratio (x) = 0.02669 0.33349
# Poissons Ratio (y) = 0.05658 0.61296
# Poissons Ratio (z) = 0.28990 0.25141
#
# Static dielectric constant tensor:
#      x y z
#    x 3.401880 0.000000 0.000000 
#    y 0.000000 3.597100 0.000000 
#    z 0.000000 0.000000 3.476480 
# 
# 
# High freq. dielectric constant tensor:
#      x y z
#    x 1.721900 0.000000 0.000000 
#    y 0.000000 1.731320 0.000000 
#    z 0.000000 0.000000 1.737380 
# 
# From -- ./inp_files/39473.got.cif
#   From: 2010.03.12/outbox.cif.g09.slc.cpg/sg68_20_cif.got.tgz:39473.got - 2010.04.10 23:14:56.
