data_PCOD8282764
_publ_section_title
;
Structure prediction by ZEFSAII (Michael W. Deem and Ramdas Pophale) SiO2 
 PCOD8282764
Probable space group: C C C A
;
_chemical_formula_sum "Si O2"
_cell_formula_units_Z 72
_cell_length_a 10.178574
_cell_length_b 20.339352
_cell_length_c 18.132640
_cell_angle_alpha 90.000000
_cell_angle_beta 90.000000
_cell_angle_gamma 90.000000
_cell_volume 3753.920666
_symmetry_space_group_name_H-M "C C C A"
_symmetry_group_IT_number 68
_space_group.IT_coordinate_system_code '2'
_symmetry_cell_setting 'orthorhombic'
loop_
_space_group_symop_operation_xyz
x,y,z
-x,1/2-y,z
x,1/2-y,1/2-z
-x,y,1/2-z
-x,-y,-z
x,1/2+y,-z
-x,1/2+y,1/2+z
x,-y,1/2+z
1/2+x,1/2+y,z
1/2-x,-y,z
1/2+x,-y,1/2-z
1/2-x,1/2+y,1/2-z
1/2-x,1/2-y,-z
1/2+x,y,-z
1/2-x,y,1/2+z
1/2+x,1/2-y,1/2+z
loop_
_atom_site_type_symbol
_atom_site_label
_atom_site_fract_x
_atom_site_fract_y
_atom_site_fract_z
Si Si1 0.202365 0.250000 0.250000
Si Si2 0.500000 0.750000 0.605350
Si Si3 0.500000 0.750000 0.125298
Si Si4 0.789820 0.574966 0.434345
Si Si5 0.531164 0.645036 0.491139
Si Si6 0.874501 0.353684 0.794903
O O1 0.123187 0.264822 0.176217
O O2 0.277982 0.319944 0.264607
O O3 0.573079 0.695615 0.555514
O O4 0.397240 0.711479 0.655445
O O5 0.469243 0.814314 0.076374
O O6 0.750000 0.500000 0.442979
O O7 0.666512 0.613392 0.466180
O O8 0.814518 0.589790 0.347151
O O9 0.922315 0.592548 0.480124
O O10 0.000000 0.381670 0.750000
#
# Coordination Sequence:
#
# PCOD8282764 Si02
#       6
#     8   8   8  16  16  16
#     4  11  19  34  56  88 125 143 192 248 316 367
#     4   9  19  31  59  93 111 140 190 254 311 355
#     4  10  22  33  57  94 118 150 188 260 320 356
#     4  11  24  41  59  85 125 167 209 242 288 363
#     4  10  22  37  61  87 120 155 198 255 307 353
#     4  11  20  35  61  88 116 152 196 247 306 361
#
# _framework density 19.179946000000001
#
# number of rings (size 3 to 8) (size 9 to 14) (size 15 to 20)
#    0.000    1.556    4.444    0.667    3.111    2.667 
#    0.000    2.222    0.000    5.333    0.000    0.000 
#    0.000    0.000    0.000    0.000    0.000    0.000 
#
# Total GULP energy -446069.635577 kJ/mol
# GULP energy per Si atom -12390.823210 kJ/mol
# Density = 1.913629 g / cm^3
# Si number density = 19.179946 Si / 1000 Ang^3
#
#
#
# Elastic Constant Matrix: (Units=GPa)
#
#
# Indices 1 2 3 4 5 6 
#
# 1 100.3086 31.8060 33.8816 0.0000 0.0000 0.0000
# 2 31.8060 94.8477 40.2197 0.0000 0.0000 0.0000
# 3 33.8816 40.2197 90.2254 0.0000 0.0000 0.0000
# 4 0.0000 0.0000 0.0000 21.0307 0.0000 0.0000
# 5 0.0000 0.0000 0.0000 0.0000 29.3767 0.0000
# 6 0.0000 0.0000 0.0000 0.0000 0.0000 24.7862
#
#
#
# Elastic Compliance Matrix: (Units=1/GPa)
#
#
# Indices 1 2 3 4 5 6 
#
# 1 0.011911 -0.002586 -0.003320 0.000000 0.000000 0.000000
# 2 -0.002586 0.013562 -0.005074 0.000000 0.000000 0.000000
# 3 -0.003320 -0.005074 0.014592 0.000000 0.000000 0.000000
# 4 0.000000 0.000000 0.000000 0.047550 0.000000 0.000000
# 5 0.000000 0.000000 0.000000 0.000000 0.034041 0.000000
# 6 0.000000 0.000000 0.000000 0.000000 0.000000 0.040345
#
#
# Mechanical properties :
#
#
# Convention : Reuss Voigt Hill
#
# Bulk Modulus (GPa) = 55.23686 55.24403 55.24044
# Shear Modulus (GPa) = 26.31633 27.00366 26.66000
#
# Velocity S-wave (km/s) = 3.70817 3.75628 3.73231
# Velocity P-wave (km/s) = 6.86992 6.90496 6.88746
#
# Compressibility (1/GPa) = 0.01810385
#
# Stress axis : x y z
#
# Youngs Moduli (GPa) = 83.95846 73.73377 68.53055
#
# Poissons Ratio (x) = 0.19070 0.22751
# Poissons Ratio (y) = 0.21715 0.34775
# Poissons Ratio (z) = 0.27873 0.37416
#
# Static dielectric constant tensor:
#      x y z
#    x 3.588210 0.000000 0.000000 
#    y 0.000000 3.536100 0.000000 
#    z 0.000000 0.000000 3.729650 
# 
# 
# High freq. dielectric constant tensor:
#      x y z
#    x 1.749940 0.000000 0.000000 
#    y 0.000000 1.721580 0.000000 
#    z 0.000000 0.000000 1.757720 
# 
# From -- ./inp_files/29553.got.cif
#   From: 2010.03.12/outbox.cif.g09.slc.cpg/sg68_15_cif.got.tgz:29553.got - 2010.04.10 23:14:56.
