data_PCOD8282833
_publ_section_title
;
Structure prediction by ZEFSAII (Michael W. Deem and Ramdas Pophale) SiO2 
 PCOD8282833
Probable space group: C C C A
;
_chemical_formula_sum "Si O2"
_cell_formula_units_Z 96
_cell_length_a 18.480293
_cell_length_b 16.609580
_cell_length_c 15.163584
_cell_angle_alpha 90.000000
_cell_angle_beta 90.000000
_cell_angle_gamma 90.000000
_cell_volume 4654.460668
_symmetry_space_group_name_H-M "C C C A"
_symmetry_group_IT_number 68
_space_group.IT_coordinate_system_code '2'
_symmetry_cell_setting 'orthorhombic'
loop_
_space_group_symop_operation_xyz
x,y,z
-x,1/2-y,z
x,1/2-y,1/2-z
-x,y,1/2-z
-x,-y,-z
x,1/2+y,-z
-x,1/2+y,1/2+z
x,-y,1/2+z
1/2+x,1/2+y,z
1/2-x,-y,z
1/2+x,-y,1/2-z
1/2-x,1/2+y,1/2-z
1/2-x,1/2-y,-z
1/2+x,y,-z
1/2-x,y,1/2+z
1/2+x,1/2-y,1/2+z
loop_
_atom_site_type_symbol
_atom_site_label
_atom_site_fract_x
_atom_site_fract_y
_atom_site_fract_z
Si Si1 0.423537 0.423445 0.069843
Si Si2 0.077136 0.960296 0.094068
Si Si3 0.195571 0.634499 0.488479
Si Si4 0.920229 0.112557 0.287084
Si Si5 0.821042 0.035084 0.157994
Si Si6 0.850249 0.803974 0.948190
O O1 0.504410 0.407411 0.105582
O O2 0.374950 0.459042 0.148363
O O3 0.425864 0.493230 0.997622
O O4 0.392319 0.340750 0.031703
O O5 0.145732 0.900529 0.090360
O O6 0.082204 0.023296 0.172921
O O7 0.208066 0.568984 0.564565
O O8 0.155890 0.709740 0.534612
O O9 0.270984 0.656164 0.441817
O O10 0.861127 0.108141 0.208987
O O11 0.895347 0.179559 0.358226
O O12 0.000000 0.134768 0.250000
O O13 0.750000 0.000000 0.208087
#
# Coordination Sequence:
#
# PCOD8282833 Si02
#       6
#    16  16  16  16  16  16
#     4   9  17  35  57  81 111 151 200 246 287 357
#     4   9  19  34  58  84 114 149 202 247 292 354
#     4  10  22  39  59  86 118 161 206 247 295 364
#     4  11  23  38  61  92 124 154 199 260 317 361
#     4  11  21  36  60  87 114 155 199 255 306 363
#     4  10  22  39  59  86 122 160 203 249 300 369
#
# _framework density 20.625375999999999
#
# number of rings (size 3 to 8) (size 9 to 14) (size 15 to 20)
#    0.000    2.000    3.333    0.000    4.667    1.333 
#    0.000    0.833    0.000    1.000    0.000    0.000 
#    0.000    0.000    0.000    0.000    0.000    0.000 
#
# Total GULP energy -595083.505265 kJ/mol
# GULP energy per Si atom -12397.573026 kJ/mol
# Density = 2.057843 g / cm^3
# Si number density = 20.625376 Si / 1000 Ang^3
#
#
#
# Elastic Constant Matrix: (Units=GPa)
#
#
# Indices 1 2 3 4 5 6 
#
# 1 122.1642 39.0914 22.8042 0.0000 0.0000 0.0000
# 2 39.0914 63.1489 9.7760 0.0000 0.0000 0.0000
# 3 22.8042 9.7760 54.2354 0.0000 0.0000 0.0000
# 4 0.0000 0.0000 0.0000 19.2419 0.0000 0.0000
# 5 0.0000 0.0000 0.0000 0.0000 32.0916 0.0000
# 6 0.0000 0.0000 0.0000 0.0000 0.0000 31.8994
#
#
#
# Elastic Compliance Matrix: (Units=1/GPa)
#
#
# Indices 1 2 3 4 5 6 
#
# 1 0.010794 -0.006151 -0.003430 0.000000 0.000000 0.000000
# 2 -0.006151 0.019795 -0.000982 0.000000 0.000000 0.000000
# 3 -0.003430 -0.000982 0.020057 0.000000 0.000000 0.000000
# 4 0.000000 0.000000 0.000000 0.051970 0.000000 0.000000
# 5 0.000000 0.000000 0.000000 0.000000 0.031161 0.000000
# 6 0.000000 0.000000 0.000000 0.000000 0.000000 0.031349
#
#
# Mechanical properties :
#
#
# Convention : Reuss Voigt Hill
#
# Bulk Modulus (GPa) = 33.87385 42.54353 38.20869
# Shear Modulus (GPa) = 25.49825 27.83838 26.66831
#
# Velocity S-wave (km/s) = 3.51986 3.67783 3.59971
# Velocity P-wave (km/s) = 5.74267 6.22148 5.98686
#
# Compressibility (1/GPa) = 0.02952130
#
# Stress axis : x y z
#
# Youngs Moduli (GPa) = 92.64213 50.51701 49.85725
#
# Poissons Ratio (x) = 0.31073 0.17100
# Poissons Ratio (y) = 0.56985 0.04895
# Poissons Ratio (z) = 0.31775 0.04960
#
# Static dielectric constant tensor:
#      x y z
#    x 4.060350 0.000000 0.000000 
#    y 0.000000 3.442430 0.000000 
#    z 0.000000 0.000000 3.531410 
# 
# 
# High freq. dielectric constant tensor:
#      x y z
#    x 1.828720 0.000000 0.000000 
#    y 0.000000 1.783140 0.000000 
#    z 0.000000 0.000000 1.780010 
# 
# From -- ./inp_files/24452.got.cif
#   From: 2010.03.12/outbox.cif.g09.slc.cpg/sg68_13_cif.got.tgz:24452.got - 2010.04.10 23:14:56.
