data_PCOD8282164
_publ_section_title
;
Structure prediction by ZEFSAII (Michael W. Deem and Ramdas Pophale) SiO2 
 PCOD8282164
Probable space group: C C C A
;
_chemical_formula_sum "Si O2"
_cell_formula_units_Z 96
_cell_length_a 22.581711
_cell_length_b 9.351299
_cell_length_c 23.522623
_cell_angle_alpha 90.000000
_cell_angle_beta 90.000000
_cell_angle_gamma 90.000000
_cell_volume 4967.233051
_symmetry_space_group_name_H-M "C C C A"
_symmetry_group_IT_number 68
_space_group.IT_coordinate_system_code '2'
_symmetry_cell_setting 'orthorhombic'
loop_
_space_group_symop_operation_xyz
x,y,z
-x,1/2-y,z
x,1/2-y,1/2-z
-x,y,1/2-z
-x,-y,-z
x,1/2+y,-z
-x,1/2+y,1/2+z
x,-y,1/2+z
1/2+x,1/2+y,z
1/2-x,-y,z
1/2+x,-y,1/2-z
1/2-x,1/2+y,1/2-z
1/2-x,1/2-y,-z
1/2+x,y,-z
1/2-x,y,1/2+z
1/2+x,1/2-y,1/2+z
loop_
_atom_site_type_symbol
_atom_site_label
_atom_site_fract_x
_atom_site_fract_y
_atom_site_fract_z
Si Si1 0.621518 0.827149 0.625722
Si Si2 0.762103 0.165590 0.556965
Si Si3 0.378663 0.570130 0.207433
Si Si4 0.198802 0.308299 0.340201
Si Si5 0.000000 0.020371 0.750000
Si Si6 0.679158 0.597628 0.695040
Si Si7 0.000000 0.750000 0.153035
O O1 0.669669 0.807095 0.575873
O O2 0.634365 0.723470 0.679459
O O3 0.554556 0.781003 0.609600
O O4 0.619919 0.990720 0.646501
O O5 0.750000 0.250000 0.500000
O O6 0.715935 0.223111 0.603338
O O7 0.750000 0.000000 0.546550
O O8 0.352224 0.727509 0.195796
O O9 0.443052 0.579882 0.237204
O O10 0.334458 0.474493 0.244869
O O11 0.256304 0.330102 0.300545
O O12 0.175794 0.470203 0.353044
O O13 0.987609 0.114842 0.805937
#
# Coordination Sequence:
#
# PCOD8282164 Si02
#       7
#    16  16  16  16   8  16   8
#     4  10  20  35  61  86 116 151 203 238 284 360
#     4  11  24  41  61  86 109 148 196 260 316 352
#     4  11  19  36  55  88 124 159 201 231 282 359
#     4  10  23  37  53  82 118 151 195 239 300 352
#     4   9  18  30  57  86 122 169 197 228 274 353
#     4  10  21  33  52  84 121 159 184 229 286 359
#     4   9  16  34  58  88 118 158 200 232 281 360
#
# _framework density 19.326656
#
# number of rings (size 3 to 8) (size 9 to 14) (size 15 to 20)
#    0.000    1.833    3.333    1.000    4.667    9.333 
#    0.000    1.667    0.000    1.000    4.333    0.000 
#    0.000    0.000    0.000    0.000    0.000    0.000 
#
# Total GULP energy -594795.681574 kJ/mol
# GULP energy per Si atom -12391.576699 kJ/mol
# Density = 1.928267 g / cm^3
# Si number density = 19.326656 Si / 1000 Ang^3
#
#
#
# Elastic Constant Matrix: (Units=GPa)
#
#
# Indices 1 2 3 4 5 6 
#
# 1 138.7746 47.0812 46.0781 0.0000 0.0000 0.0000
# 2 47.0812 111.0787 25.8008 0.0000 0.0000 0.0000
# 3 46.0781 25.8008 75.0398 0.0000 0.0000 0.0000
# 4 0.0000 0.0000 0.0000 29.0253 0.0000 0.0000
# 5 0.0000 0.0000 0.0000 0.0000 24.7669 0.0000
# 6 0.0000 0.0000 0.0000 0.0000 0.0000 33.1368
#
#
#
# Elastic Compliance Matrix: (Units=1/GPa)
#
#
# Indices 1 2 3 4 5 6 
#
# 1 0.009908 -0.003028 -0.005043 0.000000 0.000000 0.000000
# 2 -0.003028 0.010710 -0.001823 0.000000 0.000000 0.000000
# 3 -0.005043 -0.001823 0.017049 0.000000 0.000000 0.000000
# 4 0.000000 0.000000 0.000000 0.034453 0.000000 0.000000
# 5 0.000000 0.000000 0.000000 0.000000 0.040376 0.000000
# 6 0.000000 0.000000 0.000000 0.000000 0.000000 0.030178
#
#
# Mechanical properties :
#
#
# Convention : Reuss Voigt Hill
#
# Bulk Modulus (GPa) = 55.93019 62.53481 59.23250
# Shear Modulus (GPa) = 29.68762 31.11467 30.40114
#
# Velocity S-wave (km/s) = 3.92356 4.01675 3.97043
# Velocity P-wave (km/s) = 7.03761 7.34435 7.19261
#
# Compressibility (1/GPa) = 0.01787943
#
# Stress axis : x y z
#
# Youngs Moduli (GPa) = 100.93291 93.37502 58.65315
#
# Poissons Ratio (x) = 0.28275 0.29576
# Poissons Ratio (y) = 0.30564 0.10691
# Poissons Ratio (z) = 0.50896 0.17021
#
# Static dielectric constant tensor:
#      x y z
#    x 3.804150 0.000000 0.000000 
#    y 0.000000 3.837330 0.000000 
#    z 0.000000 0.000000 3.079300 
# 
# 
# High freq. dielectric constant tensor:
#      x y z
#    x 1.757700 0.000000 0.000000 
#    y 0.000000 1.770590 0.000000 
#    z 0.000000 0.000000 1.693640 
# 
# From -- ./inp_files/46982.got.cif
#   From: 2010.03.12/outbox.cif.g09.slc.cpg/sg68_24_cif.got.tgz:46982.got - 2010.04.10 23:14:56.
