data_PCOD8282647
_publ_section_title
;
Structure prediction by ZEFSAII (Michael W. Deem and Ramdas Pophale) SiO2 
 PCOD8282647
Probable space group: C C C A
;
_chemical_formula_sum "Si O2"
_cell_formula_units_Z 80
_cell_length_a 16.688209
_cell_length_b 26.265303
_cell_length_c 8.769997
_cell_angle_alpha 90.000000
_cell_angle_beta 90.000000
_cell_angle_gamma 90.000000
_cell_volume 3844.072679
_symmetry_space_group_name_H-M "C C C A"
_symmetry_group_IT_number 68
_space_group.IT_coordinate_system_code '2'
_symmetry_cell_setting 'orthorhombic'
loop_
_space_group_symop_operation_xyz
x,y,z
-x,1/2-y,z
x,1/2-y,1/2-z
-x,y,1/2-z
-x,-y,-z
x,1/2+y,-z
-x,1/2+y,1/2+z
x,-y,1/2+z
1/2+x,1/2+y,z
1/2-x,-y,z
1/2+x,-y,1/2-z
1/2-x,1/2+y,1/2-z
1/2-x,1/2-y,-z
1/2+x,y,-z
1/2-x,y,1/2+z
1/2+x,1/2-y,1/2+z
loop_
_atom_site_type_symbol
_atom_site_label
_atom_site_fract_x
_atom_site_fract_y
_atom_site_fract_z
Si Si1 0.666703 0.692800 0.703701
Si Si2 0.420333 0.091130 0.678996
Si Si3 0.073146 0.394429 0.656921
Si Si4 0.708860 0.053606 0.019951
Si Si5 0.690249 0.852221 0.107841
O O1 0.648250 0.750000 0.750000
O O2 0.593904 0.658673 0.763944
O O3 0.669477 0.689244 0.520522
O O4 0.749609 0.673511 0.774437
O O5 0.500000 0.063767 0.750000
O O6 0.448241 0.117210 0.520033
O O7 0.344253 0.053912 0.638372
O O8 0.389738 0.132963 0.799504
O O9 0.147591 0.434719 0.660767
O O10 0.000000 0.419675 0.750000
O O11 0.774630 0.098365 0.018690
O O12 0.750000 0.000000 0.044240
#
# Coordination Sequence:
#
# PCOD8282647 Si02
#       5
#    16  16  16  16  16
#     4  11  21  36  63  94 130 179 229 277 331 399
#     4  10  21  39  66  93 128 172 215 276 343 398
#     4   9  20  40  62  96 133 172 222 278 342 398
#     4   9  21  39  65  92 126 174 227 275 345 410
#     4  11  20  40  60  95 132 169 227 282 333 406
#
# _framework density 20.811260999999998
#
# number of rings (size 3 to 8) (size 9 to 14) (size 15 to 20)
#    1.200    0.800    2.000    1.800    0.000    1.200 
#    0.000    2.000    0.000    7.800    0.000    0.000 
#    0.000    0.000    0.000    0.000    0.000    0.000 
#
# Total GULP energy -495609.023993 kJ/mol
# GULP energy per Si atom -12390.225600 kJ/mol
# Density = 2.076389 g / cm^3
# Si number density = 20.811261 Si / 1000 Ang^3
#
#
#
# Elastic Constant Matrix: (Units=GPa)
#
#
# Indices 1 2 3 4 5 6 
#
# 1 92.8395 30.9238 51.1084 0.0000 0.0000 0.0000
# 2 30.9238 97.8413 36.5614 0.0000 0.0000 0.0000
# 3 51.1084 36.5614 135.6302 0.0000 0.0000 0.0000
# 4 0.0000 0.0000 0.0000 22.5407 0.0000 0.0000
# 5 0.0000 0.0000 0.0000 0.0000 50.3777 0.0000
# 6 0.0000 0.0000 0.0000 0.0000 0.0000 15.4716
#
#
#
# Elastic Compliance Matrix: (Units=1/GPa)
#
#
# Indices 1 2 3 4 5 6 
#
# 1 0.014237 -0.002775 -0.004617 0.000000 0.000000 0.000000
# 2 -0.002775 0.011906 -0.002164 0.000000 0.000000 0.000000
# 3 -0.004617 -0.002164 0.009696 0.000000 0.000000 0.000000
# 4 0.000000 0.000000 0.000000 0.044364 0.000000 0.000000
# 5 0.000000 0.000000 0.000000 0.000000 0.019850 0.000000
# 6 0.000000 0.000000 0.000000 0.000000 0.000000 0.064634
#
#
# Mechanical properties :
#
#
# Convention : Reuss Voigt Hill
#
# Bulk Modulus (GPa) = 59.77843 62.61090 61.19467
# Shear Modulus (GPa) = 26.40264 31.52584 28.96424
#
# Velocity S-wave (km/s) = 3.56571 3.89632 3.73467
# Velocity P-wave (km/s) = 6.76304 7.09875 6.93293
#
# Compressibility (1/GPa) = 0.01672844
#
# Stress axis : x y z
#
# Youngs Moduli (GPa) = 70.23927 83.98988 103.13438
#
# Poissons Ratio (x) = 0.23303 0.47616
# Poissons Ratio (y) = 0.19488 0.22318
# Poissons Ratio (z) = 0.32429 0.18176
#
# Static dielectric constant tensor:
#      x y z
#    x 3.789740 0.000000 0.000000 
#    y 0.000000 3.314620 0.000000 
#    z 0.000000 0.000000 3.830600 
# 
# 
# High freq. dielectric constant tensor:
#      x y z
#    x 1.817490 0.000000 0.000000 
#    y 0.000000 1.769510 0.000000 
#    z 0.000000 0.000000 1.826910 
# 
# From -- ./inp_files/6245.got.cif
#   From: 2010.03.12/outbox.cif.g09.slc.cpg/sg68_4_cif.got.tgz:6245.got - 2010.04.10 23:14:56.
