data_PCOD8282048
_publ_section_title
;
Structure prediction by ZEFSAII (Michael W. Deem and Ramdas Pophale) SiO2 
 PCOD8282048
Probable space group: C C C A
;
_chemical_formula_sum "Si O2"
_cell_formula_units_Z 116
_cell_length_a 25.185260
_cell_length_b 25.207756
_cell_length_c 8.764606
_cell_angle_alpha 90.000000
_cell_angle_beta 90.000000
_cell_angle_gamma 90.000000
_cell_volume 5564.331850
_symmetry_space_group_name_H-M "C C C A"
_symmetry_group_IT_number 68
_space_group.IT_coordinate_system_code '2'
_symmetry_cell_setting 'orthorhombic'
loop_
_space_group_symop_operation_xyz
x,y,z
-x,1/2-y,z
x,1/2-y,1/2-z
-x,y,1/2-z
-x,-y,-z
x,1/2+y,-z
-x,1/2+y,1/2+z
x,-y,1/2+z
1/2+x,1/2+y,z
1/2-x,-y,z
1/2+x,-y,1/2-z
1/2-x,1/2+y,1/2-z
1/2-x,1/2-y,-z
1/2+x,y,-z
1/2-x,y,1/2+z
1/2+x,1/2-y,1/2+z
loop_
_atom_site_type_symbol
_atom_site_label
_atom_site_fract_x
_atom_site_fract_y
_atom_site_fract_z
Si Si1 0.804021 0.032759 0.583283
Si Si2 0.309236 0.347198 0.149854
Si Si3 0.038035 0.061430 0.627744
Si Si4 0.964128 0.401269 0.121407
Si Si5 0.929364 0.658144 0.332337
Si Si6 0.772779 0.287984 0.128408
Si Si7 0.000000 0.750000 0.250000
Si Si8 0.376326 0.981561 0.182622
O O1 0.796080 0.090203 0.660196
O O2 0.824821 0.038030 0.411163
O O3 0.750000 0.000000 0.589983
O O4 0.852787 0.001199 0.658584
O O5 0.367933 0.333061 0.206151
O O6 0.271498 0.317392 0.269428
O O7 0.305760 0.330519 0.969833
O O8 0.047884 0.120723 0.697346
O O9 0.000000 0.031055 0.750000
O O10 0.006228 0.062244 0.469488
O O11 0.093193 0.031101 0.604020
O O12 0.918452 0.434646 0.206395
O O13 0.000000 0.371205 0.250000
O O14 0.933771 0.364705 0.002276
O O15 0.960888 0.713138 0.347630
O O16 0.805075 0.250000 0.250000
O O17 0.750000 0.250000 0.000000
#
# Coordination Sequence:
#
# PCOD8282048 Si02
#       8
#    16  16  16  16  16  16   4  16
#     4  12  27  39  62  95 136 184 223 264 327 413
#     4  11  23  45  70  97 141 173 223 282 341 402
#     4  10  19  39  63  93 123 171 223 261 325 412
#     4  11  21  38  63  98 130 161 215 281 323 410
#     4  11  23  43  68  95 128 178 222 269 346 410
#     4   9  22  44  70 100 122 166 229 286 332 396
#     4  12  24  44  74  88 120 172 230 276 328 428
#     4  12  22  41  60  92 133 177 216 266 334 396
#
# _framework density 20.847068
#
# number of rings (size 3 to 8) (size 9 to 14) (size 15 to 20)
#    0.000    1.103    4.828    2.897    6.759    0.000 
#    0.000    4.483    0.000    0.000    0.000    0.000 
#    0.000    0.000    0.000    0.000    0.000    0.000 
#
# Total GULP energy -718566.678507 kJ/mol
# GULP energy per Si atom -12389.080664 kJ/mol
# Density = 2.079962 g / cm^3
# Si number density = 20.847068 Si / 1000 Ang^3
#
#
#
# Elastic Constant Matrix: (Units=GPa)
#
#
# Indices 1 2 3 4 5 6 
#
# 1 114.2503 40.6580 14.8632 0.0000 0.0000 0.0000
# 2 40.6580 101.5552 18.4705 0.0000 0.0000 0.0000
# 3 14.8632 18.4705 68.7263 0.0000 0.0000 0.0000
# 4 0.0000 0.0000 0.0000 22.9966 0.0000 0.0000
# 5 0.0000 0.0000 0.0000 0.0000 37.6734 0.0000
# 6 0.0000 0.0000 0.0000 0.0000 0.0000 28.8018
#
#
#
# Elastic Compliance Matrix: (Units=1/GPa)
#
#
# Indices 1 2 3 4 5 6 
#
# 1 0.010297 -0.003908 -0.001176 0.000000 0.000000 0.000000
# 2 -0.003908 0.011836 -0.002336 0.000000 0.000000 0.000000
# 3 -0.001176 -0.002336 0.015433 0.000000 0.000000 0.000000
# 4 0.000000 0.000000 0.000000 0.043485 0.000000 0.000000
# 5 0.000000 0.000000 0.000000 0.000000 0.026544 0.000000
# 6 0.000000 0.000000 0.000000 0.000000 0.000000 0.034720
#
#
# Mechanical properties :
#
#
# Convention : Reuss Voigt Hill
#
# Bulk Modulus (GPa) = 44.00542 48.05725 46.03134
# Shear Modulus (GPa) = 30.35262 31.93036 31.14149
#
# Velocity S-wave (km/s) = 3.81985 3.91787 3.86917
# Velocity P-wave (km/s) = 6.37256 6.60065 6.48761
#
# Compressibility (1/GPa) = 0.02272447
#
# Stress axis : x y z
#
# Youngs Moduli (GPa) = 97.11940 84.48512 64.79760
#
# Poissons Ratio (x) = 0.33019 0.07623
# Poissons Ratio (y) = 0.37957 0.15136
# Poissons Ratio (z) = 0.11426 0.19734
#
# Static dielectric constant tensor:
#      x y z
#    x 3.726850 0.000000 0.000000 
#    y 0.000000 3.895970 0.000000 
#    z 0.000000 0.000000 3.937770 
# 
# 
# High freq. dielectric constant tensor:
#      x y z
#    x 1.820800 0.000000 0.000000 
#    y 0.000000 1.805480 0.000000 
#    z 0.000000 0.000000 1.816410 
# 
# From -- ./inp_files/8360.got.cif
#   From: 2010.03.12/outbox.cif.g09.slc.cpg/sg68_5_cif.got.tgz:8360.got - 2010.04.10 23:14:56.
