data_PCOD8282134
_publ_section_title
;
Structure prediction by ZEFSAII (Michael W. Deem and Ramdas Pophale) SiO2 
 PCOD8282134
Probable space group: C C C A
;
_chemical_formula_sum "Si O2"
_cell_formula_units_Z 96
_cell_length_a 8.238094
_cell_length_b 22.822057
_cell_length_c 27.057656
_cell_angle_alpha 90.000000
_cell_angle_beta 90.000000
_cell_angle_gamma 90.000000
_cell_volume 5087.116692
_symmetry_space_group_name_H-M "C C C A"
_symmetry_group_IT_number 68
_space_group.IT_coordinate_system_code '2'
_symmetry_cell_setting 'orthorhombic'
loop_
_space_group_symop_operation_xyz
x,y,z
-x,1/2-y,z
x,1/2-y,1/2-z
-x,y,1/2-z
-x,-y,-z
x,1/2+y,-z
-x,1/2+y,1/2+z
x,-y,1/2+z
1/2+x,1/2+y,z
1/2-x,-y,z
1/2+x,-y,1/2-z
1/2-x,1/2+y,1/2-z
1/2-x,1/2-y,-z
1/2+x,y,-z
1/2-x,y,1/2+z
1/2+x,1/2-y,1/2+z
loop_
_atom_site_type_symbol
_atom_site_label
_atom_site_fract_x
_atom_site_fract_y
_atom_site_fract_z
Si Si1 0.772675 0.802875 0.445844
Si Si2 0.615079 0.356899 0.207685
Si Si3 0.852711 0.327023 0.956561
Si Si4 0.180419 0.937718 0.771124
Si Si5 0.685754 0.859539 0.645910
Si Si6 0.818507 0.767635 0.844217
O O1 0.750899 0.733387 0.455162
O O2 0.680062 0.845070 0.486099
O O3 0.689586 0.810437 0.392362
O O4 0.959588 0.819648 0.445104
O O5 0.500000 0.330776 0.250000
O O6 0.704271 0.415099 0.227169
O O7 0.501373 0.373553 0.160816
O O8 0.749788 0.307427 0.199510
O O9 0.788086 0.371576 0.913406
O O10 0.188787 0.895830 0.819923
O O11 0.000000 0.941635 0.750000
O O12 0.250000 0.000000 0.788181
O O13 0.707349 0.789707 0.651553
O O14 0.000000 0.750000 0.831067
#
# Coordination Sequence:
#
# PCOD8282134 Si02
#       6
#    16  16  16  16  16  16
#     4   9  18  28  47  71 112 146 185 219 264 322
#     4  10  21  37  55  75 108 149 184 228 278 329
#     4   9  17  30  46  75 107 148 181 220 267 319
#     4  11  23  41  61  83 105 137 185 235 281 332
#     4  10  20  35  54  78 112 148 185 224 277 328
#     4  11  21  32  49  82 117 150 187 226 272 335
#
# _framework density 18.871200999999999
#
# number of rings (size 3 to 8) (size 9 to 14) (size 15 to 20)
#    0.000    2.000    1.667    3.000    7.000    4.667 
#    0.000    4.167    0.000    0.000    0.000    2.333 
#    0.000    0.000    0.000    0.000    0.000    0.000 
#
# Total GULP energy -594708.517663 kJ/mol
# GULP energy per Si atom -12389.760785 kJ/mol
# Density = 1.882825 g / cm^3
# Si number density = 18.871201 Si / 1000 Ang^3
#
#
#
# Elastic Constant Matrix: (Units=GPa)
#
#
# Indices 1 2 3 4 5 6 
#
# 1 97.3965 19.0859 45.2210 0.0000 0.0000 0.0000
# 2 19.0859 56.0990 46.6776 0.0000 0.0000 0.0000
# 3 45.2210 46.6776 124.3563 0.0000 0.0000 0.0000
# 4 0.0000 0.0000 0.0000 8.0632 0.0000 0.0000
# 5 0.0000 0.0000 0.0000 0.0000 25.4273 0.0000
# 6 0.0000 0.0000 0.0000 0.0000 0.0000 24.1734
#
#
#
# Elastic Compliance Matrix: (Units=1/GPa)
#
#
# Indices 1 2 3 4 5 6 
#
# 1 0.012371 -0.000677 -0.004244 0.000000 0.000000 0.000000
# 2 -0.000677 0.025958 -0.009497 0.000000 0.000000 0.000000
# 3 -0.004244 -0.009497 0.013150 0.000000 0.000000 0.000000
# 4 0.000000 0.000000 0.000000 0.124019 0.000000 0.000000
# 5 0.000000 0.000000 0.000000 0.000000 0.039328 0.000000
# 6 0.000000 0.000000 0.000000 0.000000 0.000000 0.041368
#
#
# Mechanical properties :
#
#
# Convention : Reuss Voigt Hill
#
# Bulk Modulus (GPa) = 44.16761 55.53564 49.85163
# Shear Modulus (GPa) = 17.08944 22.65726 19.87335
#
# Velocity S-wave (km/s) = 3.01256 3.46876 3.24868
# Velocity P-wave (km/s) = 5.96290 6.74802 6.36757
#
# Compressibility (1/GPa) = 0.02264103
#
# Stress axis : x y z
#
# Youngs Moduli (GPa) = 80.83671 38.52326 76.04765
#
# Poissons Ratio (x) = 0.02609 0.32277
# Poissons Ratio (y) = 0.05475 0.72225
# Poissons Ratio (z) = 0.34309 0.36587
#
# Static dielectric constant tensor:
#      x y z
#    x 3.523910 0.000000 0.000000 
#    y 0.000000 3.007460 0.000000 
#    z 0.000000 0.000000 4.033870 
# 
# 
# High freq. dielectric constant tensor:
#      x y z
#    x 1.740190 0.000000 0.000000 
#    y 0.000000 1.661270 0.000000 
#    z 0.000000 0.000000 1.748760 
# 
# From -- ./inp_files/49293.got.cif
#   From: 2010.03.12/outbox.cif.g09.slc.cpg/sg68_25_cif.got.tgz:49293.got - 2010.04.10 23:14:56.
