data_PCOD8282166
_publ_section_title
;
Structure prediction by ZEFSAII (Michael W. Deem and Ramdas Pophale) SiO2 
 PCOD8282166
Probable space group: C C C A
;
_chemical_formula_sum "Si O2"
_cell_formula_units_Z 104
_cell_length_a 30.468612
_cell_length_b 8.369694
_cell_length_c 19.084149
_cell_angle_alpha 90.000000
_cell_angle_beta 90.000000
_cell_angle_gamma 90.000000
_cell_volume 4866.705307
_symmetry_space_group_name_H-M "C C C A"
_symmetry_group_IT_number 68
_space_group.IT_coordinate_system_code '2'
_symmetry_cell_setting 'orthorhombic'
loop_
_space_group_symop_operation_xyz
x,y,z
-x,1/2-y,z
x,1/2-y,1/2-z
-x,y,1/2-z
-x,-y,-z
x,1/2+y,-z
-x,1/2+y,1/2+z
x,-y,1/2+z
1/2+x,1/2+y,z
1/2-x,-y,z
1/2+x,-y,1/2-z
1/2-x,1/2+y,1/2-z
1/2-x,1/2-y,-z
1/2+x,y,-z
1/2-x,y,1/2+z
1/2+x,1/2-y,1/2+z
loop_
_atom_site_type_symbol
_atom_site_label
_atom_site_fract_x
_atom_site_fract_y
_atom_site_fract_z
Si Si1 0.250000 0.000000 0.843289
Si Si2 0.594807 0.555385 0.822601
Si Si3 0.164549 0.442099 0.425838
Si Si4 0.830694 0.176026 0.180783
Si Si5 0.502412 0.428470 0.832927
Si Si6 0.207288 0.774273 0.453148
Si Si7 0.912529 0.080764 0.842206
O O1 0.285270 0.091230 0.795340
O O2 0.219363 0.114369 0.888999
O O3 0.633863 0.445605 0.853258
O O4 0.548829 0.500541 0.855726
O O5 0.600747 0.734776 0.850336
O O6 0.596545 0.535665 0.738500
O O7 0.184584 0.309495 0.374171
O O8 0.192309 0.604128 0.423260
O O9 0.168049 0.362193 0.503001
O O10 0.115431 0.476952 0.397725
O O11 0.852622 0.250000 0.250000
O O12 0.500000 0.250000 0.864532
O O13 0.500000 0.422205 0.750000
O O14 0.463211 0.542074 0.860895
O O15 0.250000 0.750000 0.500000
#
# Coordination Sequence:
#
# PCOD8282166 Si02
#       7
#     8  16  16  16  16  16  16
#     4  12  26  44  62  88 120 158 226 268 324 378
#     4  10  20  37  57  93 142 170 209 244 318 414
#     4  12  23  41  68  90 128 161 222 273 330 379
#     4  12  25  41  61  94 132 172 204 261 341 407
#     4   9  17  30  57  91 132 176 209 246 300 387
#     4  12  23  43  67  89 111 168 230 285 311 370
#     4  10  20  35  61  96 130 174 208 260 317 386
#
# _framework density 21.369693999999999
#
# number of rings (size 3 to 8) (size 9 to 14) (size 15 to 20)
#    0.000    1.077    4.615    2.308    2.154    3.077 
#    2.769    0.000    0.000    0.000    0.000   32.308 
#    0.000    0.000    0.000    0.000    0.000    0.000 
#
# Total GULP energy -644595.973645 kJ/mol
# GULP energy per Si atom -12396.076416 kJ/mol
# Density = 2.132106 g / cm^3
# Si number density = 21.369694 Si / 1000 Ang^3
#
#
#
# Elastic Constant Matrix: (Units=GPa)
#
#
# Indices 1 2 3 4 5 6 
#
# 1 141.6001 60.2916 19.7790 0.0000 0.0000 0.0000
# 2 60.2916 149.4199 23.9193 0.0000 0.0000 0.0000
# 3 19.7790 23.9193 28.2117 0.0000 0.0000 0.0000
# 4 0.0000 0.0000 0.0000 31.5977 0.0000 0.0000
# 5 0.0000 0.0000 0.0000 0.0000 26.6956 0.0000
# 6 0.0000 0.0000 0.0000 0.0000 0.0000 42.0008
#
#
#
# Elastic Compliance Matrix: (Units=1/GPa)
#
#
# Indices 1 2 3 4 5 6 
#
# 1 0.008844 -0.002981 -0.003674 0.000000 0.000000 0.000000
# 2 -0.002981 0.008748 -0.005327 0.000000 0.000000 0.000000
# 3 -0.003674 -0.005327 0.042538 0.000000 0.000000 0.000000
# 4 0.000000 0.000000 0.000000 0.031648 0.000000 0.000000
# 5 0.000000 0.000000 0.000000 0.000000 0.037459 0.000000
# 6 0.000000 0.000000 0.000000 0.000000 0.000000 0.023809
#
#
# Mechanical properties :
#
#
# Convention : Reuss Voigt Hill
#
# Bulk Modulus (GPa) = 27.64887 58.57906 43.11397
# Shear Modulus (GPa) = 26.44575 34.40827 30.42701
#
# Velocity S-wave (km/s) = 3.52168 4.01701 3.77747
# Velocity P-wave (km/s) = 5.43164 6.99906 6.26457
#
# Compressibility (1/GPa) = 0.03616785
#
# Stress axis : x y z
#
# Youngs Moduli (GPa) = 113.06565 114.31087 23.50813
#
# Poissons Ratio (x) = 0.34073 0.08636
# Poissons Ratio (y) = 0.33701 0.12523
# Poissons Ratio (z) = 0.41535 0.60897
#
# Static dielectric constant tensor:
#      x y z
#    x 3.977810 0.000000 0.000000 
#    y 0.000000 4.304600 0.000000 
#    z 0.000000 0.000000 3.460550 
# 
# 
# High freq. dielectric constant tensor:
#      x y z
#    x 1.844040 0.000000 0.000000 
#    y 0.000000 1.863590 0.000000 
#    z 0.000000 0.000000 1.786490 
# 
# From -- ./inp_files/41353.got.cif
#   From: 2010.03.12/outbox.cif.g09.slc.cpg/sg68_21_cif.got.tgz:41353.got - 2010.04.10 23:14:56.
