data_PCOD8282376
_publ_section_title
;
Structure prediction by ZEFSAII (Michael W. Deem and Ramdas Pophale) SiO2 
 PCOD8282376
Probable space group: C C C A
;
_chemical_formula_sum "Si O2"
_cell_formula_units_Z 108
_cell_length_a 11.389423
_cell_length_b 20.277274
_cell_length_c 23.020067
_cell_angle_alpha 90.000000
_cell_angle_beta 90.000000
_cell_angle_gamma 90.000000
_cell_volume 5316.402773
_symmetry_space_group_name_H-M "C C C A"
_symmetry_group_IT_number 68
_space_group.IT_coordinate_system_code '2'
_symmetry_cell_setting 'orthorhombic'
loop_
_space_group_symop_operation_xyz
x,y,z
-x,1/2-y,z
x,1/2-y,1/2-z
-x,y,1/2-z
-x,-y,-z
x,1/2+y,-z
-x,1/2+y,1/2+z
x,-y,1/2+z
1/2+x,1/2+y,z
1/2-x,-y,z
1/2+x,-y,1/2-z
1/2-x,1/2+y,1/2-z
1/2-x,1/2-y,-z
1/2+x,y,-z
1/2-x,y,1/2+z
1/2+x,1/2-y,1/2+z
loop_
_atom_site_type_symbol
_atom_site_label
_atom_site_fract_x
_atom_site_fract_y
_atom_site_fract_z
Si Si1 0.347679 0.362522 0.115017
Si Si2 0.886553 0.000216 0.650556
Si Si3 0.652936 0.282248 0.151414
Si Si4 0.500000 0.250000 0.250000
Si Si5 0.500000 0.579375 0.250000
Si Si6 0.528516 0.177027 0.463968
Si Si7 0.583862 0.381653 0.919059
Si Si8 0.575758 0.188723 0.833235
O O1 0.417190 0.422263 0.147526
O O2 0.380625 0.295042 0.146932
O O3 0.404523 0.358272 0.050550
O O4 0.207779 0.367788 0.112031
O O5 0.917202 0.968097 0.712373
O O6 0.947071 0.957677 0.598023
O O7 0.750000 0.000000 0.639142
O O8 0.583835 0.299102 0.211001
O O9 0.609171 0.321160 0.094185
O O10 0.791487 0.290822 0.155973
O O11 0.579707 0.626785 0.210483
O O12 0.500000 0.250000 0.488125
O O13 0.592846 0.132449 0.512450
O O14 0.485181 0.333083 0.893379
O O15 0.500000 0.250000 0.807611
#
# Coordination Sequence:
#
# PCOD8282376 Si02
#       8
#    16  16  16   4   8  16  16  16
#     4  10  20  40  60  88 121 164 206 247 307 378
#     4   9  21  41  60  86 116 166 214 246 306 371
#     4  11  24  39  60  94 128 157 209 247 324 373
#     4  12  24  42  54  88 130 164 196 256 306 392
#     4  10  23  41  60  90 122 162 220 260 314 370
#     4  10  22  38  58  96 121 160 202 257 311 378
#     4  10  21  37  65  88 126 159 203 256 312 364
#     4  11  22  38  63  97 125 159 197 268 317 372
#
# _framework density 20.314488000000001
#
# number of rings (size 3 to 8) (size 9 to 14) (size 15 to 20)
#    0.000    1.778    3.704    0.667    4.148    2.370 
#    2.667    0.000    0.000    0.000    0.000    0.000 
#    0.000    0.000    0.000    0.000    0.000    0.000 
#
# Total GULP energy -669089.596857 kJ/mol
# GULP energy per Si atom -12390.548090 kJ/mol
# Density = 2.026825 g / cm^3
# Si number density = 20.314488 Si / 1000 Ang^3
#
#
#
# Elastic Constant Matrix: (Units=GPa)
#
#
# Indices 1 2 3 4 5 6 
#
# 1 100.5912 23.5908 40.9966 0.0000 0.0000 0.0000
# 2 23.5908 108.1764 52.0145 0.0000 0.0000 0.0000
# 3 40.9966 52.0145 131.3668 0.0000 0.0000 0.0000
# 4 0.0000 0.0000 0.0000 16.4933 0.0000 0.0000
# 5 0.0000 0.0000 0.0000 0.0000 25.7961 0.0000
# 6 0.0000 0.0000 0.0000 0.0000 0.0000 18.2542
#
#
#
# Elastic Compliance Matrix: (Units=1/GPa)
#
#
# Indices 1 2 3 4 5 6 
#
# 1 0.011471 -0.000964 -0.003198 0.000000 0.000000 0.000000
# 2 -0.000964 0.011499 -0.004252 0.000000 0.000000 0.000000
# 3 -0.003198 -0.004252 0.010294 0.000000 0.000000 0.000000
# 4 0.000000 0.000000 0.000000 0.060631 0.000000 0.000000
# 5 0.000000 0.000000 0.000000 0.000000 0.038766 0.000000
# 6 0.000000 0.000000 0.000000 0.000000 0.000000 0.054782
#
#
# Mechanical properties :
#
#
# Convention : Reuss Voigt Hill
#
# Bulk Modulus (GPa) = 60.84428 63.70425 62.27426
# Shear Modulus (GPa) = 23.83807 27.01088 25.42448
#
# Velocity S-wave (km/s) = 3.42928 3.65037 3.54155
# Velocity P-wave (km/s) = 6.75990 7.01385 6.88804
#
# Compressibility (1/GPa) = 0.01643540
#
# Stress axis : x y z
#
# Youngs Moduli (GPa) = 87.17887 86.96471 97.14391
#
# Poissons Ratio (x) = 0.08381 0.31068
# Poissons Ratio (y) = 0.08402 0.41308
# Poissons Ratio (z) = 0.27881 0.36979
#
# Static dielectric constant tensor:
#      x y z
#    x 3.626890 0.000000 0.000000 
#    y 0.000000 4.190790 0.000000 
#    z 0.000000 0.000000 3.575430 
# 
# 
# High freq. dielectric constant tensor:
#      x y z
#    x 1.790180 0.000000 0.000000 
#    y 0.000000 1.789050 0.000000 
#    z 0.000000 0.000000 1.786800 
# 
# From -- ./inp_files/44611.got.cif
#   From: 2010.03.12/outbox.cif.g09.slc.cpg/sg68_23_cif.got.tgz:44611.got - 2010.04.10 23:14:56.
