data_PCOD8282668
_publ_section_title
;
Structure prediction by ZEFSAII (Michael W. Deem and Ramdas Pophale) SiO2 
 PCOD8282668
Probable space group: C C C A
;
_chemical_formula_sum "Si O2"
_cell_formula_units_Z 116
_cell_length_a 8.912347
_cell_length_b 24.369041
_cell_length_c 25.951507
_cell_angle_alpha 90.000000
_cell_angle_beta 90.000000
_cell_angle_gamma 90.000000
_cell_volume 5636.287117
_symmetry_space_group_name_H-M "C C C A"
_symmetry_group_IT_number 68
_space_group.IT_coordinate_system_code '2'
_symmetry_cell_setting 'orthorhombic'
loop_
_space_group_symop_operation_xyz
x,y,z
-x,1/2-y,z
x,1/2-y,1/2-z
-x,y,1/2-z
-x,-y,-z
x,1/2+y,-z
-x,1/2+y,1/2+z
x,-y,1/2+z
1/2+x,1/2+y,z
1/2-x,-y,z
1/2+x,-y,1/2-z
1/2-x,1/2+y,1/2-z
1/2-x,1/2-y,-z
1/2+x,y,-z
1/2-x,y,1/2+z
1/2+x,1/2-y,1/2+z
loop_
_atom_site_type_symbol
_atom_site_label
_atom_site_fract_x
_atom_site_fract_y
_atom_site_fract_z
Si Si1 0.783616 0.172698 0.200775
Si Si2 0.500000 0.250000 0.750000
Si Si3 0.176600 0.441471 0.354291
Si Si4 0.363673 0.594257 0.555745
Si Si5 0.806066 0.561075 0.039740
Si Si6 0.621165 0.368934 0.211309
Si Si7 0.444412 0.690668 0.621234
Si Si8 0.321473 0.556223 0.154361
O O1 0.685945 0.180105 0.253093
O O2 0.711532 0.199695 0.150484
O O3 0.805842 0.107128 0.193479
O O4 0.927567 0.208961 0.209185
O O5 0.250000 0.500000 0.349254
O O6 0.233144 0.414670 0.407926
O O7 0.239736 0.407031 0.306006
O O8 0.998238 0.449155 0.355879
O O9 0.252948 0.598699 0.507040
O O10 0.513113 0.559464 0.542851
O O11 0.418536 0.655542 0.569770
O O12 0.272298 0.566735 0.602360
O O13 0.750000 0.500000 0.028496
O O14 0.500000 0.399442 0.250000
O O15 0.549326 0.343352 0.160335
O O16 0.500000 0.750000 0.603848
O O17 0.250000 0.500000 0.178263
#
# Coordination Sequence:
#
# PCOD8282668 Si02
#       8
#    16   4  16  16  16  16  16  16
#     4  10  23  36  64  88 124 172 216 268 322 374
#     4  12  20  40  58  96 124 160 240 276 308 384
#     4  11  23  38  62  92 129 173 208 257 316 382
#     4  11  22  40  63  95 123 165 210 266 315 392
#     4  11  21  37  64  93 122 163 208 259 318 381
#     4  10  21  40  62  90 127 167 221 260 321 383
#     4  10  21  40  63  89 123 165 209 271 325 379
#     4  11  23  39  61  93 138 169 210 263 326 393
#
# _framework density 20.580924
#
# number of rings (size 3 to 8) (size 9 to 14) (size 15 to 20)
#    0.000    1.379    1.379    4.966    3.862    2.483 
#    0.000    0.690    0.000    0.000    0.000    0.000 
#    0.000    0.000    0.000    0.000    0.000    0.000 
#
# Total GULP energy -718763.644037 kJ/mol
# GULP energy per Si atom -12392.476621 kJ/mol
# Density = 2.053408 g / cm^3
# Si number density = 20.580924 Si / 1000 Ang^3
#
#
#
# Elastic Constant Matrix: (Units=GPa)
#
#
# Indices 1 2 3 4 5 6 
#
# 1 154.7947 50.3365 38.6538 0.0000 0.0000 0.0000
# 2 50.3365 122.2393 44.5728 0.0000 0.0000 0.0000
# 3 38.6538 44.5728 94.0063 0.0000 0.0000 0.0000
# 4 0.0000 0.0000 0.0000 21.3083 0.0000 0.0000
# 5 0.0000 0.0000 0.0000 0.0000 31.9614 0.0000
# 6 0.0000 0.0000 0.0000 0.0000 0.0000 29.5550
#
#
#
# Elastic Compliance Matrix: (Units=1/GPa)
#
#
# Indices 1 2 3 4 5 6 
#
# 1 0.007766 -0.002459 -0.002027 0.000000 0.000000 0.000000
# 2 -0.002459 0.010669 -0.004048 0.000000 0.000000 0.000000
# 3 -0.002027 -0.004048 0.013390 0.000000 0.000000 0.000000
# 4 0.000000 0.000000 0.000000 0.046930 0.000000 0.000000
# 5 0.000000 0.000000 0.000000 0.000000 0.031288 0.000000
# 6 0.000000 0.000000 0.000000 0.000000 0.000000 0.033835
#
#
# Mechanical properties :
#
#
# Convention : Reuss Voigt Hill
#
# Bulk Modulus (GPa) = 67.76092 70.90740 69.33416
# Shear Modulus (GPa) = 30.14490 32.39676 31.27083
#
# Velocity S-wave (km/s) = 3.83129 3.97182 3.90219
# Velocity P-wave (km/s) = 7.25034 7.45396 7.35285
#
# Compressibility (1/GPa) = 0.01475777
#
# Stress axis : x y z
#
# Youngs Moduli (GPa) = 128.76721 93.72894 74.67992
#
# Poissons Ratio (x) = 0.23044 0.15141
# Poissons Ratio (y) = 0.31659 0.30229
# Poissons Ratio (z) = 0.26107 0.37939
#
# Static dielectric constant tensor:
#      x y z
#    x 2.960910 0.000000 0.000000 
#    y 0.000000 3.631010 0.000000 
#    z 0.000000 0.000000 3.911870 
# 
# 
# High freq. dielectric constant tensor:
#      x y z
#    x 1.820610 0.000000 0.000000 
#    y 0.000000 1.784350 0.000000 
#    z 0.000000 0.000000 1.802640 
# 
# From -- ./inp_files/49657.got.cif
#   From: 2010.03.12/outbox.cif.g09.slc.cpg/sg68_25_cif.got.tgz:49657.got - 2010.04.10 23:14:56.
