data_PCOD8282115
_publ_section_title
;
Structure prediction by ZEFSAII (Michael W. Deem and Ramdas Pophale) SiO2 
 PCOD8282115
Probable space group: C C C A
;
_chemical_formula_sum "Si O2"
_cell_formula_units_Z 116
_cell_length_a 8.454327
_cell_length_b 25.258966
_cell_length_c 27.202876
_cell_angle_alpha 90.000000
_cell_angle_beta 90.000000
_cell_angle_gamma 90.000000
_cell_volume 5809.107747
_symmetry_space_group_name_H-M "C C C A"
_symmetry_group_IT_number 68
_space_group.IT_coordinate_system_code '2'
_symmetry_cell_setting 'orthorhombic'
loop_
_space_group_symop_operation_xyz
x,y,z
-x,1/2-y,z
x,1/2-y,1/2-z
-x,y,1/2-z
-x,-y,-z
x,1/2+y,-z
-x,1/2+y,1/2+z
x,-y,1/2+z
1/2+x,1/2+y,z
1/2-x,-y,z
1/2+x,-y,1/2-z
1/2-x,1/2+y,1/2-z
1/2-x,1/2-y,-z
1/2+x,y,-z
1/2-x,y,1/2+z
1/2+x,1/2-y,1/2+z
loop_
_atom_site_type_symbol
_atom_site_label
_atom_site_fract_x
_atom_site_fract_y
_atom_site_fract_z
Si Si1 0.140031 0.381384 0.717154
Si Si2 0.331594 0.163910 0.694453
Si Si3 0.500000 0.250000 0.750000
Si Si4 0.935696 0.001320 0.105866
Si Si5 0.843746 0.446809 0.026109
Si Si6 0.555630 0.069098 0.696078
Si Si7 0.970737 0.187377 0.863134
Si Si8 0.961794 0.900221 0.436647
O O1 0.257842 0.354741 0.754857
O O2 0.252013 0.424859 0.690907
O O3 0.000000 0.407384 0.750000
O O4 0.081387 0.336389 0.679555
O O5 0.400037 0.219405 0.709733
O O6 0.467475 0.122645 0.678324
O O7 0.209909 0.173531 0.650250
O O8 0.988300 0.023018 0.158625
O O9 0.018022 0.036767 0.063573
O O10 0.750000 0.000000 0.095405
O O11 0.006610 0.942116 0.107154
O O12 0.750000 0.500000 0.009323
O O13 0.722308 0.404309 0.048793
O O14 0.922413 0.416564 0.980682
O O15 0.500000 0.050965 0.750000
O O16 0.002269 0.158215 0.915472
O O17 0.000000 0.250000 0.868803
#
# Coordination Sequence:
#
# PCOD8282115 Si02
#       8
#    16  16   4  16  16  16  16  16
#     4   9  18  34  54  81 113 157 202 241 277 327
#     4  10  20  34  57  84 113 160 205 246 278 335
#     4  12  16  32  62  80 108 156 214 244 274 304
#     4  11  21  37  62  89 116 153 193 241 292 351
#     4  10  21  39  66  90 111 143 195 246 291 349
#     4  10  20  38  57  85 124 158 195 237 293 354
#     4  11  23  37  57  87 121 150 194 243 300 349
#     4  11  22  40  62  89 113 150 190 248 296 355
#
# _framework density 19.968644000000001
#
# number of rings (size 3 to 8) (size 9 to 14) (size 15 to 20)
#    0.000    1.655    2.069    5.379    0.000    1.931 
#    0.000   11.034    0.000    0.000    0.000    0.000 
#    0.000    0.000    0.000    0.000    0.000    0.000 
#
# Total GULP energy -718893.380388 kJ/mol
# GULP energy per Si atom -12394.713455 kJ/mol
# Density = 1.992319 g / cm^3
# Si number density = 19.968644 Si / 1000 Ang^3
#
#
#
# Elastic Constant Matrix: (Units=GPa)
#
#
# Indices 1 2 3 4 5 6 
#
# 1 118.0165 33.1266 40.8191 0.0000 0.0000 0.0000
# 2 33.1266 90.8738 59.3053 0.0000 0.0000 0.0000
# 3 40.8191 59.3053 97.5155 0.0000 0.0000 0.0000
# 4 0.0000 0.0000 0.0000 18.7736 0.0000 0.0000
# 5 0.0000 0.0000 0.0000 0.0000 37.7985 0.0000
# 6 0.0000 0.0000 0.0000 0.0000 0.0000 14.1039
#
#
#
# Elastic Compliance Matrix: (Units=1/GPa)
#
#
# Indices 1 2 3 4 5 6 
#
# 1 0.010033 -0.001520 -0.003275 0.000000 0.000000 0.000000
# 2 -0.001520 0.018476 -0.010600 0.000000 0.000000 0.000000
# 3 -0.003275 -0.010600 0.018073 0.000000 0.000000 0.000000
# 4 0.000000 0.000000 0.000000 0.053266 0.000000 0.000000
# 5 0.000000 0.000000 0.000000 0.000000 0.026456 0.000000
# 6 0.000000 0.000000 0.000000 0.000000 0.000000 0.070902
#
#
# Mechanical properties :
#
#
# Convention : Reuss Voigt Hill
#
# Bulk Modulus (GPa) = 63.32892 63.65642 63.49267
# Shear Modulus (GPa) = 21.43523 25.67886 23.55705
#
# Velocity S-wave (km/s) = 3.27990 3.58992 3.43841
# Velocity P-wave (km/s) = 6.79166 7.00933 6.90136
#
# Compressibility (1/GPa) = 0.01579057
#
# Stress axis : x y z
#
# Youngs Moduli (GPa) = 99.67246 54.12363 55.33240
#
# Poissons Ratio (x) = 0.08225 0.18124
# Poissons Ratio (y) = 0.15148 0.58654
# Poissons Ratio (z) = 0.32647 0.57373
#
# Static dielectric constant tensor:
#      x y z
#    x 4.143820 0.000000 0.000000 
#    y 0.000000 3.381800 0.000000 
#    z 0.000000 0.000000 3.644530 
# 
# 
# High freq. dielectric constant tensor:
#      x y z
#    x 1.799220 0.000000 0.000000 
#    y 0.000000 1.754440 0.000000 
#    z 0.000000 0.000000 1.772910 
# 
# From -- ./inp_files/49618.got.cif
#   From: 2010.03.12/outbox.cif.g09.slc.cpg/sg68_25_cif.got.tgz:49618.got - 2010.04.10 23:14:56.
