data_PCOD8282566
_publ_section_title
;
Structure prediction by ZEFSAII (Michael W. Deem and Ramdas Pophale) SiO2 
 PCOD8282566
Probable space group: C C C A
;
_chemical_formula_sum "Si O2"
_cell_formula_units_Z 112
_cell_length_a 16.983943
_cell_length_b 13.011496
_cell_length_c 24.413589
_cell_angle_alpha 90.000000
_cell_angle_beta 90.000000
_cell_angle_gamma 90.000000
_cell_volume 5395.073742
_symmetry_space_group_name_H-M "C C C A"
_symmetry_group_IT_number 68
_space_group.IT_coordinate_system_code '2'
_symmetry_cell_setting 'orthorhombic'
loop_
_space_group_symop_operation_xyz
x,y,z
-x,1/2-y,z
x,1/2-y,1/2-z
-x,y,1/2-z
-x,-y,-z
x,1/2+y,-z
-x,1/2+y,1/2+z
x,-y,1/2+z
1/2+x,1/2+y,z
1/2-x,-y,z
1/2+x,-y,1/2-z
1/2-x,1/2+y,1/2-z
1/2-x,1/2-y,-z
1/2+x,y,-z
1/2-x,y,1/2+z
1/2+x,1/2-y,1/2+z
loop_
_atom_site_type_symbol
_atom_site_label
_atom_site_fract_x
_atom_site_fract_y
_atom_site_fract_z
Si Si1 0.910615 0.254843 0.813928
Si Si2 0.841449 0.525451 0.308485
Si Si3 0.160571 0.962265 0.184278
Si Si4 0.899663 0.049468 0.085953
Si Si5 0.652107 0.838320 0.989607
Si Si6 0.920842 0.005403 0.421372
Si Si7 0.322177 0.392062 0.009983
O O1 0.923147 0.250000 0.750000
O O2 0.865074 0.360265 0.829780
O O3 0.853696 0.158743 0.829738
O O4 0.000000 0.250000 0.840255
O O5 0.750000 0.500000 0.312064
O O6 0.869499 0.510773 0.245641
O O7 0.883648 0.442708 0.348795
O O8 0.250000 0.000000 0.176499
O O9 0.107579 0.023831 0.140874
O O10 0.987217 0.016113 0.074604
O O11 0.840959 0.963220 0.061690
O O12 0.883648 0.154569 0.051768
O O13 0.665489 0.723983 0.969591
O O14 0.597251 0.891474 0.944349
O O15 0.732485 0.905261 0.989879
O O16 0.880154 0.089797 0.459389
#
# Coordination Sequence:
#
# PCOD8282566 Si02
#       7
#    16  16  16  16  16  16  16
#     4   9  18  34  58  88 116 145 193 251 297 339
#     4  10  21  38  59  86 121 157 195 243 297 356
#     4  10  21  38  59  86 121 157 195 243 297 356
#     4  11  22  36  57  85 118 150 189 239 291 351
#     4  10  21  38  60  83 112 150 193 240 289 348
#     4  11  22  36  57  85 118 150 189 239 291 351
#     4  10  21  38  60  83 112 150 193 240 289 348
#
# _framework density 20.759679999999999
#
# number of rings (size 3 to 8) (size 9 to 14) (size 15 to 20)
#    0.000    1.857    0.000    6.000    2.000    4.000 
#    2.571    0.000    0.000    0.000    0.000    2.000 
#    0.000    0.000    0.000    0.000    0.000    0.000 
#
# Total GULP energy -693993.794635 kJ/mol
# GULP energy per Si atom -12392.746333 kJ/mol
# Density = 2.071243 g / cm^3
# Si number density = 20.759680 Si / 1000 Ang^3
#
#
#
# Elastic Constant Matrix: (Units=GPa)
#
#
# Indices 1 2 3 4 5 6 
#
# 1 88.6364 14.2381 8.3679 0.0000 0.0000 0.0000
# 2 14.2381 33.7105 1.9298 0.0000 0.0000 0.0000
# 3 8.3679 1.9298 92.9073 0.0000 0.0000 0.0000
# 4 0.0000 0.0000 0.0000 16.1343 0.0000 0.0000
# 5 0.0000 0.0000 0.0000 0.0000 19.0176 0.0000
# 6 0.0000 0.0000 0.0000 0.0000 0.0000 26.1736
#
#
#
# Elastic Compliance Matrix: (Units=1/GPa)
#
#
# Indices 1 2 3 4 5 6 
#
# 1 0.012194 -0.005093 -0.000992 0.000000 0.000000 0.000000
# 2 -0.005093 0.031827 -0.000202 0.000000 0.000000 0.000000
# 3 -0.000992 -0.000202 0.010857 0.000000 0.000000 0.000000
# 4 0.000000 0.000000 0.000000 0.061980 0.000000 0.000000
# 5 0.000000 0.000000 0.000000 0.000000 0.052583 0.000000
# 6 0.000000 0.000000 0.000000 0.000000 0.000000 0.038206
#
#
# Mechanical properties :
#
#
# Convention : Reuss Voigt Hill
#
# Bulk Modulus (GPa) = 23.63973 29.36952 26.50463
# Shear Modulus (GPa) = 21.33793 24.97966 23.15879
#
# Velocity S-wave (km/s) = 3.20950 3.47259 3.34363
# Velocity P-wave (km/s) = 5.01463 5.50060 5.26323
#
# Compressibility (1/GPa) = 0.04230166
#
# Stress axis : x y z
#
# Youngs Moduli (GPa) = 82.00800 31.41961 92.10644
#
# Poissons Ratio (x) = 0.16003 0.09141
# Poissons Ratio (y) = 0.41770 0.01864
# Poissons Ratio (z) = 0.08139 0.00636
#
# Static dielectric constant tensor:
#      x y z
#    x 3.841480 0.000000 0.000000 
#    y 0.000000 3.702770 0.000000 
#    z 0.000000 0.000000 3.953550 
# 
# 
# High freq. dielectric constant tensor:
#      x y z
#    x 1.820260 0.000000 0.000000 
#    y 0.000000 1.790260 0.000000 
#    z 0.000000 0.000000 1.817490 
# 
# From -- ./inp_files/45555.got.cif
#   From: 2010.03.12/outbox.cif.g09.slc.cpg/sg68_23_cif.got.tgz:45555.got - 2010.04.10 23:14:56.
