data_PCOD8282641
_publ_section_title
;
Structure prediction by ZEFSAII (Michael W. Deem and Ramdas Pophale) SiO2 
 PCOD8282641
Probable space group: C C C A
;
_chemical_formula_sum "Si O2"
_cell_formula_units_Z 52
_cell_length_a 19.087914
_cell_length_b 5.235323
_cell_length_c 22.333965
_cell_angle_alpha 90.000000
_cell_angle_beta 90.000000
_cell_angle_gamma 90.000000
_cell_volume 2231.864282
_symmetry_space_group_name_H-M "C C C A"
_symmetry_group_IT_number 68
_space_group.IT_coordinate_system_code '2'
_symmetry_cell_setting 'orthorhombic'
loop_
_space_group_symop_operation_xyz
x,y,z
-x,1/2-y,z
x,1/2-y,1/2-z
-x,y,1/2-z
-x,-y,-z
x,1/2+y,-z
-x,1/2+y,1/2+z
x,-y,1/2+z
1/2+x,1/2+y,z
1/2-x,-y,z
1/2+x,-y,1/2-z
1/2-x,1/2+y,1/2-z
1/2-x,1/2-y,-z
1/2+x,y,-z
1/2-x,y,1/2+z
1/2+x,1/2-y,1/2+z
loop_
_atom_site_type_symbol
_atom_site_label
_atom_site_fract_x
_atom_site_fract_y
_atom_site_fract_z
Si Si1 0.500000 0.250000 0.250000
Si Si2 0.064259 0.929449 0.647787
Si Si3 0.710562 0.250234 0.821040
Si Si4 0.078416 0.700773 0.472961
O O1 0.449772 0.426545 0.289878
O O2 0.131192 0.747703 0.655229
O O3 0.000000 0.750000 0.628278
O O4 0.078184 0.144874 0.597818
O O5 0.710886 0.250000 0.750000
O O6 0.750000 0.500000 0.846214
O O7 0.750000 0.000000 0.845936
O O8 0.116181 0.469886 0.510194
O O9 0.000000 0.750000 0.497957
#
# Coordination Sequence:
#
# PCOD8282641 Si02
#       4
#     4  16  16  16
#     4  12  26  36  64 110 136 172 208 294 354 392
#     4  12  25  41  66  99 139 167 221 282 337 395
#     4  10  24  42  63  89 130 181 217 256 324 410
#     4  10  21  39  63  94 129 173 222 269 327 392
#
# _framework density 23.298905999999999
#
# number of rings (size 3 to 8) (size 9 to 14) (size 15 to 20)
#    0.000    1.231    1.538    5.077   10.769    0.000 
#    0.000    0.000    0.000    5.538    0.000    0.000 
#    0.000    0.000    0.000    0.000    0.000    0.000 
#
# Total GULP energy -322408.684394 kJ/mol
# GULP energy per Si atom -12400.334015 kJ/mol
# Density = 2.324588 g / cm^3
# Si number density = 23.298906 Si / 1000 Ang^3
#
#
#
# Elastic Constant Matrix: (Units=GPa)
#
#
# Indices 1 2 3 4 5 6 
#
# 1 132.8379 61.5227 19.3406 0.0000 0.0000 0.0000
# 2 61.5227 199.7414 56.5358 0.0000 0.0000 0.0000
# 3 19.3406 56.5358 122.9860 0.0000 0.0000 0.0000
# 4 0.0000 0.0000 0.0000 -34.3580 0.0000 0.0000
# 5 0.0000 0.0000 0.0000 0.0000 -0.3538 0.0000
# 6 0.0000 0.0000 0.0000 0.0000 0.0000 33.0875
#
#
#
# Elastic Compliance Matrix: (Units=1/GPa)
#
#
# Indices 1 2 3 4 5 6 
#
# 1 0.008783 -0.002661 -0.000158 0.000000 0.000000 0.000000
# 2 -0.002661 0.006561 -0.002598 0.000000 0.000000 0.000000
# 3 -0.000158 -0.002598 0.009350 0.000000 0.000000 0.000000
# 4 0.000000 0.000000 0.000000 -0.029105 0.000000 0.000000
# 5 0.000000 0.000000 0.000000 0.000000 -2.826173 0.000000
# 6 0.000000 0.000000 0.000000 0.000000 0.000000 0.030223
#
#
# Mechanical properties :
#
#
# Convention : Reuss Voigt Hill
#
# Bulk Modulus (GPa) = 72.14235 81.15150 76.64692
# Shear Modulus (GPa) = -1.79539 20.88621 9.54541
#
# Velocity S-wave (km/s) = -0.87879 2.99732 2.02628
# Velocity P-wave (km/s) = 5.47735 6.84725 6.20025
#
# Compressibility (1/GPa) = 0.01386148
#
# Stress axis : x y z
#
# Youngs Moduli (GPa) = 113.85351 152.41024 106.95118
#
# Poissons Ratio (x) = 0.40550 0.01692
# Poissons Ratio (y) = 0.30291 0.27783
# Poissons Ratio (z) = 0.01801 0.39593
#
# Static dielectric constant tensor:
#      x y z
#    x 3.836270 0.000000 0.000000 
#    y 0.000000 4.864170 0.000000 
#    z 0.000000 0.000000 3.907160 
# 
# 
# High freq. dielectric constant tensor:
#      x y z
#    x 1.871770 0.000000 0.000000 
#    y 0.000000 1.948440 0.000000 
#    z 0.000000 0.000000 1.910280 
# 
# From -- ./inp_files/39965.got.cif
#   From: 2010.03.12/outbox.cif.g09.slc.cpg/sg68_20_cif.got.tgz:39965.got - 2010.04.10 23:14:56.
