data_PCOD8282670
_publ_section_title
;
Structure prediction by ZEFSAII (Michael W. Deem and Ramdas Pophale) SiO2 
 PCOD8282670
Probable space group: C C C A
;
_chemical_formula_sum "Si O2"
_cell_formula_units_Z 88
_cell_length_a 22.415647
_cell_length_b 13.938920
_cell_length_c 13.885675
_cell_angle_alpha 90.000000
_cell_angle_beta 90.000000
_cell_angle_gamma 90.000000
_cell_volume 4338.577908
_symmetry_space_group_name_H-M "C C C A"
_symmetry_group_IT_number 68
_space_group.IT_coordinate_system_code '2'
_symmetry_cell_setting 'orthorhombic'
loop_
_space_group_symop_operation_xyz
x,y,z
-x,1/2-y,z
x,1/2-y,1/2-z
-x,y,1/2-z
-x,-y,-z
x,1/2+y,-z
-x,1/2+y,1/2+z
x,-y,1/2+z
1/2+x,1/2+y,z
1/2-x,-y,z
1/2+x,-y,1/2-z
1/2-x,1/2+y,1/2-z
1/2-x,1/2-y,-z
1/2+x,y,-z
1/2-x,y,1/2+z
1/2+x,1/2-y,1/2+z
loop_
_atom_site_type_symbol
_atom_site_label
_atom_site_fract_x
_atom_site_fract_y
_atom_site_fract_z
Si Si1 0.667646 0.665755 0.463918
Si Si2 0.750000 0.000000 0.776304
Si Si3 0.661999 0.465055 0.377160
Si Si4 0.026560 0.020228 0.853916
Si Si5 0.287231 0.364228 0.933974
Si Si6 0.966587 0.651564 0.999210
O O1 0.670886 0.579326 0.388470
O O2 0.680247 0.764913 0.407615
O O3 0.717178 0.652710 0.546652
O O4 0.603377 0.670634 0.514104
O O5 0.794181 0.064522 0.710014
O O6 0.707923 0.067155 0.842015
O O7 0.594336 0.441824 0.349473
O O8 0.679815 0.411320 0.474797
O O9 0.000000 0.999344 0.750000
O O10 0.020791 0.921174 0.911922
O O11 0.989091 0.105498 0.901814
O O12 0.000000 0.750000 0.975295
#
# Coordination Sequence:
#
# PCOD8282670 Si02
#       6
#    16   8  16  16  16  16
#     4  10  21  40  63  86 125 160 210 252 313 372
#     4  12  22  36  66  86 130 166 200 254 332 352
#     4  11  22  42  60  95 128 156 210 262 300 386
#     4  10  24  40  66  94 125 165 217 257 316 369
#     4  11  22  40  61  91 124 164 203 262 309 374
#     4  10  22  42  64  89 125 172 208 260 314 378
#
# _framework density 20.283144
#
# number of rings (size 3 to 8) (size 9 to 14) (size 15 to 20)
#    0.000    1.455    3.636    1.091    2.545    4.364 
#    0.000    3.636    0.000    0.000    0.000    0.000 
#    0.000    0.000    0.000    0.000    0.000    0.000 
#
# Total GULP energy -545702.341848 kJ/mol
# GULP energy per Si atom -12402.325951 kJ/mol
# Density = 2.023698 g / cm^3
# Si number density = 20.283144 Si / 1000 Ang^3
#
#
#
# Elastic Constant Matrix: (Units=GPa)
#
#
# Indices 1 2 3 4 5 6 
#
# 1 152.8476 35.9602 39.7502 0.0000 0.0000 0.0000
# 2 35.9602 90.3123 19.9664 0.0000 0.0000 0.0000
# 3 39.7502 19.9664 101.1989 0.0000 0.0000 0.0000
# 4 0.0000 0.0000 0.0000 10.8779 0.0000 0.0000
# 5 0.0000 0.0000 0.0000 0.0000 22.9635 0.0000
# 6 0.0000 0.0000 0.0000 0.0000 0.0000 36.2521
#
#
#
# Elastic Compliance Matrix: (Units=1/GPa)
#
#
# Indices 1 2 3 4 5 6 
#
# 1 0.007808 -0.002542 -0.002565 0.000000 0.000000 0.000000
# 2 -0.002542 0.012405 -0.001449 0.000000 0.000000 0.000000
# 3 -0.002565 -0.001449 0.011175 0.000000 0.000000 0.000000
# 4 0.000000 0.000000 0.000000 0.091929 0.000000 0.000000
# 5 0.000000 0.000000 0.000000 0.000000 0.043547 0.000000
# 6 0.000000 0.000000 0.000000 0.000000 0.000000 0.027585
#
#
# Mechanical properties :
#
#
# Convention : Reuss Voigt Hill
#
# Bulk Modulus (GPa) = 54.71798 59.52360 57.12079
# Shear Modulus (GPa) = 23.40240 30.59750 26.99995
#
# Velocity S-wave (km/s) = 3.40043 3.88818 3.65245
# Velocity P-wave (km/s) = 6.51558 7.04040 6.78307
#
# Compressibility (1/GPa) = 0.01827553
#
# Stress axis : x y z
#
# Youngs Moduli (GPa) = 128.08080 80.61199 89.48488
#
# Poissons Ratio (x) = 0.20489 0.22955
# Poissons Ratio (y) = 0.32554 0.12968
# Poissons Ratio (z) = 0.32856 0.11682
#
# Static dielectric constant tensor:
#      x y z
#    x 3.945750 0.000000 0.000000 
#    y 0.000000 3.824270 0.000000 
#    z 0.000000 0.000000 3.401860 
# 
# 
# High freq. dielectric constant tensor:
#      x y z
#    x 1.808400 0.000000 0.000000 
#    y 0.000000 1.794820 0.000000 
#    z 0.000000 0.000000 1.773370 
# 
# From -- ./inp_files/24356.got.cif
#   From: 2010.03.12/outbox.cif.g09.slc.cpg/sg68_13_cif.got.tgz:24356.got - 2010.04.10 23:14:56.
