data_PCOD8282972
_publ_section_title
;
Structure prediction by ZEFSAII (Michael W. Deem and Ramdas Pophale) SiO2 
 PCOD8282972
Probable space group: C C C A
;
_chemical_formula_sum "Si O2"
_cell_formula_units_Z 88
_cell_length_a 10.965116
_cell_length_b 25.093208
_cell_length_c 14.643800
_cell_angle_alpha 90.000000
_cell_angle_beta 90.000000
_cell_angle_gamma 90.000000
_cell_volume 4029.240641
_symmetry_space_group_name_H-M "C C C A"
_symmetry_group_IT_number 68
_space_group.IT_coordinate_system_code '2'
_symmetry_cell_setting 'orthorhombic'
loop_
_space_group_symop_operation_xyz
x,y,z
-x,1/2-y,z
x,1/2-y,1/2-z
-x,y,1/2-z
-x,-y,-z
x,1/2+y,-z
-x,1/2+y,1/2+z
x,-y,1/2+z
1/2+x,1/2+y,z
1/2-x,-y,z
1/2+x,-y,1/2-z
1/2-x,1/2+y,1/2-z
1/2-x,1/2-y,-z
1/2+x,y,-z
1/2-x,y,1/2+z
1/2+x,1/2-y,1/2+z
loop_
_atom_site_type_symbol
_atom_site_label
_atom_site_fract_x
_atom_site_fract_y
_atom_site_fract_z
Si Si1 0.303813 0.621821 0.079030
Si Si2 0.039487 0.571543 0.851780
Si Si3 0.639073 0.596377 0.763047
Si Si4 0.633130 0.761027 0.142917
Si Si5 0.735666 0.845433 0.382636
Si Si6 0.250000 0.500000 0.339181
O O1 0.415378 0.580075 0.090714
O O2 0.180490 0.603575 0.131770
O O3 0.330451 0.679584 0.119792
O O4 0.280389 0.623080 0.971760
O O5 0.107467 0.628822 0.850226
O O6 0.129976 0.524129 0.893137
O O7 0.000000 0.554947 0.750000
O O8 0.500000 0.581273 0.750000
O O9 0.667059 0.647961 0.699695
O O10 0.719271 0.548892 0.724940
O O11 0.500000 0.750000 0.102481
O O12 0.637825 0.750000 0.250000
O O13 0.722194 0.717314 0.095762
#
# Coordination Sequence:
#
# PCOD8282972 Si02
#       6
#    16  16  16  16  16   8
#     4  12  24  41  68  97 138 177 222 282 343 412
#     4  11  20  44  70  95 129 178 228 278 338 401
#     4  11  25  43  63  95 134 176 219 279 345 403
#     4  11  20  38  69  99 128 174 233 278 334 413
#     4  11  24  41  64 101 134 174 226 281 335 410
#     4  10  22  42  74  96 124 174 232 284 340 400
#
# _framework density 21.840342
#
# number of rings (size 3 to 8) (size 9 to 14) (size 15 to 20)
#    0.000    0.909    7.273    1.091    2.545    0.000 
#    0.000    9.091    0.000    0.000    0.000    0.000 
#    0.000    0.000    0.000    0.000    0.000    0.000 
#
# Total GULP energy -545264.703305 kJ/mol
# GULP energy per Si atom -12392.379621 kJ/mol
# Density = 2.179063 g / cm^3
# Si number density = 21.840342 Si / 1000 Ang^3
#
#
#
# Elastic Constant Matrix: (Units=GPa)
#
#
# Indices 1 2 3 4 5 6 
#
# 1 107.3338 21.2715 25.3202 0.0000 0.0000 0.0000
# 2 21.2715 86.8283 -8.2080 0.0000 0.0000 0.0000
# 3 25.3202 -8.2080 78.9395 0.0000 0.0000 0.0000
# 4 0.0000 0.0000 0.0000 16.9929 0.0000 0.0000
# 5 0.0000 0.0000 0.0000 0.0000 16.9227 0.0000
# 6 0.0000 0.0000 0.0000 0.0000 0.0000 35.0686
#
#
#
# Elastic Compliance Matrix: (Units=1/GPa)
#
#
# Indices 1 2 3 4 5 6 
#
# 1 0.010803 -0.003004 -0.003777 0.000000 0.000000 0.000000
# 2 -0.003004 0.012466 0.002260 0.000000 0.000000 0.000000
# 3 -0.003777 0.002260 0.014115 0.000000 0.000000 0.000000
# 4 0.000000 0.000000 0.000000 0.058848 0.000000 0.000000
# 5 0.000000 0.000000 0.000000 0.000000 0.059092 0.000000
# 6 0.000000 0.000000 0.000000 0.000000 0.000000 0.028516
#
#
# Mechanical properties :
#
#
# Convention : Reuss Voigt Hill
#
# Bulk Modulus (GPa) = 35.28435 38.87433 37.07934
# Shear Modulus (GPa) = 24.71210 29.44469 27.07839
#
# Velocity S-wave (km/s) = 3.36741 3.67574 3.52495
# Velocity P-wave (km/s) = 5.59553 5.98771 5.79494
#
# Compressibility (1/GPa) = 0.02834118
#
# Stress axis : x y z
#
# Youngs Moduli (GPa) = 92.56594 80.21533 70.84896
#
# Poissons Ratio (x) = 0.24094 0.26763
# Poissons Ratio (y) = 0.27804 -0.16010
# Poissons Ratio (z) = 0.34966 -0.18126
#
# Static dielectric constant tensor:
#      x y z
#    x 4.474930 0.000000 0.000000 
#    y 0.000000 4.143830 0.000000 
#    z 0.000000 0.000000 3.753850 
# 
# 
# High freq. dielectric constant tensor:
#      x y z
#    x 1.861180 0.000000 0.000000 
#    y 0.000000 1.862650 0.000000 
#    z 0.000000 0.000000 1.832990 
# 
# From -- ./inp_files/21136.got.cif
#   From: 2010.03.12/outbox.cif.g09.slc.cpg/sg68_11_cif.got.tgz:21136.got - 2010.04.10 23:14:56.
