data_PCOD8282354
_publ_section_title
;
Structure prediction by ZEFSAII (Michael W. Deem and Ramdas Pophale) SiO2 
 PCOD8282354
Probable space group: C C C A
;
_chemical_formula_sum "Si O2"
_cell_formula_units_Z 76
_cell_length_a 16.404946
_cell_length_b 16.172106
_cell_length_c 13.779089
_cell_angle_alpha 90.000000
_cell_angle_beta 90.000000
_cell_angle_gamma 90.000000
_cell_volume 3655.627113
_symmetry_space_group_name_H-M "C C C A"
_symmetry_group_IT_number 68
_space_group.IT_coordinate_system_code '2'
_symmetry_cell_setting 'orthorhombic'
loop_
_space_group_symop_operation_xyz
x,y,z
-x,1/2-y,z
x,1/2-y,1/2-z
-x,y,1/2-z
-x,-y,-z
x,1/2+y,-z
-x,1/2+y,1/2+z
x,-y,1/2+z
1/2+x,1/2+y,z
1/2-x,-y,z
1/2+x,-y,1/2-z
1/2-x,1/2+y,1/2-z
1/2-x,1/2-y,-z
1/2+x,y,-z
1/2-x,y,1/2+z
1/2+x,1/2-y,1/2+z
loop_
_atom_site_type_symbol
_atom_site_label
_atom_site_fract_x
_atom_site_fract_y
_atom_site_fract_z
Si Si1 0.000000 0.750000 0.750000
Si Si2 0.000000 0.028885 0.750000
Si Si3 0.631507 0.343103 0.240731
Si Si4 0.392585 0.612483 0.189098
Si Si5 0.733197 0.594238 0.913916
Si Si6 0.778351 0.093113 0.364682
O O1 0.947181 0.693355 0.821438
O O2 0.936010 0.092410 0.800633
O O3 0.949590 0.969837 0.674388
O O4 0.596677 0.250000 0.250000
O O5 0.661604 0.371362 0.346953
O O6 0.707458 0.343610 0.167080
O O7 0.322705 0.630793 0.109765
O O8 0.357945 0.607643 0.299500
O O9 0.750000 0.500000 0.887714
O O10 0.703498 0.610440 0.022948
O O11 0.750000 0.000000 0.346365
#
# Coordination Sequence:
#
# PCOD8282354 Si02
#       6
#     4   8  16  16  16  16
#     4  10  24  36  62  88 122 160 178 244 300 346
#     4  11  19  39  59  78 122 160 191 235 297 353
#     4  11  22  37  58  86 119 156 194 241 292 343
#     4  10  20  40  62  85 119 152 197 239 294 348
#     4  10  20  39  65  86 109 151 207 243 284 345
#     4  10  20  39  65  86 109 151 207 243 284 345
#
# _framework density 20.789867999999998
#
# number of rings (size 3 to 8) (size 9 to 14) (size 15 to 20)
#    0.000    1.684    4.211    1.579    5.895    0.842 
#    0.000    6.316    0.000    0.000    0.000    0.000 
#    0.000    0.000    0.000    0.000    0.000    0.000 
#
# Total GULP energy -470900.998257 kJ/mol
# GULP energy per Si atom -12392.131533 kJ/mol
# Density = 2.074255 g / cm^3
# Si number density = 20.789868 Si / 1000 Ang^3
#
#
#
# Elastic Constant Matrix: (Units=GPa)
#
#
# Indices 1 2 3 4 5 6 
#
# 1 103.2559 41.9171 23.2219 0.0000 0.0000 0.0000
# 2 41.9171 127.7830 19.8535 0.0000 0.0000 0.0000
# 3 23.2219 19.8535 104.6260 0.0000 0.0000 0.0000
# 4 0.0000 0.0000 0.0000 17.1014 0.0000 0.0000
# 5 0.0000 0.0000 0.0000 0.0000 12.1981 0.0000
# 6 0.0000 0.0000 0.0000 0.0000 0.0000 36.4062
#
#
#
# Elastic Compliance Matrix: (Units=1/GPa)
#
#
# Indices 1 2 3 4 5 6 
#
# 1 0.011527 -0.003486 -0.001897 0.000000 0.000000 0.000000
# 2 -0.003486 0.009118 -0.000956 0.000000 0.000000 0.000000
# 3 -0.001897 -0.000956 0.010160 0.000000 0.000000 0.000000
# 4 0.000000 0.000000 0.000000 0.058475 0.000000 0.000000
# 5 0.000000 0.000000 0.000000 0.000000 0.081980 0.000000
# 6 0.000000 0.000000 0.000000 0.000000 0.000000 0.027468
#
#
# Mechanical properties :
#
#
# Convention : Reuss Voigt Hill
#
# Bulk Modulus (GPa) = 55.17006 56.18335 55.67670
# Shear Modulus (GPa) = 22.99396 29.85264 26.42330
#
# Velocity S-wave (km/s) = 3.32929 3.79347 3.56893
# Velocity P-wave (km/s) = 6.43222 6.80222 6.61981
#
# Compressibility (1/GPa) = 0.01812577
#
# Stress axis : x y z
#
# Youngs Moduli (GPa) = 86.75606 109.67293 98.42202
#
# Poissons Ratio (x) = 0.38236 0.18668
# Poissons Ratio (y) = 0.30247 0.09413
# Poissons Ratio (z) = 0.16456 0.10489
#
# Static dielectric constant tensor:
#      x y z
#    x 4.016910 0.000000 0.000000 
#    y 0.000000 3.884580 0.000000 
#    z 0.000000 0.000000 3.344330 
# 
# 
# High freq. dielectric constant tensor:
#      x y z
#    x 1.822760 0.000000 0.000000 
#    y 0.000000 1.824800 0.000000 
#    z 0.000000 0.000000 1.765510 
# 
# From -- ./inp_files/23539.got.cif
#   From: 2010.03.12/outbox.cif.g09.slc.cpg/sg68_12_cif.got.tgz:23539.got - 2010.04.10 23:14:56.
