data_PCOD8282500
_publ_section_title
;
Structure prediction by ZEFSAII (Michael W. Deem and Ramdas Pophale) SiO2 
 PCOD8282500
Probable space group: C C C A
;
_chemical_formula_sum "Si O2"
_cell_formula_units_Z 80
_cell_length_a 7.509409
_cell_length_b 17.759897
_cell_length_c 28.340507
_cell_angle_alpha 90.000000
_cell_angle_beta 90.000000
_cell_angle_gamma 90.000000
_cell_volume 3779.669419
_symmetry_space_group_name_H-M "C C C A"
_symmetry_group_IT_number 68
_space_group.IT_coordinate_system_code '2'
_symmetry_cell_setting 'orthorhombic'
loop_
_space_group_symop_operation_xyz
x,y,z
-x,1/2-y,z
x,1/2-y,1/2-z
-x,y,1/2-z
-x,-y,-z
x,1/2+y,-z
-x,1/2+y,1/2+z
x,-y,1/2+z
1/2+x,1/2+y,z
1/2-x,-y,z
1/2+x,-y,1/2-z
1/2-x,1/2+y,1/2-z
1/2-x,1/2-y,-z
1/2+x,y,-z
1/2-x,y,1/2+z
1/2+x,1/2-y,1/2+z
loop_
_atom_site_type_symbol
_atom_site_label
_atom_site_fract_x
_atom_site_fract_y
_atom_site_fract_z
Si Si1 0.454013 0.490520 0.831262
Si Si2 0.862281 0.162429 0.286352
Si Si3 0.315583 0.660978 0.056613
Si Si4 0.250000 0.000000 0.408918
Si Si5 0.500000 0.250000 0.865600
Si Si6 0.000000 0.750000 0.478695
Si Si7 0.500000 0.604449 0.750000
O O1 0.250000 0.500000 0.847481
O O2 0.461671 0.413599 0.802561
O O3 0.572783 0.495762 0.877759
O O4 0.530223 0.554308 0.796418
O O5 0.843289 0.216155 0.332316
O O6 0.672992 0.155040 0.260191
O O7 0.000000 0.199804 0.250000
O O8 0.252578 0.574100 0.057752
O O9 0.424977 0.681127 0.103574
O O10 0.149665 0.717900 0.055602
O O11 0.434131 0.679307 0.010517
#
# Coordination Sequence:
#
# PCOD8282500 Si02
#       7
#    16  16  16   8   8   8   8
#     4  10  21  36  60  92 126 168 219 267 320 367
#     4  11  21  39  60  86 128 175 218 262 311 376
#     4  10  23  43  72  94 131 167 210 266 336 401
#     4  12  22  40  68 104 124 164 218 274 318 380
#     4  11  23  42  61  92 132 172 213 276 323 381
#     4   9  22  48  67  96 130 170 199 258 348 419
#     4  10  22  36  63  83 126 180 218 266 322 363
#
# _framework density 21.165872
#
# number of rings (size 3 to 8) (size 9 to 14) (size 15 to 20)
#    0.000    1.600    3.000    1.500    1.400    4.000 
#    3.600    1.000    0.000    0.000    0.000    0.000 
#    0.000    0.000    0.000    0.000    0.000    0.000 
#
# Total GULP energy -495851.325488 kJ/mol
# GULP energy per Si atom -12396.283137 kJ/mol
# Density = 2.111770 g / cm^3
# Si number density = 21.165872 Si / 1000 Ang^3
#
#
#
# Elastic Constant Matrix: (Units=GPa)
#
#
# Indices 1 2 3 4 5 6 
#
# 1 100.0621 38.6101 44.6397 0.0000 0.0000 0.0000
# 2 38.6101 116.0399 44.8578 0.0000 0.0000 0.0000
# 3 44.6397 44.8578 82.2857 0.0000 0.0000 0.0000
# 4 0.0000 0.0000 0.0000 21.6939 0.0000 0.0000
# 5 0.0000 0.0000 0.0000 0.0000 17.3050 0.0000
# 6 0.0000 0.0000 0.0000 0.0000 0.0000 114.0996
#
#
#
# Elastic Compliance Matrix: (Units=1/GPa)
#
#
# Indices 1 2 3 4 5 6 
#
# 1 0.013583 -0.002117 -0.006215 0.000000 0.000000 0.000000
# 2 -0.002117 0.011249 -0.004984 0.000000 0.000000 0.000000
# 3 -0.006215 -0.004984 0.018241 0.000000 0.000000 0.000000
# 4 0.000000 0.000000 0.000000 0.046096 0.000000 0.000000
# 5 0.000000 0.000000 0.000000 0.000000 0.057787 0.000000
# 6 0.000000 0.000000 0.000000 0.000000 0.000000 0.008764
#
#
# Mechanical properties :
#
#
# Convention : Reuss Voigt Hill
#
# Bulk Modulus (GPa) = 60.81985 61.62254 61.22120
# Shear Modulus (GPa) = 26.61959 41.97169 34.29564
#
# Velocity S-wave (km/s) = 3.55021 4.45791 4.02970
# Velocity P-wave (km/s) = 6.75296 7.46154 7.11608
#
# Compressibility (1/GPa) = 0.01644200
#
# Stress axis : x y z
#
# Youngs Moduli (GPa) = 73.62026 88.89903 54.82136
#
# Poissons Ratio (x) = 0.18821 0.34070
# Poissons Ratio (y) = 0.15586 0.27321
# Poissons Ratio (z) = 0.45753 0.44304
#
# Static dielectric constant tensor:
#      x y z
#    x 3.925590 0.000000 0.000000 
#    y 0.000000 3.880560 0.000000 
#    z 0.000000 0.000000 3.579490 
# 
# 
# High freq. dielectric constant tensor:
#      x y z
#    x 1.825510 0.000000 0.000000 
#    y 0.000000 1.839630 0.000000 
#    z 0.000000 0.000000 1.821900 
# 
# From -- ./inp_files/49214.got.cif
#   From: 2010.03.12/outbox.cif.g09.slc.cpg/sg68_25_cif.got.tgz:49214.got - 2010.04.10 23:14:56.
