data_PCOD8282329
_publ_section_title
;
Structure prediction by ZEFSAII (Michael W. Deem and Ramdas Pophale) SiO2 
 PCOD8282329
Probable space group: C C C A
;
_chemical_formula_sum "Si O2"
_cell_formula_units_Z 68
_cell_length_a 24.009637
_cell_length_b 14.822882
_cell_length_c 8.531856
_cell_angle_alpha 90.000000
_cell_angle_beta 90.000000
_cell_angle_gamma 90.000000
_cell_volume 3036.419433
_symmetry_space_group_name_H-M "C C C A"
_symmetry_group_IT_number 68
_space_group.IT_coordinate_system_code '2'
_symmetry_cell_setting 'orthorhombic'
loop_
_space_group_symop_operation_xyz
x,y,z
-x,1/2-y,z
x,1/2-y,1/2-z
-x,y,1/2-z
-x,-y,-z
x,1/2+y,-z
-x,1/2+y,1/2+z
x,-y,1/2+z
1/2+x,1/2+y,z
1/2-x,-y,z
1/2+x,-y,1/2-z
1/2-x,1/2+y,1/2-z
1/2-x,1/2-y,-z
1/2+x,y,-z
1/2-x,y,1/2+z
1/2+x,1/2-y,1/2+z
loop_
_atom_site_type_symbol
_atom_site_label
_atom_site_fract_x
_atom_site_fract_y
_atom_site_fract_z
Si Si1 0.500000 0.036581 0.750000
Si Si2 0.750000 0.000000 0.804944
Si Si3 0.559681 0.892595 0.545579
Si Si4 0.165337 0.710539 0.083728
Si Si5 0.000000 0.250000 0.750000
Si Si6 0.714019 0.372702 0.937697
O O1 0.466812 0.097862 0.626668
O O2 0.546015 0.978666 0.654559
O O3 0.704150 0.056307 0.703082
O O4 0.786542 0.070163 0.902847
O O5 0.625343 0.870779 0.525829
O O6 0.537286 0.805798 0.632530
O O7 0.145353 0.750000 0.250000
O O8 0.226345 0.670307 0.099089
O O9 0.167822 0.793635 0.956184
#
# Coordination Sequence:
#
# PCOD8282329 Si02
#       6
#     8   8  16  16   4  16
#     4   9  22  44  68 101 130 162 226 295 330 412
#     4  10  20  40  58  84 128 186 208 282 316 362
#     4  10  21  42  69  93 133 167 217 279 350 390
#     4  11  21  39  65  96 130 181 220 270 331 410
#     4  10  20  38  68  94 128 176 204 282 332 416
#     4  10  22  38  62  90 136 172 228 264 324 392
#
# _framework density 22.394798999999999
#
# number of rings (size 3 to 8) (size 9 to 14) (size 15 to 20)
#    0.000    1.882    3.529    0.000    0.000    2.353 
#    0.000    4.706    0.000    0.000    0.000    0.000 
#    0.000    0.000    0.000    0.000    0.000    0.000 
#
# Total GULP energy -421366.841186 kJ/mol
# GULP energy per Si atom -12393.142388 kJ/mol
# Density = 2.234383 g / cm^3
# Si number density = 22.394799 Si / 1000 Ang^3
#
#
#
# Elastic Constant Matrix: (Units=GPa)
#
#
# Indices 1 2 3 4 5 6 
#
# 1 87.5850 40.3854 36.7408 0.0000 0.0000 0.0000
# 2 40.3854 104.9027 55.1271 0.0000 0.0000 0.0000
# 3 36.7408 55.1271 144.4833 0.0000 0.0000 0.0000
# 4 0.0000 0.0000 0.0000 -24.3824 0.0000 0.0000
# 5 0.0000 0.0000 0.0000 0.0000 11.7560 0.0000
# 6 0.0000 0.0000 0.0000 0.0000 0.0000 26.9700
#
#
#
# Elastic Compliance Matrix: (Units=1/GPa)
#
#
# Indices 1 2 3 4 5 6 
#
# 1 0.014295 -0.004494 -0.001920 0.000000 0.000000 0.000000
# 2 -0.004494 0.013336 -0.003946 0.000000 0.000000 0.000000
# 3 -0.001920 -0.003946 0.008915 0.000000 0.000000 0.000000
# 4 0.000000 0.000000 0.000000 -0.041013 0.000000 0.000000
# 5 0.000000 0.000000 0.000000 0.000000 0.085063 0.000000
# 6 0.000000 0.000000 0.000000 0.000000 0.000000 0.037078
#
#
# Mechanical properties :
#
#
# Convention : Reuss Voigt Hill
#
# Bulk Modulus (GPa) = 63.18651 66.83085 65.00868
# Shear Modulus (GPa) = 34.80193 16.51658 25.65925
#
# Velocity S-wave (km/s) = 3.94638 2.71868 3.38859
# Velocity P-wave (km/s) = 7.00295 6.30570 6.66345
#
# Compressibility (1/GPa) = 0.01582616
#
# Stress axis : x y z
#
# Youngs Moduli (GPa) = 69.95274 74.98363 112.17083
#
# Poissons Ratio (x) = 0.33699 0.21542
# Poissons Ratio (y) = 0.31438 0.44258
# Poissons Ratio (z) = 0.13434 0.29585
#
# Static dielectric constant tensor:
#      x y z
#    x 2.954820 0.000000 0.000000 
#    y 0.000000 4.540950 0.000000 
#    z 0.000000 0.000000 4.237540 
# 
# 
# High freq. dielectric constant tensor:
#      x y z
#    x 1.841260 0.000000 0.000000 
#    y 0.000000 1.899020 0.000000 
#    z 0.000000 0.000000 1.892530 
# 
# From -- ./inp_files/5155.got.cif
#   From: 2010.03.12/outbox.cif.g09.slc.cpg/sg68_3_cif.got.tgz:5155.got - 2010.04.10 23:14:56.
