data_PCOD8282463
_publ_section_title
;
Structure prediction by ZEFSAII (Michael W. Deem and Ramdas Pophale) SiO2 
 PCOD8282463
Probable space group: C C C A
;
_chemical_formula_sum "Si O2"
_cell_formula_units_Z 56
_cell_length_a 35.705652
_cell_length_b 13.777893
_cell_length_c 5.157142
_cell_angle_alpha 90.000000
_cell_angle_beta 90.000000
_cell_angle_gamma 90.000000
_cell_volume 2537.049059
_symmetry_space_group_name_H-M "C C C A"
_symmetry_group_IT_number 68
_space_group.IT_coordinate_system_code '2'
_symmetry_cell_setting 'orthorhombic'
loop_
_space_group_symop_operation_xyz
x,y,z
-x,1/2-y,z
x,1/2-y,1/2-z
-x,y,1/2-z
-x,-y,-z
x,1/2+y,-z
-x,1/2+y,1/2+z
x,-y,1/2+z
1/2+x,1/2+y,z
1/2-x,-y,z
1/2+x,-y,1/2-z
1/2-x,1/2+y,1/2-z
1/2-x,1/2-y,-z
1/2+x,y,-z
1/2-x,y,1/2+z
1/2+x,1/2-y,1/2+z
loop_
_atom_site_type_symbol
_atom_site_label
_atom_site_fract_x
_atom_site_fract_y
_atom_site_fract_z
Si Si1 0.909953 0.059513 0.860455
Si Si2 0.983432 0.357558 0.503228
Si Si3 0.675638 0.562161 0.647730
Si Si4 0.275605 0.750000 0.750000
O O1 0.938256 0.143793 0.960076
O O2 0.867435 0.096692 0.868657
O O3 0.917272 0.028498 0.563189
O O4 0.000000 0.250000 0.499909
O O5 0.000000 0.415191 0.750000
O O6 0.000000 0.411710 0.250000
O O7 0.685043 0.519431 0.363979
O O8 0.699086 0.655265 0.726707
O O9 0.250000 0.750000 0.500000
#
# Coordination Sequence:
#
# PCOD8282463 Si02
#       4
#    16  16  16   8
#     4  10  21  38  60  84 114 157 206 254 308 371
#     4  10  21  35  52  80 114 151 196 246 306 361
#     4  10  23  44  67  94 130 171 214 264 319 381
#     4  12  26  42  68 104 133 168 213 260 326 400
#
# _framework density 22.072886
#
# number of rings (size 3 to 8) (size 9 to 14) (size 15 to 20)
#    0.000    1.714    0.000    3.429    0.000    9.143 
#    0.000    8.571    0.000    0.000    0.000    0.000 
#    0.000    0.000    0.000    0.000    0.000    0.000 
#
# Total GULP energy -346871.930700 kJ/mol
# GULP energy per Si atom -12388.283239 kJ/mol
# Density = 2.202265 g / cm^3
# Si number density = 22.072886 Si / 1000 Ang^3
#
#
#
# Elastic Constant Matrix: (Units=GPa)
#
#
# Indices 1 2 3 4 5 6 
#
# 1 161.3874 76.6051 60.7922 0.0000 0.0000 0.0000
# 2 76.6051 94.7531 20.2081 0.0000 0.0000 0.0000
# 3 60.7922 20.2081 188.9823 0.0000 0.0000 0.0000
# 4 0.0000 0.0000 0.0000 15.0377 0.0000 0.0000
# 5 0.0000 0.0000 0.0000 0.0000 42.5157 0.0000
# 6 0.0000 0.0000 0.0000 0.0000 0.0000 49.8864
#
#
#
# Elastic Compliance Matrix: (Units=1/GPa)
#
#
# Indices 1 2 3 4 5 6 
#
# 1 0.011267 -0.008531 -0.002712 0.000000 0.000000 0.000000
# 2 -0.008531 0.017259 0.000899 0.000000 0.000000 0.000000
# 3 -0.002712 0.000899 0.006068 0.000000 0.000000 0.000000
# 4 0.000000 0.000000 0.000000 0.066500 0.000000 0.000000
# 5 0.000000 0.000000 0.000000 0.000000 0.023521 0.000000
# 6 0.000000 0.000000 0.000000 0.000000 0.000000 0.020046
#
#
# Mechanical properties :
#
#
# Convention : Reuss Voigt Hill
#
# Bulk Modulus (GPa) = 71.91468 84.48149 78.19808
# Shear Modulus (GPa) = 29.41459 40.65579 35.03519
#
# Velocity S-wave (km/s) = 3.65446 4.29638 3.98835
# Velocity P-wave (km/s) = 7.10338 7.93529 7.53083
#
# Compressibility (1/GPa) = 0.01390537
#
# Stress axis : x y z
#
# Youngs Moduli (GPa) = 88.75339 57.94102 164.80208
#
# Poissons Ratio (x) = 0.49428 0.44698
# Poissons Ratio (y) = 0.75713 -0.14810
# Poissons Ratio (z) = 0.24072 -0.05207
#
# Static dielectric constant tensor:
#      x y z
#    x 4.181700 0.000000 0.000000 
#    y 0.000000 3.418160 0.000000 
#    z 0.000000 0.000000 -0.542450 
# 
# 
# High freq. dielectric constant tensor:
#      x y z
#    x 1.878230 0.000000 0.000000 
#    y 0.000000 1.840450 0.000000 
#    z 0.000000 0.000000 1.905070 
# 
# From -- ./inp_files/670.got.cif
#   From: 2010.03.12/outbox.cif.g09.slc.cpg/sg68_1_cif.got.tgz:670.got - 2010.04.10 23:14:56.
