data_PCOD8282340
_publ_section_title
;
Structure prediction by ZEFSAII (Michael W. Deem and Ramdas Pophale) SiO2 
 PCOD8282340
Probable space group: C C C A
;
_chemical_formula_sum "Si O2"
_cell_formula_units_Z 104
_cell_length_a 18.097785
_cell_length_b 24.436937
_cell_length_c 12.476669
_cell_angle_alpha 90.000000
_cell_angle_beta 90.000000
_cell_angle_gamma 90.000000
_cell_volume 5517.862160
_symmetry_space_group_name_H-M "C C C A"
_symmetry_group_IT_number 68
_space_group.IT_coordinate_system_code '2'
_symmetry_cell_setting 'orthorhombic'
loop_
_space_group_symop_operation_xyz
x,y,z
-x,1/2-y,z
x,1/2-y,1/2-z
-x,y,1/2-z
-x,-y,-z
x,1/2+y,-z
-x,1/2+y,1/2+z
x,-y,1/2+z
1/2+x,1/2+y,z
1/2-x,-y,z
1/2+x,-y,1/2-z
1/2-x,1/2+y,1/2-z
1/2-x,1/2-y,-z
1/2+x,y,-z
1/2-x,y,1/2+z
1/2+x,1/2-y,1/2+z
loop_
_atom_site_type_symbol
_atom_site_label
_atom_site_fract_x
_atom_site_fract_y
_atom_site_fract_z
Si Si1 0.772378 0.675655 0.604269
Si Si2 0.963550 0.166132 0.026888
Si Si3 0.750000 0.500000 0.109443
Si Si4 0.329481 0.250000 0.250000
Si Si5 0.830492 0.092485 0.012769
Si Si6 0.103594 0.218488 0.958650
Si Si7 0.500000 0.879330 0.250000
Si Si8 0.844143 0.085540 0.261746
O O1 0.718312 0.711517 0.674991
O O2 0.727783 0.636834 0.525384
O O3 0.822626 0.712189 0.527679
O O4 0.822469 0.643291 0.687730
O O5 0.913617 0.114877 0.984069
O O6 0.972987 0.160314 0.154631
O O7 0.925962 0.223110 0.997066
O O8 0.045850 0.168396 0.976467
O O9 0.801675 0.463479 0.182888
O O10 0.809260 0.534666 0.040472
O O11 0.381019 0.284159 0.168705
O O12 0.821470 0.084955 0.138560
O O13 0.567632 0.919790 0.280344
#
# Coordination Sequence:
#
# PCOD8282340 Si02
#       8
#    16  16   8   8  16  16   8  16
#     4  11  22  37  59  91 122 159 210 244 297 359
#     4  10  22  38  58  89 125 164 202 244 296 365
#     4  10  22  40  70  88 118 150 200 258 328 368
#     4  12  24  35  58  87 128 170 202 248 302 361
#     4  10  21  41  62  90 120 153 204 259 303 367
#     4  11  23  38  57  86 129 171 203 242 295 365
#     4  10  20  39  62  88 118 156 198 257 292 354
#     4  10  21  39  65  87 117 155 200 255 310 359
#
# _framework density 18.847878999999999
#
# number of rings (size 3 to 8) (size 9 to 14) (size 15 to 20)
#    0.000    1.538    3.077    1.846    4.308    2.462 
#    0.000    3.077   10.154    0.000    0.000    0.000 
#    0.000    0.000    0.000    0.000    0.000    0.000 
#
# Total GULP energy -644583.155930 kJ/mol
# GULP energy per Si atom -12395.829922 kJ/mol
# Density = 1.880498 g / cm^3
# Si number density = 18.847879 Si / 1000 Ang^3
#
#
#
# Elastic Constant Matrix: (Units=GPa)
#
#
# Indices 1 2 3 4 5 6 
#
# 1 116.1154 36.5988 59.6604 0.0000 0.0000 0.0000
# 2 36.5988 69.9522 44.8059 0.0000 0.0000 0.0000
# 3 59.6604 44.8059 131.0500 0.0000 0.0000 0.0000
# 4 0.0000 0.0000 0.0000 9.8549 0.0000 0.0000
# 5 0.0000 0.0000 0.0000 0.0000 23.6421 0.0000
# 6 0.0000 0.0000 0.0000 0.0000 0.0000 39.9033
#
#
#
# Elastic Compliance Matrix: (Units=1/GPa)
#
#
# Indices 1 2 3 4 5 6 
#
# 1 0.011883 -0.003524 -0.004205 0.000000 0.000000 0.000000
# 2 -0.003524 0.019349 -0.005011 0.000000 0.000000 0.000000
# 3 -0.004205 -0.005011 0.011258 0.000000 0.000000 0.000000
# 4 0.000000 0.000000 0.000000 0.101472 0.000000 0.000000
# 5 0.000000 0.000000 0.000000 0.000000 0.042297 0.000000
# 6 0.000000 0.000000 0.000000 0.000000 0.000000 0.025061
#
#
# Mechanical properties :
#
#
# Convention : Reuss Voigt Hill
#
# Bulk Modulus (GPa) = 58.78753 66.58310 62.68531
# Shear Modulus (GPa) = 20.62103 26.41690 23.51896
#
# Velocity S-wave (km/s) = 3.31127 3.74784 3.53630
# Velocity P-wave (km/s) = 6.77330 7.35742 7.07139
#
# Compressibility (1/GPa) = 0.01701041
#
# Stress axis : x y z
#
# Youngs Moduli (GPa) = 84.15077 51.68247 88.82304
#
# Poissons Ratio (x) = 0.18213 0.37351
# Poissons Ratio (y) = 0.29654 0.44510
# Poissons Ratio (z) = 0.35386 0.25899
#
# Static dielectric constant tensor:
#      x y z
#    x 3.992910 0.000000 0.000000 
#    y 0.000000 3.269360 0.000000 
#    z 0.000000 0.000000 5.951820 
# 
# 
# High freq. dielectric constant tensor:
#      x y z
#    x 1.751540 0.000000 0.000000 
#    y 0.000000 1.711910 0.000000 
#    z 0.000000 0.000000 1.742420 
# 
# From -- ./inp_files/14818.got.cif
#   From: 2010.03.12/outbox.cif.g09.slc.cpg/sg68_8_cif.got.tgz:14818.got - 2010.04.10 23:14:56.
