data_PCOD8282318
_publ_section_title
;
Structure prediction by ZEFSAII (Michael W. Deem and Ramdas Pophale) SiO2 
 PCOD8282318
Probable space group: C C C A
;
_chemical_formula_sum "Si O2"
_cell_formula_units_Z 100
_cell_length_a 13.279393
_cell_length_b 18.130304
_cell_length_c 18.723173
_cell_angle_alpha 90.000000
_cell_angle_beta 90.000000
_cell_angle_gamma 90.000000
_cell_volume 4507.780497
_symmetry_space_group_name_H-M "C C C A"
_symmetry_group_IT_number 68
_space_group.IT_coordinate_system_code '2'
_symmetry_cell_setting 'orthorhombic'
loop_
_space_group_symop_operation_xyz
x,y,z
-x,1/2-y,z
x,1/2-y,1/2-z
-x,y,1/2-z
-x,-y,-z
x,1/2+y,-z
-x,1/2+y,1/2+z
x,-y,1/2+z
1/2+x,1/2+y,z
1/2-x,-y,z
1/2+x,-y,1/2-z
1/2-x,1/2+y,1/2-z
1/2-x,1/2-y,-z
1/2+x,y,-z
1/2-x,y,1/2+z
1/2+x,1/2-y,1/2+z
loop_
_atom_site_type_symbol
_atom_site_label
_atom_site_fract_x
_atom_site_fract_y
_atom_site_fract_z
Si Si1 0.830678 0.810832 0.145358
Si Si2 0.229690 0.829230 0.591126
Si Si3 0.402889 0.479517 0.288524
Si Si4 0.110862 0.451444 0.946837
Si Si5 0.399993 0.600533 0.518055
Si Si6 0.000000 0.750000 0.250000
Si Si7 0.787631 0.882562 0.760155
O O1 0.798482 0.744351 0.091646
O O2 0.925598 0.794658 0.197250
O O3 0.730493 0.832073 0.190787
O O4 0.860715 0.880303 0.097133
O O5 0.294913 0.899183 0.565961
O O6 0.135715 0.833852 0.536221
O O7 0.184590 0.834270 0.670881
O O8 0.500000 0.447115 0.250000
O O9 0.422844 0.490491 0.372595
O O10 0.318587 0.418987 0.278675
O O11 0.373572 0.556256 0.249312
O O12 0.141272 0.518986 0.998540
O O13 0.021442 0.402698 0.981027
#
# Coordination Sequence:
#
# PCOD8282318 Si02
#       7
#    16  16  16  16  16   4  16
#     4  12  24  40  66 104 132 169 224 278 341 411
#     4  11  21  44  67  91 137 175 216 279 346 401
#     4  10  20  38  66  92 132 176 224 281 332 395
#     4  10  22  41  65  96 128 172 226 270 332 402
#     4  11  23  39  64  94 132 174 218 274 334 403
#     4  12  24  40  72 100 126 172 218 282 344 408
#     4  10  21  39  64  98 131 172 222 277 344 395
#
# _framework density 22.183866999999999
#
# number of rings (size 3 to 8) (size 9 to 14) (size 15 to 20)
#    0.000    1.280    3.200    2.880    3.360    0.000 
#   14.400    0.000    0.000    1.920    0.000    0.000 
#    0.000    0.000    0.000    0.000    0.000    0.000 
#
# Total GULP energy -619719.750131 kJ/mol
# GULP energy per Si atom -12394.395003 kJ/mol
# Density = 2.213338 g / cm^3
# Si number density = 22.183867 Si / 1000 Ang^3
#
#
#
# Elastic Constant Matrix: (Units=GPa)
#
#
# Indices 1 2 3 4 5 6 
#
# 1 70.2018 18.8429 38.7110 0.0000 0.0000 0.0000
# 2 18.8429 83.2891 50.3580 0.0000 0.0000 0.0000
# 3 38.7110 50.3580 127.9550 0.0000 0.0000 0.0000
# 4 0.0000 0.0000 0.0000 38.6164 0.0000 0.0000
# 5 0.0000 0.0000 0.0000 0.0000 28.2367 0.0000
# 6 0.0000 0.0000 0.0000 0.0000 0.0000 14.8048
#
#
#
# Elastic Compliance Matrix: (Units=1/GPa)
#
#
# Indices 1 2 3 4 5 6 
#
# 1 0.017157 -0.000975 -0.004807 0.000000 0.000000 0.000000
# 2 -0.000975 0.015811 -0.005927 0.000000 0.000000 0.000000
# 3 -0.004807 -0.005927 0.011602 0.000000 0.000000 0.000000
# 4 0.000000 0.000000 0.000000 0.025896 0.000000 0.000000
# 5 0.000000 0.000000 0.000000 0.000000 0.035415 0.000000
# 6 0.000000 0.000000 0.000000 0.000000 0.000000 0.067545
#
#
# Mechanical properties :
#
#
# Convention : Reuss Voigt Hill
#
# Bulk Modulus (GPa) = 47.27880 55.25220 51.26550
# Shear Modulus (GPa) = 24.52234 27.90052 26.21143
#
# Velocity S-wave (km/s) = 3.32838 3.55025 3.44110
# Velocity P-wave (km/s) = 6.01077 6.46268 6.24082
#
# Compressibility (1/GPa) = 0.02115113
#
# Stress axis : x y z
#
# Youngs Moduli (GPa) = 58.28524 63.24766 86.18982
#
# Poissons Ratio (x) = 0.06168 0.41430
# Poissons Ratio (y) = 0.05684 0.51089
# Poissons Ratio (z) = 0.28017 0.37490
#
# Static dielectric constant tensor:
#      x y z
#    x 3.907740 0.000000 0.000000 
#    y 0.000000 3.958430 0.000000 
#    z 0.000000 0.000000 4.274490 
# 
# 
# High freq. dielectric constant tensor:
#      x y z
#    x 1.853060 0.000000 0.000000 
#    y 0.000000 1.866270 0.000000 
#    z 0.000000 0.000000 1.878780 
# 
# From -- ./inp_files/38819.got.cif
#   From: 2010.03.12/outbox.cif.g09.slc.cpg/sg68_20_cif.got.tgz:38819.got - 2010.04.10 23:14:56.
