data_PCOD8282749
_publ_section_title
;
Structure prediction by ZEFSAII (Michael W. Deem and Ramdas Pophale) SiO2 
 PCOD8282749
Probable space group: C C C A
;
_chemical_formula_sum "Si O2"
_cell_formula_units_Z 96
_cell_length_a 23.801011
_cell_length_b 11.193468
_cell_length_c 17.897985
_cell_angle_alpha 90.000000
_cell_angle_beta 90.000000
_cell_angle_gamma 90.000000
_cell_volume 4768.306976
_symmetry_space_group_name_H-M "C C C A"
_symmetry_group_IT_number 68
_space_group.IT_coordinate_system_code '2'
_symmetry_cell_setting 'orthorhombic'
loop_
_space_group_symop_operation_xyz
x,y,z
-x,1/2-y,z
x,1/2-y,1/2-z
-x,y,1/2-z
-x,-y,-z
x,1/2+y,-z
-x,1/2+y,1/2+z
x,-y,1/2+z
1/2+x,1/2+y,z
1/2-x,-y,z
1/2+x,-y,1/2-z
1/2-x,1/2+y,1/2-z
1/2-x,1/2-y,-z
1/2+x,y,-z
1/2-x,y,1/2+z
1/2+x,1/2-y,1/2+z
loop_
_atom_site_type_symbol
_atom_site_label
_atom_site_fract_x
_atom_site_fract_y
_atom_site_fract_z
Si Si1 0.659999 0.280989 0.881248
Si Si2 0.816348 0.010854 0.354735
Si Si3 0.064289 0.287389 0.669705
Si Si4 0.864674 0.005984 0.698433
Si Si5 0.142938 0.308272 0.956264
Si Si6 0.775820 0.385275 0.912640
O O1 0.656454 0.140760 0.867757
O O2 0.631249 0.363091 0.816702
O O3 0.726046 0.307284 0.878974
O O4 0.626935 0.323832 0.956889
O O5 0.750000 0.000000 0.337832
O O6 0.851758 0.963685 0.284296
O O7 0.829304 0.929461 0.426499
O O8 0.090293 0.250000 0.750000
O O9 0.077461 0.430033 0.669820
O O10 0.091964 0.225811 0.597685
O O11 0.000000 0.250000 0.665465
O O12 0.812881 0.063908 0.654255
O O13 0.188270 0.201056 0.964928
O O14 0.750000 0.500000 0.957987
#
# Coordination Sequence:
#
# PCOD8282749 Si02
#       6
#    16  16  16  16  16  16
#     4  11  23  35  56  85 133 165 190 246 316 366
#     4  12  23  34  57  89 130 173 208 234 295 379
#     4  10  21  43  70  88 108 151 211 269 308 349
#     4  10  22  39  58  87 123 156 210 258 299 363
#     4  11  23  36  58  91 118 159 214 248 295 375
#     4   9  19  34  54  79 123 162 198 239 292 350
#
# _framework density 20.132932
#
# number of rings (size 3 to 8) (size 9 to 14) (size 15 to 20)
#    0.000    1.500    3.333    2.500    7.000    0.000 
#    0.000    0.833    0.000    0.000    0.000    0.000 
#    0.000    0.000    0.000    0.000    0.000    0.000 
#
# Total GULP energy -594661.674650 kJ/mol
# GULP energy per Si atom -12388.784889 kJ/mol
# Density = 2.008711 g / cm^3
# Si number density = 20.132932 Si / 1000 Ang^3
#
#
#
# Elastic Constant Matrix: (Units=GPa)
#
#
# Indices 1 2 3 4 5 6 
#
# 1 84.8501 36.9158 25.0560 0.0000 0.0000 0.0000
# 2 36.9158 116.0784 18.5603 0.0000 0.0000 0.0000
# 3 25.0560 18.5603 83.9074 0.0000 0.0000 0.0000
# 4 0.0000 0.0000 0.0000 16.0303 0.0000 0.0000
# 5 0.0000 0.0000 0.0000 0.0000 19.4103 0.0000
# 6 0.0000 0.0000 0.0000 0.0000 0.0000 19.1540
#
#
#
# Elastic Compliance Matrix: (Units=1/GPa)
#
#
# Indices 1 2 3 4 5 6 
#
# 1 0.014582 -0.004086 -0.003451 0.000000 0.000000 0.000000
# 2 -0.004086 0.010076 -0.001009 0.000000 0.000000 0.000000
# 3 -0.003451 -0.001009 0.013171 0.000000 0.000000 0.000000
# 4 0.000000 0.000000 0.000000 0.062382 0.000000 0.000000
# 5 0.000000 0.000000 0.000000 0.000000 0.051519 0.000000
# 6 0.000000 0.000000 0.000000 0.000000 0.000000 0.052208
#
#
# Mechanical properties :
#
#
# Convention : Reuss Voigt Hill
#
# Bulk Modulus (GPa) = 48.21847 49.54447 48.88147
# Shear Modulus (GPa) = 21.93547 24.53916 23.23732
#
# Velocity S-wave (km/s) = 3.30439 3.49500 3.40103
# Velocity P-wave (km/s) = 6.20972 6.39913 6.30514
#
# Compressibility (1/GPa) = 0.02073894
#
# Stress axis : x y z
#
# Youngs Moduli (GPa) = 68.57754 99.25064 75.92190
#
# Poissons Ratio (x) = 0.40551 0.26198
# Poissons Ratio (y) = 0.28019 0.07658
# Poissons Ratio (z) = 0.23664 0.10011
#
# Static dielectric constant tensor:
#      x y z
#    x 3.224520 0.000000 0.000000 
#    y 0.000000 4.106680 0.000000 
#    z 0.000000 0.000000 3.674550 
# 
# 
# High freq. dielectric constant tensor:
#      x y z
#    x 1.732710 0.000000 0.000000 
#    y 0.000000 1.804520 0.000000 
#    z 0.000000 0.000000 1.792130 
# 
# From -- ./inp_files/34073.got.cif
#   From: 2010.03.12/outbox.cif.g09.slc.cpg/sg68_18_cif.got.tgz:34073.got - 2010.04.10 23:14:56.
