data_PCOD8282587
_publ_section_title
;
Structure prediction by ZEFSAII (Michael W. Deem and Ramdas Pophale) SiO2 
 PCOD8282587
Probable space group: C C C A
;
_chemical_formula_sum "Si O2"
_cell_formula_units_Z 72
_cell_length_a 14.323223
_cell_length_b 22.838602
_cell_length_c 9.967348
_cell_angle_alpha 90.000000
_cell_angle_beta 90.000000
_cell_angle_gamma 90.000000
_cell_volume 3260.542694
_symmetry_space_group_name_H-M "C C C A"
_symmetry_group_IT_number 68
_space_group.IT_coordinate_system_code '2'
_symmetry_cell_setting 'orthorhombic'
loop_
_space_group_symop_operation_xyz
x,y,z
-x,1/2-y,z
x,1/2-y,1/2-z
-x,y,1/2-z
-x,-y,-z
x,1/2+y,-z
-x,1/2+y,1/2+z
x,-y,1/2+z
1/2+x,1/2+y,z
1/2-x,-y,z
1/2+x,-y,1/2-z
1/2-x,1/2+y,1/2-z
1/2-x,1/2-y,-z
1/2+x,y,-z
1/2-x,y,1/2+z
1/2+x,1/2-y,1/2+z
loop_
_atom_site_type_symbol
_atom_site_label
_atom_site_fract_x
_atom_site_fract_y
_atom_site_fract_z
Si Si1 0.368391 0.280568 0.106741
Si Si2 0.500000 0.600397 0.250000
Si Si3 0.040906 0.170316 0.509774
Si Si4 0.235260 0.126651 0.503470
Si Si5 0.301307 0.940882 0.247105
O O1 0.348080 0.250000 0.250000
O O2 0.274953 0.311010 0.050072
O O3 0.408403 0.234102 0.998099
O O4 0.454930 0.327529 0.117454
O O5 0.497888 0.645473 0.373251
O O6 0.586858 0.555238 0.260643
O O7 0.127519 0.129139 0.552302
O O8 0.291808 0.107840 0.632834
O O9 0.246504 0.079584 0.384763
O O10 0.250000 0.000000 0.201143
#
# Coordination Sequence:
#
# PCOD8282587 Si02
#       5
#    16   8  16  16  16
#     4  11  22  39  62  98 139 178 217 264 338 413
#     4  10  22  45  66  94 132 178 221 278 340 396
#     4  10  21  38  63  93 133 174 212 265 330 414
#     4  11  23  43  67  97 137 174 228 281 338 397
#     4  11  24  46  68  96 128 178 234 288 339 391
#
# _framework density 22.082212999999999
#
# number of rings (size 3 to 8) (size 9 to 14) (size 15 to 20)
#    0.000    1.333    2.222    4.000    0.000    1.778 
#    8.000    3.333    0.000    0.000    0.000    0.000 
#    0.000    0.000    0.000    0.000    0.000    0.000 
#
# Total GULP energy -445985.458015 kJ/mol
# GULP energy per Si atom -12388.484945 kJ/mol
# Density = 2.203195 g / cm^3
# Si number density = 22.082213 Si / 1000 Ang^3
#
#
#
# Elastic Constant Matrix: (Units=GPa)
#
#
# Indices 1 2 3 4 5 6 
#
# 1 83.2828 17.5831 14.3328 0.0000 0.0000 0.0000
# 2 17.5831 73.5102 14.0253 0.0000 0.0000 0.0000
# 3 14.3328 14.0253 56.7288 0.0000 0.0000 0.0000
# 4 0.0000 0.0000 0.0000 34.3528 0.0000 0.0000
# 5 0.0000 0.0000 0.0000 0.0000 30.0368 0.0000
# 6 0.0000 0.0000 0.0000 0.0000 0.0000 37.4089
#
#
#
# Elastic Compliance Matrix: (Units=1/GPa)
#
#
# Indices 1 2 3 4 5 6 
#
# 1 0.013013 -0.002608 -0.002643 0.000000 0.000000 0.000000
# 2 -0.002608 0.014800 -0.003000 0.000000 0.000000 0.000000
# 3 -0.002643 -0.003000 0.019037 0.000000 0.000000 0.000000
# 4 0.000000 0.000000 0.000000 0.029110 0.000000 0.000000
# 5 0.000000 0.000000 0.000000 0.000000 0.033292 0.000000
# 6 0.000000 0.000000 0.000000 0.000000 0.000000 0.026732
#
#
# Mechanical properties :
#
#
# Convention : Reuss Voigt Hill
#
# Bulk Modulus (GPa) = 32.95181 33.93382 33.44281
# Shear Modulus (GPa) = 30.74996 31.53174 31.14085
#
# Velocity S-wave (km/s) = 3.73570 3.78289 3.75937
# Velocity P-wave (km/s) = 5.79327 5.87203 5.83278
#
# Compressibility (1/GPa) = 0.03034735
#
# Stress axis : x y z
#
# Youngs Moduli (GPa) = 76.84746 67.56835 52.52881
#
# Poissons Ratio (x) = 0.17624 0.13883
# Poissons Ratio (y) = 0.20044 0.15759
# Poissons Ratio (z) = 0.20310 0.20271
#
# Static dielectric constant tensor:
#      x y z
#    x 4.352530 0.000000 0.000000 
#    y 0.000000 3.679290 0.000000 
#    z 0.000000 0.000000 3.830440 
# 
# 
# High freq. dielectric constant tensor:
#      x y z
#    x 1.895190 0.000000 0.000000 
#    y 0.000000 1.839460 0.000000 
#    z 0.000000 0.000000 1.858890 
# 
# From -- ./inp_files/5237.got.cif
#   From: 2010.03.12/outbox.cif.g09.slc.cpg/sg68_3_cif.got.tgz:5237.got - 2010.04.10 23:14:56.
