data_PCOD8282462
_publ_section_title
;
Structure prediction by ZEFSAII (Michael W. Deem and Ramdas Pophale) SiO2 
 PCOD8282462
Probable space group: C C C A
;
_chemical_formula_sum "Si O2"
_cell_formula_units_Z 56
_cell_length_a 5.136973
_cell_length_b 35.689512
_cell_length_c 13.605238
_cell_angle_alpha 90.000000
_cell_angle_beta 90.000000
_cell_angle_gamma 90.000000
_cell_volume 2494.330724
_symmetry_space_group_name_H-M "C C C A"
_symmetry_group_IT_number 68
_space_group.IT_coordinate_system_code '2'
_symmetry_cell_setting 'orthorhombic'
loop_
_space_group_symop_operation_xyz
x,y,z
-x,1/2-y,z
x,1/2-y,1/2-z
-x,y,1/2-z
-x,-y,-z
x,1/2+y,-z
-x,1/2+y,1/2+z
x,-y,1/2+z
1/2+x,1/2+y,z
1/2-x,-y,z
1/2+x,-y,1/2-z
1/2-x,1/2+y,1/2-z
1/2-x,1/2-y,-z
1/2+x,y,-z
1/2-x,y,1/2+z
1/2+x,1/2-y,1/2+z
loop_
_atom_site_type_symbol
_atom_site_label
_atom_site_fract_x
_atom_site_fract_y
_atom_site_fract_z
Si Si1 0.500000 0.476378 0.250000
Si Si2 0.365326 0.657943 0.938814
Si Si3 0.645942 0.427008 0.064792
Si Si4 0.252374 0.766712 0.641318
O O1 0.750000 0.500000 0.286386
O O2 0.605219 0.451989 0.159990
O O3 0.346237 0.615899 0.897298
O O4 0.278382 0.688017 0.856045
O O5 0.663683 0.664156 0.971308
O O6 0.422784 0.435802 0.985088
O O7 0.500000 0.750000 0.583260
O O8 0.249651 0.750000 0.750000
O O9 0.000000 0.750000 0.585768
#
# Coordination Sequence:
#
# PCOD8282462 Si02
#       4
#     8  16  16  16
#     4  12  26  42  68 104 133 168 213 260 326 400
#     4  10  21  38  60  84 114 157 206 254 307 368
#     4  10  23  44  67  94 130 171 214 264 319 380
#     4  10  21  35  52  80 114 151 196 244 303 358
#
# _framework density 22.450911999999999
#
# number of rings (size 3 to 8) (size 9 to 14) (size 15 to 20)
#    0.000    1.714    0.000    3.429    0.000    9.143 
#    0.000    8.571    0.000    0.000    0.000    0.000 
#    0.000    0.000    0.000    0.000    0.000    0.000 
#
# Total GULP energy -346975.343171 kJ/mol
# GULP energy per Si atom -12391.976542 kJ/mol
# Density = 2.239981 g / cm^3
# Si number density = 22.450912 Si / 1000 Ang^3
#
#
#
# Elastic Constant Matrix: (Units=GPa)
#
#
# Indices 1 2 3 4 5 6 
#
# 1 174.0312 47.7387 6.7061 0.0000 0.0000 0.0000
# 2 47.7387 154.2688 61.8330 0.0000 0.0000 0.0000
# 3 6.7061 61.8330 79.2282 0.0000 0.0000 0.0000
# 4 0.0000 0.0000 0.0000 36.2548 0.0000 0.0000
# 5 0.0000 0.0000 0.0000 0.0000 10.9622 0.0000
# 6 0.0000 0.0000 0.0000 0.0000 0.0000 38.7907
#
#
#
# Elastic Compliance Matrix: (Units=1/GPa)
#
#
# Indices 1 2 3 4 5 6 
#
# 1 0.006393 -0.002563 0.001459 0.000000 0.000000 0.000000
# 2 -0.002563 0.010461 -0.007947 0.000000 0.000000 0.000000
# 3 0.001459 -0.007947 0.018700 0.000000 0.000000 0.000000
# 4 0.000000 0.000000 0.000000 0.027583 0.000000 0.000000
# 5 0.000000 0.000000 0.000000 0.000000 0.091223 0.000000
# 6 0.000000 0.000000 0.000000 0.000000 0.000000 0.025779
#
#
# Mechanical properties :
#
#
# Convention : Reuss Voigt Hill
#
# Bulk Modulus (GPa) = 57.29907 71.12043 64.20975
# Shear Modulus (GPa) = 24.50286 36.61822 30.56054
#
# Velocity S-wave (km/s) = 3.30721 4.04299 3.69347
# Velocity P-wave (km/s) = 6.33726 7.31719 6.84479
#
# Compressibility (1/GPa) = 0.01745229
#
# Stress axis : x y z
#
# Youngs Moduli (GPa) = 156.42136 95.59640 53.47480
#
# Poissons Ratio (x) = 0.24504 -0.07804
# Poissons Ratio (y) = 0.40095 0.42496
# Poissons Ratio (z) = -0.22827 0.75970
#
# Static dielectric constant tensor:
#      x y z
#    x 2.092750 0.000000 0.000000 
#    y 0.000000 4.316870 0.000000 
#    z 0.000000 0.000000 3.394870 
# 
# 
# High freq. dielectric constant tensor:
#      x y z
#    x 1.921180 0.000000 0.000000 
#    y 0.000000 1.894420 0.000000 
#    z 0.000000 0.000000 1.854440 
# 
# From -- ./inp_files/18322.got.cif
#   From: 2010.03.12/outbox.cif.g09.slc.cpg/sg68_10_cif.got.tgz:18322.got - 2010.04.10 23:14:56.
