data_PCOD8282792
_publ_section_title
;
Structure prediction by ZEFSAII (Michael W. Deem and Ramdas Pophale) SiO2 
 PCOD8282792
Probable space group: C C C A
;
_chemical_formula_sum "Si O2"
_cell_formula_units_Z 96
_cell_length_a 19.107229
_cell_length_b 23.765634
_cell_length_c 9.344906
_cell_angle_alpha 90.000000
_cell_angle_beta 90.000000
_cell_angle_gamma 90.000000
_cell_volume 4243.478932
_symmetry_space_group_name_H-M "C C C A"
_symmetry_group_IT_number 68
_space_group.IT_coordinate_system_code '2'
_symmetry_cell_setting 'orthorhombic'
loop_
_space_group_symop_operation_xyz
x,y,z
-x,1/2-y,z
x,1/2-y,1/2-z
-x,y,1/2-z
-x,-y,-z
x,1/2+y,-z
-x,1/2+y,1/2+z
x,-y,1/2+z
1/2+x,1/2+y,z
1/2-x,-y,z
1/2+x,-y,1/2-z
1/2-x,1/2+y,1/2-z
1/2-x,1/2-y,-z
1/2+x,y,-z
1/2-x,y,1/2+z
1/2+x,1/2-y,1/2+z
loop_
_atom_site_type_symbol
_atom_site_label
_atom_site_fract_x
_atom_site_fract_y
_atom_site_fract_z
Si Si1 0.735130 0.133125 0.053525
Si Si2 0.570744 0.594413 0.187997
Si Si3 0.780207 0.441251 0.208954
Si Si4 0.610241 0.780729 0.603671
Si Si5 0.387812 0.675305 0.080926
Si Si6 0.505553 0.872963 0.595247
O O1 0.737759 0.076365 0.149379
O O2 0.669921 0.173026 0.079914
O O3 0.805299 0.167911 0.075874
O O4 0.731563 0.111559 0.893121
O O5 0.500000 0.566757 0.250000
O O6 0.635444 0.553699 0.228611
O O7 0.583174 0.656897 0.261174
O O8 0.559991 0.598078 0.016069
O O9 0.750000 0.500000 0.151603
O O10 0.631348 0.750000 0.750000
O O11 0.601170 0.739943 0.465359
O O12 0.535950 0.810843 0.625603
O O13 0.427889 0.633477 0.970218
O O14 0.500000 0.904848 0.750000
#
# Coordination Sequence:
#
# PCOD8282792 Si02
#       6
#    16  16  16  16  16  16
#     4  11  24  42  64  96 127 170 220 279 333 394
#     4   9  21  42  65  96 133 171 221 273 325 395
#     4  11  23  44  71  93 125 168 223 286 349 392
#     4  12  22  37  62  93 137 179 223 259 322 395
#     4  10  22  37  61  90 135 175 214 263 318 394
#     4  11  21  38  62  93 132 178 219 257 309 386
#
# _framework density 22.622948000000001
#
# number of rings (size 3 to 8) (size 9 to 14) (size 15 to 20)
#    0.000    1.333    3.333    2.500    0.000    0.667 
#    0.000    2.500    3.667    4.000    0.000    0.000 
#    0.000    0.000    0.000    0.000    0.000    0.000 
#
# Total GULP energy -594853.234932 kJ/mol
# GULP energy per Si atom -12392.775728 kJ/mol
# Density = 2.257146 g / cm^3
# Si number density = 22.622948 Si / 1000 Ang^3
#
#
#
# Elastic Constant Matrix: (Units=GPa)
#
#
# Indices 1 2 3 4 5 6 
#
# 1 92.8989 30.5997 34.2193 0.0000 0.0000 0.0000
# 2 30.5997 67.8268 21.8904 0.0000 0.0000 0.0000
# 3 34.2193 21.8904 118.0077 0.0000 0.0000 0.0000
# 4 0.0000 0.0000 0.0000 26.3802 0.0000 0.0000
# 5 0.0000 0.0000 0.0000 0.0000 33.4057 0.0000
# 6 0.0000 0.0000 0.0000 0.0000 0.0000 25.1971
#
#
#
# Elastic Compliance Matrix: (Units=1/GPa)
#
#
# Indices 1 2 3 4 5 6 
#
# 1 0.013559 -0.005157 -0.002975 0.000000 0.000000 0.000000
# 2 -0.005157 0.017644 -0.001778 0.000000 0.000000 0.000000
# 3 -0.002975 -0.001778 0.009666 0.000000 0.000000 0.000000
# 4 0.000000 0.000000 0.000000 0.037907 0.000000 0.000000
# 5 0.000000 0.000000 0.000000 0.000000 0.029935 0.000000
# 6 0.000000 0.000000 0.000000 0.000000 0.000000 0.039687
#
#
# Mechanical properties :
#
#
# Convention : Reuss Voigt Hill
#
# Bulk Modulus (GPa) = 47.50606 50.23912 48.87259
# Shear Modulus (GPa) = 28.53328 29.79819 29.16573
#
# Velocity S-wave (km/s) = 3.55527 3.63322 3.59445
# Velocity P-wave (km/s) = 6.15612 6.31314 6.23513
#
# Compressibility (1/GPa) = 0.02104995
#
# Stress axis : x y z
#
# Youngs Moduli (GPa) = 73.75239 56.67776 103.45035
#
# Poissons Ratio (x) = 0.29228 0.30778
# Poissons Ratio (y) = 0.38033 0.18389
# Poissons Ratio (z) = 0.21942 0.10075
#
# Static dielectric constant tensor:
#      x y z
#    x 4.376160 0.000000 0.000000 
#    y 0.000000 3.564610 0.000000 
#    z 0.000000 0.000000 4.410480 
# 
# 
# High freq. dielectric constant tensor:
#      x y z
#    x 1.913720 0.000000 0.000000 
#    y 0.000000 1.841230 0.000000 
#    z 0.000000 0.000000 1.904240 
# 
# From -- ./inp_files/7274.got.cif
#   From: 2010.03.12/outbox.cif.g09.slc.cpg/sg68_4_cif.got.tgz:7274.got - 2010.04.10 23:14:56.
