data_PCOD8282020
_publ_section_title
;
Structure prediction by ZEFSAII (Michael W. Deem and Ramdas Pophale) SiO2 
 PCOD8282020
Probable space group: C C C A
;
_chemical_formula_sum "Si O2"
_cell_formula_units_Z 108
_cell_length_a 13.080982
_cell_length_b 13.488549
_cell_length_c 27.931001
_cell_angle_alpha 90.000000
_cell_angle_beta 90.000000
_cell_angle_gamma 90.000000
_cell_volume 4928.242644
_symmetry_space_group_name_H-M "C C C A"
_symmetry_group_IT_number 68
_space_group.IT_coordinate_system_code '2'
_symmetry_cell_setting 'orthorhombic'
loop_
_space_group_symop_operation_xyz
x,y,z
-x,1/2-y,z
x,1/2-y,1/2-z
-x,y,1/2-z
-x,-y,-z
x,1/2+y,-z
-x,1/2+y,1/2+z
x,-y,1/2+z
1/2+x,1/2+y,z
1/2-x,-y,z
1/2+x,-y,1/2-z
1/2-x,1/2+y,1/2-z
1/2-x,1/2-y,-z
1/2+x,y,-z
1/2-x,y,1/2+z
1/2+x,1/2-y,1/2+z
loop_
_atom_site_type_symbol
_atom_site_label
_atom_site_fract_x
_atom_site_fract_y
_atom_site_fract_z
Si Si1 0.351637 0.362096 0.232667
Si Si2 0.992797 0.138384 0.654368
Si Si3 0.851447 0.373201 0.431701
Si Si4 0.500000 0.750000 0.493907
Si Si5 0.500000 0.750000 0.250000
Si Si6 0.882525 0.401522 0.940310
Si Si7 0.166168 0.697649 0.674090
Si Si8 0.288984 0.100834 0.166518
O O1 0.370142 0.250000 0.250000
O O2 0.449177 0.409492 0.204198
O O3 0.258122 0.366117 0.195279
O O4 0.323544 0.424965 0.279233
O O5 0.910769 0.121926 0.613744
O O6 0.000000 0.250000 0.670302
O O7 0.106423 0.112879 0.636636
O O8 0.894897 0.480503 0.447265
O O9 0.733371 0.365654 0.446699
O O10 0.870346 0.353020 0.375236
O O11 0.908997 0.288838 0.460948
O O12 0.457193 0.659060 0.525067
O O13 0.425550 0.808973 0.286754
O O14 0.206331 0.810480 0.663359
O O15 0.250000 0.000000 0.142951
#
# Coordination Sequence:
#
# PCOD8282020 Si02
#       8
#    16  16  16   8   4  16  16  16
#     4  10  19  37  63  90 125 179 236 272 329 385
#     4  12  20  39  71  92 129 179 223 285 336 393
#     4  11  25  47  73 103 142 177 231 278 350 433
#     4  12  25  46  76 105 137 174 216 297 364 404
#     4  12  22  40  64  90 140 198 232 278 340 402
#     4  11  25  45  74 106 133 178 231 279 350 427
#     4  11  22  42  65  89 138 190 227 276 340 399
#     4  11  24  38  59 101 137 173 237 286 330 393
#
# _framework density 21.914504999999998
#
# number of rings (size 3 to 8) (size 9 to 14) (size 15 to 20)
#    0.000    0.889    7.407    1.778    0.000    3.556 
#    2.667    0.000    0.000    0.000    0.000    0.000 
#    0.000    0.000    0.000    0.000    0.000    0.000 
#
# Total GULP energy -669072.858067 kJ/mol
# GULP energy per Si atom -12390.238112 kJ/mol
# Density = 2.186463 g / cm^3
# Si number density = 21.914505 Si / 1000 Ang^3
#
#
#
# Elastic Constant Matrix: (Units=GPa)
#
#
# Indices 1 2 3 4 5 6 
#
# 1 112.2735 48.0198 28.8145 0.0000 0.0000 0.0000
# 2 48.0198 75.4871 25.6242 0.0000 0.0000 0.0000
# 3 28.8145 25.6242 86.2260 0.0000 0.0000 0.0000
# 4 0.0000 0.0000 0.0000 35.7061 0.0000 0.0000
# 5 0.0000 0.0000 0.0000 0.0000 33.4989 0.0000
# 6 0.0000 0.0000 0.0000 0.0000 0.0000 25.7252
#
#
#
# Elastic Compliance Matrix: (Units=1/GPa)
#
#
# Indices 1 2 3 4 5 6 
#
# 1 0.012546 -0.007293 -0.002025 0.000000 0.000000 0.000000
# 2 -0.007293 0.018974 -0.003201 0.000000 0.000000 0.000000
# 3 -0.002025 -0.003201 0.013225 0.000000 0.000000 0.000000
# 4 0.000000 0.000000 0.000000 0.028006 0.000000 0.000000
# 5 0.000000 0.000000 0.000000 0.000000 0.029852 0.000000
# 6 0.000000 0.000000 0.000000 0.000000 0.000000 0.038872
#
#
# Mechanical properties :
#
#
# Convention : Reuss Voigt Hill
#
# Bulk Modulus (GPa) = 50.74726 53.21152 51.97939
# Shear Modulus (GPa) = 28.88776 30.42124 29.65450
#
# Velocity S-wave (km/s) = 3.63465 3.72987 3.68256
# Velocity P-wave (km/s) = 6.38916 6.54854 6.46934
#
# Compressibility (1/GPa) = 0.01970550
#
# Stress axis : x y z
#
# Youngs Moduli (GPa) = 79.70661 52.70492 75.61158
#
# Poissons Ratio (x) = 0.38440 0.15312
# Poissons Ratio (y) = 0.58134 0.24205
# Poissons Ratio (z) = 0.16141 0.16872
#
# Static dielectric constant tensor:
#      x y z
#    x 3.984440 0.000000 0.000000 
#    y 0.000000 3.758400 0.000000 
#    z 0.000000 0.000000 3.866760 
# 
# 
# High freq. dielectric constant tensor:
#      x y z
#    x 1.880170 0.000000 0.000000 
#    y 0.000000 1.837340 0.000000 
#    z 0.000000 0.000000 1.854180 
# 
# From -- ./inp_files/54876.got.cif
#   From: 2010.03.12/outbox.cif.g09.slc.cpg/sg68_28_cif.got.tgz:54876.got - 2010.04.10 23:14:56.
