data_PCOD8282652
_publ_section_title
;
Structure prediction by ZEFSAII (Michael W. Deem and Ramdas Pophale) SiO2 
 PCOD8282652
Probable space group: C C C A
;
_chemical_formula_sum "Si O2"
_cell_formula_units_Z 112
_cell_length_a 24.577339
_cell_length_b 13.547395
_cell_length_c 16.040094
_cell_angle_alpha 90.000000
_cell_angle_beta 90.000000
_cell_angle_gamma 90.000000
_cell_volume 5340.692367
_symmetry_space_group_name_H-M "C C C A"
_symmetry_group_IT_number 68
_space_group.IT_coordinate_system_code '2'
_symmetry_cell_setting 'orthorhombic'
loop_
_space_group_symop_operation_xyz
x,y,z
-x,1/2-y,z
x,1/2-y,1/2-z
-x,y,1/2-z
-x,-y,-z
x,1/2+y,-z
-x,1/2+y,1/2+z
x,-y,1/2+z
1/2+x,1/2+y,z
1/2-x,-y,z
1/2+x,-y,1/2-z
1/2-x,1/2+y,1/2-z
1/2-x,1/2-y,-z
1/2+x,y,-z
1/2-x,y,1/2+z
1/2+x,1/2-y,1/2+z
loop_
_atom_site_type_symbol
_atom_site_label
_atom_site_fract_x
_atom_site_fract_y
_atom_site_fract_z
Si Si1 0.849409 0.332621 0.474388
Si Si2 0.482716 0.403935 0.841381
Si Si3 0.618432 0.492182 0.208334
Si Si4 0.089293 0.506412 0.104155
Si Si5 0.818552 0.689621 0.672341
Si Si6 0.554253 0.199770 0.002481
Si Si7 0.284867 0.098376 0.120787
O O1 0.865142 0.441643 0.442055
O O2 0.830312 0.253989 0.407606
O O3 0.900928 0.283098 0.518604
O O4 0.797996 0.348336 0.534201
O O5 0.500000 0.359396 0.750000
O O6 0.443025 0.498992 0.827318
O O7 0.535820 0.439947 0.889187
O O8 0.454509 0.323694 0.902938
O O9 0.615151 0.467996 0.306186
O O10 0.645437 0.593172 0.178696
O O11 0.656901 0.410037 0.167352
O O12 0.073525 0.603027 0.052226
O O13 0.838119 0.750000 0.750000
O O14 0.754207 0.666762 0.676395
O O15 0.500000 0.250000 0.040152
O O16 0.250000 0.000000 0.102677
#
# Coordination Sequence:
#
# PCOD8282652 Si02
#       7
#    16  16  16  16  16  16  16
#     4  12  24  42  70  96 135 173 219 282 339 396
#     4  10  21  39  67  95 134 175 219 271 330 392
#     4  10  21  43  67  92 133 175 220 275 339 394
#     4  11  24  41  66 101 135 178 218 276 338 404
#     4  11  22  42  66  97 125 166 232 284 328 392
#     4  12  25  39  64 102 140 177 222 269 335 415
#     4  10  25  44  65  94 131 175 221 282 341 407
#
# _framework density 20.971063999999998
#
# number of rings (size 3 to 8) (size 9 to 14) (size 15 to 20)
#    0.000    1.143    4.286    1.714    4.000    1.429 
#    2.571    0.000    0.000    0.000    0.000    0.000 
#    0.000    0.000    0.000    0.000    0.000    0.000 
#
# Total GULP energy -694050.528855 kJ/mol
# GULP energy per Si atom -12393.759444 kJ/mol
# Density = 2.092333 g / cm^3
# Si number density = 20.971064 Si / 1000 Ang^3
#
#
#
# Elastic Constant Matrix: (Units=GPa)
#
#
# Indices 1 2 3 4 5 6 
#
# 1 79.0775 11.7598 17.7242 0.0000 0.0000 0.0000
# 2 11.7598 64.6622 30.8642 0.0000 0.0000 0.0000
# 3 17.7242 30.8642 93.8649 0.0000 0.0000 0.0000
# 4 0.0000 0.0000 0.0000 19.6331 0.0000 0.0000
# 5 0.0000 0.0000 0.0000 0.0000 34.9608 0.0000
# 6 0.0000 0.0000 0.0000 0.0000 0.0000 27.5269
#
#
#
# Elastic Compliance Matrix: (Units=1/GPa)
#
#
# Indices 1 2 3 4 5 6 
#
# 1 0.013318 -0.001449 -0.002038 0.000000 0.000000 0.000000
# 2 -0.001449 0.018502 -0.005810 0.000000 0.000000 0.000000
# 3 -0.002038 -0.005810 0.012949 0.000000 0.000000 0.000000
# 4 0.000000 0.000000 0.000000 0.050934 0.000000 0.000000
# 5 0.000000 0.000000 0.000000 0.000000 0.028603 0.000000
# 6 0.000000 0.000000 0.000000 0.000000 0.000000 0.036328
#
#
# Mechanical properties :
#
#
# Convention : Reuss Voigt Hill
#
# Bulk Modulus (GPa) = 38.20611 39.81122 39.00866
# Shear Modulus (GPa) = 26.60218 28.24125 27.42172
#
# Velocity S-wave (km/s) = 3.56549 3.67369 3.62000
# Velocity P-wave (km/s) = 5.93366 6.08439 6.00950
#
# Compressibility (1/GPa) = 0.02617382
#
# Stress axis : x y z
#
# Youngs Moduli (GPa) = 75.08524 54.04895 77.22659
#
# Poissons Ratio (x) = 0.07833 0.15741
# Poissons Ratio (y) = 0.10881 0.44869
# Poissons Ratio (z) = 0.15305 0.31402
#
# Static dielectric constant tensor:
#      x y z
#    x 4.387900 0.000000 0.000000 
#    y 0.000000 3.681090 0.000000 
#    z 0.000000 0.000000 3.775900 
# 
# 
# High freq. dielectric constant tensor:
#      x y z
#    x 1.839360 0.000000 0.000000 
#    y 0.000000 1.808040 0.000000 
#    z 0.000000 0.000000 1.816230 
# 
# From -- ./inp_files/22618.got.cif
#   From: 2010.03.12/outbox.cif.g09.slc.cpg/sg68_12_cif.got.tgz:22618.got - 2010.04.10 23:14:56.
