data_PCOD8282785
_publ_section_title
;
Structure prediction by ZEFSAII (Michael W. Deem and Ramdas Pophale) SiO2 
 PCOD8282785
Probable space group: C C C A
;
_chemical_formula_sum "Si O2"
_cell_formula_units_Z 88
_cell_length_a 8.871323
_cell_length_b 27.635078
_cell_length_c 17.886703
_cell_angle_alpha 90.000000
_cell_angle_beta 90.000000
_cell_angle_gamma 90.000000
_cell_volume 4385.098796
_symmetry_space_group_name_H-M "C C C A"
_symmetry_group_IT_number 68
_space_group.IT_coordinate_system_code '2'
_symmetry_cell_setting 'orthorhombic'
loop_
_space_group_symop_operation_xyz
x,y,z
-x,1/2-y,z
x,1/2-y,1/2-z
-x,y,1/2-z
-x,-y,-z
x,1/2+y,-z
-x,1/2+y,1/2+z
x,-y,1/2+z
1/2+x,1/2+y,z
1/2-x,-y,z
1/2+x,-y,1/2-z
1/2-x,1/2+y,1/2-z
1/2-x,1/2-y,-z
1/2+x,y,-z
1/2-x,y,1/2+z
1/2+x,1/2-y,1/2+z
loop_
_atom_site_type_symbol
_atom_site_label
_atom_site_fract_x
_atom_site_fract_y
_atom_site_fract_z
Si Si1 0.457244 0.876632 0.337125
Si Si2 0.457453 0.455969 0.447413
Si Si3 0.088339 0.517429 0.677011
Si Si4 0.000000 0.750000 0.022378
Si Si5 0.175491 0.605233 0.963360
Si Si6 0.767518 0.187683 0.064392
O O1 0.500000 0.870132 0.250000
O O2 0.398550 0.930291 0.363492
O O3 0.606756 0.871209 0.387940
O O4 0.327992 0.837162 0.358466
O O5 0.500000 0.500000 0.500000
O O6 0.504478 0.474171 0.365746
O O7 0.281201 0.441363 0.444758
O O8 0.550929 0.409793 0.475351
O O9 0.250000 0.500000 0.700804
O O10 0.000000 0.530823 0.750000
O O11 0.898235 0.786687 0.073838
O O12 0.888823 0.725451 0.963898
O O13 0.270863 0.647417 0.000235
#
# Coordination Sequence:
#
# PCOD8282785 Si02
#       6
#    16  16  16   8  16  16
#     4  11  24  40  64  91 134 171 214 261 330 383
#     4  12  22  35  60  88 124 164 227 260 300 357
#     4  11  25  39  57  86 128 175 216 267 314 367
#     4  10  22  36  75  97 122 146 212 264 322 388
#     4  12  22  39  64  91 124 171 211 269 311 381
#     4  11  20  42  65 101 120 161 206 263 325 391
#
# _framework density 20.067962999999999
#
# number of rings (size 3 to 8) (size 9 to 14) (size 15 to 20)
#    0.000    0.727    5.455    2.727    5.091    0.000 
#    0.000    0.455    0.000    1.091    0.000    0.000 
#    0.000    0.000    0.000    0.000    0.000    0.000 
#
# Total GULP energy -545325.039359 kJ/mol
# GULP energy per Si atom -12393.750895 kJ/mol
# Density = 2.002229 g / cm^3
# Si number density = 20.067963 Si / 1000 Ang^3
#
#
#
# Elastic Constant Matrix: (Units=GPa)
#
#
# Indices 1 2 3 4 5 6 
#
# 1 110.4438 40.1719 30.6442 0.0000 0.0000 0.0000
# 2 40.1719 85.3729 33.9802 0.0000 0.0000 0.0000
# 3 30.6442 33.9802 89.9173 0.0000 0.0000 0.0000
# 4 0.0000 0.0000 0.0000 22.4467 0.0000 0.0000
# 5 0.0000 0.0000 0.0000 0.0000 28.0552 0.0000
# 6 0.0000 0.0000 0.0000 0.0000 0.0000 52.9912
#
#
#
# Elastic Compliance Matrix: (Units=1/GPa)
#
#
# Indices 1 2 3 4 5 6 
#
# 1 0.011270 -0.004443 -0.002162 0.000000 0.000000 0.000000
# 2 -0.004443 0.015538 -0.004358 0.000000 0.000000 0.000000
# 3 -0.002162 -0.004358 0.013505 0.000000 0.000000 0.000000
# 4 0.000000 0.000000 0.000000 0.044550 0.000000 0.000000
# 5 0.000000 0.000000 0.000000 0.000000 0.035644 0.000000
# 6 0.000000 0.000000 0.000000 0.000000 0.000000 0.018871
#
#
# Mechanical properties :
#
#
# Convention : Reuss Voigt Hill
#
# Bulk Modulus (GPa) = 54.38224 55.03631 54.70927
# Shear Modulus (GPa) = 29.86266 32.76114 31.31190
#
# Velocity S-wave (km/s) = 3.86174 4.04482 3.95434
# Velocity P-wave (km/s) = 6.85871 7.02129 6.94048
#
# Compressibility (1/GPa) = 0.01838836
#
# Stress axis : x y z
#
# Youngs Moduli (GPa) = 88.72966 64.35698 74.04635
#
# Poissons Ratio (x) = 0.28591 0.16009
# Poissons Ratio (y) = 0.39419 0.32269
# Poissons Ratio (z) = 0.19184 0.28046
#
# Static dielectric constant tensor:
#      x y z
#    x 4.931180 0.000000 0.000000 
#    y 0.000000 4.171470 0.000000 
#    z 0.000000 0.000000 2.805510 
# 
# 
# High freq. dielectric constant tensor:
#      x y z
#    x 1.794510 0.000000 0.000000 
#    y 0.000000 1.791840 0.000000 
#    z 0.000000 0.000000 1.755450 
# 
# From -- ./inp_files/28507.got.cif
#   From: 2010.03.12/outbox.cif.g09.slc.cpg/sg68_15_cif.got.tgz:28507.got - 2010.04.10 23:14:56.
