data_PCOD8282513
_publ_section_title
;
Structure prediction by ZEFSAII (Michael W. Deem and Ramdas Pophale) SiO2 
 PCOD8282513
Probable space group: C C C A
;
_chemical_formula_sum "Si O2"
_cell_formula_units_Z 88
_cell_length_a 21.323995
_cell_length_b 12.782674
_cell_length_c 13.798279
_cell_angle_alpha 90.000000
_cell_angle_beta 90.000000
_cell_angle_gamma 90.000000
_cell_volume 3761.102829
_symmetry_space_group_name_H-M "C C C A"
_symmetry_group_IT_number 68
_space_group.IT_coordinate_system_code '2'
_symmetry_cell_setting 'orthorhombic'
loop_
_space_group_symop_operation_xyz
x,y,z
-x,1/2-y,z
x,1/2-y,1/2-z
-x,y,1/2-z
-x,-y,-z
x,1/2+y,-z
-x,1/2+y,1/2+z
x,-y,1/2+z
1/2+x,1/2+y,z
1/2-x,-y,z
1/2+x,-y,1/2-z
1/2-x,1/2+y,1/2-z
1/2-x,1/2-y,-z
1/2+x,y,-z
1/2-x,y,1/2+z
1/2+x,1/2-y,1/2+z
loop_
_atom_site_type_symbol
_atom_site_label
_atom_site_fract_x
_atom_site_fract_y
_atom_site_fract_z
Si Si1 0.375610 0.660394 0.182163
Si Si2 0.185585 0.552434 0.503772
Si Si3 0.650084 0.305124 0.153651
Si Si4 0.908673 0.126362 0.537126
Si Si5 0.000000 0.750000 0.593625
Si Si6 0.568609 0.538220 0.760323
O O1 0.343835 0.750000 0.250000
O O2 0.334353 0.635653 0.087206
O O3 0.446223 0.695149 0.156263
O O4 0.380624 0.555056 0.246658
O O5 0.250000 0.500000 0.537617
O O6 0.195929 0.613098 0.401178
O O7 0.133666 0.462486 0.485883
O O8 0.680666 0.250000 0.250000
O O9 0.633500 0.224884 0.068538
O O10 0.587853 0.367745 0.188527
O O11 0.965959 0.159873 0.468872
O O12 0.938046 0.080357 0.632207
O O13 0.500000 0.491346 0.750000
#
# Coordination Sequence:
#
# PCOD8282513 Si02
#       6
#    16  16  16  16   8  16
#     4  11  25  42  67 107 146 188 244 297 372 430
#     4  11  26  48  74 101 143 194 249 297 352 427
#     4  10  22  44  67 101 140 184 243 289 360 425
#     4  10  23  40  69 106 137 186 237 290 366 430
#     4  12  21  40  73 104 146 188 231 300 377 438
#     4  10  21  36  64 100 148 185 231 293 360 438
#
# _framework density 23.397392
#
# number of rings (size 3 to 8) (size 9 to 14) (size 15 to 20)
#    0.000    1.455    1.818    2.455    5.091    4.727 
#    0.000   12.727    0.000    0.000    0.000    0.000 
#    0.000    0.000    0.000    0.000    0.000    0.000 
#
# Total GULP energy -545263.950028 kJ/mol
# GULP energy per Si atom -12392.362501 kJ/mol
# Density = 2.334414 g / cm^3
# Si number density = 23.397392 Si / 1000 Ang^3
#
#
#
# Elastic Constant Matrix: (Units=GPa)
#
#
# Indices 1 2 3 4 5 6 
#
# 1 79.0491 25.7602 39.0524 0.0000 0.0000 0.0000
# 2 25.7602 131.1930 71.8635 0.0000 0.0000 0.0000
# 3 39.0524 71.8635 102.3866 0.0000 0.0000 0.0000
# 4 0.0000 0.0000 0.0000 45.2945 0.0000 0.0000
# 5 0.0000 0.0000 0.0000 0.0000 9.6861 0.0000
# 6 0.0000 0.0000 0.0000 0.0000 0.0000 30.5696
#
#
#
# Elastic Compliance Matrix: (Units=1/GPa)
#
#
# Indices 1 2 3 4 5 6 
#
# 1 0.015596 0.000319 -0.006172 0.000000 0.000000 0.000000
# 2 0.000319 0.012390 -0.008818 0.000000 0.000000 0.000000
# 3 -0.006172 -0.008818 0.018310 0.000000 0.000000 0.000000
# 4 0.000000 0.000000 0.000000 0.022078 0.000000 0.000000
# 5 0.000000 0.000000 0.000000 0.000000 0.103241 0.000000
# 6 0.000000 0.000000 0.000000 0.000000 0.000000 0.032712
#
#
# Mechanical properties :
#
#
# Convention : Reuss Voigt Hill
#
# Bulk Modulus (GPa) = 58.98617 65.10900 62.04759
# Shear Modulus (GPa) = 20.89249 28.84021 24.86635
#
# Velocity S-wave (km/s) = 2.99145 3.51468 3.26357
# Velocity P-wave (km/s) = 6.09894 6.66022 6.38575
#
# Compressibility (1/GPa) = 0.01695313
#
# Stress axis : x y z
#
# Youngs Moduli (GPa) = 64.11995 80.71076 54.61428
#
# Poissons Ratio (x) = -0.02572 0.33709
# Poissons Ratio (y) = -0.02043 0.48158
# Poissons Ratio (z) = 0.39576 0.71169
#
# Static dielectric constant tensor:
#      x y z
#    x 3.636160 0.000000 0.000000 
#    y 0.000000 5.265330 0.000000 
#    z 0.000000 0.000000 4.308440 
# 
# 
# High freq. dielectric constant tensor:
#      x y z
#    x 1.878890 0.000000 0.000000 
#    y 0.000000 1.951000 0.000000 
#    z 0.000000 0.000000 1.934270 
# 
# From -- ./inp_files/24377.got.cif
#   From: 2010.03.12/outbox.cif.g09.slc.cpg/sg68_13_cif.got.tgz:24377.got - 2010.04.10 23:14:56.
