data_PCOD8282493
_publ_section_title
;
Structure prediction by ZEFSAII (Michael W. Deem and Ramdas Pophale) SiO2 
 PCOD8282493
Probable space group: C C C A
;
_chemical_formula_sum "Si O2"
_cell_formula_units_Z 116
_cell_length_a 24.154132
_cell_length_b 25.945681
_cell_length_c 8.558544
_cell_angle_alpha 90.000000
_cell_angle_beta 90.000000
_cell_angle_gamma 90.000000
_cell_volume 5363.600187
_symmetry_space_group_name_H-M "C C C A"
_symmetry_group_IT_number 68
_space_group.IT_coordinate_system_code '2'
_symmetry_cell_setting 'orthorhombic'
loop_
_space_group_symop_operation_xyz
x,y,z
-x,1/2-y,z
x,1/2-y,1/2-z
-x,y,1/2-z
-x,-y,-z
x,1/2+y,-z
-x,1/2+y,1/2+z
x,-y,1/2+z
1/2+x,1/2+y,z
1/2-x,-y,z
1/2+x,-y,1/2-z
1/2-x,1/2+y,1/2-z
1/2-x,1/2-y,-z
1/2+x,y,-z
1/2-x,y,1/2+z
1/2+x,1/2-y,1/2+z
loop_
_atom_site_type_symbol
_atom_site_label
_atom_site_fract_x
_atom_site_fract_y
_atom_site_fract_z
Si Si1 0.289455 0.298309 0.008200
Si Si2 0.560537 0.179797 0.705385
Si Si3 0.720400 0.867486 0.229163
Si Si4 0.133902 0.516026 0.995051
Si Si5 0.107397 0.574792 0.697172
Si Si6 0.500000 0.250000 0.250000
Si Si7 0.292120 0.958969 0.740091
Si Si8 0.908919 0.771064 0.009907
O O1 0.258481 0.344298 0.094411
O O2 0.250000 0.250000 0.000000
O O3 0.300234 0.320438 0.835315
O O4 0.347877 0.279469 0.085951
O O5 0.500000 0.199199 0.750000
O O6 0.562114 0.119106 0.664763
O O7 0.593002 0.188903 0.866756
O O8 0.583691 0.213057 0.559379
O O9 0.667176 0.898814 0.166645
O O10 0.760807 0.907716 0.316868
O O11 0.095648 0.472349 0.078065
O O12 0.161004 0.552383 0.128333
O O13 0.101238 0.552711 0.874241
O O14 0.182014 0.484886 0.910642
O O15 0.457852 0.217303 0.362292
O O16 0.250000 0.000000 0.816465
#
# Coordination Sequence:
#
# PCOD8282493 Si02
#       8
#    16  16  16  16  16   4  16  16
#     4  12  27  41  57  95 141 181 208 265 327 404
#     4  11  22  47  72  93 117 181 220 271 332 414
#     4  12  23  37  59  90 130 180 217 246 325 395
#     4  10  21  36  56  91 125 169 208 268 315 372
#     4  11  22  39  65  91 130 169 224 264 321 400
#     4  12  24  46  72 104 116 162 224 310 332 342
#     4  11  20  32  57  83 127 164 215 258 298 371
#     4  11  24  45  71  96 136 165 231 277 331 393
#
# _framework density 21.627265000000001
#
# number of rings (size 3 to 8) (size 9 to 14) (size 15 to 20)
#    0.000    0.828    5.517    3.724    3.862    0.000 
#    0.000    0.690    0.000    0.000    0.000    0.000 
#    0.000    0.000    0.000    0.000    0.000    0.000 
#
# Total GULP energy -718674.366080 kJ/mol
# GULP energy per Si atom -12390.937346 kJ/mol
# Density = 2.157804 g / cm^3
# Si number density = 21.627265 Si / 1000 Ang^3
#
#
#
# Elastic Constant Matrix: (Units=GPa)
#
#
# Indices 1 2 3 4 5 6 
#
# 1 80.8716 24.0261 22.4569 0.0000 0.0000 0.0000
# 2 24.0261 113.2961 21.0558 0.0000 0.0000 0.0000
# 3 22.4569 21.0558 79.7696 0.0000 0.0000 0.0000
# 4 0.0000 0.0000 0.0000 28.9696 0.0000 0.0000
# 5 0.0000 0.0000 0.0000 0.0000 18.3874 0.0000
# 6 0.0000 0.0000 0.0000 0.0000 0.0000 27.1992
#
#
#
# Elastic Compliance Matrix: (Units=1/GPa)
#
#
# Indices 1 2 3 4 5 6 
#
# 1 0.013984 -0.002349 -0.003317 0.000000 0.000000 0.000000
# 2 -0.002349 0.009676 -0.001893 0.000000 0.000000 0.000000
# 3 -0.003317 -0.001893 0.013969 0.000000 0.000000 0.000000
# 4 0.000000 0.000000 0.000000 0.034519 0.000000 0.000000
# 5 0.000000 0.000000 0.000000 0.000000 0.054385 0.000000
# 6 0.000000 0.000000 0.000000 0.000000 0.000000 0.036766
#
#
# Mechanical properties :
#
#
# Convention : Reuss Voigt Hill
#
# Bulk Modulus (GPa) = 44.41965 45.44612 44.93288
# Shear Modulus (GPa) = 26.89305 28.67113 27.78209
#
# Velocity S-wave (km/s) = 3.53013 3.64496 3.58800
# Velocity P-wave (km/s) = 6.09910 6.22682 6.16329
#
# Compressibility (1/GPa) = 0.02251256
#
# Stress axis : x y z
#
# Youngs Moduli (GPa) = 71.50925 103.34453 71.58465
#
# Poissons Ratio (x) = 0.24277 0.23743
# Poissons Ratio (y) = 0.16799 0.13550
# Poissons Ratio (z) = 0.23718 0.19561
#
# Static dielectric constant tensor:
#      x y z
#    x 3.696210 0.000000 0.000000 
#    y 0.000000 4.229650 0.000000 
#    z 0.000000 0.000000 4.211220 
# 
# 
# High freq. dielectric constant tensor:
#      x y z
#    x 1.826560 0.000000 0.000000 
#    y 0.000000 1.848980 0.000000 
#    z 0.000000 0.000000 1.843480 
# 
# From -- ./inp_files/8339.got.cif
#   From: 2010.03.12/outbox.cif.g09.slc.cpg/sg68_5_cif.got.tgz:8339.got - 2010.04.10 23:14:56.
