data_PCOD8282760
_publ_section_title
;
Structure prediction by ZEFSAII (Michael W. Deem and Ramdas Pophale) SiO2 
 PCOD8282760
Probable space group: C C C A
;
_chemical_formula_sum "Si O2"
_cell_formula_units_Z 104
_cell_length_a 26.719384
_cell_length_b 18.900653
_cell_length_c 9.693372
_cell_angle_alpha 90.000000
_cell_angle_beta 90.000000
_cell_angle_gamma 90.000000
_cell_volume 4895.286680
_symmetry_space_group_name_H-M "C C C A"
_symmetry_group_IT_number 68
_space_group.IT_coordinate_system_code '2'
_symmetry_cell_setting 'orthorhombic'
loop_
_space_group_symop_operation_xyz
x,y,z
-x,1/2-y,z
x,1/2-y,1/2-z
-x,y,1/2-z
-x,-y,-z
x,1/2+y,-z
-x,1/2+y,1/2+z
x,-y,1/2+z
1/2+x,1/2+y,z
1/2-x,-y,z
1/2+x,-y,1/2-z
1/2-x,1/2+y,1/2-z
1/2-x,1/2-y,-z
1/2+x,y,-z
1/2-x,y,1/2+z
1/2+x,1/2-y,1/2+z
loop_
_atom_site_type_symbol
_atom_site_label
_atom_site_fract_x
_atom_site_fract_y
_atom_site_fract_z
Si Si1 0.775993 0.640383 0.154581
Si Si2 0.362107 0.838051 0.450865
Si Si3 0.448520 0.452499 0.306019
Si Si4 0.295437 0.750000 0.250000
Si Si5 0.111839 0.496426 0.058523
Si Si6 0.282904 0.939129 0.930561
Si Si7 0.449287 0.210115 0.114810
O O1 0.740330 0.708788 0.144310
O O2 0.785895 0.621641 0.314793
O O3 0.830275 0.654609 0.090716
O O4 0.747568 0.581421 0.066944
O O5 0.330226 0.804760 0.329565
O O6 0.379566 0.914873 0.398356
O O7 0.409124 0.787604 0.490238
O O8 0.500000 0.486938 0.250000
O O9 0.408046 0.457338 0.185047
O O10 0.427846 0.498948 0.433234
O O11 0.459029 0.371852 0.349335
O O12 0.163527 0.533677 0.016051
O O13 0.250000 0.000000 0.858023
O O14 0.500000 0.250000 0.066165
O O15 0.428247 0.250000 0.250000
#
# Coordination Sequence:
#
# PCOD8282760 Si02
#       7
#    16  16  16   8  16  16  16
#     4  12  25  43  66  96 139 185 229 281 342 411
#     4  11  25  43  65  98 139 178 229 289 338 420
#     4  11  23  45  70 101 135 172 228 300 342 416
#     4  12  26  44  61 100 141 184 236 280 342 416
#     4  11  25  42  68 103 133 178 230 282 362 398
#     4  12  24  40  68  98 138 179 228 281 345 421
#     4  10  21  44  73  97 128 175 235 273 343 412
#
# _framework density 21.244926
#
# number of rings (size 3 to 8) (size 9 to 14) (size 15 to 20)
#    0.000    0.769    4.615    3.231    5.385    1.231 
#    0.000    0.385    0.000    0.000    0.000    0.000 
#    0.000    0.000    0.000    0.000    0.000    0.000 
#
# Total GULP energy -644791.513385 kJ/mol
# GULP energy per Si atom -12399.836796 kJ/mol
# Density = 2.119657 g / cm^3
# Si number density = 21.244926 Si / 1000 Ang^3
#
#
#
# Elastic Constant Matrix: (Units=GPa)
#
#
# Indices 1 2 3 4 5 6 
#
# 1 121.2403 53.5260 23.7203 0.0000 0.0000 0.0000
# 2 53.5260 68.0570 32.0933 0.0000 0.0000 0.0000
# 3 23.7203 32.0933 69.8284 0.0000 0.0000 0.0000
# 4 0.0000 0.0000 0.0000 26.5278 0.0000 0.0000
# 5 0.0000 0.0000 0.0000 0.0000 18.1981 0.0000
# 6 0.0000 0.0000 0.0000 0.0000 0.0000 43.6123
#
#
#
# Elastic Compliance Matrix: (Units=1/GPa)
#
#
# Indices 1 2 3 4 5 6 
#
# 1 0.012642 -0.010109 0.000351 0.000000 0.000000 0.000000
# 2 -0.010109 0.026842 -0.008903 0.000000 0.000000 0.000000
# 3 0.000351 -0.008903 0.018293 0.000000 0.000000 0.000000
# 4 0.000000 0.000000 0.000000 0.037696 0.000000 0.000000
# 5 0.000000 0.000000 0.000000 0.000000 0.054951 0.000000
# 6 0.000000 0.000000 0.000000 0.000000 0.000000 0.022929
#
#
# Mechanical properties :
#
#
# Convention : Reuss Voigt Hill
#
# Bulk Modulus (GPa) = 48.88190 53.08943 50.98566
# Shear Modulus (GPa) = 22.98923 27.65339 25.32131
#
# Velocity S-wave (km/s) = 3.29310 3.61175 3.45610
# Velocity P-wave (km/s) = 6.12520 6.51433 6.32276
#
# Compressibility (1/GPa) = 0.02045747
#
# Stress axis : x y z
#
# Youngs Moduli (GPa) = 79.10044 37.25478 54.66513
#
# Poissons Ratio (x) = 0.37660 -0.01921
# Poissons Ratio (y) = 0.79960 0.48668
# Poissons Ratio (z) = -0.02780 0.33167
#
# Static dielectric constant tensor:
#      x y z
#    x 4.126400 0.000000 0.000000 
#    y 0.000000 3.851020 0.000000 
#    z 0.000000 0.000000 3.727710 
# 
# 
# High freq. dielectric constant tensor:
#      x y z
#    x 1.849150 0.000000 0.000000 
#    y 0.000000 1.829840 0.000000 
#    z 0.000000 0.000000 1.822950 
# 
# From -- ./inp_files/9024.got.cif
#   From: 2010.03.12/outbox.cif.g09.slc.cpg/sg68_5_cif.got.tgz:9024.got - 2010.04.10 23:14:56.
