data_PCOD8282773
_publ_section_title
;
Structure prediction by ZEFSAII (Michael W. Deem and Ramdas Pophale) SiO2 
 PCOD8282773
Probable space group: C C C A
;
_chemical_formula_sum "Si O2"
_cell_formula_units_Z 88
_cell_length_a 9.462459
_cell_length_b 18.714574
_cell_length_c 27.130940
_cell_angle_alpha 90.000000
_cell_angle_beta 90.000000
_cell_angle_gamma 90.000000
_cell_volume 4804.506634
_symmetry_space_group_name_H-M "C C C A"
_symmetry_group_IT_number 68
_space_group.IT_coordinate_system_code '2'
_symmetry_cell_setting 'orthorhombic'
loop_
_space_group_symop_operation_xyz
x,y,z
-x,1/2-y,z
x,1/2-y,1/2-z
-x,y,1/2-z
-x,-y,-z
x,1/2+y,-z
-x,1/2+y,1/2+z
x,-y,1/2+z
1/2+x,1/2+y,z
1/2-x,-y,z
1/2+x,-y,1/2-z
1/2-x,1/2+y,1/2-z
1/2-x,1/2-y,-z
1/2+x,y,-z
1/2-x,y,1/2+z
1/2+x,1/2-y,1/2+z
loop_
_atom_site_type_symbol
_atom_site_label
_atom_site_fract_x
_atom_site_fract_y
_atom_site_fract_z
Si Si1 0.208096 0.080285 0.479571
Si Si2 0.000000 0.750000 0.371001
Si Si3 0.405723 0.024043 0.884703
Si Si4 0.004223 0.632036 0.806950
Si Si5 0.504371 0.385166 0.437731
Si Si6 0.274412 0.251103 0.806735
O O1 0.110789 0.078866 0.430469
O O2 0.350278 0.124621 0.468279
O O3 0.125474 0.114907 0.524441
O O4 0.250000 0.000000 0.494060
O O5 0.024320 0.681533 0.403877
O O6 0.863819 0.738998 0.337971
O O7 0.491497 0.061682 0.840738
O O8 0.250000 0.000000 0.866067
O O9 0.493621 0.955659 0.903519
O O10 0.876768 0.685391 0.818874
O O11 0.000000 0.607680 0.750000
O O12 0.150074 0.673332 0.818906
O O13 0.230691 0.250000 0.750000
#
# Coordination Sequence:
#
# PCOD8282773 Si02
#       6
#    16   8  16  16  16  16
#     4   9  18  36  56  75 102 138 176 215 267 324
#     4  12  23  36  52  80 112 140 181 228 272 312
#     4   9  17  34  58  80 107 139 173 218 269 317
#     4   9  18  36  60  84 107 139 182 220 261 319
#     4  10  22  35  53  77 105 141 179 221 266 317
#     4   9  19  36  57  78 109 148 178 212 266 327
#
# _framework density 18.316136
#
# number of rings (size 3 to 8) (size 9 to 14) (size 15 to 20)
#    0.000    2.909    0.000    5.727    0.000    3.636 
#    0.000    7.273    0.000    0.000    0.000    0.000 
#    0.000    0.000    0.000    0.000    0.000    0.000 
#
# Total GULP energy -545536.211049 kJ/mol
# GULP energy per Si atom -12398.550251 kJ/mol
# Density = 1.827445 g / cm^3
# Si number density = 18.316136 Si / 1000 Ang^3
#
#
#
# Elastic Constant Matrix: (Units=GPa)
#
#
# Indices 1 2 3 4 5 6 
#
# 1 67.1514 24.5452 57.8933 0.0000 0.0000 0.0000
# 2 24.5452 64.2558 60.7221 0.0000 0.0000 0.0000
# 3 57.8933 60.7221 115.1526 0.0000 0.0000 0.0000
# 4 0.0000 0.0000 0.0000 -7.4537 0.0000 0.0000
# 5 0.0000 0.0000 0.0000 0.0000 32.7937 0.0000
# 6 0.0000 0.0000 0.0000 0.0000 0.0000 17.2077
#
#
#
# Elastic Compliance Matrix: (Units=1/GPa)
#
#
# Indices 1 2 3 4 5 6 
#
# 1 0.027075 0.005025 -0.016262 0.000000 0.000000 0.000000
# 2 0.005025 0.031954 -0.019376 0.000000 0.000000 0.000000
# 3 -0.016262 -0.019376 0.027077 0.000000 0.000000 0.000000
# 4 0.000000 0.000000 0.000000 -0.134161 0.000000 0.000000
# 5 0.000000 0.000000 0.000000 0.000000 0.030494 0.000000
# 6 0.000000 0.000000 0.000000 0.000000 0.000000 0.058114
#
#
# Mechanical properties :
#
#
# Convention : Reuss Voigt Hill
#
# Bulk Modulus (GPa) = 40.19286 59.20898 49.70092
# Shear Modulus (GPa) = 45.42535 15.40282 30.41409
#
# Velocity S-wave (km/s) = 4.98544 2.90305 4.07935
# Velocity P-wave (km/s) = 7.42503 6.60554 7.02724
#
# Compressibility (1/GPa) = 0.02488004
#
# Stress axis : x y z
#
# Youngs Moduli (GPa) = 36.93500 31.29508 36.93154
#
# Poissons Ratio (x) = -0.15726 0.60057
# Poissons Ratio (y) = -0.18560 0.71559
# Poissons Ratio (z) = 0.60062 0.60638
#
# Static dielectric constant tensor:
#      x y z
#    x 3.388850 0.000000 0.000000 
#    y 0.000000 3.166710 0.000000 
#    z 0.000000 0.000000 3.349760 
# 
# 
# High freq. dielectric constant tensor:
#      x y z
#    x 1.708000 0.000000 0.000000 
#    y 0.000000 1.691760 0.000000 
#    z 0.000000 0.000000 1.711430 
# 
# From -- ./inp_files/43116.got.cif
#   From: 2010.03.12/outbox.cif.g09.slc.cpg/sg68_22_cif.got.tgz:43116.got - 2010.04.10 23:14:56.
