data_PCOD8282521
_publ_section_title
;
Structure prediction by ZEFSAII (Michael W. Deem and Ramdas Pophale) SiO2 
 PCOD8282521
Probable space group: C C C A
;
_chemical_formula_sum "Si O2"
_cell_formula_units_Z 56
_cell_length_a 31.093536
_cell_length_b 4.982301
_cell_length_c 17.667839
_cell_angle_alpha 90.000000
_cell_angle_beta 90.000000
_cell_angle_gamma 90.000000
_cell_volume 2737.054895
_symmetry_space_group_name_H-M "C C C A"
_symmetry_group_IT_number 68
_space_group.IT_coordinate_system_code '2'
_symmetry_cell_setting 'orthorhombic'
loop_
_space_group_symop_operation_xyz
x,y,z
-x,1/2-y,z
x,1/2-y,1/2-z
-x,y,1/2-z
-x,-y,-z
x,1/2+y,-z
-x,1/2+y,1/2+z
x,-y,1/2+z
1/2+x,1/2+y,z
1/2-x,-y,z
1/2+x,-y,1/2-z
1/2-x,1/2+y,1/2-z
1/2-x,1/2-y,-z
1/2+x,y,-z
1/2-x,y,1/2+z
1/2+x,1/2-y,1/2+z
loop_
_atom_site_type_symbol
_atom_site_label
_atom_site_fract_x
_atom_site_fract_y
_atom_site_fract_z
Si Si1 0.199677 0.023075 0.545942
Si Si2 0.363697 0.241487 0.336532
Si Si3 0.500000 0.750000 0.445450
Si Si4 0.419503 0.735864 0.337541
O O1 0.186115 0.221301 0.476528
O O2 0.177614 0.150846 0.619016
O O3 0.250000 0.000000 0.562810
O O4 0.349020 0.250000 0.250000
O O5 0.403298 0.437451 0.354248
O O6 0.380800 0.944128 0.356622
O O7 0.500000 0.500000 0.500000
O O8 0.459136 0.785515 0.391925
O O9 0.434218 0.750000 0.250000
#
# Coordination Sequence:
#
# PCOD8282521 Si02
#       4
#    16  16   8  16
#     4  10  21  37  57  83 116 151 185 227 284 341
#     4  10  21  38  60  85 111 148 195 235 279 338
#     4  12  25  38  57  88 116 144 192 240 283 338
#     4  10  22  40  59  80 114 153 187 231 289 343
#
# _framework density 20.459945999999999
#
# number of rings (size 3 to 8) (size 9 to 14) (size 15 to 20)
#    0.000    1.714    0.000    3.857    0.000    6.857 
#    0.000   14.286    0.000    0.000    0.000    0.000 
#    0.000    0.000    0.000    0.000    0.000    0.000 
#
# Total GULP energy -347057.124659 kJ/mol
# GULP energy per Si atom -12394.897309 kJ/mol
# Density = 2.041338 g / cm^3
# Si number density = 20.459946 Si / 1000 Ang^3
#
#
#
# Elastic Constant Matrix: (Units=GPa)
#
#
# Indices 1 2 3 4 5 6 
#
# 1 84.9978 31.0507 76.9817 0.0000 0.0000 0.0000
# 2 31.0507 106.0592 45.4145 0.0000 0.0000 0.0000
# 3 76.9817 45.4145 116.9934 0.0000 0.0000 0.0000
# 4 0.0000 0.0000 0.0000 36.2910 0.0000 0.0000
# 5 0.0000 0.0000 0.0000 0.0000 39.9357 0.0000
# 6 0.0000 0.0000 0.0000 0.0000 0.0000 30.9986
#
#
#
# Elastic Compliance Matrix: (Units=1/GPa)
#
#
# Indices 1 2 3 4 5 6 
#
# 1 0.029130 -0.000385 -0.019018 0.000000 0.000000 0.000000
# 2 -0.000385 0.011313 -0.004138 0.000000 0.000000 0.000000
# 3 -0.019018 -0.004138 0.022668 0.000000 0.000000 0.000000
# 4 0.000000 0.000000 0.000000 0.027555 0.000000 0.000000
# 5 0.000000 0.000000 0.000000 0.000000 0.025040 0.000000
# 6 0.000000 0.000000 0.000000 0.000000 0.000000 0.032260
#
#
# Mechanical properties :
#
#
# Convention : Reuss Voigt Hill
#
# Bulk Modulus (GPa) = 62.38859 68.32715 65.35787
# Shear Modulus (GPa) = 24.95097 31.75197 28.35147
#
# Velocity S-wave (km/s) = 3.49593 3.94370 3.72655
# Velocity P-wave (km/s) = 6.84504 7.36241 7.10843
#
# Compressibility (1/GPa) = 0.01602857
#
# Stress axis : x y z
#
# Youngs Moduli (GPa) = 34.32838 88.39043 44.11479
#
# Poissons Ratio (x) = 0.03401 0.83900
# Poissons Ratio (y) = 0.01321 0.18257
# Poissons Ratio (z) = 0.65287 0.36580
#
# Static dielectric constant tensor:
#      x y z
#    x 3.471480 0.000000 0.000000 
#    y 0.000000 4.119530 0.000000 
#    z 0.000000 0.000000 3.720080 
# 
# 
# High freq. dielectric constant tensor:
#      x y z
#    x 1.788430 0.000000 0.000000 
#    y 0.000000 1.825830 0.000000 
#    z 0.000000 0.000000 1.800890 
# 
# From -- ./inp_files/18330.got.cif
#   From: 2010.03.12/outbox.cif.g09.slc.cpg/sg68_10_cif.got.tgz:18330.got - 2010.04.10 23:14:56.
