data_PCOD8282133
_publ_section_title
;
Structure prediction by ZEFSAII (Michael W. Deem and Ramdas Pophale) SiO2 
 PCOD8282133
Probable space group: C C C A
;
_chemical_formula_sum "Si O2"
_cell_formula_units_Z 88
_cell_length_a 31.234218
_cell_length_b 9.704807
_cell_length_c 14.228002
_cell_angle_alpha 90.000000
_cell_angle_beta 90.000000
_cell_angle_gamma 90.000000
_cell_volume 4312.821240
_symmetry_space_group_name_H-M "C C C A"
_symmetry_group_IT_number 68
_space_group.IT_coordinate_system_code '2'
_symmetry_cell_setting 'orthorhombic'
loop_
_space_group_symop_operation_xyz
x,y,z
-x,1/2-y,z
x,1/2-y,1/2-z
-x,y,1/2-z
-x,-y,-z
x,1/2+y,-z
-x,1/2+y,1/2+z
x,-y,1/2+z
1/2+x,1/2+y,z
1/2-x,-y,z
1/2+x,-y,1/2-z
1/2-x,1/2+y,1/2-z
1/2-x,1/2-y,-z
1/2+x,y,-z
1/2-x,y,1/2+z
1/2+x,1/2-y,1/2+z
loop_
_atom_site_type_symbol
_atom_site_label
_atom_site_fract_x
_atom_site_fract_y
_atom_site_fract_z
Si Si1 0.056100 0.172054 0.908338
Si Si2 0.791320 0.593957 0.274779
Si Si3 0.345057 0.322338 0.056292
Si Si4 0.052297 0.486651 0.916658
Si Si5 0.500000 0.949173 0.750000
Si Si6 0.348750 0.019600 0.104227
O O1 0.107199 0.153748 0.903969
O O2 0.041362 0.326130 0.935261
O O3 0.035643 0.140638 0.806621
O O4 0.039513 0.069789 0.990047
O O5 0.778372 0.750000 0.250000
O O6 0.750000 0.500000 0.279148
O O7 0.813507 0.597088 0.375165
O O8 0.824717 0.524385 0.202964
O O9 0.337064 0.159252 0.047714
O O10 0.334388 0.386738 0.955047
O O11 0.024374 0.541385 0.827962
O O12 0.100842 0.498847 0.882318
#
# Coordination Sequence:
#
# PCOD8282133 Si02
#       6
#    16  16  16  16   8  16
#     4  10  20  35  54  77 104 137 176 215 254 303
#     4  10  21  36  54  79 107 135 169 211 257 309
#     4   9  19  36  56  76 103 138 174 211 255 305
#     4  10  20  35  54  77 104 137 176 215 254 303
#     4  12  21  32  55  80 105 140 177 212 257 308
#     4   9  19  36  56  76 103 138 174 211 255 305
#
# _framework density 20.404277
#
# number of rings (size 3 to 8) (size 9 to 14) (size 15 to 20)
#    0.000    2.182    0.000    3.273    0.000    5.091 
#    0.000    5.455    0.000    8.727    0.000    0.000 
#    0.000    0.000    0.000    0.000    0.000    0.000 
#
# Total GULP energy -545415.993388 kJ/mol
# GULP energy per Si atom -12395.818032 kJ/mol
# Density = 2.035784 g / cm^3
# Si number density = 20.404277 Si / 1000 Ang^3
#
#
#
# Elastic Constant Matrix: (Units=GPa)
#
#
# Indices 1 2 3 4 5 6 
#
# 1 42.0050 16.6162 26.3908 0.0000 0.0000 0.0000
# 2 16.6162 41.9448 26.9538 0.0000 0.0000 0.0000
# 3 26.3908 26.9538 82.9396 0.0000 0.0000 0.0000
# 4 0.0000 0.0000 0.0000 27.3192 0.0000 0.0000
# 5 0.0000 0.0000 0.0000 0.0000 32.3024 0.0000
# 6 0.0000 0.0000 0.0000 0.0000 0.0000 27.3941
#
#
#
# Elastic Compliance Matrix: (Units=1/GPa)
#
#
# Indices 1 2 3 4 5 6 
#
# 1 0.031586 -0.007652 -0.007564 0.000000 0.000000 0.000000
# 2 -0.007652 0.031988 -0.007961 0.000000 0.000000 0.000000
# 3 -0.007564 -0.007961 0.017051 0.000000 0.000000 0.000000
# 4 0.000000 0.000000 0.000000 0.036604 0.000000 0.000000
# 5 0.000000 0.000000 0.000000 0.000000 0.030957 0.000000
# 6 0.000000 0.000000 0.000000 0.000000 0.000000 0.036504
#
#
# Mechanical properties :
#
#
# Convention : Reuss Voigt Hill
#
# Bulk Modulus (GPa) = 29.17869 34.09011 31.63440
# Shear Modulus (GPa) = 20.62143 23.86504 22.24324
#
# Velocity S-wave (km/s) = 3.18251 3.42367 3.30529
# Velocity P-wave (km/s) = 5.27597 5.68966 5.48671
#
# Compressibility (1/GPa) = 0.03427158
#
# Stress axis : x y z
#
# Youngs Moduli (GPa) = 31.65991 31.26206 58.64877
#
# Poissons Ratio (x) = 0.23922 0.44359
# Poissons Ratio (y) = 0.24227 0.46688
# Poissons Ratio (z) = 0.23946 0.24886
#
# Static dielectric constant tensor:
#      x y z
#    x 3.789710 0.000000 0.000000 
#    y 0.000000 3.659210 0.000000 
#    z 0.000000 0.000000 3.705010 
# 
# 
# High freq. dielectric constant tensor:
#      x y z
#    x 1.808720 0.000000 0.000000 
#    y 0.000000 1.782190 0.000000 
#    z 0.000000 0.000000 1.796660 
# 
# From -- ./inp_files/17635.got.cif
#   From: 2010.03.12/outbox.cif.g09.slc.cpg/sg68_9_cif.got.tgz:17635.got - 2010.04.10 23:14:56.
