data_PCOD8282994
_publ_section_title
;
Structure prediction by ZEFSAII (Michael W. Deem and Ramdas Pophale) SiO2 
 PCOD8282994
Probable space group: C C C A
;
_chemical_formula_sum "Si O2"
_cell_formula_units_Z 64
_cell_length_a 10.599130
_cell_length_b 28.953790
_cell_length_c 8.581124
_cell_angle_alpha 90.000000
_cell_angle_beta 90.000000
_cell_angle_gamma 90.000000
_cell_volume 2633.418103
_symmetry_space_group_name_H-M "C C C A"
_symmetry_group_IT_number 68
_space_group.IT_coordinate_system_code '2'
_symmetry_cell_setting 'orthorhombic'
loop_
_space_group_symop_operation_xyz
x,y,z
-x,1/2-y,z
x,1/2-y,1/2-z
-x,y,1/2-z
-x,-y,-z
x,1/2+y,-z
-x,1/2+y,1/2+z
x,-y,1/2+z
1/2+x,1/2+y,z
1/2-x,-y,z
1/2+x,-y,1/2-z
1/2-x,1/2+y,1/2-z
1/2-x,1/2-y,-z
1/2+x,y,-z
1/2-x,y,1/2+z
1/2+x,1/2-y,1/2+z
loop_
_atom_site_type_symbol
_atom_site_label
_atom_site_fract_x
_atom_site_fract_y
_atom_site_fract_z
Si Si1 0.693739 0.750000 0.750000
Si Si2 0.141121 0.037600 0.774321
Si Si3 0.850432 0.687880 0.980279
Si Si4 0.210412 0.096752 0.060293
Si Si5 0.500000 0.134033 0.750000
O O1 0.786131 0.720421 0.855434
O O2 0.610564 0.716675 0.636565
O O3 0.172275 0.065646 0.616386
O O4 0.000000 0.016325 0.750000
O O5 0.250000 0.000000 0.802637
O O6 0.137060 0.072595 0.919192
O O7 0.974801 0.665801 0.902494
O O8 0.751951 0.647970 0.019102
O O9 0.117535 0.101105 0.209758
#
# Coordination Sequence:
#
# PCOD8282994 Si02
#       5
#     8  16  16  16   8
#     4  10  22  43  69 104 150 186 255 311 372 444
#     4  12  29  48  79 114 151 194 252 314 381 459
#     4  11  22  44  71 105 149 196 250 308 379 452
#     4  12  25  49  75 108 149 199 251 307 383 455
#     4  12  24  43  80 102 148 206 246 308 382 451
#
# _framework density 24.303016
#
# number of rings (size 3 to 8) (size 9 to 14) (size 15 to 20)
#    0.000    0.500    5.000    2.250    1.750    2.500 
#    0.000    1.250    0.000    0.000    0.000    0.000 
#    0.000    0.000    0.000    0.000    0.000    0.000 
#
# Total GULP energy -396828.169118 kJ/mol
# GULP energy per Si atom -12400.880285 kJ/mol
# Density = 2.424770 g / cm^3
# Si number density = 24.303016 Si / 1000 Ang^3
#
#
#
# Elastic Constant Matrix: (Units=GPa)
#
#
# Indices 1 2 3 4 5 6 
#
# 1 130.9721 42.1134 30.7545 0.0000 0.0000 0.0000
# 2 42.1134 120.1395 41.4246 0.0000 0.0000 0.0000
# 3 30.7545 41.4246 123.6306 0.0000 0.0000 0.0000
# 4 0.0000 0.0000 0.0000 32.4792 0.0000 0.0000
# 5 0.0000 0.0000 0.0000 0.0000 42.7824 0.0000
# 6 0.0000 0.0000 0.0000 0.0000 0.0000 58.5883
#
#
#
# Elastic Compliance Matrix: (Units=1/GPa)
#
#
# Indices 1 2 3 4 5 6 
#
# 1 0.008787 -0.002630 -0.001305 0.000000 0.000000 0.000000
# 2 -0.002630 0.010198 -0.002763 0.000000 0.000000 0.000000
# 3 -0.001305 -0.002763 0.009339 0.000000 0.000000 0.000000
# 4 0.000000 0.000000 0.000000 0.030789 0.000000 0.000000
# 5 0.000000 0.000000 0.000000 0.000000 0.023374 0.000000
# 6 0.000000 0.000000 0.000000 0.000000 0.000000 0.017068
#
#
# Mechanical properties :
#
#
# Convention : Reuss Voigt Hill
#
# Bulk Modulus (GPa) = 66.98408 67.03638 67.01023
# Shear Modulus (GPa) = 42.39880 44.13328 43.26604
#
# Velocity S-wave (km/s) = 4.18136 4.26603 4.22391
# Velocity P-wave (km/s) = 7.13678 7.20478 7.17086
#
# Compressibility (1/GPa) = 0.01492892
#
# Stress axis : x y z
#
# Youngs Moduli (GPa) = 113.79975 98.05501 107.07948
#
# Poissons Ratio (x) = 0.25793 0.13969
# Poissons Ratio (y) = 0.29935 0.29584
# Poissons Ratio (z) = 0.14846 0.27090
#
# Static dielectric constant tensor:
#      x y z
#    x 4.121920 0.000000 0.000000 
#    y 0.000000 4.561190 0.000000 
#    z 0.000000 0.000000 4.885270 
# 
# 
# High freq. dielectric constant tensor:
#      x y z
#    x 1.950360 0.000000 0.000000 
#    y 0.000000 1.975360 0.000000 
#    z 0.000000 0.000000 1.984260 
# 
# From -- ./inp_files/4081.got.cif
#   From: 2010.03.12/outbox.cif.g09.slc.cpg/sg68_3_cif.got.tgz:4081.got - 2010.04.10 23:14:56.
