data_PCOD8282931
_publ_section_title
;
Structure prediction by ZEFSAII (Michael W. Deem and Ramdas Pophale) SiO2 
 PCOD8282931
Probable space group: C C C A
;
_chemical_formula_sum "Si O2"
_cell_formula_units_Z 88
_cell_length_a 14.658004
_cell_length_b 9.794899
_cell_length_c 29.825666
_cell_angle_alpha 90.000000
_cell_angle_beta 90.000000
_cell_angle_gamma 90.000000
_cell_volume 4282.180290
_symmetry_space_group_name_H-M "C C C A"
_symmetry_group_IT_number 68
_space_group.IT_coordinate_system_code '2'
_symmetry_cell_setting 'orthorhombic'
loop_
_space_group_symop_operation_xyz
x,y,z
-x,1/2-y,z
x,1/2-y,1/2-z
-x,y,1/2-z
-x,-y,-z
x,1/2+y,-z
-x,1/2+y,1/2+z
x,-y,1/2+z
1/2+x,1/2+y,z
1/2-x,-y,z
1/2+x,-y,1/2-z
1/2-x,1/2+y,1/2-z
1/2-x,1/2-y,-z
1/2+x,y,-z
1/2-x,y,1/2+z
1/2+x,1/2-y,1/2+z
loop_
_atom_site_type_symbol
_atom_site_label
_atom_site_fract_x
_atom_site_fract_y
_atom_site_fract_z
Si Si1 0.915192 0.551805 0.860856
Si Si2 0.750000 0.500000 0.297253
Si Si3 0.089490 0.566286 0.044702
Si Si4 0.250000 0.500000 0.396214
Si Si5 0.180216 0.750000 0.750000
Si Si6 0.617012 0.121681 0.467305
Si Si7 0.395769 0.852132 0.159088
O O1 0.844462 0.496004 0.824470
O O2 0.885594 0.465039 0.904201
O O3 0.909559 0.713674 0.869403
O O4 0.021739 0.536700 0.845544
O O5 0.750831 0.365367 0.267169
O O6 0.118985 0.715301 0.027044
O O7 0.980356 0.556577 0.044335
O O8 0.141613 0.453102 0.014231
O O9 0.314216 0.409891 0.427521
O O10 0.304171 0.592565 0.361899
O O11 0.115201 0.688316 0.788724
#
# Coordination Sequence:
#
# PCOD8282931 Si02
#       7
#    16   8  16   8   8  16  16
#     4  10  22  41  67  94 125 178 216 266 320 394
#     4  10  23  39  68  96 128 168 212 267 333 388
#     4  10  22  43  60  95 131 175 215 269 313 386
#     4  12  23  41  62 106 124 178 216 277 325 390
#     4  10  22  45  64  99 126 170 214 279 324 397
#     4  10  24  38  66  89 136 173 219 264 324 376
#     4  10  23  40  69  92 131 169 223 268 327 395
#
# _framework density 20.550280000000001
#
# number of rings (size 3 to 8) (size 9 to 14) (size 15 to 20)
#    0.000    1.818    1.818    0.545    7.636    8.727 
#    0.000    0.000    0.000    6.545    0.000    0.000 
#    0.000    0.000    0.000    0.000    0.000    0.000 
#
# Total GULP energy -545319.995460 kJ/mol
# GULP energy per Si atom -12393.636260 kJ/mol
# Density = 2.050351 g / cm^3
# Si number density = 20.550280 Si / 1000 Ang^3
#
#
#
# Elastic Constant Matrix: (Units=GPa)
#
#
# Indices 1 2 3 4 5 6 
#
# 1 85.7784 47.1505 49.9860 0.0000 0.0000 0.0000
# 2 47.1505 113.5638 71.3166 0.0000 0.0000 0.0000
# 3 49.9860 71.3166 140.0953 0.0000 0.0000 0.0000
# 4 0.0000 0.0000 0.0000 28.6329 0.0000 0.0000
# 5 0.0000 0.0000 0.0000 0.0000 -9.8405 0.0000
# 6 0.0000 0.0000 0.0000 0.0000 0.0000 31.2148
#
#
#
# Elastic Compliance Matrix: (Units=1/GPa)
#
#
# Indices 1 2 3 4 5 6 
#
# 1 0.016169 -0.004542 -0.003457 0.000000 0.000000 0.000000
# 2 -0.004542 0.014220 -0.005618 0.000000 0.000000 0.000000
# 3 -0.003457 -0.005618 0.011231 0.000000 0.000000 0.000000
# 4 0.000000 0.000000 0.000000 0.034925 0.000000 0.000000
# 5 0.000000 0.000000 0.000000 0.000000 -0.101621 0.000000
# 6 0.000000 0.000000 0.000000 0.000000 0.000000 0.032036
#
#
# Mechanical properties :
#
#
# Convention : Reuss Voigt Hill
#
# Bulk Modulus (GPa) = 69.51311 75.14928 72.33120
# Shear Modulus (GPa) = 128.23863 21.40038 74.81950
#
# Velocity S-wave (km/s) = 7.90809 3.23052 6.04045
# Velocity P-wave (km/s) = 10.82973 7.11076 9.16095
#
# Compressibility (1/GPa) = 0.01438578
#
# Stress axis : x y z
#
# Youngs Moduli (GPa) = 61.84585 70.32584 89.03793
#
# Poissons Ratio (x) = 0.31945 0.30779
# Poissons Ratio (y) = 0.28093 0.50020
# Poissons Ratio (z) = 0.21379 0.39508
#
# Static dielectric constant tensor:
#      x y z
#    x 3.861470 0.000000 0.000000 
#    y 0.000000 3.865700 0.000000 
#    z 0.000000 0.000000 3.794710 
# 
# 
# High freq. dielectric constant tensor:
#      x y z
#    x 1.808070 0.000000 0.000000 
#    y 0.000000 1.797820 0.000000 
#    z 0.000000 0.000000 1.807900 
# 
# From -- ./inp_files/50892.got.cif
#   From: 2010.03.12/outbox.cif.g09.slc.cpg/sg68_26_cif.got.tgz:50892.got - 2010.04.10 23:14:56.
