data_PCOD8282784
_publ_section_title
;
Structure prediction by ZEFSAII (Michael W. Deem and Ramdas Pophale) SiO2 
 PCOD8282784
Probable space group: C C C A
;
_chemical_formula_sum "Si O2"
_cell_formula_units_Z 56
_cell_length_a 15.395048
_cell_length_b 10.367889
_cell_length_c 16.351499
_cell_angle_alpha 90.000000
_cell_angle_beta 90.000000
_cell_angle_gamma 90.000000
_cell_volume 2609.930595
_symmetry_space_group_name_H-M "C C C A"
_symmetry_group_IT_number 68
_space_group.IT_coordinate_system_code '2'
_symmetry_cell_setting 'orthorhombic'
loop_
_space_group_symop_operation_xyz
x,y,z
-x,1/2-y,z
x,1/2-y,1/2-z
-x,y,1/2-z
-x,-y,-z
x,1/2+y,-z
-x,1/2+y,1/2+z
x,-y,1/2+z
1/2+x,1/2+y,z
1/2-x,-y,z
1/2+x,-y,1/2-z
1/2-x,1/2+y,1/2-z
1/2-x,1/2-y,-z
1/2+x,y,-z
1/2-x,y,1/2+z
1/2+x,1/2-y,1/2+z
loop_
_atom_site_type_symbol
_atom_site_label
_atom_site_fract_x
_atom_site_fract_y
_atom_site_fract_z
Si Si1 0.750000 0.500000 0.802813
Si Si2 0.206714 0.793551 0.916957
Si Si3 0.475209 0.894774 0.433865
Si Si4 0.889813 0.123053 0.302363
O O1 0.728878 0.628021 0.856768
O O2 0.838055 0.516436 0.749289
O O3 0.128554 0.897288 0.927097
O O4 0.174286 0.661885 0.876252
O O5 0.250000 0.750000 0.000000
O O6 0.500000 0.750000 0.462985
O O7 0.520754 0.927537 0.345288
O O8 0.500000 0.000000 0.500000
O O9 0.912067 0.250000 0.250000
#
# Coordination Sequence:
#
# PCOD8282784 Si02
#       4
#     8  16  16  16
#     4  10  22  36  64  96 124 180 220 286 340 404
#     4  10  23  38  64  95 135 171 229 282 345 414
#     4  10  23  41  67  96 133 178 224 286 353 415
#     4   9  21  42  63  91 130 176 222 277 345 420
#
# _framework density 21.456509
#
# number of rings (size 3 to 8) (size 9 to 14) (size 15 to 20)
#    0.000    2.286    0.000    0.000   12.000   13.143 
#    0.000    0.000    0.000    0.000    0.000    0.000 
#    0.000    0.000    0.000    0.000    0.000    0.000 
#
# Total GULP energy -346978.386102 kJ/mol
# GULP energy per Si atom -12392.085218 kJ/mol
# Density = 2.140767 g / cm^3
# Si number density = 21.456509 Si / 1000 Ang^3
#
#
#
# Elastic Constant Matrix: (Units=GPa)
#
#
# Indices 1 2 3 4 5 6 
#
# 1 132.7933 45.8908 82.2023 0.0000 0.0000 0.0000
# 2 45.8908 70.2676 45.2610 0.0000 0.0000 0.0000
# 3 82.2023 45.2610 160.0644 0.0000 0.0000 0.0000
# 4 0.0000 0.0000 0.0000 48.5678 0.0000 0.0000
# 5 0.0000 0.0000 0.0000 0.0000 47.2693 0.0000
# 6 0.0000 0.0000 0.0000 0.0000 0.0000 27.5561
#
#
#
# Elastic Compliance Matrix: (Units=1/GPa)
#
#
# Indices 1 2 3 4 5 6 
#
# 1 0.012247 -0.004826 -0.004925 0.000000 0.000000 0.000000
# 2 -0.004826 0.019302 -0.002980 0.000000 0.000000 0.000000
# 3 -0.004925 -0.002980 0.009619 0.000000 0.000000 0.000000
# 4 0.000000 0.000000 0.000000 0.020590 0.000000 0.000000
# 5 0.000000 0.000000 0.000000 0.000000 0.021155 0.000000
# 6 0.000000 0.000000 0.000000 0.000000 0.000000 0.036290
#
#
# Mechanical properties :
#
#
# Convention : Reuss Voigt Hill
#
# Bulk Modulus (GPa) = 63.66407 78.87039 71.26723
# Shear Modulus (GPa) = 33.35555 37.33006 35.34281
#
# Velocity S-wave (km/s) = 3.94708 4.17562 4.06295
# Velocity P-wave (km/s) = 7.10691 7.75150 7.43619
#
# Compressibility (1/GPa) = 0.01570745
#
# Stress axis : x y z
#
# Youngs Moduli (GPa) = 81.65345 51.80703 103.95866
#
# Poissons Ratio (x) = 0.25002 0.51198
# Poissons Ratio (y) = 0.39407 0.30976
# Poissons Ratio (z) = 0.40213 0.15437
#
# Static dielectric constant tensor:
#      x y z
#    x 4.151400 0.000000 0.000000 
#    y 0.000000 3.685020 0.000000 
#    z 0.000000 0.000000 4.268050 
# 
# 
# High freq. dielectric constant tensor:
#      x y z
#    x 1.843240 0.000000 0.000000 
#    y 0.000000 1.806980 0.000000 
#    z 0.000000 0.000000 1.858980 
# 
# From -- ./inp_files/20119.got.cif
#   From: 2010.03.12/outbox.cif.g09.slc.cpg/sg68_11_cif.got.tgz:20119.got - 2010.04.10 23:14:56.
