data_PCOD8282576
_publ_section_title
;
Structure prediction by ZEFSAII (Michael W. Deem and Ramdas Pophale) SiO2 
 PCOD8282576
Probable space group: C C C A
;
_chemical_formula_sum "Si O2"
_cell_formula_units_Z 96
_cell_length_a 23.391996
_cell_length_b 14.051517
_cell_length_c 14.720161
_cell_angle_alpha 90.000000
_cell_angle_beta 90.000000
_cell_angle_gamma 90.000000
_cell_volume 4838.414313
_symmetry_space_group_name_H-M "C C C A"
_symmetry_group_IT_number 68
_space_group.IT_coordinate_system_code '2'
_symmetry_cell_setting 'orthorhombic'
loop_
_space_group_symop_operation_xyz
x,y,z
-x,1/2-y,z
x,1/2-y,1/2-z
-x,y,1/2-z
-x,-y,-z
x,1/2+y,-z
-x,1/2+y,1/2+z
x,-y,1/2+z
1/2+x,1/2+y,z
1/2-x,-y,z
1/2+x,-y,1/2-z
1/2-x,1/2+y,1/2-z
1/2-x,1/2-y,-z
1/2+x,y,-z
1/2-x,y,1/2+z
1/2+x,1/2-y,1/2+z
loop_
_atom_site_type_symbol
_atom_site_label
_atom_site_fract_x
_atom_site_fract_y
_atom_site_fract_z
Si Si1 0.078975 0.549316 0.922318
Si Si2 0.335808 0.679684 0.667579
Si Si3 0.130845 0.738716 0.973544
Si Si4 0.384255 0.015906 0.777761
Si Si5 0.295427 0.831558 0.322877
Si Si6 0.949729 0.602433 0.934686
O O1 0.126528 0.629728 0.940487
O O2 0.091007 0.506541 0.823441
O O3 0.017502 0.597160 0.938018
O O4 0.084055 0.464027 0.993716
O O5 0.345958 0.750000 0.750000
O O6 0.352472 0.739063 0.578734
O O7 0.376418 0.588778 0.680486
O O8 0.270644 0.644632 0.662059
O O9 0.178910 0.796870 0.918682
O O10 0.069915 0.790315 0.957160
O O11 0.324837 0.073270 0.784269
O O12 0.431977 0.072627 0.833574
O O13 0.305898 0.750000 0.250000
#
# Coordination Sequence:
#
# PCOD8282576 Si02
#       6
#    16  16  16  16  16  16
#     4  11  21  39  62  88 122 158 202 247 305 362
#     4  11  23  39  61  87 123 158 201 249 308 365
#     4  11  21  40  61  88 120 160 201 249 306 362
#     4  11  21  39  61  88 120 158 200 251 306 359
#     4  10  21  38  61  89 119 157 200 255 299 363
#     4  10  23  37  61  89 122 158 199 250 302 361
#
# _framework density 19.84121
#
# number of rings (size 3 to 8) (size 9 to 14) (size 15 to 20)
#    0.000    1.333    3.333    3.000    0.000    0.000 
#    0.000    1.667    0.000    0.000    0.000    0.000 
#    0.000    0.000    0.000    0.000    0.000    0.000 
#
# Total GULP energy -595373.801751 kJ/mol
# GULP energy per Si atom -12403.620870 kJ/mol
# Density = 1.979605 g / cm^3
# Si number density = 19.841210 Si / 1000 Ang^3
#
#
#
# Elastic Constant Matrix: (Units=GPa)
#
#
# Indices 1 2 3 4 5 6 
#
# 1 33.6546 8.8645 20.9504 0.0000 0.0000 0.0000
# 2 8.8645 70.8203 22.0632 0.0000 0.0000 0.0000
# 3 20.9504 22.0632 125.5782 0.0000 0.0000 0.0000
# 4 0.0000 0.0000 0.0000 28.4421 0.0000 0.0000
# 5 0.0000 0.0000 0.0000 0.0000 19.0022 0.0000
# 6 0.0000 0.0000 0.0000 0.0000 0.0000 17.9622
#
#
#
# Elastic Compliance Matrix: (Units=1/GPa)
#
#
# Indices 1 2 3 4 5 6 
#
# 1 0.033604 -0.002602 -0.005149 0.000000 0.000000 0.000000
# 2 -0.002602 0.015139 -0.002226 0.000000 0.000000 0.000000
# 3 -0.005149 -0.002226 0.009213 0.000000 0.000000 0.000000
# 4 0.000000 0.000000 0.000000 0.035159 0.000000 0.000000
# 5 0.000000 0.000000 0.000000 0.000000 0.052625 0.000000
# 6 0.000000 0.000000 0.000000 0.000000 0.000000 0.055672
#
#
# Mechanical properties :
#
#
# Convention : Reuss Voigt Hill
#
# Bulk Modulus (GPa) = 26.31366 37.08991 31.70179
# Shear Modulus (GPa) = 21.36429 24.95965 23.16197
#
# Velocity S-wave (km/s) = 3.28497 3.55064 3.42038
# Velocity P-wave (km/s) = 5.26108 5.96182 5.62238
#
# Compressibility (1/GPa) = 0.03800307
#
# Stress axis : x y z
#
# Youngs Moduli (GPa) = 29.75806 66.05304 108.53938
#
# Poissons Ratio (x) = 0.17187 0.55888
# Poissons Ratio (y) = 0.07743 0.24158
# Poissons Ratio (z) = 0.15323 0.14702
#
# Static dielectric constant tensor:
#      x y z
#    x 3.466390 0.000000 0.000000 
#    y 0.000000 3.599470 0.000000 
#    z 0.000000 0.000000 3.629850 
# 
# 
# High freq. dielectric constant tensor:
#      x y z
#    x 1.765560 0.000000 0.000000 
#    y 0.000000 1.779800 0.000000 
#    z 0.000000 0.000000 1.784950 
# 
# From -- ./inp_files/22357.got.cif
#   From: 2010.03.12/outbox.cif.g09.slc.cpg/sg68_12_cif.got.tgz:22357.got - 2010.04.10 23:14:56.
