data_PCOD8282254
_publ_section_title
;
Structure prediction by ZEFSAII (Michael W. Deem and Ramdas Pophale) SiO2 
 PCOD8282254
Probable space group: C C C A
;
_chemical_formula_sum "Si O2"
_cell_formula_units_Z 76
_cell_length_a 19.213360
_cell_length_b 18.145014
_cell_length_c 11.168663
_cell_angle_alpha 90.000000
_cell_angle_beta 90.000000
_cell_angle_gamma 90.000000
_cell_volume 3893.693971
_symmetry_space_group_name_H-M "C C C A"
_symmetry_group_IT_number 68
_space_group.IT_coordinate_system_code '2'
_symmetry_cell_setting 'orthorhombic'
loop_
_space_group_symop_operation_xyz
x,y,z
-x,1/2-y,z
x,1/2-y,1/2-z
-x,y,1/2-z
-x,-y,-z
x,1/2+y,-z
-x,1/2+y,1/2+z
x,-y,1/2+z
1/2+x,1/2+y,z
1/2-x,-y,z
1/2+x,-y,1/2-z
1/2-x,1/2+y,1/2-z
1/2-x,1/2-y,-z
1/2+x,y,-z
1/2-x,y,1/2+z
1/2+x,1/2-y,1/2+z
loop_
_atom_site_type_symbol
_atom_site_label
_atom_site_fract_x
_atom_site_fract_y
_atom_site_fract_z
Si Si1 0.423317 0.848193 0.197943
Si Si2 0.457030 0.502408 0.874273
Si Si3 0.500000 0.750000 0.750000
Si Si4 0.720862 0.750000 0.750000
Si Si5 0.884563 0.653532 0.145564
Si Si6 0.653991 0.216947 0.598485
O O1 0.500000 0.835299 0.250000
O O2 0.369131 0.846689 0.308093
O O3 0.402272 0.783523 0.105969
O O4 0.416067 0.925460 0.129097
O O5 0.500000 0.509942 0.750000
O O6 0.400121 0.567371 0.871045
O O7 0.500000 0.500000 0.000000
O O8 0.543518 0.803414 0.836051
O O9 0.670838 0.823414 0.751214
O O10 0.768573 0.755773 0.631862
O O11 0.844738 0.683109 0.030618
#
# Coordination Sequence:
#
# PCOD8282254 Si02
#       6
#    16  16   4   8  16  16
#     4   9  19  34  56  88 115 150 199 243 295 362
#     4  11  23  37  56  91 127 155 190 249 318 362
#     4  10  24  32  56  94 110 154 186 248 316 364
#     4   9  22  39  55  86 111 160 208 238 295 358
#     4  11  21  37  59  83 126 150 196 252 308 358
#     4  10  20  37  62  81 112 159 209 242 288 363
#
# _framework density 19.518739
#
# number of rings (size 3 to 8) (size 9 to 14) (size 15 to 20)
#    0.000    2.105    1.053    4.421    5.895    0.000 
#    0.000    4.211    0.000    5.053    0.000    0.000 
#    0.000    0.000    0.000    0.000    0.000    0.000 
#
# Total GULP energy -470807.411741 kJ/mol
# GULP energy per Si atom -12389.668730 kJ/mol
# Density = 1.947431 g / cm^3
# Si number density = 19.518739 Si / 1000 Ang^3
#
#
#
# Elastic Constant Matrix: (Units=GPa)
#
#
# Indices 1 2 3 4 5 6 
#
# 1 102.0430 61.1600 24.2168 0.0000 0.0000 0.0000
# 2 61.1600 163.6105 40.4285 0.0000 0.0000 0.0000
# 3 24.2168 40.4285 86.6933 0.0000 0.0000 0.0000
# 4 0.0000 0.0000 0.0000 28.8898 0.0000 0.0000
# 5 0.0000 0.0000 0.0000 0.0000 20.4370 0.0000
# 6 0.0000 0.0000 0.0000 0.0000 0.0000 21.3972
#
#
#
# Elastic Compliance Matrix: (Units=1/GPa)
#
#
# Indices 1 2 3 4 5 6 
#
# 1 0.012804 -0.004411 -0.001520 0.000000 0.000000 0.000000
# 2 -0.004411 0.008428 -0.002698 0.000000 0.000000 0.000000
# 3 -0.001520 -0.002698 0.013218 0.000000 0.000000 0.000000
# 4 0.000000 0.000000 0.000000 0.034614 0.000000 0.000000
# 5 0.000000 0.000000 0.000000 0.000000 0.048931 0.000000
# 6 0.000000 0.000000 0.000000 0.000000 0.000000 0.046735
#
#
# Mechanical properties :
#
#
# Convention : Reuss Voigt Hill
#
# Bulk Modulus (GPa) = 58.16600 67.10638 62.63619
# Shear Modulus (GPa) = 26.63579 29.24757 27.94168
#
# Velocity S-wave (km/s) = 3.69809 3.87516 3.78766
# Velocity P-wave (km/s) = 6.93537 7.38090 7.16160
#
# Compressibility (1/GPa) = 0.01719217
#
# Stress axis : x y z
#
# Youngs Moduli (GPa) = 78.09995 118.65782 75.65651
#
# Poissons Ratio (x) = 0.52338 0.11498
# Poissons Ratio (y) = 0.34449 0.20412
# Poissons Ratio (z) = 0.11869 0.32014
#
# Static dielectric constant tensor:
#      x y z
#    x 3.581350 0.000000 0.000000 
#    y 0.000000 3.729420 0.000000 
#    z 0.000000 0.000000 3.638150 
# 
# 
# High freq. dielectric constant tensor:
#      x y z
#    x 1.754890 0.000000 0.000000 
#    y 0.000000 1.752900 0.000000 
#    z 0.000000 0.000000 1.762050 
# 
# From -- ./inp_files/15507.got.cif
#   From: 2010.03.12/outbox.cif.g09.slc.cpg/sg68_8_cif.got.tgz:15507.got - 2010.04.10 23:14:56.
