data_PCOD8282441
_publ_section_title
;
Structure prediction by ZEFSAII (Michael W. Deem and Ramdas Pophale) SiO2 
 PCOD8282441
Probable space group: C C C A
;
_chemical_formula_sum "Si O2"
_cell_formula_units_Z 44
_cell_length_a 12.548707
_cell_length_b 8.688045
_cell_length_c 12.862963
_cell_angle_alpha 90.000000
_cell_angle_beta 90.000000
_cell_angle_gamma 90.000000
_cell_volume 1402.368219
_symmetry_space_group_name_H-M "C C C A"
_symmetry_group_IT_number 68
_space_group.IT_coordinate_system_code '2'
_symmetry_cell_setting 'orthorhombic'
loop_
_space_group_symop_operation_xyz
x,y,z
-x,1/2-y,z
x,1/2-y,1/2-z
-x,y,1/2-z
-x,-y,-z
x,1/2+y,-z
-x,1/2+y,1/2+z
x,-y,1/2+z
1/2+x,1/2+y,z
1/2-x,-y,z
1/2+x,-y,1/2-z
1/2-x,1/2+y,1/2-z
1/2-x,1/2-y,-z
1/2+x,y,-z
1/2-x,y,1/2+z
1/2+x,1/2-y,1/2+z
loop_
_atom_site_type_symbol
_atom_site_label
_atom_site_fract_x
_atom_site_fract_y
_atom_site_fract_z
Si Si1 0.597872 0.532623 0.575741
Si Si2 0.363241 0.750000 0.750000
Si Si3 0.000000 0.250000 0.250000
Si Si4 0.823704 0.802374 0.611602
O O1 0.500000 0.500000 0.500000
O O2 0.566086 0.636812 0.676640
O O3 0.657248 0.382121 0.615667
O O4 0.681224 0.633591 0.505580
O O5 0.285242 0.653858 0.671404
O O6 0.927725 0.363154 0.323221
#
# Coordination Sequence:
#
# PCOD8282441 Si02
#       4
#    16   8   4  16
#     4  12  25  51  80 127 173 226 293 374 446 534
#     4  11  28  47  81 118 171 232 280 357 443 527
#     4  10  20  44  72 112 158 220 274 352 420 530
#     4  11  25  49  78 120 171 223 296 360 442 531
#
# _framework density 31.375495999999998
#
# number of rings (size 3 to 8) (size 9 to 14) (size 15 to 20)
#    0.000    0.727    3.636    2.182    0.000    8.727 
#    6.545    0.000    0.000    0.000    0.000    0.000 
#    0.000    0.000    0.000    0.000    0.000    0.000 
#
# Total GULP energy -272743.406909 kJ/mol
# GULP energy per Si atom -12397.427587 kJ/mol
# Density = 3.130408 g / cm^3
# Si number density = 31.375496 Si / 1000 Ang^3
#
#
#
# Elastic Constant Matrix: (Units=GPa)
#
#
# Indices 1 2 3 4 5 6 
#
# 1 133.9131 33.2397 57.8752 0.0000 0.0000 0.0000
# 2 33.2397 139.0838 80.9538 0.0000 0.0000 0.0000
# 3 57.8752 80.9538 256.3252 0.0000 0.0000 0.0000
# 4 0.0000 0.0000 0.0000 77.3567 0.0000 0.0000
# 5 0.0000 0.0000 0.0000 0.0000 67.9203 0.0000
# 6 0.0000 0.0000 0.0000 0.0000 0.0000 26.7923
#
#
#
# Elastic Compliance Matrix: (Units=1/GPa)
#
#
# Indices 1 2 3 4 5 6 
#
# 1 0.008412 -0.001109 -0.001549 0.000000 0.000000 0.000000
# 2 -0.001109 0.008955 -0.002578 0.000000 0.000000 0.000000
# 3 -0.001549 -0.002578 0.005065 0.000000 0.000000 0.000000
# 4 0.000000 0.000000 0.000000 0.012927 0.000000 0.000000
# 5 0.000000 0.000000 0.000000 0.000000 0.014723 0.000000
# 6 0.000000 0.000000 0.000000 0.000000 0.000000 0.037324
#
#
# Mechanical properties :
#
#
# Convention : Reuss Voigt Hill
#
# Bulk Modulus (GPa) = 83.60456 97.05105 90.32780
# Shear Modulus (GPa) = 49.08389 58.23074 53.65732
#
# Velocity S-wave (km/s) = 3.95954 4.31272 4.13990
# Velocity P-wave (km/s) = 6.89987 7.46985 7.19051
#
# Compressibility (1/GPa) = 0.01196107
#
# Stress axis : x y z
#
# Youngs Moduli (GPa) = 118.87372 111.66432 197.42216
#
# Poissons Ratio (x) = 0.12381 0.30585
# Poissons Ratio (y) = 0.13180 0.50895
# Poissons Ratio (z) = 0.18416 0.28787
#
# Static dielectric constant tensor:
#      x y z
#    x 6.286830 0.000000 0.000000 
#    y 0.000000 5.721260 0.000000 
#    z 0.000000 0.000000 6.696990 
# 
# 
# High freq. dielectric constant tensor:
#      x y z
#    x 2.308530 0.000000 0.000000 
#    y 0.000000 2.268650 0.000000 
#    z 0.000000 0.000000 2.334850 
# 
# From -- ./inp_files/21463.got.cif
#   From: 2010.03.12/outbox.cif.g09.slc.cpg/sg68_11_cif.got.tgz:21463.got - 2010.04.10 23:14:56.
