data_PCOD8282319
_publ_section_title
;
Structure prediction by ZEFSAII (Michael W. Deem and Ramdas Pophale) SiO2 
 PCOD8282319
Probable space group: C C C A
;
_chemical_formula_sum "Si O2"
_cell_formula_units_Z 104
_cell_length_a 31.712832
_cell_length_b 18.313343
_cell_length_c 8.551222
_cell_angle_alpha 90.000000
_cell_angle_beta 90.000000
_cell_angle_gamma 90.000000
_cell_volume 4966.275841
_symmetry_space_group_name_H-M "C C C A"
_symmetry_group_IT_number 68
_space_group.IT_coordinate_system_code '2'
_symmetry_cell_setting 'orthorhombic'
loop_
_space_group_symop_operation_xyz
x,y,z
-x,1/2-y,z
x,1/2-y,1/2-z
-x,y,1/2-z
-x,-y,-z
x,1/2+y,-z
-x,1/2+y,1/2+z
x,-y,1/2+z
1/2+x,1/2+y,z
1/2-x,-y,z
1/2+x,-y,1/2-z
1/2-x,1/2+y,1/2-z
1/2-x,1/2-y,-z
1/2+x,y,-z
1/2-x,y,1/2+z
1/2+x,1/2-y,1/2+z
loop_
_atom_site_type_symbol
_atom_site_label
_atom_site_fract_x
_atom_site_fract_y
_atom_site_fract_z
Si Si1 0.998829 0.336551 0.066680
Si Si2 0.190588 0.448432 0.332027
Si Si3 0.630472 0.182461 0.837293
Si Si4 0.921906 0.083341 0.121001
Si Si5 0.110574 0.542371 0.303853
Si Si6 0.579413 0.682372 0.865878
Si Si7 0.750000 0.000000 0.591554
O O1 0.000000 0.250000 0.045497
O O2 0.000000 0.358349 0.250000
O O3 0.038756 0.386045 0.015634
O O4 0.960151 0.357841 0.953187
O O5 0.167245 0.373717 0.366896
O O6 0.157173 0.509714 0.274412
O O7 0.213020 0.464139 0.494164
O O8 0.226931 0.439875 0.201217
O O9 0.651765 0.250000 0.750000
O O10 0.594029 0.151379 0.723490
O O11 0.609790 0.211780 0.997671
O O12 0.925681 0.014759 0.242159
O O13 0.890405 0.052341 0.990552
O O14 0.105267 0.620738 0.224467
O O15 0.566737 0.750000 0.750000
#
# Coordination Sequence:
#
# PCOD8282319 Si02
#       7
#    16  16  16  16  16  16   8
#     4  11  23  41  61  84 124 175 217 267 321 371
#     4  10  21  39  65  93 127 160 204 256 310 387
#     4  11  21  40  64  91 125 170 210 261 322 372
#     4  11  23  40  64  89 126 173 215 268 318 369
#     4  11  23  41  62  95 126 160 214 269 314 377
#     4  12  25  40  64  93 124 169 223 270 320 380
#     4  10  20  38  66  94 120 164 202 244 320 388
#
# _framework density 20.941244999999999
#
# number of rings (size 3 to 8) (size 9 to 14) (size 15 to 20)
#    0.000    1.077    1.538    7.385    0.000    2.769 
#    0.000    0.769    0.000    3.692    0.000    0.000 
#    0.000    0.000    0.000    0.000    0.000    0.000 
#
# Total GULP energy -644215.065297 kJ/mol
# GULP energy per Si atom -12388.751256 kJ/mol
# Density = 2.089358 g / cm^3
# Si number density = 20.941245 Si / 1000 Ang^3
#
#
#
# Elastic Constant Matrix: (Units=GPa)
#
#
# Indices 1 2 3 4 5 6 
#
# 1 99.8307 29.1323 39.1042 0.0000 0.0000 0.0000
# 2 29.1323 81.4243 36.6779 0.0000 0.0000 0.0000
# 3 39.1042 36.6779 126.7038 0.0000 0.0000 0.0000
# 4 0.0000 0.0000 0.0000 29.8912 0.0000 0.0000
# 5 0.0000 0.0000 0.0000 0.0000 35.5777 0.0000
# 6 0.0000 0.0000 0.0000 0.0000 0.0000 17.8713
#
#
#
# Elastic Compliance Matrix: (Units=1/GPa)
#
#
# Indices 1 2 3 4 5 6 
#
# 1 0.012008 -0.003021 -0.002831 0.000000 0.000000 0.000000
# 2 -0.003021 0.014883 -0.003376 0.000000 0.000000 0.000000
# 3 -0.002831 -0.003376 0.009744 0.000000 0.000000 0.000000
# 4 0.000000 0.000000 0.000000 0.033455 0.000000 0.000000
# 5 0.000000 0.000000 0.000000 0.000000 0.028108 0.000000
# 6 0.000000 0.000000 0.000000 0.000000 0.000000 0.055956
#
#
# Mechanical properties :
#
#
# Convention : Reuss Voigt Hill
#
# Bulk Modulus (GPa) = 55.01237 57.53196 56.27216
# Shear Modulus (GPa) = 27.98500 30.20432 29.09466
#
# Velocity S-wave (km/s) = 3.65959 3.80193 3.73144
# Velocity P-wave (km/s) = 6.64708 6.84146 6.74497
#
# Compressibility (1/GPa) = 0.01817773
#
# Stress axis : x y z
#
# Youngs Moduli (GPa) = 83.28107 67.19160 102.63201
#
# Poissons Ratio (x) = 0.20296 0.29060
# Poissons Ratio (y) = 0.25156 0.34648
# Poissons Ratio (z) = 0.23580 0.22684
#
# Static dielectric constant tensor:
#      x y z
#    x 3.781940 0.000000 0.000000 
#    y 0.000000 3.679400 0.000000 
#    z 0.000000 0.000000 4.073300 
# 
# 
# High freq. dielectric constant tensor:
#      x y z
#    x 1.802160 0.000000 0.000000 
#    y 0.000000 1.806480 0.000000 
#    z 0.000000 0.000000 1.847470 
# 
# From -- ./inp_files/9602.got.cif
#   From: 2010.03.12/outbox.cif.g09.slc.cpg/sg68_5_cif.got.tgz:9602.got - 2010.04.10 23:14:56.
