data_PCOD8282468
_publ_section_title
;
Structure prediction by ZEFSAII (Michael W. Deem and Ramdas Pophale) SiO2 
 PCOD8282468
Probable space group: C C C A
;
_chemical_formula_sum "Si O2"
_cell_formula_units_Z 88
_cell_length_a 14.008796
_cell_length_b 10.284592
_cell_length_c 28.225396
_cell_angle_alpha 90.000000
_cell_angle_beta 90.000000
_cell_angle_gamma 90.000000
_cell_volume 4066.566908
_symmetry_space_group_name_H-M "C C C A"
_symmetry_group_IT_number 68
_space_group.IT_coordinate_system_code '2'
_symmetry_cell_setting 'orthorhombic'
loop_
_space_group_symop_operation_xyz
x,y,z
-x,1/2-y,z
x,1/2-y,1/2-z
-x,y,1/2-z
-x,-y,-z
x,1/2+y,-z
-x,1/2+y,1/2+z
x,-y,1/2+z
1/2+x,1/2+y,z
1/2-x,-y,z
1/2+x,-y,1/2-z
1/2-x,1/2+y,1/2-z
1/2-x,1/2-y,-z
1/2+x,y,-z
1/2-x,y,1/2+z
1/2+x,1/2-y,1/2+z
loop_
_atom_site_type_symbol
_atom_site_label
_atom_site_fract_x
_atom_site_fract_y
_atom_site_fract_z
Si Si1 0.102263 0.607933 0.850678
Si Si2 0.828194 0.103350 0.250639
Si Si3 0.111349 0.101147 0.926590
Si Si4 0.614876 0.110207 0.646119
Si Si5 0.609939 0.106415 0.422577
Si Si6 0.250000 0.000000 0.502592
O O1 0.097148 0.589772 0.793765
O O2 0.158076 0.744219 0.862838
O O3 0.146467 0.487162 0.879723
O O4 0.994843 0.620219 0.867294
O O5 0.786497 0.250000 0.250000
O O6 0.872821 0.064740 0.200316
O O7 0.750000 0.000000 0.264734
O O8 0.118794 0.245457 0.904672
O O9 0.999400 0.074312 0.938431
O O10 0.156837 0.999967 0.888453
O O11 0.178010 0.090591 0.972665
O O12 0.681224 0.091212 0.466535
#
# Coordination Sequence:
#
# PCOD8282468 Si02
#       6
#    16  16  16  16  16   8
#     4   9  19  38  62  85 115 156 198 240 290 350
#     4  10  21  35  55  87 121 156 194 235 283 347
#     4  10  23  42  63  90 122 156 201 254 303 357
#     4   9  19  38  62  85 115 156 198 240 290 350
#     4  10  23  42  63  90 122 156 201 254 303 357
#     4  12  24  40  64  90 118 160 202 246 310 372
#
# _framework density 21.639876000000001
#
# number of rings (size 3 to 8) (size 9 to 14) (size 15 to 20)
#    0.000    2.182    0.000    1.636    2.545    6.545 
#    0.000    3.636    0.000    5.455    0.000    0.000 
#    0.000    0.000    0.000    0.000    0.000    0.000 
#
# Total GULP energy -545188.231220 kJ/mol
# GULP energy per Si atom -12390.641619 kJ/mol
# Density = 2.159062 g / cm^3
# Si number density = 21.639876 Si / 1000 Ang^3
#
#
#
# Elastic Constant Matrix: (Units=GPa)
#
#
# Indices 1 2 3 4 5 6 
#
# 1 66.5437 37.1818 33.3654 0.0000 0.0000 0.0000
# 2 37.1818 146.2193 73.3518 0.0000 0.0000 0.0000
# 3 33.3654 73.3518 134.6192 0.0000 0.0000 0.0000
# 4 0.0000 0.0000 0.0000 24.2461 0.0000 0.0000
# 5 0.0000 0.0000 0.0000 0.0000 28.3378 0.0000
# 6 0.0000 0.0000 0.0000 0.0000 0.0000 13.2835
#
#
#
# Elastic Compliance Matrix: (Units=1/GPa)
#
#
# Indices 1 2 3 4 5 6 
#
# 1 0.018223 -0.003259 -0.002741 0.000000 0.000000 0.000000
# 2 -0.003259 0.009994 -0.004638 0.000000 0.000000 0.000000
# 3 -0.002741 -0.004638 0.010635 0.000000 0.000000 0.000000
# 4 0.000000 0.000000 0.000000 0.041244 0.000000 0.000000
# 5 0.000000 0.000000 0.000000 0.000000 0.035289 0.000000
# 6 0.000000 0.000000 0.000000 0.000000 0.000000 0.075281
#
#
# Mechanical properties :
#
#
# Convention : Reuss Voigt Hill
#
# Bulk Modulus (GPa) = 56.89377 70.57557 63.73467
# Shear Modulus (GPa) = 22.95680 26.73904 24.84792
#
# Velocity S-wave (km/s) = 3.26061 3.51898 3.39226
# Velocity P-wave (km/s) = 6.36582 7.01394 6.69773
#
# Compressibility (1/GPa) = 0.01757662
#
# Stress axis : x y z
#
# Youngs Moduli (GPa) = 54.87596 100.05529 94.03004
#
# Poissons Ratio (x) = 0.32607 0.25772
# Poissons Ratio (y) = 0.17884 0.43612
# Poissons Ratio (z) = 0.15041 0.46407
#
# Static dielectric constant tensor:
#      x y z
#    x 3.774900 0.000000 0.000000 
#    y 0.000000 4.145190 0.000000 
#    z 0.000000 0.000000 3.806200 
# 
# 
# High freq. dielectric constant tensor:
#      x y z
#    x 1.842460 0.000000 0.000000 
#    y 0.000000 1.857130 0.000000 
#    z 0.000000 0.000000 1.842210 
# 
# From -- ./inp_files/50877.got.cif
#   From: 2010.03.12/outbox.cif.g09.slc.cpg/sg68_26_cif.got.tgz:50877.got - 2010.04.10 23:14:56.
