data_PCOD8282233
_publ_section_title
;
Structure prediction by ZEFSAII (Michael W. Deem and Ramdas Pophale) SiO2 
 PCOD8282233
Probable space group: C C C A
;
_chemical_formula_sum "Si O2"
_cell_formula_units_Z 80
_cell_length_a 27.425653
_cell_length_b 15.041316
_cell_length_c 9.749673
_cell_angle_alpha 90.000000
_cell_angle_beta 90.000000
_cell_angle_gamma 90.000000
_cell_volume 4021.914761
_symmetry_space_group_name_H-M "C C C A"
_symmetry_group_IT_number 68
_space_group.IT_coordinate_system_code '2'
_symmetry_cell_setting 'orthorhombic'
loop_
_space_group_symop_operation_xyz
x,y,z
-x,1/2-y,z
x,1/2-y,1/2-z
-x,y,1/2-z
-x,-y,-z
x,1/2+y,-z
-x,1/2+y,1/2+z
x,-y,1/2+z
1/2+x,1/2+y,z
1/2-x,-y,z
1/2+x,-y,1/2-z
1/2-x,1/2+y,1/2-z
1/2-x,1/2-y,-z
1/2+x,y,-z
1/2-x,y,1/2+z
1/2+x,1/2-y,1/2+z
loop_
_atom_site_type_symbol
_atom_site_label
_atom_site_fract_x
_atom_site_fract_y
_atom_site_fract_z
Si Si1 0.612881 0.406622 0.037388
Si Si2 0.554981 0.738774 0.911672
Si Si3 0.228216 0.406391 0.962933
Si Si4 0.392433 0.069634 0.350333
Si Si5 0.709437 0.656677 0.814556
O O1 0.588234 0.310977 0.009089
O O2 0.670544 0.396282 0.024066
O O3 0.595806 0.439646 0.188385
O O4 0.596219 0.475799 0.921662
O O5 0.500000 0.750000 0.965706
O O6 0.559022 0.750000 0.750000
O O7 0.574310 0.639087 0.935942
O O8 0.250000 0.500000 0.013580
O O9 0.240976 0.392641 0.803327
O O10 0.254025 0.331483 0.057432
O O11 0.336522 0.099965 0.365847
O O12 0.690822 0.750000 0.750000
#
# Coordination Sequence:
#
# PCOD8282233 Si02
#       5
#    16  16  16  16  16
#     4  10  21  36  59  84 115 152 188 235 285 338
#     4   9  19  38  61  83 109 146 192 239 287 343
#     4  11  21  35  54  79 116 152 189 227 277 333
#     4  10  20  37  58  84 114 147 191 234 281 342
#     4  11  22  35  54  81 114 152 192 231 274 332
#
# _framework density 19.891024000000002
#
# number of rings (size 3 to 8) (size 9 to 14) (size 15 to 20)
#    0.000    1.800    2.000    4.200    2.800    0.800 
#    0.000    1.000    0.000    1.200    0.000    0.000 
#    0.000    0.000    0.000    0.000    0.000    0.000 
#
# Total GULP energy -495839.875715 kJ/mol
# GULP energy per Si atom -12395.996893 kJ/mol
# Density = 1.984575 g / cm^3
# Si number density = 19.891024 Si / 1000 Ang^3
#
#
#
# Elastic Constant Matrix: (Units=GPa)
#
#
# Indices 1 2 3 4 5 6 
#
# 1 85.6917 15.7110 27.5780 0.0000 0.0000 0.0000
# 2 15.7110 63.9683 14.8091 0.0000 0.0000 0.0000
# 3 27.5780 14.8091 57.1847 0.0000 0.0000 0.0000
# 4 0.0000 0.0000 0.0000 37.6919 0.0000 0.0000
# 5 0.0000 0.0000 0.0000 0.0000 8.9968 0.0000
# 6 0.0000 0.0000 0.0000 0.0000 0.0000 24.4889
#
#
#
# Elastic Compliance Matrix: (Units=1/GPa)
#
#
# Indices 1 2 3 4 5 6 
#
# 1 0.014051 -0.002002 -0.006258 0.000000 0.000000 0.000000
# 2 -0.002002 0.016915 -0.003415 0.000000 0.000000 0.000000
# 3 -0.006258 -0.003415 0.021389 0.000000 0.000000 0.000000
# 4 0.000000 0.000000 0.000000 0.026531 0.000000 0.000000
# 5 0.000000 0.000000 0.000000 0.000000 0.111150 0.000000
# 6 0.000000 0.000000 0.000000 0.000000 0.000000 0.040835
#
#
# Mechanical properties :
#
#
# Convention : Reuss Voigt Hill
#
# Bulk Modulus (GPa) = 34.47600 35.89341 35.18471
# Shear Modulus (GPa) = 18.94734 24.15197 21.54966
#
# Velocity S-wave (km/s) = 3.08970 3.48834 3.29505
# Velocity P-wave (km/s) = 5.48620 5.85738 5.67483
#
# Compressibility (1/GPa) = 0.02900568
#
# Stress axis : x y z
#
# Youngs Moduli (GPa) = 71.17073 59.11886 46.75224
#
# Poissons Ratio (x) = 0.11837 0.29256
# Poissons Ratio (y) = 0.14250 0.15965
# Poissons Ratio (z) = 0.44536 0.20188
#
# Static dielectric constant tensor:
#      x y z
#    x 3.502760 0.000000 0.000000 
#    y 0.000000 3.774100 0.000000 
#    z 0.000000 0.000000 3.627910 
# 
# 
# High freq. dielectric constant tensor:
#      x y z
#    x 1.763700 0.000000 0.000000 
#    y 0.000000 1.780900 0.000000 
#    z 0.000000 0.000000 1.755110 
# 
# From -- ./inp_files/16241.got.cif
#   From: 2010.03.12/outbox.cif.g09.slc.cpg/sg68_9_cif.got.tgz:16241.got - 2010.04.10 23:14:56.
