data_PCOD8282849
_publ_section_title
;
Structure prediction by ZEFSAII (Michael W. Deem and Ramdas Pophale) SiO2 
 PCOD8282849
Probable space group: C C C A
;
_chemical_formula_sum "Si O2"
_cell_formula_units_Z 80
_cell_length_a 14.381514
_cell_length_b 19.189315
_cell_length_c 12.337650
_cell_angle_alpha 90.000000
_cell_angle_beta 90.000000
_cell_angle_gamma 90.000000
_cell_volume 3404.838572
_symmetry_space_group_name_H-M "C C C A"
_symmetry_group_IT_number 68
_space_group.IT_coordinate_system_code '2'
_symmetry_cell_setting 'orthorhombic'
loop_
_space_group_symop_operation_xyz
x,y,z
-x,1/2-y,z
x,1/2-y,1/2-z
-x,y,1/2-z
-x,-y,-z
x,1/2+y,-z
-x,1/2+y,1/2+z
x,-y,1/2+z
1/2+x,1/2+y,z
1/2-x,-y,z
1/2+x,-y,1/2-z
1/2-x,1/2+y,1/2-z
1/2-x,1/2-y,-z
1/2+x,y,-z
1/2-x,y,1/2+z
1/2+x,1/2-y,1/2+z
loop_
_atom_site_type_symbol
_atom_site_label
_atom_site_fract_x
_atom_site_fract_y
_atom_site_fract_z
Si Si1 0.813095 0.250000 0.750000
Si Si2 0.398937 0.451426 0.223903
Si Si3 0.500000 0.084134 0.750000
Si Si4 0.960186 0.325359 0.047880
Si Si5 0.375546 0.864577 0.589980
Si Si6 0.784922 0.646052 0.422488
O O1 0.873484 0.295240 0.665195
O O2 0.753296 0.196442 0.676921
O O3 0.500000 0.414665 0.250000
O O4 0.415240 0.534287 0.206602
O O5 0.347960 0.432130 0.337384
O O6 0.338910 0.422344 0.123274
O O7 0.544056 0.130635 0.842760
O O8 0.000000 0.250000 0.075247
O O9 0.856106 0.314990 0.003251
O O10 0.020968 0.367052 0.959395
O O11 0.307150 0.869598 0.487960
#
# Coordination Sequence:
#
# PCOD8282849 Si02
#       6
#     8  16   8  16  16  16
#     4  10  22  39  64  99 150 170 224 285 354 397
#     4   9  21  45  73  92 135 188 230 275 339 406
#     4  10  25  46  66  97 142 188 226 296 332 407
#     4  12  24  42  69 101 137 184 231 280 355 406
#     4  11  23  41  71 108 135 180 232 288 340 415
#     4  11  23  41  71 108 135 180 232 288 340 415
#
# _framework density 23.495974
#
# number of rings (size 3 to 8) (size 9 to 14) (size 15 to 20)
#    0.600    0.800    4.000    0.900    0.000    7.200 
#    0.000    6.000    0.000    0.000    0.000    0.000 
#    0.000    0.000    0.000    0.000    0.000    0.000 
#
# Total GULP energy -495618.017641 kJ/mol
# GULP energy per Si atom -12390.450441 kJ/mol
# Density = 2.344250 g / cm^3
# Si number density = 23.495974 Si / 1000 Ang^3
#
#
#
# Elastic Constant Matrix: (Units=GPa)
#
#
# Indices 1 2 3 4 5 6 
#
# 1 53.1438 -7.5067 14.2914 0.0000 0.0000 0.0000
# 2 -7.5067 93.9410 29.0128 0.0000 0.0000 0.0000
# 3 14.2914 29.0128 113.5419 0.0000 0.0000 0.0000
# 4 0.0000 0.0000 0.0000 24.2091 0.0000 0.0000
# 5 0.0000 0.0000 0.0000 0.0000 32.1572 0.0000
# 6 0.0000 0.0000 0.0000 0.0000 0.0000 14.0655
#
#
#
# Elastic Compliance Matrix: (Units=1/GPa)
#
#
# Indices 1 2 3 4 5 6 
#
# 1 0.020038 0.002584 -0.003182 0.000000 0.000000 0.000000
# 2 0.002584 0.011890 -0.003364 0.000000 0.000000 0.000000
# 3 -0.003182 -0.003364 0.010067 0.000000 0.000000 0.000000
# 4 0.000000 0.000000 0.000000 0.041307 0.000000 0.000000
# 5 0.000000 0.000000 0.000000 0.000000 0.031097 0.000000
# 6 0.000000 0.000000 0.000000 0.000000 0.000000 0.071096
#
#
# Mechanical properties :
#
#
# Convention : Reuss Voigt Hill
#
# Bulk Modulus (GPa) = 29.35001 36.91353 33.13177
# Shear Modulus (GPa) = 24.41691 29.07497 26.74594
#
# Velocity S-wave (km/s) = 3.22715 3.52155 3.37756
# Velocity P-wave (km/s) = 5.13854 5.68153 5.41684
#
# Compressibility (1/GPa) = 0.03407154
#
# Stress axis : x y z
#
# Youngs Moduli (GPa) = 49.90596 84.10241 99.33100
#
# Poissons Ratio (x) = -0.21733 0.31611
# Poissons Ratio (y) = -0.12896 0.33410
# Poissons Ratio (z) = 0.15882 0.28288
#
# Static dielectric constant tensor:
#      x y z
#    x 4.015090 0.000000 0.000000 
#    y 0.000000 4.040690 0.000000 
#    z 0.000000 0.000000 4.409850 
# 
# 
# High freq. dielectric constant tensor:
#      x y z
#    x 1.905740 0.000000 0.000000 
#    y 0.000000 1.917590 0.000000 
#    z 0.000000 0.000000 1.946530 
# 
# From -- ./inp_files/13269.got.cif
#   From: 2010.03.12/outbox.cif.g09.slc.cpg/sg68_7_cif.got.tgz:13269.got - 2010.04.10 23:14:56.
