data_PCOD8282759
_publ_section_title
;
Structure prediction by ZEFSAII (Michael W. Deem and Ramdas Pophale) SiO2 
 PCOD8282759
Probable space group: C C C A
;
_chemical_formula_sum "Si O2"
_cell_formula_units_Z 104
_cell_length_a 17.941119
_cell_length_b 26.301973
_cell_length_c 10.081779
_cell_angle_alpha 90.000000
_cell_angle_beta 90.000000
_cell_angle_gamma 90.000000
_cell_volume 4757.458708
_symmetry_space_group_name_H-M "C C C A"
_symmetry_group_IT_number 68
_space_group.IT_coordinate_system_code '2'
_symmetry_cell_setting 'orthorhombic'
loop_
_space_group_symop_operation_xyz
x,y,z
-x,1/2-y,z
x,1/2-y,1/2-z
-x,y,1/2-z
-x,-y,-z
x,1/2+y,-z
-x,1/2+y,1/2+z
x,-y,1/2+z
1/2+x,1/2+y,z
1/2-x,-y,z
1/2+x,-y,1/2-z
1/2-x,1/2+y,1/2-z
1/2-x,1/2-y,-z
1/2+x,y,-z
1/2-x,y,1/2+z
1/2+x,1/2-y,1/2+z
loop_
_atom_site_type_symbol
_atom_site_label
_atom_site_fract_x
_atom_site_fract_y
_atom_site_fract_z
Si Si1 0.555900 0.451070 0.370991
Si Si2 0.737495 0.829362 0.877440
Si Si3 0.832303 0.250000 0.250000
Si Si4 0.976474 0.807866 0.111579
Si Si5 0.104140 0.666834 0.565034
Si Si6 0.830131 0.636130 0.388582
Si Si7 0.954338 0.935024 0.619000
O O1 0.500000 0.443973 0.250000
O O2 0.629257 0.416712 0.356224
O O3 0.512991 0.432496 0.500004
O O4 0.583904 0.509362 0.379423
O O5 0.780087 0.775646 0.861856
O O6 0.727931 0.853089 0.730713
O O7 0.657162 0.819331 0.941989
O O8 0.783395 0.866911 0.974860
O O9 0.883421 0.293798 0.315040
O O10 0.888469 0.817182 0.094156
O O11 0.000000 0.750000 0.120546
O O12 0.000000 0.835300 0.250000
O O13 0.018936 0.830447 0.984872
O O14 0.111099 0.607639 0.609409
O O15 0.000000 0.923495 0.750000
#
# Coordination Sequence:
#
# PCOD8282759 Si02
#       7
#    16  16   8  16  16  16  16
#     4  10  21  44  73 105 132 174 225 290 353 412
#     4  12  27  44  69  96 141 191 228 275 342 421
#     4  12  28  44  67  97 148 192 226 278 352 423
#     4  11  23  38  68 101 129 169 234 295 328 398
#     4  12  24  44  68 101 136 181 230 286 346 406
#     4  12  24  45  71 101 137 182 237 279 347 415
#     4  10  23  40  72 106 138 168 222 295 360 401
#
# _framework density 21.860410000000002
#
# number of rings (size 3 to 8) (size 9 to 14) (size 15 to 20)
#    0.000    0.769    4.615    2.769    4.308    1.231 
#    0.000    1.538    3.385    0.000    0.000    0.000 
#    0.000    0.000    0.000    0.000    0.000    0.000 
#
# Total GULP energy -644774.957377 kJ/mol
# GULP energy per Si atom -12399.518411 kJ/mol
# Density = 2.181065 g / cm^3
# Si number density = 21.860410 Si / 1000 Ang^3
#
#
#
# Elastic Constant Matrix: (Units=GPa)
#
#
# Indices 1 2 3 4 5 6 
#
# 1 92.0121 47.9281 53.8908 0.0000 0.0000 0.0000
# 2 47.9281 166.4674 49.0486 0.0000 0.0000 0.0000
# 3 53.8908 49.0486 139.6462 0.0000 0.0000 0.0000
# 4 0.0000 0.0000 0.0000 27.6011 0.0000 0.0000
# 5 0.0000 0.0000 0.0000 0.0000 30.1668 0.0000
# 6 0.0000 0.0000 0.0000 0.0000 0.0000 35.1144
#
#
#
# Elastic Compliance Matrix: (Units=1/GPa)
#
#
# Indices 1 2 3 4 5 6 
#
# 1 0.015249 -0.002963 -0.004844 0.000000 0.000000 0.000000
# 2 -0.002963 0.007276 -0.001412 0.000000 0.000000 0.000000
# 3 -0.004844 -0.001412 0.009526 0.000000 0.000000 0.000000
# 4 0.000000 0.000000 0.000000 0.036230 0.000000 0.000000
# 5 0.000000 0.000000 0.000000 0.000000 0.033149 0.000000
# 6 0.000000 0.000000 0.000000 0.000000 0.000000 0.028478
#
#
# Mechanical properties :
#
#
# Convention : Reuss Voigt Hill
#
# Bulk Modulus (GPa) = 73.45951 77.76229 75.61090
# Shear Modulus (GPa) = 32.70434 35.06035 33.88234
#
# Velocity S-wave (km/s) = 3.87208 4.00913 3.94120
# Velocity P-wave (km/s) = 7.32581 7.55515 7.44136
#
# Compressibility (1/GPa) = 0.01361294
#
# Stress axis : x y z
#
# Youngs Moduli (GPa) = 65.57999 137.43067 104.97297
#
# Poissons Ratio (x) = 0.40721 0.50847
# Poissons Ratio (y) = 0.19432 0.14825
# Poissons Ratio (z) = 0.31766 0.19409
#
# Static dielectric constant tensor:
#      x y z
#    x 3.745260 0.000000 0.000000 
#    y 0.000000 4.182100 0.000000 
#    z 0.000000 0.000000 4.175770 
# 
# 
# High freq. dielectric constant tensor:
#      x y z
#    x 1.841320 0.000000 0.000000 
#    y 0.000000 1.861600 0.000000 
#    z 0.000000 0.000000 1.876680 
# 
# From -- ./inp_files/14776.got.cif
#   From: 2010.03.12/outbox.cif.g09.slc.cpg/sg68_8_cif.got.tgz:14776.got - 2010.04.10 23:14:56.
