data_PCOD8282099
_publ_section_title
;
Structure prediction by ZEFSAII (Michael W. Deem and Ramdas Pophale) SiO2 
 PCOD8282099
Probable space group: C C C A
;
_chemical_formula_sum "Si O2"
_cell_formula_units_Z 80
_cell_length_a 9.285913
_cell_length_b 15.342946
_cell_length_c 28.469427
_cell_angle_alpha 90.000000
_cell_angle_beta 90.000000
_cell_angle_gamma 90.000000
_cell_volume 4056.132124
_symmetry_space_group_name_H-M "C C C A"
_symmetry_group_IT_number 68
_space_group.IT_coordinate_system_code '2'
_symmetry_cell_setting 'orthorhombic'
loop_
_space_group_symop_operation_xyz
x,y,z
-x,1/2-y,z
x,1/2-y,1/2-z
-x,y,1/2-z
-x,-y,-z
x,1/2+y,-z
-x,1/2+y,1/2+z
x,-y,1/2+z
1/2+x,1/2+y,z
1/2-x,-y,z
1/2+x,-y,1/2-z
1/2-x,1/2+y,1/2-z
1/2-x,1/2-y,-z
1/2+x,y,-z
1/2-x,y,1/2+z
1/2+x,1/2-y,1/2+z
loop_
_atom_site_type_symbol
_atom_site_label
_atom_site_fract_x
_atom_site_fract_y
_atom_site_fract_z
Si Si1 0.406090 0.836778 0.035813
Si Si2 0.674653 0.586146 0.359408
Si Si3 0.328767 0.753481 0.197042
Si Si4 0.338510 0.089398 0.633652
Si Si5 0.197076 0.908026 0.967579
O O1 0.500000 0.750000 0.045041
O O2 0.323253 0.864702 0.083010
O O3 0.527691 0.906309 0.020963
O O4 0.287354 0.831972 0.994387
O O5 0.750000 0.500000 0.338865
O O6 0.729980 0.668602 0.329841
O O7 0.504697 0.569604 0.355809
O O8 0.726278 0.603762 0.412475
O O9 0.500000 0.750000 0.195828
O O10 0.268835 0.750000 0.250000
O O11 0.275746 0.842561 0.172053
O O12 0.250000 0.000000 0.635884
O O13 0.250000 0.000000 0.987459
#
# Coordination Sequence:
#
# PCOD8282099 Si02
#       5
#    16  16  16  16  16
#     4  11  21  34  52  76 107 141 180 219 258 309
#     4   9  19  36  55  79 108 138 174 220 267 311
#     4   9  18  35  58  80 104 137 176 215 262 322
#     4  10  20  35  55  79 106 139 177 216 261 315
#     4  10  20  34  51  75 106 140 176 217 262 310
#
# _framework density 19.723223999999998
#
# number of rings (size 3 to 8) (size 9 to 14) (size 15 to 20)
#    0.000    2.200    0.000    4.800    0.000    4.000 
#    0.000    1.000    0.000    1.200    0.000    0.000 
#    0.000    0.000    0.000    0.000    0.000    0.000 
#
# Total GULP energy -495890.479357 kJ/mol
# GULP energy per Si atom -12397.261984 kJ/mol
# Density = 1.967833 g / cm^3
# Si number density = 19.723224 Si / 1000 Ang^3
#
#
#
# Elastic Constant Matrix: (Units=GPa)
#
#
# Indices 1 2 3 4 5 6 
#
# 1 40.8419 33.9796 43.7522 0.0000 0.0000 0.0000
# 2 33.9796 152.2491 73.2174 0.0000 0.0000 0.0000
# 3 43.7522 73.2174 128.2962 0.0000 0.0000 0.0000
# 4 0.0000 0.0000 0.0000 27.1361 0.0000 0.0000
# 5 0.0000 0.0000 0.0000 0.0000 18.3198 0.0000
# 6 0.0000 0.0000 0.0000 0.0000 0.0000 35.8196
#
#
#
# Elastic Compliance Matrix: (Units=1/GPa)
#
#
# Indices 1 2 3 4 5 6 
#
# 1 0.039704 -0.003239 -0.011692 0.000000 0.000000 0.000000
# 2 -0.003239 0.009317 -0.004213 0.000000 0.000000 0.000000
# 3 -0.011692 -0.004213 0.014186 0.000000 0.000000 0.000000
# 4 0.000000 0.000000 0.000000 0.036851 0.000000 0.000000
# 5 0.000000 0.000000 0.000000 0.000000 0.054586 0.000000
# 6 0.000000 0.000000 0.000000 0.000000 0.000000 0.027918
#
#
# Mechanical properties :
#
#
# Convention : Reuss Voigt Hill
#
# Bulk Modulus (GPa) = 40.12746 69.25395 54.69071
# Shear Modulus (GPa) = 21.81936 27.61766 24.71851
#
# Velocity S-wave (km/s) = 3.32968 3.74607 3.54399
# Velocity P-wave (km/s) = 5.93059 7.34165 6.67352
#
# Compressibility (1/GPa) = 0.02492059
#
# Stress axis : x y z
#
# Youngs Moduli (GPa) = 25.18629 107.33246 70.49333
#
# Poissons Ratio (x) = 0.34762 0.82420
# Poissons Ratio (y) = 0.08157 0.29696
# Poissons Ratio (z) = 0.29447 0.45214
#
# Static dielectric constant tensor:
#      x y z
#    x 3.523300 0.000000 0.000000 
#    y 0.000000 3.795340 0.000000 
#    z 0.000000 0.000000 3.601350 
# 
# 
# High freq. dielectric constant tensor:
#      x y z
#    x 1.741440 0.000000 0.000000 
#    y 0.000000 1.783680 0.000000 
#    z 0.000000 0.000000 1.761180 
# 
# From -- ./inp_files/44076.got.cif
#   From: 2010.03.12/outbox.cif.g09.slc.cpg/sg68_23_cif.got.tgz:44076.got - 2010.04.10 23:14:56.
