data_PCOD8282985
_publ_section_title
;
Structure prediction by ZEFSAII (Michael W. Deem and Ramdas Pophale) SiO2 
 PCOD8282985
Probable space group: C C C A
;
_chemical_formula_sum "Si O2"
_cell_formula_units_Z 48
_cell_length_a 4.993104
_cell_length_b 14.270821
_cell_length_c 31.182157
_cell_angle_alpha 90.000000
_cell_angle_beta 90.000000
_cell_angle_gamma 90.000000
_cell_volume 2221.906219
_symmetry_space_group_name_H-M "C C C A"
_symmetry_group_IT_number 68
_space_group.IT_coordinate_system_code '2'
_symmetry_cell_setting 'orthorhombic'
loop_
_space_group_symop_operation_xyz
x,y,z
-x,1/2-y,z
x,1/2-y,1/2-z
-x,y,1/2-z
-x,-y,-z
x,1/2+y,-z
-x,1/2+y,1/2+z
x,-y,1/2+z
1/2+x,1/2+y,z
1/2-x,-y,z
1/2+x,-y,1/2-z
1/2-x,1/2+y,1/2-z
1/2-x,1/2-y,-z
1/2+x,y,-z
1/2-x,y,1/2+z
1/2+x,1/2-y,1/2+z
loop_
_atom_site_type_symbol
_atom_site_label
_atom_site_fract_x
_atom_site_fract_y
_atom_site_fract_z
Si Si1 0.239190 0.185912 0.913800
Si Si2 0.750000 0.500000 0.469547
Si Si3 0.243711 0.688238 0.182222
Si Si4 0.500000 0.553266 0.250000
O O1 0.500000 0.250000 0.916861
O O2 0.265849 0.092244 0.940793
O O3 0.168034 0.151696 0.865216
O O4 0.000000 0.250000 0.932025
O O5 0.500000 0.500000 0.500000
O O6 0.500000 0.750000 0.176374
O O7 0.325626 0.607021 0.214597
O O8 0.000000 0.750000 0.201758
O O9 0.250000 0.500000 0.273480
#
# Coordination Sequence:
#
# PCOD8282985 Si02
#       4
#    16   8  16   8
#     4  10  23  44  68  97 131 177 220 269 328 398
#     4  12  26  42  68 104 132 170 214 274 340 400
#     4  10  22  43  66  88 128 180 221 263 328 395
#     4  12  25  38  61 104 132 168 220 284 333 384
#
# _framework density 21.603072000000001
#
# number of rings (size 3 to 8) (size 9 to 14) (size 15 to 20)
#    0.000    1.333    0.000    4.500    2.333    5.333 
#    3.000    0.000    0.000    0.000    0.000    0.000 
#    0.000    0.000    0.000    0.000    0.000    0.000 
#
# Total GULP energy -297425.000580 kJ/mol
# GULP energy per Si atom -12392.708358 kJ/mol
# Density = 2.155390 g / cm^3
# Si number density = 21.603072 Si / 1000 Ang^3
#
#
#
# Elastic Constant Matrix: (Units=GPa)
#
#
# Indices 1 2 3 4 5 6 
#
# 1 184.6903 73.5519 57.5219 0.0000 0.0000 0.0000
# 2 73.5519 155.7106 88.3577 0.0000 0.0000 0.0000
# 3 57.5219 88.3577 113.2664 0.0000 0.0000 0.0000
# 4 0.0000 0.0000 0.0000 27.4308 0.0000 0.0000
# 5 0.0000 0.0000 0.0000 0.0000 1881.4436 0.0000
# 6 0.0000 0.0000 0.0000 0.0000 0.0000 46.1514
#
#
#
# Elastic Compliance Matrix: (Units=1/GPa)
#
#
# Indices 1 2 3 4 5 6 
#
# 1 0.006849 -0.002264 -0.001713 0.000000 0.000000 0.000000
# 2 -0.002264 0.012271 -0.008423 0.000000 0.000000 0.000000
# 3 -0.001713 -0.008423 0.016269 0.000000 0.000000 0.000000
# 4 0.000000 0.000000 0.000000 0.036455 0.000000 0.000000
# 5 0.000000 0.000000 0.000000 0.000000 0.000532 0.000000
# 6 0.000000 0.000000 0.000000 0.000000 0.000000 0.021668
#
#
# Mechanical properties :
#
#
# Convention : Reuss Voigt Hill
#
# Bulk Modulus (GPa) = 94.41775 99.17002 96.79388
# Shear Modulus (GPa) = 40.85887 406.62089 223.73988
#
# Velocity S-wave (km/s) = 4.35368 13.73435 10.18790
# Velocity P-wave (km/s) = 8.31103 17.24862 13.53861
#
# Compressibility (1/GPa) = 0.01059123
#
# Stress axis : x y z
#
# Youngs Moduli (GPa) = 146.00015 81.49356 61.46633
#
# Poissons Ratio (x) = 0.18446 0.10527
# Poissons Ratio (y) = 0.33047 0.51772
# Poissons Ratio (z) = 0.25005 0.68641
#
# Static dielectric constant tensor:
#      x y z
#    x 4.432960 0.000000 0.000000 
#    y 0.000000 3.844300 0.000000 
#    z 0.000000 0.000000 4.367020 
# 
# 
# High freq. dielectric constant tensor:
#      x y z
#    x 1.879580 0.000000 0.000000 
#    y 0.000000 1.846890 0.000000 
#    z 0.000000 0.000000 1.849440 
# 
# From -- ./inp_files/47879.got.cif
#   From: 2010.03.12/outbox.cif.g09.slc.cpg/sg68_24_cif.got.tgz:47879.got - 2010.04.10 23:14:56.
