data_PCOD8282734
_publ_section_title
;
Structure prediction by ZEFSAII (Michael W. Deem and Ramdas Pophale) SiO2 
 PCOD8282734
Probable space group: C C C A
;
_chemical_formula_sum "Si O2"
_cell_formula_units_Z 76
_cell_length_a 28.172186
_cell_length_b 8.093455
_cell_length_c 16.049621
_cell_angle_alpha 90.000000
_cell_angle_beta 90.000000
_cell_angle_gamma 90.000000
_cell_volume 3659.479214
_symmetry_space_group_name_H-M "C C C A"
_symmetry_group_IT_number 68
_space_group.IT_coordinate_system_code '2'
_symmetry_cell_setting 'orthorhombic'
loop_
_space_group_symop_operation_xyz
x,y,z
-x,1/2-y,z
x,1/2-y,1/2-z
-x,y,1/2-z
-x,-y,-z
x,1/2+y,-z
-x,1/2+y,1/2+z
x,-y,1/2+z
1/2+x,1/2+y,z
1/2-x,-y,z
1/2+x,-y,1/2-z
1/2-x,1/2+y,1/2-z
1/2-x,1/2-y,-z
1/2+x,y,-z
1/2-x,y,1/2+z
1/2+x,1/2-y,1/2+z
loop_
_atom_site_type_symbol
_atom_site_label
_atom_site_fract_x
_atom_site_fract_y
_atom_site_fract_z
Si Si1 0.712620 0.250000 0.250000
Si Si2 0.000000 0.750000 0.025312
Si Si3 0.750000 0.500000 0.869357
Si Si4 0.697791 0.827876 0.506731
Si Si5 0.844425 0.560124 0.115741
Si Si6 0.451140 0.448822 0.891257
Si Si7 0.000000 0.250000 0.250000
O O1 0.749074 0.336527 0.313114
O O2 0.679066 0.382971 0.202902
O O3 0.983467 0.604865 0.085792
O O4 0.043319 0.685361 0.966150
O O5 0.703275 0.513842 0.929231
O O6 0.750000 0.750000 0.500000
O O7 0.659497 0.704943 0.546919
O O8 0.681985 0.895149 0.417140
O O9 0.898668 0.512984 0.125939
O O10 0.467268 0.368031 0.805269
#
# Coordination Sequence:
#
# PCOD8282734 Si02
#       7
#     8   8   8  16  16  16   4
#     4  10  26  36  55  89 122 158 202 252 310 366
#     4   9  20  40  70  91 120 164 206 259 322 380
#     4  10  22  38  56  80 116 160 206 240 304 360
#     4  11  21  39  62  84 114 164 210 252 301 353
#     4  11  23  39  61  92 120 156 213 258 297 369
#     4  10  21  42  64  96 124 163 208 260 318 386
#     4  10  24  42  62  94 136 168 200 248 348 394
#
# _framework density 20.767980999999999
#
# number of rings (size 3 to 8) (size 9 to 14) (size 15 to 20)
#    0.000    1.684    2.105    1.263    5.895    2.105 
#    3.789    4.211    0.000    0.000    0.000    0.000 
#    0.000    0.000    0.000    0.000    0.000    0.000 
#
# Total GULP energy -470914.138103 kJ/mol
# GULP energy per Si atom -12392.477319 kJ/mol
# Density = 2.072071 g / cm^3
# Si number density = 20.767981 Si / 1000 Ang^3
#
#
#
# Elastic Constant Matrix: (Units=GPa)
#
#
# Indices 1 2 3 4 5 6 
#
# 1 123.5312 61.8325 58.9386 0.0000 0.0000 0.0000
# 2 61.8325 97.0226 60.2815 0.0000 0.0000 0.0000
# 3 58.9386 60.2815 127.3432 0.0000 0.0000 0.0000
# 4 0.0000 0.0000 0.0000 54.4561 0.0000 0.0000
# 5 0.0000 0.0000 0.0000 0.0000 17.2379 0.0000
# 6 0.0000 0.0000 0.0000 0.0000 0.0000 40.5493
#
#
#
# Elastic Compliance Matrix: (Units=1/GPa)
#
#
# Indices 1 2 3 4 5 6 
#
# 1 0.012588 -0.006237 -0.002874 0.000000 0.000000 0.000000
# 2 -0.006237 0.017692 -0.005488 0.000000 0.000000 0.000000
# 3 -0.002874 -0.005488 0.011781 0.000000 0.000000 0.000000
# 4 0.000000 0.000000 0.000000 0.018363 0.000000 0.000000
# 5 0.000000 0.000000 0.000000 0.000000 0.058012 0.000000
# 6 0.000000 0.000000 0.000000 0.000000 0.000000 0.024661
#
#
# Mechanical properties :
#
#
# Convention : Reuss Voigt Hill
#
# Bulk Modulus (GPa) = 77.74335 78.88914 78.31624
# Shear Modulus (GPa) = 28.31549 33.57164 30.94356
#
# Velocity S-wave (km/s) = 3.69646 4.02495 3.86419
# Velocity P-wave (km/s) = 7.46551 7.72455 7.59614
#
# Compressibility (1/GPa) = 0.01286284
#
# Stress axis : x y z
#
# Youngs Moduli (GPa) = 79.44043 56.52431 84.88359
#
# Poissons Ratio (x) = 0.35253 0.24394
# Poissons Ratio (y) = 0.49546 0.46585
# Poissons Ratio (z) = 0.22829 0.31021
#
# Static dielectric constant tensor:
#      x y z
#    x 3.441070 0.000000 0.000000 
#    y 0.000000 4.196900 0.000000 
#    z 0.000000 0.000000 4.126640 
# 
# 
# High freq. dielectric constant tensor:
#      x y z
#    x 1.782340 0.000000 0.000000 
#    y 0.000000 1.832930 0.000000 
#    z 0.000000 0.000000 1.822520 
# 
# From -- ./inp_files/34341.got.cif
#   From: 2010.03.12/outbox.cif.g09.slc.cpg/sg68_18_cif.got.tgz:34341.got - 2010.04.10 23:14:56.
