data_PCOD8282940
_publ_section_title
;
Structure prediction by ZEFSAII (Michael W. Deem and Ramdas Pophale) SiO2 
 PCOD8282940
Probable space group: C C C A
;
_chemical_formula_sum "Si O2"
_cell_formula_units_Z 52
_cell_length_a 24.462546
_cell_length_b 9.631205
_cell_length_c 9.708261
_cell_angle_alpha 90.000000
_cell_angle_beta 90.000000
_cell_angle_gamma 90.000000
_cell_volume 2287.303138
_symmetry_space_group_name_H-M "C C C A"
_symmetry_group_IT_number 68
_space_group.IT_coordinate_system_code '2'
_symmetry_cell_setting 'orthorhombic'
loop_
_space_group_symop_operation_xyz
x,y,z
-x,1/2-y,z
x,1/2-y,1/2-z
-x,y,1/2-z
-x,-y,-z
x,1/2+y,-z
-x,1/2+y,1/2+z
x,-y,1/2+z
1/2+x,1/2+y,z
1/2-x,-y,z
1/2+x,-y,1/2-z
1/2-x,1/2+y,1/2-z
1/2-x,1/2-y,-z
1/2+x,y,-z
1/2-x,y,1/2+z
1/2+x,1/2-y,1/2+z
loop_
_atom_site_type_symbol
_atom_site_label
_atom_site_fract_x
_atom_site_fract_y
_atom_site_fract_z
Si Si1 0.500000 0.250000 0.250000
Si Si2 0.371369 0.967539 0.000528
Si Si3 0.303197 0.587096 0.755900
Si Si4 0.056246 0.796691 0.986093
O O1 0.540933 0.332240 0.146890
O O2 0.350419 0.049314 0.135108
O O3 0.419285 0.059962 0.928343
O O4 0.321358 0.955671 0.896388
O O5 0.396915 0.818525 0.034166
O O6 0.289570 0.750000 0.750000
O O7 0.250000 0.500000 0.796877
O O8 0.000000 0.750000 0.908285
#
# Coordination Sequence:
#
# PCOD8282940 Si02
#       4
#     4  16  16  16
#     4   8  20  40  68  96 156 184 236 280 360 392
#     4  12  24  48  74 108 144 192 240 298 370 426
#     4  12  29  49  75 105 145 189 246 312 366 430
#     4  10  22  41  69 106 144 191 228 290 353 429
#
# _framework density 22.734197999999999
#
# number of rings (size 3 to 8) (size 9 to 14) (size 15 to 20)
#    0.923    0.000    3.077    3.692    4.308    2.462 
#    0.000    1.538    0.000    0.000    0.000    0.000 
#    0.000    0.000    0.000    0.000    0.000    0.000 
#
# Total GULP energy -322170.314664 kJ/mol
# GULP energy per Si atom -12391.165949 kJ/mol
# Density = 2.268245 g / cm^3
# Si number density = 22.734198 Si / 1000 Ang^3
#
#
#
# Elastic Constant Matrix: (Units=GPa)
#
#
# Indices 1 2 3 4 5 6 
#
# 1 103.5764 29.5637 18.9908 0.0000 0.0000 0.0000
# 2 29.5637 115.7086 31.4647 0.0000 0.0000 0.0000
# 3 18.9908 31.4647 54.0704 0.0000 0.0000 0.0000
# 4 0.0000 0.0000 0.0000 19.3374 0.0000 0.0000
# 5 0.0000 0.0000 0.0000 0.0000 2.8156 0.0000
# 6 0.0000 0.0000 0.0000 0.0000 0.0000 22.9954
#
#
#
# Elastic Compliance Matrix: (Units=1/GPa)
#
#
# Indices 1 2 3 4 5 6 
#
# 1 0.010708 -0.002035 -0.002577 0.000000 0.000000 0.000000
# 2 -0.002035 0.010654 -0.005485 0.000000 0.000000 0.000000
# 3 -0.002577 -0.005485 0.022591 0.000000 0.000000 0.000000
# 4 0.000000 0.000000 0.000000 0.051713 0.000000 0.000000
# 5 0.000000 0.000000 0.000000 0.000000 0.355161 0.000000
# 6 0.000000 0.000000 0.000000 0.000000 0.000000 0.043487
#
#
# Mechanical properties :
#
#
# Convention : Reuss Voigt Hill
#
# Bulk Modulus (GPa) = 42.08819 48.15487 45.12153
# Shear Modulus (GPa) = 9.57070 21.91878 15.74474
#
# Velocity S-wave (km/s) = 2.05401 3.10842 2.63450
# Velocity P-wave (km/s) = 4.91718 5.84043 5.39858
#
# Compressibility (1/GPa) = 0.02375964
#
# Stress axis : x y z
#
# Youngs Moduli (GPa) = 93.38779 93.86203 44.26518
#
# Poissons Ratio (x) = 0.19103 0.11405
# Poissons Ratio (y) = 0.19007 0.24279
# Poissons Ratio (z) = 0.24062 0.51483
#
# Static dielectric constant tensor:
#      x y z
#    x 4.115700 0.000000 0.000000 
#    y 0.000000 3.920780 0.000000 
#    z 0.000000 0.000000 3.774400 
# 
# 
# High freq. dielectric constant tensor:
#      x y z
#    x 1.914820 0.000000 0.000000 
#    y 0.000000 1.895810 0.000000 
#    z 0.000000 0.000000 1.875070 
# 
# From -- ./inp_files/3818.got.cif
#   From: 2010.03.12/outbox.cif.g09.slc.cpg/sg68_2_cif.got.tgz:3818.got - 2010.04.10 23:14:56.
