data_PCOD8282982
_publ_section_title
;
Structure prediction by ZEFSAII (Michael W. Deem and Ramdas Pophale) SiO2 
 PCOD8282982
Probable space group: C C C A
;
_chemical_formula_sum "Si O2"
_cell_formula_units_Z 80
_cell_length_a 22.611739
_cell_length_b 11.860010
_cell_length_c 13.945979
_cell_angle_alpha 90.000000
_cell_angle_beta 90.000000
_cell_angle_gamma 90.000000
_cell_volume 3739.969203
_symmetry_space_group_name_H-M "C C C A"
_symmetry_group_IT_number 68
_space_group.IT_coordinate_system_code '2'
_symmetry_cell_setting 'orthorhombic'
loop_
_space_group_symop_operation_xyz
x,y,z
-x,1/2-y,z
x,1/2-y,1/2-z
-x,y,1/2-z
-x,-y,-z
x,1/2+y,-z
-x,1/2+y,1/2+z
x,-y,1/2+z
1/2+x,1/2+y,z
1/2-x,-y,z
1/2+x,-y,1/2-z
1/2-x,1/2+y,1/2-z
1/2-x,1/2-y,-z
1/2+x,y,-z
1/2-x,y,1/2+z
1/2+x,1/2-y,1/2+z
loop_
_atom_site_type_symbol
_atom_site_label
_atom_site_fract_x
_atom_site_fract_y
_atom_site_fract_z
Si Si1 0.937497 0.186216 0.480092
Si Si2 0.066990 0.878092 0.725877
Si Si3 0.223957 0.276973 0.646274
Si Si4 0.123848 0.046349 0.875113
Si Si5 0.829045 0.353057 0.486775
O O1 0.928265 0.103564 0.388642
O O2 0.931937 0.113804 0.578451
O O3 0.886535 0.277875 0.472277
O O4 0.000000 0.250000 0.476529
O O5 0.085662 0.750000 0.750000
O O6 0.000000 0.902852 0.750000
O O7 0.106323 0.965854 0.786752
O O8 0.249590 0.250000 0.750000
O O9 0.172378 0.367596 0.662800
O O10 0.197045 0.166103 0.593364
O O11 0.278809 0.323470 0.588833
O O12 0.152560 0.980924 0.965853
#
# Coordination Sequence:
#
# PCOD8282982 Si02
#       5
#    16  16  16  16  16
#     4  11  23  42  68  97 133 172 216 275 332 391
#     4  11  21  40  64  98 129 167 220 263 324 405
#     4  10  24  43  63  96 132 171 222 277 331 388
#     4  11  24  41  67  97 128 176 222 268 335 393
#     4  10  22  43  64  92 135 168 217 272 330 397
#
# _framework density 21.390550999999999
#
# number of rings (size 3 to 8) (size 9 to 14) (size 15 to 20)
#    0.000    1.400    4.000    0.600    5.600    3.200 
#    3.600    2.000    0.000    0.000    0.000    0.000 
#    0.000    0.000    0.000    0.000    0.000    0.000 
#
# Total GULP energy -495787.928739 kJ/mol
# GULP energy per Si atom -12394.698218 kJ/mol
# Density = 2.134187 g / cm^3
# Si number density = 21.390551 Si / 1000 Ang^3
#
#
#
# Elastic Constant Matrix: (Units=GPa)
#
#
# Indices 1 2 3 4 5 6 
#
# 1 92.5171 15.7255 43.6396 0.0000 0.0000 0.0000
# 2 15.7255 61.1483 27.6655 0.0000 0.0000 0.0000
# 3 43.6396 27.6655 112.7288 0.0000 0.0000 0.0000
# 4 0.0000 0.0000 0.0000 32.0751 0.0000 0.0000
# 5 0.0000 0.0000 0.0000 0.0000 29.0350 0.0000
# 6 0.0000 0.0000 0.0000 0.0000 0.0000 31.9768
#
#
#
# Elastic Compliance Matrix: (Units=1/GPa)
#
#
# Indices 1 2 3 4 5 6 
#
# 1 0.013305 -0.001228 -0.004849 0.000000 0.000000 0.000000
# 2 -0.001228 0.018510 -0.004067 0.000000 0.000000 0.000000
# 3 -0.004849 -0.004067 0.011746 0.000000 0.000000 0.000000
# 4 0.000000 0.000000 0.000000 0.031177 0.000000 0.000000
# 5 0.000000 0.000000 0.000000 0.000000 0.034441 0.000000
# 6 0.000000 0.000000 0.000000 0.000000 0.000000 0.031273
#
#
# Mechanical properties :
#
#
# Convention : Reuss Voigt Hill
#
# Bulk Modulus (GPa) = 42.96965 48.93950 45.95458
# Shear Modulus (GPa) = 29.67404 30.57493 30.12449
#
# Velocity S-wave (km/s) = 3.72862 3.78480 3.75681
# Velocity P-wave (km/s) = 6.21841 6.48292 6.35204
#
# Compressibility (1/GPa) = 0.02327224
#
# Stress axis : x y z
#
# Youngs Moduli (GPa) = 75.16052 54.02607 85.13325
#
# Poissons Ratio (x) = 0.06632 0.41284
# Poissons Ratio (y) = 0.09227 0.34626
# Poissons Ratio (z) = 0.36448 0.21974
#
# Static dielectric constant tensor:
#      x y z
#    x 3.846450 0.000000 0.000000 
#    y 0.000000 3.853900 0.000000 
#    z 0.000000 0.000000 4.028950 
# 
# 
# High freq. dielectric constant tensor:
#      x y z
#    x 1.851380 0.000000 0.000000 
#    y 0.000000 1.826250 0.000000 
#    z 0.000000 0.000000 1.843930 
# 
# From -- ./inp_files/25145.got.cif
#   From: 2010.03.12/outbox.cif.g09.slc.cpg/sg68_13_cif.got.tgz:25145.got - 2010.04.10 23:14:56.
