data_PCOD8282156
_publ_section_title
;
Structure prediction by ZEFSAII (Michael W. Deem and Ramdas Pophale) SiO2 
 PCOD8282156
Probable space group: C C C A
;
_chemical_formula_sum "Si O2"
_cell_formula_units_Z 48
_cell_length_a 12.860424
_cell_length_b 8.925601
_cell_length_c 17.248437
_cell_angle_alpha 90.000000
_cell_angle_beta 90.000000
_cell_angle_gamma 90.000000
_cell_volume 1979.896568
_symmetry_space_group_name_H-M "C C C A"
_symmetry_group_IT_number 68
_space_group.IT_coordinate_system_code '2'
_symmetry_cell_setting 'orthorhombic'
loop_
_space_group_symop_operation_xyz
x,y,z
-x,1/2-y,z
x,1/2-y,1/2-z
-x,y,1/2-z
-x,-y,-z
x,1/2+y,-z
-x,1/2+y,1/2+z
x,-y,1/2+z
1/2+x,1/2+y,z
1/2-x,-y,z
1/2+x,-y,1/2-z
1/2-x,1/2+y,1/2-z
1/2-x,1/2-y,-z
1/2+x,y,-z
1/2-x,y,1/2+z
1/2+x,1/2-y,1/2+z
loop_
_atom_site_type_symbol
_atom_site_label
_atom_site_fract_x
_atom_site_fract_y
_atom_site_fract_z
Si Si1 0.147737 0.092119 0.455809
Si Si2 0.883591 0.808691 0.829492
Si Si3 0.034799 0.596328 0.387378
O O1 0.069453 0.993163 0.405812
O O2 0.250000 0.000000 0.475167
O O3 0.175886 0.240564 0.404677
O O4 0.094536 0.146470 0.534793
O O5 0.829147 0.750000 0.750000
O O6 0.000000 0.750000 0.831522
O O7 0.888812 0.991180 0.834960
O O8 0.000000 0.750000 0.343896
#
# Coordination Sequence:
#
# PCOD8282156 Si02
#       3
#    16  16  16
#     4  10  20  36  57  85 120 157 195 236 290 352
#     4   9  19  38  58  78 117 160 191 240 303 351
#     4  10  20  35  59  88 112 146 200 248 290 350
#
# _framework density 24.243690000000001
#
# number of rings (size 3 to 8) (size 9 to 14) (size 15 to 20)
#    0.000    2.333    0.000    5.000    0.000    5.333 
#    0.000   18.333    0.000    0.000    0.000    0.000 
#    0.000    0.000    0.000    0.000    0.000    0.000 
#
# Total GULP energy -297453.224969 kJ/mol
# GULP energy per Si atom -12393.884374 kJ/mol
# Density = 2.418851 g / cm^3
# Si number density = 24.243690 Si / 1000 Ang^3
#
#
#
# Elastic Constant Matrix: (Units=GPa)
#
#
# Indices 1 2 3 4 5 6 
#
# 1 52.8358 11.4616 1.3842 0.0000 0.0000 0.0000
# 2 11.4616 207.0812 69.5427 0.0000 0.0000 0.0000
# 3 1.3842 69.5427 82.8402 0.0000 0.0000 0.0000
# 4 0.0000 0.0000 0.0000 30.9599 0.0000 0.0000
# 5 0.0000 0.0000 0.0000 0.0000 -3.2902 0.0000
# 6 0.0000 0.0000 0.0000 0.0000 0.0000 24.2296
#
#
#
# Elastic Compliance Matrix: (Units=1/GPa)
#
#
# Indices 1 2 3 4 5 6 
#
# 1 0.019194 -0.001329 0.000795 0.000000 0.000000 0.000000
# 2 -0.001329 0.006817 -0.005700 0.000000 0.000000 0.000000
# 3 0.000795 -0.005700 0.016844 0.000000 0.000000 0.000000
# 4 0.000000 0.000000 0.000000 0.032300 0.000000 0.000000
# 5 0.000000 0.000000 0.000000 0.000000 -0.303936 0.000000
# 6 0.000000 0.000000 0.000000 0.000000 0.000000 0.041272
#
#
# Mechanical properties :
#
#
# Convention : Reuss Voigt Hill
#
# Bulk Modulus (GPa) = 32.91050 56.39272 44.65161
# Shear Modulus (GPa) = -30.31929 27.73777 -1.29076
#
# Velocity S-wave (km/s) = -3.54023 3.38616 -0.73046
# Velocity P-wave (km/s) = 1.76255 6.21284 4.21265
#
# Compressibility (1/GPa) = 0.03038544
#
# Stress axis : x y z
#
# Youngs Moduli (GPa) = 52.09925 146.69281 59.36977
#
# Poissons Ratio (x) = 0.19502 -0.04722
# Poissons Ratio (y) = 0.06926 0.33844
# Poissons Ratio (z) = -0.04144 0.83622
#
# Static dielectric constant tensor:
#      x y z
#    x 3.982280 0.000000 0.000000 
#    y 0.000000 4.867900 0.000000 
#    z 0.000000 0.000000 4.951140 
# 
# 
# High freq. dielectric constant tensor:
#      x y z
#    x 1.928430 0.000000 0.000000 
#    y 0.000000 1.975460 0.000000 
#    z 0.000000 0.000000 1.936630 
# 
# From -- ./inp_files/27399.got.cif
#   From: 2010.03.12/outbox.cif.g09.slc.cpg/sg68_14_cif.got.tgz:27399.got - 2010.04.10 23:14:56.
