data_PCOD8282974
_publ_section_title
;
Structure prediction by ZEFSAII (Michael W. Deem and Ramdas Pophale) SiO2 
 PCOD8282974
Probable space group: C C C A
;
_chemical_formula_sum "Si O2"
_cell_formula_units_Z 104
_cell_length_a 30.381093
_cell_length_b 8.329778
_cell_length_c 18.099434
_cell_angle_alpha 90.000000
_cell_angle_beta 90.000000
_cell_angle_gamma 90.000000
_cell_volume 4580.383221
_symmetry_space_group_name_H-M "C C C A"
_symmetry_group_IT_number 68
_space_group.IT_coordinate_system_code '2'
_symmetry_cell_setting 'orthorhombic'
loop_
_space_group_symop_operation_xyz
x,y,z
-x,1/2-y,z
x,1/2-y,1/2-z
-x,y,1/2-z
-x,-y,-z
x,1/2+y,-z
-x,1/2+y,1/2+z
x,-y,1/2+z
1/2+x,1/2+y,z
1/2-x,-y,z
1/2+x,-y,1/2-z
1/2-x,1/2+y,1/2-z
1/2-x,1/2-y,-z
1/2+x,y,-z
1/2-x,y,1/2+z
1/2+x,1/2-y,1/2+z
loop_
_atom_site_type_symbol
_atom_site_label
_atom_site_fract_x
_atom_site_fract_y
_atom_site_fract_z
Si Si1 0.250000 0.000000 0.831202
Si Si2 0.590171 0.561255 0.832643
Si Si3 0.166240 0.434219 0.425676
Si Si4 0.833187 0.163111 0.181458
Si Si5 0.503285 0.561065 0.917142
Si Si6 0.208550 0.770243 0.447490
Si Si7 0.914973 0.065434 0.841614
O O1 0.289137 0.079777 0.783648
O O2 0.222222 0.125625 0.878510
O O3 0.632928 0.460053 0.858002
O O4 0.547439 0.497269 0.876867
O O5 0.596325 0.747255 0.853792
O O6 0.586415 0.531051 0.745242
O O7 0.186160 0.288834 0.377505
O O8 0.193741 0.596937 0.418139
O O9 0.168908 0.365692 0.509533
O O10 0.117595 0.462036 0.393028
O O11 0.857455 0.250000 0.250000
O O12 0.500000 0.750000 0.918678
O O13 0.462361 0.503823 0.868161
O O14 0.500000 0.500000 0.000000
O O15 0.250000 0.750000 0.500000
#
# Coordination Sequence:
#
# PCOD8282974 Si02
#       7
#     8  16  16  16  16  16  16
#     4  12  26  44  66  96 134 174 236 290 360 406
#     4  10  22  47  70 100 144 183 236 282 355 427
#     4  12  24  42  70  97 139 175 241 281 356 423
#     4  12  26  45  66 101 137 186 234 291 348 432
#     4  10  23  42  69 106 143 180 229 285 347 416
#     4  12  23  43  68  97 132 184 231 296 359 422
#     4  10  22  42  75 103 134 189 230 290 351 421
#
# _framework density 22.705524
#
# number of rings (size 3 to 8) (size 9 to 14) (size 15 to 20)
#    0.000    0.923    4.615    1.385    0.000    9.231 
#    2.769    0.000    0.000    0.000    0.000    0.000 
#    0.000    0.000    0.000    0.000    0.000    0.000 
#
# Total GULP energy -644476.423103 kJ/mol
# GULP energy per Si atom -12393.777367 kJ/mol
# Density = 2.265384 g / cm^3
# Si number density = 22.705524 Si / 1000 Ang^3
#
#
#
# Elastic Constant Matrix: (Units=GPa)
#
#
# Indices 1 2 3 4 5 6 
#
# 1 153.4023 54.0524 39.9473 0.0000 0.0000 0.0000
# 2 54.0524 94.2324 28.5681 0.0000 0.0000 0.0000
# 3 39.9473 28.5681 74.1086 0.0000 0.0000 0.0000
# 4 0.0000 0.0000 0.0000 39.7005 0.0000 0.0000
# 5 0.0000 0.0000 0.0000 0.0000 39.6529 0.0000
# 6 0.0000 0.0000 0.0000 0.0000 0.0000 31.1874
#
#
#
# Elastic Compliance Matrix: (Units=1/GPa)
#
#
# Indices 1 2 3 4 5 6 
#
# 1 0.008778 -0.004077 -0.003160 0.000000 0.000000 0.000000
# 2 -0.004077 0.013910 -0.003164 0.000000 0.000000 0.000000
# 3 -0.003160 -0.003164 0.016417 0.000000 0.000000 0.000000
# 4 0.000000 0.000000 0.000000 0.025189 0.000000 0.000000
# 5 0.000000 0.000000 0.000000 0.000000 0.025219 0.000000
# 6 0.000000 0.000000 0.000000 0.000000 0.000000 0.032064
#
#
# Mechanical properties :
#
#
# Convention : Reuss Voigt Hill
#
# Bulk Modulus (GPa) = 54.63921 62.98654 58.81288
# Shear Modulus (GPa) = 33.67422 35.38653 34.53037
#
# Velocity S-wave (km/s) = 3.85526 3.95207 3.90396
# Velocity P-wave (km/s) = 6.62827 6.97323 6.80294
#
# Compressibility (1/GPa) = 0.01830187
#
# Stress axis : x y z
#
# Youngs Moduli (GPa) = 113.91595 71.88972 60.91256
#
# Poissons Ratio (x) = 0.29312 0.19249
# Poissons Ratio (y) = 0.46447 0.19275
# Poissons Ratio (z) = 0.35999 0.22749
#
# Static dielectric constant tensor:
#      x y z
#    x 4.288900 0.000000 0.000000 
#    y 0.000000 4.291550 0.000000 
#    z 0.000000 0.000000 3.984100 
# 
# 
# High freq. dielectric constant tensor:
#      x y z
#    x 1.900380 0.000000 0.000000 
#    y 0.000000 1.904520 0.000000 
#    z 0.000000 0.000000 1.890020 
# 
# From -- ./inp_files/41352.got.cif
#   From: 2010.03.12/outbox.cif.g09.slc.cpg/sg68_21_cif.got.tgz:41352.got - 2010.04.10 23:14:56.
