data_PCOD8282686
_publ_section_title
;
Structure prediction by ZEFSAII (Michael W. Deem and Ramdas Pophale) SiO2 
 PCOD8282686
Probable space group: C C C A
;
_chemical_formula_sum "Si O2"
_cell_formula_units_Z 104
_cell_length_a 23.236625
_cell_length_b 24.185077
_cell_length_c 8.091149
_cell_angle_alpha 90.000000
_cell_angle_beta 90.000000
_cell_angle_gamma 90.000000
_cell_volume 4547.060394
_symmetry_space_group_name_H-M "C C C A"
_symmetry_group_IT_number 68
_space_group.IT_coordinate_system_code '2'
_symmetry_cell_setting 'orthorhombic'
loop_
_space_group_symop_operation_xyz
x,y,z
-x,1/2-y,z
x,1/2-y,1/2-z
-x,y,1/2-z
-x,-y,-z
x,1/2+y,-z
-x,1/2+y,1/2+z
x,-y,1/2+z
1/2+x,1/2+y,z
1/2-x,-y,z
1/2+x,-y,1/2-z
1/2-x,1/2+y,1/2-z
1/2-x,1/2-y,-z
1/2+x,y,-z
1/2-x,y,1/2+z
1/2+x,1/2-y,1/2+z
loop_
_atom_site_type_symbol
_atom_site_label
_atom_site_fract_x
_atom_site_fract_y
_atom_site_fract_z
Si Si1 0.165999 0.164857 0.447275
Si Si2 0.123210 0.944546 0.807693
Si Si3 0.500000 0.581872 0.250000
Si Si4 0.380273 0.229181 0.430297
Si Si5 0.147435 0.061089 0.943302
Si Si6 0.037481 0.132699 0.918155
Si Si7 0.284888 0.154790 0.308186
O O1 0.127710 0.110256 0.420541
O O2 0.125658 0.219650 0.440002
O O3 0.217074 0.167296 0.313596
O O4 0.195785 0.164873 0.623547
O O5 0.156944 0.933187 0.638742
O O6 0.056431 0.956485 0.762344
O O7 0.149664 0.996535 0.900690
O O8 0.499468 0.616711 0.420703
O O9 0.396267 0.250000 0.250000
O O10 0.433234 0.189835 0.478041
O O11 0.320259 0.195358 0.429775
O O12 0.087715 0.088196 0.880072
O O13 0.201727 0.091360 0.858913
O O14 0.000000 0.138518 0.750000
#
# Coordination Sequence:
#
# PCOD8282686 Si02
#       7
#    16  16   8  16  16  16  16
#     4  11  22  40  67  93 137 176 223 282 338 419
#     4  11  24  41  64  95 136 172 228 280 339 410
#     4  10  26  42  63 104 128 184 231 280 350 402
#     4   9  21  40  65  96 124 178 223 273 346 411
#     4  10  23  41  64 100 127 174 224 281 341 412
#     4  10  23  42  70  94 137 175 230 286 343 405
#     4  10  21  40  65  95 129 170 222 275 344 402
#
# _framework density 22.871921
#
# number of rings (size 3 to 8) (size 9 to 14) (size 15 to 20)
#    0.000    1.846    0.000    2.308    9.692    2.154 
#    0.000   15.385    0.000    0.000    0.000    0.000 
#    0.000    0.000    0.000    0.000    0.000    0.000 
#
# Total GULP energy -644715.085031 kJ/mol
# GULP energy per Si atom -12398.367020 kJ/mol
# Density = 2.281986 g / cm^3
# Si number density = 22.871921 Si / 1000 Ang^3
#
#
#
# Elastic Constant Matrix: (Units=GPa)
#
#
# Indices 1 2 3 4 5 6 
#
# 1 33.9240 8.6808 19.0001 0.0000 0.0000 0.0000
# 2 8.6808 143.7604 29.2574 0.0000 0.0000 0.0000
# 3 19.0001 29.2574 91.4136 0.0000 0.0000 0.0000
# 4 0.0000 0.0000 0.0000 34.7424 0.0000 0.0000
# 5 0.0000 0.0000 0.0000 0.0000 29.9201 0.0000
# 6 0.0000 0.0000 0.0000 0.0000 0.0000 22.5659
#
#
#
# Elastic Compliance Matrix: (Units=1/GPa)
#
#
# Indices 1 2 3 4 5 6 
#
# 1 0.033417 -0.000646 -0.006739 0.000000 0.000000 0.000000
# 2 -0.000646 0.007453 -0.002251 0.000000 0.000000 0.000000
# 3 -0.006739 -0.002251 0.013060 0.000000 0.000000 0.000000
# 4 0.000000 0.000000 0.000000 0.028783 0.000000 0.000000
# 5 0.000000 0.000000 0.000000 0.000000 0.033422 0.000000
# 6 0.000000 0.000000 0.000000 0.000000 0.000000 0.044315
#
#
# Mechanical properties :
#
#
# Convention : Reuss Voigt Hill
#
# Bulk Modulus (GPa) = 28.85313 42.55274 35.70293
# Shear Modulus (GPa) = 26.14013 31.58964 28.86489
#
# Velocity S-wave (km/s) = 3.38434 3.72042 3.55635
# Velocity P-wave (km/s) = 5.28338 6.09102 5.70152
#
# Compressibility (1/GPa) = 0.03465829
#
# Stress axis : x y z
#
# Youngs Moduli (GPa) = 29.92457 134.17099 76.56722
#
# Poissons Ratio (x) = 0.08673 0.51597
# Poissons Ratio (y) = 0.01934 0.17236
# Poissons Ratio (z) = 0.20166 0.30203
#
# Static dielectric constant tensor:
#      x y z
#    x 4.036440 0.000000 0.000000 
#    y 0.000000 4.273090 0.000000 
#    z 0.000000 0.000000 4.037190 
# 
# 
# High freq. dielectric constant tensor:
#      x y z
#    x 1.891860 0.000000 0.000000 
#    y 0.000000 1.903880 0.000000 
#    z 0.000000 0.000000 1.902960 
# 
# From -- ./inp_files/9000.got.cif
#   From: 2010.03.12/outbox.cif.g09.slc.cpg/sg68_5_cif.got.tgz:9000.got - 2010.04.10 23:14:56.
