data_PCOD8282578
_publ_section_title
;
Structure prediction by ZEFSAII (Michael W. Deem and Ramdas Pophale) SiO2 
 PCOD8282578
Probable space group: C C C A
;
_chemical_formula_sum "Si O2"
_cell_formula_units_Z 56
_cell_length_a 4.806851
_cell_length_b 21.021058
_cell_length_c 24.494420
_cell_angle_alpha 90.000000
_cell_angle_beta 90.000000
_cell_angle_gamma 90.000000
_cell_volume 2475.040963
_symmetry_space_group_name_H-M "C C C A"
_symmetry_group_IT_number 68
_space_group.IT_coordinate_system_code '2'
_symmetry_cell_setting 'orthorhombic'
loop_
_space_group_symop_operation_xyz
x,y,z
-x,1/2-y,z
x,1/2-y,1/2-z
-x,y,1/2-z
-x,-y,-z
x,1/2+y,-z
-x,1/2+y,1/2+z
x,-y,1/2+z
1/2+x,1/2+y,z
1/2-x,-y,z
1/2+x,-y,1/2-z
1/2-x,1/2+y,1/2-z
1/2-x,1/2-y,-z
1/2+x,y,-z
1/2-x,y,1/2+z
1/2+x,1/2-y,1/2+z
loop_
_atom_site_type_symbol
_atom_site_label
_atom_site_fract_x
_atom_site_fract_y
_atom_site_fract_z
Si Si1 0.963576 0.386435 0.852697
Si Si2 0.250000 0.000000 0.211160
Si Si3 0.549376 0.181792 0.813036
Si Si4 0.541328 0.178232 0.037271
O O1 0.088718 0.451890 0.829132
O O2 0.126921 0.331799 0.820695
O O3 0.637520 0.374634 0.840019
O O4 0.017139 0.376052 0.917250
O O5 0.500000 0.970980 0.250000
O O6 0.500000 0.250000 0.841748
O O7 0.500000 0.186107 0.750000
O O8 0.500000 0.250000 0.060944
O O9 0.353070 0.168099 0.983918
#
# Coordination Sequence:
#
# PCOD8282578 Si02
#       4
#    16   8  16  16
#     4  12  23  40  62  88 124 169 210 257 317 379
#     4  12  26  44  64  90 128 176 224 264 310 382
#     4  11  22  36  59  91 123 156 201 261 326 390
#     4  10  21  38  61  90 122 157 204 263 325 385
#
# _framework density 22.625889999999998
#
# number of rings (size 3 to 8) (size 9 to 14) (size 15 to 20)
#    0.000    0.857    0.000    9.429    0.000    4.571 
#    0.000    1.429    0.000    0.000    0.000    0.000 
#    0.000    0.000    0.000    0.000    0.000    0.000 
#
# Total GULP energy -346940.438264 kJ/mol
# GULP energy per Si atom -12390.729938 kJ/mol
# Density = 2.257439 g / cm^3
# Si number density = 22.625890 Si / 1000 Ang^3
#
#
#
# Elastic Constant Matrix: (Units=GPa)
#
#
# Indices 1 2 3 4 5 6 
#
# 1 74.1148 9.0060 13.8359 0.0000 0.0000 0.0000
# 2 9.0060 107.3890 40.2189 0.0000 0.0000 0.0000
# 3 13.8359 40.2189 112.8223 0.0000 0.0000 0.0000
# 4 0.0000 0.0000 0.0000 36.2600 0.0000 0.0000
# 5 0.0000 0.0000 0.0000 0.0000 30.0606 0.0000
# 6 0.0000 0.0000 0.0000 0.0000 0.0000 30.0738
#
#
#
# Elastic Compliance Matrix: (Units=1/GPa)
#
#
# Indices 1 2 3 4 5 6 
#
# 1 0.013843 -0.000606 -0.001482 0.000000 0.000000 0.000000
# 2 -0.000606 0.010773 -0.003766 0.000000 0.000000 0.000000
# 3 -0.001482 -0.003766 0.010388 0.000000 0.000000 0.000000
# 4 0.000000 0.000000 0.000000 0.027579 0.000000 0.000000
# 5 0.000000 0.000000 0.000000 0.000000 0.033266 0.000000
# 6 0.000000 0.000000 0.000000 0.000000 0.000000 0.033252
#
#
# Mechanical properties :
#
#
# Convention : Reuss Voigt Hill
#
# Bulk Modulus (GPa) = 42.92520 46.71640 44.82080
# Shear Modulus (GPa) = 33.65348 34.69655 34.17501
#
# Velocity S-wave (km/s) = 3.86085 3.92023 3.89065
# Velocity P-wave (km/s) = 6.23601 6.41740 6.32736
#
# Compressibility (1/GPa) = 0.02329634
#
# Stress axis : x y z
#
# Youngs Moduli (GPa) = 72.23970 92.82259 96.26734
#
# Poissons Ratio (x) = 0.05625 0.14263
# Poissons Ratio (y) = 0.04378 0.36256
# Poissons Ratio (z) = 0.10703 0.34958
#
# Static dielectric constant tensor:
#      x y z
#    x 3.890730 0.000000 0.000000 
#    y 0.000000 3.977320 0.000000 
#    z 0.000000 0.000000 3.862060 
# 
# 
# High freq. dielectric constant tensor:
#      x y z
#    x 1.917640 0.000000 0.000000 
#    y 0.000000 1.862190 0.000000 
#    z 0.000000 0.000000 1.885790 
# 
# From -- ./inp_files/41975.got.cif
#   From: 2010.03.12/outbox.cif.g09.slc.cpg/sg68_21_cif.got.tgz:41975.got - 2010.04.10 23:14:56.
