data_PCOD8282111
_publ_section_title
;
Structure prediction by ZEFSAII (Michael W. Deem and Ramdas Pophale) SiO2 
 PCOD8282111
Probable space group: C C C A
;
_chemical_formula_sum "Si O2"
_cell_formula_units_Z 96
_cell_length_a 26.686289
_cell_length_b 10.084952
_cell_length_c 17.505381
_cell_angle_alpha 90.000000
_cell_angle_beta 90.000000
_cell_angle_gamma 90.000000
_cell_volume 4711.222202
_symmetry_space_group_name_H-M "C C C A"
_symmetry_group_IT_number 68
_space_group.IT_coordinate_system_code '2'
_symmetry_cell_setting 'orthorhombic'
loop_
_space_group_symop_operation_xyz
x,y,z
-x,1/2-y,z
x,1/2-y,1/2-z
-x,y,1/2-z
-x,-y,-z
x,1/2+y,-z
-x,1/2+y,1/2+z
x,-y,1/2+z
1/2+x,1/2+y,z
1/2-x,-y,z
1/2+x,-y,1/2-z
1/2-x,1/2+y,1/2-z
1/2-x,1/2-y,-z
1/2+x,y,-z
1/2-x,y,1/2+z
1/2+x,1/2-y,1/2+z
loop_
_atom_site_type_symbol
_atom_site_label
_atom_site_fract_x
_atom_site_fract_y
_atom_site_fract_z
Si Si1 0.865934 0.486610 0.855380
Si Si2 0.462954 0.866939 0.924122
Si Si3 0.180021 0.750616 0.584015
Si Si4 0.471929 0.622972 0.405077
Si Si5 0.383081 0.620217 0.296547
Si Si6 0.780596 0.874413 0.062249
O O1 0.910885 0.388547 0.880097
O O2 0.858466 0.624388 0.905286
O O3 0.871063 0.507891 0.765009
O O4 0.813749 0.411025 0.864944
O O5 0.500000 0.750000 0.892240
O O6 0.489331 0.006646 0.915490
O O7 0.449352 0.835707 0.012395
O O8 0.164571 0.857236 0.648204
O O9 0.179798 0.812038 0.498680
O O10 0.238981 0.723489 0.596432
O O11 0.500000 0.750000 0.369109
O O12 0.428998 0.573469 0.348681
O O13 0.398811 0.750000 0.250000
O O14 0.750000 0.000000 0.026496
#
# Coordination Sequence:
#
# PCOD8282111 Si02
#       6
#    16  16  16  16  16  16
#     4  10  20  35  57  84 115 152 189 240 303 357
#     4  10  22  38  59  84 115 151 193 245 292 343
#     4   9  18  35  58  84 113 151 200 243 287 354
#     4  10  20  36  58  85 111 148 197 238 281 341
#     4  10  20  34  56  84 113 148 188 235 288 346
#     4   9  18  34  59  86 113 150 193 243 298 347
#
# _framework density 20.376877
#
# number of rings (size 3 to 8) (size 9 to 14) (size 15 to 20)
#    0.000    2.333    0.000    3.000    0.000    5.000 
#    0.000    9.167    0.000    6.000    0.000    0.000 
#    0.000    0.000    0.000    0.000    0.000    0.000 
#
# Total GULP energy -594677.225959 kJ/mol
# GULP energy per Si atom -12389.108874 kJ/mol
# Density = 2.033050 g / cm^3
# Si number density = 20.376877 Si / 1000 Ang^3
#
#
#
# Elastic Constant Matrix: (Units=GPa)
#
#
# Indices 1 2 3 4 5 6 
#
# 1 97.0632 34.9403 64.9969 0.0000 0.0000 0.0000
# 2 34.9403 62.2880 24.7040 0.0000 0.0000 0.0000
# 3 64.9969 24.7040 103.2547 0.0000 0.0000 0.0000
# 4 0.0000 0.0000 0.0000 29.4232 0.0000 0.0000
# 5 0.0000 0.0000 0.0000 0.0000 28.6700 0.0000
# 6 0.0000 0.0000 0.0000 0.0000 0.0000 38.0459
#
#
#
# Elastic Compliance Matrix: (Units=1/GPa)
#
#
# Indices 1 2 3 4 5 6 
#
# 1 0.020210 -0.006951 -0.011059 0.000000 0.000000 0.000000
# 2 -0.006951 0.020128 -0.000440 0.000000 0.000000 0.000000
# 3 -0.011059 -0.000440 0.016752 0.000000 0.000000 0.000000
# 4 0.000000 0.000000 0.000000 0.033987 0.000000 0.000000
# 5 0.000000 0.000000 0.000000 0.000000 0.034880 0.000000
# 6 0.000000 0.000000 0.000000 0.000000 0.000000 0.026284
#
#
# Mechanical properties :
#
#
# Convention : Reuss Voigt Hill
#
# Bulk Modulus (GPa) = 49.53010 56.87649 53.20329
# Shear Modulus (GPa) = 25.52711 28.42545 26.97628
#
# Velocity S-wave (km/s) = 3.54326 3.73900 3.64245
# Velocity P-wave (km/s) = 6.41088 6.82737 6.62240
#
# Compressibility (1/GPa) = 0.02018974
#
# Stress axis : x y z
#
# Youngs Moduli (GPa) = 49.48023 49.68175 59.69610
#
# Poissons Ratio (x) = 0.34533 0.66017
# Poissons Ratio (y) = 0.34392 0.02629
# Poissons Ratio (z) = 0.54720 0.02188
#
# Static dielectric constant tensor:
#      x y z
#    x 3.700650 0.000000 0.000000 
#    y 0.000000 3.731780 0.000000 
#    z 0.000000 0.000000 3.751830 
# 
# 
# High freq. dielectric constant tensor:
#      x y z
#    x 1.803270 0.000000 0.000000 
#    y 0.000000 1.781080 0.000000 
#    z 0.000000 0.000000 1.778960 
# 
# From -- ./inp_files/33525.got.cif
#   From: 2010.03.12/outbox.cif.g09.slc.cpg/sg68_17_cif.got.tgz:33525.got - 2010.04.10 23:14:56.
