data_PCOD8282901
_publ_section_title
;
Structure prediction by ZEFSAII (Michael W. Deem and Ramdas Pophale) SiO2 
 PCOD8282901
Probable space group: C C C A
;
_chemical_formula_sum "Si O2"
_cell_formula_units_Z 64
_cell_length_a 5.046033
_cell_length_b 30.248226
_cell_length_c 18.214100
_cell_angle_alpha 90.000000
_cell_angle_beta 90.000000
_cell_angle_gamma 90.000000
_cell_volume 2780.082681
_symmetry_space_group_name_H-M "C C C A"
_symmetry_group_IT_number 68
_space_group.IT_coordinate_system_code '2'
_symmetry_cell_setting 'orthorhombic'
loop_
_space_group_symop_operation_xyz
x,y,z
-x,1/2-y,z
x,1/2-y,1/2-z
-x,y,1/2-z
-x,-y,-z
x,1/2+y,-z
-x,1/2+y,1/2+z
x,-y,1/2+z
1/2+x,1/2+y,z
1/2-x,-y,z
1/2+x,-y,1/2-z
1/2-x,1/2+y,1/2-z
1/2-x,1/2-y,-z
1/2+x,y,-z
1/2-x,y,1/2+z
1/2+x,1/2-y,1/2+z
loop_
_atom_site_type_symbol
_atom_site_label
_atom_site_fract_x
_atom_site_fract_y
_atom_site_fract_z
Si Si1 0.750000 0.500000 0.300889
Si Si2 0.256576 0.279764 0.356990
Si Si3 0.629945 0.407243 0.328492
Si Si4 0.333921 0.358920 0.452956
Si Si5 0.500000 0.655922 0.250000
O O1 0.500000 0.509301 0.250000
O O2 0.723561 0.456371 0.352853
O O3 0.500000 0.250000 0.332817
O O4 0.339804 0.307515 0.429154
O O5 0.000000 0.250000 0.373590
O O6 0.214898 0.313127 0.289198
O O7 0.500000 0.414173 0.250000
O O8 0.410203 0.390028 0.384912
O O9 0.869939 0.372553 0.316329
O O10 0.537712 0.369126 0.519122
#
# Coordination Sequence:
#
# PCOD8282901 Si02
#       5
#     8  16  16  16   8
#     4  10  22  40  70 112 138 168 226 292 338 404
#     4  12  27  44  67  99 137 183 237 296 346 405
#     4  11  23  44  75 104 137 182 229 286 340 420
#     4  12  27  46  68 100 142 188 230 282 350 416
#     4  12  23  42  72 104 140 174 234 292 355 400
#
# _framework density 23.020900000000001
#
# number of rings (size 3 to 8) (size 9 to 14) (size 15 to 20)
#    0.000    0.500    3.750    4.875    0.000    6.000 
#    0.000    1.250    0.000    0.000    0.000    0.000 
#    0.000    0.000    0.000    0.000    0.000    0.000 
#
# Total GULP energy -396844.078127 kJ/mol
# GULP energy per Si atom -12401.377441 kJ/mol
# Density = 2.296850 g / cm^3
# Si number density = 23.020900 Si / 1000 Ang^3
#
#
#
# Elastic Constant Matrix: (Units=GPa)
#
#
# Indices 1 2 3 4 5 6 
#
# 1 121.0061 51.7022 17.5435 0.0000 0.0000 0.0000
# 2 51.7022 170.4758 38.5833 0.0000 0.0000 0.0000
# 3 17.5435 38.5833 82.7211 0.0000 0.0000 0.0000
# 4 0.0000 0.0000 0.0000 -179.0799 0.0000 0.0000
# 5 0.0000 0.0000 0.0000 0.0000 46.5376 0.0000
# 6 0.0000 0.0000 0.0000 0.0000 0.0000 85.8191
#
#
#
# Elastic Compliance Matrix: (Units=1/GPa)
#
#
# Indices 1 2 3 4 5 6 
#
# 1 0.009536 -0.002722 -0.000753 0.000000 0.000000 0.000000
# 2 -0.002722 0.007335 -0.002844 0.000000 0.000000 0.000000
# 3 -0.000753 -0.002844 0.013575 0.000000 0.000000 0.000000
# 4 0.000000 0.000000 0.000000 -0.005584 0.000000 0.000000
# 5 0.000000 0.000000 0.000000 0.000000 0.021488 0.000000
# 6 0.000000 0.000000 0.000000 0.000000 0.000000 0.011652
#
#
# Mechanical properties :
#
#
# Convention : Reuss Voigt Hill
#
# Bulk Modulus (GPa) = 56.15197 65.54012 60.84604
# Shear Modulus (GPa) = 65.29441 8.41362 36.85401
#
# Velocity S-wave (km/s) = 5.33148 1.91382 4.00546
# Velocity P-wave (km/s) = 7.89584 5.78059 6.91952
#
# Compressibility (1/GPa) = 0.01780882
#
# Stress axis : x y z
#
# Youngs Moduli (GPa) = 104.86454 136.33137 73.66459
#
# Poissons Ratio (x) = 0.37106 0.05546
# Poissons Ratio (y) = 0.28541 0.20951
# Poissons Ratio (z) = 0.07896 0.38773
#
# Static dielectric constant tensor:
#      x y z
#    x 3.705120 0.000000 0.000000 
#    y 0.000000 4.701400 0.000000 
#    z 0.000000 0.000000 4.051890 
# 
# 
# High freq. dielectric constant tensor:
#      x y z
#    x 1.926510 0.000000 0.000000 
#    y 0.000000 1.919080 0.000000 
#    z 0.000000 0.000000 1.882380 
# 
# From -- ./inp_files/27145.got.cif
#   From: 2010.03.12/outbox.cif.g09.slc.cpg/sg68_14_cif.got.tgz:27145.got - 2010.04.10 23:14:56.
