data_PCOD8282367
_publ_section_title
;
Structure prediction by ZEFSAII (Michael W. Deem and Ramdas Pophale) SiO2 
 PCOD8282367
Probable space group: C C C A
;
_chemical_formula_sum "Si O2"
_cell_formula_units_Z 92
_cell_length_a 22.544634
_cell_length_b 21.596905
_cell_length_c 9.061660
_cell_angle_alpha 90.000000
_cell_angle_beta 90.000000
_cell_angle_gamma 90.000000
_cell_volume 4412.070773
_symmetry_space_group_name_H-M "C C C A"
_symmetry_group_IT_number 68
_space_group.IT_coordinate_system_code '2'
_symmetry_cell_setting 'orthorhombic'
loop_
_space_group_symop_operation_xyz
x,y,z
-x,1/2-y,z
x,1/2-y,1/2-z
-x,y,1/2-z
-x,-y,-z
x,1/2+y,-z
-x,1/2+y,1/2+z
x,-y,1/2+z
1/2+x,1/2+y,z
1/2-x,-y,z
1/2+x,-y,1/2-z
1/2-x,1/2+y,1/2-z
1/2-x,1/2-y,-z
1/2+x,y,-z
1/2-x,y,1/2+z
1/2+x,1/2-y,1/2+z
loop_
_atom_site_type_symbol
_atom_site_label
_atom_site_fract_x
_atom_site_fract_y
_atom_site_fract_z
Si Si1 0.909100 0.200079 0.032658
Si Si2 0.231333 0.646071 0.247020
Si Si3 0.000000 0.504361 0.750000
Si Si4 0.000000 0.750000 0.750000
Si Si5 0.864762 0.250000 0.750000
Si Si6 0.289184 0.439966 0.507897
Si Si7 0.814846 0.750000 0.750000
Si Si8 0.577762 0.059648 0.496775
O O1 0.963408 0.206336 0.143085
O O2 0.850196 0.217227 0.120232
O O3 0.909220 0.243023 0.888528
O O4 0.910082 0.131346 0.972937
O O5 0.172950 0.687598 0.214608
O O6 0.265596 0.616549 0.107814
O O7 0.214690 0.587007 0.343947
O O8 0.275908 0.695333 0.324429
O O9 0.953478 0.464305 0.653366
O O10 0.036961 0.547126 0.638732
O O11 0.250000 0.500000 0.528977
O O12 0.356279 0.466196 0.531243
#
# Coordination Sequence:
#
# PCOD8282367 Si02
#       8
#    16  16   8   4   8  16   8  16
#     4  11  22  42  64  99 127 173 219 283 329 399
#     4  11  22  42  61 102 132 175 211 264 348 419
#     4  10  27  46  72  88 130 192 231 288 328 394
#     4  10  26  40  64  92 132 168 230 270 344 386
#     4  11  22  38  70  96 136 170 218 271 346 408
#     4  12  26  39  67 100 139 171 220 281 341 408
#     4  10  20  39  70  90 138 175 210 260 344 424
#     4  11  24  48  67  96 131 175 237 278 337 400
#
# _framework density 20.851887000000001
#
# number of rings (size 3 to 8) (size 9 to 14) (size 15 to 20)
#    0.000    1.043    3.478    2.087    4.870    4.522 
#    0.000    1.739    0.000    0.000    0.000    0.000 
#    0.000    0.000    0.000    0.000    0.000    0.000 
#
# Total GULP energy -569989.138794 kJ/mol
# GULP energy per Si atom -12391.068235 kJ/mol
# Density = 2.080443 g / cm^3
# Si number density = 20.851887 Si / 1000 Ang^3
#
#
#
# Elastic Constant Matrix: (Units=GPa)
#
#
# Indices 1 2 3 4 5 6 
#
# 1 127.1526 46.2411 51.3843 0.0000 0.0000 0.0000
# 2 46.2411 103.5028 30.0587 0.0000 0.0000 0.0000
# 3 51.3843 30.0587 114.5539 0.0000 0.0000 0.0000
# 4 0.0000 0.0000 0.0000 31.2972 0.0000 0.0000
# 5 0.0000 0.0000 0.0000 0.0000 44.9982 0.0000
# 6 0.0000 0.0000 0.0000 0.0000 0.0000 45.1419
#
#
#
# Elastic Compliance Matrix: (Units=1/GPa)
#
#
# Indices 1 2 3 4 5 6 
#
# 1 0.010766 -0.003689 -0.003862 0.000000 0.000000 0.000000
# 2 -0.003689 0.011722 -0.001421 0.000000 0.000000 0.000000
# 3 -0.003862 -0.001421 0.010835 0.000000 0.000000 0.000000
# 4 0.000000 0.000000 0.000000 0.031952 0.000000 0.000000
# 5 0.000000 0.000000 0.000000 0.000000 0.022223 0.000000
# 6 0.000000 0.000000 0.000000 0.000000 0.000000 0.022152
#
#
# Mechanical properties :
#
#
# Convention : Reuss Voigt Hill
#
# Bulk Modulus (GPa) = 65.01778 66.73082 65.87430
# Shear Modulus (GPa) = 37.67320 38.78914 38.23117
#
# Velocity S-wave (km/s) = 4.25515 4.31771 4.28654
# Velocity P-wave (km/s) = 7.44246 7.54510 7.49396
#
# Compressibility (1/GPa) = 0.01538041
#
# Stress axis : x y z
#
# Youngs Moduli (GPa) = 92.88073 85.30761 92.29687
#
# Poissons Ratio (x) = 0.31467 0.35641
# Poissons Ratio (y) = 0.34260 0.13119
# Poissons Ratio (z) = 0.35866 0.12125
#
# Static dielectric constant tensor:
#      x y z
#    x 4.139100 0.000000 0.000000 
#    y 0.000000 3.717450 0.000000 
#    z 0.000000 0.000000 3.774860 
# 
# 
# High freq. dielectric constant tensor:
#      x y z
#    x 1.825100 0.000000 0.000000 
#    y 0.000000 1.820430 0.000000 
#    z 0.000000 0.000000 1.818760 
# 
# From -- ./inp_files/7196.got.cif
#   From: 2010.03.12/outbox.cif.g09.slc.cpg/sg68_4_cif.got.tgz:7196.got - 2010.04.10 23:14:56.
