data_PCOD8282976
_publ_section_title
;
Structure prediction by ZEFSAII (Michael W. Deem and Ramdas Pophale) SiO2 
 PCOD8282976
Probable space group: C C C A
;
_chemical_formula_sum "Si O2"
_cell_formula_units_Z 36
_cell_length_a 5.087103
_cell_length_b 13.492313
_cell_length_c 18.203952
_cell_angle_alpha 90.000000
_cell_angle_beta 90.000000
_cell_angle_gamma 90.000000
_cell_volume 1249.460757
_symmetry_space_group_name_H-M "C C C A"
_symmetry_group_IT_number 68
_space_group.IT_coordinate_system_code '2'
_symmetry_cell_setting 'orthorhombic'
loop_
_space_group_symop_operation_xyz
x,y,z
-x,1/2-y,z
x,1/2-y,1/2-z
-x,y,1/2-z
-x,-y,-z
x,1/2+y,-z
-x,1/2+y,1/2+z
x,-y,1/2+z
1/2+x,1/2+y,z
1/2-x,-y,z
1/2+x,-y,1/2-z
1/2-x,1/2+y,1/2-z
1/2-x,1/2-y,-z
1/2+x,y,-z
1/2-x,y,1/2+z
1/2+x,1/2-y,1/2+z
loop_
_atom_site_type_symbol
_atom_site_label
_atom_site_fract_x
_atom_site_fract_y
_atom_site_fract_z
Si Si1 0.377175 0.401852 0.675243
Si Si2 0.500000 0.250000 0.250000
Si Si3 0.208692 0.384598 0.460602
O O1 0.500000 0.443023 0.750000
O O2 0.250000 0.500000 0.636866
O O3 0.175308 0.315025 0.694731
O O4 0.606110 0.360088 0.621781
O O5 0.250000 0.500000 0.471590
O O6 0.493966 0.339115 0.481280
#
# Coordination Sequence:
#
# PCOD8282976 Si02
#       3
#    16   4  16
#     4  12  25  47  79 109 155 207 260 322 392 463
#     4  12  30  48  72 116 156 204 268 328 378 458
#     4  10  22  42  76 116 153 199 257 318 390 466
#
# _framework density 28.812429000000002
#
# number of rings (size 3 to 8) (size 9 to 14) (size 15 to 20)
#    0.000    0.889    2.222    6.000    6.222    0.000 
#    0.000    2.222    0.000    0.000    0.000    0.000 
#    0.000    0.000    0.000    0.000    0.000    0.000 
#
# Total GULP energy -223082.118719 kJ/mol
# GULP energy per Si atom -12393.451040 kJ/mol
# Density = 2.874685 g / cm^3
# Si number density = 28.812429 Si / 1000 Ang^3
#
#
#
# Elastic Constant Matrix: (Units=GPa)
#
#
# Indices 1 2 3 4 5 6 
#
# 1 138.3979 35.0478 11.8466 0.0000 0.0000 0.0000
# 2 35.0478 130.8001 16.2639 0.0000 0.0000 0.0000
# 3 11.8466 16.2639 147.1291 0.0000 0.0000 0.0000
# 4 0.0000 0.0000 0.0000 54.4007 0.0000 0.0000
# 5 0.0000 0.0000 0.0000 0.0000 41.3852 0.0000
# 6 0.0000 0.0000 0.0000 0.0000 0.0000 -8.5460
#
#
#
# Elastic Compliance Matrix: (Units=1/GPa)
#
#
# Indices 1 2 3 4 5 6 
#
# 1 0.007775 -0.002033 -0.000401 0.000000 0.000000 0.000000
# 2 -0.002033 0.008284 -0.000752 0.000000 0.000000 0.000000
# 3 -0.000401 -0.000752 0.006912 0.000000 0.000000 0.000000
# 4 0.000000 0.000000 0.000000 0.018382 0.000000 0.000000
# 5 0.000000 0.000000 0.000000 0.000000 0.024163 0.000000
# 6 0.000000 0.000000 0.000000 0.000000 0.000000 -0.117013
#
#
# Mechanical properties :
#
#
# Convention : Reuss Voigt Hill
#
# Bulk Modulus (GPa) = 60.25020 60.29374 60.27197
# Shear Modulus (GPa) = -126.28927 40.99256 -42.64836
#
# Velocity S-wave (km/s) = -6.62772 3.77601 -3.85152
# Velocity P-wave (km/s) = 6.13289 6.32319 1.08868
#
# Compressibility (1/GPa) = 0.01659745
#
# Stress axis : x y z
#
# Youngs Moduli (GPa) = 128.62039 120.72059 144.67214
#
# Poissons Ratio (x) = 0.24547 0.05805
# Poissons Ratio (y) = 0.26153 0.10879
# Poissons Ratio (z) = 0.05161 0.09078
#
# Static dielectric constant tensor:
#      x y z
#    x 6.532940 0.000000 0.000000 
#    y 0.000000 5.114260 0.000000 
#    z 0.000000 0.000000 5.170440 
# 
# 
# High freq. dielectric constant tensor:
#      x y z
#    x 2.185490 0.000000 0.000000 
#    y 0.000000 2.164750 0.000000 
#    z 0.000000 0.000000 2.168130 
# 
# From -- ./inp_files/34590.got.cif
#   From: 2010.03.12/outbox.cif.g09.slc.cpg/sg68_18_cif.got.tgz:34590.got - 2010.04.10 23:14:56.
