data_PCOD8282300
_publ_section_title
;
Structure prediction by ZEFSAII (Michael W. Deem and Ramdas Pophale) SiO2 
 PCOD8282300
Probable space group: C C C A
;
_chemical_formula_sum "Si O2"
_cell_formula_units_Z 88
_cell_length_a 18.114633
_cell_length_b 12.016569
_cell_length_c 18.925136
_cell_angle_alpha 90.000000
_cell_angle_beta 90.000000
_cell_angle_gamma 90.000000
_cell_volume 4119.542933
_symmetry_space_group_name_H-M "C C C A"
_symmetry_group_IT_number 68
_space_group.IT_coordinate_system_code '2'
_symmetry_cell_setting 'orthorhombic'
loop_
_space_group_symop_operation_xyz
x,y,z
-x,1/2-y,z
x,1/2-y,1/2-z
-x,y,1/2-z
-x,-y,-z
x,1/2+y,-z
-x,1/2+y,1/2+z
x,-y,1/2+z
1/2+x,1/2+y,z
1/2-x,-y,z
1/2+x,-y,1/2-z
1/2-x,1/2+y,1/2-z
1/2-x,1/2-y,-z
1/2+x,y,-z
1/2-x,y,1/2+z
1/2+x,1/2-y,1/2+z
loop_
_atom_site_type_symbol
_atom_site_label
_atom_site_fract_x
_atom_site_fract_y
_atom_site_fract_z
Si Si1 0.500000 0.250000 0.552604
Si Si2 0.875539 0.117079 0.392335
Si Si3 0.831821 0.043286 0.782629
Si Si4 0.326941 0.940808 0.872713
Si Si5 0.708190 0.194960 0.406732
Si Si6 0.394749 0.429864 0.504307
O O1 0.566791 0.282712 0.604767
O O2 0.468129 0.351594 0.504549
O O3 0.794525 0.166163 0.407354
O O4 0.879406 0.057558 0.316122
O O5 0.904259 0.030949 0.450780
O O6 0.863232 0.076381 0.705458
O O7 0.831726 0.147096 0.836609
O O8 0.750000 0.000000 0.773752
O O9 0.311138 0.824260 0.910774
O O10 0.250000 0.000000 0.862664
O O11 0.381032 0.018263 0.918357
O O12 0.675696 0.141772 0.478319
#
# Coordination Sequence:
#
# PCOD8282300 Si02
#       6
#     8  16  16  16  16  16
#     4  12  24  38  57  82 119 164 200 238 296 356
#     4  10  21  39  59  86 120 154 194 246 300 355
#     4   8  18  36  58  84 114 147 187 235 287 347
#     4  11  20  33  58  89 115 144 189 241 292 349
#     4  10  20  38  63  87 116 150 191 247 304 348
#     4  11  23  38  58  85 118 155 200 247 290 349
#
# _framework density 21.361594
#
# number of rings (size 3 to 8) (size 9 to 14) (size 15 to 20)
#    0.000    1.818    0.000    6.000    0.000    2.182 
#    0.000    4.545    0.000    0.000    0.000    7.636 
#    0.000    0.000    0.000    0.000    0.000    0.000 
#
# Total GULP energy -545383.106495 kJ/mol
# GULP energy per Si atom -12395.070602 kJ/mol
# Density = 2.131297 g / cm^3
# Si number density = 21.361594 Si / 1000 Ang^3
#
#
#
# Elastic Constant Matrix: (Units=GPa)
#
#
# Indices 1 2 3 4 5 6 
#
# 1 94.1894 41.7953 34.3657 0.0000 0.0000 0.0000
# 2 41.7953 117.2739 47.7890 0.0000 0.0000 0.0000
# 3 34.3657 47.7890 131.7033 0.0000 0.0000 0.0000
# 4 0.0000 0.0000 0.0000 18.5946 0.0000 0.0000
# 5 0.0000 0.0000 0.0000 0.0000 8.8034 0.0000
# 6 0.0000 0.0000 0.0000 0.0000 0.0000 44.2372
#
#
#
# Elastic Compliance Matrix: (Units=1/GPa)
#
#
# Indices 1 2 3 4 5 6 
#
# 1 0.013052 -0.003830 -0.002016 0.000000 0.000000 0.000000
# 2 -0.003830 0.011131 -0.003039 0.000000 0.000000 0.000000
# 3 -0.002016 -0.003039 0.009222 0.000000 0.000000 0.000000
# 4 0.000000 0.000000 0.000000 0.053779 0.000000 0.000000
# 5 0.000000 0.000000 0.000000 0.000000 0.113593 0.000000
# 6 0.000000 0.000000 0.000000 0.000000 0.000000 0.022605
#
#
# Mechanical properties :
#
#
# Convention : Reuss Voigt Hill
#
# Bulk Modulus (GPa) = 63.96536 65.67407 64.81972
# Shear Modulus (GPa) = 20.29523 28.94149 24.61836
#
# Velocity S-wave (km/s) = 3.08568 3.68480 3.39847
# Velocity P-wave (km/s) = 6.53486 6.99389 6.76826
#
# Compressibility (1/GPa) = 0.01563346
#
# Stress axis : x y z
#
# Youngs Moduli (GPa) = 76.61662 89.84237 108.43998
#
# Poissons Ratio (x) = 0.34411 0.21861
# Poissons Ratio (y) = 0.29345 0.32959
# Poissons Ratio (z) = 0.15445 0.27306
#
# Static dielectric constant tensor:
#      x y z
#    x 3.497780 0.000000 0.000000 
#    y 0.000000 4.124970 0.000000 
#    z 0.000000 0.000000 4.247520 
# 
# 
# High freq. dielectric constant tensor:
#      x y z
#    x 1.807260 0.000000 0.000000 
#    y 0.000000 1.853810 0.000000 
#    z 0.000000 0.000000 1.835030 
# 
# From -- ./inp_files/39577.got.cif
#   From: 2010.03.12/outbox.cif.g09.slc.cpg/sg68_20_cif.got.tgz:39577.got - 2010.04.10 23:14:56.
