data_PCOD8282161
_publ_section_title
;
Structure prediction by ZEFSAII (Michael W. Deem and Ramdas Pophale) SiO2 
 PCOD8282161
Probable space group: C C C A
;
_chemical_formula_sum "Si O2"
_cell_formula_units_Z 88
_cell_length_a 11.110201
_cell_length_b 17.210952
_cell_length_c 24.431679
_cell_angle_alpha 90.000000
_cell_angle_beta 90.000000
_cell_angle_gamma 90.000000
_cell_volume 4671.755689
_symmetry_space_group_name_H-M "C C C A"
_symmetry_group_IT_number 68
_space_group.IT_coordinate_system_code '2'
_symmetry_cell_setting 'orthorhombic'
loop_
_space_group_symop_operation_xyz
x,y,z
-x,1/2-y,z
x,1/2-y,1/2-z
-x,y,1/2-z
-x,-y,-z
x,1/2+y,-z
-x,1/2+y,1/2+z
x,-y,1/2+z
1/2+x,1/2+y,z
1/2-x,-y,z
1/2+x,-y,1/2-z
1/2-x,1/2+y,1/2-z
1/2-x,1/2-y,-z
1/2+x,y,-z
1/2-x,y,1/2+z
1/2+x,1/2-y,1/2+z
loop_
_atom_site_type_symbol
_atom_site_label
_atom_site_fract_x
_atom_site_fract_y
_atom_site_fract_z
Si Si1 0.624989 0.453539 0.999000
Si Si2 0.373763 0.542891 0.119878
Si Si3 0.000000 0.750000 0.160467
Si Si4 0.126518 0.384830 0.233816
Si Si5 0.075552 0.410972 0.885364
Si Si6 0.750000 0.500000 0.191451
Si Si7 0.195373 0.250000 0.750000
O O1 0.750000 0.500000 0.003137
O O2 0.623123 0.399082 0.052351
O O3 0.500000 0.500000 0.000000
O O4 0.625889 0.411936 0.939049
O O5 0.250000 0.500000 0.129093
O O6 0.382530 0.604408 0.168542
O O7 0.480512 0.480204 0.121483
O O8 0.013585 0.828517 0.125931
O O9 0.118196 0.740846 0.196002
O O10 0.149015 0.463928 0.268117
O O11 0.228408 0.327275 0.253532
O O12 0.000000 0.347848 0.250000
O O13 0.187496 0.433429 0.845954
#
# Coordination Sequence:
#
# PCOD8282161 Si02
#       7
#    16  16   8  16  16   8   8
#     4   9  19  35  61  89 118 157 206 258 308 362
#     4  10  20  35  60  89 116 154 206 249 298 364
#     4  11  24  38  62  86 124 158 197 254 320 372
#     4  12  23  37  60  85 122 161 202 252 308 372
#     4  11  21  39  62  89 121 157 204 258 309 366
#     4  12  22  36  62  94 114 156 214 252 294 376
#     4  11  25  40  54  86 125 163 196 246 322 379
#
# _framework density 18.836601999999999
#
# number of rings (size 3 to 8) (size 9 to 14) (size 15 to 20)
#    0.000    1.273    5.455    1.364    0.000    0.000 
#    0.000    0.000    4.000   10.909    0.000    0.000 
#    0.000    0.000    0.000    0.000    0.000    0.000 
#
# Total GULP energy -545155.964701 kJ/mol
# GULP energy per Si atom -12389.908289 kJ/mol
# Density = 1.879373 g / cm^3
# Si number density = 18.836602 Si / 1000 Ang^3
#
#
#
# Elastic Constant Matrix: (Units=GPa)
#
#
# Indices 1 2 3 4 5 6 
#
# 1 117.2293 23.8748 46.0992 0.0000 0.0000 0.0000
# 2 23.8748 77.1027 53.4118 0.0000 0.0000 0.0000
# 3 46.0992 53.4118 179.6293 0.0000 0.0000 0.0000
# 4 0.0000 0.0000 0.0000 26.9429 0.0000 0.0000
# 5 0.0000 0.0000 0.0000 0.0000 35.8723 0.0000
# 6 0.0000 0.0000 0.0000 0.0000 0.0000 31.0216
#
#
#
# Elastic Compliance Matrix: (Units=1/GPa)
#
#
# Indices 1 2 3 4 5 6 
#
# 1 0.009642 -0.001601 -0.001998 0.000000 0.000000 0.000000
# 2 -0.001601 0.016600 -0.004525 0.000000 0.000000 0.000000
# 3 -0.001998 -0.004525 0.007425 0.000000 0.000000 0.000000
# 4 0.000000 0.000000 0.000000 0.037116 0.000000 0.000000
# 5 0.000000 0.000000 0.000000 0.000000 0.027877 0.000000
# 6 0.000000 0.000000 0.000000 0.000000 0.000000 0.032236
#
#
# Mechanical properties :
#
#
# Convention : Reuss Voigt Hill
#
# Bulk Modulus (GPa) = 57.41086 68.97031 63.19058
# Shear Modulus (GPa) = 32.69014 35.47239 34.08127
#
# Velocity S-wave (km/s) = 4.17040 4.34425 4.25821
# Velocity P-wave (km/s) = 7.33036 7.86498 7.60237
#
# Compressibility (1/GPa) = 0.01741831
#
# Stress axis : x y z
#
# Youngs Moduli (GPa) = 103.71007 60.24019 134.67352
#
# Poissons Ratio (x) = 0.09647 0.26913
# Poissons Ratio (y) = 0.16608 0.60940
# Poissons Ratio (z) = 0.20725 0.27259
#
# Static dielectric constant tensor:
#      x y z
#    x 3.668680 0.000000 0.000000 
#    y 0.000000 2.972730 0.000000 
#    z 0.000000 0.000000 4.047330 
# 
# 
# High freq. dielectric constant tensor:
#      x y z
#    x 1.756610 0.000000 0.000000 
#    y 0.000000 1.681820 0.000000 
#    z 0.000000 0.000000 1.755830 
# 
# From -- ./inp_files/37514.got.cif
#   From: 2010.03.12/outbox.cif.g09.slc.cpg/sg68_19_cif.got.tgz:37514.got - 2010.04.10 23:14:56.
