data_PCOD8282193
_publ_section_title
;
Structure prediction by ZEFSAII (Michael W. Deem and Ramdas Pophale) SiO2 
 PCOD8282193
Probable space group: C C C A
;
_chemical_formula_sum "Si O2"
_cell_formula_units_Z 116
_cell_length_a 14.961826
_cell_length_b 22.516065
_cell_length_c 16.751885
_cell_angle_alpha 90.000000
_cell_angle_beta 90.000000
_cell_angle_gamma 90.000000
_cell_volume 5643.399254
_symmetry_space_group_name_H-M "C C C A"
_symmetry_group_IT_number 68
_space_group.IT_coordinate_system_code '2'
_symmetry_cell_setting 'orthorhombic'
loop_
_space_group_symop_operation_xyz
x,y,z
-x,1/2-y,z
x,1/2-y,1/2-z
-x,y,1/2-z
-x,-y,-z
x,1/2+y,-z
-x,1/2+y,1/2+z
x,-y,1/2+z
1/2+x,1/2+y,z
1/2-x,-y,z
1/2+x,-y,1/2-z
1/2-x,1/2+y,1/2-z
1/2-x,1/2-y,-z
1/2+x,y,-z
1/2-x,y,1/2+z
1/2+x,1/2-y,1/2+z
loop_
_atom_site_type_symbol
_atom_site_label
_atom_site_fract_x
_atom_site_fract_y
_atom_site_fract_z
Si Si1 0.254312 0.375304 0.996514
Si Si2 0.089329 0.148784 0.294276
Si Si3 0.500000 0.750000 0.750000
Si Si4 0.587325 0.935450 0.063472
Si Si5 0.878423 0.846306 0.191443
Si Si6 0.750249 0.650490 0.174608
Si Si7 0.434631 0.425164 0.059238
Si Si8 0.720448 0.217600 0.610474
O O1 0.244688 0.390156 0.903137
O O2 0.188975 0.418889 0.044007
O O3 0.356074 0.391043 0.014276
O O4 0.228654 0.304799 0.017401
O O5 0.064471 0.092103 0.349746
O O6 0.164695 0.133656 0.227988
O O7 0.123159 0.202296 0.351954
O O8 0.000000 0.170144 0.250000
O O9 0.559187 0.710949 0.809036
O O10 0.580372 0.005569 0.069429
O O11 0.523107 0.911225 0.992605
O O12 0.844623 0.861626 0.280913
O O13 0.935911 0.898439 0.149412
O O14 0.787158 0.831528 0.146702
O O15 0.745121 0.717213 0.138561
#
# Coordination Sequence:
#
# PCOD8282193 Si02
#       8
#    16  16   4  16  16  16  16  16
#     4  10  21  36  61  84 115 155 195 240 289 357
#     4  10  20  36  59  83 113 149 195 244 292 343
#     4  12  20  36  60  84 122 144 182 240 294 364
#     4  10  22  41  61  81 112 157 201 246 293 352
#     4  10  21  35  58  84 115 150 183 237 298 350
#     4  11  20  36  56  88 121 149 191 241 296 352
#     4  10  22  42  59  81 115 154 199 245 296 352
#     4   9  19  37  54  81 117 155 184 226 293 353
#
# _framework density 20.554987000000001
#
# number of rings (size 3 to 8) (size 9 to 14) (size 15 to 20)
#    0.000    1.931    1.379    3.724    1.931    1.103 
#    1.241    2.759    0.000    0.000    0.000    0.000 
#    0.000    0.000    0.000    0.000    0.000    0.000 
#
# Total GULP energy -718594.504177 kJ/mol
# GULP energy per Si atom -12389.560417 kJ/mol
# Density = 2.050820 g / cm^3
# Si number density = 20.554987 Si / 1000 Ang^3
#
#
#
# Elastic Constant Matrix: (Units=GPa)
#
#
# Indices 1 2 3 4 5 6 
#
# 1 88.5740 24.2137 31.4786 0.0000 0.0000 0.0000
# 2 24.2137 80.5964 34.2647 0.0000 0.0000 0.0000
# 3 31.4786 34.2647 124.3904 0.0000 0.0000 0.0000
# 4 0.0000 0.0000 0.0000 24.8085 0.0000 0.0000
# 5 0.0000 0.0000 0.0000 0.0000 35.5253 0.0000
# 6 0.0000 0.0000 0.0000 0.0000 0.0000 21.4646
#
#
#
# Elastic Compliance Matrix: (Units=1/GPa)
#
#
# Indices 1 2 3 4 5 6 
#
# 1 0.012951 -0.002829 -0.002498 0.000000 0.000000 0.000000
# 2 -0.002829 0.014671 -0.003325 0.000000 0.000000 0.000000
# 3 -0.002498 -0.003325 0.009587 0.000000 0.000000 0.000000
# 4 0.000000 0.000000 0.000000 0.040309 0.000000 0.000000
# 5 0.000000 0.000000 0.000000 0.000000 0.028149 0.000000
# 6 0.000000 0.000000 0.000000 0.000000 0.000000 0.046588
#
#
# Mechanical properties :
#
#
# Convention : Reuss Voigt Hill
#
# Bulk Modulus (GPa) = 50.23933 52.60831 51.42382
# Shear Modulus (GPa) = 28.37750 29.93326 29.15538
#
# Velocity S-wave (km/s) = 3.71963 3.82023 3.77026
# Velocity P-wave (km/s) = 6.55301 6.71628 6.63515
#
# Compressibility (1/GPa) = 0.01990473
#
# Stress axis : x y z
#
# Youngs Moduli (GPa) = 77.21305 68.16089 104.30302
#
# Poissons Ratio (x) = 0.19282 0.26057
# Poissons Ratio (y) = 0.21842 0.34686
# Poissons Ratio (z) = 0.19290 0.22667
#
# Static dielectric constant tensor:
#      x y z
#    x 3.793780 0.000000 0.000000 
#    y 0.000000 3.452070 0.000000 
#    z 0.000000 0.000000 4.209980 
# 
# 
# High freq. dielectric constant tensor:
#      x y z
#    x 1.807160 0.000000 0.000000 
#    y 0.000000 1.778990 0.000000 
#    z 0.000000 0.000000 1.818080 
# 
# From -- ./inp_files/31262.got.cif
#   From: 2010.03.12/outbox.cif.g09.slc.cpg/sg68_16_cif.got.tgz:31262.got - 2010.04.10 23:14:56.
