data_PCOD8282321
_publ_section_title
;
Structure prediction by ZEFSAII (Michael W. Deem and Ramdas Pophale) SiO2 
 PCOD8282321
Probable space group: C C C A
;
_chemical_formula_sum "Si O2"
_cell_formula_units_Z 104
_cell_length_a 21.078267
_cell_length_b 29.174103
_cell_length_c 8.769918
_cell_angle_alpha 90.000000
_cell_angle_beta 90.000000
_cell_angle_gamma 90.000000
_cell_volume 5392.969275
_symmetry_space_group_name_H-M "C C C A"
_symmetry_group_IT_number 68
_space_group.IT_coordinate_system_code '2'
_symmetry_cell_setting 'orthorhombic'
loop_
_space_group_symop_operation_xyz
x,y,z
-x,1/2-y,z
x,1/2-y,1/2-z
-x,y,1/2-z
-x,-y,-z
x,1/2+y,-z
-x,1/2+y,1/2+z
x,-y,1/2+z
1/2+x,1/2+y,z
1/2-x,-y,z
1/2+x,-y,1/2-z
1/2-x,1/2+y,1/2-z
1/2-x,1/2-y,-z
1/2+x,y,-z
1/2-x,y,1/2+z
1/2+x,1/2-y,1/2+z
loop_
_atom_site_type_symbol
_atom_site_label
_atom_site_fract_x
_atom_site_fract_y
_atom_site_fract_z
Si Si1 0.000000 0.750000 0.498632
Si Si2 0.129365 0.214658 0.867664
Si Si3 0.719154 0.434209 0.725395
Si Si4 0.500000 0.825165 0.250000
Si Si5 0.677360 0.638487 0.662596
Si Si6 0.371060 0.360420 0.667913
Si Si7 0.250000 0.500000 0.522120
Si Si8 0.789388 0.706200 0.666655
O O1 0.941721 0.733513 0.394473
O O2 0.013542 0.705871 0.602366
O O3 0.160920 0.250000 0.750000
O O4 0.134737 0.162867 0.795496
O O5 0.168921 0.218333 0.020976
O O6 0.788926 0.408931 0.719014
O O7 0.662922 0.398374 0.729189
O O8 0.706232 0.467750 0.583364
O O9 0.710224 0.465147 0.875204
O O10 0.440198 0.858962 0.254833
O O11 0.633058 0.629460 0.514020
O O12 0.734375 0.672029 0.613546
O O13 0.335540 0.313099 0.702039
O O14 0.759128 0.750000 0.750000
#
# Coordination Sequence:
#
# PCOD8282321 Si02
#       8
#     8  16  16   8  16  16   8  16
#     4  11  23  40  54  80 112 172 230 256 286 344
#     4  12  24  36  55  81 117 165 209 260 294 343
#     4  10  21  38  64  98 125 152 190 245 317 390
#     4  11  22  38  62  76 120 170 220 256 292 342
#     4  11  23  37  58  90 124 150 199 257 314 365
#     4  11  22  38  58  87 120 162 207 249 296 369
#     4  10  20  38  66  98 126 152 180 244 324 392
#     4  11  21  36  55  81 118 158 199 253 309 360
#
# _framework density 19.284367
#
# number of rings (size 3 to 8) (size 9 to 14) (size 15 to 20)
#    0.000    1.077    3.077    5.308    2.154    1.846 
#    0.000    0.000    0.000    0.923    0.000    0.000 
#    0.000    0.000    0.000    0.000    0.000    0.000 
#
# Total GULP energy -644278.513820 kJ/mol
# GULP energy per Si atom -12389.971420 kJ/mol
# Density = 1.924047 g / cm^3
# Si number density = 19.284367 Si / 1000 Ang^3
#
#
#
# Elastic Constant Matrix: (Units=GPa)
#
#
# Indices 1 2 3 4 5 6 
#
# 1 117.7829 37.7834 36.5636 0.0000 0.0000 0.0000
# 2 37.7834 97.4808 46.7962 0.0000 0.0000 0.0000
# 3 36.5636 46.7962 109.1596 0.0000 0.0000 0.0000
# 4 0.0000 0.0000 0.0000 165.7483 0.0000 0.0000
# 5 0.0000 0.0000 0.0000 0.0000 27.3363 0.0000
# 6 0.0000 0.0000 0.0000 0.0000 0.0000 10.7807
#
#
#
# Elastic Compliance Matrix: (Units=1/GPa)
#
#
# Indices 1 2 3 4 5 6 
#
# 1 0.010078 -0.002878 -0.002142 0.000000 0.000000 0.000000
# 2 -0.002878 0.013739 -0.004926 0.000000 0.000000 0.000000
# 3 -0.002142 -0.004926 0.011990 0.000000 0.000000 0.000000
# 4 0.000000 0.000000 0.000000 0.006033 0.000000 0.000000
# 5 0.000000 0.000000 0.000000 0.000000 0.036581 0.000000
# 6 0.000000 0.000000 0.000000 0.000000 0.000000 0.092759
#
#
# Mechanical properties :
#
#
# Convention : Reuss Voigt Hill
#
# Bulk Modulus (GPa) = 62.83182 62.96773 62.89977
# Shear Modulus (GPa) = 25.46128 54.32506 39.89317
#
# Velocity S-wave (km/s) = 3.63754 5.31335 4.55321
# Velocity P-wave (km/s) = 7.09188 8.38840 7.76724
#
# Compressibility (1/GPa) = 0.01591550
#
# Stress axis : x y z
#
# Youngs Moduli (GPa) = 99.22211 72.78794 83.40311
#
# Poissons Ratio (x) = 0.20949 0.17865
# Poissons Ratio (y) = 0.28557 0.41081
# Poissons Ratio (z) = 0.21253 0.35853
#
# Static dielectric constant tensor:
#      x y z
#    x 3.369150 0.000000 0.000000 
#    y 0.000000 3.521070 0.000000 
#    z 0.000000 0.000000 3.813450 
# 
# 
# High freq. dielectric constant tensor:
#      x y z
#    x 1.722670 0.000000 0.000000 
#    y 0.000000 1.738900 0.000000 
#    z 0.000000 0.000000 1.770270 
# 
# From -- ./inp_files/7420.got.cif
#   From: 2010.03.12/outbox.cif.g09.slc.cpg/sg68_4_cif.got.tgz:7420.got - 2010.04.10 23:14:56.
