data_PCOD8282045
_publ_section_title
;
Structure prediction by ZEFSAII (Michael W. Deem and Ramdas Pophale) SiO2 
 PCOD8282045
Probable space group: C C C A
;
_chemical_formula_sum "Si O2"
_cell_formula_units_Z 104
_cell_length_a 9.917663
_cell_length_b 21.942868
_cell_length_c 26.677018
_cell_angle_alpha 90.000000
_cell_angle_beta 90.000000
_cell_angle_gamma 90.000000
_cell_volume 5805.505213
_symmetry_space_group_name_H-M "C C C A"
_symmetry_group_IT_number 68
_space_group.IT_coordinate_system_code '2'
_symmetry_cell_setting 'orthorhombic'
loop_
_space_group_symop_operation_xyz
x,y,z
-x,1/2-y,z
x,1/2-y,1/2-z
-x,y,1/2-z
-x,-y,-z
x,1/2+y,-z
-x,1/2+y,1/2+z
x,-y,1/2+z
1/2+x,1/2+y,z
1/2-x,-y,z
1/2+x,-y,1/2-z
1/2-x,1/2+y,1/2-z
1/2-x,1/2-y,-z
1/2+x,y,-z
1/2-x,y,1/2+z
1/2+x,1/2-y,1/2+z
loop_
_atom_site_type_symbol
_atom_site_label
_atom_site_fract_x
_atom_site_fract_y
_atom_site_fract_z
Si Si1 0.492104 0.660835 0.308369
Si Si2 0.708285 0.263861 0.851271
Si Si3 0.601149 0.801869 0.045518
Si Si4 0.583581 0.395940 0.600115
Si Si5 0.605541 0.013924 0.458835
Si Si6 0.644359 0.649975 0.559910
Si Si7 0.500000 0.750000 0.877899
O O1 0.500000 0.647201 0.250000
O O2 0.380589 0.710644 0.325415
O O3 0.644513 0.676995 0.325212
O O4 0.450176 0.601795 0.340503
O O5 0.694394 0.269278 0.912194
O O6 0.869321 0.260846 0.841829
O O7 0.500000 0.750000 0.026687
O O8 0.531776 0.861749 0.068688
O O9 0.680614 0.824523 0.995885
O O10 0.593571 0.466725 0.587065
O O11 0.718352 0.355551 0.591366
O O12 0.580947 0.082602 0.441416
O O13 0.500000 0.000000 0.500000
O O14 0.750000 0.000000 0.483819
O O15 0.533912 0.691538 0.587708
#
# Coordination Sequence:
#
# PCOD8282045 Si02
#       7
#    16  16  16  16  16  16   8
#     4  10  19  39  62  79 104 145 196 239 281 335
#     4  10  20  33  51  84 112 145 180 233 275 337
#     4  11  18  29  50  75 115 152 188 217 266 334
#     4  10  20  37  53  82 113 145 200 236 271 335
#     4  10  21  36  54  80 112 155 193 227 272 338
#     4  11  22  31  52  80 118 157 182 222 287 340
#     4  12  22  32  51  82 120 142 177 226 296 336
#
# _framework density 17.914031999999999
#
# number of rings (size 3 to 8) (size 9 to 14) (size 15 to 20)
#    0.000    1.538    6.923    0.923    2.154    1.231 
#    0.000    1.538    0.000    0.000   12.000    0.000 
#    0.000    0.000    0.000    0.000    0.000    0.000 
#
# Total GULP energy -644180.375946 kJ/mol
# GULP energy per Si atom -12388.084153 kJ/mol
# Density = 1.787326 g / cm^3
# Si number density = 17.914032 Si / 1000 Ang^3
#
#
#
# Elastic Constant Matrix: (Units=GPa)
#
#
# Indices 1 2 3 4 5 6 
#
# 1 112.9293 28.0068 48.1380 0.0000 0.0000 0.0000
# 2 28.0068 88.2748 36.0950 0.0000 0.0000 0.0000
# 3 48.1380 36.0950 138.1831 0.0000 0.0000 0.0000
# 4 0.0000 0.0000 0.0000 14.4407 0.0000 0.0000
# 5 0.0000 0.0000 0.0000 0.0000 19.1044 0.0000
# 6 0.0000 0.0000 0.0000 0.0000 0.0000 20.0509
#
#
#
# Elastic Compliance Matrix: (Units=1/GPa)
#
#
# Indices 1 2 3 4 5 6 
#
# 1 0.010737 -0.002101 -0.003191 0.000000 0.000000 0.000000
# 2 -0.002101 0.013094 -0.002688 0.000000 0.000000 0.000000
# 3 -0.003191 -0.002688 0.009051 0.000000 0.000000 0.000000
# 4 0.000000 0.000000 0.000000 0.069249 0.000000 0.000000
# 5 0.000000 0.000000 0.000000 0.000000 0.052344 0.000000
# 6 0.000000 0.000000 0.000000 0.000000 0.000000 0.049873
#
#
# Mechanical properties :
#
#
# Convention : Reuss Voigt Hill
#
# Bulk Modulus (GPa) = 59.10372 62.65185 60.87779
# Shear Modulus (GPa) = 22.12888 25.86237 23.99562
#
# Velocity S-wave (km/s) = 3.51847 3.80372 3.66387
# Velocity P-wave (km/s) = 7.04065 7.37161 7.20803
#
# Compressibility (1/GPa) = 0.01691941
#
# Stress axis : x y z
#
# Youngs Moduli (GPa) = 93.13911 76.36967 110.48835
#
# Poissons Ratio (x) = 0.16049 0.35260
# Poissons Ratio (y) = 0.19573 0.29702
# Poissons Ratio (z) = 0.29724 0.20530
#
# Static dielectric constant tensor:
#      x y z
#    x 3.396600 0.000000 0.000000 
#    y 0.000000 3.111360 0.000000 
#    z 0.000000 0.000000 3.215360 
# 
# 
# High freq. dielectric constant tensor:
#      x y z
#    x 1.691560 0.000000 0.000000 
#    y 0.000000 1.686970 0.000000 
#    z 0.000000 0.000000 1.667680 
# 
# From -- ./inp_files/49600.got.cif
#   From: 2010.03.12/outbox.cif.g09.slc.cpg/sg68_25_cif.got.tgz:49600.got - 2010.04.10 23:14:56.
