data_PCOD8282081
_publ_section_title
;
Structure prediction by ZEFSAII (Michael W. Deem and Ramdas Pophale) SiO2 
 PCOD8282081
Probable space group: C C C A
;
_chemical_formula_sum "Si O2"
_cell_formula_units_Z 116
_cell_length_a 8.440304
_cell_length_b 25.019856
_cell_length_c 27.001119
_cell_angle_alpha 90.000000
_cell_angle_beta 90.000000
_cell_angle_gamma 90.000000
_cell_volume 5701.966453
_symmetry_space_group_name_H-M "C C C A"
_symmetry_group_IT_number 68
_space_group.IT_coordinate_system_code '2'
_symmetry_cell_setting 'orthorhombic'
loop_
_space_group_symop_operation_xyz
x,y,z
-x,1/2-y,z
x,1/2-y,1/2-z
-x,y,1/2-z
-x,-y,-z
x,1/2+y,-z
-x,1/2+y,1/2+z
x,-y,1/2+z
1/2+x,1/2+y,z
1/2-x,-y,z
1/2+x,-y,1/2-z
1/2-x,1/2+y,1/2-z
1/2-x,1/2-y,-z
1/2+x,y,-z
1/2-x,y,1/2+z
1/2+x,1/2-y,1/2+z
loop_
_atom_site_type_symbol
_atom_site_label
_atom_site_fract_x
_atom_site_fract_y
_atom_site_fract_z
Si Si1 0.500000 0.750000 0.750000
Si Si2 0.359396 0.613945 0.282773
Si Si3 0.041692 0.398995 0.436317
Si Si4 0.653787 0.053031 0.473853
Si Si5 0.027420 0.686573 0.637675
Si Si6 0.551123 0.432546 0.195076
Si Si7 0.830690 0.337257 0.806052
Si Si8 0.063154 0.500419 0.107741
O O1 0.396842 0.781164 0.789621
O O2 0.500000 0.586848 0.250000
O O3 0.419932 0.659807 0.319870
O O4 0.243763 0.571550 0.310452
O O5 0.244383 0.640996 0.243835
O O6 0.226439 0.404444 0.449834
O O7 0.928398 0.415892 0.481429
O O8 0.011904 0.339064 0.416225
O O9 0.000514 0.439680 0.391768
O O10 0.518280 0.035283 0.435524
O O11 0.750000 0.000000 0.491803
O O12 0.209766 0.672534 0.649014
O O13 0.000000 0.750000 0.635704
O O14 0.500000 0.448527 0.250000
O O15 0.469195 0.377405 0.176460
O O16 0.486073 0.479559 0.161254
O O17 0.250000 0.500000 0.099996
#
# Coordination Sequence:
#
# PCOD8282081 Si02
#       8
#     4  16  16  16  16  16  16  16
#     4  12  16  32  54  84 112 160 214 244 278 320
#     4   9  18  36  56  83 117 163 209 248 288 344
#     4  11  22  40  61  88 114 148 196 254 308 369
#     4  10  21  39  66  88 112 146 195 254 302 364
#     4  11  23  37  57  86 118 153 199 250 305 360
#     4  10  20  38  56  88 128 159 195 242 301 363
#     4  10  20  32  57  80 116 160 205 247 282 340
#     4  11  21  37  63  91 119 155 200 245 301 366
#
# _framework density 20.343858999999998
#
# number of rings (size 3 to 8) (size 9 to 14) (size 15 to 20)
#    0.000    1.655    2.069    5.379    0.000    1.931 
#    0.000    7.586    0.000    0.000    0.000    0.000 
#    0.000    0.000    0.000    0.000    0.000    0.000 
#
# Total GULP energy -718973.932636 kJ/mol
# GULP energy per Si atom -12396.102287 kJ/mol
# Density = 2.029756 g / cm^3
# Si number density = 20.343859 Si / 1000 Ang^3
#
#
#
# Elastic Constant Matrix: (Units=GPa)
#
#
# Indices 1 2 3 4 5 6 
#
# 1 155.2626 41.1139 51.0544 0.0000 0.0000 0.0000
# 2 41.1139 74.6515 52.2000 0.0000 0.0000 0.0000
# 3 51.0544 52.2000 87.5201 0.0000 0.0000 0.0000
# 4 0.0000 0.0000 0.0000 19.5591 0.0000 0.0000
# 5 0.0000 0.0000 0.0000 0.0000 29.8573 0.0000
# 6 0.0000 0.0000 0.0000 0.0000 0.0000 76.4038
#
#
#
# Elastic Compliance Matrix: (Units=1/GPa)
#
#
# Indices 1 2 3 4 5 6 
#
# 1 0.008139 -0.001994 -0.003558 0.000000 0.000000 0.000000
# 2 -0.001994 0.023468 -0.012834 0.000000 0.000000 0.000000
# 3 -0.003558 -0.012834 0.021156 0.000000 0.000000 0.000000
# 4 0.000000 0.000000 0.000000 0.051127 0.000000 0.000000
# 5 0.000000 0.000000 0.000000 0.000000 0.033493 0.000000
# 6 0.000000 0.000000 0.000000 0.000000 0.000000 0.013088
#
#
# Mechanical properties :
#
#
# Convention : Reuss Voigt Hill
#
# Bulk Modulus (GPa) = 62.53796 67.35231 64.94514
# Shear Modulus (GPa) = 25.96411 36.70177 31.33294
#
# Velocity S-wave (km/s) = 3.57636 4.25204 3.92875
# Velocity P-wave (km/s) = 6.91816 7.56871 7.25073
#
# Compressibility (1/GPa) = 0.01599029
#
# Stress axis : x y z
#
# Youngs Moduli (GPa) = 122.86746 42.61145 47.26773
#
# Poissons Ratio (x) = 0.08498 0.16819
# Poissons Ratio (y) = 0.24504 0.60662
# Poissons Ratio (z) = 0.43720 0.54686
#
# Static dielectric constant tensor:
#      x y z
#    x 4.390510 0.000000 0.000000 
#    y 0.000000 3.563310 0.000000 
#    z 0.000000 0.000000 3.599280 
# 
# 
# High freq. dielectric constant tensor:
#      x y z
#    x 1.820070 0.000000 0.000000 
#    y 0.000000 1.768640 0.000000 
#    z 0.000000 0.000000 1.786510 
# 
# From -- ./inp_files/49617.got.cif
#   From: 2010.03.12/outbox.cif.g09.slc.cpg/sg68_25_cif.got.tgz:49617.got - 2010.04.10 23:14:56.
