data_PCOD8282909
_publ_section_title
;
Structure prediction by ZEFSAII (Michael W. Deem and Ramdas Pophale) SiO2 
 PCOD8282909
Probable space group: C C C A
;
_chemical_formula_sum "Si O2"
_cell_formula_units_Z 104
_cell_length_a 17.496887
_cell_length_b 14.946073
_cell_length_c 20.771684
_cell_angle_alpha 90.000000
_cell_angle_beta 90.000000
_cell_angle_gamma 90.000000
_cell_volume 5431.997898
_symmetry_space_group_name_H-M "C C C A"
_symmetry_group_IT_number 68
_space_group.IT_coordinate_system_code '2'
_symmetry_cell_setting 'orthorhombic'
loop_
_space_group_symop_operation_xyz
x,y,z
-x,1/2-y,z
x,1/2-y,1/2-z
-x,y,1/2-z
-x,-y,-z
x,1/2+y,-z
-x,1/2+y,1/2+z
x,-y,1/2+z
1/2+x,1/2+y,z
1/2-x,-y,z
1/2+x,-y,1/2-z
1/2-x,1/2+y,1/2-z
1/2-x,1/2-y,-z
1/2+x,y,-z
1/2-x,y,1/2+z
1/2+x,1/2-y,1/2+z
loop_
_atom_site_type_symbol
_atom_site_label
_atom_site_fract_x
_atom_site_fract_y
_atom_site_fract_z
Si Si1 0.065988 0.684451 0.357076
Si Si2 0.567079 0.524575 0.452664
Si Si3 0.810461 0.631928 0.463295
Si Si4 0.675022 0.250000 0.250000
Si Si5 0.347868 0.332023 0.480507
Si Si6 0.796687 0.589372 0.319448
Si Si7 0.466673 0.027390 0.312990
O O1 0.122458 0.740744 0.312733
O O2 0.115927 0.637733 0.412896
O O3 0.000000 0.750000 0.385733
O O4 0.027027 0.607456 0.316297
O O5 0.500000 0.500000 0.500000
O O6 0.633541 0.452483 0.468444
O O7 0.599346 0.624138 0.464239
O O8 0.535915 0.527602 0.379629
O O9 0.737584 0.627744 0.511052
O O10 0.853022 0.724110 0.482059
O O11 0.781269 0.632052 0.389649
O O12 0.728171 0.336070 0.266241
O O13 0.750000 0.500000 0.309288
O O14 0.883483 0.567246 0.302484
O O15 0.500000 0.972787 0.250000
#
# Coordination Sequence:
#
# PCOD8282909 Si02
#       7
#    16  16  16   8  16  16  16
#     4  12  19  35  63  99 125 151 211 274 329 372
#     4  11  22  36  59  95 126 158 211 268 317 380
#     4  10  22  41  60  88 122 169 204 263 319 373
#     4  12  21  36  62  98 125 162 204 276 317 384
#     4  11  22  37  63  89 125 163 206 261 326 377
#     4  11  22  38  63  92 126 164 205 260 328 389
#     4  11  20  36  62  92 125 162 206 265 325 378
#
# _framework density 19.145810000000001
#
# number of rings (size 3 to 8) (size 9 to 14) (size 15 to 20)
#    0.000    0.923    6.154    3.462    0.000    0.000 
#    0.000    3.077    0.000    0.000    0.000    0.000 
#    0.000    0.000    0.000    0.000    0.000    0.000 
#
# Total GULP energy -644346.694600 kJ/mol
# GULP energy per Si atom -12391.282588 kJ/mol
# Density = 1.910223 g / cm^3
# Si number density = 19.145810 Si / 1000 Ang^3
#
#
#
# Elastic Constant Matrix: (Units=GPa)
#
#
# Indices 1 2 3 4 5 6 
#
# 1 77.0879 41.6059 57.3768 0.0000 0.0000 0.0000
# 2 41.6059 115.6347 57.0939 0.0000 0.0000 0.0000
# 3 57.3768 57.0939 129.5006 0.0000 0.0000 0.0000
# 4 0.0000 0.0000 0.0000 44.6810 0.0000 0.0000
# 5 0.0000 0.0000 0.0000 0.0000 20.0729 0.0000
# 6 0.0000 0.0000 0.0000 0.0000 0.0000 31.7311
#
#
#
# Elastic Compliance Matrix: (Units=1/GPa)
#
#
# Indices 1 2 3 4 5 6 
#
# 1 0.020523 -0.003700 -0.007462 0.000000 0.000000 0.000000
# 2 -0.003700 0.011721 -0.003528 0.000000 0.000000 0.000000
# 3 -0.007462 -0.003528 0.012583 0.000000 0.000000 0.000000
# 4 0.000000 0.000000 0.000000 0.022381 0.000000 0.000000
# 5 0.000000 0.000000 0.000000 0.000000 0.049818 0.000000
# 6 0.000000 0.000000 0.000000 0.000000 0.000000 0.031515
#
#
# Mechanical properties :
#
#
# Convention : Reuss Voigt Hill
#
# Bulk Modulus (GPa) = 64.73469 70.48628 67.61049
# Shear Modulus (GPa) = 27.31179 30.37345 28.84262
#
# Velocity S-wave (km/s) = 3.78102 3.98732 3.88554
# Velocity P-wave (km/s) = 7.27642 7.62192 7.45118
#
# Compressibility (1/GPa) = 0.01544767
#
# Stress axis : x y z
#
# Youngs Moduli (GPa) = 48.72584 85.31472 79.46917
#
# Poissons Ratio (x) = 0.31567 0.59297
# Poissons Ratio (y) = 0.18029 0.28039
# Poissons Ratio (z) = 0.36358 0.30101
#
# Static dielectric constant tensor:
#      x y z
#    x 3.517590 0.000000 0.000000 
#    y 0.000000 3.637930 0.000000 
#    z 0.000000 0.000000 3.666960 
# 
# 
# High freq. dielectric constant tensor:
#      x y z
#    x 1.740300 0.000000 0.000000 
#    y 0.000000 1.730410 0.000000 
#    z 0.000000 0.000000 1.743340 
# 
# From -- ./inp_files/38816.got.cif
#   From: 2010.03.12/outbox.cif.g09.slc.cpg/sg68_20_cif.got.tgz:38816.got - 2010.04.10 23:14:56.
