data_PCOD8282960
_publ_section_title
;
Structure prediction by ZEFSAII (Michael W. Deem and Ramdas Pophale) SiO2 
 PCOD8282960
Probable space group: C C C A
;
_chemical_formula_sum "Si O2"
_cell_formula_units_Z 64
_cell_length_a 12.095480
_cell_length_b 7.570179
_cell_length_c 32.371194
_cell_angle_alpha 90.000000
_cell_angle_beta 90.000000
_cell_angle_gamma 90.000000
_cell_volume 2964.066718
_symmetry_space_group_name_H-M "C C C A"
_symmetry_group_IT_number 68
_space_group.IT_coordinate_system_code '2'
_symmetry_cell_setting 'orthorhombic'
loop_
_space_group_symop_operation_xyz
x,y,z
-x,1/2-y,z
x,1/2-y,1/2-z
-x,y,1/2-z
-x,-y,-z
x,1/2+y,-z
-x,1/2+y,1/2+z
x,-y,1/2+z
1/2+x,1/2+y,z
1/2-x,-y,z
1/2+x,-y,1/2-z
1/2-x,1/2+y,1/2-z
1/2-x,1/2-y,-z
1/2+x,y,-z
1/2-x,y,1/2+z
1/2+x,1/2-y,1/2+z
loop_
_atom_site_type_symbol
_atom_site_label
_atom_site_fract_x
_atom_site_fract_y
_atom_site_fract_z
Si Si1 0.017199 0.451339 0.297788
Si Si2 0.500000 0.750000 0.013276
Si Si3 0.625129 0.940816 0.551250
Si Si4 0.250000 0.000000 0.168967
Si Si5 0.653469 0.137408 0.142464
O O1 0.147302 0.470790 0.301638
O O2 0.000000 0.250000 0.311925
O O3 0.000000 0.489089 0.250000
O O4 0.944632 0.592027 0.324667
O O5 0.463931 0.594101 0.043319
O O6 0.603920 0.707686 0.983343
O O7 0.599406 0.875274 0.597309
O O8 0.750000 0.000000 0.547016
O O9 0.212809 0.828899 0.142619
O O10 0.750000 0.000000 0.150933
#
# Coordination Sequence:
#
# PCOD8282960 Si02
#       5
#    16   8  16   8  16
#     4  11  26  45  72 103 138 180 233 284 341 410
#     4  10  22  42  68  92 134 174 218 280 350 396
#     4  10  23  42  65  99 131 173 224 279 336 412
#     4  12  26  44  72 100 138 186 222 288 340 404
#     4  11  25  46  70 103 139 182 231 281 344 412
#
# _framework density 21.591958000000002
#
# number of rings (size 3 to 8) (size 9 to 14) (size 15 to 20)
#    0.000    1.250    2.500    1.500    7.000    2.000 
#   11.250    0.000    0.000    0.000    0.000    0.000 
#    0.000    0.000    0.000    0.000    0.000    0.000 
#
# Total GULP energy -396554.104974 kJ/mol
# GULP energy per Si atom -12392.315780 kJ/mol
# Density = 2.154281 g / cm^3
# Si number density = 21.591958 Si / 1000 Ang^3
#
#
#
# Elastic Constant Matrix: (Units=GPa)
#
#
# Indices 1 2 3 4 5 6 
#
# 1 143.2715 46.3055 69.0463 0.0000 0.0000 0.0000
# 2 46.3055 140.7483 67.5550 0.0000 0.0000 0.0000
# 3 69.0463 67.5550 161.1043 0.0000 0.0000 0.0000
# 4 0.0000 0.0000 0.0000 59.8721 0.0000 0.0000
# 5 0.0000 0.0000 0.0000 0.0000 42.6685 0.0000
# 6 0.0000 0.0000 0.0000 0.0000 0.0000 32.9320
#
#
#
# Elastic Compliance Matrix: (Units=1/GPa)
#
#
# Indices 1 2 3 4 5 6 
#
# 1 0.009009 -0.001391 -0.003278 0.000000 0.000000 0.000000
# 2 -0.001391 0.009110 -0.003224 0.000000 0.000000 0.000000
# 3 -0.003278 -0.003224 0.008964 0.000000 0.000000 0.000000
# 4 0.000000 0.000000 0.000000 0.016702 0.000000 0.000000
# 5 0.000000 0.000000 0.000000 0.000000 0.023437 0.000000
# 6 0.000000 0.000000 0.000000 0.000000 0.000000 0.030366
#
#
# Mechanical properties :
#
#
# Convention : Reuss Voigt Hill
#
# Bulk Modulus (GPa) = 88.51426 90.10418 89.30922
# Shear Modulus (GPa) = 42.68475 44.57568 43.63022
#
# Velocity S-wave (km/s) = 4.45104 4.54856 4.50006
# Velocity P-wave (km/s) = 8.21576 8.33108 8.27362
#
# Compressibility (1/GPa) = 0.01129761
#
# Stress axis : x y z
#
# Youngs Moduli (GPa) = 111.00114 109.77199 111.55821
#
# Poissons Ratio (x) = 0.15265 0.36568
# Poissons Ratio (y) = 0.15435 0.35966
# Poissons Ratio (z) = 0.36386 0.35390
#
# Static dielectric constant tensor:
#      x y z
#    x 3.951260 0.000000 0.000000 
#    y 0.000000 3.884420 0.000000 
#    z 0.000000 0.000000 3.861630 
# 
# 
# High freq. dielectric constant tensor:
#      x y z
#    x 1.864870 0.000000 0.000000 
#    y 0.000000 1.861960 0.000000 
#    z 0.000000 0.000000 1.845970 
# 
# From -- ./inp_files/54428.got.cif
#   From: 2010.03.12/outbox.cif.g09.slc.cpg/sg68_28_cif.got.tgz:54428.got - 2010.04.10 23:14:56.
