data_PCOD8282506
_publ_section_title
;
Structure prediction by ZEFSAII (Michael W. Deem and Ramdas Pophale) SiO2 
 PCOD8282506
Probable space group: C C C A
;
_chemical_formula_sum "Si O2"
_cell_formula_units_Z 96
_cell_length_a 23.844090
_cell_length_b 19.945609
_cell_length_c 9.821321
_cell_angle_alpha 90.000000
_cell_angle_beta 90.000000
_cell_angle_gamma 90.000000
_cell_volume 4670.871927
_symmetry_space_group_name_H-M "C C C A"
_symmetry_group_IT_number 68
_space_group.IT_coordinate_system_code '2'
_symmetry_cell_setting 'orthorhombic'
loop_
_space_group_symop_operation_xyz
x,y,z
-x,1/2-y,z
x,1/2-y,1/2-z
-x,y,1/2-z
-x,-y,-z
x,1/2+y,-z
-x,1/2+y,1/2+z
x,-y,1/2+z
1/2+x,1/2+y,z
1/2-x,-y,z
1/2+x,-y,1/2-z
1/2-x,1/2+y,1/2-z
1/2-x,1/2-y,-z
1/2+x,y,-z
1/2-x,y,1/2+z
1/2+x,1/2-y,1/2+z
loop_
_atom_site_type_symbol
_atom_site_label
_atom_site_fract_x
_atom_site_fract_y
_atom_site_fract_z
Si Si1 0.845901 0.427711 0.762060
Si Si2 0.127496 0.200409 0.451309
Si Si3 0.282093 0.311364 0.330740
Si Si4 0.562997 0.675609 0.706701
Si Si5 0.157302 0.833961 0.657277
Si Si6 0.184765 0.978785 0.538295
O O1 0.791090 0.379995 0.754355
O O2 0.900213 0.380869 0.782897
O O3 0.852747 0.469267 0.622559
O O4 0.835110 0.481193 0.882039
O O5 0.185881 0.182144 0.526115
O O6 0.075308 0.173321 0.543151
O O7 0.119633 0.281076 0.428997
O O8 0.130204 0.160585 0.307801
O O9 0.310482 0.250000 0.250000
O O10 0.216951 0.296451 0.345357
O O11 0.580984 0.750000 0.750000
O O12 0.500000 0.659374 0.750000
O O13 0.167670 0.905034 0.588970
O O14 0.250000 0.000000 0.554226
#
# Coordination Sequence:
#
# PCOD8282506 Si02
#       6
#    16  16  16  16  16  16
#     4  11  25  39  60  89 127 171 217 257 306 370
#     4  10  21  36  61  92 126 158 206 270 315 368
#     4  11  20  33  55  85 126 171 210 246 302 370
#     4  10  22  45  73  91 111 154 214 277 330 374
#     4  11  22  33  56  91 133 169 201 249 312 373
#     4  12  25  38  57  88 138 180 210 238 298 386
#
# _framework density 20.552907999999999
#
# number of rings (size 3 to 8) (size 9 to 14) (size 15 to 20)
#    0.000    1.167    3.333    5.000    7.000    0.000 
#    0.000    0.833    0.000   16.000    0.000    0.000 
#    0.000    0.000    0.000    0.000    0.000    0.000 
#
# Total GULP energy -594815.405311 kJ/mol
# GULP energy per Si atom -12391.987611 kJ/mol
# Density = 2.050613 g / cm^3
# Si number density = 20.552908 Si / 1000 Ang^3
#
#
#
# Elastic Constant Matrix: (Units=GPa)
#
#
# Indices 1 2 3 4 5 6 
#
# 1 88.3928 17.3071 33.1214 0.0000 0.0000 0.0000
# 2 17.3071 95.7499 27.4451 0.0000 0.0000 0.0000
# 3 33.1214 27.4451 118.2508 0.0000 0.0000 0.0000
# 4 0.0000 0.0000 0.0000 42.5083 0.0000 0.0000
# 5 0.0000 0.0000 0.0000 0.0000 457.1938 0.0000
# 6 0.0000 0.0000 0.0000 0.0000 0.0000 -125.4169
#
#
#
# Elastic Compliance Matrix: (Units=1/GPa)
#
#
# Indices 1 2 3 4 5 6 
#
# 1 0.012807 -0.001378 -0.003267 0.000000 0.000000 0.000000
# 2 -0.001378 0.011337 -0.002245 0.000000 0.000000 0.000000
# 3 -0.003267 -0.002245 0.009893 0.000000 0.000000 0.000000
# 4 0.000000 0.000000 0.000000 0.023525 0.000000 0.000000
# 5 0.000000 0.000000 0.000000 0.000000 0.002187 0.000000
# 6 0.000000 0.000000 0.000000 0.000000 0.000000 -0.007973
#
#
# Mechanical properties :
#
#
# Convention : Reuss Voigt Hill
#
# Bulk Modulus (GPa) = 49.37036 50.90452 50.13744
# Shear Modulus (GPa) = 69.14807 89.82504 79.48655
#
# Velocity S-wave (km/s) = 5.80663 6.61809 6.22560
# Velocity P-wave (km/s) = 8.30838 9.12251 8.72495
#
# Compressibility (1/GPa) = 0.02025507
#
# Stress axis : x y z
#
# Youngs Moduli (GPa) = 78.08036 88.21042 101.08341
#
# Poissons Ratio (x) = 0.12159 0.33027
# Poissons Ratio (y) = 0.10763 0.22694
# Poissons Ratio (z) = 0.25511 0.19804
#
# Static dielectric constant tensor:
#      x y z
#    x 3.271830 0.000000 0.000000 
#    y 0.000000 3.829890 0.000000 
#    z 0.000000 0.000000 3.929550 
# 
# 
# High freq. dielectric constant tensor:
#      x y z
#    x 1.748950 0.000000 0.000000 
#    y 0.000000 1.813400 0.000000 
#    z 0.000000 0.000000 1.815560 
# 
# From -- ./inp_files/8951.got.cif
#   From: 2010.03.12/outbox.cif.g09.slc.cpg/sg68_5_cif.got.tgz:8951.got - 2010.04.10 23:14:56.
