data_PCOD8282186
_publ_section_title
;
Structure prediction by ZEFSAII (Michael W. Deem and Ramdas Pophale) SiO2 
 PCOD8282186
Probable space group: C C C A
;
_chemical_formula_sum "Si O2"
_cell_formula_units_Z 60
_cell_length_a 25.996623
_cell_length_b 5.095310
_cell_length_c 22.930817
_cell_angle_alpha 90.000000
_cell_angle_beta 90.000000
_cell_angle_gamma 90.000000
_cell_volume 3037.435583
_symmetry_space_group_name_H-M "C C C A"
_symmetry_group_IT_number 68
_space_group.IT_coordinate_system_code '2'
_symmetry_cell_setting 'orthorhombic'
loop_
_space_group_symop_operation_xyz
x,y,z
-x,1/2-y,z
x,1/2-y,1/2-z
-x,y,1/2-z
-x,-y,-z
x,1/2+y,-z
-x,1/2+y,1/2+z
x,-y,1/2+z
1/2+x,1/2+y,z
1/2-x,-y,z
1/2+x,-y,1/2-z
1/2-x,1/2+y,1/2-z
1/2-x,1/2-y,-z
1/2+x,y,-z
1/2-x,y,1/2+z
1/2+x,1/2-y,1/2+z
loop_
_atom_site_type_symbol
_atom_site_label
_atom_site_fract_x
_atom_site_fract_y
_atom_site_fract_z
Si Si1 0.941658 0.226499 0.971413
Si Si2 0.750000 0.000000 0.210929
Si Si3 0.419506 0.882429 0.659626
Si Si4 0.858282 0.132887 0.186025
Si Si5 0.500000 0.250000 0.250000
O O1 0.941869 0.202743 0.902132
O O2 0.000000 0.250000 0.994076
O O3 0.913350 0.488377 0.994683
O O4 0.767193 0.750000 0.250000
O O5 0.701831 0.914849 0.169964
O O6 0.385884 0.645142 0.684289
O O7 0.465155 0.932579 0.707012
O O8 0.386375 0.146185 0.647001
O O9 0.860766 0.250000 0.250000
#
# Coordination Sequence:
#
# PCOD8282186 Si02
#       5
#    16   8  16  16   4
#     4  10  21  38  56  77 107 154 205 241 270 319
#     4  10  20  36  58  80 116 156 190 246 280 350
#     4  12  23  37  57  85 121 158 188 231 289 353
#     4  11  21  36  55  86 116 151 192 229 294 355
#     4  12  24  38  52  90 132 158 184 224 292 360
#
# _framework density 19.753504
#
# number of rings (size 3 to 8) (size 9 to 14) (size 15 to 20)
#    0.000    1.067    4.000    4.800    0.000    2.133 
#    0.000    0.000    0.000    0.000    0.000   18.667 
#    0.000    0.000    0.000    0.000    0.000    0.000 
#
# Total GULP energy -371770.065666 kJ/mol
# GULP energy per Si atom -12392.335522 kJ/mol
# Density = 1.970854 g / cm^3
# Si number density = 19.753504 Si / 1000 Ang^3
#
#
#
# Elastic Constant Matrix: (Units=GPa)
#
#
# Indices 1 2 3 4 5 6 
#
# 1 104.6810 57.3950 25.8421 0.0000 0.0000 0.0000
# 2 57.3950 140.2217 26.0796 0.0000 0.0000 0.0000
# 3 25.8421 26.0796 96.1462 0.0000 0.0000 0.0000
# 4 0.0000 0.0000 0.0000 30.4366 0.0000 0.0000
# 5 0.0000 0.0000 0.0000 0.0000 8.9468 0.0000
# 6 0.0000 0.0000 0.0000 0.0000 0.0000 28.1730
#
#
#
# Elastic Compliance Matrix: (Units=1/GPa)
#
#
# Indices 1 2 3 4 5 6 
#
# 1 0.012712 -0.004810 -0.002112 0.000000 0.000000 0.000000
# 2 -0.004810 0.009331 -0.001238 0.000000 0.000000 0.000000
# 3 -0.002112 -0.001238 0.011304 0.000000 0.000000 0.000000
# 4 0.000000 0.000000 0.000000 0.032855 0.000000 0.000000
# 5 0.000000 0.000000 0.000000 0.000000 0.111771 0.000000
# 6 0.000000 0.000000 0.000000 0.000000 0.000000 0.035495
#
#
# Mechanical properties :
#
#
# Convention : Reuss Voigt Hill
#
# Bulk Modulus (GPa) = 58.73277 62.18693 60.45985
# Shear Modulus (GPa) = 21.23468 28.96012 25.09740
#
# Velocity S-wave (km/s) = 3.28225 3.83309 3.56831
# Velocity P-wave (km/s) = 6.64542 7.15122 6.90295
#
# Compressibility (1/GPa) = 0.01702627
#
# Stress axis : x y z
#
# Youngs Moduli (GPa) = 78.66852 107.17247 88.46224
#
# Poissons Ratio (x) = 0.51553 0.18682
# Poissons Ratio (y) = 0.37842 0.10952
# Poissons Ratio (z) = 0.16613 0.13269
#
# Static dielectric constant tensor:
#      x y z
#    x 3.841830 0.000000 0.000000 
#    y 0.000000 4.224860 0.000000 
#    z 0.000000 0.000000 3.233620 
# 
# 
# High freq. dielectric constant tensor:
#      x y z
#    x 1.747690 0.000000 0.000000 
#    y 0.000000 1.795160 0.000000 
#    z 0.000000 0.000000 1.735890 
# 
# From -- ./inp_files/34961.got.cif
#   From: 2010.03.12/outbox.cif.g09.slc.cpg/sg68_18_cif.got.tgz:34961.got - 2010.04.10 23:14:56.
