data_PCOD8282153
_publ_section_title
;
Structure prediction by ZEFSAII (Michael W. Deem and Ramdas Pophale) SiO2 
 PCOD8282153
Probable space group: C C C A
;
_chemical_formula_sum "Si O2"
_cell_formula_units_Z 80
_cell_length_a 8.783338
_cell_length_b 14.843880
_cell_length_c 29.360774
_cell_angle_alpha 90.000000
_cell_angle_beta 90.000000
_cell_angle_gamma 90.000000
_cell_volume 3828.022930
_symmetry_space_group_name_H-M "C C C A"
_symmetry_group_IT_number 68
_space_group.IT_coordinate_system_code '2'
_symmetry_cell_setting 'orthorhombic'
loop_
_space_group_symop_operation_xyz
x,y,z
-x,1/2-y,z
x,1/2-y,1/2-z
-x,y,1/2-z
-x,-y,-z
x,1/2+y,-z
-x,1/2+y,1/2+z
x,-y,1/2+z
1/2+x,1/2+y,z
1/2-x,-y,z
1/2+x,-y,1/2-z
1/2-x,1/2+y,1/2-z
1/2-x,1/2-y,-z
1/2+x,y,-z
1/2-x,y,1/2+z
1/2+x,1/2-y,1/2+z
loop_
_atom_site_type_symbol
_atom_site_label
_atom_site_fract_x
_atom_site_fract_y
_atom_site_fract_z
Si Si1 0.615249 0.666006 0.302422
Si Si2 0.324194 0.597371 0.881682
Si Si3 0.321154 0.251136 0.049266
Si Si4 0.684993 0.098771 0.117512
Si Si5 0.681246 0.905885 0.289164
O O1 0.500000 0.750000 0.311074
O O2 0.745301 0.652031 0.339510
O O3 0.497781 0.580489 0.302826
O O4 0.693850 0.666456 0.252150
O O5 0.250000 0.500000 0.891162
O O6 0.268019 0.664659 0.921213
O O7 0.504787 0.592468 0.878475
O O8 0.269461 0.634939 0.832712
O O9 0.500000 0.250000 0.043657
O O10 0.267822 0.342939 0.073566
O O11 0.250000 0.250000 0.000000
O O12 0.750000 0.000000 0.111182
O O13 0.750000 0.000000 0.273146
#
# Coordination Sequence:
#
# PCOD8282153 Si02
#       5
#    16  16  16  16  16
#     4  11  23  39  60  89 125 168 213 254 308 377
#     4  10  22  41  64  93 128 165 208 260 319 381
#     4  10  24  43  63  89 122 161 208 261 317 379
#     4  11  23  40  64  95 126 163 211 260 316 381
#     4  10  20  35  58  88 121 160 203 250 303 364
#
# _framework density 20.898517999999999
#
# number of rings (size 3 to 8) (size 9 to 14) (size 15 to 20)
#    0.000    1.600    0.000    5.400    0.000    8.800 
#    0.000    4.000    0.000   10.800    0.000    0.000 
#    0.000    0.000    0.000    0.000    0.000    0.000 
#
# Total GULP energy -495705.596106 kJ/mol
# GULP energy per Si atom -12392.639903 kJ/mol
# Density = 2.085095 g / cm^3
# Si number density = 20.898518 Si / 1000 Ang^3
#
#
#
# Elastic Constant Matrix: (Units=GPa)
#
#
# Indices 1 2 3 4 5 6 
#
# 1 89.5343 54.3029 65.8955 0.0000 0.0000 0.0000
# 2 54.3029 146.4826 83.0645 0.0000 0.0000 0.0000
# 3 65.8955 83.0645 194.1905 0.0000 0.0000 0.0000
# 4 0.0000 0.0000 0.0000 34.7783 0.0000 0.0000
# 5 0.0000 0.0000 0.0000 0.0000 42.2994 0.0000
# 6 0.0000 0.0000 0.0000 0.0000 0.0000 35.8158
#
#
#
# Elastic Compliance Matrix: (Units=1/GPa)
#
#
# Indices 1 2 3 4 5 6 
#
# 1 0.016386 -0.003857 -0.003911 0.000000 0.000000 0.000000
# 2 -0.003857 0.009921 -0.002935 0.000000 0.000000 0.000000
# 3 -0.003911 -0.002935 0.007732 0.000000 0.000000 0.000000
# 4 0.000000 0.000000 0.000000 0.028754 0.000000 0.000000
# 5 0.000000 0.000000 0.000000 0.000000 0.023641 0.000000
# 6 0.000000 0.000000 0.000000 0.000000 0.000000 0.027921
#
#
# Mechanical properties :
#
#
# Convention : Reuss Voigt Hill
#
# Bulk Modulus (GPa) = 79.15020 92.97037 86.06028
# Shear Modulus (GPa) = 35.72180 37.70834 36.71507
#
# Velocity S-wave (km/s) = 4.13885 4.25238 4.19600
# Velocity P-wave (km/s) = 7.79717 8.28815 8.04641
#
# Compressibility (1/GPa) = 0.01263421
#
# Stress axis : x y z
#
# Youngs Moduli (GPa) = 61.02630 100.79832 129.33403
#
# Poissons Ratio (x) = 0.38879 0.50577
# Poissons Ratio (y) = 0.23538 0.37956
# Poissons Ratio (z) = 0.23865 0.29582
#
# Static dielectric constant tensor:
#      x y z
#    x 4.003900 0.000000 0.000000 
#    y 0.000000 4.087950 0.000000 
#    z 0.000000 0.000000 4.267430 
# 
# 
# High freq. dielectric constant tensor:
#      x y z
#    x 1.821970 0.000000 0.000000 
#    y 0.000000 1.829330 0.000000 
#    z 0.000000 0.000000 1.817980 
# 
# From -- ./inp_files/49085.got.cif
#   From: 2010.03.12/outbox.cif.g09.slc.cpg/sg68_25_cif.got.tgz:49085.got - 2010.04.10 23:14:56.
