data_PCOD8282262
_publ_section_title
;
Structure prediction by ZEFSAII (Michael W. Deem and Ramdas Pophale) SiO2 
 PCOD8282262
Probable space group: C C C A
;
_chemical_formula_sum "Si O2"
_cell_formula_units_Z 100
_cell_length_a 15.411995
_cell_length_b 19.182390
_cell_length_c 16.144360
_cell_angle_alpha 90.000000
_cell_angle_beta 90.000000
_cell_angle_gamma 90.000000
_cell_volume 4772.900812
_symmetry_space_group_name_H-M "C C C A"
_symmetry_group_IT_number 68
_space_group.IT_coordinate_system_code '2'
_symmetry_cell_setting 'orthorhombic'
loop_
_space_group_symop_operation_xyz
x,y,z
-x,1/2-y,z
x,1/2-y,1/2-z
-x,y,1/2-z
-x,-y,-z
x,1/2+y,-z
-x,1/2+y,1/2+z
x,-y,1/2+z
1/2+x,1/2+y,z
1/2-x,-y,z
1/2+x,-y,1/2-z
1/2-x,1/2+y,1/2-z
1/2-x,1/2-y,-z
1/2+x,y,-z
1/2-x,y,1/2+z
1/2+x,1/2-y,1/2+z
loop_
_atom_site_type_symbol
_atom_site_label
_atom_site_fract_x
_atom_site_fract_y
_atom_site_fract_z
Si Si1 0.111168 0.669557 0.621386
Si Si2 0.587565 0.516075 0.414714
Si Si3 0.591865 0.717788 0.555396
Si Si4 0.704467 0.196803 0.178608
Si Si5 0.396252 0.433711 0.237757
Si Si6 0.095796 0.055165 0.584963
Si Si7 0.000000 0.750000 0.750000
O O1 0.063852 0.596398 0.602355
O O2 0.105844 0.722123 0.543512
O O3 0.211003 0.656170 0.646033
O O4 0.061021 0.701301 0.697231
O O5 0.638933 0.484155 0.335974
O O6 0.640307 0.518094 0.503684
O O7 0.503992 0.467480 0.422365
O O8 0.500000 0.750000 0.580832
O O9 0.664668 0.763431 0.600172
O O10 0.599446 0.638366 0.583571
O O11 0.732684 0.250000 0.250000
O O12 0.636308 0.143565 0.218715
O O13 0.500000 0.431399 0.250000
O O14 0.360882 0.464812 0.326325
#
# Coordination Sequence:
#
# PCOD8282262 Si02
#       7
#    16  16  16  16  16  16   4
#     4  11  25  43  63  87 129 170 218 264 317 389
#     4   9  20  37  61  88 122 163 205 260 313 378
#     4  11  21  39  66  96 127 168 208 268 332 390
#     4  12  24  39  63  96 135 162 208 275 330 389
#     4  10  20  37  62  95 124 162 206 259 326 389
#     4   9  18  35  59  94 123 153 214 262 308 381
#     4  12  24  44  60  88 112 172 222 248 300 388
#
# _framework density 20.951619000000001
#
# number of rings (size 3 to 8) (size 9 to 14) (size 15 to 20)
#    0.000    1.600    3.200    2.400    3.360    0.640 
#    0.000    0.000    0.000    1.920    0.000    0.000 
#    0.000    0.000    0.000    0.000    0.000    0.000 
#
# Total GULP energy -619546.119281 kJ/mol
# GULP energy per Si atom -12390.922386 kJ/mol
# Density = 2.090393 g / cm^3
# Si number density = 20.951619 Si / 1000 Ang^3
#
#
#
# Elastic Constant Matrix: (Units=GPa)
#
#
# Indices 1 2 3 4 5 6 
#
# 1 63.4710 16.2880 23.5621 0.0000 0.0000 0.0000
# 2 16.2880 72.5434 56.1095 0.0000 0.0000 0.0000
# 3 23.5621 56.1095 208.5325 0.0000 0.0000 0.0000
# 4 0.0000 0.0000 0.0000 37.6360 0.0000 0.0000
# 5 0.0000 0.0000 0.0000 0.0000 11.3430 0.0000
# 6 0.0000 0.0000 0.0000 0.0000 0.0000 28.0992
#
#
#
# Elastic Compliance Matrix: (Units=1/GPa)
#
#
# Indices 1 2 3 4 5 6 
#
# 1 0.016925 -0.002931 -0.001124 0.000000 0.000000 0.000000
# 2 -0.002931 0.017915 -0.004489 0.000000 0.000000 0.000000
# 3 -0.001124 -0.004489 0.006130 0.000000 0.000000 0.000000
# 4 0.000000 0.000000 0.000000 0.026570 0.000000 0.000000
# 5 0.000000 0.000000 0.000000 0.000000 0.088160 0.000000
# 6 0.000000 0.000000 0.000000 0.000000 0.000000 0.035588
#
#
# Mechanical properties :
#
#
# Convention : Reuss Voigt Hill
#
# Bulk Modulus (GPa) = 41.87197 59.60734 50.73966
# Shear Modulus (GPa) = 23.11212 31.98813 27.55012
#
# Velocity S-wave (km/s) = 3.32493 3.91162 3.63014
# Velocity P-wave (km/s) = 5.89649 6.99377 6.46844
#
# Compressibility (1/GPa) = 0.02388232
#
# Stress axis : x y z
#
# Youngs Moduli (GPa) = 59.08591 55.81868 163.12436
#
# Poissons Ratio (x) = 0.16360 0.18330
# Poissons Ratio (y) = 0.17317 0.73230
# Poissons Ratio (z) = 0.06639 0.25058
#
# Static dielectric constant tensor:
#      x y z
#    x 3.334170 0.000000 0.000000 
#    y 0.000000 3.722020 0.000000 
#    z 0.000000 0.000000 4.967780 
# 
# 
# High freq. dielectric constant tensor:
#      x y z
#    x 1.779080 0.000000 0.000000 
#    y 0.000000 1.816350 0.000000 
#    z 0.000000 0.000000 1.859890 
# 
# From -- ./inp_files/31099.got.cif
#   From: 2010.03.12/outbox.cif.g09.slc.cpg/sg68_16_cif.got.tgz:31099.got - 2010.04.10 23:14:56.
