data_PCOD8282497
_publ_section_title
;
Structure prediction by ZEFSAII (Michael W. Deem and Ramdas Pophale) SiO2 
 PCOD8282497
Probable space group: C C C A
;
_chemical_formula_sum "Si O2"
_cell_formula_units_Z 84
_cell_length_a 8.811619
_cell_length_b 18.545346
_cell_length_c 25.556642
_cell_angle_alpha 90.000000
_cell_angle_beta 90.000000
_cell_angle_gamma 90.000000
_cell_volume 4176.326466
_symmetry_space_group_name_H-M "C C C A"
_symmetry_group_IT_number 68
_space_group.IT_coordinate_system_code '2'
_symmetry_cell_setting 'orthorhombic'
loop_
_space_group_symop_operation_xyz
x,y,z
-x,1/2-y,z
x,1/2-y,1/2-z
-x,y,1/2-z
-x,-y,-z
x,1/2+y,-z
-x,1/2+y,1/2+z
x,-y,1/2+z
1/2+x,1/2+y,z
1/2-x,-y,z
1/2+x,-y,1/2-z
1/2-x,1/2+y,1/2-z
1/2-x,1/2-y,-z
1/2+x,y,-z
1/2-x,y,1/2+z
1/2+x,1/2-y,1/2+z
loop_
_atom_site_type_symbol
_atom_site_label
_atom_site_fract_x
_atom_site_fract_y
_atom_site_fract_z
Si Si1 0.770014 0.417263 0.509849
Si Si2 0.930568 0.001734 0.696536
Si Si3 0.858662 0.431214 0.619889
Si Si4 0.908073 0.855866 0.833385
Si Si5 0.988823 0.168508 0.053969
Si Si6 0.000000 0.250000 0.250000
O O1 0.750000 0.500000 0.490948
O O2 0.888916 0.412382 0.558968
O O3 0.829403 0.367579 0.462617
O O4 0.613087 0.384916 0.530173
O O5 0.000000 0.034401 0.750000
O O6 0.981944 0.053144 0.648449
O O7 0.750000 0.000000 0.699294
O O8 0.001039 0.923211 0.689580
O O9 0.750000 0.500000 0.621089
O O10 0.766323 0.369286 0.650265
O O11 0.002749 0.828135 0.883402
O O12 0.893644 0.797376 0.787582
O O13 0.000000 0.250000 0.031566
#
# Coordination Sequence:
#
# PCOD8282497 Si02
#       6
#    16  16  16  16  16   4
#     4  10  21  38  61  83 119 155 193 245 295 350
#     4  11  21  35  59  87 113 144 188 244 296 343
#     4   8  18  37  57  82 111 145 187 239 290 339
#     4  10  21  36  59  84 111 152 197 232 284 353
#     4  11  22  38  58  89 118 155 196 242 298 358
#     4  12  20  36  60  78 112 160 202 222 290 344
#
# _framework density 20.113368999999999
#
# number of rings (size 3 to 8) (size 9 to 14) (size 15 to 20)
#    0.000    1.905    1.905    4.000    0.000    2.286 
#    0.000    0.000    0.000    1.143    0.000    0.000 
#    0.000    0.000    0.000    0.000    0.000    0.000 
#
# Total GULP energy -520679.670096 kJ/mol
# GULP energy per Si atom -12397.135002 kJ/mol
# Density = 2.006759 g / cm^3
# Si number density = 20.113369 Si / 1000 Ang^3
#
#
#
# Elastic Constant Matrix: (Units=GPa)
#
#
# Indices 1 2 3 4 5 6 
#
# 1 65.2056 1.3650 31.3395 0.0000 0.0000 0.0000
# 2 1.3650 103.2156 32.3871 0.0000 0.0000 0.0000
# 3 31.3395 32.3871 101.7837 0.0000 0.0000 0.0000
# 4 0.0000 0.0000 0.0000 9.3801 0.0000 0.0000
# 5 0.0000 0.0000 0.0000 0.0000 22.9806 0.0000
# 6 0.0000 0.0000 0.0000 0.0000 0.0000 20.2527
#
#
#
# Elastic Compliance Matrix: (Units=1/GPa)
#
#
# Indices 1 2 3 4 5 6 
#
# 1 0.018262 0.001692 -0.006161 0.000000 0.000000 0.000000
# 2 0.001692 0.010920 -0.003996 0.000000 0.000000 0.000000
# 3 -0.006161 -0.003996 0.012993 0.000000 0.000000 0.000000
# 4 0.000000 0.000000 0.000000 0.106609 0.000000 0.000000
# 5 0.000000 0.000000 0.000000 0.000000 0.043515 0.000000
# 6 0.000000 0.000000 0.000000 0.000000 0.000000 0.049376
#
#
# Mechanical properties :
#
#
# Convention : Reuss Voigt Hill
#
# Bulk Modulus (GPa) = 39.61187 44.48755 42.04971
# Shear Modulus (GPa) = 18.72521 24.19690 21.46105
#
# Velocity S-wave (km/s) = 3.05451 3.47223 3.27005
# Velocity P-wave (km/s) = 5.67249 6.18398 5.93375
#
# Compressibility (1/GPa) = 0.02524496
#
# Stress axis : x y z
#
# Youngs Moduli (GPa) = 54.75871 91.57672 76.96350
#
# Poissons Ratio (x) = -0.15493 0.47419
# Poissons Ratio (y) = -0.09264 0.30751
# Poissons Ratio (z) = 0.33738 0.36590
#
# Static dielectric constant tensor:
#      x y z
#    x 3.384010 0.000000 0.000000 
#    y 0.000000 3.677070 0.000000 
#    z 0.000000 0.000000 4.088360 
# 
# 
# High freq. dielectric constant tensor:
#      x y z
#    x 1.757970 0.000000 0.000000 
#    y 0.000000 1.775220 0.000000 
#    z 0.000000 0.000000 1.801260 
# 
# From -- ./inp_files/43072.got.cif
#   From: 2010.03.12/outbox.cif.g09.slc.cpg/sg68_22_cif.got.tgz:43072.got - 2010.04.10 23:14:56.
