data_PCOD8282523
_publ_section_title
;
Structure prediction by ZEFSAII (Michael W. Deem and Ramdas Pophale) SiO2 
 PCOD8282523
Probable space group: C C C A
;
_chemical_formula_sum "Si O2"
_cell_formula_units_Z 80
_cell_length_a 4.993620
_cell_length_b 25.753728
_cell_length_c 28.118298
_cell_angle_alpha 90.000000
_cell_angle_beta 90.000000
_cell_angle_gamma 90.000000
_cell_volume 3616.134909
_symmetry_space_group_name_H-M "C C C A"
_symmetry_group_IT_number 68
_space_group.IT_coordinate_system_code '2'
_symmetry_cell_setting 'orthorhombic'
loop_
_space_group_symop_operation_xyz
x,y,z
-x,1/2-y,z
x,1/2-y,1/2-z
-x,y,1/2-z
-x,-y,-z
x,1/2+y,-z
-x,1/2+y,1/2+z
x,-y,1/2+z
1/2+x,1/2+y,z
1/2-x,-y,z
1/2+x,-y,1/2-z
1/2-x,1/2+y,1/2-z
1/2-x,1/2-y,-z
1/2+x,y,-z
1/2-x,y,1/2+z
1/2+x,1/2-y,1/2+z
loop_
_atom_site_type_symbol
_atom_site_label
_atom_site_fract_x
_atom_site_fract_y
_atom_site_fract_z
Si Si1 0.000000 0.658609 0.250000
Si Si2 0.750000 0.000000 0.820389
Si Si3 0.750000 0.500000 0.382132
Si Si4 0.933152 0.180814 0.027616
Si Si5 0.000000 0.250000 0.387376
Si Si6 0.000000 0.250000 0.822258
Si Si7 0.000000 0.915043 0.750000
Si Si8 0.600518 0.940709 0.029079
O O1 0.253420 0.622452 0.235144
O O2 0.931543 0.697659 0.206955
O O3 0.619863 0.047491 0.790820
O O4 0.498241 0.977673 0.850760
O O5 0.615516 0.543640 0.415536
O O6 0.937536 0.119868 0.029686
O O7 0.029974 0.200085 0.078882
O O8 0.641948 0.201328 0.012301
O O9 0.249638 0.238606 0.354700
O O10 0.359446 0.963077 0.997678
#
# Coordination Sequence:
#
# PCOD8282523 Si02
#       8
#     8   8   8  16   8   8   8  16
#     4  11  25  48  73  92 131 176 207 265 342 398
#     4  12  27  43  66 102 126 160 224 267 323 414
#     4  12  23  39  64  94 130 162 210 279 321 370
#     4  10  21  37  57  85 124 171 214 252 308 375
#     4  12  22  38  64  93 132 163 208 278 318 364
#     4  11  26  43  66 105 128 161 226 267 320 411
#     4  12  25  49  73  92 133 177 207 268 342 398
#     4  10  21  38  59  87 127 174 217 257 315 383
#
# _framework density 22.123068
#
# number of rings (size 3 to 8) (size 9 to 14) (size 15 to 20)
#    0.000    1.000    0.000    7.200    0.000    6.400 
#    0.000    0.000    0.000    0.000    0.000    0.000 
#    0.000    0.000    0.000    0.000    0.000    0.000 
#
# Total GULP energy -495720.840561 kJ/mol
# GULP energy per Si atom -12393.021014 kJ/mol
# Density = 2.207272 g / cm^3
# Si number density = 22.123068 Si / 1000 Ang^3
#
#
#
# Elastic Constant Matrix: (Units=GPa)
#
#
# Indices 1 2 3 4 5 6 
#
# 1 129.0920 48.9937 46.8804 0.0000 0.0000 0.0000
# 2 48.9937 111.1934 40.2417 0.0000 0.0000 0.0000
# 3 46.8804 40.2417 125.3950 0.0000 0.0000 0.0000
# 4 0.0000 0.0000 0.0000 29.7183 0.0000 0.0000
# 5 0.0000 0.0000 0.0000 0.0000 51.9345 0.0000
# 6 0.0000 0.0000 0.0000 0.0000 0.0000 41.0881
#
#
#
# Elastic Compliance Matrix: (Units=1/GPa)
#
#
# Indices 1 2 3 4 5 6 
#
# 1 0.010016 -0.003460 -0.002634 0.000000 0.000000 0.000000
# 2 -0.003460 0.011370 -0.002355 0.000000 0.000000 0.000000
# 3 -0.002634 -0.002355 0.009716 0.000000 0.000000 0.000000
# 4 0.000000 0.000000 0.000000 0.033649 0.000000 0.000000
# 5 0.000000 0.000000 0.000000 0.000000 0.019255 0.000000
# 6 0.000000 0.000000 0.000000 0.000000 0.000000 0.024338
#
#
# Mechanical properties :
#
#
# Convention : Reuss Voigt Hill
#
# Bulk Modulus (GPa) = 70.40895 70.87911 70.64403
# Shear Modulus (GPa) = 38.46807 39.85248 39.16028
#
# Velocity S-wave (km/s) = 4.17444 4.24889 4.21183
# Velocity P-wave (km/s) = 7.42494 7.49526 7.46018
#
# Compressibility (1/GPa) = 0.01420274
#
# Stress axis : x y z
#
# Youngs Moduli (GPa) = 99.83814 87.94850 102.92762
#
# Poissons Ratio (x) = 0.30430 0.27114
# Poissons Ratio (y) = 0.34543 0.24244
# Poissons Ratio (z) = 0.26300 0.20716
#
# Static dielectric constant tensor:
#      x y z
#    x 4.509590 0.000000 0.000000 
#    y 0.000000 3.994380 0.000000 
#    z 0.000000 0.000000 4.001340 
# 
# 
# High freq. dielectric constant tensor:
#      x y z
#    x 1.895430 0.000000 0.000000 
#    y 0.000000 1.891320 0.000000 
#    z 0.000000 0.000000 1.866690 
# 
# From -- ./inp_files/48479.got.cif
#   From: 2010.03.12/outbox.cif.g09.slc.cpg/sg68_25_cif.got.tgz:48479.got - 2010.04.10 23:14:56.
