data_PCOD8282804
_publ_section_title
;
Structure prediction by ZEFSAII (Michael W. Deem and Ramdas Pophale) SiO2 
 PCOD8282804
Probable space group: C C C A
;
_chemical_formula_sum "Si O2"
_cell_formula_units_Z 120
_cell_length_a 21.556560
_cell_length_b 11.526642
_cell_length_c 24.055430
_cell_angle_alpha 90.000000
_cell_angle_beta 90.000000
_cell_angle_gamma 90.000000
_cell_volume 5977.166952
_symmetry_space_group_name_H-M "C C C A"
_symmetry_group_IT_number 68
_space_group.IT_coordinate_system_code '2'
_symmetry_cell_setting 'orthorhombic'
loop_
_space_group_symop_operation_xyz
x,y,z
-x,1/2-y,z
x,1/2-y,1/2-z
-x,y,1/2-z
-x,-y,-z
x,1/2+y,-z
-x,1/2+y,1/2+z
x,-y,1/2+z
1/2+x,1/2+y,z
1/2-x,-y,z
1/2+x,-y,1/2-z
1/2-x,1/2+y,1/2-z
1/2-x,1/2-y,-z
1/2+x,y,-z
1/2-x,y,1/2+z
1/2+x,1/2-y,1/2+z
loop_
_atom_site_type_symbol
_atom_site_label
_atom_site_fract_x
_atom_site_fract_y
_atom_site_fract_z
Si Si1 0.715531 0.671486 0.098908
Si Si2 0.250000 0.500000 0.710745
Si Si3 0.640582 0.077504 0.150653
Si Si4 0.067912 0.299089 0.865307
Si Si5 0.843228 0.941274 0.434432
Si Si6 0.159340 0.355001 0.285328
Si Si7 0.688192 0.076238 0.557465
Si Si8 0.931942 0.460856 0.735958
O O1 0.785997 0.627284 0.093969
O O2 0.667324 0.578434 0.073725
O O3 0.697141 0.691389 0.162594
O O4 0.708577 0.792864 0.068385
O O5 0.288346 0.588040 0.671241
O O6 0.207294 0.577799 0.747646
O O7 0.617899 0.197497 0.124984
O O8 0.598379 0.051453 0.203759
O O9 0.641007 0.975270 0.104131
O O10 0.091642 0.401003 0.906281
O O11 0.067198 0.343358 0.801108
O O12 0.000000 0.250000 0.881522
O O13 0.848944 0.919342 0.499850
O O14 0.130744 0.250000 0.250000
O O15 0.103254 0.441758 0.300622
O O16 0.750000 0.000000 0.550345
O O17 0.000000 0.504804 0.750000
#
# Coordination Sequence:
#
# PCOD8282804 Si02
#       8
#    16   8  16  16  16  16  16  16
#     4  11  22  42  64  99 142 172 222 282 348 414
#     4  10  22  38  58 100 136 168 212 272 344 414
#     4  11  24  38  67 100 136 172 219 278 341 402
#     4  12  25  45  71 100 135 178 235 290 330 404
#     4  11  25  40  71 100 130 184 228 286 343 399
#     4  11  24  38  61  97 141 175 217 277 348 416
#     4  12  24  43  66 101 139 180 227 278 351 415
#     4  11  23  44  66  98 130 178 231 276 335 409
#
# _framework density 20.076402000000002
#
# number of rings (size 3 to 8) (size 9 to 14) (size 15 to 20)
#    0.000    0.800    4.667    4.000    5.600    0.267 
#    0.000    0.667    2.933    0.000    0.000    0.000 
#    0.000    0.000    0.000    0.000    0.000    0.000 
#
# Total GULP energy -743854.926341 kJ/mol
# GULP energy per Si atom -12397.582106 kJ/mol
# Density = 2.003071 g / cm^3
# Si number density = 20.076402 Si / 1000 Ang^3
#
#
#
# Elastic Constant Matrix: (Units=GPa)
#
#
# Indices 1 2 3 4 5 6 
#
# 1 116.0524 45.8694 38.3519 0.0000 0.0000 0.0000
# 2 45.8694 124.1051 31.0943 0.0000 0.0000 0.0000
# 3 38.3519 31.0943 115.4583 0.0000 0.0000 0.0000
# 4 0.0000 0.0000 0.0000 23.0474 0.0000 0.0000
# 5 0.0000 0.0000 0.0000 0.0000 19.6293 0.0000
# 6 0.0000 0.0000 0.0000 0.0000 0.0000 31.6504
#
#
#
# Elastic Compliance Matrix: (Units=1/GPa)
#
#
# Indices 1 2 3 4 5 6 
#
# 1 0.010823 -0.003324 -0.002700 0.000000 0.000000 0.000000
# 2 -0.003324 0.009661 -0.001498 0.000000 0.000000 0.000000
# 3 -0.002700 -0.001498 0.009961 0.000000 0.000000 0.000000
# 4 0.000000 0.000000 0.000000 0.043389 0.000000 0.000000
# 5 0.000000 0.000000 0.000000 0.000000 0.050944 0.000000
# 6 0.000000 0.000000 0.000000 0.000000 0.000000 0.031595
#
#
# Mechanical properties :
#
#
# Convention : Reuss Voigt Hill
#
# Bulk Modulus (GPa) = 64.92416 65.13855 65.03136
# Shear Modulus (GPa) = 28.32047 30.88544 29.60296
#
# Velocity S-wave (km/s) = 3.75992 3.92649 3.84411
# Velocity P-wave (km/s) = 7.15947 7.28507 7.22254
#
# Compressibility (1/GPa) = 0.01540259
#
# Stress axis : x y z
#
# Youngs Moduli (GPa) = 92.39851 103.50466 100.38787
#
# Poissons Ratio (x) = 0.34401 0.27104
# Poissons Ratio (y) = 0.30710 0.15037
# Poissons Ratio (z) = 0.24947 0.15504
#
# Static dielectric constant tensor:
#      x y z
#    x 3.673450 0.000000 0.000000 
#    y 0.000000 3.892400 0.000000 
#    z 0.000000 0.000000 3.956840 
# 
# 
# High freq. dielectric constant tensor:
#      x y z
#    x 1.762880 0.000000 0.000000 
#    y 0.000000 1.792150 0.000000 
#    z 0.000000 0.000000 1.790560 
# 
# From -- ./inp_files/46700.got.cif
#   From: 2010.03.12/outbox.cif.g09.slc.cpg/sg68_24_cif.got.tgz:46700.got - 2010.04.10 23:14:56.
