data_PCOD8282486
_publ_section_title
;
Structure prediction by ZEFSAII (Michael W. Deem and Ramdas Pophale) SiO2 
 PCOD8282486
Probable space group: C C C A
;
_chemical_formula_sum "Si O2"
_cell_formula_units_Z 56
_cell_length_a 15.727852
_cell_length_b 5.011666
_cell_length_c 33.192989
_cell_angle_alpha 90.000000
_cell_angle_beta 90.000000
_cell_angle_gamma 90.000000
_cell_volume 2616.362379
_symmetry_space_group_name_H-M "C C C A"
_symmetry_group_IT_number 68
_space_group.IT_coordinate_system_code '2'
_symmetry_cell_setting 'orthorhombic'
loop_
_space_group_symop_operation_xyz
x,y,z
-x,1/2-y,z
x,1/2-y,1/2-z
-x,y,1/2-z
-x,-y,-z
x,1/2+y,-z
-x,1/2+y,1/2+z
x,-y,1/2+z
1/2+x,1/2+y,z
1/2-x,-y,z
1/2+x,-y,1/2-z
1/2-x,1/2+y,1/2-z
1/2-x,1/2-y,-z
1/2+x,y,-z
1/2-x,y,1/2+z
1/2+x,1/2-y,1/2+z
loop_
_atom_site_type_symbol
_atom_site_label
_atom_site_fract_x
_atom_site_fract_y
_atom_site_fract_z
Si Si1 0.941281 0.503670 0.807774
Si Si2 0.695967 0.750000 0.750000
Si Si3 0.556586 0.508804 0.397546
Si Si4 0.650106 0.995516 0.523142
O O1 0.859761 0.421635 0.781560
O O2 0.907425 0.574009 0.852752
O O3 0.000000 0.250000 0.808181
O O4 0.000000 0.750000 0.791071
O O5 0.750000 0.500000 0.730363
O O6 0.500000 0.250000 0.395311
O O7 0.632126 0.471398 0.429294
O O8 0.500000 0.750000 0.413594
O O9 0.609400 0.753548 0.497944
O O10 0.750000 0.000000 0.517884
#
# Coordination Sequence:
#
# PCOD8282486 Si02
#       4
#    16   8  16  16
#     4  10  22  42  64  86 120 164 200 239 305 372
#     4  12  25  40  63  98 126 152 204 260 305 360
#     4  10  21  37  59  86 112 148 199 243 283 343
#     4  10  21  36  54  80 115 153 188 230 292 351
#
# _framework density 21.403760999999999
#
# number of rings (size 3 to 8) (size 9 to 14) (size 15 to 20)
#    0.000    1.714    0.000    3.857    0.000    5.714 
#    0.000    4.286    0.000    0.000    0.000    0.000 
#    0.000    0.000    0.000    0.000    0.000    0.000 
#
# Total GULP energy -346919.262845 kJ/mol
# GULP energy per Si atom -12389.973673 kJ/mol
# Density = 2.135504 g / cm^3
# Si number density = 21.403761 Si / 1000 Ang^3
#
#
#
# Elastic Constant Matrix: (Units=GPa)
#
#
# Indices 1 2 3 4 5 6 
#
# 1 58.6820 44.9285 49.6870 0.0000 0.0000 0.0000
# 2 44.9285 168.1528 42.8413 0.0000 0.0000 0.0000
# 3 49.6870 42.8413 129.7131 0.0000 0.0000 0.0000
# 4 0.0000 0.0000 0.0000 35.7296 0.0000 0.0000
# 5 0.0000 0.0000 0.0000 0.0000 34.0815 0.0000
# 6 0.0000 0.0000 0.0000 0.0000 0.0000 30.9286
#
#
#
# Elastic Compliance Matrix: (Units=1/GPa)
#
#
# Indices 1 2 3 4 5 6 
#
# 1 0.029097 -0.005388 -0.009366 0.000000 0.000000 0.000000
# 2 -0.005388 0.007491 -0.000410 0.000000 0.000000 0.000000
# 3 -0.009366 -0.000410 0.011432 0.000000 0.000000 0.000000
# 4 0.000000 0.000000 0.000000 0.027988 0.000000 0.000000
# 5 0.000000 0.000000 0.000000 0.000000 0.029341 0.000000
# 6 0.000000 0.000000 0.000000 0.000000 0.000000 0.032332
#
#
# Mechanical properties :
#
#
# Convention : Reuss Voigt Hill
#
# Bulk Modulus (GPa) = 56.52388 70.16239 63.34314
# Shear Modulus (GPa) = 28.75088 34.75402 31.75245
#
# Velocity S-wave (km/s) = 3.66903 4.03393 3.85580
# Velocity P-wave (km/s) = 6.66444 7.38569 7.03431
#
# Compressibility (1/GPa) = 0.01769164
#
# Stress axis : x y z
#
# Youngs Moduli (GPa) = 34.36837 133.49149 87.47016
#
# Poissons Ratio (x) = 0.71926 0.81924
# Poissons Ratio (y) = 0.18518 0.03588
# Poissons Ratio (z) = 0.32189 0.05476
#
# Static dielectric constant tensor:
#      x y z
#    x 3.538610 0.000000 0.000000 
#    y 0.000000 4.404260 0.000000 
#    z 0.000000 0.000000 4.280590 
# 
# 
# High freq. dielectric constant tensor:
#      x y z
#    x 1.815230 0.000000 0.000000 
#    y 0.000000 1.869240 0.000000 
#    z 0.000000 0.000000 1.842380 
# 
# From -- ./inp_files/55030.got.cif
#   From: 2010.03.12/outbox.cif.g09.slc.cpg/sg68_28_cif.got.tgz:55030.got - 2010.04.10 23:14:56.
