data_PCOD8282895
_publ_section_title
;
Structure prediction by ZEFSAII (Michael W. Deem and Ramdas Pophale) SiO2 
 PCOD8282895
Probable space group: C C C A
;
_chemical_formula_sum "Si O2"
_cell_formula_units_Z 88
_cell_length_a 21.607011
_cell_length_b 5.380788
_cell_length_c 32.912727
_cell_angle_alpha 90.000000
_cell_angle_beta 90.000000
_cell_angle_gamma 90.000000
_cell_volume 3826.524003
_symmetry_space_group_name_H-M "C C C A"
_symmetry_group_IT_number 68
_space_group.IT_coordinate_system_code '2'
_symmetry_cell_setting 'orthorhombic'
loop_
_space_group_symop_operation_xyz
x,y,z
-x,1/2-y,z
x,1/2-y,1/2-z
-x,y,1/2-z
-x,-y,-z
x,1/2+y,-z
-x,1/2+y,1/2+z
x,-y,1/2+z
1/2+x,1/2+y,z
1/2-x,-y,z
1/2+x,-y,1/2-z
1/2-x,1/2+y,1/2-z
1/2-x,1/2-y,-z
1/2+x,y,-z
1/2-x,y,1/2+z
1/2+x,1/2-y,1/2+z
loop_
_atom_site_type_symbol
_atom_site_label
_atom_site_fract_x
_atom_site_fract_y
_atom_site_fract_z
Si Si1 0.870196 0.645896 0.478156
Si Si2 0.853707 0.714462 0.165579
Si Si3 0.291840 0.750000 0.750000
Si Si4 0.333068 0.093400 0.899705
Si Si5 0.500000 0.750000 0.549860
Si Si6 0.250000 0.000000 0.117121
Si Si7 0.446302 0.419119 0.881515
O O1 0.845786 0.405732 0.503247
O O2 0.841833 0.626588 0.432742
O O3 0.944983 0.642864 0.478151
O O4 0.840533 0.736133 0.213095
O O5 0.808616 0.510636 0.146480
O O6 0.922556 0.615424 0.153185
O O7 0.836779 0.977803 0.145379
O O8 0.250000 0.500000 0.747526
O O9 0.267344 0.244807 0.907365
O O10 0.391262 0.273082 0.903576
O O11 0.524610 0.538176 0.579031
O O12 0.500000 0.250000 0.860620
#
# Coordination Sequence:
#
# PCOD8282895 Si02
#       7
#    16  16   8  16   8   8  16
#     4  12  26  41  64 101 137 179 240 306 363 416
#     4  11  23  43  71 104 140 180 231 295 351 428
#     4  12  26  46  76 117 147 176 236 302 360 410
#     4  11  23  41  67  93 140 184 238 287 360 430
#     4  12  22  42  64  99 138 180 236 307 350 432
#     4  10  22  40  68  96 126 190 232 284 352 432
#     4  11  21  39  69 101 136 188 234 280 348 435
#
# _framework density 22.997373
#
# number of rings (size 3 to 8) (size 9 to 14) (size 15 to 20)
#    0.000    0.727    4.545    3.273    5.091    0.000 
#    0.000    0.909    0.000    8.182    0.000    0.000 
#    0.000    0.000    0.000    0.000    0.000    0.000 
#
# Total GULP energy -545360.105512 kJ/mol
# GULP energy per Si atom -12394.547853 kJ/mol
# Density = 2.294503 g / cm^3
# Si number density = 22.997373 Si / 1000 Ang^3
#
#
#
# Elastic Constant Matrix: (Units=GPa)
#
#
# Indices 1 2 3 4 5 6 
#
# 1 75.1235 25.9186 18.3965 0.0000 0.0000 0.0000
# 2 25.9186 136.2950 33.7813 0.0000 0.0000 0.0000
# 3 18.3965 33.7813 95.5764 0.0000 0.0000 0.0000
# 4 0.0000 0.0000 0.0000 24.2258 0.0000 0.0000
# 5 0.0000 0.0000 0.0000 0.0000 35.2679 0.0000
# 6 0.0000 0.0000 0.0000 0.0000 0.0000 49.2420
#
#
#
# Elastic Compliance Matrix: (Units=1/GPa)
#
#
# Indices 1 2 3 4 5 6 
#
# 1 0.014588 -0.002278 -0.002003 0.000000 0.000000 0.000000
# 2 -0.002278 0.008397 -0.002530 0.000000 0.000000 0.000000
# 3 -0.002003 -0.002530 0.011742 0.000000 0.000000 0.000000
# 4 0.000000 0.000000 0.000000 0.041278 0.000000 0.000000
# 5 0.000000 0.000000 0.000000 0.000000 0.028354 0.000000
# 6 0.000000 0.000000 0.000000 0.000000 0.000000 0.020308
#
#
# Mechanical properties :
#
#
# Convention : Reuss Voigt Hill
#
# Bulk Modulus (GPa) = 47.37724 51.46531 49.42128
# Shear Modulus (GPa) = 34.40601 37.00705 35.70653
#
# Velocity S-wave (km/s) = 3.87212 4.01582 3.94462
# Velocity P-wave (km/s) = 6.37471 6.62795 6.50257
#
# Compressibility (1/GPa) = 0.02110718
#
# Stress axis : x y z
#
# Youngs Moduli (GPa) = 68.55097 119.08844 85.16154
#
# Poissons Ratio (x) = 0.27124 0.17056
# Poissons Ratio (y) = 0.15614 0.21542
# Poissons Ratio (z) = 0.13729 0.30124
#
# Static dielectric constant tensor:
#      x y z
#    x 4.796930 0.000000 0.000000 
#    y 0.000000 4.621020 0.000000 
#    z 0.000000 0.000000 3.875190 
# 
# 
# High freq. dielectric constant tensor:
#      x y z
#    x 1.911520 0.000000 0.000000 
#    y 0.000000 1.934200 0.000000 
#    z 0.000000 0.000000 1.873200 
# 
# From -- ./inp_files/55992.got.cif
#   From: 2010.03.12/outbox.cif.g09.slc.cpg/sg68_28_cif.got.tgz:55992.got - 2010.04.10 23:14:56.
