data_PCOD8282899
_publ_section_title
;
Structure prediction by ZEFSAII (Michael W. Deem and Ramdas Pophale) SiO2 
 PCOD8282899
Probable space group: C C C A
;
_chemical_formula_sum "Si O2"
_cell_formula_units_Z 60
_cell_length_a 22.527276
_cell_length_b 7.464982
_cell_length_c 15.202690
_cell_angle_alpha 90.000000
_cell_angle_beta 90.000000
_cell_angle_gamma 90.000000
_cell_volume 2556.571155
_symmetry_space_group_name_H-M "C C C A"
_symmetry_group_IT_number 68
_space_group.IT_coordinate_system_code '2'
_symmetry_cell_setting 'orthorhombic'
loop_
_space_group_symop_operation_xyz
x,y,z
-x,1/2-y,z
x,1/2-y,1/2-z
-x,y,1/2-z
-x,-y,-z
x,1/2+y,-z
-x,1/2+y,1/2+z
x,-y,1/2+z
1/2+x,1/2+y,z
1/2-x,-y,z
1/2+x,-y,1/2-z
1/2-x,1/2+y,1/2-z
1/2-x,1/2-y,-z
1/2+x,y,-z
1/2-x,y,1/2+z
1/2+x,1/2-y,1/2+z
loop_
_atom_site_type_symbol
_atom_site_label
_atom_site_fract_x
_atom_site_fract_y
_atom_site_fract_z
Si Si1 0.404931 0.133213 0.121590
Si Si2 0.250000 0.000000 0.027311
Si Si3 0.676637 0.322459 0.658324
Si Si4 0.000000 0.750000 0.250000
Si Si5 0.124980 0.023980 0.438874
O O1 0.461348 0.121287 0.186273
O O2 0.388324 0.342450 0.112390
O O3 0.351076 0.022817 0.165904
O O4 0.417903 0.051813 0.023868
O O5 0.232551 0.168520 0.091026
O O6 0.307052 0.039769 0.969479
O O7 0.701915 0.250000 0.750000
O O8 0.622005 0.193882 0.626606
#
# Coordination Sequence:
#
# PCOD8282899 Si02
#       5
#    16   8  16   4  16
#     4  11  24  46  71  99 135 184 238 293 347 415
#     4  10  22  40  70 104 140 192 218 268 342 422
#     4  11  24  42  65 106 145 183 226 283 340 416
#     4  12  28  48  70 100 138 178 244 312 362 398
#     4  11  22  44  74 101 144 184 232 277 344 432
#
# _framework density 23.468934000000001
#
# number of rings (size 3 to 8) (size 9 to 14) (size 15 to 20)
#    0.000    1.067    5.333    2.400    3.733    2.133 
#    9.600    4.667    0.000    0.000    0.000    0.000 
#    0.000    0.000    0.000    0.000    0.000    0.000 
#
# Total GULP energy -371703.171041 kJ/mol
# GULP energy per Si atom -12390.105701 kJ/mol
# Density = 2.341552 g / cm^3
# Si number density = 23.468934 Si / 1000 Ang^3
#
#
#
# Elastic Constant Matrix: (Units=GPa)
#
#
# Indices 1 2 3 4 5 6 
#
# 1 86.7265 25.9420 32.5958 0.0000 0.0000 0.0000
# 2 25.9420 139.8900 25.4207 0.0000 0.0000 0.0000
# 3 32.5958 25.4207 84.9787 0.0000 0.0000 0.0000
# 4 0.0000 0.0000 0.0000 43.6579 0.0000 0.0000
# 5 0.0000 0.0000 0.0000 0.0000 44.2679 0.0000
# 6 0.0000 0.0000 0.0000 0.0000 0.0000 16.6791
#
#
#
# Elastic Compliance Matrix: (Units=1/GPa)
#
#
# Indices 1 2 3 4 5 6 
#
# 1 0.013842 -0.001694 -0.004803 0.000000 0.000000 0.000000
# 2 -0.001694 0.007767 -0.001673 0.000000 0.000000 0.000000
# 3 -0.004803 -0.001673 0.014111 0.000000 0.000000 0.000000
# 4 0.000000 0.000000 0.000000 0.022905 0.000000 0.000000
# 5 0.000000 0.000000 0.000000 0.000000 0.022590 0.000000
# 6 0.000000 0.000000 0.000000 0.000000 0.000000 0.059955
#
#
# Mechanical properties :
#
#
# Convention : Reuss Voigt Hill
#
# Bulk Modulus (GPa) = 51.60333 53.27914 52.44123
# Shear Modulus (GPa) = 30.49325 36.09678 33.29501
#
# Velocity S-wave (km/s) = 3.60849 3.92607 3.77063
# Velocity P-wave (km/s) = 6.27673 6.58053 6.43042
#
# Compressibility (1/GPa) = 0.01937860
#
# Stress axis : x y z
#
# Youngs Moduli (GPa) = 72.24180 128.75369 70.86919
#
# Poissons Ratio (x) = 0.21814 0.34037
# Poissons Ratio (y) = 0.12240 0.11860
# Poissons Ratio (z) = 0.34696 0.21547
#
# Static dielectric constant tensor:
#      x y z
#    x 3.856690 0.000000 0.000000 
#    y 0.000000 4.423260 0.000000 
#    z 0.000000 0.000000 4.386760 
# 
# 
# High freq. dielectric constant tensor:
#      x y z
#    x 1.880550 0.000000 0.000000 
#    y 0.000000 1.942480 0.000000 
#    z 0.000000 0.000000 1.937830 
# 
# From -- ./inp_files/24956.got.cif
#   From: 2010.03.12/outbox.cif.g09.slc.cpg/sg68_13_cif.got.tgz:24956.got - 2010.04.10 23:14:56.
