data_PCOD8282794
_publ_section_title
;
Structure prediction by ZEFSAII (Michael W. Deem and Ramdas Pophale) SiO2 
 PCOD8282794
Probable space group: C C C A
;
_chemical_formula_sum "Si O2"
_cell_formula_units_Z 88
_cell_length_a 12.500628
_cell_length_b 27.702009
_cell_length_c 12.623378
_cell_angle_alpha 90.000000
_cell_angle_beta 90.000000
_cell_angle_gamma 90.000000
_cell_volume 4371.381244
_symmetry_space_group_name_H-M "C C C A"
_symmetry_group_IT_number 68
_space_group.IT_coordinate_system_code '2'
_symmetry_cell_setting 'orthorhombic'
loop_
_space_group_symop_operation_xyz
x,y,z
-x,1/2-y,z
x,1/2-y,1/2-z
-x,y,1/2-z
-x,-y,-z
x,1/2+y,-z
-x,1/2+y,1/2+z
x,-y,1/2+z
1/2+x,1/2+y,z
1/2-x,-y,z
1/2+x,-y,1/2-z
1/2-x,1/2+y,1/2-z
1/2-x,1/2-y,-z
1/2+x,y,-z
1/2-x,y,1/2+z
1/2+x,1/2-y,1/2+z
loop_
_atom_site_type_symbol
_atom_site_label
_atom_site_fract_x
_atom_site_fract_y
_atom_site_fract_z
Si Si1 0.395012 0.615712 0.176718
Si Si2 0.677033 0.222561 0.651528
Si Si3 0.724107 0.446424 0.205025
Si Si4 0.000000 0.080455 0.750000
Si Si5 0.385951 0.733466 0.924673
Si Si6 0.109139 0.621659 0.435218
O O1 0.500000 0.617310 0.250000
O O2 0.332395 0.666087 0.175295
O O3 0.315683 0.574091 0.217711
O O4 0.426064 0.606384 0.053769
O O5 0.624873 0.250000 0.750000
O O6 0.617112 0.244524 0.549964
O O7 0.802738 0.234613 0.640988
O O8 0.750000 0.500000 0.165227
O O9 0.608815 0.450524 0.264870
O O10 0.710436 0.411167 0.102837
O O11 0.008732 0.112595 0.643110
O O12 0.500000 0.750000 0.879569
O O13 0.357594 0.676962 0.917909
#
# Coordination Sequence:
#
# PCOD8282794 Si02
#       6
#    16  16  16   8  16  16
#     4  11  25  40  66 102 132 175 224 271 346 397
#     4  10  23  38  57  92 131 172 213 268 321 388
#     4  10  23  44  69  92 132 171 224 280 338 405
#     4   8  22  44  67  92 128 170 219 270 342 392
#     4  10  22  37  62  92 128 173 225 257 329 395
#     4   9  22  43  64  99 130 179 215 287 326 401
#
# _framework density 20.130936999999999
#
# number of rings (size 3 to 8) (size 9 to 14) (size 15 to 20)
#    1.091    1.091    0.000    1.091    8.909    2.545 
#    0.000    1.818    0.000    0.000    0.000    0.000 
#    0.000    0.000    0.000    0.000    0.000    0.000 
#
# Total GULP energy -545184.157858 kJ/mol
# GULP energy per Si atom -12390.549042 kJ/mol
# Density = 2.008512 g / cm^3
# Si number density = 20.130937 Si / 1000 Ang^3
#
#
#
# Elastic Constant Matrix: (Units=GPa)
#
#
# Indices 1 2 3 4 5 6 
#
# 1 128.0224 50.3435 37.3337 0.0000 0.0000 0.0000
# 2 50.3435 118.2902 53.5261 0.0000 0.0000 0.0000
# 3 37.3337 53.5261 139.3750 0.0000 0.0000 0.0000
# 4 0.0000 0.0000 0.0000 22.9452 0.0000 0.0000
# 5 0.0000 0.0000 0.0000 0.0000 28.6289 0.0000
# 6 0.0000 0.0000 0.0000 0.0000 0.0000 29.6365
#
#
#
# Elastic Compliance Matrix: (Units=1/GPa)
#
#
# Indices 1 2 3 4 5 6 
#
# 1 0.009546 -0.003517 -0.001206 0.000000 0.000000 0.000000
# 2 -0.003517 0.011527 -0.003485 0.000000 0.000000 0.000000
# 3 -0.001206 -0.003485 0.008836 0.000000 0.000000 0.000000
# 4 0.000000 0.000000 0.000000 0.043582 0.000000 0.000000
# 5 0.000000 0.000000 0.000000 0.000000 0.034930 0.000000
# 6 0.000000 0.000000 0.000000 0.000000 0.000000 0.033742
#
#
# Mechanical properties :
#
#
# Convention : Reuss Voigt Hill
#
# Bulk Modulus (GPa) = 74.11047 74.23269 74.17158
# Shear Modulus (GPa) = 30.66016 32.54106 31.60061
#
# Velocity S-wave (km/s) = 3.90684 4.02490 3.96631
# Velocity P-wave (km/s) = 7.56607 7.65211 7.60921
#
# Compressibility (1/GPa) = 0.01349337
#
# Stress axis : x y z
#
# Youngs Moduli (GPa) = 104.75729 86.74931 113.16760
#
# Poissons Ratio (x) = 0.30508 0.13653
# Poissons Ratio (y) = 0.36841 0.39439
# Poissons Ratio (z) = 0.12638 0.30232
#
# Static dielectric constant tensor:
#      x y z
#    x 3.478630 0.000000 0.000000 
#    y 0.000000 3.441870 0.000000 
#    z 0.000000 0.000000 3.768550 
# 
# 
# High freq. dielectric constant tensor:
#      x y z
#    x 1.778530 0.000000 0.000000 
#    y 0.000000 1.776060 0.000000 
#    z 0.000000 0.000000 1.791380 
# 
# From -- ./inp_files/12021.got.cif
#   From: 2010.03.12/outbox.cif.g09.slc.cpg/sg68_7_cif.got.tgz:12021.got - 2010.04.10 23:14:56.
