data_PCOD8282777
_publ_section_title
;
Structure prediction by ZEFSAII (Michael W. Deem and Ramdas Pophale) SiO2 
 PCOD8282777
Probable space group: C C C A
;
_chemical_formula_sum "Si O2"
_cell_formula_units_Z 116
_cell_length_a 26.304471
_cell_length_b 17.237531
_cell_length_c 12.511842
_cell_angle_alpha 90.000000
_cell_angle_beta 90.000000
_cell_angle_gamma 90.000000
_cell_volume 5673.171127
_symmetry_space_group_name_H-M "C C C A"
_symmetry_group_IT_number 68
_space_group.IT_coordinate_system_code '2'
_symmetry_cell_setting 'orthorhombic'
loop_
_space_group_symop_operation_xyz
x,y,z
-x,1/2-y,z
x,1/2-y,1/2-z
-x,y,1/2-z
-x,-y,-z
x,1/2+y,-z
-x,1/2+y,1/2+z
x,-y,1/2+z
1/2+x,1/2+y,z
1/2-x,-y,z
1/2+x,-y,1/2-z
1/2-x,1/2+y,1/2-z
1/2-x,1/2-y,-z
1/2+x,y,-z
1/2-x,y,1/2+z
1/2+x,1/2-y,1/2+z
loop_
_atom_site_type_symbol
_atom_site_label
_atom_site_fract_x
_atom_site_fract_y
_atom_site_fract_z
Si Si1 0.113235 0.995440 0.763996
Si Si2 0.755027 0.802235 0.647625
Si Si3 0.163785 0.761538 0.007933
Si Si4 0.794750 0.949084 0.101952
Si Si5 0.055626 0.018262 0.464108
Si Si6 0.000000 0.250000 0.750000
Si Si7 0.417820 0.643023 0.870629
Si Si8 0.870758 0.396804 0.060530
O O1 0.163817 0.002610 0.833269
O O2 0.099454 0.078809 0.714731
O O3 0.065223 0.969229 0.837599
O O4 0.124265 0.926020 0.681710
O O5 0.765222 0.750000 0.750000
O O6 0.809747 0.811691 0.586741
O O7 0.711547 0.768216 0.573147
O O8 0.731979 0.885730 0.679945
O O9 0.126737 0.696464 0.952872
O O10 0.130183 0.805691 0.095897
O O11 0.750000 0.000000 0.056187
O O12 0.816456 0.916410 0.990933
O O13 0.068376 0.098645 0.521176
O O14 0.086596 0.940968 0.493293
O O15 0.000000 0.000000 0.500000
O O16 0.036045 0.304528 0.823903
#
# Coordination Sequence:
#
# PCOD8282777 Si02
#       8
#    16  16  16  16  16   4  16  16
#     4  10  22  41  65  92 126 174 212 265 326 384
#     4  10  22  38  60  87 124 175 213 259 324 382
#     4  10  23  39  61  91 132 163 212 270 321 377
#     4  10  22  35  60  87 128 165 221 265 308 374
#     4  10  22  41  65  90 127 157 210 268 327 381
#     4  12  28  40  76 100 122 168 222 260 356 378
#     4  11  25  41  68  98 128 161 218 272 319 396
#     4   9  22  39  58  90 126 169 210 268 319 386
#
# _framework density 20.447118
#
# number of rings (size 3 to 8) (size 9 to 14) (size 15 to 20)
#    0.000    1.931    0.000    1.655   16.414    2.207 
#    0.000    0.000    0.000    0.000    0.000    0.000 
#    0.000    0.000    0.000    0.000    0.000    0.000 
#
# Total GULP energy -718509.630280 kJ/mol
# GULP energy per Si atom -12388.097074 kJ/mol
# Density = 2.040058 g / cm^3
# Si number density = 20.447118 Si / 1000 Ang^3
#
#
#
# Elastic Constant Matrix: (Units=GPa)
#
#
# Indices 1 2 3 4 5 6 
#
# 1 113.5552 42.4089 46.1800 0.0000 0.0000 0.0000
# 2 42.4089 78.4631 36.1381 0.0000 0.0000 0.0000
# 3 46.1800 36.1381 124.8173 0.0000 0.0000 0.0000
# 4 0.0000 0.0000 0.0000 30.1878 0.0000 0.0000
# 5 0.0000 0.0000 0.0000 0.0000 33.0180 0.0000
# 6 0.0000 0.0000 0.0000 0.0000 0.0000 21.2180
#
#
#
# Elastic Compliance Matrix: (Units=1/GPa)
#
#
# Indices 1 2 3 4 5 6 
#
# 1 0.011895 -0.005080 -0.002930 0.000000 0.000000 0.000000
# 2 -0.005080 0.016875 -0.003006 0.000000 0.000000 0.000000
# 3 -0.002930 -0.003006 0.009966 0.000000 0.000000 0.000000
# 4 0.000000 0.000000 0.000000 0.033126 0.000000 0.000000
# 5 0.000000 0.000000 0.000000 0.000000 0.030287 0.000000
# 6 0.000000 0.000000 0.000000 0.000000 0.000000 0.047130
#
#
# Mechanical properties :
#
#
# Convention : Reuss Voigt Hill
#
# Bulk Modulus (GPa) = 59.86670 62.92106 61.39388
# Shear Modulus (GPa) = 28.26789 29.69198 28.97994
#
# Velocity S-wave (km/s) = 3.72222 3.81482 3.76880
# Velocity P-wave (km/s) = 6.91488 7.08825 7.00210
#
# Compressibility (1/GPa) = 0.01670378
#
# Stress axis : x y z
#
# Youngs Moduli (GPa) = 84.06901 59.25912 100.33824
#
# Poissons Ratio (x) = 0.30101 0.29401
# Poissons Ratio (y) = 0.42704 0.30166
# Poissons Ratio (z) = 0.24634 0.17816
#
# Static dielectric constant tensor:
#      x y z
#    x 3.960510 0.000000 0.000000 
#    y 0.000000 3.717880 0.000000 
#    z 0.000000 0.000000 3.913750 
# 
# 
# High freq. dielectric constant tensor:
#      x y z
#    x 1.802010 0.000000 0.000000 
#    y 0.000000 1.799580 0.000000 
#    z 0.000000 0.000000 1.797240 
# 
# From -- ./inp_files/17247.got.cif
#   From: 2010.03.12/outbox.cif.g09.slc.cpg/sg68_9_cif.got.tgz:17247.got - 2010.04.10 23:14:56.
