data_PCOD8282675
_publ_section_title
;
Structure prediction by ZEFSAII (Michael W. Deem and Ramdas Pophale) SiO2 
 PCOD8282675
Probable space group: C C C A
;
_chemical_formula_sum "Si O2"
_cell_formula_units_Z 116
_cell_length_a 24.979170
_cell_length_b 23.091612
_cell_length_c 9.756855
_cell_angle_alpha 90.000000
_cell_angle_beta 90.000000
_cell_angle_gamma 90.000000
_cell_volume 5627.844720
_symmetry_space_group_name_H-M "C C C A"
_symmetry_group_IT_number 68
_space_group.IT_coordinate_system_code '2'
_symmetry_cell_setting 'orthorhombic'
loop_
_space_group_symop_operation_xyz
x,y,z
-x,1/2-y,z
x,1/2-y,1/2-z
-x,y,1/2-z
-x,-y,-z
x,1/2+y,-z
-x,1/2+y,1/2+z
x,-y,1/2+z
1/2+x,1/2+y,z
1/2-x,-y,z
1/2+x,-y,1/2-z
1/2-x,1/2+y,1/2-z
1/2-x,1/2-y,-z
1/2+x,y,-z
1/2-x,y,1/2+z
1/2+x,1/2-y,1/2+z
loop_
_atom_site_type_symbol
_atom_site_label
_atom_site_fract_x
_atom_site_fract_y
_atom_site_fract_z
Si Si1 0.380234 0.184056 0.789620
Si Si2 0.493840 0.444323 0.092484
Si Si3 0.233619 0.637121 0.695931
Si Si4 0.386637 0.387679 0.982232
Si Si5 0.000000 0.750000 0.250000
Si Si6 0.929757 0.839662 0.425289
Si Si7 0.222830 0.561456 0.960073
Si Si8 0.153579 0.185122 0.779880
O O1 0.388092 0.250000 0.750000
O O2 0.318820 0.174687 0.835218
O O3 0.396925 0.138053 0.670208
O O4 0.418604 0.176980 0.918907
O O5 0.500000 0.463720 0.250000
O O6 0.438394 0.413618 0.054453
O O7 0.540911 0.400244 0.062729
O O8 0.500000 0.500000 0.000000
O O9 0.226439 0.600417 0.829363
O O10 0.243170 0.591097 0.577828
O O11 0.282642 0.680365 0.720967
O O12 0.367488 0.332607 0.070612
O O13 0.341182 0.438646 0.991756
O O14 0.964690 0.790949 0.347859
O O15 0.875073 0.852078 0.339893
O O16 0.250000 0.500000 0.931746
O O17 0.136166 0.250000 0.750000
#
# Coordination Sequence:
#
# PCOD8282675 Si02
#       8
#    16  16  16  16   4  16  16  16
#     4  11  25  41  64 104 142 176 212 286 351 414
#     4  12  28  50  70  98 133 181 232 289 344 412
#     4  10  22  39  62  97 139 171 223 268 339 417
#     4  10  24  45  63  98 140 169 231 284 339 416
#     4  12  24  48  74 100 128 180 234 306 320 422
#     4  12  25  44  75  98 136 176 243 275 352 404
#     4  10  21  40  64  93 130 177 227 277 332 398
#     4  11  20  39  71  98 131 184 222 277 336 419
#
# _framework density 20.611799000000001
#
# number of rings (size 3 to 8) (size 9 to 14) (size 15 to 20)
#    0.000    1.103    2.759    2.483    3.862    2.207 
#    2.483    5.517    0.000    0.000    0.000    0.000 
#    0.000    0.000    0.000    0.000    0.000    0.000 
#
# Total GULP energy -719073.386085 kJ/mol
# GULP energy per Si atom -12397.817001 kJ/mol
# Density = 2.056489 g / cm^3
# Si number density = 20.611799 Si / 1000 Ang^3
#
#
#
# Elastic Constant Matrix: (Units=GPa)
#
#
# Indices 1 2 3 4 5 6 
#
# 1 108.3621 56.3305 59.3992 0.0000 0.0000 0.0000
# 2 56.3305 119.7657 43.1197 0.0000 0.0000 0.0000
# 3 59.3992 43.1197 128.6686 0.0000 0.0000 0.0000
# 4 0.0000 0.0000 0.0000 6.8770 0.0000 0.0000
# 5 0.0000 0.0000 0.0000 0.0000 33.5251 0.0000
# 6 0.0000 0.0000 0.0000 0.0000 0.0000 12.5253
#
#
#
# Elastic Compliance Matrix: (Units=1/GPa)
#
#
# Indices 1 2 3 4 5 6 
#
# 1 0.014632 -0.005061 -0.005059 0.000000 0.000000 0.000000
# 2 -0.005061 0.011246 -0.001432 0.000000 0.000000 0.000000
# 3 -0.005059 -0.001432 0.010587 0.000000 0.000000 0.000000
# 4 0.000000 0.000000 0.000000 0.145413 0.000000 0.000000
# 5 0.000000 0.000000 0.000000 0.000000 0.029828 0.000000
# 6 0.000000 0.000000 0.000000 0.000000 0.000000 0.079838
#
#
# Mechanical properties :
#
#
# Convention : Reuss Voigt Hill
#
# Bulk Modulus (GPa) = 74.84425 74.94391 74.89408
# Shear Modulus (GPa) = 15.66895 23.78195 19.72545
#
# Velocity S-wave (km/s) = 2.76015 3.40045 3.09689
# Velocity P-wave (km/s) = 6.82262 7.20112 7.01442
#
# Compressibility (1/GPa) = 0.01336108
#
# Stress axis : x y z
#
# Youngs Moduli (GPa) = 68.34291 88.92383 94.45238
#
# Poissons Ratio (x) = 0.45001 0.47782
# Poissons Ratio (y) = 0.34586 0.13529
# Poissons Ratio (z) = 0.34574 0.12737
#
# Static dielectric constant tensor:
#      x y z
#    x 3.454710 0.000000 0.000000 
#    y 0.000000 3.645950 0.000000 
#    z 0.000000 0.000000 4.087960 
# 
# 
# High freq. dielectric constant tensor:
#      x y z
#    x 1.820060 0.000000 0.000000 
#    y 0.000000 1.798990 0.000000 
#    z 0.000000 0.000000 1.824990 
# 
# From -- ./inp_files/9154.got.cif
#   From: 2010.03.12/outbox.cif.g09.slc.cpg/sg68_5_cif.got.tgz:9154.got - 2010.04.10 23:14:56.
