data_PCOD8282853
_publ_section_title
;
Structure prediction by ZEFSAII (Michael W. Deem and Ramdas Pophale) SiO2 
 PCOD8282853
Probable space group: C C C A
;
_chemical_formula_sum "Si O2"
_cell_formula_units_Z 112
_cell_length_a 13.522907
_cell_length_b 11.583340
_cell_length_c 29.896336
_cell_angle_alpha 90.000000
_cell_angle_beta 90.000000
_cell_angle_gamma 90.000000
_cell_volume 4682.974914
_symmetry_space_group_name_H-M "C C C A"
_symmetry_group_IT_number 68
_space_group.IT_coordinate_system_code '2'
_symmetry_cell_setting 'orthorhombic'
loop_
_space_group_symop_operation_xyz
x,y,z
-x,1/2-y,z
x,1/2-y,1/2-z
-x,y,1/2-z
-x,-y,-z
x,1/2+y,-z
-x,1/2+y,1/2+z
x,-y,1/2+z
1/2+x,1/2+y,z
1/2-x,-y,z
1/2+x,-y,1/2-z
1/2-x,1/2+y,1/2-z
1/2-x,1/2-y,-z
1/2+x,y,-z
1/2-x,y,1/2+z
1/2+x,1/2-y,1/2+z
loop_
_atom_site_type_symbol
_atom_site_label
_atom_site_fract_x
_atom_site_fract_y
_atom_site_fract_z
Si Si1 0.641013 0.822297 0.313913
Si Si2 0.438725 0.353903 0.987785
Si Si3 0.500558 0.994842 0.349570
Si Si4 0.193976 0.387257 0.876423
Si Si5 0.853721 0.065902 0.218702
Si Si6 0.609001 0.985968 0.060922
Si Si7 0.773104 0.767381 0.551241
O O1 0.556290 0.869716 0.347592
O O2 0.749823 0.847446 0.332009
O O3 0.625056 0.899046 0.269475
O O4 0.637173 0.685333 0.309008
O O5 0.500000 0.250000 0.010163
O O6 0.369066 0.400508 0.029769
O O7 0.512052 0.444551 0.965576
O O8 0.374997 0.306851 0.945563
O O9 0.439651 0.014729 0.303011
O O10 0.418651 0.007225 0.388060
O O11 0.582516 0.092329 0.359572
O O12 0.250000 0.500000 0.896505
O O13 0.194257 0.287191 0.914305
O O14 0.750000 0.000000 0.213641
O O15 0.703591 0.901162 0.062475
O O16 0.750000 0.750000 0.500000
#
# Coordination Sequence:
#
# PCOD8282853 Si02
#       7
#    16  16  16  16  16  16  16
#     4  10  22  43  72  99 133 177 226 276 342 432
#     4   9  20  38  61  87 122 170 230 286 350 402
#     4  11  22  39  68  98 131 174 225 289 336 411
#     4  10  22  39  66  98 131 173 237 289 345 416
#     4  11  23  42  68 103 140 172 218 282 352 416
#     4  10  22  40  62  86 127 169 227 286 337 406
#     4  11  24  37  61  91 125 180 226 288 338 420
#
# _framework density 23.916421
#
# number of rings (size 3 to 8) (size 9 to 14) (size 15 to 20)
#    0.000    1.714    0.000    4.714    8.000    4.571 
#    5.143    0.714    0.000    1.714    0.000    0.000 
#    0.000    0.000    0.000    0.000    0.000    0.000 
#
# Total GULP energy -693917.731021 kJ/mol
# GULP energy per Si atom -12391.388054 kJ/mol
# Density = 2.386199 g / cm^3
# Si number density = 23.916421 Si / 1000 Ang^3
#
#
#
# Elastic Constant Matrix: (Units=GPa)
#
#
# Indices 1 2 3 4 5 6 
#
# 1 95.6112 27.5730 34.3469 0.0000 0.0000 0.0000
# 2 27.5730 89.2084 43.4028 0.0000 0.0000 0.0000
# 3 34.3469 43.4028 123.0930 0.0000 0.0000 0.0000
# 4 0.0000 0.0000 0.0000 -8.2895 0.0000 0.0000
# 5 0.0000 0.0000 0.0000 0.0000 -19.0105 0.0000
# 6 0.0000 0.0000 0.0000 0.0000 0.0000 32.8133
#
#
#
# Elastic Compliance Matrix: (Units=1/GPa)
#
#
# Indices 1 2 3 4 5 6 
#
# 1 0.012078 -0.002527 -0.002479 0.000000 0.000000 0.000000
# 2 -0.002527 0.014060 -0.004252 0.000000 0.000000 0.000000
# 3 -0.002479 -0.004252 0.010315 0.000000 0.000000 0.000000
# 4 0.000000 0.000000 0.000000 -0.120635 0.000000 0.000000
# 5 0.000000 0.000000 0.000000 0.000000 -0.052602 0.000000
# 6 0.000000 0.000000 0.000000 0.000000 0.000000 0.030475
#
#
# Mechanical properties :
#
#
# Convention : Reuss Voigt Hill
#
# Bulk Modulus (GPa) = 55.75385 57.61758 56.68572
# Shear Modulus (GPa) = -61.11542 14.60864 -23.25339
#
# Velocity S-wave (km/s) = -5.06056 2.47416 -3.12152
# Velocity P-wave (km/s) = 3.28376 5.68379 3.28043
#
# Compressibility (1/GPa) = 0.01793598
#
# Stress axis : x y z
#
# Youngs Moduli (GPa) = 82.79231 71.12540 96.94518
#
# Poissons Ratio (x) = 0.17974 0.24035
# Poissons Ratio (y) = 0.20922 0.41224
# Poissons Ratio (z) = 0.20526 0.30245
#
# Static dielectric constant tensor:
#      x y z
#    x 7.281400 0.000000 0.000000 
#    y 0.000000 4.784950 0.000000 
#    z 0.000000 0.000000 4.398690 
# 
# 
# High freq. dielectric constant tensor:
#      x y z
#    x 1.967360 0.000000 0.000000 
#    y 0.000000 1.937840 0.000000 
#    z 0.000000 0.000000 1.945320 
# 
# From -- ./inp_files/55294.got.cif
#   From: 2010.03.12/outbox.cif.g09.slc.cpg/sg68_28_cif.got.tgz:55294.got - 2010.04.10 23:14:56.
