data_PCOD8282103
_publ_section_title
;
Structure prediction by ZEFSAII (Michael W. Deem and Ramdas Pophale) SiO2 
 PCOD8282103
Probable space group: C C C A
;
_chemical_formula_sum "Si O2"
_cell_formula_units_Z 112
_cell_length_a 33.034013
_cell_length_b 14.519879
_cell_length_c 13.375445
_cell_angle_alpha 90.000000
_cell_angle_beta 90.000000
_cell_angle_gamma 90.000000
_cell_volume 6415.530477
_symmetry_space_group_name_H-M "C C C A"
_symmetry_group_IT_number 68
_space_group.IT_coordinate_system_code '2'
_symmetry_cell_setting 'orthorhombic'
loop_
_space_group_symop_operation_xyz
x,y,z
-x,1/2-y,z
x,1/2-y,1/2-z
-x,y,1/2-z
-x,-y,-z
x,1/2+y,-z
-x,1/2+y,1/2+z
x,-y,1/2+z
1/2+x,1/2+y,z
1/2-x,-y,z
1/2+x,-y,1/2-z
1/2-x,1/2+y,1/2-z
1/2-x,1/2-y,-z
1/2+x,y,-z
1/2-x,y,1/2+z
1/2+x,1/2-y,1/2+z
loop_
_atom_site_type_symbol
_atom_site_label
_atom_site_fract_x
_atom_site_fract_y
_atom_site_fract_z
Si Si1 0.304823 0.177348 0.336274
Si Si2 0.400590 0.576683 0.060301
Si Si3 0.393588 0.568815 0.391047
Si Si4 0.215686 0.681493 0.659679
Si Si5 0.353560 0.246549 0.517794
Si Si6 0.163664 0.983866 0.777878
Si Si7 0.047154 0.143737 0.266202
O O1 0.301465 0.250000 0.250000
O O2 0.260457 0.165896 0.387860
O O3 0.339201 0.208442 0.412378
O O4 0.318077 0.083929 0.284659
O O5 0.382177 0.665020 0.003521
O O6 0.369439 0.533510 0.137785
O O7 0.440320 0.609399 0.122349
O O8 0.409884 0.498567 0.978150
O O9 0.379812 0.668001 0.429895
O O10 0.355394 0.525487 0.332659
O O11 0.430733 0.581760 0.315955
O O12 0.219239 0.750000 0.750000
O O13 0.185923 0.724506 0.578861
O O14 0.200140 0.586359 0.705588
O O15 0.059857 0.250000 0.250000
O O16 0.000000 0.128804 0.250000
#
# Coordination Sequence:
#
# PCOD8282103 Si02
#       7
#    16  16  16  16  16  16  16
#     4  11  22  35  50  76 112 146 181 236 288 328
#     4  10  21  35  59  86 108 148 181 225 279 329
#     4  11  20  36  61  84 111 148 185 229 277 334
#     4  10  20  34  54  73 106 145 189 239 284 315
#     4  11  20  36  55  80 107 145 192 232 271 337
#     4  10  20  34  54  78 105 142 195 227 270 334
#     4  10  21  38  62  91 116 142 183 228 277 341
#
# _framework density 17.457636999999998
#
# number of rings (size 3 to 8) (size 9 to 14) (size 15 to 20)
#    0.000    1.571    4.286    1.714    0.000    0.571 
#    0.000    0.000    0.000    0.000    0.000    1.000 
#    0.000    0.000    0.000    0.000    0.000    0.000 
#
# Total GULP energy -694344.840670 kJ/mol
# GULP energy per Si atom -12399.015012 kJ/mol
# Density = 1.741790 g / cm^3
# Si number density = 17.457637 Si / 1000 Ang^3
#
#
#
# Elastic Constant Matrix: (Units=GPa)
#
#
# Indices 1 2 3 4 5 6 
#
# 1 81.6955 37.5924 24.4468 0.0000 0.0000 0.0000
# 2 37.5924 116.4685 30.4234 0.0000 0.0000 0.0000
# 3 24.4468 30.4234 64.6757 0.0000 0.0000 0.0000
# 4 0.0000 0.0000 0.0000 26.1109 0.0000 0.0000
# 5 0.0000 0.0000 0.0000 0.0000 29.4290 0.0000
# 6 0.0000 0.0000 0.0000 0.0000 0.0000 26.8240
#
#
#
# Elastic Compliance Matrix: (Units=1/GPa)
#
#
# Indices 1 2 3 4 5 6 
#
# 1 0.015200 -0.003882 -0.003919 0.000000 0.000000 0.000000
# 2 -0.003882 0.010780 -0.003604 0.000000 0.000000 0.000000
# 3 -0.003919 -0.003604 0.018638 0.000000 0.000000 0.000000
# 4 0.000000 0.000000 0.000000 0.038298 0.000000 0.000000
# 5 0.000000 0.000000 0.000000 0.000000 0.033980 0.000000
# 6 0.000000 0.000000 0.000000 0.000000 0.000000 0.037280
#
#
# Mechanical properties :
#
#
# Convention : Reuss Voigt Hill
#
# Bulk Modulus (GPa) = 45.85394 49.75167 47.80281
# Shear Modulus (GPa) = 27.13609 27.83125 27.48367
#
# Velocity S-wave (km/s) = 3.94686 3.99710 3.97206
# Velocity P-wave (km/s) = 6.86244 7.06136 6.96261
#
# Compressibility (1/GPa) = 0.02180838
#
# Stress axis : x y z
#
# Youngs Moduli (GPa) = 65.79034 92.76075 53.65289
#
# Poissons Ratio (x) = 0.36012 0.21027
# Poissons Ratio (y) = 0.25542 0.19335
# Poissons Ratio (z) = 0.25784 0.33428
#
# Static dielectric constant tensor:
#      x y z
#    x 3.303430 0.000000 0.000000 
#    y 0.000000 3.323680 0.000000 
#    z 0.000000 0.000000 3.148040 
# 
# 
# High freq. dielectric constant tensor:
#      x y z
#    x 1.666280 0.000000 0.000000 
#    y 0.000000 1.687090 0.000000 
#    z 0.000000 0.000000 1.669960 
# 
# From -- ./inp_files/13595.got.cif
#   From: 2010.03.12/outbox.cif.g09.slc.cpg/sg68_7_cif.got.tgz:13595.got - 2010.04.10 23:14:56.
