data_PCOD8282929
_publ_section_title
;
Structure prediction by ZEFSAII (Michael W. Deem and Ramdas Pophale) SiO2 
 PCOD8282929
Probable space group: C C C A
;
_chemical_formula_sum "Si O2"
_cell_formula_units_Z 116
_cell_length_a 26.309555
_cell_length_b 22.692188
_cell_length_c 9.136112
_cell_angle_alpha 90.000000
_cell_angle_beta 90.000000
_cell_angle_gamma 90.000000
_cell_volume 5454.454087
_symmetry_space_group_name_H-M "C C C A"
_symmetry_group_IT_number 68
_space_group.IT_coordinate_system_code '2'
_symmetry_cell_setting 'orthorhombic'
loop_
_space_group_symop_operation_xyz
x,y,z
-x,1/2-y,z
x,1/2-y,1/2-z
-x,y,1/2-z
-x,-y,-z
x,1/2+y,-z
-x,1/2+y,1/2+z
x,-y,1/2+z
1/2+x,1/2+y,z
1/2-x,-y,z
1/2+x,-y,1/2-z
1/2-x,1/2+y,1/2-z
1/2-x,1/2-y,-z
1/2+x,y,-z
1/2-x,y,1/2+z
1/2+x,1/2-y,1/2+z
loop_
_atom_site_type_symbol
_atom_site_label
_atom_site_fract_x
_atom_site_fract_y
_atom_site_fract_z
Si Si1 0.838546 0.801247 0.154141
Si Si2 0.947214 0.533989 0.179945
Si Si3 0.377692 0.999530 0.427985
Si Si4 0.000000 0.750000 0.250000
Si Si5 0.073629 0.837377 0.124061
Si Si6 0.708212 0.090957 0.992990
Si Si7 0.134979 0.716980 0.602598
Si Si8 0.307465 0.604375 0.151771
O O1 0.809779 0.750000 0.250000
O O2 0.882143 0.830318 0.254291
O O3 0.802633 0.852126 0.094233
O O4 0.860858 0.769297 0.013028
O O5 0.899303 0.531166 0.286434
O O6 0.955799 0.601456 0.137516
O O7 0.000000 0.508243 0.250000
O O8 0.926541 0.499965 0.036953
O O9 0.330971 0.038315 0.483861
O O10 0.357799 0.934058 0.386580
O O11 0.967453 0.712413 0.139835
O O12 0.093182 0.828993 0.957887
O O13 0.709142 0.102226 0.820581
O O14 0.764755 0.075168 0.046990
O O15 0.118612 0.750000 0.750000
O O16 0.184191 0.674362 0.621291
#
# Coordination Sequence:
#
# PCOD8282929 Si02
#       8
#    16  16  16   4  16  16  16  16
#     4  10  22  41  66  96 129 179 219 277 344 407
#     4  12  25  44  73 105 132 181 234 289 343 411
#     4  12  26  47  70  97 144 179 227 296 346 403
#     4  12  20  40  70 108 120 172 242 272 330 420
#     4  11  22  39  72  97 133 176 226 278 341 413
#     4  12  27  44  68 100 138 181 235 285 347 418
#     4  11  22  42  65  95 140 178 216 282 353 403
#     4  12  28  42  68 102 135 185 232 282 348 415
#
# _framework density 21.267022999999998
#
# number of rings (size 3 to 8) (size 9 to 14) (size 15 to 20)
#    0.000    0.552    8.276    0.828    5.793    2.207 
#    0.000    0.345    0.000    0.000    0.000    0.000 
#    0.000    0.000    0.000    0.000    0.000    0.000 
#
# Total GULP energy -718693.804901 kJ/mol
# GULP energy per Si atom -12391.272498 kJ/mol
# Density = 2.121862 g / cm^3
# Si number density = 21.267023 Si / 1000 Ang^3
#
#
#
# Elastic Constant Matrix: (Units=GPa)
#
#
# Indices 1 2 3 4 5 6 
#
# 1 86.7228 19.5973 27.4599 0.0000 0.0000 0.0000
# 2 19.5973 81.5504 17.3435 0.0000 0.0000 0.0000
# 3 27.4599 17.3435 118.1705 0.0000 0.0000 0.0000
# 4 0.0000 0.0000 0.0000 18.7187 0.0000 0.0000
# 5 0.0000 0.0000 0.0000 0.0000 -29.1142 0.0000
# 6 0.0000 0.0000 0.0000 0.0000 0.0000 37.9836
#
#
#
# Elastic Compliance Matrix: (Units=1/GPa)
#
#
# Indices 1 2 3 4 5 6 
#
# 1 0.012941 -0.002550 -0.002633 0.000000 0.000000 0.000000
# 2 -0.002550 0.013160 -0.001339 0.000000 0.000000 0.000000
# 3 -0.002633 -0.001339 0.009271 0.000000 0.000000 0.000000
# 4 0.000000 0.000000 0.000000 0.053422 0.000000 0.000000
# 5 0.000000 0.000000 0.000000 0.000000 -0.034347 0.000000
# 6 0.000000 0.000000 0.000000 0.000000 0.000000 0.026327
#
#
# Mechanical properties :
#
#
# Convention : Reuss Voigt Hill
#
# Bulk Modulus (GPa) = 44.78666 46.13833 45.46249
# Shear Modulus (GPa) = 49.37804 20.32048 34.84926
#
# Velocity S-wave (km/s) = 4.82375 3.09446 4.05242
# Velocity P-wave (km/s) = 7.22009 5.87447 6.58176
#
# Compressibility (1/GPa) = 0.02232808
#
# Stress axis : x y z
#
# Youngs Moduli (GPa) = 77.27442 75.98866 107.86692
#
# Poissons Ratio (x) = 0.19376 0.28400
# Poissons Ratio (y) = 0.19704 0.14442
# Poissons Ratio (z) = 0.20346 0.10174
#
# Static dielectric constant tensor:
#      x y z
#    x 3.784360 0.000000 0.000000 
#    y 0.000000 4.035400 0.000000 
#    z 0.000000 0.000000 4.086910 
# 
# 
# High freq. dielectric constant tensor:
#      x y z
#    x 1.818250 0.000000 0.000000 
#    y 0.000000 1.845380 0.000000 
#    z 0.000000 0.000000 1.844790 
# 
# From -- ./inp_files/8354.got.cif
#   From: 2010.03.12/outbox.cif.g09.slc.cpg/sg68_5_cif.got.tgz:8354.got - 2010.04.10 23:14:56.
