data_PCOD8282923
_publ_section_title
;
Structure prediction by ZEFSAII (Michael W. Deem and Ramdas Pophale) SiO2 
 PCOD8282923
Probable space group: C C C A
;
_chemical_formula_sum "Si O2"
_cell_formula_units_Z 72
_cell_length_a 26.235551
_cell_length_b 9.688273
_cell_length_c 12.994631
_cell_angle_alpha 90.000000
_cell_angle_beta 90.000000
_cell_angle_gamma 90.000000
_cell_volume 3302.938668
_symmetry_space_group_name_H-M "C C C A"
_symmetry_group_IT_number 68
_space_group.IT_coordinate_system_code '2'
_symmetry_cell_setting 'orthorhombic'
loop_
_space_group_symop_operation_xyz
x,y,z
-x,1/2-y,z
x,1/2-y,1/2-z
-x,y,1/2-z
-x,-y,-z
x,1/2+y,-z
-x,1/2+y,1/2+z
x,-y,1/2+z
1/2+x,1/2+y,z
1/2-x,-y,z
1/2+x,-y,1/2-z
1/2-x,1/2+y,1/2-z
1/2-x,1/2-y,-z
1/2+x,y,-z
1/2-x,y,1/2+z
1/2+x,1/2-y,1/2+z
loop_
_atom_site_type_symbol
_atom_site_label
_atom_site_fract_x
_atom_site_fract_y
_atom_site_fract_z
Si Si1 0.076973 0.870450 0.387351
Si Si2 0.160034 0.750000 0.250000
Si Si3 0.500000 0.507611 0.250000
Si Si4 0.782763 0.636990 0.057363
Si Si5 0.110567 0.645185 0.538921
Si Si6 0.575533 0.250000 0.750000
O O1 0.122713 0.863083 0.303055
O O2 0.022349 0.900814 0.334427
O O3 0.078535 0.731486 0.454609
O O4 0.084636 0.996817 0.464431
O O5 0.197988 0.821061 0.169892
O O6 0.456138 0.614334 0.286368
O O7 0.750000 0.500000 0.068047
O O8 0.750000 0.750000 0.000000
O O9 0.831217 0.616751 0.985670
O O10 0.109626 0.713264 0.651779
#
# Coordination Sequence:
#
# PCOD8282923 Si02
#       6
#    16   8   8  16  16   8
#     4  10  22  42  66  93 130 164 210 257 318 376
#     4  10  24  42  64  95 130 169 206 266 326 370
#     4   9  20  39  64  94 124 172 218 258 304 386
#     4  11  24  42  65  93 123 163 217 262 315 384
#     4  10  22  41  64  94 129 166 203 265 321 370
#     4   9  20  39  64  95 132 167 214 259 318 375
#
# _framework density 21.798770000000001
#
# number of rings (size 3 to 8) (size 9 to 14) (size 15 to 20)
#    0.000    2.000    0.000    2.667    0.000   15.556 
#    0.000   13.333    0.000    1.333    0.000    0.000 
#    0.000    0.000    0.000    0.000    0.000    0.000 
#
# Total GULP energy -446152.481802 kJ/mol
# GULP energy per Si atom -12393.124494 kJ/mol
# Density = 2.174915 g / cm^3
# Si number density = 21.798770 Si / 1000 Ang^3
#
#
#
# Elastic Constant Matrix: (Units=GPa)
#
#
# Indices 1 2 3 4 5 6 
#
# 1 133.3176 67.9924 87.0275 0.0000 0.0000 0.0000
# 2 67.9924 147.6766 72.6384 0.0000 0.0000 0.0000
# 3 87.0275 72.6384 140.8824 0.0000 0.0000 0.0000
# 4 0.0000 0.0000 0.0000 34.2478 0.0000 0.0000
# 5 0.0000 0.0000 0.0000 0.0000 38.6113 0.0000
# 6 0.0000 0.0000 0.0000 0.0000 0.0000 28.6639
#
#
#
# Elastic Compliance Matrix: (Units=1/GPa)
#
#
# Indices 1 2 3 4 5 6 
#
# 1 0.013385 -0.002808 -0.006821 0.000000 0.000000 0.000000
# 2 -0.002808 0.009661 -0.003247 0.000000 0.000000 0.000000
# 3 -0.006821 -0.003247 0.012986 0.000000 0.000000 0.000000
# 4 0.000000 0.000000 0.000000 0.029199 0.000000 0.000000
# 5 0.000000 0.000000 0.000000 0.000000 0.025899 0.000000
# 6 0.000000 0.000000 0.000000 0.000000 0.000000 0.034887
#
#
# Mechanical properties :
#
#
# Convention : Reuss Voigt Hill
#
# Bulk Modulus (GPa) = 97.26415 97.46591 97.36503
# Shear Modulus (GPa) = 32.21729 33.25247 32.73488
#
# Velocity S-wave (km/s) = 3.84857 3.90991 3.87936
# Velocity P-wave (km/s) = 8.02899 8.07415 8.05160
#
# Compressibility (1/GPa) = 0.01028128
#
# Stress axis : x y z
#
# Youngs Moduli (GPa) = 74.70783 103.50493 77.00776
#
# Poissons Ratio (x) = 0.29062 0.52526
# Poissons Ratio (y) = 0.20977 0.25004
# Poissons Ratio (z) = 0.50958 0.33607
#
# Static dielectric constant tensor:
#      x y z
#    x 2.555840 0.000000 0.000000 
#    y 0.000000 4.148320 0.000000 
#    z 0.000000 0.000000 3.997010 
# 
# 
# High freq. dielectric constant tensor:
#      x y z
#    x 1.855940 0.000000 0.000000 
#    y 0.000000 1.871550 0.000000 
#    z 0.000000 0.000000 1.859910 
# 
# From -- ./inp_files/11864.got.cif
#   From: 2010.03.12/outbox.cif.g09.slc.cpg/sg68_6_cif.got.tgz:11864.got - 2010.04.10 23:14:56.
