data_PCOD8282998
_publ_section_title
;
Structure prediction by ZEFSAII (Michael W. Deem and Ramdas Pophale) SiO2 
 PCOD8282998
Probable space group: C C C A
;
_chemical_formula_sum "Si O2"
_cell_formula_units_Z 88
_cell_length_a 13.796205
_cell_length_b 25.506545
_cell_length_c 11.885768
_cell_angle_alpha 90.000000
_cell_angle_beta 90.000000
_cell_angle_gamma 90.000000
_cell_volume 4182.524783
_symmetry_space_group_name_H-M "C C C A"
_symmetry_group_IT_number 68
_space_group.IT_coordinate_system_code '2'
_symmetry_cell_setting 'orthorhombic'
loop_
_space_group_symop_operation_xyz
x,y,z
-x,1/2-y,z
x,1/2-y,1/2-z
-x,y,1/2-z
-x,-y,-z
x,1/2+y,-z
-x,1/2+y,1/2+z
x,-y,1/2+z
1/2+x,1/2+y,z
1/2-x,-y,z
1/2+x,-y,1/2-z
1/2-x,1/2+y,1/2-z
1/2-x,1/2-y,-z
1/2+x,y,-z
1/2-x,y,1/2+z
1/2+x,1/2-y,1/2+z
loop_
_atom_site_type_symbol
_atom_site_label
_atom_site_fract_x
_atom_site_fract_y
_atom_site_fract_z
Si Si1 0.964013 0.662231 0.124272
Si Si2 0.000000 0.499552 0.250000
Si Si3 0.769600 0.355438 0.726035
Si Si4 0.111027 0.921314 0.390829
Si Si5 0.000000 0.750000 0.944122
Si Si6 0.846229 0.250000 0.250000
Si Si7 0.171693 0.454520 0.373893
O O1 0.847898 0.656235 0.127847
O O2 0.000000 0.679356 0.250000
O O3 0.007983 0.606525 0.084119
O O4 0.995286 0.700982 0.026445
O O5 0.086732 0.532100 0.193908
O O6 0.060378 0.465832 0.339534
O O7 0.821878 0.376615 0.837261
O O8 0.717622 0.301941 0.760141
O O9 0.696014 0.399746 0.685077
O O10 0.168976 0.946076 0.493294
O O11 0.907093 0.754745 0.864321
O O12 0.250000 0.500000 0.345314
#
# Coordination Sequence:
#
# PCOD8282998 Si02
#       7
#    16   8  16  16   8   8  16
#     4  10  22  43  69  96 137 183 239 289 350 418
#     4  12  24  48  66 104 146 180 234 302 352 428
#     4  11  25  45  70 104 143 181 239 288 351 436
#     4  11  23  45  66 102 139 181 236 290 354 426
#     4  11  25  44  70  98 143 185 238 294 362 421
#     4  11  28  46  67 108 146 184 231 298 364 429
#     4  12  26  43  74 104 139 194 236 295 362 423
#
# _framework density 21.039923000000002
#
# number of rings (size 3 to 8) (size 9 to 14) (size 15 to 20)
#    0.000    0.909    4.545    1.909   10.182    3.636 
#    0.000    0.000    0.000    0.000    0.000    0.000 
#    0.000    0.000    0.000    0.000    0.000    0.000 
#
# Total GULP energy -545538.353802 kJ/mol
# GULP energy per Si atom -12398.598950 kJ/mol
# Density = 2.099204 g / cm^3
# Si number density = 21.039923 Si / 1000 Ang^3
#
#
#
# Elastic Constant Matrix: (Units=GPa)
#
#
# Indices 1 2 3 4 5 6 
#
# 1 113.7220 57.7678 40.3412 0.0000 0.0000 0.0000
# 2 57.7678 132.4182 49.1652 0.0000 0.0000 0.0000
# 3 40.3412 49.1652 100.5401 0.0000 0.0000 0.0000
# 4 0.0000 0.0000 0.0000 26.5531 0.0000 0.0000
# 5 0.0000 0.0000 0.0000 0.0000 28.5767 0.0000
# 6 0.0000 0.0000 0.0000 0.0000 0.0000 114.9239
#
#
#
# Elastic Compliance Matrix: (Units=1/GPa)
#
#
# Indices 1 2 3 4 5 6 
#
# 1 0.011879 -0.004170 -0.002727 0.000000 0.000000 0.000000
# 2 -0.004170 0.010691 -0.003555 0.000000 0.000000 0.000000
# 3 -0.002727 -0.003555 0.012779 0.000000 0.000000 0.000000
# 4 0.000000 0.000000 0.000000 0.037660 0.000000 0.000000
# 5 0.000000 0.000000 0.000000 0.000000 0.034994 0.000000
# 6 0.000000 0.000000 0.000000 0.000000 0.000000 0.008701
#
#
# Mechanical properties :
#
#
# Convention : Reuss Voigt Hill
#
# Bulk Modulus (GPa) = 69.22817 71.24763 70.23790
# Shear Modulus (GPa) = 35.10681 47.30448 41.20565
#
# Velocity S-wave (km/s) = 4.08926 4.74679 4.43024
# Velocity P-wave (km/s) = 7.43443 7.99870 7.72172
#
# Compressibility (1/GPa) = 0.01444499
#
# Stress axis : x y z
#
# Youngs Moduli (GPa) = 84.18284 93.53935 78.25339
#
# Poissons Ratio (x) = 0.39002 0.21343
# Poissons Ratio (y) = 0.35101 0.27818
# Poissons Ratio (z) = 0.22960 0.33252
#
# Static dielectric constant tensor:
#      x y z
#    x 3.812590 0.000000 0.000000 
#    y 0.000000 3.881240 0.000000 
#    z 0.000000 0.000000 3.731660 
# 
# 
# High freq. dielectric constant tensor:
#      x y z
#    x 1.831950 0.000000 0.000000 
#    y 0.000000 1.832930 0.000000 
#    z 0.000000 0.000000 1.821120 
# 
# From -- ./inp_files/13476.got.cif
#   From: 2010.03.12/outbox.cif.g09.slc.cpg/sg68_7_cif.got.tgz:13476.got - 2010.04.10 23:14:56.
