data_PCOD8282613
_publ_section_title
;
Structure prediction by ZEFSAII (Michael W. Deem and Ramdas Pophale) SiO2 
 PCOD8282613
Probable space group: C C C A
;
_chemical_formula_sum "Si O2"
_cell_formula_units_Z 104
_cell_length_a 8.253708
_cell_length_b 20.768003
_cell_length_c 29.442151
_cell_angle_alpha 90.000000
_cell_angle_beta 90.000000
_cell_angle_gamma 90.000000
_cell_volume 5046.768386
_symmetry_space_group_name_H-M "C C C A"
_symmetry_group_IT_number 68
_space_group.IT_coordinate_system_code '2'
_symmetry_cell_setting 'orthorhombic'
loop_
_space_group_symop_operation_xyz
x,y,z
-x,1/2-y,z
x,1/2-y,1/2-z
-x,y,1/2-z
-x,-y,-z
x,1/2+y,-z
-x,1/2+y,1/2+z
x,-y,1/2+z
1/2+x,1/2+y,z
1/2-x,-y,z
1/2+x,-y,1/2-z
1/2-x,1/2+y,1/2-z
1/2-x,1/2-y,-z
1/2+x,y,-z
1/2-x,y,1/2+z
1/2+x,1/2-y,1/2+z
loop_
_atom_site_type_symbol
_atom_site_label
_atom_site_fract_x
_atom_site_fract_y
_atom_site_fract_z
Si Si1 0.749813 0.429858 0.066641
Si Si2 0.950263 0.881969 0.011294
Si Si3 0.184411 0.796339 0.962373
Si Si4 0.623497 0.058333 0.710760
Si Si5 0.808431 0.673738 0.243613
Si Si6 0.627251 0.871463 0.343605
Si Si7 0.000000 0.750000 0.882698
O O1 0.750000 0.500000 0.088533
O O2 0.578191 0.412737 0.044930
O O3 0.785996 0.383089 0.108374
O O4 0.882255 0.431372 0.026239
O O5 0.806628 0.856298 0.043660
O O6 0.014029 0.822459 0.981109
O O7 0.158503 0.761704 0.914272
O O8 0.250000 0.750000 0.000000
O O9 0.500000 0.035874 0.750000
O O10 0.714360 0.126247 0.721437
O O11 0.499935 0.071443 0.668806
O O12 0.750000 0.000000 0.700455
O O13 0.760142 0.750000 0.250000
O O14 0.761927 0.645472 0.194182
O O15 0.000000 0.665694 0.250000
O O16 0.518855 0.808865 0.349159
#
# Coordination Sequence:
#
# PCOD8282613 Si02
#       7
#    16  16  16  16  16  16   8
#     4  11  23  42  60  88 126 175 221 271 319 380
#     4  10  21  39  58  86 121 168 223 259 323 380
#     4  11  18  34  61  86 120 162 210 263 314 385
#     4  10  22  42  70  95 127 170 211 262 335 401
#     4  10  22  44  68  97 132 168 212 264 335 411
#     4  11  24  41  63  97 129 163 215 270 321 392
#     4  12  20  38  61  90 132 158 210 266 331 374
#
# _framework density 20.607247000000001
#
# number of rings (size 3 to 8) (size 9 to 14) (size 15 to 20)
#    0.000    1.385    3.077    2.769    0.000    5.846 
#   11.077    0.769    0.000    0.000    0.000    0.000 
#    0.000    0.000    0.000    0.000    0.000    0.000 
#
# Total GULP energy -644349.356622 kJ/mol
# GULP energy per Si atom -12391.333781 kJ/mol
# Density = 2.056034 g / cm^3
# Si number density = 20.607247 Si / 1000 Ang^3
#
#
#
# Elastic Constant Matrix: (Units=GPa)
#
#
# Indices 1 2 3 4 5 6 
#
# 1 118.4801 40.7231 54.8911 0.0000 0.0000 0.0000
# 2 40.7231 103.8662 32.2179 0.0000 0.0000 0.0000
# 3 54.8911 32.2179 99.7859 0.0000 0.0000 0.0000
# 4 0.0000 0.0000 0.0000 21.9598 0.0000 0.0000
# 5 0.0000 0.0000 0.0000 0.0000 28.3465 0.0000
# 6 0.0000 0.0000 0.0000 0.0000 0.0000 29.1619
#
#
#
# Elastic Compliance Matrix: (Units=1/GPa)
#
#
# Indices 1 2 3 4 5 6 
#
# 1 0.012103 -0.002978 -0.005696 0.000000 0.000000 0.000000
# 2 -0.002978 0.011432 -0.002053 0.000000 0.000000 0.000000
# 3 -0.005696 -0.002053 0.013818 0.000000 0.000000 0.000000
# 4 0.000000 0.000000 0.000000 0.045538 0.000000 0.000000
# 5 0.000000 0.000000 0.000000 0.000000 0.035278 0.000000
# 6 0.000000 0.000000 0.000000 0.000000 0.000000 0.034291
#
#
# Mechanical properties :
#
#
# Convention : Reuss Voigt Hill
#
# Bulk Modulus (GPa) = 62.89960 64.19958 63.54959
# Shear Modulus (GPa) = 27.89973 28.84699 28.37336
#
# Velocity S-wave (km/s) = 3.68350 3.74551 3.71464
# Velocity P-wave (km/s) = 6.97712 7.06588 7.02164
#
# Compressibility (1/GPa) = 0.01589835
#
# Stress axis : x y z
#
# Youngs Moduli (GPa) = 82.62493 87.47183 72.37164
#
# Poissons Ratio (x) = 0.26052 0.41223
# Poissons Ratio (y) = 0.24609 0.14856
# Poissons Ratio (z) = 0.47063 0.17956
#
# Static dielectric constant tensor:
#      x y z
#    x 3.984440 0.000000 0.000000 
#    y 0.000000 3.834470 0.000000 
#    z 0.000000 0.000000 3.664900 
# 
# 
# High freq. dielectric constant tensor:
#      x y z
#    x 1.814030 0.000000 0.000000 
#    y 0.000000 1.813980 0.000000 
#    z 0.000000 0.000000 1.792480 
# 
# From -- ./inp_files/54127.got.cif
#   From: 2010.03.12/outbox.cif.g09.slc.cpg/sg68_28_cif.got.tgz:54127.got - 2010.04.10 23:14:56.
