data_PCOD8282755
_publ_section_title
;
Structure prediction by ZEFSAII (Michael W. Deem and Ramdas Pophale) SiO2 
 PCOD8282755
Probable space group: C C C A
;
_chemical_formula_sum "Si O2"
_cell_formula_units_Z 68
_cell_length_a 10.152020
_cell_length_b 16.856445
_cell_length_c 20.599070
_cell_angle_alpha 90.000000
_cell_angle_beta 90.000000
_cell_angle_gamma 90.000000
_cell_volume 3525.056367
_symmetry_space_group_name_H-M "C C C A"
_symmetry_group_IT_number 68
_space_group.IT_coordinate_system_code '2'
_symmetry_cell_setting 'orthorhombic'
loop_
_space_group_symop_operation_xyz
x,y,z
-x,1/2-y,z
x,1/2-y,1/2-z
-x,y,1/2-z
-x,-y,-z
x,1/2+y,-z
-x,1/2+y,1/2+z
x,-y,1/2+z
1/2+x,1/2+y,z
1/2-x,-y,z
1/2+x,-y,1/2-z
1/2-x,1/2+y,1/2-z
1/2-x,1/2-y,-z
1/2+x,y,-z
1/2-x,y,1/2+z
1/2+x,1/2-y,1/2+z
loop_
_atom_site_type_symbol
_atom_site_label
_atom_site_fract_x
_atom_site_fract_y
_atom_site_fract_z
Si Si1 0.500000 0.750000 0.250000
Si Si2 0.258644 0.661815 0.024008
Si Si3 0.167170 0.127680 0.334507
Si Si4 0.483893 0.923149 0.543556
Si Si5 0.933129 0.950916 0.182543
O O1 0.595206 0.695094 0.292924
O O2 0.341027 0.653665 0.090590
O O3 0.110661 0.630411 0.028646
O O4 0.250000 0.750000 0.000000
O O5 0.343461 0.615496 0.970813
O O6 0.319716 0.115780 0.317393
O O7 0.106020 0.042276 0.321509
O O8 0.473616 0.939191 0.620378
O O9 0.500000 0.000000 0.500000
O O10 0.000000 0.933357 0.250000
#
# Coordination Sequence:
#
# PCOD8282755 Si02
#       5
#     4  16  16  16  16
#     4  12  24  40  66 100 124 170 206 266 320 388
#     4  11  24  41  63  95 133 163 207 269 323 370
#     4  10  23  40  63  92 133 162 208 268 315 371
#     4  11  22  41  66  92 124 168 214 261 305 384
#     4  10  21  44  64  90 127 170 212 258 312 380
#
# _framework density 19.290472999999999
#
# number of rings (size 3 to 8) (size 9 to 14) (size 15 to 20)
#    0.000    1.412    3.529    1.412    3.294    1.882 
#    8.471    2.941    0.000    0.000    0.000    0.000 
#    0.000    0.000    0.000    0.000    0.000    0.000 
#
# Total GULP energy -421403.800710 kJ/mol
# GULP energy per Si atom -12394.229433 kJ/mol
# Density = 1.924657 g / cm^3
# Si number density = 19.290473 Si / 1000 Ang^3
#
#
#
# Elastic Constant Matrix: (Units=GPa)
#
#
# Indices 1 2 3 4 5 6 
#
# 1 39.6540 13.3823 40.0349 0.0000 0.0000 0.0000
# 2 13.3823 99.1459 39.3979 0.0000 0.0000 0.0000
# 3 40.0349 39.3979 160.6633 0.0000 0.0000 0.0000
# 4 0.0000 0.0000 0.0000 108.0460 0.0000 0.0000
# 5 0.0000 0.0000 0.0000 0.0000 38.6009 0.0000
# 6 0.0000 0.0000 0.0000 0.0000 0.0000 29.8338
#
#
#
# Elastic Compliance Matrix: (Units=1/GPa)
#
#
# Indices 1 2 3 4 5 6 
#
# 1 0.033857 -0.001349 -0.008106 0.000000 0.000000 0.000000
# 2 -0.001349 0.011229 -0.002417 0.000000 0.000000 0.000000
# 3 -0.008106 -0.002417 0.008837 0.000000 0.000000 0.000000
# 4 0.000000 0.000000 0.000000 0.009255 0.000000 0.000000
# 5 0.000000 0.000000 0.000000 0.000000 0.025906 0.000000
# 6 0.000000 0.000000 0.000000 0.000000 0.000000 0.033519
#
#
# Mechanical properties :
#
#
# Convention : Reuss Voigt Hill
#
# Bulk Modulus (GPa) = 33.13617 53.89926 43.51771
# Shear Modulus (GPa) = 31.96784 49.07269 40.52026
#
# Velocity S-wave (km/s) = 4.07527 5.04916 4.58813
# Velocity P-wave (km/s) = 6.27364 7.87360 7.11871
#
# Compressibility (1/GPa) = 0.03017850
#
# Stress axis : x y z
#
# Youngs Moduli (GPa) = 29.53585 89.05653 113.16213
#
# Poissons Ratio (x) = 0.12012 0.91729
# Poissons Ratio (y) = 0.03984 0.27356
# Poissons Ratio (z) = 0.23942 0.21529
#
# Static dielectric constant tensor:
#      x y z
#    x 2.698250 0.000000 0.000000 
#    y 0.000000 3.555420 0.000000 
#    z 0.000000 0.000000 3.704970 
# 
# 
# High freq. dielectric constant tensor:
#      x y z
#    x 1.752580 0.000000 0.000000 
#    y 0.000000 1.758070 0.000000 
#    z 0.000000 0.000000 1.764810 
# 
# From -- ./inp_files/35844.got.cif
#   From: 2010.03.12/outbox.cif.g09.slc.cpg/sg68_18_cif.got.tgz:35844.got - 2010.04.10 23:14:56.
