data_PCOD8282736
_publ_section_title
;
Structure prediction by ZEFSAII (Michael W. Deem and Ramdas Pophale) SiO2 
 PCOD8282736
Probable space group: C C C A
;
_chemical_formula_sum "Si O2"
_cell_formula_units_Z 48
_cell_length_a 17.672556
_cell_length_b 9.165498
_cell_length_c 12.640021
_cell_angle_alpha 90.000000
_cell_angle_beta 90.000000
_cell_angle_gamma 90.000000
_cell_volume 2047.402499
_symmetry_space_group_name_H-M "C C C A"
_symmetry_group_IT_number 68
_space_group.IT_coordinate_system_code '2'
_symmetry_cell_setting 'orthorhombic'
loop_
_space_group_symop_operation_xyz
x,y,z
-x,1/2-y,z
x,1/2-y,1/2-z
-x,y,1/2-z
-x,-y,-z
x,1/2+y,-z
-x,1/2+y,1/2+z
x,-y,1/2+z
1/2+x,1/2+y,z
1/2-x,-y,z
1/2+x,-y,1/2-z
1/2-x,1/2+y,1/2-z
1/2-x,1/2-y,-z
1/2+x,y,-z
1/2-x,y,1/2+z
1/2+x,1/2-y,1/2+z
loop_
_atom_site_type_symbol
_atom_site_label
_atom_site_fract_x
_atom_site_fract_y
_atom_site_fract_z
Si Si1 0.874395 0.021280 0.388765
Si Si2 0.367367 0.316806 0.107528
Si Si3 0.000000 0.431599 0.750000
Si Si4 0.750000 0.500000 0.764483
O O1 0.853387 0.853084 0.412521
O O2 0.955215 0.035440 0.330830
O O3 0.880651 0.109179 0.495718
O O4 0.810024 0.084991 0.310670
O O5 0.440951 0.333398 0.181979
O O6 0.293345 0.382702 0.163320
#
# Coordination Sequence:
#
# PCOD8282736 Si02
#       4
#    16  16   8   8
#     4  11  23  40  64  91 122 160 203 253 305 361
#     4  11  23  40  64  91 122 160 203 253 305 361
#     4  10  21  42  65  88 121 162 205 248 301 364
#     4  10  22  38  60  86 118 160 202 244 294 356
#
# _framework density 23.444341000000001
#
# number of rings (size 3 to 8) (size 9 to 14) (size 15 to 20)
#    0.000    1.333    0.000    8.000    0.000    8.000 
#    0.000    6.667    0.000    0.000    0.000    0.000 
#    0.000    0.000    0.000    0.000    0.000    0.000 
#
# Total GULP energy -297589.840164 kJ/mol
# GULP energy per Si atom -12399.576674 kJ/mol
# Density = 2.339098 g / cm^3
# Si number density = 23.444341 Si / 1000 Ang^3
#
#
#
# Elastic Constant Matrix: (Units=GPa)
#
#
# Indices 1 2 3 4 5 6 
#
# 1 145.4470 51.4174 58.7316 0.0000 0.0000 0.0000
# 2 51.4174 86.6269 67.6646 0.0000 0.0000 0.0000
# 3 58.7316 67.6646 190.7855 0.0000 0.0000 0.0000
# 4 0.0000 0.0000 0.0000 38.3236 0.0000 0.0000
# 5 0.0000 0.0000 0.0000 0.0000 -56.1841 0.0000
# 6 0.0000 0.0000 0.0000 0.0000 0.0000 24.8512
#
#
#
# Elastic Compliance Matrix: (Units=1/GPa)
#
#
# Indices 1 2 3 4 5 6 
#
# 1 0.008895 -0.004344 -0.001197 0.000000 0.000000 0.000000
# 2 -0.004344 0.018089 -0.005078 0.000000 0.000000 0.000000
# 3 -0.001197 -0.005078 0.007411 0.000000 0.000000 0.000000
# 4 0.000000 0.000000 0.000000 0.026094 0.000000 0.000000
# 5 0.000000 0.000000 0.000000 0.000000 -0.017799 0.000000
# 6 0.000000 0.000000 0.000000 0.000000 0.000000 0.040239
#
#
# Mechanical properties :
#
#
# Convention : Reuss Voigt Hill
#
# Bulk Modulus (GPa) = 76.01562 86.49852 81.25707
# Shear Modulus (GPa) = 46.06041 17.73453 31.89747
#
# Velocity S-wave (km/s) = 4.43727 2.75335 3.69258
# Velocity P-wave (km/s) = 7.66464 6.86173 7.27427
#
# Compressibility (1/GPa) = 0.01315519
#
# Stress axis : x y z
#
# Youngs Moduli (GPa) = 112.42830 55.28308 134.93206
#
# Poissons Ratio (x) = 0.24015 0.16157
# Poissons Ratio (y) = 0.48839 0.68520
# Poissons Ratio (z) = 0.13463 0.28073
#
# Static dielectric constant tensor:
#      x y z
#    x 4.696520 0.000000 0.000000 
#    y 0.000000 3.947120 0.000000 
#    z 0.000000 0.000000 4.517020 
# 
# 
# High freq. dielectric constant tensor:
#      x y z
#    x 1.950580 0.000000 0.000000 
#    y 0.000000 1.902540 0.000000 
#    z 0.000000 0.000000 1.950640 
# 
# From -- ./inp_files/13813.got.cif
#   From: 2010.03.12/outbox.cif.g09.slc.cpg/sg68_7_cif.got.tgz:13813.got - 2010.04.10 23:14:56.
