data_PCOD8282554
_publ_section_title
;
Structure prediction by ZEFSAII (Michael W. Deem and Ramdas Pophale) SiO2 
 PCOD8282554
Probable space group: C C C A
;
_chemical_formula_sum "Si O2"
_cell_formula_units_Z 112
_cell_length_a 27.970461
_cell_length_b 14.647771
_cell_length_c 12.456377
_cell_angle_alpha 90.000000
_cell_angle_beta 90.000000
_cell_angle_gamma 90.000000
_cell_volume 5103.438786
_symmetry_space_group_name_H-M "C C C A"
_symmetry_group_IT_number 68
_space_group.IT_coordinate_system_code '2'
_symmetry_cell_setting 'orthorhombic'
loop_
_space_group_symop_operation_xyz
x,y,z
-x,1/2-y,z
x,1/2-y,1/2-z
-x,y,1/2-z
-x,-y,-z
x,1/2+y,-z
-x,1/2+y,1/2+z
x,-y,1/2+z
1/2+x,1/2+y,z
1/2-x,-y,z
1/2+x,-y,1/2-z
1/2-x,1/2+y,1/2-z
1/2-x,1/2-y,-z
1/2+x,y,-z
1/2-x,y,1/2+z
1/2+x,1/2-y,1/2+z
loop_
_atom_site_type_symbol
_atom_site_label
_atom_site_fract_x
_atom_site_fract_y
_atom_site_fract_z
Si Si1 0.404304 0.647640 0.985748
Si Si2 0.445746 0.152070 0.786951
Si Si3 0.121588 0.689275 0.148663
Si Si4 0.099979 0.034091 0.716454
Si Si5 0.704638 0.856403 0.492002
Si Si6 0.198023 0.040081 0.212325
Si Si7 0.697311 0.657742 0.413767
O O1 0.408643 0.748398 0.933590
O O2 0.418047 0.570173 0.899002
O O3 0.441173 0.642769 0.084654
O O4 0.350131 0.629145 0.022370
O O5 0.423263 0.250000 0.750000
O O6 0.500000 0.147617 0.750000
O O7 0.419240 0.067789 0.730946
O O8 0.138852 0.750000 0.250000
O O9 0.086327 0.607347 0.189790
O O10 0.168673 0.650200 0.091250
O O11 0.157560 0.036068 0.730833
O O12 0.687394 0.932690 0.409923
O O13 0.707371 0.765022 0.420771
O O14 0.756504 0.889656 0.533034
O O15 0.190861 0.126184 0.291427
O O16 0.250000 0.000000 0.232021
#
# Coordination Sequence:
#
# PCOD8282554 Si02
#       7
#    16  16  16  16  16  16  16
#     4  10  22  42  70  96 134 176 224 281 346 402
#     4  11  27  48  70 102 134 168 228 292 347 416
#     4   9  21  41  63  98 134 177 224 278 330 404
#     4  11  24  40  70 100 134 183 226 275 346 414
#     4  10  22  35  59  85 128 185 229 276 328 391
#     4  12  24  34  55  94 137 174 229 282 327 399
#     4  10  21  38  55  85 129 178 232 275 330 398
#
# _framework density 21.945986999999999
#
# number of rings (size 3 to 8) (size 9 to 14) (size 15 to 20)
#    0.000    1.571    1.429    2.143    6.000    8.000 
#    0.000    1.429    0.000    3.000    0.000    0.000 
#    0.000    0.000    0.000    0.000    0.000    0.000 
#
# Total GULP energy -694239.287366 kJ/mol
# GULP energy per Si atom -12397.130132 kJ/mol
# Density = 2.189604 g / cm^3
# Si number density = 21.945987 Si / 1000 Ang^3
#
#
#
# Elastic Constant Matrix: (Units=GPa)
#
#
# Indices 1 2 3 4 5 6 
#
# 1 74.0431 41.5293 46.5782 0.0000 0.0000 0.0000
# 2 41.5293 126.6106 65.1551 0.0000 0.0000 0.0000
# 3 46.5782 65.1551 153.8649 0.0000 0.0000 0.0000
# 4 0.0000 0.0000 0.0000 33.6818 0.0000 0.0000
# 5 0.0000 0.0000 0.0000 0.0000 27.9213 0.0000
# 6 0.0000 0.0000 0.0000 0.0000 0.0000 20.8741
#
#
#
# Elastic Compliance Matrix: (Units=1/GPa)
#
#
# Indices 1 2 3 4 5 6 
#
# 1 0.018135 -0.003994 -0.003799 0.000000 0.000000 0.000000
# 2 -0.003994 0.010978 -0.003440 0.000000 0.000000 0.000000
# 3 -0.003799 -0.003440 0.009106 0.000000 0.000000 0.000000
# 4 0.000000 0.000000 0.000000 0.029690 0.000000 0.000000
# 5 0.000000 0.000000 0.000000 0.000000 0.035815 0.000000
# 6 0.000000 0.000000 0.000000 0.000000 0.000000 0.047906
#
#
# Mechanical properties :
#
#
# Convention : Reuss Voigt Hill
#
# Bulk Modulus (GPa) = 63.47261 73.44933 68.46097
# Shear Modulus (GPa) = 27.87897 29.91251 28.89574
#
# Velocity S-wave (km/s) = 3.56806 3.69590 3.63254
# Velocity P-wave (km/s) = 6.77936 7.19401 6.98976
#
# Compressibility (1/GPa) = 0.01575483
#
# Stress axis : x y z
#
# Youngs Moduli (GPa) = 55.14108 91.08803 109.81953
#
# Poissons Ratio (x) = 0.36377 0.41718
# Poissons Ratio (y) = 0.22021 0.37777
# Poissons Ratio (z) = 0.20947 0.31334
#
# Static dielectric constant tensor:
#      x y z
#    x 3.574470 0.000000 0.000000 
#    y 0.000000 4.098910 0.000000 
#    z 0.000000 0.000000 4.137930 
# 
# 
# High freq. dielectric constant tensor:
#      x y z
#    x 1.823450 0.000000 0.000000 
#    y 0.000000 1.874960 0.000000 
#    z 0.000000 0.000000 1.878550 
# 
# From -- ./inp_files/17778.got.cif
#   From: 2010.03.12/outbox.cif.g09.slc.cpg/sg68_9_cif.got.tgz:17778.got - 2010.04.10 23:14:56.
