data_PCOD8282710
_publ_section_title
;
Structure prediction by ZEFSAII (Michael W. Deem and Ramdas Pophale) SiO2 
 PCOD8282710
Probable space group: C C C A
;
_chemical_formula_sum "Si O2"
_cell_formula_units_Z 80
_cell_length_a 8.539582
_cell_length_b 26.441164
_cell_length_c 16.512933
_cell_angle_alpha 90.000000
_cell_angle_beta 90.000000
_cell_angle_gamma 90.000000
_cell_volume 3728.562281
_symmetry_space_group_name_H-M "C C C A"
_symmetry_group_IT_number 68
_space_group.IT_coordinate_system_code '2'
_symmetry_cell_setting 'orthorhombic'
loop_
_space_group_symop_operation_xyz
x,y,z
-x,1/2-y,z
x,1/2-y,1/2-z
-x,y,1/2-z
-x,-y,-z
x,1/2+y,-z
-x,1/2+y,1/2+z
x,-y,1/2+z
1/2+x,1/2+y,z
1/2-x,-y,z
1/2+x,-y,1/2-z
1/2-x,1/2+y,1/2-z
1/2-x,1/2-y,-z
1/2+x,y,-z
1/2-x,y,1/2+z
1/2+x,1/2-y,1/2+z
loop_
_atom_site_type_symbol
_atom_site_label
_atom_site_fract_x
_atom_site_fract_y
_atom_site_fract_z
Si Si1 0.324529 0.855749 0.276114
Si Si2 0.496500 0.605808 0.506210
Si Si3 0.683365 0.261880 0.340225
Si Si4 0.769144 0.557717 0.892964
Si Si5 0.747518 0.838177 0.399422
O O1 0.500000 0.839185 0.250000
O O2 0.245113 0.819930 0.347594
O O3 0.321527 0.911802 0.313125
O O4 0.222868 0.855617 0.193654
O O5 0.394306 0.577836 0.572815
O O6 0.601172 0.563038 0.463184
O O7 0.404495 0.635647 0.436322
O O8 0.599506 0.647776 0.550426
O O9 0.500000 0.250000 0.351327
O O10 0.739966 0.250000 0.250000
O O11 0.772263 0.223184 0.400995
O O12 0.750000 0.500000 0.866546
#
# Coordination Sequence:
#
# PCOD8282710 Si02
#       5
#    16  16  16  16  16
#     4  11  22  42  66  95 131 163 219 266 313 382
#     4  10  22  42  65  93 130 168 210 268 318 392
#     4   9  19  36  63  90 122 165 204 249 318 379
#     4  11  23  43  65  93 126 169 216 269 327 377
#     4  10  21  41  65  92 129 168 210 258 325 380
#
# _framework density 21.455992999999999
#
# number of rings (size 3 to 8) (size 9 to 14) (size 15 to 20)
#    0.000    1.800    2.000    1.800    0.000    6.000 
#    3.600   12.000    0.000    0.000    0.000    0.000 
#    0.000    0.000    0.000    0.000    0.000    0.000 
#
# Total GULP energy -495837.882140 kJ/mol
# GULP energy per Si atom -12395.947054 kJ/mol
# Density = 2.140716 g / cm^3
# Si number density = 21.455993 Si / 1000 Ang^3
#
#
#
# Elastic Constant Matrix: (Units=GPa)
#
#
# Indices 1 2 3 4 5 6 
#
# 1 103.6697 53.6206 24.4946 0.0000 0.0000 0.0000
# 2 53.6206 163.5758 46.8457 0.0000 0.0000 0.0000
# 3 24.4946 46.8457 71.3584 0.0000 0.0000 0.0000
# 4 0.0000 0.0000 0.0000 36.1348 0.0000 0.0000
# 5 0.0000 0.0000 0.0000 0.0000 18.6877 0.0000
# 6 0.0000 0.0000 0.0000 0.0000 0.0000 19.3586
#
#
#
# Elastic Compliance Matrix: (Units=1/GPa)
#
#
# Indices 1 2 3 4 5 6 
#
# 1 0.011813 -0.003339 -0.001863 0.000000 0.000000 0.000000
# 2 -0.003339 0.008473 -0.004416 0.000000 0.000000 0.000000
# 3 -0.001863 -0.004416 0.017552 0.000000 0.000000 0.000000
# 4 0.000000 0.000000 0.000000 0.027674 0.000000 0.000000
# 5 0.000000 0.000000 0.000000 0.000000 0.053511 0.000000
# 6 0.000000 0.000000 0.000000 0.000000 0.000000 0.051657
#
#
# Mechanical properties :
#
#
# Convention : Reuss Voigt Hill
#
# Bulk Modulus (GPa) = 53.75721 65.39174 59.57447
# Shear Modulus (GPa) = 25.49503 29.07908 27.28706
#
# Velocity S-wave (km/s) = 3.45084 3.68542 3.57006
# Velocity P-wave (km/s) = 6.40209 6.97517 6.69477
#
# Compressibility (1/GPa) = 0.01860216
#
# Stress axis : x y z
#
# Youngs Moduli (GPa) = 84.65147 118.02868 56.97251
#
# Poissons Ratio (x) = 0.39408 0.10615
# Poissons Ratio (y) = 0.28264 0.25159
# Poissons Ratio (z) = 0.15772 0.52121
#
# Static dielectric constant tensor:
#      x y z
#    x 3.909600 0.000000 0.000000 
#    y 0.000000 3.978050 0.000000 
#    z 0.000000 0.000000 3.886810 
# 
# 
# High freq. dielectric constant tensor:
#      x y z
#    x 1.847580 0.000000 0.000000 
#    y 0.000000 1.832190 0.000000 
#    z 0.000000 0.000000 1.837440 
# 
# From -- ./inp_files/28332.got.cif
#   From: 2010.03.12/outbox.cif.g09.slc.cpg/sg68_15_cif.got.tgz:28332.got - 2010.04.10 23:14:56.
