data_PCOD8282650
_publ_section_title
;
Structure prediction by ZEFSAII (Michael W. Deem and Ramdas Pophale) SiO2 
 PCOD8282650
Probable space group: C C C A
;
_chemical_formula_sum "Si O2"
_cell_formula_units_Z 104
_cell_length_a 19.944345
_cell_length_b 28.843569
_cell_length_c 8.813493
_cell_angle_alpha 90.000000
_cell_angle_beta 90.000000
_cell_angle_gamma 90.000000
_cell_volume 5070.103668
_symmetry_space_group_name_H-M "C C C A"
_symmetry_group_IT_number 68
_space_group.IT_coordinate_system_code '2'
_symmetry_cell_setting 'orthorhombic'
loop_
_space_group_symop_operation_xyz
x,y,z
-x,1/2-y,z
x,1/2-y,1/2-z
-x,y,1/2-z
-x,-y,-z
x,1/2+y,-z
-x,1/2+y,1/2+z
x,-y,1/2+z
1/2+x,1/2+y,z
1/2-x,-y,z
1/2+x,-y,1/2-z
1/2-x,1/2+y,1/2-z
1/2-x,1/2-y,-z
1/2+x,y,-z
1/2-x,y,1/2+z
1/2+x,1/2-y,1/2+z
loop_
_atom_site_type_symbol
_atom_site_label
_atom_site_fract_x
_atom_site_fract_y
_atom_site_fract_z
Si Si1 0.991480 0.304116 0.574896
Si Si2 0.739426 0.750000 0.750000
Si Si3 0.277167 0.684325 0.505824
Si Si4 0.371486 0.355591 0.552760
Si Si5 0.915756 0.049157 0.905378
Si Si6 0.425450 0.457100 0.064524
Si Si7 0.399636 0.634789 0.403459
O O1 0.043127 0.332565 0.472114
O O2 0.000000 0.250000 0.544292
O O3 0.000000 0.317740 0.750000
O O4 0.916072 0.317637 0.532248
O O5 0.696723 0.786923 0.653228
O O6 0.784379 0.720233 0.633764
O O7 0.204414 0.662037 0.533563
O O8 0.328470 0.643360 0.482359
O O9 0.382690 0.406116 0.481920
O O10 0.395362 0.357309 0.725334
O O11 0.891983 0.050119 0.729819
O O12 0.995317 0.045300 0.914262
O O13 0.892119 0.003575 0.996106
O O14 0.411676 0.418429 0.939006
#
# Coordination Sequence:
#
# PCOD8282650 Si02
#       7
#    16   8  16  16  16  16  16
#     4  11  27  41  62  91 130 169 213 269 327 379
#     4  10  24  46  64  92 122 182 222 274 308 394
#     4  11  26  42  69  92 130 170 231 264 325 380
#     4  12  25  42  64  97 130 170 214 269 322 387
#     4  10  21  39  66  95 129 169 212 262 322 386
#     4  10  21  39  66  95 129 169 212 262 322 386
#     4  12  25  42  64  97 130 170 214 269 322 387
#
# _framework density 20.5124
#
# number of rings (size 3 to 8) (size 9 to 14) (size 15 to 20)
#    0.000    1.077    3.077    2.308    8.615    2.462 
#    0.000    0.769    0.000    3.692    0.000    0.000 
#    0.000    0.000    0.000    0.000    0.000    0.000 
#
# Total GULP energy -644598.596044 kJ/mol
# GULP energy per Si atom -12396.126847 kJ/mol
# Density = 2.046571 g / cm^3
# Si number density = 20.512400 Si / 1000 Ang^3
#
#
#
# Elastic Constant Matrix: (Units=GPa)
#
#
# Indices 1 2 3 4 5 6 
#
# 1 66.1158 28.2251 24.3685 0.0000 0.0000 0.0000
# 2 28.2251 131.8476 45.3640 0.0000 0.0000 0.0000
# 3 24.3685 45.3640 118.4176 0.0000 0.0000 0.0000
# 4 0.0000 0.0000 0.0000 29.3292 0.0000 0.0000
# 5 0.0000 0.0000 0.0000 0.0000 21.5623 0.0000
# 6 0.0000 0.0000 0.0000 0.0000 0.0000 -5.8446
#
#
#
# Elastic Compliance Matrix: (Units=1/GPa)
#
#
# Indices 1 2 3 4 5 6 
#
# 1 0.017246 -0.002846 -0.002459 0.000000 0.000000 0.000000
# 2 -0.002846 0.009206 -0.002941 0.000000 0.000000 0.000000
# 3 -0.002459 -0.002941 0.010077 0.000000 0.000000 0.000000
# 4 0.000000 0.000000 0.000000 0.034096 0.000000 0.000000
# 5 0.000000 0.000000 0.000000 0.000000 0.046377 0.000000
# 6 0.000000 0.000000 0.000000 0.000000 0.000000 -0.171099
#
#
# Mechanical properties :
#
#
# Convention : Reuss Voigt Hill
#
# Bulk Modulus (GPa) = 49.90554 56.92178 53.41366
# Shear Modulus (GPa) = -161.67349 23.57094 -69.05128
#
# Velocity S-wave (km/s) = -8.88755 3.39353 -5.80829
# Velocity P-wave (km/s) = 8.99643 6.57000 4.34574
#
# Compressibility (1/GPa) = 0.02003785
#
# Stress axis : x y z
#
# Youngs Moduli (GPa) = 57.98396 108.62943 99.23329
#
# Poissons Ratio (x) = 0.30916 0.24399
# Poissons Ratio (y) = 0.16502 0.29183
# Poissons Ratio (z) = 0.14257 0.31947
#
# Static dielectric constant tensor:
#      x y z
#    x 3.456180 0.000000 0.000000 
#    y 0.000000 3.936110 0.000000 
#    z 0.000000 0.000000 4.170960 
# 
# 
# High freq. dielectric constant tensor:
#      x y z
#    x 1.772170 0.000000 0.000000 
#    y 0.000000 1.816330 0.000000 
#    z 0.000000 0.000000 1.830100 
# 
# From -- ./inp_files/7384.got.cif
#   From: 2010.03.12/outbox.cif.g09.slc.cpg/sg68_4_cif.got.tgz:7384.got - 2010.04.10 23:14:56.
