data_PCOD8282841
_publ_section_title
;
Structure prediction by ZEFSAII (Michael W. Deem and Ramdas Pophale) SiO2 
 PCOD8282841
Probable space group: C C C A
;
_chemical_formula_sum "Si O2"
_cell_formula_units_Z 112
_cell_length_a 22.966346
_cell_length_b 15.724478
_cell_length_c 14.278847
_cell_angle_alpha 90.000000
_cell_angle_beta 90.000000
_cell_angle_gamma 90.000000
_cell_volume 5156.574311
_symmetry_space_group_name_H-M "C C C A"
_symmetry_group_IT_number 68
_space_group.IT_coordinate_system_code '2'
_symmetry_cell_setting 'orthorhombic'
loop_
_space_group_symop_operation_xyz
x,y,z
-x,1/2-y,z
x,1/2-y,1/2-z
-x,y,1/2-z
-x,-y,-z
x,1/2+y,-z
-x,1/2+y,1/2+z
x,-y,1/2+z
1/2+x,1/2+y,z
1/2-x,-y,z
1/2+x,-y,1/2-z
1/2-x,1/2+y,1/2-z
1/2-x,1/2-y,-z
1/2+x,y,-z
1/2-x,y,1/2+z
1/2+x,1/2-y,1/2+z
loop_
_atom_site_type_symbol
_atom_site_label
_atom_site_fract_x
_atom_site_fract_y
_atom_site_fract_z
Si Si1 0.001695 0.848052 0.853059
Si Si2 0.406551 0.405829 0.999659
Si Si3 0.182342 0.505795 0.223127
Si Si4 0.883323 0.087878 0.060852
Si Si5 0.375823 0.181150 0.322109
Si Si6 0.796229 0.798432 0.437832
Si Si7 0.790667 0.928786 0.911687
O O1 0.947752 0.877644 0.916041
O O2 0.000000 0.750000 0.833675
O O3 0.000000 0.893951 0.750000
O O4 0.061533 0.859893 0.906578
O O5 0.337782 0.385918 0.980867
O O6 0.410368 0.507637 0.005472
O O7 0.420345 0.354281 0.096838
O O8 0.250000 0.500000 0.196724
O O9 0.151313 0.444819 0.150096
O O10 0.153544 0.599520 0.226970
O O11 0.172985 0.468324 0.326456
O O12 0.844044 0.149070 0.997242
O O13 0.406425 0.250000 0.250000
O O14 0.324334 0.234312 0.366813
O O15 0.750000 0.750000 0.500000
O O16 0.756519 0.861242 0.374713
O O17 0.750000 0.000000 0.964147
#
# Coordination Sequence:
#
# PCOD8282841 Si02
#       7
#    16  16  16  16  16  16  16
#     4  11  25  47  70  98 132 170 228 296 345 402
#     4  11  23  42  71  93 131 177 229 276 345 413
#     4  10  22  39  62  94 136 177 226 271 331 412
#     4  11  24  42  70  97 133 180 225 277 342 412
#     4  11  23  39  59  96 135 174 220 280 334 401
#     4  12  23  37  64  99 137 178 221 279 345 406
#     4  11  21  39  63  95 133 177 221 274 334 415
#
# _framework density 21.719846
#
# number of rings (size 3 to 8) (size 9 to 14) (size 15 to 20)
#    0.000    1.000    2.857    4.714    2.000    0.000 
#    0.000    0.000    0.000    0.857    0.000    0.000 
#    0.000    0.000    0.000    0.000    0.000    0.000 
#
# Total GULP energy -693857.872899 kJ/mol
# GULP energy per Si atom -12390.319159 kJ/mol
# Density = 2.167041 g / cm^3
# Si number density = 21.719846 Si / 1000 Ang^3
#
#
#
# Elastic Constant Matrix: (Units=GPa)
#
#
# Indices 1 2 3 4 5 6 
#
# 1 86.4838 34.3497 45.7352 0.0000 0.0000 0.0000
# 2 34.3497 93.9027 44.9455 0.0000 0.0000 0.0000
# 3 45.7352 44.9455 116.0767 0.0000 0.0000 0.0000
# 4 0.0000 0.0000 0.0000 41.9555 0.0000 0.0000
# 5 0.0000 0.0000 0.0000 0.0000 42.7245 0.0000
# 6 0.0000 0.0000 0.0000 0.0000 0.0000 26.8982
#
#
#
# Elastic Compliance Matrix: (Units=1/GPa)
#
#
# Indices 1 2 3 4 5 6 
#
# 1 0.015422 -0.003355 -0.004777 0.000000 0.000000 0.000000
# 2 -0.003355 0.013802 -0.004022 0.000000 0.000000 0.000000
# 3 -0.004777 -0.004022 0.012055 0.000000 0.000000 0.000000
# 4 0.000000 0.000000 0.000000 0.023835 0.000000 0.000000
# 5 0.000000 0.000000 0.000000 0.000000 0.023406 0.000000
# 6 0.000000 0.000000 0.000000 0.000000 0.000000 0.037177
#
#
# Mechanical properties :
#
#
# Convention : Reuss Voigt Hill
#
# Bulk Modulus (GPa) = 58.92920 60.72490 59.82705
# Shear Modulus (GPa) = 32.12106 33.74447 32.93276
#
# Velocity S-wave (km/s) = 3.84979 3.94588 3.89813
# Velocity P-wave (km/s) = 6.85212 6.98419 6.91847
#
# Compressibility (1/GPa) = 0.01696952
#
# Stress axis : x y z
#
# Youngs Moduli (GPa) = 64.84386 72.45482 82.95470
#
# Poissons Ratio (x) = 0.24306 0.39630
# Poissons Ratio (y) = 0.21753 0.33367
# Poissons Ratio (z) = 0.30978 0.29144
#
# Static dielectric constant tensor:
#      x y z
#    x 3.810150 0.000000 0.000000 
#    y 0.000000 4.449770 0.000000 
#    z 0.000000 0.000000 4.309890 
# 
# 
# High freq. dielectric constant tensor:
#      x y z
#    x 1.836440 0.000000 0.000000 
#    y 0.000000 1.871850 0.000000 
#    z 0.000000 0.000000 1.861140 
# 
# From -- ./inp_files/25457.got.cif
#   From: 2010.03.12/outbox.cif.g09.slc.cpg/sg68_13_cif.got.tgz:25457.got - 2010.04.10 23:14:56.
