data_PCOD8282829
_publ_section_title
;
Structure prediction by ZEFSAII (Michael W. Deem and Ramdas Pophale) SiO2 
 PCOD8282829
Probable space group: C C C A
;
_chemical_formula_sum "Si O2"
_cell_formula_units_Z 80
_cell_length_a 25.966090
_cell_length_b 12.448887
_cell_length_c 13.314668
_cell_angle_alpha 90.000000
_cell_angle_beta 90.000000
_cell_angle_gamma 90.000000
_cell_volume 4303.952054
_symmetry_space_group_name_H-M "C C C A"
_symmetry_group_IT_number 68
_space_group.IT_coordinate_system_code '2'
_symmetry_cell_setting 'orthorhombic'
loop_
_space_group_symop_operation_xyz
x,y,z
-x,1/2-y,z
x,1/2-y,1/2-z
-x,y,1/2-z
-x,-y,-z
x,1/2+y,-z
-x,1/2+y,1/2+z
x,-y,1/2+z
1/2+x,1/2+y,z
1/2-x,-y,z
1/2+x,-y,1/2-z
1/2-x,1/2+y,1/2-z
1/2-x,1/2-y,-z
1/2+x,y,-z
1/2-x,y,1/2+z
1/2+x,1/2-y,1/2+z
loop_
_atom_site_type_symbol
_atom_site_label
_atom_site_fract_x
_atom_site_fract_y
_atom_site_fract_z
Si Si1 0.445896 0.116052 0.143760
Si Si2 0.564857 0.853043 0.628752
Si Si3 0.876241 0.951313 0.949854
Si Si4 0.216750 0.095367 0.512775
Si Si5 0.701213 0.287566 0.635844
O O1 0.422502 0.129573 0.255009
O O2 0.429882 0.229016 0.091636
O O3 0.506506 0.104503 0.124828
O O4 0.425301 0.002643 0.103850
O O5 0.605480 0.918342 0.561267
O O6 0.851652 0.851283 0.889212
O O7 0.836806 0.049627 0.949654
O O8 0.248872 0.140576 0.608383
O O9 0.204093 0.182255 0.430421
O O10 0.250000 0.000000 0.461314
O O11 0.702225 0.250000 0.750000
#
# Coordination Sequence:
#
# PCOD8282829 Si02
#       5
#    16  16  16  16  16
#     4   9  19  36  56  84 114 156 191 233 298 339
#     4   9  19  36  56  82 120 147 196 243 273 361
#     4  11  20  34  60  87 108 151 195 237 293 342
#     4   9  21  39  55  79 111 148 186 232 293 347
#     4  10  22  39  55  82 118 147 189 244 294 353
#
# _framework density 18.587565999999999
#
# number of rings (size 3 to 8) (size 9 to 14) (size 15 to 20)
#    0.000    2.400    0.000    3.000    2.800    2.400 
#   10.800    0.000    0.000    0.000    0.000    0.000 
#    0.000    0.000    0.000    0.000    0.000    0.000 
#
# Total GULP energy -495534.735012 kJ/mol
# GULP energy per Si atom -12388.368375 kJ/mol
# Density = 1.854526 g / cm^3
# Si number density = 18.587566 Si / 1000 Ang^3
#
#
#
# Elastic Constant Matrix: (Units=GPa)
#
#
# Indices 1 2 3 4 5 6 
#
# 1 72.9757 54.1086 52.0599 0.0000 0.0000 0.0000
# 2 54.1086 117.1092 50.4353 0.0000 0.0000 0.0000
# 3 52.0599 50.4353 100.7915 0.0000 0.0000 0.0000
# 4 0.0000 0.0000 0.0000 23.0323 0.0000 0.0000
# 5 0.0000 0.0000 0.0000 0.0000 40.0563 0.0000
# 6 0.0000 0.0000 0.0000 0.0000 0.0000 35.3278
#
#
#
# Elastic Compliance Matrix: (Units=1/GPa)
#
#
# Indices 1 2 3 4 5 6 
#
# 1 0.026655 -0.008140 -0.009694 0.000000 0.000000 0.000000
# 2 -0.008140 0.013371 -0.002486 0.000000 0.000000 0.000000
# 3 -0.009694 -0.002486 0.016173 0.000000 0.000000 0.000000
# 4 0.000000 0.000000 0.000000 0.043417 0.000000 0.000000
# 5 0.000000 0.000000 0.000000 0.000000 0.024965 0.000000
# 6 0.000000 0.000000 0.000000 0.000000 0.000000 0.028306
#
#
# Mechanical properties :
#
#
# Convention : Reuss Voigt Hill
#
# Bulk Modulus (GPa) = 64.27965 67.12046 65.70005
# Shear Modulus (GPa) = 25.16190 28.63479 26.89835
#
# Velocity S-wave (km/s) = 3.68325 3.92922 3.80822
# Velocity P-wave (km/s) = 7.26262 7.53484 7.39998
#
# Compressibility (1/GPa) = 0.01555702
#
# Stress axis : x y z
#
# Youngs Moduli (GPa) = 37.51696 74.78931 61.83334
#
# Poissons Ratio (x) = 0.60882 0.59941
# Poissons Ratio (y) = 0.30541 0.15372
# Poissons Ratio (z) = 0.36369 0.18593
#
# Static dielectric constant tensor:
#      x y z
#    x 3.474310 0.000000 0.000000 
#    y 0.000000 3.679140 0.000000 
#    z 0.000000 0.000000 3.202690 
# 
# 
# High freq. dielectric constant tensor:
#      x y z
#    x 1.725710 0.000000 0.000000 
#    y 0.000000 1.736520 0.000000 
#    z 0.000000 0.000000 1.698230 
# 
# From -- ./inp_files/13167.got.cif
#   From: 2010.03.12/outbox.cif.g09.slc.cpg/sg68_7_cif.got.tgz:13167.got - 2010.04.10 23:14:56.
