data_PCOD8282071
_publ_section_title
;
Structure prediction by ZEFSAII (Michael W. Deem and Ramdas Pophale) SiO2 
 PCOD8282071
Probable space group: C C C A
;
_chemical_formula_sum "Si O2"
_cell_formula_units_Z 84
_cell_length_a 23.748064
_cell_length_b 8.792860
_cell_length_c 22.697278
_cell_angle_alpha 90.000000
_cell_angle_beta 90.000000
_cell_angle_gamma 90.000000
_cell_volume 4739.495836
_symmetry_space_group_name_H-M "C C C A"
_symmetry_group_IT_number 68
_space_group.IT_coordinate_system_code '2'
_symmetry_cell_setting 'orthorhombic'
loop_
_space_group_symop_operation_xyz
x,y,z
-x,1/2-y,z
x,1/2-y,1/2-z
-x,y,1/2-z
-x,-y,-z
x,1/2+y,-z
-x,1/2+y,1/2+z
x,-y,1/2+z
1/2+x,1/2+y,z
1/2-x,-y,z
1/2+x,-y,1/2-z
1/2-x,1/2+y,1/2-z
1/2-x,1/2-y,-z
1/2+x,y,-z
1/2-x,y,1/2+z
1/2+x,1/2-y,1/2+z
loop_
_atom_site_type_symbol
_atom_site_label
_atom_site_fract_x
_atom_site_fract_y
_atom_site_fract_z
Si Si1 0.329751 0.499733 0.986636
Si Si2 0.645582 0.773685 0.578673
Si Si3 0.500000 0.250000 0.250000
Si Si4 0.107800 0.366130 0.703353
Si Si5 0.277131 0.225836 0.922108
Si Si6 0.802711 0.385759 0.296560
O O1 0.370097 0.607759 0.947281
O O2 0.294849 0.394031 0.941831
O O3 0.369278 0.402222 0.030118
O O4 0.288228 0.609889 0.024111
O O5 0.612445 0.803279 0.637638
O O6 0.711721 0.780733 0.592918
O O7 0.459904 0.133351 0.286572
O O8 0.136583 0.250000 0.750000
O O9 0.138166 0.527160 0.713723
O O10 0.308867 0.179315 0.862512
O O11 0.796354 0.250000 0.250000
O O12 0.750000 0.500000 0.290303
#
# Coordination Sequence:
#
# PCOD8282071 Si02
#       6
#    16  16   4  16  16  16
#     4  10  20  30  49  82 124 166 185 225 291 375
#     4  11  18  32  53  79 120 149 200 230 291 359
#     4   8  24  44  70  76 108 160 222 242 310 340
#     4  10  22  42  61  83 106 158 209 249 296 354
#     4  11  19  31  48  81 123 162 188 226 291 363
#     4  12  24  36  55  91 129 153 193 247 311 361
#
# _framework density 17.723405
#
# number of rings (size 3 to 8) (size 9 to 14) (size 15 to 20)
#    0.571    0.762    3.810    5.143    2.667    0.000 
#    0.000    0.476    0.000    1.143    0.000    0.000 
#    0.000    0.000    0.000    0.000    0.000    0.000 
#
# Total GULP energy -520505.166167 kJ/mol
# GULP energy per Si atom -12392.980147 kJ/mol
# Density = 1.768307 g / cm^3
# Si number density = 17.723405 Si / 1000 Ang^3
#
#
#
# Elastic Constant Matrix: (Units=GPa)
#
#
# Indices 1 2 3 4 5 6 
#
# 1 80.5317 40.1861 47.6139 0.0000 0.0000 0.0000
# 2 40.1861 134.5231 62.7150 0.0000 0.0000 0.0000
# 3 47.6139 62.7150 112.3987 0.0000 0.0000 0.0000
# 4 0.0000 0.0000 0.0000 32.6387 0.0000 0.0000
# 5 0.0000 0.0000 0.0000 0.0000 20.8812 0.0000
# 6 0.0000 0.0000 0.0000 0.0000 0.0000 21.0468
#
#
#
# Elastic Compliance Matrix: (Units=1/GPa)
#
#
# Indices 1 2 3 4 5 6 
#
# 1 0.017095 -0.002339 -0.005936 0.000000 0.000000 0.000000
# 2 -0.002339 0.010367 -0.004794 0.000000 0.000000 0.000000
# 3 -0.005936 -0.004794 0.014086 0.000000 0.000000 0.000000
# 4 0.000000 0.000000 0.000000 0.030638 0.000000 0.000000
# 5 0.000000 0.000000 0.000000 0.000000 0.047890 0.000000
# 6 0.000000 0.000000 0.000000 0.000000 0.000000 0.047513
#
#
# Mechanical properties :
#
#
# Convention : Reuss Voigt Hill
#
# Bulk Modulus (GPa) = 64.89382 69.83150 67.36266
# Shear Modulus (GPa) = 25.14270 26.70925 25.92598
#
# Velocity S-wave (km/s) = 3.77054 3.88623 3.82882
# Velocity P-wave (km/s) = 7.45991 7.72161 7.59189
#
# Compressibility (1/GPa) = 0.01540979
#
# Stress axis : x y z
#
# Youngs Moduli (GPa) = 58.49820 96.45739 70.99052
#
# Poissons Ratio (x) = 0.22562 0.42143
# Poissons Ratio (y) = 0.13683 0.34031
# Poissons Ratio (z) = 0.34727 0.46239
#
# Static dielectric constant tensor:
#      x y z
#    x 2.733100 0.000000 0.000000 
#    y 0.000000 3.677070 0.000000 
#    z 0.000000 0.000000 3.527240 
# 
# 
# High freq. dielectric constant tensor:
#      x y z
#    x 1.618750 0.000000 0.000000 
#    y 0.000000 1.700840 0.000000 
#    z 0.000000 0.000000 1.704240 
# 
# From -- ./inp_files/47175.got.cif
#   From: 2010.03.12/outbox.cif.g09.slc.cpg/sg68_24_cif.got.tgz:47175.got - 2010.04.10 23:14:56.
