data_PCOD8282896
_publ_section_title
;
Structure prediction by ZEFSAII (Michael W. Deem and Ramdas Pophale) SiO2 
 PCOD8282896
Probable space group: C C C A
;
_chemical_formula_sum "Si O2"
_cell_formula_units_Z 104
_cell_length_a 20.624294
_cell_length_b 26.795021
_cell_length_c 8.980503
_cell_angle_alpha 90.000000
_cell_angle_beta 90.000000
_cell_angle_gamma 90.000000
_cell_volume 4962.880922
_symmetry_space_group_name_H-M "C C C A"
_symmetry_group_IT_number 68
_space_group.IT_coordinate_system_code '2'
_symmetry_cell_setting 'orthorhombic'
loop_
_space_group_symop_operation_xyz
x,y,z
-x,1/2-y,z
x,1/2-y,1/2-z
-x,y,1/2-z
-x,-y,-z
x,1/2+y,-z
-x,1/2+y,1/2+z
x,-y,1/2+z
1/2+x,1/2+y,z
1/2-x,-y,z
1/2+x,-y,1/2-z
1/2-x,1/2+y,1/2-z
1/2-x,1/2-y,-z
1/2+x,y,-z
1/2-x,y,1/2+z
1/2+x,1/2-y,1/2+z
loop_
_atom_site_type_symbol
_atom_site_label
_atom_site_fract_x
_atom_site_fract_y
_atom_site_fract_z
Si Si1 0.079348 0.703177 0.342123
Si Si2 0.320742 0.362671 0.824510
Si Si3 0.191149 0.846271 0.324287
Si Si4 0.820627 0.475636 0.116284
Si Si5 0.876603 0.944770 0.190246
Si Si6 0.000000 0.612855 0.250000
Si Si7 0.927104 0.299709 0.312399
O O1 0.047565 0.750000 0.250000
O O2 0.146981 0.695284 0.254701
O O3 0.083046 0.713726 0.515155
O O4 0.038455 0.651475 0.353862
O O5 0.264522 0.336833 0.726958
O O6 0.317226 0.422145 0.804134
O O7 0.388117 0.347218 0.748063
O O8 0.316613 0.345257 0.996541
O O9 0.169552 0.899638 0.259233
O O10 0.750000 0.500000 0.119124
O O11 0.874451 0.511986 0.187451
O O12 0.846755 0.470270 0.952411
O O13 0.949373 0.923209 0.163308
O O14 0.894402 0.250000 0.250000
O O15 0.000000 0.305829 0.250000
#
# Coordination Sequence:
#
# PCOD8282896 Si02
#       7
#    16  16  16  16  16   8  16
#     4  11  24  43  73  95 129 177 225 273 341 405
#     4  11  23  42  67 100 138 171 225 280 338 403
#     4  10  22  40  68  97 132 172 220 280 341 395
#     4  11  22  38  67  94 132 176 223 272 337 392
#     4  10  23  40  61  93 131 171 221 270 326 398
#     4  10  25  42  66  92 130 172 221 270 334 394
#     4  11  27  44  67 100 140 172 225 275 338 404
#
# _framework density 20.955570999999999
#
# number of rings (size 3 to 8) (size 9 to 14) (size 15 to 20)
#    0.000    1.385    1.538    2.538   12.923    3.692 
#    1.385    3.077    0.000    0.000    0.000    0.000 
#    0.000    0.000    0.000    0.000    0.000    0.000 
#
# Total GULP energy -644277.587119 kJ/mol
# GULP energy per Si atom -12389.953598 kJ/mol
# Density = 2.090788 g / cm^3
# Si number density = 20.955571 Si / 1000 Ang^3
#
#
#
# Elastic Constant Matrix: (Units=GPa)
#
#
# Indices 1 2 3 4 5 6 
#
# 1 120.1700 60.6426 41.4235 0.0000 0.0000 0.0000
# 2 60.6426 114.0148 55.5397 0.0000 0.0000 0.0000
# 3 41.4235 55.5397 124.2451 0.0000 0.0000 0.0000
# 4 0.0000 0.0000 0.0000 34.2702 0.0000 0.0000
# 5 0.0000 0.0000 0.0000 0.0000 8.4924 0.0000
# 6 0.0000 0.0000 0.0000 0.0000 0.0000 5.4120
#
#
#
# Elastic Compliance Matrix: (Units=1/GPa)
#
#
# Indices 1 2 3 4 5 6 
#
# 1 0.011566 -0.005463 -0.001414 0.000000 0.000000 0.000000
# 2 -0.005463 0.013793 -0.004344 0.000000 0.000000 0.000000
# 3 -0.001414 -0.004344 0.010462 0.000000 0.000000 0.000000
# 4 0.000000 0.000000 0.000000 0.029180 0.000000 0.000000
# 5 0.000000 0.000000 0.000000 0.000000 0.117752 0.000000
# 6 0.000000 0.000000 0.000000 0.000000 0.000000 0.184775
#
#
# Mechanical properties :
#
#
# Convention : Reuss Voigt Hill
#
# Bulk Modulus (GPa) = 74.74882 74.84906 74.79894
# Shear Modulus (GPa) = 12.67656 23.02318 17.84987
#
# Velocity S-wave (km/s) = 2.46219 3.31821 2.92172
# Velocity P-wave (km/s) = 6.62048 7.10466 6.86684
#
# Compressibility (1/GPa) = 0.01337814
#
# Stress axis : x y z
#
# Youngs Moduli (GPa) = 86.46234 72.50300 95.58406
#
# Poissons Ratio (x) = 0.39607 0.13516
# Poissons Ratio (y) = 0.47233 0.41524
# Poissons Ratio (z) = 0.12226 0.31497
#
# Static dielectric constant tensor:
#      x y z
#    x 3.851640 0.000000 0.000000 
#    y 0.000000 4.120270 0.000000 
#    z 0.000000 0.000000 3.674380 
# 
# 
# High freq. dielectric constant tensor:
#      x y z
#    x 1.823840 0.000000 0.000000 
#    y 0.000000 1.831300 0.000000 
#    z 0.000000 0.000000 1.817020 
# 
# From -- ./inp_files/7354.got.cif
#   From: 2010.03.12/outbox.cif.g09.slc.cpg/sg68_4_cif.got.tgz:7354.got - 2010.04.10 23:14:56.
