data_PCOD8282597
_publ_section_title
;
Structure prediction by ZEFSAII (Michael W. Deem and Ramdas Pophale) SiO2 
 PCOD8282597
Probable space group: C C C A
;
_chemical_formula_sum "Si O2"
_cell_formula_units_Z 120
_cell_length_a 19.662300
_cell_length_b 11.265890
_cell_length_c 22.410453
_cell_angle_alpha 90.000000
_cell_angle_beta 90.000000
_cell_angle_gamma 90.000000
_cell_volume 4964.213599
_symmetry_space_group_name_H-M "C C C A"
_symmetry_group_IT_number 68
_space_group.IT_coordinate_system_code '2'
_symmetry_cell_setting 'orthorhombic'
loop_
_space_group_symop_operation_xyz
x,y,z
-x,1/2-y,z
x,1/2-y,1/2-z
-x,y,1/2-z
-x,-y,-z
x,1/2+y,-z
-x,1/2+y,1/2+z
x,-y,1/2+z
1/2+x,1/2+y,z
1/2-x,-y,z
1/2+x,-y,1/2-z
1/2-x,1/2+y,1/2-z
1/2-x,1/2-y,-z
1/2+x,y,-z
1/2-x,y,1/2+z
1/2+x,1/2-y,1/2+z
loop_
_atom_site_type_symbol
_atom_site_label
_atom_site_fract_x
_atom_site_fract_y
_atom_site_fract_z
Si Si1 0.196761 0.902473 0.019616
Si Si2 0.970561 0.369938 0.843495
Si Si3 0.903051 0.123961 0.344781
Si Si4 0.285828 0.737975 0.094340
Si Si5 0.500000 0.570845 0.250000
Si Si6 0.951789 0.515043 0.056030
Si Si7 0.314674 0.926953 0.703711
Si Si8 0.321055 0.155075 0.330412
O O1 0.180708 0.809995 0.966395
O O2 0.250000 0.000000 0.996018
O O3 0.231672 0.841260 0.077247
O O4 0.125323 0.957755 0.037773
O O5 0.892637 0.353429 0.864546
O O6 0.000000 0.250000 0.811526
O O7 0.968935 0.483518 0.800027
O O8 0.015149 0.383689 0.903078
O O9 0.843315 0.217315 0.358781
O O10 0.948463 0.106967 0.404710
O O11 0.878362 0.989584 0.328260
O O12 0.947424 0.158702 0.285938
O O13 0.243065 0.631486 0.125743
O O14 0.000000 0.500000 0.000000
O O15 0.308837 0.790223 0.689342
O O16 0.321225 0.936402 0.775505
O O17 0.250000 0.000000 0.681301
#
# Coordination Sequence:
#
# PCOD8282597 Si02
#       8
#    16  16  16  16   8  16  16  16
#     4  11  24  45  73 107 144 187 248 310 363 434
#     4  11  22  37  63  98 143 172 237 298 366 431
#     4  11  21  43  69 101 140 195 240 290 365 446
#     4  11  24  42  75 105 140 187 243 296 370 436
#     4  10  21  38  66 102 137 192 226 291 365 440
#     4  11  26  43  68 100 142 194 232 299 377 433
#     4  11  22  39  64  96 142 175 231 292 353 427
#     4  11  23  37  63 104 132 184 229 291 358 429
#
# _framework density 24.173013000000001
#
# number of rings (size 3 to 8) (size 9 to 14) (size 15 to 20)
#    0.000    1.067    4.000    3.400    3.733    1.600 
#    0.000    0.000    0.000    1.600    0.000    0.000 
#    0.000    0.000    0.000    0.000    0.000    0.000 
#
# Total GULP energy -743598.088645 kJ/mol
# GULP energy per Si atom -12393.301477 kJ/mol
# Density = 2.411799 g / cm^3
# Si number density = 24.173013 Si / 1000 Ang^3
#
#
#
# Elastic Constant Matrix: (Units=GPa)
#
#
# Indices 1 2 3 4 5 6 
#
# 1 169.8347 31.2081 78.4061 0.0000 0.0000 0.0000
# 2 31.2081 39.3498 27.9301 0.0000 0.0000 0.0000
# 3 78.4061 27.9301 138.4469 0.0000 0.0000 0.0000
# 4 0.0000 0.0000 0.0000 25.3659 0.0000 0.0000
# 5 0.0000 0.0000 0.0000 0.0000 45.4907 0.0000
# 6 0.0000 0.0000 0.0000 0.0000 0.0000 30.4651
#
#
#
# Elastic Compliance Matrix: (Units=1/GPa)
#
#
# Indices 1 2 3 4 5 6 
#
# 1 0.008446 -0.003855 -0.004005 0.000000 0.000000 0.000000
# 2 -0.003855 0.031420 -0.004155 0.000000 0.000000 0.000000
# 3 -0.004005 -0.004155 0.010329 0.000000 0.000000 0.000000
# 4 0.000000 0.000000 0.000000 0.039423 0.000000 0.000000
# 5 0.000000 0.000000 0.000000 0.000000 0.021983 0.000000
# 6 0.000000 0.000000 0.000000 0.000000 0.000000 0.032824
#
#
# Mechanical properties :
#
#
# Convention : Reuss Voigt Hill
#
# Bulk Modulus (GPa) = 38.22102 69.19112 53.70607
# Shear Modulus (GPa) = 28.22025 34.27015 31.24520
#
# Velocity S-wave (km/s) = 3.42047 3.76932 3.59913
# Velocity P-wave (km/s) = 5.60761 6.90139 6.28786
#
# Compressibility (1/GPa) = 0.02616361
#
# Stress axis : x y z
#
# Youngs Moduli (GPa) = 118.40563 31.82680 96.81011
#
# Poissons Ratio (x) = 0.12270 0.38774
# Poissons Ratio (y) = 0.45649 0.40227
# Poissons Ratio (z) = 0.47423 0.13225
#
# Static dielectric constant tensor:
#      x y z
#    x 4.552660 0.000000 0.000000 
#    y 0.000000 4.144240 0.000000 
#    z 0.000000 0.000000 4.769670 
# 
# 
# High freq. dielectric constant tensor:
#      x y z
#    x 1.966820 0.000000 0.000000 
#    y 0.000000 1.934030 0.000000 
#    z 0.000000 0.000000 1.970220 
# 
# From -- ./inp_files/46696.got.cif
#   From: 2010.03.12/outbox.cif.g09.slc.cpg/sg68_24_cif.got.tgz:46696.got - 2010.04.10 23:14:56.
