data_PCOD8282383
_publ_section_title
;
Structure prediction by ZEFSAII (Michael W. Deem and Ramdas Pophale) SiO2 
 PCOD8282383
Probable space group: C C C A
;
_chemical_formula_sum "Si O2"
_cell_formula_units_Z 68
_cell_length_a 23.473292
_cell_length_b 14.971158
_cell_length_c 8.416723
_cell_angle_alpha 90.000000
_cell_angle_beta 90.000000
_cell_angle_gamma 90.000000
_cell_volume 2957.824688
_symmetry_space_group_name_H-M "C C C A"
_symmetry_group_IT_number 68
_space_group.IT_coordinate_system_code '2'
_symmetry_cell_setting 'orthorhombic'
loop_
_space_group_symop_operation_xyz
x,y,z
-x,1/2-y,z
x,1/2-y,1/2-z
-x,y,1/2-z
-x,-y,-z
x,1/2+y,-z
-x,1/2+y,1/2+z
x,-y,1/2+z
1/2+x,1/2+y,z
1/2-x,-y,z
1/2+x,-y,1/2-z
1/2-x,1/2+y,1/2-z
1/2-x,1/2-y,-z
1/2+x,y,-z
1/2-x,y,1/2+z
1/2+x,1/2-y,1/2+z
loop_
_atom_site_type_symbol
_atom_site_label
_atom_site_fract_x
_atom_site_fract_y
_atom_site_fract_z
Si Si1 0.000000 0.030467 0.250000
Si Si2 0.662883 0.788233 0.418975
Si Si3 0.500000 0.750000 0.750000
Si Si4 0.439240 0.890857 0.954395
Si Si5 0.285723 0.128078 0.064815
Si Si6 0.750000 0.000000 0.693036
O O1 0.051317 0.971932 0.329374
O O2 0.974393 0.092522 0.385479
O O3 0.639704 0.750000 0.250000
O O4 0.625325 0.868392 0.492832
O O5 0.666670 0.705184 0.545623
O O6 0.725281 0.827623 0.394371
O O7 0.460425 0.803524 0.868122
O O8 0.286428 0.071127 0.904093
O O9 0.296857 0.056176 0.204417
#
# Coordination Sequence:
#
# PCOD8282383 Si02
#       6
#     8  16   4  16  16   8
#     4   9  22  48  70 101 136 172 224 305 330 416
#     4  11  23  40  64 101 129 182 223 272 337 414
#     4  10  24  42  64 110 120 180 216 286 348 416
#     4  10  23  43  71  97 138 169 227 278 357 396
#     4  10  22  40  62  92 138 171 231 265 326 399
#     4  10  20  40  62  84 128 190 206 284 322 362
#
# _framework density 22.989868999999999
#
# number of rings (size 3 to 8) (size 9 to 14) (size 15 to 20)
#    0.000    1.882    2.353    0.000    3.294    3.765 
#    0.000    0.000    0.000    0.000    0.000    0.000 
#    0.000    0.000    0.000    0.000    0.000    0.000 
#
# Total GULP energy -421305.738652 kJ/mol
# GULP energy per Si atom -12391.345254 kJ/mol
# Density = 2.293754 g / cm^3
# Si number density = 22.989869 Si / 1000 Ang^3
#
#
#
# Elastic Constant Matrix: (Units=GPa)
#
#
# Indices 1 2 3 4 5 6 
#
# 1 70.9171 33.0337 27.2233 0.0000 0.0000 0.0000
# 2 33.0337 115.4084 55.8302 0.0000 0.0000 0.0000
# 3 27.2233 55.8302 139.9016 0.0000 0.0000 0.0000
# 4 0.0000 0.0000 0.0000 44.1224 0.0000 0.0000
# 5 0.0000 0.0000 0.0000 0.0000 38.8506 0.0000
# 6 0.0000 0.0000 0.0000 0.0000 0.0000 33.1041
#
#
#
# Elastic Compliance Matrix: (Units=1/GPa)
#
#
# Indices 1 2 3 4 5 6 
#
# 1 0.016572 -0.003945 -0.001650 0.000000 0.000000 0.000000
# 2 -0.003945 0.011677 -0.003892 0.000000 0.000000 0.000000
# 3 -0.001650 -0.003892 0.009022 0.000000 0.000000 0.000000
# 4 0.000000 0.000000 0.000000 0.022664 0.000000 0.000000
# 5 0.000000 0.000000 0.000000 0.000000 0.025740 0.000000
# 6 0.000000 0.000000 0.000000 0.000000 0.000000 0.030208
#
#
# Mechanical properties :
#
#
# Convention : Reuss Voigt Hill
#
# Bulk Modulus (GPa) = 54.65675 62.04460 58.35068
# Shear Modulus (GPa) = 35.47175 37.22475 36.34825
#
# Velocity S-wave (km/s) = 3.93228 4.02827 3.98056
# Velocity P-wave (km/s) = 6.66655 6.97727 6.82368
#
# Compressibility (1/GPa) = 0.01829600
#
# Stress axis : x y z
#
# Youngs Moduli (GPa) = 60.34207 85.63830 110.83644
#
# Poissons Ratio (x) = 0.33785 0.18293
# Poissons Ratio (y) = 0.23806 0.43140
# Poissons Ratio (z) = 0.09959 0.33333
#
# Static dielectric constant tensor:
#      x y z
#    x 3.607330 0.000000 0.000000 
#    y 0.000000 4.746160 0.000000 
#    z 0.000000 0.000000 4.470680 
# 
# 
# High freq. dielectric constant tensor:
#      x y z
#    x 1.853710 0.000000 0.000000 
#    y 0.000000 1.928710 0.000000 
#    z 0.000000 0.000000 1.931580 
# 
# From -- ./inp_files/5983.got.cif
#   From: 2010.03.12/outbox.cif.g09.slc.cpg/sg68_3_cif.got.tgz:5983.got - 2010.04.10 23:14:56.
