data_PCOD8282518
_publ_section_title
;
Structure prediction by ZEFSAII (Michael W. Deem and Ramdas Pophale) SiO2 
 PCOD8282518
Probable space group: C C C A
;
_chemical_formula_sum "Si O2"
_cell_formula_units_Z 112
_cell_length_a 14.041276
_cell_length_b 23.824924
_cell_length_c 15.061658
_cell_angle_alpha 90.000000
_cell_angle_beta 90.000000
_cell_angle_gamma 90.000000
_cell_volume 5038.611598
_symmetry_space_group_name_H-M "C C C A"
_symmetry_group_IT_number 68
_space_group.IT_coordinate_system_code '2'
_symmetry_cell_setting 'orthorhombic'
loop_
_space_group_symop_operation_xyz
x,y,z
-x,1/2-y,z
x,1/2-y,1/2-z
-x,y,1/2-z
-x,-y,-z
x,1/2+y,-z
-x,1/2+y,1/2+z
x,-y,1/2+z
1/2+x,1/2+y,z
1/2-x,-y,z
1/2+x,-y,1/2-z
1/2-x,1/2+y,1/2-z
1/2-x,1/2-y,-z
1/2+x,y,-z
1/2-x,y,1/2+z
1/2+x,1/2-y,1/2+z
loop_
_atom_site_type_symbol
_atom_site_label
_atom_site_fract_x
_atom_site_fract_y
_atom_site_fract_z
Si Si1 0.068617 0.114931 0.172004
Si Si2 0.475222 0.814871 0.469632
Si Si3 0.308321 0.110693 0.951774
Si Si4 0.180706 0.946844 0.317238
Si Si5 0.541988 0.687710 0.663804
Si Si6 0.218368 0.122011 0.655777
Si Si7 0.035692 0.519115 0.593821
O O1 0.177209 0.126254 0.199793
O O2 0.000000 0.136627 0.250000
O O3 0.052753 0.152118 0.085663
O O4 0.048346 0.049137 0.150999
O O5 0.500000 0.750000 0.459242
O O6 0.365044 0.829456 0.441837
O O7 0.492342 0.837473 0.570144
O O8 0.220114 0.102625 0.883857
O O9 0.383819 0.064498 0.924004
O O10 0.273590 0.101906 0.053541
O O11 0.165567 0.924096 0.217167
O O12 0.250000 0.000000 0.316078
O O13 0.077499 0.966427 0.352329
O O14 0.500000 0.750000 0.668525
O O15 0.500000 0.654995 0.750000
O O16 0.657796 0.680379 0.664541
O O17 0.000000 0.500000 0.500000
#
# Coordination Sequence:
#
# PCOD8282518 Si02
#       7
#    16  16  16  16  16  16  16
#     4  11  23  40  58  91 133 165 208 264 310 376
#     4   9  19  39  62  84 118 163 205 258 322 378
#     4   9  20  37  56  86 123 155 209 264 303 369
#     4  10  21  37  55  85 125 166 208 255 306 364
#     4   9  20  41  63  89 122 154 203 269 326 379
#     4  11  22  37  63  90 119 167 210 252 318 382
#     4  10  21  37  59  85 121 164 205 261 317 365
#
# _framework density 22.228345000000001
#
# number of rings (size 3 to 8) (size 9 to 14) (size 15 to 20)
#    0.000    2.143    0.000    3.429    0.000    8.857 
#    0.000   12.143    0.000    0.000    0.000    0.000 
#    0.000    0.000    0.000    0.000    0.000    0.000 
#
# Total GULP energy -693774.915939 kJ/mol
# GULP energy per Si atom -12388.837785 kJ/mol
# Density = 2.217775 g / cm^3
# Si number density = 22.228345 Si / 1000 Ang^3
#
#
#
# Elastic Constant Matrix: (Units=GPa)
#
#
# Indices 1 2 3 4 5 6 
#
# 1 119.5617 47.7889 31.3634 0.0000 0.0000 0.0000
# 2 47.7889 87.7831 38.0551 0.0000 0.0000 0.0000
# 3 31.3634 38.0551 114.3236 0.0000 0.0000 0.0000
# 4 0.0000 0.0000 0.0000 27.3640 0.0000 0.0000
# 5 0.0000 0.0000 0.0000 0.0000 34.5683 0.0000
# 6 0.0000 0.0000 0.0000 0.0000 0.0000 33.0742
#
#
#
# Elastic Compliance Matrix: (Units=1/GPa)
#
#
# Indices 1 2 3 4 5 6 
#
# 1 0.010824 -0.005382 -0.001178 0.000000 0.000000 0.000000
# 2 -0.005382 0.015989 -0.003846 0.000000 0.000000 0.000000
# 3 -0.001178 -0.003846 0.010350 0.000000 0.000000 0.000000
# 4 0.000000 0.000000 0.000000 0.036544 0.000000 0.000000
# 5 0.000000 0.000000 0.000000 0.000000 0.028928 0.000000
# 6 0.000000 0.000000 0.000000 0.000000 0.000000 0.030235
#
#
# Mechanical properties :
#
#
# Convention : Reuss Voigt Hill
#
# Bulk Modulus (GPa) = 61.15468 61.78702 61.47085
# Shear Modulus (GPa) = 31.42028 32.63203 32.02615
#
# Velocity S-wave (km/s) = 3.76376 3.83565 3.79988
# Velocity P-wave (km/s) = 6.81613 6.89008 6.85320
#
# Compressibility (1/GPa) = 0.01635198
#
# Stress axis : x y z
#
# Youngs Moduli (GPa) = 92.38694 62.54375 96.61455
#
# Poissons Ratio (x) = 0.33661 0.11381
# Poissons Ratio (y) = 0.49722 0.37156
# Poissons Ratio (z) = 0.10883 0.24053
#
# Static dielectric constant tensor:
#      x y z
#    x 4.121990 0.000000 0.000000 
#    y 0.000000 3.861790 0.000000 
#    z 0.000000 0.000000 4.690180 
# 
# 
# High freq. dielectric constant tensor:
#      x y z
#    x 1.867860 0.000000 0.000000 
#    y 0.000000 1.843480 0.000000 
#    z 0.000000 0.000000 1.901920 
# 
# From -- ./inp_files/22581.got.cif
#   From: 2010.03.12/outbox.cif.g09.slc.cpg/sg68_12_cif.got.tgz:22581.got - 2010.04.10 23:14:56.
