data_PCOD8282191
_publ_section_title
;
Structure prediction by ZEFSAII (Michael W. Deem and Ramdas Pophale) SiO2 
 PCOD8282191
Probable space group: C C C A
;
_chemical_formula_sum "Si O2"
_cell_formula_units_Z 68
_cell_length_a 20.272478
_cell_length_b 26.999192
_cell_length_c 5.129605
_cell_angle_alpha 90.000000
_cell_angle_beta 90.000000
_cell_angle_gamma 90.000000
_cell_volume 2807.640698
_symmetry_space_group_name_H-M "C C C A"
_symmetry_group_IT_number 68
_space_group.IT_coordinate_system_code '2'
_symmetry_cell_setting 'orthorhombic'
loop_
_space_group_symop_operation_xyz
x,y,z
-x,1/2-y,z
x,1/2-y,1/2-z
-x,y,1/2-z
-x,-y,-z
x,1/2+y,-z
-x,1/2+y,1/2+z
x,-y,1/2+z
1/2+x,1/2+y,z
1/2-x,-y,z
1/2+x,-y,1/2-z
1/2-x,1/2+y,1/2-z
1/2-x,1/2-y,-z
1/2+x,y,-z
1/2-x,y,1/2+z
1/2+x,1/2-y,1/2+z
loop_
_atom_site_type_symbol
_atom_site_label
_atom_site_fract_x
_atom_site_fract_y
_atom_site_fract_z
Si Si1 0.322013 0.970806 0.416282
Si Si2 0.960023 0.438503 0.510008
Si Si3 0.000000 0.250000 0.750000
Si Si4 0.936709 0.332979 0.434335
Si Si5 0.791619 0.857367 0.667704
O O1 0.400584 0.973801 0.433871
O O2 0.297949 0.916753 0.334360
O O3 0.297390 0.011293 0.202426
O O4 0.936031 0.383660 0.607562
O O5 0.000000 0.429865 0.250000
O O6 0.000000 0.463727 0.750000
O O7 0.947406 0.283461 0.597561
O O8 0.863906 0.331436 0.300601
O O9 0.000000 0.334810 0.250000
O O10 0.746017 0.840074 0.907175
#
# Coordination Sequence:
#
# PCOD8282191 Si02
#       5
#    16  16   4  16  16
#     4  11  23  37  59  94 132 179 237 284 325 389
#     4  10  20  36  58  89 134 178 220 278 344 402
#     4  12  22  44  80 106 132 172 232 292 342 424
#     4  10  24  43  73 105 138 178 233 281 351 422
#     4  11  26  46  71 100 144 191 230 284 349 408
#
# _framework density 24.219625000000001
#
# number of rings (size 3 to 8) (size 9 to 14) (size 15 to 20)
#    0.000    1.412    1.176    3.176    3.294    9.412 
#    0.000    1.176    0.000    0.000    0.000    0.000 
#    0.000    0.000    0.000    0.000    0.000    0.000 
#
# Total GULP energy -421262.230802 kJ/mol
# GULP energy per Si atom -12390.065612 kJ/mol
# Density = 2.416450 g / cm^3
# Si number density = 24.219625 Si / 1000 Ang^3
#
#
#
# Elastic Constant Matrix: (Units=GPa)
#
#
# Indices 1 2 3 4 5 6 
#
# 1 205.2847 36.8808 48.1446 0.0000 0.0000 0.0000
# 2 36.8808 90.2811 5.8405 0.0000 0.0000 0.0000
# 3 48.1446 5.8405 137.7607 0.0000 0.0000 0.0000
# 4 0.0000 0.0000 0.0000 9.5687 0.0000 0.0000
# 5 0.0000 0.0000 0.0000 0.0000 59.0396 0.0000
# 6 0.0000 0.0000 0.0000 0.0000 0.0000 29.4719
#
#
#
# Elastic Compliance Matrix: (Units=1/GPa)
#
#
# Indices 1 2 3 4 5 6 
#
# 1 0.005715 -0.002212 -0.001904 0.000000 0.000000 0.000000
# 2 -0.002212 0.011963 0.000266 0.000000 0.000000 0.000000
# 3 -0.001904 0.000266 0.007913 0.000000 0.000000 0.000000
# 4 0.000000 0.000000 0.000000 0.104508 0.000000 0.000000
# 5 0.000000 0.000000 0.000000 0.000000 0.016938 0.000000
# 6 0.000000 0.000000 0.000000 0.000000 0.000000 0.033931
#
#
# Mechanical properties :
#
#
# Convention : Reuss Voigt Hill
#
# Bulk Modulus (GPa) = 55.89070 68.33980 62.11525
# Shear Modulus (GPa) = 25.68982 42.44673 34.06828
#
# Velocity S-wave (km/s) = 3.26038 4.19092 3.75459
# Velocity P-wave (km/s) = 6.10738 7.19002 6.67070
#
# Compressibility (1/GPa) = 0.01789207
#
# Stress axis : x y z
#
# Youngs Moduli (GPa) = 174.97747 83.59282 126.37522
#
# Poissons Ratio (x) = 0.18487 0.24056
# Poissons Ratio (y) = 0.38696 -0.03358
# Poissons Ratio (z) = 0.33307 -0.02221
#
# Static dielectric constant tensor:
#      x y z
#    x 4.666780 0.000000 0.000000 
#    y 0.000000 4.631820 0.000000 
#    z 0.000000 0.000000 4.152590 
# 
# 
# High freq. dielectric constant tensor:
#      x y z
#    x 1.996730 0.000000 0.000000 
#    y 0.000000 1.945720 0.000000 
#    z 0.000000 0.000000 1.948520 
# 
# From -- ./inp_files/1621.got.cif
#   From: 2010.03.12/outbox.cif.g09.slc.cpg/sg68_1_cif.got.tgz:1621.got - 2010.04.10 23:14:56.
