data_PCOD8282035
_publ_section_title
;
Structure prediction by ZEFSAII (Michael W. Deem and Ramdas Pophale) SiO2 
 PCOD8282035
Probable space group: C C C A
;
_chemical_formula_sum "Si O2"
_cell_formula_units_Z 80
_cell_length_a 25.109706
_cell_length_b 13.949790
_cell_length_c 11.788661
_cell_angle_alpha 90.000000
_cell_angle_beta 90.000000
_cell_angle_gamma 90.000000
_cell_volume 4129.274713
_symmetry_space_group_name_H-M "C C C A"
_symmetry_group_IT_number 68
_space_group.IT_coordinate_system_code '2'
_symmetry_cell_setting 'orthorhombic'
loop_
_space_group_symop_operation_xyz
x,y,z
-x,1/2-y,z
x,1/2-y,1/2-z
-x,y,1/2-z
-x,-y,-z
x,1/2+y,-z
-x,1/2+y,1/2+z
x,-y,1/2+z
1/2+x,1/2+y,z
1/2-x,-y,z
1/2+x,-y,1/2-z
1/2-x,1/2+y,1/2-z
1/2-x,1/2-y,-z
1/2+x,y,-z
1/2-x,y,1/2+z
1/2+x,1/2-y,1/2+z
loop_
_atom_site_type_symbol
_atom_site_label
_atom_site_fract_x
_atom_site_fract_y
_atom_site_fract_z
Si Si1 0.639696 0.133418 0.490829
Si Si2 0.206188 0.703830 0.082708
Si Si3 0.142853 0.575768 0.919970
Si Si4 0.200421 0.648335 0.712956
Si Si5 0.939549 0.738484 0.616915
O O1 0.663289 0.210034 0.399202
O O2 0.681473 0.111899 0.591258
O O3 0.587729 0.175101 0.550158
O O4 0.625143 0.034015 0.431417
O O5 0.235336 0.665962 0.198154
O O6 0.250000 0.750000 0.000000
O O7 0.176949 0.613352 0.026152
O O8 0.182876 0.576218 0.811401
O O9 0.088426 0.636600 0.910287
O O10 0.173405 0.750000 0.750000
O O11 0.935506 0.750000 0.750000
O O12 0.000000 0.750000 0.575215
#
# Coordination Sequence:
#
# PCOD8282035 Si02
#       5
#    16  16  16  16  16
#     4  10  20  36  57  88 112 148 196 239 283 342
#     4   9  19  35  51  79 115 152 191 229 276 340
#     4  11  20  37  57  84 120 147 195 243 281 348
#     4  11  18  39  55  73 118 156 187 240 274 336
#     4  10  19  38  66  85 110 151 189 243 304 348
#
# _framework density 19.373863
#
# number of rings (size 3 to 8) (size 9 to 14) (size 15 to 20)
#    0.000    1.800    8.000    0.000    0.000    4.000 
#    7.200    0.000    0.000    0.000    0.000    1.400 
#    0.000    0.000    0.000    0.000    0.000    0.000 
#
# Total GULP energy -495554.635076 kJ/mol
# GULP energy per Si atom -12388.865877 kJ/mol
# Density = 1.932977 g / cm^3
# Si number density = 19.373863 Si / 1000 Ang^3
#
#
#
# Elastic Constant Matrix: (Units=GPa)
#
#
# Indices 1 2 3 4 5 6 
#
# 1 128.6272 60.6774 38.5777 0.0000 0.0000 0.0000
# 2 60.6774 131.0268 48.6411 0.0000 0.0000 0.0000
# 3 38.5777 48.6411 61.2676 0.0000 0.0000 0.0000
# 4 0.0000 0.0000 0.0000 24.6444 0.0000 0.0000
# 5 0.0000 0.0000 0.0000 0.0000 31.5910 0.0000
# 6 0.0000 0.0000 0.0000 0.0000 0.0000 -89.3892
#
#
#
# Elastic Compliance Matrix: (Units=1/GPa)
#
#
# Indices 1 2 3 4 5 6 
#
# 1 0.010575 -0.003439 -0.003928 0.000000 0.000000 0.000000
# 2 -0.003439 0.011940 -0.007314 0.000000 0.000000 0.000000
# 3 -0.003928 -0.007314 0.024602 0.000000 0.000000 0.000000
# 4 0.000000 0.000000 0.000000 0.040577 0.000000 0.000000
# 5 0.000000 0.000000 0.000000 0.000000 0.031655 0.000000
# 6 0.000000 0.000000 0.000000 0.000000 0.000000 -0.011187
#
#
# Mechanical properties :
#
#
# Convention : Reuss Voigt Hill
#
# Bulk Modulus (GPa) = 56.32412 68.52379 62.42395
# Shear Modulus (GPa) = 34.85759 4.90428 19.88093
#
# Velocity S-wave (km/s) = 4.24631 1.59276 3.20687
# Velocity P-wave (km/s) = 7.29224 6.23125 6.78253
#
# Compressibility (1/GPa) = 0.01775438
#
# Stress axis : x y z
#
# Youngs Moduli (GPa) = 94.56471 83.75513 40.64731
#
# Poissons Ratio (x) = 0.28801 0.15968
# Poissons Ratio (y) = 0.32518 0.29728
# Poissons Ratio (z) = 0.37149 0.61256
#
# Static dielectric constant tensor:
#      x y z
#    x 3.730370 0.000000 0.000000 
#    y 0.000000 3.395420 0.000000 
#    z 0.000000 0.000000 3.070210 
# 
# 
# High freq. dielectric constant tensor:
#      x y z
#    x 1.738030 0.000000 0.000000 
#    y 0.000000 1.746230 0.000000 
#    z 0.000000 0.000000 1.738710 
# 
# From -- ./inp_files/13417.got.cif
#   From: 2010.03.12/outbox.cif.g09.slc.cpg/sg68_7_cif.got.tgz:13417.got - 2010.04.10 23:14:56.
