data_PCOD8282394
_publ_section_title
;
Structure prediction by ZEFSAII (Michael W. Deem and Ramdas Pophale) SiO2 
 PCOD8282394
Probable space group: C C C A
;
_chemical_formula_sum "Si O2"
_cell_formula_units_Z 72
_cell_length_a 22.138547
_cell_length_b 8.410325
_cell_length_c 16.687080
_cell_angle_alpha 90.000000
_cell_angle_beta 90.000000
_cell_angle_gamma 90.000000
_cell_volume 3107.007062
_symmetry_space_group_name_H-M "C C C A"
_symmetry_group_IT_number 68
_space_group.IT_coordinate_system_code '2'
_symmetry_cell_setting 'orthorhombic'
loop_
_space_group_symop_operation_xyz
x,y,z
-x,1/2-y,z
x,1/2-y,1/2-z
-x,y,1/2-z
-x,-y,-z
x,1/2+y,-z
-x,1/2+y,1/2+z
x,-y,1/2+z
1/2+x,1/2+y,z
1/2-x,-y,z
1/2+x,-y,1/2-z
1/2-x,1/2+y,1/2-z
1/2-x,1/2-y,-z
1/2+x,y,-z
1/2-x,y,1/2+z
1/2+x,1/2-y,1/2+z
loop_
_atom_site_type_symbol
_atom_site_label
_atom_site_fract_x
_atom_site_fract_y
_atom_site_fract_z
Si Si1 0.250000 0.000000 0.228881
Si Si2 0.062459 0.199663 0.612098
Si Si3 0.059673 0.655508 0.945381
Si Si4 0.842394 0.750000 0.250000
Si Si5 0.687709 0.294914 0.598194
Si Si6 0.750000 0.500000 0.967564
O O1 0.198680 0.901575 0.277303
O O2 0.283720 0.866949 0.177224
O O3 0.074478 0.321909 0.539566
O O4 0.117966 0.200073 0.673460
O O5 0.000000 0.250000 0.656520
O O6 0.051985 0.030142 0.570963
O O7 0.115677 0.719478 0.892793
O O8 0.000000 0.750000 0.917919
O O9 0.713943 0.118795 0.589527
O O10 0.702251 0.405311 0.521906
#
# Coordination Sequence:
#
# PCOD8282394 Si02
#       6
#     8  16  16   8  16   8
#     4  11  26  49  66  96 141 187 246 290 365 447
#     4  11  24  46  76 106 146 191 240 299 362 428
#     4  11  22  42  73 112 144 181 243 301 353 425
#     4  12  27  52  70 102 147 194 240 298 370 446
#     4  10  20  40  65 104 137 182 232 293 354 423
#     4   9  20  31  66 102 135 175 230 288 355 413
#
# _framework density 23.173427
#
# number of rings (size 3 to 8) (size 9 to 14) (size 15 to 20)
#    0.000    1.333    2.222    4.333    6.222    0.889 
#    8.000    0.000    0.000    5.333    0.000    0.000 
#    0.000    0.000    0.000    0.000    0.000    0.000 
#
# Total GULP energy -446411.157210 kJ/mol
# GULP energy per Si atom -12400.309923 kJ/mol
# Density = 2.312068 g / cm^3
# Si number density = 23.173427 Si / 1000 Ang^3
#
#
#
# Elastic Constant Matrix: (Units=GPa)
#
#
# Indices 1 2 3 4 5 6 
#
# 1 165.9141 65.2555 36.6426 0.0000 0.0000 0.0000
# 2 65.2555 161.2714 44.9015 0.0000 0.0000 0.0000
# 3 36.6426 44.9015 57.1467 0.0000 0.0000 0.0000
# 4 0.0000 0.0000 0.0000 12.4937 0.0000 0.0000
# 5 0.0000 0.0000 0.0000 0.0000 1.7235 0.0000
# 6 0.0000 0.0000 0.0000 0.0000 0.0000 40.9266
#
#
#
# Elastic Compliance Matrix: (Units=1/GPa)
#
#
# Indices 1 2 3 4 5 6 
#
# 1 0.007583 -0.002195 -0.003138 0.000000 0.000000 0.000000
# 2 -0.002195 0.008572 -0.005328 0.000000 0.000000 0.000000
# 3 -0.003138 -0.005328 0.023697 0.000000 0.000000 0.000000
# 4 0.000000 0.000000 0.000000 0.080040 0.000000 0.000000
# 5 0.000000 0.000000 0.000000 0.000000 0.580208 0.000000
# 6 0.000000 0.000000 0.000000 0.000000 0.000000 0.024434
#
#
# Mechanical properties :
#
#
# Convention : Reuss Voigt Hill
#
# Bulk Modulus (GPa) = 53.96305 75.32571 64.64438
# Shear Modulus (GPa) = 6.64863 26.86428 16.75645
#
# Velocity S-wave (km/s) = 1.69567 3.40850 2.69195
# Velocity P-wave (km/s) = 5.21257 6.93298 6.13340
#
# Compressibility (1/GPa) = 0.01853120
#
# Stress axis : x y z
#
# Youngs Moduli (GPa) = 131.86524 116.65495 42.19877
#
# Poissons Ratio (x) = 0.25604 0.13242
# Poissons Ratio (y) = 0.28942 0.22484
# Poissons Ratio (z) = 0.41380 0.62155
#
# Static dielectric constant tensor:
#      x y z
#    x 4.540020 0.000000 0.000000 
#    y 0.000000 4.334900 0.000000 
#    z 0.000000 0.000000 3.759780 
# 
# 
# High freq. dielectric constant tensor:
#      x y z
#    x 1.936320 0.000000 0.000000 
#    y 0.000000 1.934100 0.000000 
#    z 0.000000 0.000000 1.886090 
# 
# From -- ./inp_files/33456.got.cif
#   From: 2010.03.12/outbox.cif.g09.slc.cpg/sg68_17_cif.got.tgz:33456.got - 2010.04.10 23:14:56.
