data_PCOD8282821
_publ_section_title
;
Structure prediction by ZEFSAII (Michael W. Deem and Ramdas Pophale) SiO2 
 PCOD8282821
Probable space group: C C C A
;
_chemical_formula_sum "Si O2"
_cell_formula_units_Z 64
_cell_length_a 16.245240
_cell_length_b 10.623013
_cell_length_c 16.584134
_cell_angle_alpha 90.000000
_cell_angle_beta 90.000000
_cell_angle_gamma 90.000000
_cell_volume 2861.980319
_symmetry_space_group_name_H-M "C C C A"
_symmetry_group_IT_number 68
_space_group.IT_coordinate_system_code '2'
_symmetry_cell_setting 'orthorhombic'
loop_
_space_group_symop_operation_xyz
x,y,z
-x,1/2-y,z
x,1/2-y,1/2-z
-x,y,1/2-z
-x,-y,-z
x,1/2+y,-z
-x,1/2+y,1/2+z
x,-y,1/2+z
1/2+x,1/2+y,z
1/2-x,-y,z
1/2+x,-y,1/2-z
1/2-x,1/2+y,1/2-z
1/2-x,1/2-y,-z
1/2+x,y,-z
1/2-x,y,1/2+z
1/2+x,1/2-y,1/2+z
loop_
_atom_site_type_symbol
_atom_site_label
_atom_site_fract_x
_atom_site_fract_y
_atom_site_fract_z
Si Si1 0.883200 0.668682 0.897176
Si Si2 0.000000 0.750000 0.037690
Si Si3 0.999557 0.540968 0.340608
Si Si4 0.330197 0.934202 0.120845
Si Si5 0.250000 0.000000 0.966941
O O1 0.855413 0.794541 0.848640
O O2 0.799559 0.592870 0.909530
O O3 0.947071 0.588310 0.843316
O O4 0.926095 0.700143 0.982238
O O5 0.962762 0.859062 0.095653
O O6 0.093656 0.525134 0.366041
O O7 0.000000 0.594326 0.250000
O O8 0.250000 0.000000 0.163869
O O9 0.312249 0.921604 0.024776
#
# Coordination Sequence:
#
# PCOD8282821 Si02
#       5
#    16   8  16  16   8
#     4  12  22  42  75 101 132 184 237 286 339 412
#     4  12  21  44  73 100 132 184 242 280 337 412
#     4  12  26  44  71 103 142 185 229 283 356 422
#     4  10  22  40  66  99 141 171 225 293 341 396
#     4  10  22  38  66 108 132 172 236 296 328 400
#
# _framework density 22.362136
#
# number of rings (size 3 to 8) (size 9 to 14) (size 15 to 20)
#    0.750    0.000    5.000    3.375    0.000    4.000 
#    2.250    0.000    5.500    0.000    0.000    0.000 
#    0.000    0.000    0.000    0.000    0.000    0.000 
#
# Total GULP energy -396672.856178 kJ/mol
# GULP energy per Si atom -12396.026756 kJ/mol
# Density = 2.231124 g / cm^3
# Si number density = 22.362136 Si / 1000 Ang^3
#
#
#
# Elastic Constant Matrix: (Units=GPa)
#
#
# Indices 1 2 3 4 5 6 
#
# 1 116.2749 30.4031 27.7587 0.0000 0.0000 0.0000
# 2 30.4031 110.1264 21.3048 0.0000 0.0000 0.0000
# 3 27.7587 21.3048 72.5293 0.0000 0.0000 0.0000
# 4 0.0000 0.0000 0.0000 -0.0421 0.0000 0.0000
# 5 0.0000 0.0000 0.0000 0.0000 2.7008 0.0000
# 6 0.0000 0.0000 0.0000 0.0000 0.0000 53.8404
#
#
#
# Elastic Compliance Matrix: (Units=1/GPa)
#
#
# Indices 1 2 3 4 5 6 
#
# 1 0.009912 -0.002123 -0.003170 0.000000 0.000000 0.000000
# 2 -0.002123 0.010082 -0.002149 0.000000 0.000000 0.000000
# 3 -0.003170 -0.002149 0.015632 0.000000 0.000000 0.000000
# 4 0.000000 0.000000 0.000000-23.753548 0.000000 0.000000
# 5 0.000000 0.000000 0.000000 0.000000 0.370260 0.000000
# 6 0.000000 0.000000 0.000000 0.000000 0.000000 0.018573
#
#
# Mechanical properties :
#
#
# Convention : Reuss Voigt Hill
#
# Bulk Modulus (GPa) = 48.21088 50.87377 49.54232
# Shear Modulus (GPa) = -0.21453 25.93075 12.85811
#
# Velocity S-wave (km/s) = -0.31007 3.40896 2.40051
# Velocity P-wave (km/s) = 4.63441 6.18822 5.46680
#
# Compressibility (1/GPa) = 0.02074221
#
# Stress axis : x y z
#
# Youngs Moduli (GPa) = 100.88504 99.18279 63.97132
#
# Poissons Ratio (x) = 0.21059 0.20279
# Poissons Ratio (y) = 0.21421 0.13747
# Poissons Ratio (z) = 0.31980 0.21314
#
# Static dielectric constant tensor:
#      x y z
#    x 3.966960 0.000000 0.000000 
#    y 0.000000 4.092840 0.000000 
#    z 0.000000 0.000000 3.596140 
# 
# 
# High freq. dielectric constant tensor:
#      x y z
#    x 1.888790 0.000000 0.000000 
#    y 0.000000 1.885290 0.000000 
#    z 0.000000 0.000000 1.843160 
# 
# From -- ./inp_files/23196.got.cif
#   From: 2010.03.12/outbox.cif.g09.slc.cpg/sg68_12_cif.got.tgz:23196.got - 2010.04.10 23:14:56.
