data_PCOD8282754
_publ_section_title
;
Structure prediction by ZEFSAII (Michael W. Deem and Ramdas Pophale) SiO2 
 PCOD8282754
Probable space group: C C C A
;
_chemical_formula_sum "Si O2"
_cell_formula_units_Z 68
_cell_length_a 16.043096
_cell_length_b 10.232623
_cell_length_c 21.143808
_cell_angle_alpha 90.000000
_cell_angle_beta 90.000000
_cell_angle_gamma 90.000000
_cell_volume 3471.029961
_symmetry_space_group_name_H-M "C C C A"
_symmetry_group_IT_number 68
_space_group.IT_coordinate_system_code '2'
_symmetry_cell_setting 'orthorhombic'
loop_
_space_group_symop_operation_xyz
x,y,z
-x,1/2-y,z
x,1/2-y,1/2-z
-x,y,1/2-z
-x,-y,-z
x,1/2+y,-z
-x,1/2+y,1/2+z
x,-y,1/2+z
1/2+x,1/2+y,z
1/2-x,-y,z
1/2+x,-y,1/2-z
1/2-x,1/2+y,1/2-z
1/2-x,1/2-y,-z
1/2+x,y,-z
1/2-x,y,1/2+z
1/2+x,1/2-y,1/2+z
loop_
_atom_site_type_symbol
_atom_site_label
_atom_site_fract_x
_atom_site_fract_y
_atom_site_fract_z
Si Si1 0.500000 0.750000 0.750000
Si Si2 0.152514 0.474447 0.530896
Si Si3 0.185618 0.818282 0.813205
Si Si4 0.902808 0.751639 0.559653
Si Si5 0.364789 0.393739 0.168215
O O1 0.555459 0.660608 0.795490
O O2 0.250000 0.500000 0.541496
O O3 0.114601 0.618220 0.518167
O O4 0.131399 0.378843 0.473620
O O5 0.114079 0.408977 0.593895
O O6 0.154253 0.750000 0.750000
O O7 0.142363 0.753191 0.873274
O O8 0.285105 0.799624 0.822369
O O9 0.158710 0.966683 0.803734
O O10 0.000000 0.750000 0.572135
#
# Coordination Sequence:
#
# PCOD8282754 Si02
#       5
#     4  16  16  16  16
#     4  12  24  40  70 100 118 168 226 246 336 384
#     4  11  22  44  66  91 136 171 210 269 328 375
#     4  10  21  44  64  88 134 169 209 261 327 381
#     4  11  24  41  64  98 128 171 220 266 319 382
#     4  10  22  41  64  94 129 166 204 273 316 375
#
# _framework density 19.590726
#
# number of rings (size 3 to 8) (size 9 to 14) (size 15 to 20)
#    0.000    1.412    5.882    1.412    1.647    4.235 
#    8.471    0.000    0.000    0.000    0.000    0.000 
#    0.000    0.000    0.000    0.000    0.000    0.000 
#
# Total GULP energy -421622.268545 kJ/mol
# GULP energy per Si atom -12400.654957 kJ/mol
# Density = 1.954614 g / cm^3
# Si number density = 19.590726 Si / 1000 Ang^3
#
#
#
# Elastic Constant Matrix: (Units=GPa)
#
#
# Indices 1 2 3 4 5 6 
#
# 1 140.5718 48.2492 55.0985 0.0000 0.0000 0.0000
# 2 48.2492 101.0890 73.2515 0.0000 0.0000 0.0000
# 3 55.0985 73.2515 126.4935 0.0000 0.0000 0.0000
# 4 0.0000 0.0000 0.0000 71.2113 0.0000 0.0000
# 5 0.0000 0.0000 0.0000 0.0000 718.4255 0.0000
# 6 0.0000 0.0000 0.0000 0.0000 0.0000 26.1796
#
#
#
# Elastic Compliance Matrix: (Units=1/GPa)
#
#
# Indices 1 2 3 4 5 6 
#
# 1 0.008927 -0.002487 -0.002449 0.000000 0.000000 0.000000
# 2 -0.002487 0.017737 -0.009188 0.000000 0.000000 0.000000
# 3 -0.002449 -0.009188 0.014293 0.000000 0.000000 0.000000
# 4 0.000000 0.000000 0.000000 0.014043 0.000000 0.000000
# 5 0.000000 0.000000 0.000000 0.000000 0.001392 0.000000
# 6 0.000000 0.000000 0.000000 0.000000 0.000000 0.038198
#
#
# Mechanical properties :
#
#
# Convention : Reuss Voigt Hill
#
# Bulk Modulus (GPa) = 78.67631 80.15030 79.41330
# Shear Modulus (GPa) = 39.34739 175.93362 107.64050
#
# Velocity S-wave (km/s) = 4.48646 9.48681 7.42051
# Velocity P-wave (km/s) = 8.19054 12.68860 10.67908
#
# Compressibility (1/GPa) = 0.01271031
#
# Stress axis : x y z
#
# Youngs Moduli (GPa) = 112.01975 56.37863 69.96432
#
# Poissons Ratio (x) = 0.14019 0.17131
# Poissons Ratio (y) = 0.27854 0.64286
# Poissons Ratio (z) = 0.27428 0.51803
#
# Static dielectric constant tensor:
#      x y z
#    x 3.718380 0.000000 0.000000 
#    y 0.000000 3.739680 0.000000 
#    z 0.000000 0.000000 3.495750 
# 
# 
# High freq. dielectric constant tensor:
#      x y z
#    x 1.770720 0.000000 0.000000 
#    y 0.000000 1.764190 0.000000 
#    z 0.000000 0.000000 1.763780 
# 
# From -- ./inp_files/35874.got.cif
#   From: 2010.03.12/outbox.cif.g09.slc.cpg/sg68_18_cif.got.tgz:35874.got - 2010.04.10 23:14:56.
