data_PCOD8282474
_publ_section_title
;
Structure prediction by ZEFSAII (Michael W. Deem and Ramdas Pophale) SiO2 
 PCOD8282474
Probable space group: C C C A
;
_chemical_formula_sum "Si O2"
_cell_formula_units_Z 104
_cell_length_a 8.366448
_cell_length_b 29.792172
_cell_length_c 21.090544
_cell_angle_alpha 90.000000
_cell_angle_beta 90.000000
_cell_angle_gamma 90.000000
_cell_volume 5256.916328
_symmetry_space_group_name_H-M "C C C A"
_symmetry_group_IT_number 68
_space_group.IT_coordinate_system_code '2'
_symmetry_cell_setting 'orthorhombic'
loop_
_space_group_symop_operation_xyz
x,y,z
-x,1/2-y,z
x,1/2-y,1/2-z
-x,y,1/2-z
-x,-y,-z
x,1/2+y,-z
-x,1/2+y,1/2+z
x,-y,1/2+z
1/2+x,1/2+y,z
1/2-x,-y,z
1/2+x,-y,1/2-z
1/2-x,1/2+y,1/2-z
1/2-x,1/2-y,-z
1/2+x,y,-z
1/2-x,y,1/2+z
1/2+x,1/2-y,1/2+z
loop_
_atom_site_type_symbol
_atom_site_label
_atom_site_fract_x
_atom_site_fract_y
_atom_site_fract_z
Si Si1 0.897114 0.967351 0.686961
Si Si2 0.346696 0.377998 0.934680
Si Si3 0.161570 0.779891 0.883591
Si Si4 0.953437 0.367550 0.319705
Si Si5 0.416557 0.022355 0.559446
Si Si6 0.500000 0.250000 0.105175
Si Si7 0.909798 0.678952 0.008083
O O1 0.852120 0.914325 0.680043
O O2 0.000000 0.973477 0.750000
O O3 0.982018 0.983609 0.622949
O O4 0.750000 0.000000 0.696663
O O5 0.381061 0.376250 0.859007
O O6 0.388049 0.426563 0.961489
O O7 0.172421 0.363774 0.957895
O O8 0.454016 0.339211 0.963234
O O9 0.152393 0.827752 0.848467
O O10 0.326943 0.755635 0.858139
O O11 0.000000 0.750000 0.871028
O O12 0.188668 0.788708 0.959474
O O13 0.000000 0.352355 0.250000
O O14 0.500000 0.000000 0.500000
O O15 0.250000 0.000000 0.575172
O O16 0.486475 0.205395 0.064994
#
# Coordination Sequence:
#
# PCOD8282474 Si02
#       7
#    16  16  16  16  16   8  16
#     4  10  21  41  68  90 117 159 210 256 308 381
#     4  10  21  35  58  85 112 160 193 242 310 361
#     4  11  22  36  61  90 120 167 203 253 319 360
#     4   9  21  41  62  83 118 160 206 243 300 372
#     4  11  22  37  56  89 128 161 200 252 315 377
#     4  12  20  34  58  91 119 148 204 256 296 374
#     4  11  19  35  54  85 119 147 198 252 304 361
#
# _framework density 19.783462
#
# number of rings (size 3 to 8) (size 9 to 14) (size 15 to 20)
#    0.000    1.538    2.308    4.154    0.000    2.769 
#    2.769    0.000    6.769    3.692    0.000    0.000 
#    0.000    0.000    0.000    0.000    0.000    0.000 
#
# Total GULP energy -644226.306824 kJ/mol
# GULP energy per Si atom -12388.967439 kJ/mol
# Density = 1.973843 g / cm^3
# Si number density = 19.783462 Si / 1000 Ang^3
#
#
#
# Elastic Constant Matrix: (Units=GPa)
#
#
# Indices 1 2 3 4 5 6 
#
# 1 106.2087 55.7218 34.0256 0.0000 0.0000 0.0000
# 2 55.7218 121.6201 45.8074 0.0000 0.0000 0.0000
# 3 34.0256 45.8074 104.5828 0.0000 0.0000 0.0000
# 4 0.0000 0.0000 0.0000 29.0508 0.0000 0.0000
# 5 0.0000 0.0000 0.0000 0.0000 22.7342 0.0000
# 6 0.0000 0.0000 0.0000 0.0000 0.0000 37.4208
#
#
#
# Elastic Compliance Matrix: (Units=1/GPa)
#
#
# Indices 1 2 3 4 5 6 
#
# 1 0.012701 -0.005105 -0.001896 0.000000 0.000000 0.000000
# 2 -0.005105 0.011899 -0.003551 0.000000 0.000000 0.000000
# 3 -0.001896 -0.003551 0.011734 0.000000 0.000000 0.000000
# 4 0.000000 0.000000 0.000000 0.034422 0.000000 0.000000
# 5 0.000000 0.000000 0.000000 0.000000 0.043987 0.000000
# 6 0.000000 0.000000 0.000000 0.000000 0.000000 0.026723
#
#
# Mechanical properties :
#
#
# Convention : Reuss Voigt Hill
#
# Bulk Modulus (GPa) = 65.66080 67.05790 66.35935
# Shear Modulus (GPa) = 29.82463 30.96494 30.39479
#
# Velocity S-wave (km/s) = 3.88694 3.96054 3.92391
# Velocity P-wave (km/s) = 7.30795 7.40838 7.35834
#
# Compressibility (1/GPa) = 0.01522979
#
# Stress axis : x y z
#
# Youngs Moduli (GPa) = 78.73248 84.04346 85.22261
#
# Poissons Ratio (x) = 0.42904 0.16161
# Poissons Ratio (y) = 0.40193 0.30260
# Poissons Ratio (z) = 0.14930 0.29841
#
# Static dielectric constant tensor:
#      x y z
#    x 3.981420 0.000000 0.000000 
#    y 0.000000 3.766440 0.000000 
#    z 0.000000 0.000000 3.776650 
# 
# 
# High freq. dielectric constant tensor:
#      x y z
#    x 1.757640 0.000000 0.000000 
#    y 0.000000 1.791070 0.000000 
#    z 0.000000 0.000000 1.757930 
# 
# From -- ./inp_files/36723.got.cif
#   From: 2010.03.12/outbox.cif.g09.slc.cpg/sg68_19_cif.got.tgz:36723.got - 2010.04.10 23:14:56.
