data_PCOD8282216
_publ_section_title
;
Structure prediction by ZEFSAII (Michael W. Deem and Ramdas Pophale) SiO2 
 PCOD8282216
Probable space group: C C C A
;
_chemical_formula_sum "Si O2"
_cell_formula_units_Z 128
_cell_length_a 23.865697
_cell_length_b 23.148357
_cell_length_c 10.601400
_cell_angle_alpha 90.000000
_cell_angle_beta 90.000000
_cell_angle_gamma 90.000000
_cell_volume 5856.761179
_symmetry_space_group_name_H-M "C C C A"
_symmetry_group_IT_number 68
_space_group.IT_coordinate_system_code '2'
_symmetry_cell_setting 'orthorhombic'
loop_
_space_group_symop_operation_xyz
x,y,z
-x,1/2-y,z
x,1/2-y,1/2-z
-x,y,1/2-z
-x,-y,-z
x,1/2+y,-z
-x,1/2+y,1/2+z
x,-y,1/2+z
1/2+x,1/2+y,z
1/2-x,-y,z
1/2+x,-y,1/2-z
1/2-x,1/2+y,1/2-z
1/2-x,1/2-y,-z
1/2+x,y,-z
1/2-x,y,1/2+z
1/2+x,1/2-y,1/2+z
loop_
_atom_site_type_symbol
_atom_site_label
_atom_site_fract_x
_atom_site_fract_y
_atom_site_fract_z
Si Si1 0.248635 0.844975 0.624158
Si Si2 0.058887 0.726405 0.957773
Si Si3 0.638047 0.574855 0.428075
Si Si4 0.865833 0.183446 0.905151
Si Si5 0.374395 0.551367 0.547888
Si Si6 0.058386 0.855735 0.310922
Si Si7 0.739885 0.412116 0.371456
Si Si8 0.627073 0.638223 0.180927
O O1 0.300258 0.797978 0.621627
O O2 0.269100 0.892460 0.726570
O O3 0.239154 0.862049 0.478184
O O4 0.187230 0.827725 0.677694
O O5 0.105226 0.774493 0.993731
O O6 0.044604 0.685930 0.074702
O O7 0.000000 0.750000 0.908664
O O8 0.082000 0.687626 0.844444
O O9 0.636828 0.617038 0.547637
O O10 0.605015 0.515516 0.462992
O O11 0.700644 0.556433 0.385665
O O12 0.610335 0.610705 0.314121
O O13 0.901577 0.182627 0.777699
O O14 0.412730 0.584932 0.647536
O O15 0.311302 0.545837 0.599291
O O16 0.374997 0.584689 0.415712
O O17 0.000000 0.873890 0.250000
#
# Coordination Sequence:
#
# PCOD8282216 Si02
#       8
#    16  16  16  16  16  16  16  16
#     4   9  18  35  57  91 129 162 206 256 322 381
#     4  11  23  42  68  89 114 162 216 268 309 365
#     4  10  22  37  59  93 131 164 198 253 316 389
#     4  11  22  37  64  91 124 160 212 260 319 372
#     4  10  20  36  63  89 124 168 206 249 311 370
#     4  11  22  40  64  93 117 152 213 275 306 354
#     4   9  17  33  56  89 126 169 207 249 303 383
#     4   9  22  40  60  91 132 163 208 255 311 384
#
# _framework density 21.855083
#
# number of rings (size 3 to 8) (size 9 to 14) (size 15 to 20)
#    0.000    2.000    2.500    0.750    1.750    1.000 
#    0.000    6.875    2.750    0.000    0.000    0.000 
#    0.000    0.000    0.000    0.000    0.000    0.000 
#
# Total GULP energy -792938.165135 kJ/mol
# GULP energy per Si atom -12389.658830 kJ/mol
# Density = 2.180534 g / cm^3
# Si number density = 21.855083 Si / 1000 Ang^3
#
#
#
# Elastic Constant Matrix: (Units=GPa)
#
#
# Indices 1 2 3 4 5 6 
#
# 1 70.5545 25.1061 12.4205 0.0000 0.0000 0.0000
# 2 25.1061 79.1641 0.3977 0.0000 0.0000 0.0000
# 3 12.4205 0.3977 61.5160 0.0000 0.0000 0.0000
# 4 0.0000 0.0000 0.0000 14.8404 0.0000 0.0000
# 5 0.0000 0.0000 0.0000 0.0000 25.8855 0.0000
# 6 0.0000 0.0000 0.0000 0.0000 0.0000 20.7304
#
#
#
# Elastic Compliance Matrix: (Units=1/GPa)
#
#
# Indices 1 2 3 4 5 6 
#
# 1 0.016629 -0.005257 -0.003324 0.000000 0.000000 0.000000
# 2 -0.005257 0.014294 0.000969 0.000000 0.000000 0.000000
# 3 -0.003324 0.000969 0.016921 0.000000 0.000000 0.000000
# 4 0.000000 0.000000 0.000000 0.067384 0.000000 0.000000
# 5 0.000000 0.000000 0.000000 0.000000 0.038632 0.000000
# 6 0.000000 0.000000 0.000000 0.000000 0.000000 0.048238
#
#
# Mechanical properties :
#
#
# Convention : Reuss Voigt Hill
#
# Bulk Modulus (GPa) = 30.65506 31.89813 31.27660
# Shear Modulus (GPa) = 21.91108 23.84527 22.87817
#
# Velocity S-wave (km/s) = 3.16976 3.30671 3.23896
# Velocity P-wave (km/s) = 5.23961 5.40426 5.32257
#
# Compressibility (1/GPa) = 0.03262104
#
# Stress axis : x y z
#
# Youngs Moduli (GPa) = 60.13516 69.95769 59.09910
#
# Poissons Ratio (x) = 0.36777 0.19642
# Poissons Ratio (y) = 0.31614 -0.05727
# Poissons Ratio (z) = 0.19986 -0.06779
#
# Static dielectric constant tensor:
#      x y z
#    x 4.069610 0.000000 0.000000 
#    y 0.000000 3.585660 0.000000 
#    z 0.000000 0.000000 3.917810 
# 
# 
# High freq. dielectric constant tensor:
#      x y z
#    x 1.855090 0.000000 0.000000 
#    y 0.000000 1.832850 0.000000 
#    z 0.000000 0.000000 1.865940 
# 
# From -- ./inp_files/16688.got.cif
#   From: 2010.03.12/outbox.cif.g09.slc.cpg/sg68_9_cif.got.tgz:16688.got - 2010.04.10 23:14:56.
