data_PCOD8282400
_publ_section_title
;
Structure prediction by ZEFSAII (Michael W. Deem and Ramdas Pophale) SiO2 
 PCOD8282400
Probable space group: C C C A
;
_chemical_formula_sum "Si O2"
_cell_formula_units_Z 68
_cell_length_a 21.458872
_cell_length_b 8.957452
_cell_length_c 15.001451
_cell_angle_alpha 90.000000
_cell_angle_beta 90.000000
_cell_angle_gamma 90.000000
_cell_volume 2883.531145
_symmetry_space_group_name_H-M "C C C A"
_symmetry_group_IT_number 68
_space_group.IT_coordinate_system_code '2'
_symmetry_cell_setting 'orthorhombic'
loop_
_space_group_symop_operation_xyz
x,y,z
-x,1/2-y,z
x,1/2-y,1/2-z
-x,y,1/2-z
-x,-y,-z
x,1/2+y,-z
-x,1/2+y,1/2+z
x,-y,1/2+z
1/2+x,1/2+y,z
1/2-x,-y,z
1/2+x,-y,1/2-z
1/2-x,1/2+y,1/2-z
1/2-x,1/2-y,-z
1/2+x,y,-z
1/2-x,y,1/2+z
1/2+x,1/2-y,1/2+z
loop_
_atom_site_type_symbol
_atom_site_label
_atom_site_fract_x
_atom_site_fract_y
_atom_site_fract_z
Si Si1 0.605051 0.052352 0.204291
Si Si2 0.854014 0.679799 0.920356
Si Si3 0.146812 0.469230 0.901567
Si Si4 0.728817 0.275910 0.347237
Si Si5 0.500000 0.250000 0.250000
O O1 0.607118 0.050512 0.311580
O O2 0.664558 0.132762 0.159619
O O3 0.542579 0.146548 0.184650
O O4 0.603368 0.887588 0.159969
O O5 0.780748 0.636483 0.904878
O O6 0.852059 0.857267 0.923227
O O7 0.881998 0.613595 0.011845
O O8 0.213868 0.388543 0.887131
O O9 0.759491 0.250000 0.250000
#
# Coordination Sequence:
#
# PCOD8282400 Si02
#       5
#    16  16  16  16   4
#     4  11  24  46  73  97 138 189 240 294 350 423
#     4  12  24  39  70 106 147 179 229 290 360 432
#     4  11  23  41  66 110 145 186 222 282 363 429
#     4  10  20  40  66 103 148 185 226 281 356 425
#     4  12  24  52  82  88 140 190 250 294 372 396
#
# _framework density 23.582198000000002
#
# number of rings (size 3 to 8) (size 9 to 14) (size 15 to 20)
#    0.000    0.941    3.529    5.647    0.000    5.647 
#    0.000    3.529    0.000    0.000    0.000    0.000 
#    0.000    0.000    0.000    0.000    0.000    0.000 
#
# Total GULP energy -421202.553119 kJ/mol
# GULP energy per Si atom -12388.310386 kJ/mol
# Density = 2.352852 g / cm^3
# Si number density = 23.582198 Si / 1000 Ang^3
#
#
#
# Elastic Constant Matrix: (Units=GPa)
#
#
# Indices 1 2 3 4 5 6 
#
# 1 83.2954 48.0577 30.1848 0.0000 0.0000 0.0000
# 2 48.0577 170.2087 63.0800 0.0000 0.0000 0.0000
# 3 30.1848 63.0800 145.4560 0.0000 0.0000 0.0000
# 4 0.0000 0.0000 0.0000 44.0898 0.0000 0.0000
# 5 0.0000 0.0000 0.0000 0.0000 9.1736 0.0000
# 6 0.0000 0.0000 0.0000 0.0000 0.0000 28.8090
#
#
#
# Elastic Compliance Matrix: (Units=1/GPa)
#
#
# Indices 1 2 3 4 5 6 
#
# 1 0.014604 -0.003575 -0.001480 0.000000 0.000000 0.000000
# 2 -0.003575 0.007875 -0.002673 0.000000 0.000000 0.000000
# 3 -0.001480 -0.002673 0.008342 0.000000 0.000000 0.000000
# 4 0.000000 0.000000 0.000000 0.022681 0.000000 0.000000
# 5 0.000000 0.000000 0.000000 0.000000 0.109009 0.000000
# 6 0.000000 0.000000 0.000000 0.000000 0.000000 0.034711
#
#
# Mechanical properties :
#
#
# Convention : Reuss Voigt Hill
#
# Bulk Modulus (GPa) = 65.08761 75.73392 70.41077
# Shear Modulus (GPa) = 22.95675 33.59032 28.27354
#
# Velocity S-wave (km/s) = 3.12345 3.77821 3.46632
# Velocity P-wave (km/s) = 6.37716 7.15666 6.77812
#
# Compressibility (1/GPa) = 0.01536391
#
# Stress axis : x y z
#
# Youngs Moduli (GPa) = 68.47224 126.97979 119.88222
#
# Poissons Ratio (x) = 0.45394 0.17747
# Poissons Ratio (y) = 0.24478 0.32050
# Poissons Ratio (z) = 0.10136 0.33947
#
# Static dielectric constant tensor:
#      x y z
#    x 3.788210 0.000000 0.000000 
#    y 0.000000 4.640760 0.000000 
#    z 0.000000 0.000000 4.556580 
# 
# 
# High freq. dielectric constant tensor:
#      x y z
#    x 1.871240 0.000000 0.000000 
#    y 0.000000 1.958390 0.000000 
#    z 0.000000 0.000000 1.936370 
# 
# From -- ./inp_files/25764.got.cif
#   From: 2010.03.12/outbox.cif.g09.slc.cpg/sg68_13_cif.got.tgz:25764.got - 2010.04.10 23:14:56.
