data_PCOD8282357
_publ_section_title
;
Structure prediction by ZEFSAII (Michael W. Deem and Ramdas Pophale) SiO2 
 PCOD8282357
Probable space group: C C C A
;
_chemical_formula_sum "Si O2"
_cell_formula_units_Z 112
_cell_length_a 14.534804
_cell_length_b 14.536616
_cell_length_c 25.084827
_cell_angle_alpha 90.000000
_cell_angle_beta 90.000000
_cell_angle_gamma 90.000000
_cell_volume 5300.094440
_symmetry_space_group_name_H-M "C C C A"
_symmetry_group_IT_number 68
_space_group.IT_coordinate_system_code '2'
_symmetry_cell_setting 'orthorhombic'
loop_
_space_group_symop_operation_xyz
x,y,z
-x,1/2-y,z
x,1/2-y,1/2-z
-x,y,1/2-z
-x,-y,-z
x,1/2+y,-z
-x,1/2+y,1/2+z
x,-y,1/2+z
1/2+x,1/2+y,z
1/2-x,-y,z
1/2+x,-y,1/2-z
1/2-x,1/2+y,1/2-z
1/2-x,1/2-y,-z
1/2+x,y,-z
1/2-x,y,1/2+z
1/2+x,1/2-y,1/2+z
loop_
_atom_site_type_symbol
_atom_site_label
_atom_site_fract_x
_atom_site_fract_y
_atom_site_fract_z
Si Si1 0.899814 0.120819 0.745450
Si Si2 0.804005 0.365558 0.112454
Si Si3 0.219452 0.290205 0.196803
Si Si4 0.125946 0.948005 0.138701
Si Si5 0.951520 0.973334 0.073369
Si Si6 0.850928 0.474667 0.328017
Si Si7 0.452410 0.350390 0.975312
O O1 0.825817 0.180405 0.711279
O O2 0.860565 0.100776 0.804242
O O3 0.000000 0.170063 0.750000
O O4 0.919887 0.026248 0.712687
O O5 0.781132 0.278324 0.147914
O O6 0.862264 0.441641 0.145615
O O7 0.704494 0.409523 0.098369
O O8 0.860219 0.337548 0.059602
O O9 0.174426 0.250000 0.250000
O O10 0.145194 0.365747 0.178292
O O11 0.029939 0.928205 0.110362
O O12 0.865037 0.993946 0.111124
O O13 0.922186 0.893907 0.031936
O O14 0.979685 0.071975 0.048627
O O15 0.750000 0.500000 0.308122
O O16 0.500000 0.250000 0.981136
#
# Coordination Sequence:
#
# PCOD8282357 Si02
#       7
#    16  16  16  16  16  16  16
#     4  11  21  37  61  90 133 173 208 257 322 397
#     4  10  21  39  65  91 127 170 215 266 331 393
#     4  11  21  36  60  96 133 171 212 265 325 400
#     4  10  20  39  65  91 125 172 211 259 328 409
#     4  10  21  43  64  93 125 168 227 275 340 395
#     4  10  22  38  61  88 130 175 208 265 322 394
#     4  10  22  43  68  91 125 167 221 292 333 392
#
# _framework density 21.131699000000001
#
# number of rings (size 3 to 8) (size 9 to 14) (size 15 to 20)
#    0.000    1.714    2.857    1.714    4.000    0.286 
#   12.857    0.714    0.000    0.000    0.000    0.000 
#    0.000    0.000    0.000    0.000    0.000    0.000 
#
# Total GULP energy -693834.734544 kJ/mol
# GULP energy per Si atom -12389.905974 kJ/mol
# Density = 2.108360 g / cm^3
# Si number density = 21.131699 Si / 1000 Ang^3
#
#
#
# Elastic Constant Matrix: (Units=GPa)
#
#
# Indices 1 2 3 4 5 6 
#
# 1 76.4184 43.1045 52.7684 0.0000 0.0000 0.0000
# 2 43.1045 136.1495 67.6902 0.0000 0.0000 0.0000
# 3 52.7684 67.6902 134.4409 0.0000 0.0000 0.0000
# 4 0.0000 0.0000 0.0000 42.8790 0.0000 0.0000
# 5 0.0000 0.0000 0.0000 0.0000 39.0573 0.0000
# 6 0.0000 0.0000 0.0000 0.0000 0.0000 19.3998
#
#
#
# Elastic Compliance Matrix: (Units=1/GPa)
#
#
# Indices 1 2 3 4 5 6 
#
# 1 0.018858 -0.003055 -0.005864 0.000000 0.000000 0.000000
# 2 -0.003055 0.010292 -0.003983 0.000000 0.000000 0.000000
# 3 -0.005864 -0.003983 0.011745 0.000000 0.000000 0.000000
# 4 0.000000 0.000000 0.000000 0.023321 0.000000 0.000000
# 5 0.000000 0.000000 0.000000 0.000000 0.025603 0.000000
# 6 0.000000 0.000000 0.000000 0.000000 0.000000 0.051547
#
#
# Mechanical properties :
#
#
# Convention : Reuss Voigt Hill
#
# Bulk Modulus (GPa) = 66.26002 74.90388 70.58195
# Shear Modulus (GPa) = 29.03578 32.49695 30.76637
#
# Velocity S-wave (km/s) = 3.71082 3.92577 3.81981
# Velocity P-wave (km/s) = 7.05579 7.48813 7.27517
#
# Compressibility (1/GPa) = 0.01509206
#
# Stress axis : x y z
#
# Youngs Moduli (GPa) = 53.02774 97.15942 85.14198
#
# Poissons Ratio (x) = 0.29684 0.49924
# Poissons Ratio (y) = 0.16201 0.33912
# Poissons Ratio (z) = 0.31093 0.38698
#
# Static dielectric constant tensor:
#      x y z
#    x 3.759500 0.000000 0.000000 
#    y 0.000000 4.241650 0.000000 
#    z 0.000000 0.000000 3.815280 
# 
# 
# High freq. dielectric constant tensor:
#      x y z
#    x 1.817470 0.000000 0.000000 
#    y 0.000000 1.839030 0.000000 
#    z 0.000000 0.000000 1.821090 
# 
# From -- ./inp_files/50987.got.cif
#   From: 2010.03.12/outbox.cif.g09.slc.cpg/sg68_26_cif.got.tgz:50987.got - 2010.04.10 23:14:56.
