data_PCOD8282447
_publ_section_title
;
Structure prediction by ZEFSAII (Michael W. Deem and Ramdas Pophale) SiO2 
 PCOD8282447
Probable space group: C C C A
;
_chemical_formula_sum "Si O2"
_cell_formula_units_Z 96
_cell_length_a 15.106638
_cell_length_b 14.357562
_cell_length_c 22.625431
_cell_angle_alpha 90.000000
_cell_angle_beta 90.000000
_cell_angle_gamma 90.000000
_cell_volume 4907.331356
_symmetry_space_group_name_H-M "C C C A"
_symmetry_group_IT_number 68
_space_group.IT_coordinate_system_code '2'
_symmetry_cell_setting 'orthorhombic'
loop_
_space_group_symop_operation_xyz
x,y,z
-x,1/2-y,z
x,1/2-y,1/2-z
-x,y,1/2-z
-x,-y,-z
x,1/2+y,-z
-x,1/2+y,1/2+z
x,-y,1/2+z
1/2+x,1/2+y,z
1/2-x,-y,z
1/2+x,-y,1/2-z
1/2-x,1/2+y,1/2-z
1/2-x,1/2-y,-z
1/2+x,y,-z
1/2-x,y,1/2+z
1/2+x,1/2-y,1/2+z
loop_
_atom_site_type_symbol
_atom_site_label
_atom_site_fract_x
_atom_site_fract_y
_atom_site_fract_z
Si Si1 0.603511 0.246769 0.819812
Si Si2 0.531056 0.645979 0.513327
Si Si3 0.728466 0.142171 0.496100
Si Si4 0.824809 0.567932 0.616365
Si Si5 0.815180 0.425442 0.373611
Si Si6 0.989496 0.516427 0.911063
O O1 0.500000 0.250000 0.842569
O O2 0.601980 0.250000 0.750000
O O3 0.656753 0.157395 0.843467
O O4 0.668287 0.329327 0.840366
O O5 0.500000 0.750000 0.523944
O O6 0.632236 0.633910 0.533884
O O7 0.470438 0.574788 0.549799
O O8 0.518390 0.615941 0.445459
O O9 0.750000 0.250000 0.500000
O O10 0.799032 0.093337 0.451972
O O11 0.724593 0.093932 0.560482
O O12 0.750000 0.500000 0.644062
O O13 0.915215 0.508911 0.618659
O O14 0.750000 0.500000 0.342106
O O15 0.908139 0.480340 0.366783
#
# Coordination Sequence:
#
# PCOD8282447 Si02
#       6
#    16  16  16  16  16  16
#     4  11  25  46  70  90 117 169 227 266 311 367
#     4  10  21  32  49  77 128 174 201 238 303 379
#     4  11  21  32  55  89 125 162 197 240 309 389
#     4  12  22  39  63  94 127 163 208 258 317 376
#     4  11  24  39  63  94 126 163 205 262 317 376
#     4  10  22  36  52  86 126 167 207 252 304 373
#
# _framework density 19.562567999999999
#
# number of rings (size 3 to 8) (size 9 to 14) (size 15 to 20)
#    0.000    1.167    5.000    1.500    9.333    0.667 
#    0.000    0.000    0.000    0.000    0.000    1.167 
#    0.000    0.000    0.000    0.000    0.000    0.000 
#
# Total GULP energy -594709.851301 kJ/mol
# GULP energy per Si atom -12389.788569 kJ/mol
# Density = 1.951804 g / cm^3
# Si number density = 19.562568 Si / 1000 Ang^3
#
#
#
# Elastic Constant Matrix: (Units=GPa)
#
#
# Indices 1 2 3 4 5 6 
#
# 1 132.5796 56.9627 25.6353 0.0000 0.0000 0.0000
# 2 56.9627 140.2831 27.2274 0.0000 0.0000 0.0000
# 3 25.6353 27.2274 57.7752 0.0000 0.0000 0.0000
# 4 0.0000 0.0000 0.0000 5.7411 0.0000 0.0000
# 5 0.0000 0.0000 0.0000 0.0000 55.4109 0.0000
# 6 0.0000 0.0000 0.0000 0.0000 0.0000 39.4066
#
#
#
# Elastic Compliance Matrix: (Units=1/GPa)
#
#
# Indices 1 2 3 4 5 6 
#
# 1 0.009488 -0.003341 -0.002635 0.000000 0.000000 0.000000
# 2 -0.003341 0.009023 -0.002770 0.000000 0.000000 0.000000
# 3 -0.002635 -0.002770 0.019783 0.000000 0.000000 0.000000
# 4 0.000000 0.000000 0.000000 0.174184 0.000000 0.000000
# 5 0.000000 0.000000 0.000000 0.000000 0.018047 0.000000
# 6 0.000000 0.000000 0.000000 0.000000 0.000000 0.025376
#
#
# Mechanical properties :
#
#
# Convention : Reuss Voigt Hill
#
# Bulk Modulus (GPa) = 48.07351 61.14321 54.60836
# Shear Modulus (GPa) = 17.83638 34.83255 26.33446
#
# Velocity S-wave (km/s) = 3.02281 4.22426 3.67299
# Velocity P-wave (km/s) = 6.06719 7.42398 6.77961
#
# Compressibility (1/GPa) = 0.02080148
#
# Stress axis : x y z
#
# Youngs Moduli (GPa) = 105.40008 110.83231 50.54861
#
# Poissons Ratio (x) = 0.37030 0.13321
# Poissons Ratio (y) = 0.35215 0.14000
# Poissons Ratio (z) = 0.27775 0.30696
#
# Static dielectric constant tensor:
#      x y z
#    x 3.975730 0.000000 0.000000 
#    y 0.000000 3.700460 0.000000 
#    z 0.000000 0.000000 3.104650 
# 
# 
# High freq. dielectric constant tensor:
#      x y z
#    x 1.780440 0.000000 0.000000 
#    y 0.000000 1.778980 0.000000 
#    z 0.000000 0.000000 1.700760 
# 
# From -- ./inp_files/38555.got.cif
#   From: 2010.03.12/outbox.cif.g09.slc.cpg/sg68_20_cif.got.tgz:38555.got - 2010.04.10 23:14:56.
