data_PCOD8282757
_publ_section_title
;
Structure prediction by ZEFSAII (Michael W. Deem and Ramdas Pophale) SiO2 
 PCOD8282757
Probable space group: C C C A
;
_chemical_formula_sum "Si O2"
_cell_formula_units_Z 88
_cell_length_a 21.993720
_cell_length_b 10.970217
_cell_length_c 16.628344
_cell_angle_alpha 90.000000
_cell_angle_beta 90.000000
_cell_angle_gamma 90.000000
_cell_volume 4012.018349
_symmetry_space_group_name_H-M "C C C A"
_symmetry_group_IT_number 68
_space_group.IT_coordinate_system_code '2'
_symmetry_cell_setting 'orthorhombic'
loop_
_space_group_symop_operation_xyz
x,y,z
-x,1/2-y,z
x,1/2-y,1/2-z
-x,y,1/2-z
-x,-y,-z
x,1/2+y,-z
-x,1/2+y,1/2+z
x,-y,1/2+z
1/2+x,1/2+y,z
1/2-x,-y,z
1/2+x,-y,1/2-z
1/2-x,1/2+y,1/2-z
1/2-x,1/2-y,-z
1/2+x,y,-z
1/2-x,y,1/2+z
1/2+x,1/2-y,1/2+z
loop_
_atom_site_type_symbol
_atom_site_label
_atom_site_fract_x
_atom_site_fract_y
_atom_site_fract_z
Si Si1 0.250000 0.500000 0.920842
Si Si2 0.678492 0.801118 0.339803
Si Si3 0.565313 0.506849 0.850083
Si Si4 0.572759 0.975671 0.329086
Si Si5 0.349378 0.123979 0.969535
Si Si6 0.568141 0.266189 0.090192
O O1 0.266672 0.392116 0.859503
O O2 0.305935 0.540002 0.976883
O O3 0.681999 0.750000 0.250000
O O4 0.688711 0.686953 0.398921
O O5 0.615214 0.869162 0.364538
O O6 0.591765 0.466154 0.764748
O O7 0.497213 0.451861 0.850869
O O8 0.598872 0.459189 0.929038
O O9 0.572927 0.652756 0.849337
O O10 0.585035 0.110716 0.361887
O O11 0.382791 0.232406 0.018707
O O12 0.500000 0.250000 0.054060
#
# Coordination Sequence:
#
# PCOD8282757 Si02
#       6
#     8  16  16  16  16  16
#     4  12  28  52  68  98 140 190 244 298 338 412
#     4  12  26  48  70 102 135 183 238 287 350 417
#     4  10  22  40  70 102 140 181 220 285 351 419
#     4  10  21  44  67 103 140 175 230 280 349 420
#     4  12  25  44  70 103 140 180 234 288 354 414
#     4  10  22  38  67 100 139 181 225 279 345 419
#
# _framework density 21.934097000000001
#
# number of rings (size 3 to 8) (size 9 to 14) (size 15 to 20)
#    0.000    1.091    3.636    2.182    2.545    4.364 
#    3.273    0.000    0.000    0.000    0.000    0.000 
#    0.000    0.000    0.000    0.000    0.000    0.000 
#
# Total GULP energy -545224.276141 kJ/mol
# GULP energy per Si atom -12391.460821 kJ/mol
# Density = 2.188417 g / cm^3
# Si number density = 21.934097 Si / 1000 Ang^3
#
#
#
# Elastic Constant Matrix: (Units=GPa)
#
#
# Indices 1 2 3 4 5 6 
#
# 1 89.0340 32.8346 61.3148 0.0000 0.0000 0.0000
# 2 32.8346 82.0575 40.5613 0.0000 0.0000 0.0000
# 3 61.3148 40.5613 103.2150 0.0000 0.0000 0.0000
# 4 0.0000 0.0000 0.0000 39.2486 0.0000 0.0000
# 5 0.0000 0.0000 0.0000 0.0000 34.5964 0.0000
# 6 0.0000 0.0000 0.0000 0.0000 0.0000 39.1080
#
#
#
# Elastic Compliance Matrix: (Units=1/GPa)
#
#
# Indices 1 2 3 4 5 6 
#
# 1 0.019435 -0.002569 -0.010536 0.000000 0.000000 0.000000
# 2 -0.002569 0.015464 -0.004551 0.000000 0.000000 0.000000
# 3 -0.010536 -0.004551 0.017736 0.000000 0.000000 0.000000
# 4 0.000000 0.000000 0.000000 0.025479 0.000000 0.000000
# 5 0.000000 0.000000 0.000000 0.000000 0.028905 0.000000
# 6 0.000000 0.000000 0.000000 0.000000 0.000000 0.025570
#
#
# Mechanical properties :
#
#
# Convention : Reuss Voigt Hill
#
# Bulk Modulus (GPa) = 57.72554 60.41422 59.06988
# Shear Modulus (GPa) = 28.78971 31.89698 30.34334
#
# Velocity S-wave (km/s) = 3.62685 3.81756 3.72343
# Velocity P-wave (km/s) = 6.62673 6.85821 6.74346
#
# Compressibility (1/GPa) = 0.01732336
#
# Stress axis : x y z
#
# Youngs Moduli (GPa) = 51.45485 64.66610 56.38353
#
# Poissons Ratio (x) = 0.16611 0.59403
# Poissons Ratio (y) = 0.13217 0.25661
# Poissons Ratio (z) = 0.54211 0.29430
#
# Static dielectric constant tensor:
#      x y z
#    x 3.876370 0.000000 0.000000 
#    y 0.000000 3.986830 0.000000 
#    z 0.000000 0.000000 4.044640 
# 
# 
# High freq. dielectric constant tensor:
#      x y z
#    x 1.850180 0.000000 0.000000 
#    y 0.000000 1.869450 0.000000 
#    z 0.000000 0.000000 1.871050 
# 
# From -- ./inp_files/25283.got.cif
#   From: 2010.03.12/outbox.cif.g09.slc.cpg/sg68_13_cif.got.tgz:25283.got - 2010.04.10 23:14:56.
