data_PCOD8282042
_publ_section_title
;
Structure prediction by ZEFSAII (Michael W. Deem and Ramdas Pophale) SiO2 
 PCOD8282042
Probable space group: C C C A
;
_chemical_formula_sum "Si O2"
_cell_formula_units_Z 88
_cell_length_a 17.937168
_cell_length_b 13.067388
_cell_length_c 19.242274
_cell_angle_alpha 90.000000
_cell_angle_beta 90.000000
_cell_angle_gamma 90.000000
_cell_volume 4510.233815
_symmetry_space_group_name_H-M "C C C A"
_symmetry_group_IT_number 68
_space_group.IT_coordinate_system_code '2'
_symmetry_cell_setting 'orthorhombic'
loop_
_space_group_symop_operation_xyz
x,y,z
-x,1/2-y,z
x,1/2-y,1/2-z
-x,y,1/2-z
-x,-y,-z
x,1/2+y,-z
-x,1/2+y,1/2+z
x,-y,1/2+z
1/2+x,1/2+y,z
1/2-x,-y,z
1/2+x,-y,1/2-z
1/2-x,1/2+y,1/2-z
1/2-x,1/2-y,-z
1/2+x,y,-z
1/2-x,y,1/2+z
1/2+x,1/2-y,1/2+z
loop_
_atom_site_type_symbol
_atom_site_label
_atom_site_fract_x
_atom_site_fract_y
_atom_site_fract_z
Si Si1 0.807842 0.589713 0.879015
Si Si2 0.000000 0.250000 0.457086
Si Si3 0.912595 0.131469 0.245554
Si Si4 0.111045 0.898379 0.024831
Si Si5 0.744279 0.708661 0.576153
Si Si6 0.112930 0.095829 0.105388
O O1 0.750000 0.500000 0.862855
O O2 0.875407 0.584400 0.823586
O O3 0.763052 0.697826 0.871377
O O4 0.842595 0.575551 0.955360
O O5 0.039545 0.169261 0.507217
O O6 0.059925 0.305042 0.407095
O O7 0.891426 0.250000 0.250000
O O8 0.881359 0.072271 0.312927
O O9 0.000000 0.111937 0.250000
O O10 0.161530 0.839093 0.082763
O O11 0.081281 0.001459 0.060873
O O12 0.750000 0.750000 0.500000
O O13 0.803328 0.617497 0.581690
#
# Coordination Sequence:
#
# PCOD8282042 Si02
#       6
#    16   8  16  16  16  16
#     4  11  22  38  64  93 126 167 206 262 320 372
#     4  12  22  38  61  96 131 158 214 264 320 368
#     4  11  22  41  63  91 128 161 208 265 312 371
#     4  11  23  39  63  95 125 166 205 263 315 380
#     4  10  19  39  58  86 124 155 204 257 305 367
#     4  12  22  39  64  91 123 167 209 256 315 374
#
# _framework density 19.511182999999999
#
# number of rings (size 3 to 8) (size 9 to 14) (size 15 to 20)
#    0.000    0.909    5.455    5.455    0.000    1.455 
#    0.000    0.000    0.000    0.000    0.000    0.000 
#    0.000    0.000    0.000    0.000    0.000    0.000 
#
# Total GULP energy -545573.972722 kJ/mol
# GULP energy per Si atom -12399.408471 kJ/mol
# Density = 1.946677 g / cm^3
# Si number density = 19.511183 Si / 1000 Ang^3
#
#
#
# Elastic Constant Matrix: (Units=GPa)
#
#
# Indices 1 2 3 4 5 6 
#
# 1 77.4369 23.8934 33.9407 0.0000 0.0000 0.0000
# 2 23.8934 88.1484 38.5577 0.0000 0.0000 0.0000
# 3 33.9407 38.5577 108.6000 0.0000 0.0000 0.0000
# 4 0.0000 0.0000 0.0000 19.6650 0.0000 0.0000
# 5 0.0000 0.0000 0.0000 0.0000 16.5607 0.0000
# 6 0.0000 0.0000 0.0000 0.0000 0.0000 36.6195
#
#
#
# Elastic Compliance Matrix: (Units=1/GPa)
#
#
# Indices 1 2 3 4 5 6 
#
# 1 0.015397 -0.002449 -0.003943 0.000000 0.000000 0.000000
# 2 -0.002449 0.013820 -0.004141 0.000000 0.000000 0.000000
# 3 -0.003943 -0.004141 0.011911 0.000000 0.000000 0.000000
# 4 0.000000 0.000000 0.000000 0.050852 0.000000 0.000000
# 5 0.000000 0.000000 0.000000 0.000000 0.060384 0.000000
# 6 0.000000 0.000000 0.000000 0.000000 0.000000 0.027308
#
#
# Mechanical properties :
#
#
# Convention : Reuss Voigt Hill
#
# Bulk Modulus (GPa) = 49.84539 51.88546 50.86543
# Shear Modulus (GPa) = 24.10516 26.42195 25.26355
#
# Velocity S-wave (km/s) = 3.51871 3.68393 3.60227
# Velocity P-wave (km/s) = 6.48930 6.68921 6.59001
#
# Compressibility (1/GPa) = 0.02006204
#
# Stress axis : x y z
#
# Youngs Moduli (GPa) = 64.94572 72.36002 83.95871
#
# Poissons Ratio (x) = 0.17721 0.33102
# Poissons Ratio (y) = 0.15905 0.34769
# Poissons Ratio (z) = 0.25606 0.29966
#
# Static dielectric constant tensor:
#      x y z
#    x 3.787080 0.000000 0.000000 
#    y 0.000000 3.771190 0.000000 
#    z 0.000000 0.000000 3.519110 
# 
# 
# High freq. dielectric constant tensor:
#      x y z
#    x 1.763860 0.000000 0.000000 
#    y 0.000000 1.752800 0.000000 
#    z 0.000000 0.000000 1.745090 
# 
# From -- ./inp_files/31866.got.cif
#   From: 2010.03.12/outbox.cif.g09.slc.cpg/sg68_16_cif.got.tgz:31866.got - 2010.04.10 23:14:56.
