data_PCOD8282649
_publ_section_title
;
Structure prediction by ZEFSAII (Michael W. Deem and Ramdas Pophale) SiO2 
 PCOD8282649
Probable space group: C C C A
;
_chemical_formula_sum "Si O2"
_cell_formula_units_Z 68
_cell_length_a 16.973004
_cell_length_b 20.300302
_cell_length_c 8.939759
_cell_angle_alpha 90.000000
_cell_angle_beta 90.000000
_cell_angle_gamma 90.000000
_cell_volume 3080.257499
_symmetry_space_group_name_H-M "C C C A"
_symmetry_group_IT_number 68
_space_group.IT_coordinate_system_code '2'
_symmetry_cell_setting 'orthorhombic'
loop_
_space_group_symop_operation_xyz
x,y,z
-x,1/2-y,z
x,1/2-y,1/2-z
-x,y,1/2-z
-x,-y,-z
x,1/2+y,-z
-x,1/2+y,1/2+z
x,-y,1/2+z
1/2+x,1/2+y,z
1/2-x,-y,z
1/2+x,-y,1/2-z
1/2-x,1/2+y,1/2-z
1/2-x,1/2-y,-z
1/2+x,y,-z
1/2-x,y,1/2+z
1/2+x,1/2-y,1/2+z
loop_
_atom_site_type_symbol
_atom_site_label
_atom_site_fract_x
_atom_site_fract_y
_atom_site_fract_z
Si Si1 0.636494 0.831402 0.134498
Si Si2 0.256919 0.143804 0.597668
Si Si3 0.554217 0.465861 0.877819
Si Si4 0.000000 0.250000 0.250000
Si Si5 0.311685 0.443079 0.162402
O O1 0.674902 0.821374 0.301457
O O2 0.615612 0.906867 0.083017
O O3 0.555058 0.791371 0.136033
O O4 0.702627 0.809176 0.010829
O O5 0.301148 0.087997 0.501805
O O6 0.196199 0.112904 0.714437
O O7 0.500000 0.434498 0.750000
O O8 0.602121 0.527855 0.815621
O O9 0.500000 0.500000 0.000000
O O10 0.250000 0.500000 0.192411
#
# Coordination Sequence:
#
# PCOD8282649 Si02
#       5
#    16  16  16   4  16
#     4  11  24  43  67  89 127 172 220 270 315 380
#     4  10  21  39  66  95 124 168 215 257 324 386
#     4  12  23  34  57  97 135 165 199 254 338 386
#     4  12  28  48  64  90 132 170 228 272 320 376
#     4  11  20  33  62  95 135 159 199 254 321 403
#
# _framework density 22.076076
#
# number of rings (size 3 to 8) (size 9 to 14) (size 15 to 20)
#    0.000    0.941    5.882    3.529    0.000    0.941 
#    0.000    0.000    0.000    5.647    0.000    0.000 
#    0.000    0.000    0.000    0.000    0.000    0.000 
#
# Total GULP energy -421235.786049 kJ/mol
# GULP energy per Si atom -12389.287825 kJ/mol
# Density = 2.202583 g / cm^3
# Si number density = 22.076076 Si / 1000 Ang^3
#
#
#
# Elastic Constant Matrix: (Units=GPa)
#
#
# Indices 1 2 3 4 5 6 
#
# 1 131.8999 34.6434 43.5544 0.0000 0.0000 0.0000
# 2 34.6434 32.9903 16.9339 0.0000 0.0000 0.0000
# 3 43.5544 16.9339 109.4362 0.0000 0.0000 0.0000
# 4 0.0000 0.0000 0.0000 22.3954 0.0000 0.0000
# 5 0.0000 0.0000 0.0000 0.0000 34.7932 0.0000
# 6 0.0000 0.0000 0.0000 0.0000 0.0000 54.1756
#
#
#
# Elastic Compliance Matrix: (Units=1/GPa)
#
#
# Indices 1 2 3 4 5 6 
#
# 1 0.011245 -0.010332 -0.002877 0.000000 0.000000 0.000000
# 2 -0.010332 0.042420 -0.002452 0.000000 0.000000 0.000000
# 3 -0.002877 -0.002452 0.010662 0.000000 0.000000 0.000000
# 4 0.000000 0.000000 0.000000 0.044652 0.000000 0.000000
# 5 0.000000 0.000000 0.000000 0.000000 0.028741 0.000000
# 6 0.000000 0.000000 0.000000 0.000000 0.000000 0.018458
#
#
# Mechanical properties :
#
#
# Convention : Reuss Voigt Hill
#
# Bulk Modulus (GPa) = 30.29745 51.62109 40.95927
# Shear Modulus (GPa) = 25.18863 34.21918 29.70390
#
# Velocity S-wave (km/s) = 3.38152 3.94135 3.67212
# Velocity P-wave (km/s) = 5.38518 6.64427 6.04758
#
# Compressibility (1/GPa) = 0.03300608
#
# Stress axis : x y z
#
# Youngs Moduli (GPa) = 88.92766 23.57367 93.79068
#
# Poissons Ratio (x) = 0.24356 0.26981
# Poissons Ratio (y) = 0.91880 0.22997
# Poissons Ratio (z) = 0.25582 0.05780
#
# Static dielectric constant tensor:
#      x y z
#    x 4.075630 0.000000 0.000000 
#    y 0.000000 3.676010 0.000000 
#    z 0.000000 0.000000 4.106940 
# 
# 
# High freq. dielectric constant tensor:
#      x y z
#    x 1.887180 0.000000 0.000000 
#    y 0.000000 1.847530 0.000000 
#    z 0.000000 0.000000 1.863430 
# 
# From -- ./inp_files/5917.got.cif
#   From: 2010.03.12/outbox.cif.g09.slc.cpg/sg68_3_cif.got.tgz:5917.got - 2010.04.10 23:14:56.
