data_PCOD8282465
_publ_section_title
;
Structure prediction by ZEFSAII (Michael W. Deem and Ramdas Pophale) SiO2 
 PCOD8282465
Probable space group: C C C A
;
_chemical_formula_sum "Si O2"
_cell_formula_units_Z 112
_cell_length_a 24.673793
_cell_length_b 10.712660
_cell_length_c 22.309613
_cell_angle_alpha 90.000000
_cell_angle_beta 90.000000
_cell_angle_gamma 90.000000
_cell_volume 5896.920531
_symmetry_space_group_name_H-M "C C C A"
_symmetry_group_IT_number 68
_space_group.IT_coordinate_system_code '2'
_symmetry_cell_setting 'orthorhombic'
loop_
_space_group_symop_operation_xyz
x,y,z
-x,1/2-y,z
x,1/2-y,1/2-z
-x,y,1/2-z
-x,-y,-z
x,1/2+y,-z
-x,1/2+y,1/2+z
x,-y,1/2+z
1/2+x,1/2+y,z
1/2-x,-y,z
1/2+x,-y,1/2-z
1/2-x,1/2+y,1/2-z
1/2-x,1/2-y,-z
1/2+x,y,-z
1/2-x,y,1/2+z
1/2+x,1/2-y,1/2+z
loop_
_atom_site_type_symbol
_atom_site_label
_atom_site_fract_x
_atom_site_fract_y
_atom_site_fract_z
Si Si1 0.628606 0.511519 0.831077
Si Si2 0.687830 0.497365 0.107264
Si Si3 0.861391 0.634939 0.212374
Si Si4 0.356524 0.798584 0.526569
Si Si5 0.936937 0.726578 0.376719
Si Si6 0.664079 0.225761 0.608683
Si Si7 0.222686 0.378362 0.590181
O O1 0.624463 0.524361 0.759042
O O2 0.576741 0.582385 0.859951
O O3 0.630519 0.363771 0.846000
O O4 0.682696 0.580915 0.856077
O O5 0.750000 0.500000 0.089105
O O6 0.683834 0.410196 0.165887
O O7 0.657136 0.435904 0.051196
O O8 0.657357 0.627634 0.121665
O O9 0.836798 0.750000 0.250000
O O10 0.913609 0.681491 0.174803
O O11 0.412067 0.754396 0.557741
O O12 0.361473 0.808392 0.455640
O O13 0.308507 0.700029 0.540063
O O14 0.000000 0.750000 0.380709
O O15 0.728289 0.203699 0.616011
O O16 0.250000 0.500000 0.559202
#
# Coordination Sequence:
#
# PCOD8282465 Si02
#       7
#    16  16  16  16  16  16  16
#     4   9  20  35  54  82 116 144 191 244 289 340
#     4  11  23  33  53  84 115 159 199 223 278 351
#     4   9  20  39  57  79 114 139 193 252 277 336
#     4  10  21  35  53  82 119 145 195 244 273 347
#     4   9  19  39  66  87 102 143 199 252 303 341
#     4  11  22  32  54  81 118 163 183 225 294 349
#     4   9  18  31  52  79 110 155 194 229 275 332
#
# _framework density 18.992963
#
# number of rings (size 3 to 8) (size 9 to 14) (size 15 to 20)
#    0.000    2.286    1.429    1.286    6.000    4.857 
#    0.000    0.714    0.000    0.000    0.000    8.000 
#    0.000    0.000    0.000    0.000    0.000    0.000 
#
# Total GULP energy -694119.952259 kJ/mol
# GULP energy per Si atom -12394.999147 kJ/mol
# Density = 1.894973 g / cm^3
# Si number density = 18.992963 Si / 1000 Ang^3
#
#
#
# Elastic Constant Matrix: (Units=GPa)
#
#
# Indices 1 2 3 4 5 6 
#
# 1 74.9305 25.2632 15.3942 0.0000 0.0000 0.0000
# 2 25.2632 120.2632 27.0891 0.0000 0.0000 0.0000
# 3 15.3942 27.0891 83.2121 0.0000 0.0000 0.0000
# 4 0.0000 0.0000 0.0000 25.5446 0.0000 0.0000
# 5 0.0000 0.0000 0.0000 0.0000 12.1485 0.0000
# 6 0.0000 0.0000 0.0000 0.0000 0.0000 19.7824
#
#
#
# Elastic Compliance Matrix: (Units=1/GPa)
#
#
# Indices 1 2 3 4 5 6 
#
# 1 0.014619 -0.002657 -0.001840 0.000000 0.000000 0.000000
# 2 -0.002657 0.009456 -0.002587 0.000000 0.000000 0.000000
# 3 -0.001840 -0.002587 0.013200 0.000000 0.000000 0.000000
# 4 0.000000 0.000000 0.000000 0.039147 0.000000 0.000000
# 5 0.000000 0.000000 0.000000 0.000000 0.082315 0.000000
# 6 0.000000 0.000000 0.000000 0.000000 0.000000 0.050550
#
#
# Mechanical properties :
#
#
# Convention : Reuss Voigt Hill
#
# Bulk Modulus (GPa) = 43.27351 45.98874 44.63113
# Shear Modulus (GPa) = 21.63037 25.53905 23.58471
#
# Velocity S-wave (km/s) = 3.37836 3.67094 3.52768
# Velocity P-wave (km/s) = 6.16857 6.49876 6.33581
#
# Compressibility (1/GPa) = 0.02310882
#
# Stress axis : x y z
#
# Youngs Moduli (GPa) = 68.40246 105.75474 75.75788
#
# Poissons Ratio (x) = 0.28095 0.13937
# Poissons Ratio (y) = 0.18172 0.19597
# Poissons Ratio (z) = 0.12584 0.27357
#
# Static dielectric constant tensor:
#      x y z
#    x 3.068960 0.000000 0.000000 
#    y 0.000000 3.861960 0.000000 
#    z 0.000000 0.000000 3.453630 
# 
# 
# High freq. dielectric constant tensor:
#      x y z
#    x 1.691630 0.000000 0.000000 
#    y 0.000000 1.747650 0.000000 
#    z 0.000000 0.000000 1.734270 
# 
# From -- ./inp_files/40889.got.cif
#   From: 2010.03.12/outbox.cif.g09.slc.cpg/sg68_21_cif.got.tgz:40889.got - 2010.04.10 23:14:56.
