data_PCOD8282596
_publ_section_title
;
Structure prediction by ZEFSAII (Michael W. Deem and Ramdas Pophale) SiO2 
 PCOD8282596
Probable space group: C C C A
;
_chemical_formula_sum "Si O2"
_cell_formula_units_Z 56
_cell_length_a 17.957409
_cell_length_b 12.640816
_cell_length_c 12.119478
_cell_angle_alpha 90.000000
_cell_angle_beta 90.000000
_cell_angle_gamma 90.000000
_cell_volume 2751.076700
_symmetry_space_group_name_H-M "C C C A"
_symmetry_group_IT_number 68
_space_group.IT_coordinate_system_code '2'
_symmetry_cell_setting 'orthorhombic'
loop_
_space_group_symop_operation_xyz
x,y,z
-x,1/2-y,z
x,1/2-y,1/2-z
-x,y,1/2-z
-x,-y,-z
x,1/2+y,-z
-x,1/2+y,1/2+z
x,-y,1/2+z
1/2+x,1/2+y,z
1/2-x,-y,z
1/2+x,-y,1/2-z
1/2-x,1/2+y,1/2-z
1/2-x,1/2-y,-z
1/2+x,y,-z
1/2-x,y,1/2+z
1/2+x,1/2-y,1/2+z
loop_
_atom_site_type_symbol
_atom_site_label
_atom_site_fract_x
_atom_site_fract_y
_atom_site_fract_z
Si Si1 0.173464 0.567289 0.115529
Si Si2 0.844378 0.806993 0.893110
Si Si3 0.580639 0.389881 0.803982
Si Si4 0.284085 0.750000 0.750000
O O1 0.250000 0.500000 0.104427
O O2 0.101767 0.490962 0.122420
O O3 0.169899 0.643176 0.224254
O O4 0.156682 0.640422 0.010977
O O5 0.907913 0.715330 0.879744
O O6 0.860670 0.892562 0.797359
O O7 0.763444 0.759882 0.863510
O O8 0.500000 0.396149 0.750000
#
# Coordination Sequence:
#
# PCOD8282596 Si02
#       4
#    16  16  16   8
#     4  12  23  37  67  97 124 164 216 263 319 380
#     4  10  21  38  65  89 126 162 208 262 316 379
#     4  10  23  44  62  88 129 173 208 258 321 381
#     4  10  22  40  56 100 128 156 200 278 310 368
#
# _framework density 20.355667
#
# number of rings (size 3 to 8) (size 9 to 14) (size 15 to 20)
#    0.000    1.714    5.714    2.571    4.000    1.143 
#    0.000    3.571    0.000    0.000    0.000    0.000 
#    0.000    0.000    0.000    0.000    0.000    0.000 
#
# Total GULP energy -346929.471125 kJ/mol
# GULP energy per Si atom -12390.338254 kJ/mol
# Density = 2.030934 g / cm^3
# Si number density = 20.355667 Si / 1000 Ang^3
#
#
#
# Elastic Constant Matrix: (Units=GPa)
#
#
# Indices 1 2 3 4 5 6 
#
# 1 74.8049 58.5924 37.8544 0.0000 0.0000 0.0000
# 2 58.5924 133.0155 76.6186 0.0000 0.0000 0.0000
# 3 37.8544 76.6186 97.6278 0.0000 0.0000 0.0000
# 4 0.0000 0.0000 0.0000 46.6509 0.0000 0.0000
# 5 0.0000 0.0000 0.0000 0.0000 12.0421 0.0000
# 6 0.0000 0.0000 0.0000 0.0000 0.0000 21.9679
#
#
#
# Elastic Compliance Matrix: (Units=1/GPa)
#
#
# Indices 1 2 3 4 5 6 
#
# 1 0.020542 -0.008141 -0.001576 0.000000 0.000000 0.000000
# 2 -0.008141 0.016946 -0.010143 0.000000 0.000000 0.000000
# 3 -0.001576 -0.010143 0.018814 0.000000 0.000000 0.000000
# 4 0.000000 0.000000 0.000000 0.021436 0.000000 0.000000
# 5 0.000000 0.000000 0.000000 0.000000 0.083042 0.000000
# 6 0.000000 0.000000 0.000000 0.000000 0.000000 0.045521
#
#
# Mechanical properties :
#
#
# Convention : Reuss Voigt Hill
#
# Bulk Modulus (GPa) = 60.30275 72.39767 66.35021
# Shear Modulus (GPa) = 19.87679 24.95770 22.41725
#
# Velocity S-wave (km/s) = 3.12825 3.50534 3.32215
# Velocity P-wave (km/s) = 6.53734 7.21296 6.88344
#
# Compressibility (1/GPa) = 0.01658299
#
# Stress axis : x y z
#
# Youngs Moduli (GPa) = 48.68044 59.00946 53.15076
#
# Poissons Ratio (x) = 0.48039 0.08377
# Poissons Ratio (y) = 0.39630 0.53911
# Poissons Ratio (z) = 0.07673 0.59854
#
# Static dielectric constant tensor:
#      x y z
#    x 3.480580 0.000000 0.000000 
#    y 0.000000 3.934420 0.000000 
#    z 0.000000 0.000000 3.457530 
# 
# 
# High freq. dielectric constant tensor:
#      x y z
#    x 1.767520 0.000000 0.000000 
#    y 0.000000 1.807770 0.000000 
#    z 0.000000 0.000000 1.782000 
# 
# From -- ./inp_files/11403.got.cif
#   From: 2010.03.12/outbox.cif.g09.slc.cpg/sg68_6_cif.got.tgz:11403.got - 2010.04.10 23:14:56.
