data_PCOD8282995
_publ_section_title
;
Structure prediction by ZEFSAII (Michael W. Deem and Ramdas Pophale) SiO2 
 PCOD8282995
Probable space group: C C C A
;
_chemical_formula_sum "Si O2"
_cell_formula_units_Z 64
_cell_length_a 8.585216
_cell_length_b 28.807818
_cell_length_c 10.656899
_cell_angle_alpha 90.000000
_cell_angle_beta 90.000000
_cell_angle_gamma 90.000000
_cell_volume 2635.678541
_symmetry_space_group_name_H-M "C C C A"
_symmetry_group_IT_number 68
_space_group.IT_coordinate_system_code '2'
_symmetry_cell_setting 'orthorhombic'
loop_
_space_group_symop_operation_xyz
x,y,z
-x,1/2-y,z
x,1/2-y,1/2-z
-x,y,1/2-z
-x,-y,-z
x,1/2+y,-z
-x,1/2+y,1/2+z
x,-y,1/2+z
1/2+x,1/2+y,z
1/2-x,-y,z
1/2+x,-y,1/2-z
1/2-x,1/2+y,1/2-z
1/2-x,1/2-y,-z
1/2+x,y,-z
1/2-x,y,1/2+z
1/2+x,1/2-y,1/2+z
loop_
_atom_site_type_symbol
_atom_site_label
_atom_site_fract_x
_atom_site_fract_y
_atom_site_fract_z
Si Si1 0.017714 0.962151 0.109227
Si Si2 0.000000 0.250000 0.946147
Si Si3 0.000000 0.133891 0.250000
Si Si4 0.769772 0.812317 0.598004
Si Si5 0.190297 0.097000 0.037957
O O1 0.000000 0.983126 0.250000
O O2 0.182219 0.936155 0.100265
O O3 0.877606 0.925564 0.089366
O O4 0.000000 0.000000 0.000000
O O5 0.107204 0.214065 0.864831
O O6 0.111766 0.276445 0.039956
O O7 0.847592 0.165506 0.221720
O O8 0.956052 0.101134 0.366617
O O9 0.747997 0.851718 0.493048
#
# Coordination Sequence:
#
# PCOD8282995 Si02
#       5
#    16   8   8  16  16
#     4  12  29  48  79 114 153 196 255 315 384 463
#     4  10  22  43  69 104 150 188 261 311 384 444
#     4  12  24  43  82 104 150 210 252 310 394 457
#     4  11  22  44  71 105 150 199 251 318 378 464
#     4  12  25  49  76 108 152 200 255 310 387 460
#
# _framework density 24.282173
#
# number of rings (size 3 to 8) (size 9 to 14) (size 15 to 20)
#    0.000    0.500    5.000    2.250    1.750    2.500 
#    0.000    1.250    0.000    0.000    0.000    0.000 
#    0.000    0.000    0.000    0.000    0.000    0.000 
#
# Total GULP energy -396772.644002 kJ/mol
# GULP energy per Si atom -12399.145125 kJ/mol
# Density = 2.422691 g / cm^3
# Si number density = 24.282173 Si / 1000 Ang^3
#
#
#
# Elastic Constant Matrix: (Units=GPa)
#
#
# Indices 1 2 3 4 5 6 
#
# 1 141.8006 53.8269 44.1819 0.0000 0.0000 0.0000
# 2 53.8269 120.4183 52.6553 0.0000 0.0000 0.0000
# 3 44.1819 52.6553 140.9297 0.0000 0.0000 0.0000
# 4 0.0000 0.0000 0.0000 29.3805 0.0000 0.0000
# 5 0.0000 0.0000 0.0000 0.0000 44.7799 0.0000
# 6 0.0000 0.0000 0.0000 0.0000 0.0000 39.2215
#
#
#
# Elastic Compliance Matrix: (Units=1/GPa)
#
#
# Indices 1 2 3 4 5 6 
#
# 1 0.008762 -0.003246 -0.001534 0.000000 0.000000 0.000000
# 2 -0.003246 0.011128 -0.003140 0.000000 0.000000 0.000000
# 3 -0.001534 -0.003140 0.008750 0.000000 0.000000 0.000000
# 4 0.000000 0.000000 0.000000 0.034036 0.000000 0.000000
# 5 0.000000 0.000000 0.000000 0.000000 0.022331 0.000000
# 6 0.000000 0.000000 0.000000 0.000000 0.000000 0.025496
#
#
# Mechanical properties :
#
#
# Convention : Reuss Voigt Hill
#
# Bulk Modulus (GPa) = 78.12546 78.27518 78.20032
# Shear Modulus (GPa) = 38.28128 39.50869 38.89498
#
# Velocity S-wave (km/s) = 3.97485 4.03807 4.00658
# Velocity P-wave (km/s) = 7.30135 7.35166 7.32655
#
# Compressibility (1/GPa) = 0.01279993
#
# Stress axis : x y z
#
# Youngs Moduli (GPa) = 114.12508 89.85984 114.28518
#
# Poissons Ratio (x) = 0.29167 0.17534
# Poissons Ratio (y) = 0.37043 0.35889
# Poissons Ratio (z) = 0.17510 0.28219
#
# Static dielectric constant tensor:
#      x y z
#    x 4.877870 0.000000 0.000000 
#    y 0.000000 4.687380 0.000000 
#    z 0.000000 0.000000 4.119540 
# 
# 
# High freq. dielectric constant tensor:
#      x y z
#    x 1.984560 0.000000 0.000000 
#    y 0.000000 1.975390 0.000000 
#    z 0.000000 0.000000 1.947790 
# 
# From -- ./inp_files/10789.got.cif
#   From: 2010.03.12/outbox.cif.g09.slc.cpg/sg68_6_cif.got.tgz:10789.got - 2010.04.10 23:14:56.
