data_PCOD8282925
_publ_section_title
;
Structure prediction by ZEFSAII (Michael W. Deem and Ramdas Pophale) SiO2 
 PCOD8282925
Probable space group: C C C A
;
_chemical_formula_sum "Si O2"
_cell_formula_units_Z 96
_cell_length_a 21.936666
_cell_length_b 17.283802
_cell_length_c 12.123377
_cell_angle_alpha 90.000000
_cell_angle_beta 90.000000
_cell_angle_gamma 90.000000
_cell_volume 4596.566165
_symmetry_space_group_name_H-M "C C C A"
_symmetry_group_IT_number 68
_space_group.IT_coordinate_system_code '2'
_symmetry_cell_setting 'orthorhombic'
loop_
_space_group_symop_operation_xyz
x,y,z
-x,1/2-y,z
x,1/2-y,1/2-z
-x,y,1/2-z
-x,-y,-z
x,1/2+y,-z
-x,1/2+y,1/2+z
x,-y,1/2+z
1/2+x,1/2+y,z
1/2-x,-y,z
1/2+x,-y,1/2-z
1/2-x,1/2+y,1/2-z
1/2-x,1/2-y,-z
1/2+x,y,-z
1/2-x,y,1/2+z
1/2+x,1/2-y,1/2+z
loop_
_atom_site_type_symbol
_atom_site_label
_atom_site_fract_x
_atom_site_fract_y
_atom_site_fract_z
Si Si1 0.180824 0.591955 0.137973
Si Si2 0.068411 0.160363 0.731742
Si Si3 0.900874 0.591875 0.008730
Si Si4 0.628819 0.419029 0.585708
Si Si5 0.188063 0.087706 0.319641
Si Si6 0.507049 0.339320 0.619882
O O1 0.118188 0.623795 0.187214
O O2 0.187543 0.503450 0.168526
O O3 0.244676 0.628019 0.181454
O O4 0.178640 0.603302 0.006145
O O5 0.063796 0.250000 0.750000
O O6 0.093121 0.151120 0.608589
O O7 0.000000 0.123732 0.750000
O O8 0.891376 0.507762 0.064254
O O9 0.847135 0.620400 0.926959
O O10 0.961519 0.599283 0.935840
O O11 0.656343 0.396752 0.703650
O O12 0.571975 0.363052 0.573235
O O13 0.500000 0.250000 0.584026
O O14 0.500000 0.349897 0.750000
#
# Coordination Sequence:
#
# PCOD8282925 Si02
#       6
#    16  16  16  16  16  16
#     4  10  23  40  66  94 128 170 210 271 332 385
#     4  11  25  43  65  96 132 171 216 271 336 395
#     4  11  23  41  67  94 133 171 222 277 325 397
#     4  11  22  41  66  97 128 171 222 272 329 399
#     4  10  22  41  65  97 127 166 220 271 324 394
#     4  11  24  41  64  96 135 176 219 276 339 397
#
# _framework density 20.885155999999998
#
# number of rings (size 3 to 8) (size 9 to 14) (size 15 to 20)
#    0.000    1.333    3.333    1.500    7.000    3.333 
#    0.000    2.500    0.000    0.000    0.000    0.000 
#    0.000    0.000    0.000    0.000    0.000    0.000 
#
# Total GULP energy -594788.005476 kJ/mol
# GULP energy per Si atom -12391.416781 kJ/mol
# Density = 2.083762 g / cm^3
# Si number density = 20.885156 Si / 1000 Ang^3
#
#
#
# Elastic Constant Matrix: (Units=GPa)
#
#
# Indices 1 2 3 4 5 6 
#
# 1 171.5172 47.0610 53.1198 0.0000 0.0000 0.0000
# 2 47.0610 48.2573 37.7455 0.0000 0.0000 0.0000
# 3 53.1198 37.7455 115.9405 0.0000 0.0000 0.0000
# 4 0.0000 0.0000 0.0000 11.4369 0.0000 0.0000
# 5 0.0000 0.0000 0.0000 0.0000 37.4433 0.0000
# 6 0.0000 0.0000 0.0000 0.0000 0.0000 49.1762
#
#
#
# Elastic Compliance Matrix: (Units=1/GPa)
#
#
# Indices 1 2 3 4 5 6 
#
# 1 0.008160 -0.006753 -0.001540 0.000000 0.000000 0.000000
# 2 -0.006753 0.033391 -0.007777 0.000000 0.000000 0.000000
# 3 -0.001540 -0.007777 0.011862 0.000000 0.000000 0.000000
# 4 0.000000 0.000000 0.000000 0.087436 0.000000 0.000000
# 5 0.000000 0.000000 0.000000 0.000000 0.026707 0.000000
# 6 0.000000 0.000000 0.000000 0.000000 0.000000 0.020335
#
#
# Mechanical properties :
#
#
# Convention : Reuss Voigt Hill
#
# Bulk Modulus (GPa) = 47.00681 67.95196 57.47938
# Shear Modulus (GPa) = 22.01450 32.79720 27.40585
#
# Velocity S-wave (km/s) = 3.25017 3.96707 3.62638
# Velocity P-wave (km/s) = 6.05318 7.32053 6.71681
#
# Compressibility (1/GPa) = 0.02127351
#
# Stress axis : x y z
#
# Youngs Moduli (GPa) = 122.54461 29.94835 84.29940
#
# Poissons Ratio (x) = 0.20225 0.12983
# Poissons Ratio (y) = 0.82759 0.65556
# Poissons Ratio (z) = 0.18874 0.23290
#
# Static dielectric constant tensor:
#      x y z
#    x 3.908950 0.000000 0.000000 
#    y 0.000000 3.519120 0.000000 
#    z 0.000000 0.000000 4.149290 
# 
# 
# High freq. dielectric constant tensor:
#      x y z
#    x 1.831350 0.000000 0.000000 
#    y 0.000000 1.786900 0.000000 
#    z 0.000000 0.000000 1.839480 
# 
# From -- ./inp_files/16435.got.cif
#   From: 2010.03.12/outbox.cif.g09.slc.cpg/sg68_9_cif.got.tgz:16435.got - 2010.04.10 23:14:56.
