data_PCOD8282634
_publ_section_title
;
Structure prediction by ZEFSAII (Michael W. Deem and Ramdas Pophale) SiO2 
 PCOD8282634
Probable space group: C C C A
;
_chemical_formula_sum "Si O2"
_cell_formula_units_Z 88
_cell_length_a 24.725334
_cell_length_b 13.851483
_cell_length_c 12.228859
_cell_angle_alpha 90.000000
_cell_angle_beta 90.000000
_cell_angle_gamma 90.000000
_cell_volume 4188.170735
_symmetry_space_group_name_H-M "C C C A"
_symmetry_group_IT_number 68
_space_group.IT_coordinate_system_code '2'
_symmetry_cell_setting 'orthorhombic'
loop_
_space_group_symop_operation_xyz
x,y,z
-x,1/2-y,z
x,1/2-y,1/2-z
-x,y,1/2-z
-x,-y,-z
x,1/2+y,-z
-x,1/2+y,1/2+z
x,-y,1/2+z
1/2+x,1/2+y,z
1/2-x,-y,z
1/2+x,-y,1/2-z
1/2-x,1/2+y,1/2-z
1/2-x,1/2-y,-z
1/2+x,y,-z
1/2-x,y,1/2+z
1/2+x,1/2-y,1/2+z
loop_
_atom_site_type_symbol
_atom_site_label
_atom_site_fract_x
_atom_site_fract_y
_atom_site_fract_z
Si Si1 0.441493 0.967274 0.638194
Si Si2 0.835353 0.993883 0.975934
Si Si3 0.987629 0.144424 0.473383
Si Si4 0.399379 0.390323 0.143776
Si Si5 0.183866 0.250000 0.750000
Si Si6 0.245538 0.652711 0.434602
O O1 0.377991 0.982280 0.618648
O O2 0.475880 0.066866 0.623749
O O3 0.462921 0.890172 0.549856
O O4 0.441766 0.926685 0.762665
O O5 0.803387 0.899956 0.930724
O O6 0.796028 0.083245 0.997314
O O7 0.865840 0.978631 0.091430
O O8 0.934974 0.156129 0.548367
O O9 0.000000 0.250000 0.422365
O O10 0.355881 0.310220 0.173817
O O11 0.222708 0.176174 0.685626
O O12 0.250000 0.750000 0.500000
#
# Coordination Sequence:
#
# PCOD8282634 Si02
#       6
#    16  16  16  16   8  16
#     4  10  21  39  62  96 131 164 216 267 327 389
#     4  10  23  40  62  87 130 166 211 268 331 378
#     4  10  22  38  65  97 129 169 215 271 327 384
#     4  11  21  38  65  94 124 174 216 263 317 399
#     4  12  22  38  69  92 126 168 235 266 320 396
#     4  11  23  41  60  92 125 168 215 273 324 382
#
# _framework density 21.011559999999999
#
# number of rings (size 3 to 8) (size 9 to 14) (size 15 to 20)
#    0.000    1.455    3.636    1.636    0.000    2.182 
#    0.000    0.000    0.000   30.545    0.000    0.000 
#    0.000    0.000    0.000    0.000    0.000    0.000 
#
# Total GULP energy -545527.525551 kJ/mol
# GULP energy per Si atom -12398.352853 kJ/mol
# Density = 2.096374 g / cm^3
# Si number density = 21.011560 Si / 1000 Ang^3
#
#
#
# Elastic Constant Matrix: (Units=GPa)
#
#
# Indices 1 2 3 4 5 6 
#
# 1 86.7855 24.9832 10.6207 0.0000 0.0000 0.0000
# 2 24.9832 120.4355 6.7709 0.0000 0.0000 0.0000
# 3 10.6207 6.7709 48.7726 0.0000 0.0000 0.0000
# 4 0.0000 0.0000 0.0000 27.4801 0.0000 0.0000
# 5 0.0000 0.0000 0.0000 0.0000 25.6098 0.0000
# 6 0.0000 0.0000 0.0000 0.0000 0.0000 33.4936
#
#
#
# Elastic Compliance Matrix: (Units=1/GPa)
#
#
# Indices 1 2 3 4 5 6 
#
# 1 0.012524 -0.002464 -0.002385 0.000000 0.000000 0.000000
# 2 -0.002464 0.008853 -0.000693 0.000000 0.000000 0.000000
# 3 -0.002385 -0.000693 0.021119 0.000000 0.000000 0.000000
# 4 0.000000 0.000000 0.000000 0.036390 0.000000 0.000000
# 5 0.000000 0.000000 0.000000 0.000000 0.039047 0.000000
# 6 0.000000 0.000000 0.000000 0.000000 0.000000 0.029856
#
#
# Mechanical properties :
#
#
# Convention : Reuss Voigt Hill
#
# Bulk Modulus (GPa) = 31.83409 37.86038 34.84723
# Shear Modulus (GPa) = 29.52573 31.55796 30.54185
#
# Velocity S-wave (km/s) = 3.75268 3.87968 3.81671
# Velocity P-wave (km/s) = 5.82756 6.17472 6.00365
#
# Compressibility (1/GPa) = 0.03141286
#
# Stress axis : x y z
#
# Youngs Moduli (GPa) = 79.84778 112.95305 47.35103
#
# Poissons Ratio (x) = 0.27830 0.11294
# Poissons Ratio (y) = 0.19673 0.03279
# Poissons Ratio (z) = 0.19045 0.07822
#
# Static dielectric constant tensor:
#      x y z
#    x 4.122480 0.000000 0.000000 
#    y 0.000000 4.537850 0.000000 
#    z 0.000000 0.000000 3.882110 
# 
# 
# High freq. dielectric constant tensor:
#      x y z
#    x 1.844990 0.000000 0.000000 
#    y 0.000000 1.825200 0.000000 
#    z 0.000000 0.000000 1.799280 
# 
# From -- ./inp_files/21150.got.cif
#   From: 2010.03.12/outbox.cif.g09.slc.cpg/sg68_11_cif.got.tgz:21150.got - 2010.04.10 23:14:56.
