data_PCOD8282601
_publ_section_title
;
Structure prediction by ZEFSAII (Michael W. Deem and Ramdas Pophale) SiO2 
 PCOD8282601
Probable space group: C C C A
;
_chemical_formula_sum "Si O2"
_cell_formula_units_Z 64
_cell_length_a 14.929855
_cell_length_b 9.166566
_cell_length_c 21.107732
_cell_angle_alpha 90.000000
_cell_angle_beta 90.000000
_cell_angle_gamma 90.000000
_cell_volume 2888.709243
_symmetry_space_group_name_H-M "C C C A"
_symmetry_group_IT_number 68
_space_group.IT_coordinate_system_code '2'
_symmetry_cell_setting 'orthorhombic'
loop_
_space_group_symop_operation_xyz
x,y,z
-x,1/2-y,z
x,1/2-y,1/2-z
-x,y,1/2-z
-x,-y,-z
x,1/2+y,-z
-x,1/2+y,1/2+z
x,-y,1/2+z
1/2+x,1/2+y,z
1/2-x,-y,z
1/2+x,-y,1/2-z
1/2-x,1/2+y,1/2-z
1/2-x,1/2-y,-z
1/2+x,y,-z
1/2-x,y,1/2+z
1/2+x,1/2-y,1/2+z
loop_
_atom_site_type_symbol
_atom_site_label
_atom_site_fract_x
_atom_site_fract_y
_atom_site_fract_z
Si Si1 0.933169 0.121744 0.366793
Si Si2 0.250000 0.500000 0.172138
Si Si3 0.587428 0.038180 0.081011
Si Si4 0.837789 0.750000 0.750000
Si Si5 0.647482 0.245939 0.980684
O O1 0.898202 0.145280 0.295174
O O2 0.854129 0.140459 0.418234
O O3 0.000000 0.250000 0.384305
O O4 0.992852 0.976087 0.379905
O O5 0.333628 0.449669 0.131364
O O6 0.225520 0.358426 0.212359
O O7 0.607620 0.904637 0.033416
O O8 0.586698 0.181527 0.037486
O O9 0.750000 0.250000 0.000000
#
# Coordination Sequence:
#
# PCOD8282601 Si02
#       5
#    16   8  16   8  16
#     4  10  21  38  67  92 123 181 222 264 331 415
#     4  12  24  42  66  96 128 174 228 280 338 416
#     4  11  22  40  65  97 130 171 224 273 345 405
#     4  12  23  46  70  93 132 180 232 279 342 404
#     4  11  19  38  62  96 132 167 213 279 330 399
#
# _framework density 22.155222999999999
#
# number of rings (size 3 to 8) (size 9 to 14) (size 15 to 20)
#    0.000    1.000    7.500    1.125    0.000    0.000 
#    9.000    0.000    0.000    1.500    0.000    0.000 
#    0.000    0.000    0.000    0.000    0.000    0.000 
#
# Total GULP energy -396571.392462 kJ/mol
# GULP energy per Si atom -12392.856014 kJ/mol
# Density = 2.210480 g / cm^3
# Si number density = 22.155223 Si / 1000 Ang^3
#
#
#
# Elastic Constant Matrix: (Units=GPa)
#
#
# Indices 1 2 3 4 5 6 
#
# 1 114.2408 42.0513 67.7751 0.0000 0.0000 0.0000
# 2 42.0513 75.8441 56.1371 0.0000 0.0000 0.0000
# 3 67.7751 56.1371 161.0191 0.0000 0.0000 0.0000
# 4 0.0000 0.0000 0.0000 41.3776 0.0000 0.0000
# 5 0.0000 0.0000 0.0000 0.0000 17.8179 0.0000
# 6 0.0000 0.0000 0.0000 0.0000 0.0000 27.0232
#
#
#
# Elastic Compliance Matrix: (Units=1/GPa)
#
#
# Indices 1 2 3 4 5 6 
#
# 1 0.012550 -0.004109 -0.003850 0.000000 0.000000 0.000000
# 2 -0.004109 0.019116 -0.004935 0.000000 0.000000 0.000000
# 3 -0.003850 -0.004935 0.009552 0.000000 0.000000 0.000000
# 4 0.000000 0.000000 0.000000 0.024168 0.000000 0.000000
# 5 0.000000 0.000000 0.000000 0.000000 0.056123 0.000000
# 6 0.000000 0.000000 0.000000 0.000000 0.000000 0.037005
#
#
# Mechanical properties :
#
#
# Convention : Reuss Voigt Hill
#
# Bulk Modulus (GPa) = 64.80983 75.89234 70.35108
# Shear Modulus (GPa) = 26.39305 29.58643 27.98974
#
# Velocity S-wave (km/s) = 3.45524 3.65830 3.55822
# Velocity P-wave (km/s) = 6.72565 7.22312 6.97882
#
# Compressibility (1/GPa) = 0.01542976
#
# Stress axis : x y z
#
# Youngs Moduli (GPa) = 79.68225 52.31310 104.69555
#
# Poissons Ratio (x) = 0.21493 0.40308
# Poissons Ratio (y) = 0.32738 0.51668
# Poissons Ratio (z) = 0.30678 0.25817
#
# Static dielectric constant tensor:
#      x y z
#    x 4.544300 0.000000 0.000000 
#    y 0.000000 4.004910 0.000000 
#    z 0.000000 0.000000 4.273420 
# 
# 
# High freq. dielectric constant tensor:
#      x y z
#    x 1.879060 0.000000 0.000000 
#    y 0.000000 1.846810 0.000000 
#    z 0.000000 0.000000 1.882640 
# 
# From -- ./inp_files/35786.got.cif
#   From: 2010.03.12/outbox.cif.g09.slc.cpg/sg68_18_cif.got.tgz:35786.got - 2010.04.10 23:14:56.
