data_PCOD8282163
_publ_section_title
;
Structure prediction by ZEFSAII (Michael W. Deem and Ramdas Pophale) SiO2 
 PCOD8282163
Probable space group: C C C A
;
_chemical_formula_sum "Si O2"
_cell_formula_units_Z 96
_cell_length_a 20.960007
_cell_length_b 12.296343
_cell_length_c 18.537741
_cell_angle_alpha 90.000000
_cell_angle_beta 90.000000
_cell_angle_gamma 90.000000
_cell_volume 4777.758596
_symmetry_space_group_name_H-M "C C C A"
_symmetry_group_IT_number 68
_space_group.IT_coordinate_system_code '2'
_symmetry_cell_setting 'orthorhombic'
loop_
_space_group_symop_operation_xyz
x,y,z
-x,1/2-y,z
x,1/2-y,1/2-z
-x,y,1/2-z
-x,-y,-z
x,1/2+y,-z
-x,1/2+y,1/2+z
x,-y,1/2+z
1/2+x,1/2+y,z
1/2-x,-y,z
1/2+x,-y,1/2-z
1/2-x,1/2+y,1/2-z
1/2-x,1/2-y,-z
1/2+x,y,-z
1/2-x,y,1/2+z
1/2+x,1/2-y,1/2+z
loop_
_atom_site_type_symbol
_atom_site_label
_atom_site_fract_x
_atom_site_fract_y
_atom_site_fract_z
Si Si1 0.138154 0.377851 0.526009
Si Si2 0.098076 0.250000 0.750000
Si Si3 0.424590 0.867624 0.236846
Si Si4 0.428672 0.548541 0.660145
Si Si5 0.439675 0.025825 0.593547
Si Si6 0.250000 0.000000 0.054758
Si Si7 0.152500 0.837102 0.105088
O O1 0.126640 0.422415 0.605621
O O2 0.073961 0.399257 0.477301
O O3 0.197997 0.440611 0.494120
O O4 0.154109 0.251337 0.540091
O O5 0.055027 0.347081 0.712924
O O6 0.143691 0.294586 0.813430
O O7 0.393388 0.750000 0.250000
O O8 0.500000 0.864662 0.250000
O O9 0.396376 0.954989 0.291974
O O10 0.406588 0.904857 0.156858
O O11 0.487684 0.500379 0.614184
O O12 0.407822 0.909487 0.583040
O O13 0.282992 0.091511 0.104379
#
# Coordination Sequence:
#
# PCOD8282163 Si02
#       7
#    16   8  16  16  16   8  16
#     4  10  22  37  61  86 118 157 202 252 306 360
#     4  10  20  35  60  92 120 158 200 259 302 370
#     4   9  18  33  53  79 120 162 190 229 286 356
#     4  10  20  36  58  93 124 156 200 243 304 369
#     4  10  20  36  58  92 126 155 194 238 307 378
#     4  10  22  42  60  78 118 160 210 260 312 364
#     4  10  21  38  62  86 116 156 206 257 308 359
#
# _framework density 20.093104
#
# number of rings (size 3 to 8) (size 9 to 14) (size 15 to 20)
#    0.000    2.167    1.667    1.000    0.000    6.000 
#    0.000    6.667    7.333    0.000    0.000    0.000 
#    0.000    0.000    0.000    0.000    0.000    0.000 
#
# Total GULP energy -594690.296698 kJ/mol
# GULP energy per Si atom -12389.381181 kJ/mol
# Density = 2.004737 g / cm^3
# Si number density = 20.093104 Si / 1000 Ang^3
#
#
#
# Elastic Constant Matrix: (Units=GPa)
#
#
# Indices 1 2 3 4 5 6 
#
# 1 51.1197 29.5996 27.5688 0.0000 0.0000 0.0000
# 2 29.5996 146.6925 57.6867 0.0000 0.0000 0.0000
# 3 27.5688 57.6867 112.2853 0.0000 0.0000 0.0000
# 4 0.0000 0.0000 0.0000 32.6435 0.0000 0.0000
# 5 0.0000 0.0000 0.0000 0.0000 15.8966 0.0000
# 6 0.0000 0.0000 0.0000 0.0000 0.0000 29.7545
#
#
#
# Elastic Compliance Matrix: (Units=1/GPa)
#
#
# Indices 1 2 3 4 5 6 
#
# 1 0.023632 -0.003116 -0.004201 0.000000 0.000000 0.000000
# 2 -0.003116 0.008954 -0.003835 0.000000 0.000000 0.000000
# 3 -0.004201 -0.003835 0.011908 0.000000 0.000000 0.000000
# 4 0.000000 0.000000 0.000000 0.030634 0.000000 0.000000
# 5 0.000000 0.000000 0.000000 0.000000 0.062906 0.000000
# 6 0.000000 0.000000 0.000000 0.000000 0.000000 0.033608
#
#
# Mechanical properties :
#
#
# Convention : Reuss Voigt Hill
#
# Bulk Modulus (GPa) = 45.06830 59.97861 52.52346
# Shear Modulus (GPa) = 24.83318 28.67508 26.75413
#
# Velocity S-wave (km/s) = 3.51936 3.78181 3.65294
# Velocity P-wave (km/s) = 6.24443 6.99890 6.63240
#
# Compressibility (1/GPa) = 0.02218855
#
# Stress axis : x y z
#
# Youngs Moduli (GPa) = 42.31538 111.68340 83.98005
#
# Poissons Ratio (x) = 0.34804 0.35282
# Poissons Ratio (y) = 0.13187 0.32206
# Poissons Ratio (z) = 0.17778 0.42830
#
# Static dielectric constant tensor:
#      x y z
#    x 3.254460 0.000000 0.000000 
#    y 0.000000 4.227190 0.000000 
#    z 0.000000 0.000000 3.901100 
# 
# 
# High freq. dielectric constant tensor:
#      x y z
#    x 1.740980 0.000000 0.000000 
#    y 0.000000 1.802410 0.000000 
#    z 0.000000 0.000000 1.795940 
# 
# From -- ./inp_files/33570.got.cif
#   From: 2010.03.12/outbox.cif.g09.slc.cpg/sg68_17_cif.got.tgz:33570.got - 2010.04.10 23:14:56.
