data_PCOD8282423
_publ_section_title
;
Structure prediction by ZEFSAII (Michael W. Deem and Ramdas Pophale) SiO2 
 PCOD8282423
Probable space group: C C C A
;
_chemical_formula_sum "Si O2"
_cell_formula_units_Z 80
_cell_length_a 13.931701
_cell_length_b 24.671403
_cell_length_c 11.507193
_cell_angle_alpha 90.000000
_cell_angle_beta 90.000000
_cell_angle_gamma 90.000000
_cell_volume 3955.190352
_symmetry_space_group_name_H-M "C C C A"
_symmetry_group_IT_number 68
_space_group.IT_coordinate_system_code '2'
_symmetry_cell_setting 'orthorhombic'
loop_
_space_group_symop_operation_xyz
x,y,z
-x,1/2-y,z
x,1/2-y,1/2-z
-x,y,1/2-z
-x,-y,-z
x,1/2+y,-z
-x,1/2+y,1/2+z
x,-y,1/2+z
1/2+x,1/2+y,z
1/2-x,-y,z
1/2+x,-y,1/2-z
1/2-x,1/2+y,1/2-z
1/2-x,1/2-y,-z
1/2+x,y,-z
1/2-x,y,1/2+z
1/2+x,1/2-y,1/2+z
loop_
_atom_site_type_symbol
_atom_site_label
_atom_site_fract_x
_atom_site_fract_y
_atom_site_fract_z
Si Si1 0.516614 0.810838 0.614716
Si Si2 0.674659 0.390061 0.444487
Si Si3 0.882983 0.398580 0.512385
Si Si4 0.604210 0.454879 0.237183
Si Si5 0.953284 0.570097 0.642068
O O1 0.500000 0.750000 0.569320
O O2 0.500000 0.814298 0.750000
O O3 0.624378 0.834231 0.595884
O O4 0.441030 0.844550 0.539869
O O5 0.788752 0.381635 0.441250
O O6 0.657676 0.441507 0.357899
O O7 0.634413 0.402677 0.573767
O O8 0.842967 0.427638 0.628119
O O9 0.956514 0.439949 0.446290
O O10 0.500000 0.426285 0.250000
O O11 0.590388 0.517933 0.208659
O O12 0.000000 0.605238 0.750000
#
# Coordination Sequence:
#
# PCOD8282423 Si02
#       5
#    16  16  16  16  16
#     4  10  20  41  69  90 118 161 205 261 321 372
#     4  11  23  40  61  92 127 160 210 259 304 370
#     4  11  22  39  62  90 122 163 203 262 303 360
#     4  11  20  42  58  81 125 166 206 248 294 371
#     4  10  24  38  57  86 128 166 202 245 306 360
#
# _framework density 20.226586999999999
#
# number of rings (size 3 to 8) (size 9 to 14) (size 15 to 20)
#    0.000    1.400    6.000    0.600    5.600    1.600 
#    3.600    0.000    0.000    9.600    0.000    0.000 
#    0.000    0.000    0.000    0.000    0.000    0.000 
#
# Total GULP energy -495537.624395 kJ/mol
# GULP energy per Si atom -12388.440610 kJ/mol
# Density = 2.018055 g / cm^3
# Si number density = 20.226587 Si / 1000 Ang^3
#
#
#
# Elastic Constant Matrix: (Units=GPa)
#
#
# Indices 1 2 3 4 5 6 
#
# 1 120.8747 32.8478 12.9076 0.0000 0.0000 0.0000
# 2 32.8478 102.3579 28.0553 0.0000 0.0000 0.0000
# 3 12.9076 28.0553 90.9348 0.0000 0.0000 0.0000
# 4 0.0000 0.0000 0.0000 16.3032 0.0000 0.0000
# 5 0.0000 0.0000 0.0000 0.0000 23.4082 0.0000
# 6 0.0000 0.0000 0.0000 0.0000 0.0000 0.1285
#
#
#
# Elastic Compliance Matrix: (Units=1/GPa)
#
#
# Indices 1 2 3 4 5 6 
#
# 1 0.009079 -0.002797 -0.000426 0.000000 0.000000 0.000000
# 2 -0.002797 0.011534 -0.003161 0.000000 0.000000 0.000000
# 3 -0.000426 -0.003161 0.012033 0.000000 0.000000 0.000000
# 4 0.000000 0.000000 0.000000 0.061338 0.000000 0.000000
# 5 0.000000 0.000000 0.000000 0.000000 0.042720 0.000000
# 6 0.000000 0.000000 0.000000 0.000000 0.000000 7.779953
#
#
# Mechanical properties :
#
#
# Convention : Reuss Voigt Hill
#
# Bulk Modulus (GPa) = 50.30925 51.30987 50.80956
# Shear Modulus (GPa) = 0.63004 23.99176 12.31090
#
# Velocity S-wave (km/s) = 0.55872 3.44779 2.46976
# Velocity P-wave (km/s) = 5.03419 6.42435 5.77128
#
# Compressibility (1/GPa) = 0.01987706
#
# Stress axis : x y z
#
# Youngs Moduli (GPa) = 110.15029 86.70287 83.10693
#
# Poissons Ratio (x) = 0.24248 0.03539
# Poissons Ratio (y) = 0.30806 0.26273
# Poissons Ratio (z) = 0.04690 0.27410
#
# Static dielectric constant tensor:
#      x y z
#    x 3.651480 0.000000 0.000000 
#    y 0.000000 3.553940 0.000000 
#    z 0.000000 0.000000 4.178780 
# 
# 
# High freq. dielectric constant tensor:
#      x y z
#    x 1.787470 0.000000 0.000000 
#    y 0.000000 1.749310 0.000000 
#    z 0.000000 0.000000 1.807700 
# 
# From -- ./inp_files/13418.got.cif
#   From: 2010.03.12/outbox.cif.g09.slc.cpg/sg68_7_cif.got.tgz:13418.got - 2010.04.10 23:14:56.
