data_PCOD8282503
_publ_section_title
;
Structure prediction by ZEFSAII (Michael W. Deem and Ramdas Pophale) SiO2 
 PCOD8282503
Probable space group: C C C A
;
_chemical_formula_sum "Si O2"
_cell_formula_units_Z 112
_cell_length_a 14.386266
_cell_length_b 14.022867
_cell_length_c 29.944266
_cell_angle_alpha 90.000000
_cell_angle_beta 90.000000
_cell_angle_gamma 90.000000
_cell_volume 6040.857249
_symmetry_space_group_name_H-M "C C C A"
_symmetry_group_IT_number 68
_space_group.IT_coordinate_system_code '2'
_symmetry_cell_setting 'orthorhombic'
loop_
_space_group_symop_operation_xyz
x,y,z
-x,1/2-y,z
x,1/2-y,1/2-z
-x,y,1/2-z
-x,-y,-z
x,1/2+y,-z
-x,1/2+y,1/2+z
x,-y,1/2+z
1/2+x,1/2+y,z
1/2-x,-y,z
1/2+x,-y,1/2-z
1/2-x,1/2+y,1/2-z
1/2-x,1/2-y,-z
1/2+x,y,-z
1/2-x,y,1/2+z
1/2+x,1/2-y,1/2+z
loop_
_atom_site_type_symbol
_atom_site_label
_atom_site_fract_x
_atom_site_fract_y
_atom_site_fract_z
Si Si1 0.921202 0.172219 0.438777
Si Si2 0.997953 0.482518 0.895143
Si Si3 0.823880 0.570848 0.342453
Si Si4 0.674406 0.917989 0.840974
Si Si5 0.398591 0.361354 0.248220
Si Si6 0.577471 0.173245 0.037522
Si Si7 0.233955 0.742815 0.101008
O O1 0.891168 0.136520 0.488376
O O2 0.833824 0.223583 0.415978
O O3 0.000000 0.250000 0.440738
O O4 0.962065 0.082855 0.411737
O O5 0.075911 0.438501 0.863442
O O6 0.904900 0.491022 0.865916
O O7 0.968818 0.413815 0.935782
O O8 0.750000 0.500000 0.322092
O O9 0.858770 0.627758 0.300590
O O10 0.767731 0.639405 0.376161
O O11 0.664466 0.905511 0.787621
O O12 0.704459 0.818864 0.862177
O O13 0.750000 0.000000 0.851214
O O14 0.409064 0.250000 0.250000
O O15 0.500000 0.410540 0.250000
O O16 0.500000 0.250000 0.029306
O O17 0.662012 0.230417 0.060352
#
# Coordination Sequence:
#
# PCOD8282503 Si02
#       7
#    16  16  16  16  16  16  16
#     4  11  23  40  57  86 123 161 201 245 296 360
#     4  11  22  38  62  87 116 159 201 246 301 358
#     4  11  23  40  61  85 122 158 196 239 301 367
#     4  12  22  38  63  90 121 157 195 252 306 354
#     4  11  22  37  63  92 117 152 197 251 303 356
#     4  10  21  36  61  88 119 154 201 255 302 349
#     4  11  22  38  62  87 116 159 201 246 301 358
#
# _framework density 18.540413999999998
#
# number of rings (size 3 to 8) (size 9 to 14) (size 15 to 20)
#    0.000    1.000    5.714    2.143    0.000    0.000 
#    0.000    0.000    3.143    0.000    0.000    2.000 
#    0.000    0.000    0.000    0.000    0.000    0.000 
#
# Total GULP energy -693969.370445 kJ/mol
# GULP energy per Si atom -12392.310187 kJ/mol
# Density = 1.849822 g / cm^3
# Si number density = 18.540414 Si / 1000 Ang^3
#
#
#
# Elastic Constant Matrix: (Units=GPa)
#
#
# Indices 1 2 3 4 5 6 
#
# 1 116.7057 48.1378 50.1380 0.0000 0.0000 0.0000
# 2 48.1378 59.4644 21.7319 0.0000 0.0000 0.0000
# 3 50.1380 21.7319 118.7010 0.0000 0.0000 0.0000
# 4 0.0000 0.0000 0.0000 28.6656 0.0000 0.0000
# 5 0.0000 0.0000 0.0000 0.0000 41.3939 0.0000
# 6 0.0000 0.0000 0.0000 0.0000 0.0000 39.0130
#
#
#
# Elastic Compliance Matrix: (Units=1/GPa)
#
#
# Indices 1 2 3 4 5 6 
#
# 1 0.014668 -0.010299 -0.004310 0.000000 0.000000 0.000000
# 2 -0.010299 0.025254 -0.000273 0.000000 0.000000 0.000000
# 3 -0.004310 -0.000273 0.010295 0.000000 0.000000 0.000000
# 4 0.000000 0.000000 0.000000 0.034885 0.000000 0.000000
# 5 0.000000 0.000000 0.000000 0.000000 0.024158 0.000000
# 6 0.000000 0.000000 0.000000 0.000000 0.000000 0.025633
#
#
# Mechanical properties :
#
#
# Convention : Reuss Voigt Hill
#
# Bulk Modulus (GPa) = 48.89420 59.43182 54.16301
# Shear Modulus (GPa) = 29.15858 33.47206 31.31532
#
# Velocity S-wave (km/s) = 3.97004 4.25356 4.11424
# Velocity P-wave (km/s) = 6.88795 7.49990 7.20043
#
# Compressibility (1/GPa) = 0.02045232
#
# Stress axis : x y z
#
# Youngs Moduli (GPa) = 68.17370 39.59746 97.13328
#
# Poissons Ratio (x) = 0.40782 0.41866
# Poissons Ratio (y) = 0.70214 0.02654
# Poissons Ratio (z) = 0.29384 0.01082
#
# Static dielectric constant tensor:
#      x y z
#    x 3.783360 0.000000 0.000000 
#    y 0.000000 3.411890 0.000000 
#    z 0.000000 0.000000 3.563170 
# 
# 
# High freq. dielectric constant tensor:
#      x y z
#    x 1.728150 0.000000 0.000000 
#    y 0.000000 1.718130 0.000000 
#    z 0.000000 0.000000 1.733100 
# 
# From -- ./inp_files/54845.got.cif
#   From: 2010.03.12/outbox.cif.g09.slc.cpg/sg68_28_cif.got.tgz:54845.got - 2010.04.10 23:14:56.
