data_PCOD8282877
_publ_section_title
;
Structure prediction by ZEFSAII (Michael W. Deem and Ramdas Pophale) SiO2 
 PCOD8282877
Probable space group: C C C A
;
_chemical_formula_sum "Si O2"
_cell_formula_units_Z 116
_cell_length_a 24.441700
_cell_length_b 8.997836
_cell_length_c 24.248509
_cell_angle_alpha 90.000000
_cell_angle_beta 90.000000
_cell_angle_gamma 90.000000
_cell_volume 5332.790494
_symmetry_space_group_name_H-M "C C C A"
_symmetry_group_IT_number 68
_space_group.IT_coordinate_system_code '2'
_symmetry_cell_setting 'orthorhombic'
loop_
_space_group_symop_operation_xyz
x,y,z
-x,1/2-y,z
x,1/2-y,1/2-z
-x,y,1/2-z
-x,-y,-z
x,1/2+y,-z
-x,1/2+y,1/2+z
x,-y,1/2+z
1/2+x,1/2+y,z
1/2-x,-y,z
1/2+x,-y,1/2-z
1/2-x,1/2+y,1/2-z
1/2-x,1/2-y,-z
1/2+x,y,-z
1/2-x,y,1/2+z
1/2+x,1/2-y,1/2+z
loop_
_atom_site_type_symbol
_atom_site_label
_atom_site_fract_x
_atom_site_fract_y
_atom_site_fract_z
Si Si1 0.346439 0.284024 0.381333
Si Si2 0.102618 0.925673 0.292228
Si Si3 0.555815 0.200633 0.930387
Si Si4 0.857009 0.702820 0.853318
Si Si5 0.000000 0.750000 0.250000
Si Si6 0.809507 0.510794 0.442742
Si Si7 0.811494 0.483548 0.199655
Si Si8 0.904851 0.075781 0.979997
O O1 0.374316 0.201821 0.330691
O O2 0.312660 0.424542 0.357806
O O3 0.391913 0.333298 0.425057
O O4 0.307704 0.170553 0.413458
O O5 0.040672 0.867551 0.280640
O O6 0.142354 0.945370 0.239309
O O7 0.103624 0.085707 0.321922
O O8 0.500000 0.250000 0.900506
O O9 0.603144 0.184812 0.885285
O O10 0.550823 0.046591 0.962526
O O11 0.567070 0.327300 0.974358
O O12 0.818545 0.616304 0.896423
O O13 0.822326 0.807290 0.811832
O O14 0.750000 0.500000 0.469960
O O15 0.851545 0.503236 0.493407
O O16 0.750000 0.500000 0.225139
#
# Coordination Sequence:
#
# PCOD8282877 Si02
#       8
#    16  16  16  16   4  16  16  16
#     4  11  22  42  65  94 133 177 227 269 341 420
#     4  11  26  45  69  97 133 181 231 284 353 412
#     4  11  23  42  65  95 131 172 221 277 338 399
#     4  10  24  43  66 102 132 172 227 281 346 413
#     4  12  24  52  74  96 140 184 246 290 348 436
#     4  10  22  40  64  93 136 178 216 272 336 402
#     4  12  24  43  72 103 140 175 230 292 355 425
#     4  11  22  41  62  94 133 168 226 269 323 415
#
# _framework density 21.752215
#
# number of rings (size 3 to 8) (size 9 to 14) (size 15 to 20)
#    0.000    1.103    4.138    1.655    0.000    7.724 
#    1.241    0.690    0.000    0.000    0.000    0.000 
#    0.000    0.000    0.000    0.000    0.000    0.000 
#
# Total GULP energy -718799.994603 kJ/mol
# GULP energy per Si atom -12393.103355 kJ/mol
# Density = 2.170271 g / cm^3
# Si number density = 21.752215 Si / 1000 Ang^3
#
#
#
# Elastic Constant Matrix: (Units=GPa)
#
#
# Indices 1 2 3 4 5 6 
#
# 1 74.1279 40.5425 1.2413 0.0000 0.0000 0.0000
# 2 40.5425 97.1223 27.9912 0.0000 0.0000 0.0000
# 3 1.2413 27.9912 59.9698 0.0000 0.0000 0.0000
# 4 0.0000 0.0000 0.0000 34.1663 0.0000 0.0000
# 5 0.0000 0.0000 0.0000 0.0000 13.0611 0.0000
# 6 0.0000 0.0000 0.0000 0.0000 0.0000 25.4675
#
#
#
# Elastic Compliance Matrix: (Units=1/GPa)
#
#
# Indices 1 2 3 4 5 6 
#
# 1 0.018148 -0.008628 0.003652 0.000000 0.000000 0.000000
# 2 -0.008628 0.015999 -0.007289 0.000000 0.000000 0.000000
# 3 0.003652 -0.007289 0.020002 0.000000 0.000000 0.000000
# 4 0.000000 0.000000 0.000000 0.029269 0.000000 0.000000
# 5 0.000000 0.000000 0.000000 0.000000 0.076563 0.000000
# 6 0.000000 0.000000 0.000000 0.000000 0.000000 0.039266
#
#
# Mechanical properties :
#
#
# Convention : Reuss Voigt Hill
#
# Bulk Modulus (GPa) = 33.76387 41.19668 37.48028
# Shear Modulus (GPa) = 21.39961 25.30197 23.35079
#
# Velocity S-wave (km/s) = 3.13995 3.41426 3.27997
# Velocity P-wave (km/s) = 5.35737 5.87563 5.62248
#
# Compressibility (1/GPa) = 0.02961746
#
# Stress axis : x y z
#
# Youngs Moduli (GPa) = 55.10267 62.50527 49.99603
#
# Poissons Ratio (x) = 0.53930 -0.18256
# Poissons Ratio (y) = 0.47543 0.36441
# Poissons Ratio (z) = -0.20121 0.45559
#
# Static dielectric constant tensor:
#      x y z
#    x 4.001440 0.000000 0.000000 
#    y 0.000000 4.207990 0.000000 
#    z 0.000000 0.000000 3.994420 
# 
# 
# High freq. dielectric constant tensor:
#      x y z
#    x 1.840460 0.000000 0.000000 
#    y 0.000000 1.876110 0.000000 
#    z 0.000000 0.000000 1.852570 
# 
# From -- ./inp_files/52208.got.cif
#   From: 2010.03.12/outbox.cif.g09.slc.cpg/sg68_27_cif.got.tgz:52208.got - 2010.04.10 23:14:56.
