data_PCOD8282547
_publ_section_title
;
Structure prediction by ZEFSAII (Michael W. Deem and Ramdas Pophale) SiO2 
 PCOD8282547
Probable space group: C C C A
;
_chemical_formula_sum "Si O2"
_cell_formula_units_Z 64
_cell_length_a 8.637976
_cell_length_b 16.279128
_cell_length_c 20.203650
_cell_angle_alpha 90.000000
_cell_angle_beta 90.000000
_cell_angle_gamma 90.000000
_cell_volume 2841.011341
_symmetry_space_group_name_H-M "C C C A"
_symmetry_group_IT_number 68
_space_group.IT_coordinate_system_code '2'
_symmetry_cell_setting 'orthorhombic'
loop_
_space_group_symop_operation_xyz
x,y,z
-x,1/2-y,z
x,1/2-y,1/2-z
-x,y,1/2-z
-x,-y,-z
x,1/2+y,-z
-x,1/2+y,1/2+z
x,-y,1/2+z
1/2+x,1/2+y,z
1/2-x,-y,z
1/2+x,-y,1/2-z
1/2-x,1/2+y,1/2-z
1/2-x,1/2-y,-z
1/2+x,y,-z
1/2-x,y,1/2+z
1/2+x,1/2-y,1/2+z
loop_
_atom_site_type_symbol
_atom_site_label
_atom_site_fract_x
_atom_site_fract_y
_atom_site_fract_z
Si Si1 0.434616 0.413969 0.819207
Si Si2 0.043238 0.339108 0.548129
Si Si3 0.413007 0.108424 0.183616
Si Si4 0.649695 0.416487 0.942423
O O1 0.500000 0.382130 0.750000
O O2 0.424466 0.511315 0.821059
O O3 0.268345 0.369296 0.823444
O O4 0.550155 0.390578 0.878480
O O5 0.227585 0.344970 0.543663
O O6 0.000000 0.250000 0.519565
O O7 0.998855 0.347139 0.624364
O O8 0.964002 0.413781 0.506141
O O9 0.500000 0.139569 0.250000
O O10 0.750000 0.500000 0.933434
#
# Coordination Sequence:
#
# PCOD8282547 Si02
#       4
#    16  16  16  16
#     4  10  21  37  66  98 127 164 217 277 326 388
#     4  12  26  42  64  94 135 175 216 275 335 392
#     4  10  21  39  64  95 131 170 215 269 335 394
#     4  12  24  42  67  98 129 172 225 271 326 394
#
# _framework density 22.527189
#
# number of rings (size 3 to 8) (size 9 to 14) (size 15 to 20)
#    0.000    1.000    2.500    4.500    7.000    0.500 
#    0.000    0.000    0.000    5.250    0.000    0.000 
#    0.000    0.000    0.000    0.000    0.000    0.000 
#
# Total GULP energy -396709.590201 kJ/mol
# GULP energy per Si atom -12397.174694 kJ/mol
# Density = 2.247592 g / cm^3
# Si number density = 22.527189 Si / 1000 Ang^3
#
#
#
# Elastic Constant Matrix: (Units=GPa)
#
#
# Indices 1 2 3 4 5 6 
#
# 1 180.4547 16.5827 72.7165 0.0000 0.0000 0.0000
# 2 16.5827 37.9230 14.2200 0.0000 0.0000 0.0000
# 3 72.7165 14.2200 164.5598 0.0000 0.0000 0.0000
# 4 0.0000 0.0000 0.0000 5.5420 0.0000 0.0000
# 5 0.0000 0.0000 0.0000 0.0000 49.5470 0.0000
# 6 0.0000 0.0000 0.0000 0.0000 0.0000 22.9038
#
#
#
# Elastic Compliance Matrix: (Units=1/GPa)
#
#
# Indices 1 2 3 4 5 6 
#
# 1 0.006876 -0.001930 -0.002872 0.000000 0.000000 0.000000
# 2 -0.001930 0.027794 -0.001549 0.000000 0.000000 0.000000
# 3 -0.002872 -0.001549 0.007480 0.000000 0.000000 0.000000
# 4 0.000000 0.000000 0.000000 0.180440 0.000000 0.000000
# 5 0.000000 0.000000 0.000000 0.000000 0.020183 0.000000
# 6 0.000000 0.000000 0.000000 0.000000 0.000000 0.043661
#
#
# Mechanical properties :
#
#
# Convention : Reuss Voigt Hill
#
# Bulk Modulus (GPa) = 33.95754 65.55288 49.75521
# Shear Modulus (GPa) = 16.18381 34.22645 25.20513
#
# Velocity S-wave (km/s) = 2.68323 3.90210 3.34859
# Velocity P-wave (km/s) = 4.97055 7.03310 6.08978
#
# Compressibility (1/GPa) = 0.02944854
#
# Stress axis : x y z
#
# Youngs Moduli (GPa) = 145.43172 35.97913 133.69683
#
# Poissons Ratio (x) = 0.06944 0.38393
# Poissons Ratio (y) = 0.28067 0.20709
# Poissons Ratio (z) = 0.41763 0.05573
#
# Static dielectric constant tensor:
#      x y z
#    x 4.624820 0.000000 0.000000 
#    y 0.000000 3.728290 0.000000 
#    z 0.000000 0.000000 4.138730 
# 
# 
# High freq. dielectric constant tensor:
#      x y z
#    x 1.914250 0.000000 0.000000 
#    y 0.000000 1.851690 0.000000 
#    z 0.000000 0.000000 1.896660 
# 
# From -- ./inp_files/27893.got.cif
#   From: 2010.03.12/outbox.cif.g09.slc.cpg/sg68_14_cif.got.tgz:27893.got - 2010.04.10 23:14:56.
