data_PCOD8282011
_publ_section_title
;
Structure prediction by ZEFSAII (Michael W. Deem and Ramdas Pophale) SiO2 
 PCOD8282011
Probable space group: C C C A
;
_chemical_formula_sum "Si O2"
_cell_formula_units_Z 120
_cell_length_a 17.266402
_cell_length_b 21.304988
_cell_length_c 17.691651
_cell_angle_alpha 90.000000
_cell_angle_beta 90.000000
_cell_angle_gamma 90.000000
_cell_volume 6508.059360
_symmetry_space_group_name_H-M "C C C A"
_symmetry_group_IT_number 68
_space_group.IT_coordinate_system_code '2'
_symmetry_cell_setting 'orthorhombic'
loop_
_space_group_symop_operation_xyz
x,y,z
-x,1/2-y,z
x,1/2-y,1/2-z
-x,y,1/2-z
-x,-y,-z
x,1/2+y,-z
-x,1/2+y,1/2+z
x,-y,1/2+z
1/2+x,1/2+y,z
1/2-x,-y,z
1/2+x,-y,1/2-z
1/2-x,1/2+y,1/2-z
1/2-x,1/2-y,-z
1/2+x,y,-z
1/2-x,y,1/2+z
1/2+x,1/2-y,1/2+z
loop_
_atom_site_type_symbol
_atom_site_label
_atom_site_fract_x
_atom_site_fract_y
_atom_site_fract_z
Si Si1 0.301146 0.194630 0.967874
Si Si2 0.921475 0.788981 0.416212
Si Si3 0.299256 0.413306 0.225838
Si Si4 0.212607 0.282174 0.673231
Si Si5 0.098105 0.076138 0.637520
Si Si6 0.000000 0.493550 0.250000
Si Si7 0.856172 0.959200 0.672130
Si Si8 0.312071 0.055842 0.993387
O O1 0.288899 0.201930 0.877660
O O2 0.273092 0.125670 0.999174
O O3 0.250000 0.250000 0.000000
O O4 0.389577 0.204436 0.997306
O O5 0.853118 0.758707 0.366771
O O6 0.940162 0.856761 0.380876
O O7 0.000000 0.750000 0.415462
O O8 0.328587 0.347757 0.192550
O O9 0.323771 0.417625 0.313059
O O10 0.206597 0.420282 0.220398
O O11 0.339075 0.466476 0.175060
O O12 0.242927 0.250000 0.750000
O O13 0.126606 0.042835 0.560299
O O14 0.035050 0.036125 0.682870
O O15 0.938006 0.447019 0.287746
O O16 0.859595 0.940344 0.584814
O O17 0.250000 0.000000 0.991913
#
# Coordination Sequence:
#
# PCOD8282011 Si02
#       8
#    16  16  16  16  16   8  16  16
#     4   9  20  39  56  84 122 154 195 244 292 351
#     4  10  22  35  57  87 121 156 183 240 310 356
#     4  10  19  37  56  88 114 154 191 248 293 343
#     4  11  19  33  62  86 112 148 198 238 289 356
#     4  10  23  36  56  87 127 149 199 242 302 364
#     4  10  24  38  55  84 125 158 184 252 312 346
#     4  10  20  37  61  80 116 158 196 241 300 340
#     4  11  20  37  64  88 113 157 207 250 290 359
#
# _framework density 18.438676000000001
#
# number of rings (size 3 to 8) (size 9 to 14) (size 15 to 20)
#    0.000    1.867    4.000    0.000    7.467    0.800 
#    0.000    0.000    5.867    0.400    0.000    0.000 
#    0.000    0.000    0.000    0.000    0.000    0.000 
#
# Total GULP energy -743517.490906 kJ/mol
# GULP energy per Si atom -12391.958182 kJ/mol
# Density = 1.839671 g / cm^3
# Si number density = 18.438676 Si / 1000 Ang^3
#
#
#
# Elastic Constant Matrix: (Units=GPa)
#
#
# Indices 1 2 3 4 5 6 
#
# 1 93.6563 13.0335 53.0592 0.0000 0.0000 0.0000
# 2 13.0335 74.0227 15.2534 0.0000 0.0000 0.0000
# 3 53.0592 15.2534 108.0269 0.0000 0.0000 0.0000
# 4 0.0000 0.0000 0.0000 25.7870 0.0000 0.0000
# 5 0.0000 0.0000 0.0000 0.0000 25.6959 0.0000
# 6 0.0000 0.0000 0.0000 0.0000 0.0000 20.4957
#
#
#
# Elastic Compliance Matrix: (Units=1/GPa)
#
#
# Indices 1 2 3 4 5 6 
#
# 1 0.014888 -0.001148 -0.007150 0.000000 0.000000 0.000000
# 2 -0.001148 0.014003 -0.001413 0.000000 0.000000 0.000000
# 3 -0.007150 -0.001413 0.012969 0.000000 0.000000 0.000000
# 4 0.000000 0.000000 0.000000 0.038779 0.000000 0.000000
# 5 0.000000 0.000000 0.000000 0.000000 0.038917 0.000000
# 6 0.000000 0.000000 0.000000 0.000000 0.000000 0.048791
#
#
# Mechanical properties :
#
#
# Convention : Reuss Voigt Hill
#
# Bulk Modulus (GPa) = 44.57144 48.71089 46.64116
# Shear Modulus (GPa) = 25.60844 27.35303 26.48073
#
# Velocity S-wave (km/s) = 3.73076 3.85575 3.79377
# Velocity P-wave (km/s) = 6.54090 6.80423 6.67386
#
# Compressibility (1/GPa) = 0.02243589
#
# Stress axis : x y z
#
# Youngs Moduli (GPa) = 67.16815 71.41460 77.10961
#
# Poissons Ratio (x) = 0.08198 0.55136
# Poissons Ratio (y) = 0.07711 0.10898
# Poissons Ratio (z) = 0.48028 0.10093
#
# Static dielectric constant tensor:
#      x y z
#    x 3.327060 0.000000 0.000000 
#    y 0.000000 3.605390 0.000000 
#    z 0.000000 0.000000 3.818630 
# 
# 
# High freq. dielectric constant tensor:
#      x y z
#    x 1.683280 0.000000 0.000000 
#    y 0.000000 1.722420 0.000000 
#    z 0.000000 0.000000 1.724230 
# 
# From -- ./inp_files/32295.got.cif
#   From: 2010.03.12/outbox.cif.g09.slc.cpg/sg68_17_cif.got.tgz:32295.got - 2010.04.10 23:14:56.
