data_PCOD8282863
_publ_section_title
;
Structure prediction by ZEFSAII (Michael W. Deem and Ramdas Pophale) SiO2 
 PCOD8282863
Probable space group: C C C A
;
_chemical_formula_sum "Si O2"
_cell_formula_units_Z 80
_cell_length_a 11.906191
_cell_length_b 19.918163
_cell_length_c 18.064129
_cell_angle_alpha 90.000000
_cell_angle_beta 90.000000
_cell_angle_gamma 90.000000
_cell_volume 4283.898312
_symmetry_space_group_name_H-M "C C C A"
_symmetry_group_IT_number 68
_space_group.IT_coordinate_system_code '2'
_symmetry_cell_setting 'orthorhombic'
loop_
_space_group_symop_operation_xyz
x,y,z
-x,1/2-y,z
x,1/2-y,1/2-z
-x,y,1/2-z
-x,-y,-z
x,1/2+y,-z
-x,1/2+y,1/2+z
x,-y,1/2+z
1/2+x,1/2+y,z
1/2-x,-y,z
1/2+x,-y,1/2-z
1/2-x,1/2+y,1/2-z
1/2-x,1/2-y,-z
1/2+x,y,-z
1/2-x,y,1/2+z
1/2+x,1/2-y,1/2+z
loop_
_atom_site_type_symbol
_atom_site_label
_atom_site_fract_x
_atom_site_fract_y
_atom_site_fract_z
Si Si1 0.865013 0.532967 0.428057
Si Si2 0.250000 0.000000 0.204377
Si Si3 0.079268 0.056200 0.089542
Si Si4 0.434787 0.311902 0.825205
Si Si5 0.619466 0.113996 0.211600
Si Si6 0.269328 0.750000 0.750000
O O1 0.750000 0.500000 0.401471
O O2 0.853173 0.557706 0.512499
O O3 0.893448 0.595457 0.374869
O O4 0.958698 0.476204 0.421350
O O5 0.144684 0.017659 0.153576
O O6 0.286355 0.064578 0.252741
O O7 0.061888 0.132121 0.113209
O O8 0.500000 0.250000 0.861708
O O9 0.500000 0.334416 0.750000
O O10 0.307421 0.288398 0.809957
O O11 0.500000 0.103192 0.250000
O O12 0.653852 0.192167 0.213904
#
# Coordination Sequence:
#
# PCOD8282863 Si02
#       6
#    16   8  16  16  16   8
#     4  11  25  38  63  94 127 158 201 259 314 363
#     4  12  22  38  68  90 124 160 206 254 308 364
#     4  11  23  43  61  92 127 158 202 259 310 368
#     4   9  21  37  64  91 116 160 209 252 300 367
#     4  12  24  39  63  94 124 165 206 254 308 368
#     4  10  22  40  60  90 126 160 206 256 300 366
#
# _framework density 18.674579000000001
#
# number of rings (size 3 to 8) (size 9 to 14) (size 15 to 20)
#    0.000    1.400    6.000    0.300    8.400    0.000 
#    0.000    3.000    0.000    0.000    0.000    0.000 
#    0.000    0.000    0.000    0.000    0.000    0.000 
#
# Total GULP energy -495994.084265 kJ/mol
# GULP energy per Si atom -12399.852107 kJ/mol
# Density = 1.863207 g / cm^3
# Si number density = 18.674579 Si / 1000 Ang^3
#
#
#
# Elastic Constant Matrix: (Units=GPa)
#
#
# Indices 1 2 3 4 5 6 
#
# 1 79.5629 25.1835 20.9576 0.0000 0.0000 0.0000
# 2 25.1835 131.3291 54.1527 0.0000 0.0000 0.0000
# 3 20.9576 54.1527 94.2166 0.0000 0.0000 0.0000
# 4 0.0000 0.0000 0.0000 23.4750 0.0000 0.0000
# 5 0.0000 0.0000 0.0000 0.0000 19.9164 0.0000
# 6 0.0000 0.0000 0.0000 0.0000 0.0000 20.8113
#
#
#
# Elastic Compliance Matrix: (Units=1/GPa)
#
#
# Indices 1 2 3 4 5 6 
#
# 1 0.013665 -0.001792 -0.002010 0.000000 0.000000 0.000000
# 2 -0.001792 0.010215 -0.005472 0.000000 0.000000 0.000000
# 3 -0.002010 -0.005472 0.014206 0.000000 0.000000 0.000000
# 4 0.000000 0.000000 0.000000 0.042599 0.000000 0.000000
# 5 0.000000 0.000000 0.000000 0.000000 0.050210 0.000000
# 6 0.000000 0.000000 0.000000 0.000000 0.000000 0.048051
#
#
# Mechanical properties :
#
#
# Convention : Reuss Voigt Hill
#
# Bulk Modulus (GPa) = 51.18222 56.18845 53.68534
# Shear Modulus (GPa) = 24.50910 26.49488 25.50199
#
# Velocity S-wave (km/s) = 3.62668 3.77074 3.69941
# Velocity P-wave (km/s) = 6.70850 7.00796 6.85986
#
# Compressibility (1/GPa) = 0.01953803
#
# Stress axis : x y z
#
# Youngs Moduli (GPa) = 73.17860 97.89954 70.39121
#
# Poissons Ratio (x) = 0.17540 0.14148
# Poissons Ratio (y) = 0.13111 0.38521
# Poissons Ratio (z) = 0.14708 0.53575
#
# Static dielectric constant tensor:
#      x y z
#    x 3.494550 0.000000 0.000000 
#    y 0.000000 3.425140 0.000000 
#    z 0.000000 0.000000 3.429360 
# 
# 
# High freq. dielectric constant tensor:
#      x y z
#    x 1.737540 0.000000 0.000000 
#    y 0.000000 1.725430 0.000000 
#    z 0.000000 0.000000 1.713740 
# 
# From -- ./inp_files/29570.got.cif
#   From: 2010.03.12/outbox.cif.g09.slc.cpg/sg68_15_cif.got.tgz:29570.got - 2010.04.10 23:14:56.
