data_PCOD8282405
_publ_section_title
;
Structure prediction by ZEFSAII (Michael W. Deem and Ramdas Pophale) SiO2 
 PCOD8282405
Probable space group: C C C A
;
_chemical_formula_sum "Si O2"
_cell_formula_units_Z 88
_cell_length_a 30.959483
_cell_length_b 5.616790
_cell_length_c 21.101018
_cell_angle_alpha 90.000000
_cell_angle_beta 90.000000
_cell_angle_gamma 90.000000
_cell_volume 3669.317519
_symmetry_space_group_name_H-M "C C C A"
_symmetry_group_IT_number 68
_space_group.IT_coordinate_system_code '2'
_symmetry_cell_setting 'orthorhombic'
loop_
_space_group_symop_operation_xyz
x,y,z
-x,1/2-y,z
x,1/2-y,1/2-z
-x,y,1/2-z
-x,-y,-z
x,1/2+y,-z
-x,1/2+y,1/2+z
x,-y,1/2+z
1/2+x,1/2+y,z
1/2-x,-y,z
1/2+x,-y,1/2-z
1/2-x,1/2+y,1/2-z
1/2-x,1/2-y,-z
1/2+x,y,-z
1/2-x,y,1/2+z
1/2+x,1/2-y,1/2+z
loop_
_atom_site_type_symbol
_atom_site_label
_atom_site_fract_x
_atom_site_fract_y
_atom_site_fract_z
Si Si1 0.852560 0.467796 0.517569
Si Si2 0.060526 0.599512 0.811866
Si Si3 0.078565 0.469254 0.085285
Si Si4 0.862901 0.323629 0.652207
Si Si5 0.500000 0.250000 0.125373
Si Si6 0.733809 0.250803 0.179057
O O1 0.828145 0.708777 0.492707
O O2 0.899434 0.421749 0.483384
O O3 0.857696 0.503138 0.592363
O O4 0.050194 0.750000 0.750000
O O5 0.063823 0.734940 0.878728
O O6 0.105182 0.454996 0.798300
O O7 0.019722 0.433729 0.824304
O O8 0.115695 0.580931 0.129140
O O9 0.036922 0.642179 0.079310
O O10 0.817736 0.257144 0.683443
O O11 0.753421 0.250000 0.250000
O O12 0.750000 0.500000 0.145364
O O13 0.750000 0.000000 0.146147
#
# Coordination Sequence:
#
# PCOD8282405 Si02
#       6
#    16  16  16  16   8  16
#     4  10  20  40  66  94 128 172 229 282 332 392
#     4  11  24  40  67  97 134 182 232 286 348 416
#     4  10  22  40  65  95 130 181 233 280 344 401
#     4  10  23  40  68  99 135 175 230 279 342 409
#     4  10  24  43  60  98 136 182 225 292 350 410
#     4  10  24  42  68 104 144 179 218 278 346 418
#
# _framework density 23.982661
#
# number of rings (size 3 to 8) (size 9 to 14) (size 15 to 20)
#    0.000    1.818    1.818    0.545    5.091    5.091 
#    0.000    8.182    0.000   13.091    0.000    0.000 
#    0.000    0.000    0.000    0.000    0.000    0.000 
#
# Total GULP energy -545121.162369 kJ/mol
# GULP energy per Si atom -12389.117327 kJ/mol
# Density = 2.392808 g / cm^3
# Si number density = 23.982661 Si / 1000 Ang^3
#
#
#
# Elastic Constant Matrix: (Units=GPa)
#
#
# Indices 1 2 3 4 5 6 
#
# 1 97.1891 23.8820 -6.9759 0.0000 0.0000 0.0000
# 2 23.8820 151.8156 2.1745 0.0000 0.0000 0.0000
# 3 -6.9759 2.1745 54.5564 0.0000 0.0000 0.0000
# 4 0.0000 0.0000 0.0000 30.3351 0.0000 0.0000
# 5 0.0000 0.0000 0.0000 0.0000 17.3184 0.0000
# 6 0.0000 0.0000 0.0000 0.0000 0.0000 17.1953
#
#
#
# Elastic Compliance Matrix: (Units=1/GPa)
#
#
# Indices 1 2 3 4 5 6 
#
# 1 0.010817 -0.001722 0.001452 0.000000 0.000000 0.000000
# 2 -0.001722 0.006865 -0.000494 0.000000 0.000000 0.000000
# 3 0.001452 -0.000494 0.018535 0.000000 0.000000 0.000000
# 4 0.000000 0.000000 0.000000 0.032965 0.000000 0.000000
# 5 0.000000 0.000000 0.000000 0.000000 0.057742 0.000000
# 6 0.000000 0.000000 0.000000 0.000000 0.000000 0.058155
#
#
# Mechanical properties :
#
#
# Convention : Reuss Voigt Hill
#
# Bulk Modulus (GPa) = 28.82872 37.96914 33.39893
# Shear Modulus (GPa) = 25.23079 31.93513 28.58296
#
# Velocity S-wave (km/s) = 3.24704 3.65306 3.45602
# Velocity P-wave (km/s) = 5.10925 5.80167 5.46644
#
# Compressibility (1/GPa) = 0.03468764
#
# Stress axis : x y z
#
# Youngs Moduli (GPa) = 92.45010 145.66739 53.95205
#
# Poissons Ratio (x) = 0.25089 -0.07832
# Poissons Ratio (y) = 0.15923 0.02664
# Poissons Ratio (z) = -0.13421 0.07194
#
# Static dielectric constant tensor:
#      x y z
#    x 4.030820 0.000000 0.000000 
#    y 0.000000 4.906930 0.000000 
#    z 0.000000 0.000000 3.980750 
# 
# 
# High freq. dielectric constant tensor:
#      x y z
#    x 1.920940 0.000000 0.000000 
#    y 0.000000 1.979170 0.000000 
#    z 0.000000 0.000000 1.923400 
# 
# From -- ./inp_files/42394.got.cif
#   From: 2010.03.12/outbox.cif.g09.slc.cpg/sg68_22_cif.got.tgz:42394.got - 2010.04.10 23:14:56.
