data_PCOD8282075
_publ_section_title
;
Structure prediction by ZEFSAII (Michael W. Deem and Ramdas Pophale) SiO2 
 PCOD8282075
Probable space group: C C C A
;
_chemical_formula_sum "Si O2"
_cell_formula_units_Z 128
_cell_length_a 24.493022
_cell_length_b 12.237708
_cell_length_c 23.087136
_cell_angle_alpha 90.000000
_cell_angle_beta 90.000000
_cell_angle_gamma 90.000000
_cell_volume 6920.102389
_symmetry_space_group_name_H-M "C C C A"
_symmetry_group_IT_number 68
_space_group.IT_coordinate_system_code '2'
_symmetry_cell_setting 'orthorhombic'
loop_
_space_group_symop_operation_xyz
x,y,z
-x,1/2-y,z
x,1/2-y,1/2-z
-x,y,1/2-z
-x,-y,-z
x,1/2+y,-z
-x,1/2+y,1/2+z
x,-y,1/2+z
1/2+x,1/2+y,z
1/2-x,-y,z
1/2+x,-y,1/2-z
1/2-x,1/2+y,1/2-z
1/2-x,1/2-y,-z
1/2+x,y,-z
1/2-x,y,1/2+z
1/2+x,1/2-y,1/2+z
loop_
_atom_site_type_symbol
_atom_site_label
_atom_site_fract_x
_atom_site_fract_y
_atom_site_fract_z
Si Si1 0.788491 0.592785 0.147413
Si Si2 0.217984 0.728629 0.940690
Si Si3 0.139895 0.904240 0.941898
Si Si4 0.440469 0.757594 0.504532
Si Si5 0.044798 0.926437 0.106173
Si Si6 0.388956 0.788914 0.686882
Si Si7 0.640664 0.965385 0.443591
Si Si8 0.419642 0.099396 0.400464
O O1 0.750000 0.500000 0.178677
O O2 0.754558 0.678800 0.109405
O O3 0.826545 0.664593 0.190075
O O4 0.827619 0.524803 0.107060
O O5 0.194458 0.845216 0.918123
O O6 0.164444 0.654842 0.953625
O O7 0.250000 0.750000 0.000000
O O8 0.117799 0.991560 0.895662
O O9 0.096046 0.809218 0.954819
O O10 0.154402 0.963183 0.001093
O O11 0.500000 0.750000 0.475877
O O12 0.444791 0.827981 0.562500
O O13 0.418414 0.641417 0.531495
O O14 0.070591 0.886735 0.167204
O O15 0.980476 0.942701 0.115326
O O16 0.076467 0.032246 0.078024
O O17 0.406921 0.750000 0.750000
O O18 0.394450 0.686144 0.643667
#
# Coordination Sequence:
#
# PCOD8282075 Si02
#       8
#    16  16  16  16  16  16  16  16
#     4   9  19  37  53  73 102 139 189 217 258 318
#     4  11  21  31  48  72 102 148 191 215 251 307
#     4  11  20  28  45  73 108 143 172 216 254 303
#     4   8  16  30  46  67 103 146 173 196 248 319
#     4   8  17  33  52  75 103 133 169 218 267 320
#     4  10  20  37  60  80 100 133 175 231 276 312
#     4   9  18  32  49  70 103 143 182 211 253 319
#     4  10  20  32  49  78 111 134 170 220 266 325
#
# _framework density 18.496835999999998
#
# number of rings (size 3 to 8) (size 9 to 14) (size 15 to 20)
#    0.000    2.500    1.250    2.625    1.750    6.500 
#    0.000    1.250    0.000    0.000    0.000    0.000 
#    0.000    6.000    0.000    0.000    0.000    0.000 
#
# Total GULP energy -792866.858743 kJ/mol
# GULP energy per Si atom -12388.544668 kJ/mol
# Density = 1.845474 g / cm^3
# Si number density = 18.496836 Si / 1000 Ang^3
#
#
#
# Elastic Constant Matrix: (Units=GPa)
#
#
# Indices 1 2 3 4 5 6 
#
# 1 75.7316 45.5765 7.3025 0.0000 0.0000 0.0000
# 2 45.5765 85.0153 14.4556 0.0000 0.0000 0.0000
# 3 7.3025 14.4556 38.3840 0.0000 0.0000 0.0000
# 4 0.0000 0.0000 0.0000 14.6350 0.0000 0.0000
# 5 0.0000 0.0000 0.0000 0.0000 13.7447 0.0000
# 6 0.0000 0.0000 0.0000 0.0000 0.0000 29.8989
#
#
#
# Elastic Compliance Matrix: (Units=1/GPa)
#
#
# Indices 1 2 3 4 5 6 
#
# 1 0.019496 -0.010493 0.000243 0.000000 0.000000 0.000000
# 2 -0.010493 0.018215 -0.004863 0.000000 0.000000 0.000000
# 3 0.000243 -0.004863 0.027838 0.000000 0.000000 0.000000
# 4 0.000000 0.000000 0.000000 0.068330 0.000000 0.000000
# 5 0.000000 0.000000 0.000000 0.000000 0.072755 0.000000
# 6 0.000000 0.000000 0.000000 0.000000 0.000000 0.033446
#
#
# Mechanical properties :
#
#
# Convention : Reuss Voigt Hill
#
# Bulk Modulus (GPa) = 28.31175 37.08891 32.70033
# Shear Modulus (GPa) = 17.72540 20.44214 19.08377
#
# Velocity S-wave (km/s) = 3.09899 3.32802 3.21554
# Velocity P-wave (km/s) = 5.30514 5.90446 5.61280
#
# Compressibility (1/GPa) = 0.03532103
#
# Stress axis : x y z
#
# Youngs Moduli (GPa) = 51.29260 54.90035 35.92213
#
# Poissons Ratio (x) = 0.57607 -0.00872
# Poissons Ratio (y) = 0.53821 0.17471
# Poissons Ratio (z) = -0.01244 0.26701
#
# Static dielectric constant tensor:
#      x y z
#    x 4.538840 0.000000 0.000000 
#    y 0.000000 3.752810 0.000000 
#    z 0.000000 0.000000 2.860990 
# 
# 
# High freq. dielectric constant tensor:
#      x y z
#    x 1.734880 0.000000 0.000000 
#    y 0.000000 1.721260 0.000000 
#    z 0.000000 0.000000 1.651420 
# 
# From -- ./inp_files/47359.got.cif
#   From: 2010.03.12/outbox.cif.g09.slc.cpg/sg68_24_cif.got.tgz:47359.got - 2010.04.10 23:14:56.
