data_PCOD8282883
_publ_section_title
;
Structure prediction by ZEFSAII (Michael W. Deem and Ramdas Pophale) SiO2 
 PCOD8282883
Probable space group: C C C A
;
_chemical_formula_sum "Si O2"
_cell_formula_units_Z 64
_cell_length_a 8.750273
_cell_length_b 12.124926
_cell_length_c 27.691138
_cell_angle_alpha 90.000000
_cell_angle_beta 90.000000
_cell_angle_gamma 90.000000
_cell_volume 2937.930403
_symmetry_space_group_name_H-M "C C C A"
_symmetry_group_IT_number 68
_space_group.IT_coordinate_system_code '2'
_symmetry_cell_setting 'orthorhombic'
loop_
_space_group_symop_operation_xyz
x,y,z
-x,1/2-y,z
x,1/2-y,1/2-z
-x,y,1/2-z
-x,-y,-z
x,1/2+y,-z
-x,1/2+y,1/2+z
x,-y,1/2+z
1/2+x,1/2+y,z
1/2-x,-y,z
1/2+x,-y,1/2-z
1/2-x,1/2+y,1/2-z
1/2-x,1/2-y,-z
1/2+x,y,-z
1/2-x,y,1/2+z
1/2+x,1/2-y,1/2+z
loop_
_atom_site_type_symbol
_atom_site_label
_atom_site_fract_x
_atom_site_fract_y
_atom_site_fract_z
Si Si1 0.430009 0.481678 0.850599
Si Si2 0.500000 0.569911 0.750000
Si Si3 0.000000 0.250000 0.331116
Si Si4 0.750000 0.500000 0.000753
Si Si5 0.004612 0.380661 0.560814
Si Si6 0.746569 0.750000 0.250000
O O1 0.250000 0.500000 0.852398
O O2 0.499390 0.492693 0.796875
O O3 0.476436 0.356539 0.865764
O O4 0.513086 0.567821 0.885712
O O5 0.652121 0.641351 0.747103
O O6 0.150158 0.241644 0.298491
O O7 0.654455 0.583807 0.968100
O O8 0.853935 0.575745 0.034472
O O9 0.000000 0.250000 0.565705
#
# Coordination Sequence:
#
# PCOD8282883 Si02
#       6
#    16   8   8   8  16   8
#     4  12  26  44  67 105 145 187 236 289 347 421
#     4  11  24  41  66  98 142 185 235 280 348 406
#     4  11  24  42  64  94 140 184 234 288 342 399
#     4  10  24  50  74 110 138 182 230 298 362 418
#     4  11  25  47  77 107 143 181 236 291 356 422
#     4  10  22  40  66  92 130 192 236 288 334 404
#
# _framework density 21.784043
#
# number of rings (size 3 to 8) (size 9 to 14) (size 15 to 20)
#    0.000    1.000    3.750    2.250    3.500    4.000 
#    9.000    0.000    0.000    0.000    0.000    0.000 
#    0.000    0.000    0.000    0.000    0.000    0.000 
#
# Total GULP energy -396966.837260 kJ/mol
# GULP energy per Si atom -12405.213664 kJ/mol
# Density = 2.173446 g / cm^3
# Si number density = 21.784043 Si / 1000 Ang^3
#
#
#
# Elastic Constant Matrix: (Units=GPa)
#
#
# Indices 1 2 3 4 5 6 
#
# 1 106.6745 51.4653 28.3154 0.0000 0.0000 0.0000
# 2 51.4653 210.6357 60.0972 0.0000 0.0000 0.0000
# 3 28.3154 60.0972 121.2439 0.0000 0.0000 0.0000
# 4 0.0000 0.0000 0.0000 37.0749 0.0000 0.0000
# 5 0.0000 0.0000 0.0000 0.0000 21.0686 0.0000
# 6 0.0000 0.0000 0.0000 0.0000 0.0000 111.9071
#
#
#
# Elastic Compliance Matrix: (Units=1/GPa)
#
#
# Indices 1 2 3 4 5 6 
#
# 1 0.010833 -0.002242 -0.001419 0.000000 0.000000 0.000000
# 2 -0.002242 0.005994 -0.002447 0.000000 0.000000 0.000000
# 3 -0.001419 -0.002447 0.009792 0.000000 0.000000 0.000000
# 4 0.000000 0.000000 0.000000 0.026972 0.000000 0.000000
# 5 0.000000 0.000000 0.000000 0.000000 0.047464 0.000000
# 6 0.000000 0.000000 0.000000 0.000000 0.000000 0.008936
#
#
# Mechanical properties :
#
#
# Convention : Reuss Voigt Hill
#
# Bulk Modulus (GPa) = 69.43165 79.81221 74.62193
# Shear Modulus (GPa) = 39.36789 53.92185 46.64487
#
# Velocity S-wave (km/s) = 4.25572 4.98063 4.63237
# Velocity P-wave (km/s) = 7.48933 8.35422 7.93357
#
# Compressibility (1/GPa) = 0.01440265
#
# Stress axis : x y z
#
# Youngs Moduli (GPa) = 92.31467 166.84565 102.12258
#
# Poissons Ratio (x) = 0.37407 0.14486
# Poissons Ratio (y) = 0.20697 0.24992
# Poissons Ratio (z) = 0.13095 0.40831
#
# Static dielectric constant tensor:
#      x y z
#    x 4.317350 0.000000 0.000000 
#    y 0.000000 4.274940 0.000000 
#    z 0.000000 0.000000 3.957760 
# 
# 
# High freq. dielectric constant tensor:
#      x y z
#    x 1.869710 0.000000 0.000000 
#    y 0.000000 1.873610 0.000000 
#    z 0.000000 0.000000 1.846660 
# 
# From -- ./inp_files/53845.got.cif
#   From: 2010.03.12/outbox.cif.g09.slc.cpg/sg68_27_cif.got.tgz:53845.got - 2010.04.10 23:14:56.
