data_PCOD8282719
_publ_section_title
;
Structure prediction by ZEFSAII (Michael W. Deem and Ramdas Pophale) SiO2 
 PCOD8282719
Probable space group: C C C A
;
_chemical_formula_sum "Si O2"
_cell_formula_units_Z 116
_cell_length_a 26.880973
_cell_length_b 24.456377
_cell_length_c 8.765408
_cell_angle_alpha 90.000000
_cell_angle_beta 90.000000
_cell_angle_gamma 90.000000
_cell_volume 5762.477478
_symmetry_space_group_name_H-M "C C C A"
_symmetry_group_IT_number 68
_space_group.IT_coordinate_system_code '2'
_symmetry_cell_setting 'orthorhombic'
loop_
_space_group_symop_operation_xyz
x,y,z
-x,1/2-y,z
x,1/2-y,1/2-z
-x,y,1/2-z
-x,-y,-z
x,1/2+y,-z
-x,1/2+y,1/2+z
x,-y,1/2+z
1/2+x,1/2+y,z
1/2-x,-y,z
1/2+x,-y,1/2-z
1/2-x,1/2+y,1/2-z
1/2-x,1/2-y,-z
1/2+x,y,-z
1/2-x,y,1/2+z
1/2+x,1/2-y,1/2+z
loop_
_atom_site_type_symbol
_atom_site_label
_atom_site_fract_x
_atom_site_fract_y
_atom_site_fract_z
Si Si1 0.229125 0.438220 0.516680
Si Si2 0.892153 0.314251 0.241257
Si Si3 0.028685 0.114610 0.401133
Si Si4 0.058954 0.660585 0.076806
Si Si5 0.107343 0.966635 0.984535
Si Si6 0.872608 0.068965 0.681006
Si Si7 0.814204 0.598342 0.801530
Si Si8 0.500000 0.250000 0.250000
O O1 0.250000 0.500000 0.534304
O O2 0.184408 0.424113 0.632206
O O3 0.212414 0.426874 0.345633
O O4 0.273201 0.396587 0.564593
O O5 0.884834 0.250000 0.250000
O O6 0.933043 0.335583 0.363664
O O7 0.838845 0.342643 0.271043
O O8 0.909227 0.327868 0.072340
O O9 0.054387 0.061195 0.467532
O O10 0.000000 0.097004 0.250000
O O11 0.991945 0.130181 0.536227
O O12 0.095099 0.624967 0.186731
O O13 0.039885 0.715733 0.153512
O O14 0.143496 0.943492 0.854116
O O15 0.101269 0.030771 0.947560
O O16 0.128887 0.958050 0.152557
#
# Coordination Sequence:
#
# PCOD8282719 Si02
#       8
#    16  16  16  16  16  16  16   4
#     4  12  23  39  67  96 124 166 213 268 325 400
#     4  10  21  41  68  92 127 169 220 279 328 382
#     4   9  21  40  64  93 128 171 215 263 322 392
#     4  11  23  42  65  97 132 170 229 270 328 384
#     4  11  24  40  60  95 135 174 209 261 330 393
#     4  12  25  40  65  96 135 172 212 272 327 390
#     4  11  23  41  64  95 127 167 220 267 330 395
#     4  12  24  40  66  92 128 184 224 282 314 392
#
# _framework density 20.130230000000001
#
# number of rings (size 3 to 8) (size 9 to 14) (size 15 to 20)
#    0.000    1.103    2.759    3.724    3.862    3.586 
#    1.241    0.690    1.517    0.000    0.000    0.000 
#    0.000    0.000    0.000    0.000    0.000    0.000 
#
# Total GULP energy -719162.983330 kJ/mol
# GULP energy per Si atom -12399.361782 kJ/mol
# Density = 2.008441 g / cm^3
# Si number density = 20.130230 Si / 1000 Ang^3
#
#
#
# Elastic Constant Matrix: (Units=GPa)
#
#
# Indices 1 2 3 4 5 6 
#
# 1 117.2337 48.2173 29.6440 0.0000 0.0000 0.0000
# 2 48.2173 84.5552 9.4919 0.0000 0.0000 0.0000
# 3 29.6440 9.4919 71.4126 0.0000 0.0000 0.0000
# 4 0.0000 0.0000 0.0000 23.7594 0.0000 0.0000
# 5 0.0000 0.0000 0.0000 0.0000 15.5701 0.0000
# 6 0.0000 0.0000 0.0000 0.0000 0.0000 30.4165
#
#
#
# Elastic Compliance Matrix: (Units=1/GPa)
#
#
# Indices 1 2 3 4 5 6 
#
# 1 0.012286 -0.006531 -0.004232 0.000000 0.000000 0.000000
# 2 -0.006531 0.015478 0.000654 0.000000 0.000000 0.000000
# 3 -0.004232 0.000654 0.015673 0.000000 0.000000 0.000000
# 4 0.000000 0.000000 0.000000 0.042089 0.000000 0.000000
# 5 0.000000 0.000000 0.000000 0.000000 0.064226 0.000000
# 6 0.000000 0.000000 0.000000 0.000000 0.000000 0.032877
#
#
# Mechanical properties :
#
#
# Convention : Reuss Voigt Hill
#
# Bulk Modulus (GPa) = 43.06954 49.76755 46.41855
# Shear Modulus (GPa) = 23.74327 26.33909 25.04118
#
# Velocity S-wave (km/s) = 3.43809 3.62115 3.53081
# Velocity P-wave (km/s) = 6.09938 6.50078 6.30328
#
# Compressibility (1/GPa) = 0.02321826
#
# Stress axis : x y z
#
# Youngs Moduli (GPa) = 81.39144 64.60970 63.80410
#
# Poissons Ratio (x) = 0.42198 0.27002
# Poissons Ratio (y) = 0.53158 -0.04172
# Poissons Ratio (z) = 0.34445 -0.04225
#
# Static dielectric constant tensor:
#      x y z
#    x 3.911650 0.000000 0.000000 
#    y 0.000000 3.625560 0.000000 
#    z 0.000000 0.000000 3.750780 
# 
# 
# High freq. dielectric constant tensor:
#      x y z
#    x 1.797130 0.000000 0.000000 
#    y 0.000000 1.764440 0.000000 
#    z 0.000000 0.000000 1.798390 
# 
# From -- ./inp_files/8368.got.cif
#   From: 2010.03.12/outbox.cif.g09.slc.cpg/sg68_5_cif.got.tgz:8368.got - 2010.04.10 23:14:56.
