data_PCOD8282308
_publ_section_title
;
Structure prediction by ZEFSAII (Michael W. Deem and Ramdas Pophale) SiO2 
 PCOD8282308
Probable space group: C C C A
;
_chemical_formula_sum "Si O2"
_cell_formula_units_Z 112
_cell_length_a 14.484589
_cell_length_b 23.282996
_cell_length_c 15.237831
_cell_angle_alpha 90.000000
_cell_angle_beta 90.000000
_cell_angle_gamma 90.000000
_cell_volume 5138.876643
_symmetry_space_group_name_H-M "C C C A"
_symmetry_group_IT_number 68
_space_group.IT_coordinate_system_code '2'
_symmetry_cell_setting 'orthorhombic'
loop_
_space_group_symop_operation_xyz
x,y,z
-x,1/2-y,z
x,1/2-y,1/2-z
-x,y,1/2-z
-x,-y,-z
x,1/2+y,-z
-x,1/2+y,1/2+z
x,-y,1/2+z
1/2+x,1/2+y,z
1/2-x,-y,z
1/2+x,-y,1/2-z
1/2-x,1/2+y,1/2-z
1/2-x,1/2-y,-z
1/2+x,y,-z
1/2-x,y,1/2+z
1/2+x,1/2-y,1/2+z
loop_
_atom_site_type_symbol
_atom_site_label
_atom_site_fract_x
_atom_site_fract_y
_atom_site_fract_z
Si Si1 0.770191 0.666512 0.418536
Si Si2 0.228486 0.634140 0.270863
Si Si3 0.392539 0.911827 0.470147
Si Si4 0.406248 0.436242 0.724485
Si Si5 0.151658 0.470741 0.858407
Si Si6 0.040554 0.690498 0.983672
Si Si7 0.165004 0.729616 0.845918
O O1 0.811798 0.653697 0.322114
O O2 0.709905 0.615897 0.463486
O O3 0.861247 0.675633 0.473982
O O4 0.700732 0.720527 0.411064
O O5 0.325186 0.605208 0.249146
O O6 0.157631 0.592336 0.317218
O O7 0.248764 0.685655 0.338201
O O8 0.408368 0.947933 0.380324
O O9 0.397564 0.959792 0.547669
O O10 0.469707 0.862615 0.486858
O O11 0.500000 0.403635 0.750000
O O12 0.404548 0.493297 0.785831
O O13 0.250000 0.500000 0.875484
O O14 0.070343 0.702791 0.883342
O O15 0.000000 0.750000 0.025040
O O16 0.137375 0.750000 0.750000
#
# Coordination Sequence:
#
# PCOD8282308 Si02
#       7
#    16  16  16  16  16  16  16
#     4  10  22  40  61  93 135 175 215 267 322 400
#     4   9  20  39  65  87 124 174 220 264 329 382
#     4  11  24  42  67  98 131 177 219 270 347 391
#     4  10  22  41  62  93 127 161 222 285 323 387
#     4  10  23  42  66  93 124 174 224 278 331 397
#     4  12  24  37  62  99 136 172 215 270 327 407
#     4  10  20  38  64  92 129 177 217 269 328 390
#
# _framework density 21.794646
#
# number of rings (size 3 to 8) (size 9 to 14) (size 15 to 20)
#    0.000    1.714    1.429    2.143    2.000    6.000 
#    0.000    0.000    0.000    0.000    0.000    0.000 
#    0.000    0.000    0.000    0.000    0.000    0.000 
#
# Total GULP energy -693953.367961 kJ/mol
# GULP energy per Si atom -12392.024428 kJ/mol
# Density = 2.174504 g / cm^3
# Si number density = 21.794646 Si / 1000 Ang^3
#
#
#
# Elastic Constant Matrix: (Units=GPa)
#
#
# Indices 1 2 3 4 5 6 
#
# 1 74.4597 5.1522 36.7113 0.0000 0.0000 0.0000
# 2 5.1522 78.3447 44.7069 0.0000 0.0000 0.0000
# 3 36.7113 44.7069 117.0479 0.0000 0.0000 0.0000
# 4 0.0000 0.0000 0.0000 38.6389 0.0000 0.0000
# 5 0.0000 0.0000 0.0000 0.0000 2.9948 0.0000
# 6 0.0000 0.0000 0.0000 0.0000 0.0000 5.1117
#
#
#
# Elastic Compliance Matrix: (Units=1/GPa)
#
#
# Indices 1 2 3 4 5 6 
#
# 1 0.016218 0.002348 -0.005983 0.000000 0.000000 0.000000
# 2 0.002348 0.016661 -0.007100 0.000000 0.000000 0.000000
# 3 -0.005983 -0.007100 0.013132 0.000000 0.000000 0.000000
# 4 0.000000 0.000000 0.000000 0.025881 0.000000 0.000000
# 5 0.000000 0.000000 0.000000 0.000000 0.333912 0.000000
# 6 0.000000 0.000000 0.000000 0.000000 0.000000 0.195631
#
#
# Mechanical properties :
#
#
# Convention : Reuss Voigt Hill
#
# Bulk Modulus (GPa) = 40.75043 49.22146 44.98595
# Shear Modulus (GPa) = 7.92285 21.56786 14.74536
#
# Velocity S-wave (km/s) = 1.90870 3.14919 2.60390
# Velocity P-wave (km/s) = 4.85752 5.98803 5.45216
#
# Compressibility (1/GPa) = 0.02453962
#
# Stress axis : x y z
#
# Youngs Moduli (GPa) = 61.66141 60.01882 76.14917
#
# Poissons Ratio (x) = -0.14091 0.45562
# Poissons Ratio (y) = -0.14477 0.54068
# Poissons Ratio (z) = 0.36894 0.42615
#
# Static dielectric constant tensor:
#      x y z
#    x 3.808170 0.000000 0.000000 
#    y 0.000000 4.183870 0.000000 
#    z 0.000000 0.000000 4.255470 
# 
# 
# High freq. dielectric constant tensor:
#      x y z
#    x 1.844030 0.000000 0.000000 
#    y 0.000000 1.852800 0.000000 
#    z 0.000000 0.000000 1.868940 
# 
# From -- ./inp_files/22619.got.cif
#   From: 2010.03.12/outbox.cif.g09.slc.cpg/sg68_12_cif.got.tgz:22619.got - 2010.04.10 23:14:56.
