data_PCOD8282349
_publ_section_title
;
Structure prediction by ZEFSAII (Michael W. Deem and Ramdas Pophale) SiO2 
 PCOD8282349
Probable space group: C C C A
;
_chemical_formula_sum "Si O2"
_cell_formula_units_Z 112
_cell_length_a 21.867710
_cell_length_b 16.779974
_cell_length_c 14.609445
_cell_angle_alpha 90.000000
_cell_angle_beta 90.000000
_cell_angle_gamma 90.000000
_cell_volume 5360.783981
_symmetry_space_group_name_H-M "C C C A"
_symmetry_group_IT_number 68
_space_group.IT_coordinate_system_code '2'
_symmetry_cell_setting 'orthorhombic'
loop_
_space_group_symop_operation_xyz
x,y,z
-x,1/2-y,z
x,1/2-y,1/2-z
-x,y,1/2-z
-x,-y,-z
x,1/2+y,-z
-x,1/2+y,1/2+z
x,-y,1/2+z
1/2+x,1/2+y,z
1/2-x,-y,z
1/2+x,-y,1/2-z
1/2-x,1/2+y,1/2-z
1/2-x,1/2-y,-z
1/2+x,y,-z
1/2-x,y,1/2+z
1/2+x,1/2-y,1/2+z
loop_
_atom_site_type_symbol
_atom_site_label
_atom_site_fract_x
_atom_site_fract_y
_atom_site_fract_z
Si Si1 0.316456 0.023990 0.882038
Si Si2 0.845719 0.439601 0.708053
Si Si3 0.178612 0.302717 0.069033
Si Si4 0.061826 0.207069 0.009771
Si Si5 0.436146 0.673213 0.702811
Si Si6 0.630623 0.053643 0.946676
Si Si7 0.244769 0.153755 0.105788
O O1 0.333366 0.117368 0.874618
O O2 0.250000 0.000000 0.921848
O O3 0.316259 0.003846 0.774895
O O4 0.364693 0.979575 0.949493
O O5 0.892962 0.400121 0.777658
O O6 0.881832 0.479478 0.622249
O O7 0.794452 0.375789 0.678497
O O8 0.211279 0.236695 0.134383
O O9 0.116601 0.268431 0.025881
O O10 0.223424 0.329757 0.989749
O O11 0.054180 0.188682 0.903609
O O12 0.000000 0.250000 0.047635
O O13 0.077773 0.121979 0.058786
O O14 0.405395 0.750000 0.750000
O O15 0.500000 0.654843 0.750000
O O16 0.695304 0.085660 0.911247
#
# Coordination Sequence:
#
# PCOD8282349 Si02
#       7
#    16  16  16  16  16  16  16
#     4  12  22  38  64  96 137 172 212 274 339 398
#     4  12  24  40  65 101 132 176 220 278 338 394
#     4  10  22  39  66  92 131 173 220 266 338 406
#     4  11  23  45  68  93 128 184 223 276 337 398
#     4  11  23  40  63  95 133 163 227 287 325 391
#     4  11  22  42  63  97 136 169 223 274 333 406
#     4  10  20  39  64  91 132 173 210 271 331 405
#
# _framework density 20.892465999999999
#
# number of rings (size 3 to 8) (size 9 to 14) (size 15 to 20)
#    0.000    1.000    5.714    2.143    0.000    1.143 
#    2.571    8.571    0.000    0.857    0.000    0.000 
#    0.000    0.000    0.000    0.000    0.000    0.000 
#
# Total GULP energy -694045.662892 kJ/mol
# GULP energy per Si atom -12393.672552 kJ/mol
# Density = 2.084491 g / cm^3
# Si number density = 20.892466 Si / 1000 Ang^3
#
#
#
# Elastic Constant Matrix: (Units=GPa)
#
#
# Indices 1 2 3 4 5 6 
#
# 1 87.5032 42.4669 28.5089 0.0000 0.0000 0.0000
# 2 42.4669 113.7139 34.1334 0.0000 0.0000 0.0000
# 3 28.5089 34.1334 79.4634 0.0000 0.0000 0.0000
# 4 0.0000 0.0000 0.0000 18.4144 0.0000 0.0000
# 5 0.0000 0.0000 0.0000 0.0000 19.7534 0.0000
# 6 0.0000 0.0000 0.0000 0.0000 0.0000 29.2144
#
#
#
# Elastic Compliance Matrix: (Units=1/GPa)
#
#
# Indices 1 2 3 4 5 6 
#
# 1 0.014694 -0.004483 -0.003346 0.000000 0.000000 0.000000
# 2 -0.004483 0.011464 -0.003316 0.000000 0.000000 0.000000
# 3 -0.003346 -0.003316 0.015209 0.000000 0.000000 0.000000
# 4 0.000000 0.000000 0.000000 0.054305 0.000000 0.000000
# 5 0.000000 0.000000 0.000000 0.000000 0.050624 0.000000
# 6 0.000000 0.000000 0.000000 0.000000 0.000000 0.034230
#
#
# Mechanical properties :
#
#
# Convention : Reuss Voigt Hill
#
# Bulk Modulus (GPa) = 52.41948 54.54433 53.48191
# Shear Modulus (GPa) = 23.90345 25.18119 24.54232
#
# Velocity S-wave (km/s) = 3.38615 3.47548 3.43110
# Velocity P-wave (km/s) = 6.35867 6.50147 6.43046
#
# Compressibility (1/GPa) = 0.01907688
#
# Stress axis : x y z
#
# Youngs Moduli (GPa) = 68.05460 87.23311 65.75007
#
# Poissons Ratio (x) = 0.39108 0.22000
# Poissons Ratio (y) = 0.30510 0.21801
# Poissons Ratio (z) = 0.22771 0.28924
#
# Static dielectric constant tensor:
#      x y z
#    x 3.715330 0.000000 0.000000 
#    y 0.000000 4.307780 0.000000 
#    z 0.000000 0.000000 3.531440 
# 
# 
# High freq. dielectric constant tensor:
#      x y z
#    x 1.797860 0.000000 0.000000 
#    y 0.000000 1.837080 0.000000 
#    z 0.000000 0.000000 1.806100 
# 
# From -- ./inp_files/25433.got.cif
#   From: 2010.03.12/outbox.cif.g09.slc.cpg/sg68_13_cif.got.tgz:25433.got - 2010.04.10 23:14:56.
