data_PCOD8282968
_publ_section_title
;
Structure prediction by ZEFSAII (Michael W. Deem and Ramdas Pophale) SiO2 
 PCOD8282968
Probable space group: C C C A
;
_chemical_formula_sum "Si O2"
_cell_formula_units_Z 72
_cell_length_a 26.910322
_cell_length_b 8.847613
_cell_length_c 12.656605
_cell_angle_alpha 90.000000
_cell_angle_beta 90.000000
_cell_angle_gamma 90.000000
_cell_volume 3013.437850
_symmetry_space_group_name_H-M "C C C A"
_symmetry_group_IT_number 68
_space_group.IT_coordinate_system_code '2'
_symmetry_cell_setting 'orthorhombic'
loop_
_space_group_symop_operation_xyz
x,y,z
-x,1/2-y,z
x,1/2-y,1/2-z
-x,y,1/2-z
-x,-y,-z
x,1/2+y,-z
-x,1/2+y,1/2+z
x,-y,1/2+z
1/2+x,1/2+y,z
1/2-x,-y,z
1/2+x,-y,1/2-z
1/2-x,1/2+y,1/2-z
1/2-x,1/2-y,-z
1/2+x,y,-z
1/2-x,y,1/2+z
1/2+x,1/2-y,1/2+z
loop_
_atom_site_type_symbol
_atom_site_label
_atom_site_fract_x
_atom_site_fract_y
_atom_site_fract_z
Si Si1 0.500000 0.750000 0.423888
Si Si2 0.922826 0.250000 0.750000
Si Si3 0.601227 0.157279 0.034370
Si Si4 0.000000 0.507355 0.750000
Si Si5 0.663950 0.888182 0.061207
Si Si6 0.212262 0.250000 0.250000
Si Si7 0.750000 0.500000 0.593328
O O1 0.454616 0.693216 0.496522
O O2 0.485203 0.891272 0.350736
O O3 0.888806 0.268616 0.851658
O O4 0.953657 0.401525 0.726138
O O5 0.612090 0.979750 0.047274
O O6 0.646355 0.218240 0.963507
O O7 0.681463 0.875683 0.183174
O O8 0.705029 0.957332 0.984160
O O9 0.242882 0.349903 0.334817
#
# Coordination Sequence:
#
# PCOD8282968 Si02
#       7
#     8   8  16   8  16   8   8
#     4  11  24  47  70 104 150 203 248 321 372 448
#     4  11  24  39  66 105 140 200 251 314 375 441
#     4  12  27  45  74 106 155 196 257 312 378 454
#     4  10  22  42  70  96 142 198 262 308 384 434
#     4  12  28  50  74 116 151 199 253 317 380 462
#     4  12  28  49  88 112 156 201 251 314 403 460
#     4  12  28  54  80 116 154 194 252 324 386 466
#
# _framework density 23.892976000000001
#
# number of rings (size 3 to 8) (size 9 to 14) (size 15 to 20)
#    0.000    0.444    2.222    5.333    6.222    6.222 
#    0.000    0.000    0.000    0.000    0.000    0.000 
#    0.000    0.000    0.000    0.000    0.000    0.000 
#
# Total GULP energy -446168.577495 kJ/mol
# GULP energy per Si atom -12393.571597 kJ/mol
# Density = 2.383859 g / cm^3
# Si number density = 23.892976 Si / 1000 Ang^3
#
#
#
# Elastic Constant Matrix: (Units=GPa)
#
#
# Indices 1 2 3 4 5 6 
#
# 1 106.1646 38.1104 47.4734 0.0000 0.0000 0.0000
# 2 38.1104 124.2281 41.5739 0.0000 0.0000 0.0000
# 3 47.4734 41.5739 148.8613 0.0000 0.0000 0.0000
# 4 0.0000 0.0000 0.0000 42.8869 0.0000 0.0000
# 5 0.0000 0.0000 0.0000 0.0000 9.6037 0.0000
# 6 0.0000 0.0000 0.0000 0.0000 0.0000 24.5591
#
#
#
# Elastic Compliance Matrix: (Units=1/GPa)
#
#
# Indices 1 2 3 4 5 6 
#
# 1 0.011690 -0.002580 -0.003008 0.000000 0.000000 0.000000
# 2 -0.002580 0.009449 -0.001816 0.000000 0.000000 0.000000
# 3 -0.003008 -0.001816 0.008184 0.000000 0.000000 0.000000
# 4 0.000000 0.000000 0.000000 0.023317 0.000000 0.000000
# 5 0.000000 0.000000 0.000000 0.000000 0.104126 0.000000
# 6 0.000000 0.000000 0.000000 0.000000 0.000000 0.040718
#
#
# Mechanical properties :
#
#
# Convention : Reuss Voigt Hill
#
# Bulk Modulus (GPa) = 68.88931 70.39661 69.64296
# Shear Modulus (GPa) = 23.02761 32.21637 27.62199
#
# Velocity S-wave (km/s) = 3.10785 3.67599 3.40379
# Velocity P-wave (km/s) = 6.46323 6.89525 6.68273
#
# Compressibility (1/GPa) = 0.01451604
#
# Stress axis : x y z
#
# Youngs Moduli (GPa) = 85.54057 105.83210 122.18872
#
# Poissons Ratio (x) = 0.27303 0.36751
# Poissons Ratio (y) = 0.22068 0.22192
# Poissons Ratio (z) = 0.25728 0.19221
#
# Static dielectric constant tensor:
#      x y z
#    x 4.005390 0.000000 0.000000 
#    y 0.000000 4.588250 0.000000 
#    z 0.000000 0.000000 4.663260 
# 
# 
# High freq. dielectric constant tensor:
#      x y z
#    x 1.934240 0.000000 0.000000 
#    y 0.000000 1.970080 0.000000 
#    z 0.000000 0.000000 1.963150 
# 
# From -- ./inp_files/19536.got.cif
#   From: 2010.03.12/outbox.cif.g09.slc.cpg/sg68_10_cif.got.tgz:19536.got - 2010.04.10 23:14:56.
