data_PCOD8282631
_publ_section_title
;
Structure prediction by ZEFSAII (Michael W. Deem and Ramdas Pophale) SiO2 
 PCOD8282631
Probable space group: C C C A
;
_chemical_formula_sum "Si O2"
_cell_formula_units_Z 56
_cell_length_a 19.359602
_cell_length_b 5.493205
_cell_length_c 23.134881
_cell_angle_alpha 90.000000
_cell_angle_beta 90.000000
_cell_angle_gamma 90.000000
_cell_volume 2460.308128
_symmetry_space_group_name_H-M "C C C A"
_symmetry_group_IT_number 68
_space_group.IT_coordinate_system_code '2'
_symmetry_cell_setting 'orthorhombic'
loop_
_space_group_symop_operation_xyz
x,y,z
-x,1/2-y,z
x,1/2-y,1/2-z
-x,y,1/2-z
-x,-y,-z
x,1/2+y,-z
-x,1/2+y,1/2+z
x,-y,1/2+z
1/2+x,1/2+y,z
1/2-x,-y,z
1/2+x,-y,1/2-z
1/2-x,1/2+y,1/2-z
1/2-x,1/2-y,-z
1/2+x,y,-z
1/2-x,y,1/2+z
1/2+x,1/2-y,1/2+z
loop_
_atom_site_type_symbol
_atom_site_label
_atom_site_fract_x
_atom_site_fract_y
_atom_site_fract_z
Si Si1 0.563079 0.429067 0.352140
Si Si2 0.182175 0.384390 0.807792
Si Si3 0.076589 0.457659 0.022579
Si Si4 0.914504 0.750000 0.750000
O O1 0.500000 0.250000 0.364350
O O2 0.638202 0.302305 0.346119
O O3 0.573458 0.595321 0.408638
O O4 0.541474 0.575070 0.293307
O O5 0.208976 0.250000 0.750000
O O6 0.250000 0.500000 0.839247
O O7 0.131166 0.602564 0.794453
O O8 0.113395 0.219568 0.993184
O O9 0.000000 0.500000 0.000000
#
# Coordination Sequence:
#
# PCOD8282631 Si02
#       4
#    16  16  16   8
#     4  11  24  39  63 101 133 173 223 282 350 401
#     4  10  21  39  62  89 125 181 224 261 339 421
#     4  10  21  40  66  92 129 183 231 273 333 420
#     4  10  24  39  64  88 141 166 210 276 335 412
#
# _framework density 22.761378000000001
#
# number of rings (size 3 to 8) (size 9 to 14) (size 15 to 20)
#    0.000    1.714    4.286    0.000    4.000    7.429 
#    0.000    0.000    0.000    1.714    0.000    0.000 
#    0.000    0.000    0.000    0.000    0.000    0.000 
#
# Total GULP energy -346905.448898 kJ/mol
# GULP energy per Si atom -12389.480318 kJ/mol
# Density = 2.270957 g / cm^3
# Si number density = 22.761378 Si / 1000 Ang^3
#
#
#
# Elastic Constant Matrix: (Units=GPa)
#
#
# Indices 1 2 3 4 5 6 
#
# 1 84.9400 7.7937 15.1169 0.0000 0.0000 0.0000
# 2 7.7937 125.6462 31.7348 0.0000 0.0000 0.0000
# 3 15.1169 31.7348 142.4573 0.0000 0.0000 0.0000
# 4 0.0000 0.0000 0.0000 33.5179 0.0000 0.0000
# 5 0.0000 0.0000 0.0000 0.0000 2.8435 0.0000
# 6 0.0000 0.0000 0.0000 0.0000 0.0000 31.6428
#
#
#
# Elastic Compliance Matrix: (Units=1/GPa)
#
#
# Indices 1 2 3 4 5 6 
#
# 1 0.012023 -0.000449 -0.001176 0.000000 0.000000 0.000000
# 2 -0.000449 0.008450 -0.001835 0.000000 0.000000 0.000000
# 3 -0.001176 -0.001835 0.007553 0.000000 0.000000 0.000000
# 4 0.000000 0.000000 0.000000 0.029835 0.000000 0.000000
# 5 0.000000 0.000000 0.000000 0.000000 0.351684 0.000000
# 6 0.000000 0.000000 0.000000 0.000000 0.000000 0.031603
#
#
# Mechanical properties :
#
#
# Convention : Reuss Voigt Hill
#
# Bulk Modulus (GPa) = 47.37589 51.37047 49.37318
# Shear Modulus (GPa) = 10.98652 33.49404 22.24028
#
# Velocity S-wave (km/s) = 2.19939 3.84021 3.12926
# Velocity P-wave (km/s) = 5.22581 6.50239 5.89874
#
# Compressibility (1/GPa) = 0.02110778
#
# Stress axis : x y z
#
# Youngs Moduli (GPa) = 83.17065 118.34162 132.39502
#
# Poissons Ratio (x) = 0.05311 0.15568
# Poissons Ratio (y) = 0.03733 0.24292
# Poissons Ratio (z) = 0.09780 0.21713
#
# Static dielectric constant tensor:
#      x y z
#    x 3.667020 0.000000 0.000000 
#    y 0.000000 4.533130 0.000000 
#    z 0.000000 0.000000 3.973330 
# 
# 
# High freq. dielectric constant tensor:
#      x y z
#    x 1.853600 0.000000 0.000000 
#    y 0.000000 1.923510 0.000000 
#    z 0.000000 0.000000 1.880330 
# 
# From -- ./inp_files/41965.got.cif
#   From: 2010.03.12/outbox.cif.g09.slc.cpg/sg68_21_cif.got.tgz:41965.got - 2010.04.10 23:14:56.
