data_PCOD8282167
_publ_section_title
;
Structure prediction by ZEFSAII (Michael W. Deem and Ramdas Pophale) SiO2 
 PCOD8282167
Probable space group: C C C A
;
_chemical_formula_sum "Si O2"
_cell_formula_units_Z 96
_cell_length_a 25.555370
_cell_length_b 17.449235
_cell_length_c 10.202809
_cell_angle_alpha 90.000000
_cell_angle_beta 90.000000
_cell_angle_gamma 90.000000
_cell_volume 4549.653492
_symmetry_space_group_name_H-M "C C C A"
_symmetry_group_IT_number 68
_space_group.IT_coordinate_system_code '2'
_symmetry_cell_setting 'orthorhombic'
loop_
_space_group_symop_operation_xyz
x,y,z
-x,1/2-y,z
x,1/2-y,1/2-z
-x,y,1/2-z
-x,-y,-z
x,1/2+y,-z
-x,1/2+y,1/2+z
x,-y,1/2+z
1/2+x,1/2+y,z
1/2-x,-y,z
1/2+x,-y,1/2-z
1/2-x,1/2+y,1/2-z
1/2-x,1/2-y,-z
1/2+x,y,-z
1/2-x,y,1/2+z
1/2+x,1/2-y,1/2+z
loop_
_atom_site_type_symbol
_atom_site_label
_atom_site_fract_x
_atom_site_fract_y
_atom_site_fract_z
Si Si1 0.302641 0.337603 0.490713
Si Si2 0.350787 0.905075 0.754587
Si Si3 0.180638 0.664227 0.978273
Si Si4 0.033973 0.583325 0.356617
Si Si5 0.147933 0.572279 0.720952
Si Si6 0.029823 0.576322 0.640408
O O1 0.316253 0.351060 0.338511
O O2 0.241209 0.351020 0.506652
O O3 0.325065 0.255371 0.533774
O O4 0.329318 0.397625 0.585710
O O5 0.407461 0.915602 0.692817
O O6 0.325160 0.989714 0.755906
O O7 0.352875 0.868917 0.900119
O O8 0.159473 0.627275 0.843987
O O9 0.032593 0.620463 0.501825
O O10 0.000000 0.631553 0.250000
O O11 0.007147 0.499551 0.370289
O O12 0.086853 0.556733 0.695639
O O13 0.000000 0.628779 0.750000
#
# Coordination Sequence:
#
# PCOD8282167 Si02
#       6
#    16  16  16  16  16  16
#     4  11  25  49  61  92 138 184 223 257 337 411
#     4  12  23  39  70 106 126 165 228 284 318 382
#     4  11  27  43  69  88 136 192 211 263 343 403
#     4  10  20  35  61  97 129 167 203 265 330 402
#     4  12  23  39  70 106 126 165 228 284 318 382
#     4  10  20  35  61  97 129 167 203 265 330 402
#
# _framework density 21.100508000000001
#
# number of rings (size 3 to 8) (size 9 to 14) (size 15 to 20)
#    0.000    1.000    5.000    3.000    2.333    6.667 
#    0.000    0.000    0.000    6.000    0.000    0.000 
#    0.000    0.000    0.000    0.000    0.000    0.000 
#
# Total GULP energy -594694.973626 kJ/mol
# GULP energy per Si atom -12389.478617 kJ/mol
# Density = 2.105248 g / cm^3
# Si number density = 21.100508 Si / 1000 Ang^3
#
#
#
# Elastic Constant Matrix: (Units=GPa)
#
#
# Indices 1 2 3 4 5 6 
#
# 1 74.2143 37.3090 29.4039 0.0000 0.0000 0.0000
# 2 37.3090 47.9871 12.4110 0.0000 0.0000 0.0000
# 3 29.4039 12.4110 155.6431 0.0000 0.0000 0.0000
# 4 0.0000 0.0000 0.0000 25.2725 0.0000 0.0000
# 5 0.0000 0.0000 0.0000 0.0000 36.2128 0.0000
# 6 0.0000 0.0000 0.0000 0.0000 0.0000 53.0706
#
#
#
# Elastic Compliance Matrix: (Units=1/GPa)
#
#
# Indices 1 2 3 4 5 6 
#
# 1 0.023448 -0.017445 -0.003039 0.000000 0.000000 0.000000
# 2 -0.017445 0.034256 0.000564 0.000000 0.000000 0.000000
# 3 -0.003039 0.000564 0.006954 0.000000 0.000000 0.000000
# 4 0.000000 0.000000 0.000000 0.039569 0.000000 0.000000
# 5 0.000000 0.000000 0.000000 0.000000 0.027615 0.000000
# 6 0.000000 0.000000 0.000000 0.000000 0.000000 0.018843
#
#
# Mechanical properties :
#
#
# Convention : Reuss Voigt Hill
#
# Bulk Modulus (GPa) = 40.29090 48.45471 44.37281
# Shear Modulus (GPa) = 25.15140 36.15922 30.65531
#
# Velocity S-wave (km/s) = 3.45625 4.14414 3.81573
# Velocity P-wave (km/s) = 5.92147 6.77585 6.36301
#
# Compressibility (1/GPa) = 0.02481950
#
# Stress axis : x y z
#
# Youngs Moduli (GPa) = 42.64710 29.19204 143.80084
#
# Poissons Ratio (x) = 0.50924 0.43698
# Poissons Ratio (y) = 0.74396 -0.08111
# Poissons Ratio (z) = 0.12960 -0.01647
#
# Static dielectric constant tensor:
#      x y z
#    x 3.884900 0.000000 0.000000 
#    y 0.000000 3.563600 0.000000 
#    z 0.000000 0.000000 5.116090 
# 
# 
# High freq. dielectric constant tensor:
#      x y z
#    x 1.835630 0.000000 0.000000 
#    y 0.000000 1.784680 0.000000 
#    z 0.000000 0.000000 1.863250 
# 
# From -- ./inp_files/16422.got.cif
#   From: 2010.03.12/outbox.cif.g09.slc.cpg/sg68_9_cif.got.tgz:16422.got - 2010.04.10 23:14:56.
