data_PCOD8282425
_publ_section_title
;
Structure prediction by ZEFSAII (Michael W. Deem and Ramdas Pophale) SiO2 
 PCOD8282425
Probable space group: C C C A
;
_chemical_formula_sum "Si O2"
_cell_formula_units_Z 80
_cell_length_a 27.888274
_cell_length_b 15.112047
_cell_length_c 8.620016
_cell_angle_alpha 90.000000
_cell_angle_beta 90.000000
_cell_angle_gamma 90.000000
_cell_volume 3632.896325
_symmetry_space_group_name_H-M "C C C A"
_symmetry_group_IT_number 68
_space_group.IT_coordinate_system_code '2'
_symmetry_cell_setting 'orthorhombic'
loop_
_space_group_symop_operation_xyz
x,y,z
-x,1/2-y,z
x,1/2-y,1/2-z
-x,y,1/2-z
-x,-y,-z
x,1/2+y,-z
-x,1/2+y,1/2+z
x,-y,1/2+z
1/2+x,1/2+y,z
1/2-x,-y,z
1/2+x,-y,1/2-z
1/2-x,1/2+y,1/2-z
1/2-x,1/2-y,-z
1/2+x,y,-z
1/2-x,y,1/2+z
1/2+x,1/2-y,1/2+z
loop_
_atom_site_type_symbol
_atom_site_label
_atom_site_fract_x
_atom_site_fract_y
_atom_site_fract_z
Si Si1 0.555026 0.096895 0.541539
Si Si2 0.271152 0.313137 0.372682
Si Si3 0.093841 0.750000 0.750000
Si Si4 0.170738 0.117258 0.163868
Si Si5 0.500000 0.461707 0.250000
Si Si6 0.842705 0.454443 0.485143
O O1 0.561014 0.191191 0.633476
O O2 0.519326 0.100363 0.392090
O O3 0.604060 0.067950 0.457439
O O4 0.539469 0.025782 0.671573
O O5 0.299067 0.250000 0.250000
O O6 0.250000 0.250000 0.500000
O O7 0.223944 0.352591 0.290817
O O8 0.305640 0.387973 0.435561
O O9 0.130611 0.693325 0.857520
O O10 0.154744 0.053411 0.301412
O O11 0.171913 0.056197 0.011627
#
# Coordination Sequence:
#
# PCOD8282425 Si02
#       6
#    16  16   8  16   8  16
#     4  10  21  43  71 102 129 181 214 290 349 414
#     4  12  23  41  63  93 135 175 218 276 325 386
#     4  10  20  41  70  96 140 174 224 277 336 398
#     4  11  23  42  63  96 133 181 225 270 323 399
#     4  10  22  43  78  99 136 164 232 284 359 429
#     4  11  24  40  66  95 129 178 228 265 335 402
#
# _framework density 22.020997999999999
#
# number of rings (size 3 to 8) (size 9 to 14) (size 15 to 20)
#    0.000    1.200    3.000    4.200    2.800    2.000 
#    0.000    0.000    4.400    4.800    0.000    0.000 
#    0.000    0.000    0.000    0.000    0.000    0.000 
#
# Total GULP energy -495639.528918 kJ/mol
# GULP energy per Si atom -12390.988223 kJ/mol
# Density = 2.197088 g / cm^3
# Si number density = 22.020998 Si / 1000 Ang^3
#
#
#
# Elastic Constant Matrix: (Units=GPa)
#
#
# Indices 1 2 3 4 5 6 
#
# 1 113.6249 53.9669 38.4793 0.0000 0.0000 0.0000
# 2 53.9669 131.2338 44.0884 0.0000 0.0000 0.0000
# 3 38.4793 44.0884 79.6049 0.0000 0.0000 0.0000
# 4 0.0000 0.0000 0.0000 37.8313 0.0000 0.0000
# 5 0.0000 0.0000 0.0000 0.0000 37.6402 0.0000
# 6 0.0000 0.0000 0.0000 0.0000 0.0000 42.4943
#
#
#
# Elastic Compliance Matrix: (Units=1/GPa)
#
#
# Indices 1 2 3 4 5 6 
#
# 1 0.011759 -0.003595 -0.003693 0.000000 0.000000 0.000000
# 2 -0.003595 0.010461 -0.004056 0.000000 0.000000 0.000000
# 3 -0.003693 -0.004056 0.016594 0.000000 0.000000 0.000000
# 4 0.000000 0.000000 0.000000 0.026433 0.000000 0.000000
# 5 0.000000 0.000000 0.000000 0.000000 0.026567 0.000000
# 6 0.000000 0.000000 0.000000 0.000000 0.000000 0.023533
#
#
# Mechanical properties :
#
#
# Convention : Reuss Voigt Hill
#
# Bulk Modulus (GPa) = 62.01322 66.39253 64.20288
# Shear Modulus (GPa) = 34.86519 36.12176 35.49347
#
# Velocity S-wave (km/s) = 3.98335 4.05450 4.01908
# Velocity P-wave (km/s) = 7.02696 7.22037 7.12432
#
# Compressibility (1/GPa) = 0.01612559
#
# Stress axis : x y z
#
# Youngs Moduli (GPa) = 85.04144 95.59368 60.26448
#
# Poissons Ratio (x) = 0.34365 0.22256
# Poissons Ratio (y) = 0.30572 0.24443
# Poissons Ratio (z) = 0.31406 0.38773
#
# Static dielectric constant tensor:
#      x y z
#    x 3.776400 0.000000 0.000000 
#    y 0.000000 3.794740 0.000000 
#    z 0.000000 0.000000 3.955220 
# 
# 
# High freq. dielectric constant tensor:
#      x y z
#    x 1.869350 0.000000 0.000000 
#    y 0.000000 1.864720 0.000000 
#    z 0.000000 0.000000 1.867980 
# 
# From -- ./inp_files/8798.got.cif
#   From: 2010.03.12/outbox.cif.g09.slc.cpg/sg68_5_cif.got.tgz:8798.got - 2010.04.10 23:14:56.
