data_PCOD8282404
_publ_section_title
;
Structure prediction by ZEFSAII (Michael W. Deem and Ramdas Pophale) SiO2 
 PCOD8282404
Probable space group: C C C A
;
_chemical_formula_sum "Si O2"
_cell_formula_units_Z 96
_cell_length_a 14.007481
_cell_length_b 22.835233
_cell_length_c 13.937728
_cell_angle_alpha 90.000000
_cell_angle_beta 90.000000
_cell_angle_gamma 90.000000
_cell_volume 4458.178717
_symmetry_space_group_name_H-M "C C C A"
_symmetry_group_IT_number 68
_space_group.IT_coordinate_system_code '2'
_symmetry_cell_setting 'orthorhombic'
loop_
_space_group_symop_operation_xyz
x,y,z
-x,1/2-y,z
x,1/2-y,1/2-z
-x,y,1/2-z
-x,-y,-z
x,1/2+y,-z
-x,1/2+y,1/2+z
x,-y,1/2+z
1/2+x,1/2+y,z
1/2-x,-y,z
1/2+x,-y,1/2-z
1/2-x,1/2+y,1/2-z
1/2-x,1/2-y,-z
1/2+x,y,-z
1/2-x,y,1/2+z
1/2+x,1/2-y,1/2+z
loop_
_atom_site_type_symbol
_atom_site_label
_atom_site_fract_x
_atom_site_fract_y
_atom_site_fract_z
Si Si1 0.636564 0.221566 0.914396
Si Si2 0.788247 0.853814 0.763914
Si Si3 0.944349 0.838873 0.622072
Si Si4 0.327087 0.365538 0.075818
Si Si5 0.781409 0.434665 0.579334
Si Si6 0.512866 0.566437 0.531945
O O1 0.718361 0.201936 0.837475
O O2 0.541577 0.196374 0.863889
O O3 0.632218 0.292026 0.925018
O O4 0.649105 0.195056 0.020648
O O5 0.895112 0.859567 0.720675
O O6 0.707479 0.849709 0.682357
O O7 0.774459 0.911835 0.827681
O O8 0.964239 0.896249 0.561810
O O9 0.420367 0.407148 0.084799
O O10 0.244714 0.398996 0.017206
O O11 0.750000 0.500000 0.559124
O O12 0.894526 0.429633 0.600351
O O13 0.500000 0.500000 0.500000
#
# Coordination Sequence:
#
# PCOD8282404 Si02
#       6
#    16  16  16  16  16  16
#     4   9  21  40  64  95 128 169 222 273 322 396
#     4  11  22  37  61  94 128 164 214 275 333 388
#     4  10  20  40  66  93 128 167 222 276 325 387
#     4  10  22  41  64  94 128 170 222 265 337 396
#     4  11  23  41  61  93 128 167 226 276 324 409
#     4  11  22  40  68  89 128 179 215 275 337 395
#
# _framework density 21.533456999999999
#
# number of rings (size 3 to 8) (size 9 to 14) (size 15 to 20)
#    0.000    1.667    3.333    1.000    0.000    4.667 
#    3.000    0.000    0.000    0.000    0.000    0.000 
#    0.000    0.000    0.000    0.000    0.000    0.000 
#
# Total GULP energy -594944.064518 kJ/mol
# GULP energy per Si atom -12394.668011 kJ/mol
# Density = 2.148445 g / cm^3
# Si number density = 21.533457 Si / 1000 Ang^3
#
#
#
# Elastic Constant Matrix: (Units=GPa)
#
#
# Indices 1 2 3 4 5 6 
#
# 1 89.9626 12.9234 25.3859 0.0000 0.0000 0.0000
# 2 12.9234 142.4370 44.0845 0.0000 0.0000 0.0000
# 3 25.3859 44.0845 91.1587 0.0000 0.0000 0.0000
# 4 0.0000 0.0000 0.0000 19.1641 0.0000 0.0000
# 5 0.0000 0.0000 0.0000 0.0000 40.5256 0.0000
# 6 0.0000 0.0000 0.0000 0.0000 0.0000 27.2993
#
#
#
# Elastic Compliance Matrix: (Units=1/GPa)
#
#
# Indices 1 2 3 4 5 6 
#
# 1 0.012064 -0.000064 -0.003329 0.000000 0.000000 0.000000
# 2 -0.000064 0.008257 -0.003975 0.000000 0.000000 0.000000
# 3 -0.003329 -0.003975 0.013819 0.000000 0.000000 0.000000
# 4 0.000000 0.000000 0.000000 0.052181 0.000000 0.000000
# 5 0.000000 0.000000 0.000000 0.000000 0.024676 0.000000
# 6 0.000000 0.000000 0.000000 0.000000 0.000000 0.036631
#
#
# Mechanical properties :
#
#
# Convention : Reuss Voigt Hill
#
# Bulk Modulus (GPa) = 51.53520 54.26066 52.89793
# Shear Modulus (GPa) = 29.61527 33.47542 31.54535
#
# Velocity S-wave (km/s) = 3.71255 3.94709 3.83161
# Velocity P-wave (km/s) = 6.50860 6.78422 6.64784
#
# Compressibility (1/GPa) = 0.01940421
#
# Stress axis : x y z
#
# Youngs Moduli (GPa) = 82.88964 121.11255 72.36332
#
# Poissons Ratio (x) = 0.00780 0.24086
# Poissons Ratio (y) = 0.00534 0.28765
# Poissons Ratio (z) = 0.27590 0.48143
#
# Static dielectric constant tensor:
#      x y z
#    x 4.377070 0.000000 0.000000 
#    y 0.000000 4.024290 0.000000 
#    z 0.000000 0.000000 3.570520 
# 
# 
# High freq. dielectric constant tensor:
#      x y z
#    x 1.855420 0.000000 0.000000 
#    y 0.000000 1.850530 0.000000 
#    z 0.000000 0.000000 1.825200 
# 
# From -- ./inp_files/22341.got.cif
#   From: 2010.03.12/outbox.cif.g09.slc.cpg/sg68_12_cif.got.tgz:22341.got - 2010.04.10 23:14:56.
