data_PCOD8282429
_publ_section_title
;
Structure prediction by ZEFSAII (Michael W. Deem and Ramdas Pophale) SiO2 
 PCOD8282429
Probable space group: C C C A
;
_chemical_formula_sum "Si O2"
_cell_formula_units_Z 72
_cell_length_a 8.732201
_cell_length_b 26.430022
_cell_length_c 13.852873
_cell_angle_alpha 90.000000
_cell_angle_beta 90.000000
_cell_angle_gamma 90.000000
_cell_volume 3197.135930
_symmetry_space_group_name_H-M "C C C A"
_symmetry_group_IT_number 68
_space_group.IT_coordinate_system_code '2'
_symmetry_cell_setting 'orthorhombic'
loop_
_space_group_symop_operation_xyz
x,y,z
-x,1/2-y,z
x,1/2-y,1/2-z
-x,y,1/2-z
-x,-y,-z
x,1/2+y,-z
-x,1/2+y,1/2+z
x,-y,1/2+z
1/2+x,1/2+y,z
1/2-x,-y,z
1/2+x,-y,1/2-z
1/2-x,1/2+y,1/2-z
1/2-x,1/2-y,-z
1/2+x,y,-z
1/2-x,y,1/2+z
1/2+x,1/2-y,1/2+z
loop_
_atom_site_type_symbol
_atom_site_label
_atom_site_fract_x
_atom_site_fract_y
_atom_site_fract_z
Si Si1 0.000000 0.250000 0.540377
Si Si2 0.758504 0.573662 0.564122
Si Si3 0.000000 0.843124 0.750000
Si Si4 0.282632 0.690052 0.399222
Si Si5 0.908589 0.065532 0.127602
Si Si6 0.750000 0.500000 0.717936
O O1 0.124461 0.221210 0.606520
O O2 0.096060 0.289637 0.477120
O O3 0.735324 0.632981 0.577038
O O4 0.718326 0.559578 0.454771
O O5 0.667661 0.542434 0.648021
O O6 0.930531 0.553313 0.578150
O O7 0.868907 0.807733 0.796344
O O8 0.916234 0.877247 0.668975
O O9 0.875319 0.027721 0.215712
#
# Coordination Sequence:
#
# PCOD8282429 Si02
#       6
#     8  16   8  16  16   8
#     4  10  22  39  76 103 136 174 242 282 360 420
#     4  11  24  42  70  99 142 185 230 285 350 410
#     4  10  20  43  70  98 142 186 232 283 354 418
#     4  10  20  42  69 105 136 186 222 297 347 418
#     4  11  23  43  66  98 138 187 232 278 345 411
#     4  12  22  40  66 104 138 182 238 282 334 422
#
# _framework density 22.520154999999999
#
# number of rings (size 3 to 8) (size 9 to 14) (size 15 to 20)
#    0.000    1.333    4.444    3.333    0.000    5.778 
#    0.000    0.000    0.000   22.667    0.000    0.000 
#    0.000    0.000    0.000    0.000    0.000    0.000 
#
# Total GULP energy -446181.038457 kJ/mol
# GULP energy per Si atom -12393.917735 kJ/mol
# Density = 2.246890 g / cm^3
# Si number density = 22.520155 Si / 1000 Ang^3
#
#
#
# Elastic Constant Matrix: (Units=GPa)
#
#
# Indices 1 2 3 4 5 6 
#
# 1 136.9132 65.9998 82.3729 0.0000 0.0000 0.0000
# 2 65.9998 141.6339 64.8297 0.0000 0.0000 0.0000
# 3 82.3729 64.8297 172.8476 0.0000 0.0000 0.0000
# 4 0.0000 0.0000 0.0000 36.1872 0.0000 0.0000
# 5 0.0000 0.0000 0.0000 0.0000 34.9099 0.0000
# 6 0.0000 0.0000 0.0000 0.0000 0.0000 38.4923
#
#
#
# Elastic Compliance Matrix: (Units=1/GPa)
#
#
# Indices 1 2 3 4 5 6 
#
# 1 0.011474 -0.003433 -0.004180 0.000000 0.000000 0.000000
# 2 -0.003433 0.009551 -0.001946 0.000000 0.000000 0.000000
# 3 -0.004180 -0.001946 0.008508 0.000000 0.000000 0.000000
# 4 0.000000 0.000000 0.000000 0.027634 0.000000 0.000000
# 5 0.000000 0.000000 0.000000 0.000000 0.028645 0.000000
# 6 0.000000 0.000000 0.000000 0.000000 0.000000 0.025979
#
#
# Mechanical properties :
#
#
# Convention : Reuss Voigt Hill
#
# Bulk Modulus (GPa) = 96.03272 97.53328 96.78300
# Shear Modulus (GPa) = 37.20738 37.79738 37.50238
#
# Velocity S-wave (km/s) = 4.06911 4.10125 4.08521
# Velocity P-wave (km/s) = 8.05062 8.11359 8.08217
#
# Compressibility (1/GPa) = 0.01041312
#
# Stress axis : x y z
#
# Youngs Moduli (GPa) = 87.15322 104.69960 117.54190
#
# Poissons Ratio (x) = 0.35946 0.49137
# Poissons Ratio (y) = 0.29922 0.22875
# Poissons Ratio (z) = 0.36433 0.20376
#
# Static dielectric constant tensor:
#      x y z
#    x 4.309960 0.000000 0.000000 
#    y 0.000000 4.227160 0.000000 
#    z 0.000000 0.000000 4.310180 
# 
# 
# High freq. dielectric constant tensor:
#      x y z
#    x 1.877340 0.000000 0.000000 
#    y 0.000000 1.897760 0.000000 
#    z 0.000000 0.000000 1.891800 
# 
# From -- ./inp_files/19526.got.cif
#   From: 2010.03.12/outbox.cif.g09.slc.cpg/sg68_10_cif.got.tgz:19526.got - 2010.04.10 23:14:56.
