data_PCOD8282930
_publ_section_title
;
Structure prediction by ZEFSAII (Michael W. Deem and Ramdas Pophale) SiO2 
 PCOD8282930
Probable space group: C C C A
;
_chemical_formula_sum "Si O2"
_cell_formula_units_Z 104
_cell_length_a 21.193877
_cell_length_b 8.923551
_cell_length_c 26.197680
_cell_angle_alpha 90.000000
_cell_angle_beta 90.000000
_cell_angle_gamma 90.000000
_cell_volume 4954.626859
_symmetry_space_group_name_H-M "C C C A"
_symmetry_group_IT_number 68
_space_group.IT_coordinate_system_code '2'
_symmetry_cell_setting 'orthorhombic'
loop_
_space_group_symop_operation_xyz
x,y,z
-x,1/2-y,z
x,1/2-y,1/2-z
-x,y,1/2-z
-x,-y,-z
x,1/2+y,-z
-x,1/2+y,1/2+z
x,-y,1/2+z
1/2+x,1/2+y,z
1/2-x,-y,z
1/2+x,-y,1/2-z
1/2-x,1/2+y,1/2-z
1/2-x,1/2-y,-z
1/2+x,y,-z
1/2-x,y,1/2+z
1/2+x,1/2-y,1/2+z
loop_
_atom_site_type_symbol
_atom_site_label
_atom_site_fract_x
_atom_site_fract_y
_atom_site_fract_z
Si Si1 0.263001 0.325044 0.698670
Si Si2 0.904510 0.750665 0.828923
Si Si3 0.260990 0.170418 0.097708
Si Si4 0.496384 0.994360 0.194286
Si Si5 0.389481 0.136433 0.044585
Si Si6 0.625701 0.710204 0.058831
Si Si7 0.000000 0.750000 0.385587
O O1 0.235337 0.250000 0.750000
O O2 0.250000 0.500000 0.702237
O O3 0.335854 0.278249 0.693787
O O4 0.226513 0.264777 0.648983
O O5 0.927456 0.920152 0.815808
O O6 0.907007 0.731080 0.889888
O O7 0.951318 0.634308 0.803613
O O8 0.320941 0.192028 0.061930
O O9 0.201102 0.226000 0.065187
O O10 0.250000 0.000000 0.115197
O O11 0.500000 0.072807 0.250000
O O12 0.514570 0.109674 0.150376
O O13 0.440037 0.220017 0.079314
O O14 0.396247 0.958618 0.047752
O O15 0.398977 0.183728 0.986062
#
# Coordination Sequence:
#
# PCOD8282930 Si02
#       7
#    16  16  16  16  16  16   8
#     4  11  23  39  62  99 129 170 213 270 332 388
#     4  10  22  44  67  92 125 167 219 264 320 397
#     4   9  21  42  64  89 129 167 216 263 320 387
#     4  11  23  44  68  91 123 175 215 266 317 388
#     4  11  24  41  61  95 128 174 208 267 318 385
#     4  10  22  41  67  92 126 166 210 265 326 383
#     4  12  27  40  62  98 136 156 221 268 324 374
#
# _framework density 20.990480000000002
#
# number of rings (size 3 to 8) (size 9 to 14) (size 15 to 20)
#    0.000    1.538    1.538    3.000    4.308    3.077 
#    2.769    0.769    0.000    0.000    0.000    0.000 
#    0.000    0.000    0.000    0.000    0.000    0.000 
#
# Total GULP energy -644947.090364 kJ/mol
# GULP energy per Si atom -12402.828661 kJ/mol
# Density = 2.094270 g / cm^3
# Si number density = 20.990480 Si / 1000 Ang^3
#
#
#
# Elastic Constant Matrix: (Units=GPa)
#
#
# Indices 1 2 3 4 5 6 
#
# 1 58.1035 5.4760 16.5357 0.0000 0.0000 0.0000
# 2 5.4760 75.2784 38.0675 0.0000 0.0000 0.0000
# 3 16.5357 38.0675 157.8283 0.0000 0.0000 0.0000
# 4 0.0000 0.0000 0.0000 16.8814 0.0000 0.0000
# 5 0.0000 0.0000 0.0000 0.0000 14.0038 0.0000
# 6 0.0000 0.0000 0.0000 0.0000 0.0000 23.5724
#
#
#
# Elastic Compliance Matrix: (Units=1/GPa)
#
#
# Indices 1 2 3 4 5 6 
#
# 1 0.017750 -0.000400 -0.001763 0.000000 0.000000 0.000000
# 2 -0.000400 0.015138 -0.003609 0.000000 0.000000 0.000000
# 3 -0.001763 -0.003609 0.007391 0.000000 0.000000 0.000000
# 4 0.000000 0.000000 0.000000 0.059237 0.000000 0.000000
# 5 0.000000 0.000000 0.000000 0.000000 0.071409 0.000000
# 6 0.000000 0.000000 0.000000 0.000000 0.000000 0.042423
#
#
# Mechanical properties :
#
#
# Convention : Reuss Voigt Hill
#
# Bulk Modulus (GPa) = 34.80046 45.70762 40.25404
# Shear Modulus (GPa) = 21.32457 26.30025 23.81241
#
# Velocity S-wave (km/s) = 3.19080 3.54356 3.37180
# Velocity P-wave (km/s) = 5.49455 6.21008 5.86324
#
# Compressibility (1/GPa) = 0.02873525
#
# Stress axis : x y z
#
# Youngs Moduli (GPa) = 56.33758 66.05742 135.29378
#
# Poissons Ratio (x) = 0.02639 0.23857
# Poissons Ratio (y) = 0.02251 0.48834
# Poissons Ratio (z) = 0.09934 0.23843
#
# Static dielectric constant tensor:
#      x y z
#    x 3.878560 0.000000 0.000000 
#    y 0.000000 3.717050 0.000000 
#    z 0.000000 0.000000 3.956120 
# 
# 
# High freq. dielectric constant tensor:
#      x y z
#    x 1.816850 0.000000 0.000000 
#    y 0.000000 1.816680 0.000000 
#    z 0.000000 0.000000 1.843760 
# 
# From -- ./inp_files/51860.got.cif
#   From: 2010.03.12/outbox.cif.g09.slc.cpg/sg68_26_cif.got.tgz:51860.got - 2010.04.10 23:14:56.
