data_PCOD8282505
_publ_section_title
;
Structure prediction by ZEFSAII (Michael W. Deem and Ramdas Pophale) SiO2 
 PCOD8282505
Probable space group: C C C A
;
_chemical_formula_sum "Si O2"
_cell_formula_units_Z 72
_cell_length_a 13.989784
_cell_length_b 12.945100
_cell_length_c 19.781479
_cell_angle_alpha 90.000000
_cell_angle_beta 90.000000
_cell_angle_gamma 90.000000
_cell_volume 3582.409089
_symmetry_space_group_name_H-M "C C C A"
_symmetry_group_IT_number 68
_space_group.IT_coordinate_system_code '2'
_symmetry_cell_setting 'orthorhombic'
loop_
_space_group_symop_operation_xyz
x,y,z
-x,1/2-y,z
x,1/2-y,1/2-z
-x,y,1/2-z
-x,-y,-z
x,1/2+y,-z
-x,1/2+y,1/2+z
x,-y,1/2+z
1/2+x,1/2+y,z
1/2-x,-y,z
1/2+x,-y,1/2-z
1/2-x,1/2+y,1/2-z
1/2-x,1/2-y,-z
1/2+x,y,-z
1/2-x,y,1/2+z
1/2+x,1/2-y,1/2+z
loop_
_atom_site_type_symbol
_atom_site_label
_atom_site_fract_x
_atom_site_fract_y
_atom_site_fract_z
Si Si1 0.242328 0.750000 0.250000
Si Si2 0.342003 0.566725 0.307995
Si Si3 0.021220 0.869527 0.439437
Si Si4 0.361996 0.024009 0.546232
Si Si5 0.085111 0.096157 0.792499
O O1 0.313273 0.685434 0.297212
O O2 0.177813 0.670064 0.207418
O O3 0.250000 0.500000 0.322979
O O4 0.396011 0.563729 0.379653
O O5 0.396700 0.515147 0.244256
O O6 0.106789 0.888176 0.492640
O O7 0.053553 0.921858 0.369008
O O8 0.000000 0.750000 0.427696
O O9 0.923281 0.920206 0.467096
O O10 0.250000 0.000000 0.537142
O O11 0.000000 0.150619 0.750000
#
# Coordination Sequence:
#
# PCOD8282505 Si02
#       5
#     8  16  16  16  16
#     4  10  21  36  61  92 120 158 208 252 313 369
#     4   9  20  39  59  89 122 160 200 257 313 358
#     4  11  24  41  65  96 120 169 214 251 314 376
#     4  10  23  44  61  88 133 164 203 264 313 367
#     4  11  20  37  63  90 120 154 207 258 296 366
#
# _framework density 20.098206999999999
#
# number of rings (size 3 to 8) (size 9 to 14) (size 15 to 20)
#    0.000    1.778    2.222    1.667    6.222    3.556 
#    8.000    0.556    0.000    0.000    0.000    0.000 
#    0.000    0.000    0.000    0.000    0.000    0.000 
#
# Total GULP energy -446169.662251 kJ/mol
# GULP energy per Si atom -12393.601729 kJ/mol
# Density = 2.005246 g / cm^3
# Si number density = 20.098207 Si / 1000 Ang^3
#
#
#
# Elastic Constant Matrix: (Units=GPa)
#
#
# Indices 1 2 3 4 5 6 
#
# 1 100.6921 44.9485 46.1529 0.0000 0.0000 0.0000
# 2 44.9485 86.5677 52.6735 0.0000 0.0000 0.0000
# 3 46.1529 52.6735 151.1598 0.0000 0.0000 0.0000
# 4 0.0000 0.0000 0.0000 6.5898 0.0000 0.0000
# 5 0.0000 0.0000 0.0000 0.0000 33.9213 0.0000
# 6 0.0000 0.0000 0.0000 0.0000 0.0000 22.0773
#
#
#
# Elastic Compliance Matrix: (Units=1/GPa)
#
#
# Indices 1 2 3 4 5 6 
#
# 1 0.013444 -0.005689 -0.002122 0.000000 0.000000 0.000000
# 2 -0.005689 0.017067 -0.004210 0.000000 0.000000 0.000000
# 3 -0.002122 -0.004210 0.008731 0.000000 0.000000 0.000000
# 4 0.000000 0.000000 0.000000 0.151749 0.000000 0.000000
# 5 0.000000 0.000000 0.000000 0.000000 0.029480 0.000000
# 6 0.000000 0.000000 0.000000 0.000000 0.000000 0.045295
#
#
# Mechanical properties :
#
#
# Convention : Reuss Voigt Hill
#
# Bulk Modulus (GPa) = 65.79633 69.55215 67.67424
# Shear Modulus (GPa) = 16.95633 25.49400 21.22517
#
# Velocity S-wave (km/s) = 2.90776 3.56542 3.25325
# Velocity P-wave (km/s) = 6.63942 7.18547 6.91783
#
# Compressibility (1/GPa) = 0.01519842
#
# Stress axis : x y z
#
# Youngs Moduli (GPa) = 74.38515 58.59124 114.53901
#
# Poissons Ratio (x) = 0.33332 0.24308
# Poissons Ratio (y) = 0.42317 0.48225
# Poissons Ratio (z) = 0.15786 0.24669
#
# Static dielectric constant tensor:
#      x y z
#    x 3.790410 0.000000 0.000000 
#    y 0.000000 3.233470 0.000000 
#    z 0.000000 0.000000 3.830370 
# 
# 
# High freq. dielectric constant tensor:
#      x y z
#    x 1.786670 0.000000 0.000000 
#    y 0.000000 1.768490 0.000000 
#    z 0.000000 0.000000 1.785310 
# 
# From -- ./inp_files/30646.got.cif
#   From: 2010.03.12/outbox.cif.g09.slc.cpg/sg68_16_cif.got.tgz:30646.got - 2010.04.10 23:14:56.
