data_PCOD8282730
_publ_section_title
;
Structure prediction by ZEFSAII (Michael W. Deem and Ramdas Pophale) SiO2 
 PCOD8282730
Probable space group: C C C A
;
_chemical_formula_sum "Si O2"
_cell_formula_units_Z 104
_cell_length_a 28.771528
_cell_length_b 8.816695
_cell_length_c 18.640116
_cell_angle_alpha 90.000000
_cell_angle_beta 90.000000
_cell_angle_gamma 90.000000
_cell_volume 4728.434256
_symmetry_space_group_name_H-M "C C C A"
_symmetry_group_IT_number 68
_space_group.IT_coordinate_system_code '2'
_symmetry_cell_setting 'orthorhombic'
loop_
_space_group_symop_operation_xyz
x,y,z
-x,1/2-y,z
x,1/2-y,1/2-z
-x,y,1/2-z
-x,-y,-z
x,1/2+y,-z
-x,1/2+y,1/2+z
x,-y,1/2+z
1/2+x,1/2+y,z
1/2-x,-y,z
1/2+x,-y,1/2-z
1/2-x,1/2+y,1/2-z
1/2-x,1/2-y,-z
1/2+x,y,-z
1/2-x,y,1/2+z
1/2+x,1/2-y,1/2+z
loop_
_atom_site_type_symbol
_atom_site_label
_atom_site_fract_x
_atom_site_fract_y
_atom_site_fract_z
Si Si1 0.609157 0.795709 0.059373
Si Si2 0.401911 0.602048 0.212983
Si Si3 0.188454 0.235029 0.551398
Si Si4 0.860892 0.860971 0.306216
Si Si5 0.448997 0.066606 0.492476
Si Si6 0.048594 0.184649 0.840551
Si Si7 0.250000 0.000000 0.973324
O O1 0.624101 0.842117 0.139981
O O2 0.589605 0.940575 0.018497
O O3 0.652437 0.733188 0.013307
O O4 0.568638 0.665338 0.060890
O O5 0.424455 0.750000 0.250000
O O6 0.364624 0.527580 0.269104
O O7 0.442229 0.484111 0.190828
O O8 0.165581 0.150248 0.619075
O O9 0.212240 0.399337 0.572249
O O10 0.226746 0.119158 0.525821
O O11 0.834876 0.750000 0.250000
O O12 0.913610 0.804517 0.315084
O O13 0.449741 0.182320 0.426186
O O14 0.500000 0.000000 0.500000
O O15 0.000000 0.250000 0.812372
#
# Coordination Sequence:
#
# PCOD8282730 Si02
#       7
#    16  16  16  16  16  16   8
#     4  11  23  40  69  93 133 185 222 284 336 409
#     4  10  25  40  61 103 131 181 234 282 341 401
#     4  11  23  46  73 101 137 170 226 282 355 420
#     4  10  23  43  68  96 136 188 226 264 343 430
#     4  11  22  36  60 102 133 174 237 284 331 384
#     4  10  21  42  63  90 131 185 235 277 329 398
#     4  10  26  42  74 110 126 164 224 290 356 420
#
# _framework density 21.994595
#
# number of rings (size 3 to 8) (size 9 to 14) (size 15 to 20)
#    0.000    1.538    1.538    2.308    8.615    2.769 
#    0.000    8.462    0.000    0.000    0.000    0.000 
#    0.000    0.000    0.000    0.000    0.000    0.000 
#
# Total GULP energy -644342.520106 kJ/mol
# GULP energy per Si atom -12391.202310 kJ/mol
# Density = 2.194453 g / cm^3
# Si number density = 21.994595 Si / 1000 Ang^3
#
#
#
# Elastic Constant Matrix: (Units=GPa)
#
#
# Indices 1 2 3 4 5 6 
#
# 1 90.2586 38.7778 44.7189 0.0000 0.0000 0.0000
# 2 38.7778 126.9340 57.0849 0.0000 0.0000 0.0000
# 3 44.7189 57.0849 123.7374 0.0000 0.0000 0.0000
# 4 0.0000 0.0000 0.0000 43.8813 0.0000 0.0000
# 5 0.0000 0.0000 0.0000 0.0000 8.9499 0.0000
# 6 0.0000 0.0000 0.0000 0.0000 0.0000 32.3871
#
#
#
# Elastic Compliance Matrix: (Units=1/GPa)
#
#
# Indices 1 2 3 4 5 6 
#
# 1 0.014120 -0.002547 -0.003928 0.000000 0.000000 0.000000
# 2 -0.002547 0.010400 -0.003877 0.000000 0.000000 0.000000
# 3 -0.003928 -0.003877 0.011290 0.000000 0.000000 0.000000
# 4 0.000000 0.000000 0.000000 0.022789 0.000000 0.000000
# 5 0.000000 0.000000 0.000000 0.000000 0.111733 0.000000
# 6 0.000000 0.000000 0.000000 0.000000 0.000000 0.030876
#
#
# Mechanical properties :
#
#
# Convention : Reuss Voigt Hill
#
# Bulk Modulus (GPa) = 66.20322 69.12146 67.66234
# Shear Modulus (GPa) = 22.03151 30.40023 26.21587
#
# Velocity S-wave (km/s) = 3.16836 3.72179 3.45617
# Velocity P-wave (km/s) = 6.59923 7.06850 6.83789
#
# Compressibility (1/GPa) = 0.01510501
#
# Stress axis : x y z
#
# Youngs Moduli (GPa) = 70.82352 96.15402 88.57442
#
# Poissons Ratio (x) = 0.24491 0.34790
# Poissons Ratio (y) = 0.18039 0.34344
# Poissons Ratio (z) = 0.27818 0.37283
#
# Static dielectric constant tensor:
#      x y z
#    x 3.863030 0.000000 0.000000 
#    y 0.000000 4.294280 0.000000 
#    z 0.000000 0.000000 4.165190 
# 
# 
# High freq. dielectric constant tensor:
#      x y z
#    x 1.833890 0.000000 0.000000 
#    y 0.000000 1.883720 0.000000 
#    z 0.000000 0.000000 1.867540 
# 
# From -- ./inp_files/41583.got.cif
#   From: 2010.03.12/outbox.cif.g09.slc.cpg/sg68_21_cif.got.tgz:41583.got - 2010.04.10 23:14:56.
