data_PCOD8282255
_publ_section_title
;
Structure prediction by ZEFSAII (Michael W. Deem and Ramdas Pophale) SiO2 
 PCOD8282255
Probable space group: C C C A
;
_chemical_formula_sum "Si O2"
_cell_formula_units_Z 96
_cell_length_a 12.139889
_cell_length_b 16.236418
_cell_length_c 22.494337
_cell_angle_alpha 90.000000
_cell_angle_beta 90.000000
_cell_angle_gamma 90.000000
_cell_volume 4433.820802
_symmetry_space_group_name_H-M "C C C A"
_symmetry_group_IT_number 68
_space_group.IT_coordinate_system_code '2'
_symmetry_cell_setting 'orthorhombic'
loop_
_space_group_symop_operation_xyz
x,y,z
-x,1/2-y,z
x,1/2-y,1/2-z
-x,y,1/2-z
-x,-y,-z
x,1/2+y,-z
-x,1/2+y,1/2+z
x,-y,1/2+z
1/2+x,1/2+y,z
1/2-x,-y,z
1/2+x,-y,1/2-z
1/2-x,1/2+y,1/2-z
1/2-x,1/2-y,-z
1/2+x,y,-z
1/2-x,y,1/2+z
1/2+x,1/2-y,1/2+z
loop_
_atom_site_type_symbol
_atom_site_label
_atom_site_fract_x
_atom_site_fract_y
_atom_site_fract_z
Si Si1 0.112685 0.776122 0.340731
Si Si2 0.812770 0.338649 0.562413
Si Si3 0.750000 0.000000 0.368340
Si Si4 0.194680 0.250000 0.250000
Si Si5 0.257221 0.087735 0.857538
Si Si6 0.880516 0.286947 0.438612
Si Si7 0.379321 0.922139 0.236713
O O1 0.106819 0.714591 0.396189
O O2 0.224717 0.763283 0.305033
O O3 0.132462 0.872034 0.359278
O O4 0.000000 0.750000 0.305700
O O5 0.799886 0.429937 0.589062
O O6 0.872796 0.341350 0.498649
O O7 0.695763 0.293515 0.556804
O O8 0.656880 0.963604 0.324929
O O9 0.115946 0.176394 0.229531
O O10 0.345522 0.150558 0.886184
O O11 0.295122 0.063190 0.790842
O O12 0.250000 0.000000 0.892293
O O13 0.000000 0.250000 0.425756
O O14 0.500000 0.958035 0.250000
#
# Coordination Sequence:
#
# PCOD8282255 Si02
#       7
#    16  16   8   8  16  16  16
#     4  10  20  37  62  85 130 180 215 272 353 407
#     4  10  23  43  65  93 138 172 223 291 336 423
#     4  12  24  44  62 104 140 172 232 290 350 414
#     4  10  20  40  58  94 122 172 238 274 322 420
#     4  10  23  41  63  99 135 168 231 291 334 415
#     4  10  23  45  72  96 130 182 236 278 350 415
#     4  11  24  41  65  92 137 179 220 281 351 408
#
# _framework density 21.651754
#
# number of rings (size 3 to 8) (size 9 to 14) (size 15 to 20)
#    0.000    1.667    2.500    1.000    3.500    1.333 
#    0.000    0.833    0.000    0.000    0.000    0.000 
#    0.000    0.000    0.000    0.000    0.000    0.000 
#
# Total GULP energy -594649.921756 kJ/mol
# GULP energy per Si atom -12388.540037 kJ/mol
# Density = 2.160247 g / cm^3
# Si number density = 21.651754 Si / 1000 Ang^3
#
#
#
# Elastic Constant Matrix: (Units=GPa)
#
#
# Indices 1 2 3 4 5 6 
#
# 1 101.8384 49.7724 12.1593 0.0000 0.0000 0.0000
# 2 49.7724 165.9192 43.8652 0.0000 0.0000 0.0000
# 3 12.1593 43.8652 100.3299 0.0000 0.0000 0.0000
# 4 0.0000 0.0000 0.0000 19.9772 0.0000 0.0000
# 5 0.0000 0.0000 0.0000 0.0000 7.7009 0.0000
# 6 0.0000 0.0000 0.0000 0.0000 0.0000 10.6736
#
#
#
# Elastic Compliance Matrix: (Units=1/GPa)
#
#
# Indices 1 2 3 4 5 6 
#
# 1 0.011508 -0.003486 0.000130 0.000000 0.000000 0.000000
# 2 -0.003486 0.007871 -0.003019 0.000000 0.000000 0.000000
# 3 0.000130 -0.003019 0.011271 0.000000 0.000000 0.000000
# 4 0.000000 0.000000 0.000000 0.050057 0.000000 0.000000
# 5 0.000000 0.000000 0.000000 0.000000 0.129854 0.000000
# 6 0.000000 0.000000 0.000000 0.000000 0.000000 0.093689
#
#
# Mechanical properties :
#
#
# Convention : Reuss Voigt Hill
#
# Bulk Modulus (GPa) = 55.86882 64.40903 60.13892
# Shear Modulus (GPa) = 15.48142 25.15638 20.31890
#
# Velocity S-wave (km/s) = 2.67689 3.41231 3.06672
# Velocity P-wave (km/s) = 5.95094 6.73331 6.35418
#
# Compressibility (1/GPa) = 0.01789907
#
# Stress axis : x y z
#
# Youngs Moduli (GPa) = 86.89642 127.04917 88.72141
#
# Poissons Ratio (x) = 0.44295 -0.01150
# Poissons Ratio (y) = 0.30296 0.26783
# Poissons Ratio (z) = -0.01126 0.38353
#
# Static dielectric constant tensor:
#      x y z
#    x 3.751230 0.000000 0.000000 
#    y 0.000000 4.068550 0.000000 
#    z 0.000000 0.000000 4.017820 
# 
# 
# High freq. dielectric constant tensor:
#      x y z
#    x 1.836720 0.000000 0.000000 
#    y 0.000000 1.857330 0.000000 
#    z 0.000000 0.000000 1.850970 
# 
# From -- ./inp_files/44474.got.cif
#   From: 2010.03.12/outbox.cif.g09.slc.cpg/sg68_23_cif.got.tgz:44474.got - 2010.04.10 23:14:56.
