data_PCOD8282646
_publ_section_title
;
Structure prediction by ZEFSAII (Michael W. Deem and Ramdas Pophale) SiO2 
 PCOD8282646
Probable space group: C C C A
;
_chemical_formula_sum "Si O2"
_cell_formula_units_Z 112
_cell_length_a 14.095553
_cell_length_b 12.332143
_cell_length_c 31.806082
_cell_angle_alpha 90.000000
_cell_angle_beta 90.000000
_cell_angle_gamma 90.000000
_cell_volume 5528.799557
_symmetry_space_group_name_H-M "C C C A"
_symmetry_group_IT_number 68
_space_group.IT_coordinate_system_code '2'
_symmetry_cell_setting 'orthorhombic'
loop_
_space_group_symop_operation_xyz
x,y,z
-x,1/2-y,z
x,1/2-y,1/2-z
-x,y,1/2-z
-x,-y,-z
x,1/2+y,-z
-x,1/2+y,1/2+z
x,-y,1/2+z
1/2+x,1/2+y,z
1/2-x,-y,z
1/2+x,-y,1/2-z
1/2-x,1/2+y,1/2-z
1/2-x,1/2-y,-z
1/2+x,y,-z
1/2-x,y,1/2+z
1/2+x,1/2-y,1/2+z
loop_
_atom_site_type_symbol
_atom_site_label
_atom_site_fract_x
_atom_site_fract_y
_atom_site_fract_z
Si Si1 0.081400 0.166495 0.099147
Si Si2 0.848209 0.026952 0.850842
Si Si3 0.494762 0.122601 0.296787
Si Si4 0.293180 0.786599 0.587301
Si Si5 0.451707 0.984443 0.443106
Si Si6 0.157525 0.433688 0.634655
Si Si7 0.068230 0.340222 0.983872
O O1 0.178745 0.222151 0.082682
O O2 0.000000 0.250000 0.114258
O O3 0.041318 0.095318 0.061184
O O4 0.100893 0.085689 0.137796
O O5 0.824871 0.100480 0.891660
O O6 0.908346 0.092822 0.818522
O O7 0.750000 0.000000 0.827591
O O8 0.500000 0.250000 0.293929
O O9 0.500000 0.071633 0.250000
O O10 0.405835 0.078564 0.323563
O O11 0.324542 0.684597 0.615296
O O12 0.343121 0.787158 0.541378
O O13 0.393149 0.927983 0.481653
O O14 0.390898 0.990728 0.400712
O O15 0.494197 0.102209 0.452096
O O16 0.250000 0.500000 0.648952
O O17 0.000000 0.250000 0.005399
#
# Coordination Sequence:
#
# PCOD8282646 Si02
#       7
#    16  16  16  16  16  16  16
#     4  11  22  39  62  93 124 164 223 262 320 379
#     4  10  21  39  66  91 123 173 213 250 317 395
#     4  11  23  42  72 101 128 162 208 266 324 398
#     4  11  22  40  67  90 126 179 214 265 318 379
#     4  11  23  40  62  90 128 173 222 269 317 375
#     4  12  24  42  66 100 131 168 215 270 334 385
#     4  11  22  40  62  90 129 172 223 273 315 374
#
# _framework density 20.257562
#
# number of rings (size 3 to 8) (size 9 to 14) (size 15 to 20)
#    0.000    1.000    5.714    1.286    0.000    0.571 
#    5.143    2.143    0.000    0.429    0.000    0.000 
#    0.000    0.000    0.000    0.000    0.000    0.000 
#
# Total GULP energy -694063.694678 kJ/mol
# GULP energy per Si atom -12393.994548 kJ/mol
# Density = 2.021146 g / cm^3
# Si number density = 20.257562 Si / 1000 Ang^3
#
#
#
# Elastic Constant Matrix: (Units=GPa)
#
#
# Indices 1 2 3 4 5 6 
#
# 1 135.8730 47.4655 58.1553 0.0000 0.0000 0.0000
# 2 47.4655 87.6018 20.4397 0.0000 0.0000 0.0000
# 3 58.1553 20.4397 92.6665 0.0000 0.0000 0.0000
# 4 0.0000 0.0000 0.0000 28.0597 0.0000 0.0000
# 5 0.0000 0.0000 0.0000 0.0000 -275.1737 0.0000
# 6 0.0000 0.0000 0.0000 0.0000 0.0000 39.1986
#
#
#
# Elastic Compliance Matrix: (Units=1/GPa)
#
#
# Indices 1 2 3 4 5 6 
#
# 1 0.011773 -0.004908 -0.006306 0.000000 0.000000 0.000000
# 2 -0.004908 0.014081 -0.000026 0.000000 0.000000 0.000000
# 3 -0.006306 -0.000026 0.014755 0.000000 0.000000 0.000000
# 4 0.000000 0.000000 0.000000 0.035638 0.000000 0.000000
# 5 0.000000 0.000000 0.000000 0.000000 -0.003634 0.000000
# 6 0.000000 0.000000 0.000000 0.000000 0.000000 0.025511
#
#
# Mechanical properties :
#
#
# Convention : Reuss Voigt Hill
#
# Bulk Modulus (GPa) = 55.15993 63.14023 59.15008
# Shear Modulus (GPa) = 39.47996 -28.91102 5.28447
#
# Velocity S-wave (km/s) = 4.41942 -3.78189 1.61688
# Velocity P-wave (km/s) = 7.30275 3.48800 5.72260
#
# Compressibility (1/GPa) = 0.01812910
#
# Stress axis : x y z
#
# Youngs Moduli (GPa) = 84.93709 71.02014 67.77515
#
# Poissons Ratio (x) = 0.34855 0.42740
# Poissons Ratio (y) = 0.41686 0.00174
# Poissons Ratio (z) = 0.53563 0.00183
#
# Static dielectric constant tensor:
#      x y z
#    x 3.855810 0.000000 0.000000 
#    y 0.000000 3.876240 0.000000 
#    z 0.000000 0.000000 3.469620 
# 
# 
# High freq. dielectric constant tensor:
#      x y z
#    x 1.796920 0.000000 0.000000 
#    y 0.000000 1.808280 0.000000 
#    z 0.000000 0.000000 1.760140 
# 
# From -- ./inp_files/55261.got.cif
#   From: 2010.03.12/outbox.cif.g09.slc.cpg/sg68_28_cif.got.tgz:55261.got - 2010.04.10 23:14:56.
