data_PCOD8282549
_publ_section_title
;
Structure prediction by ZEFSAII (Michael W. Deem and Ramdas Pophale) SiO2 
 PCOD8282549
Probable space group: C C C A
;
_chemical_formula_sum "Si O2"
_cell_formula_units_Z 68
_cell_length_a 9.292678
_cell_length_b 17.836871
_cell_length_c 18.436297
_cell_angle_alpha 90.000000
_cell_angle_beta 90.000000
_cell_angle_gamma 90.000000
_cell_volume 3055.858608
_symmetry_space_group_name_H-M "C C C A"
_symmetry_group_IT_number 68
_space_group.IT_coordinate_system_code '2'
_symmetry_cell_setting 'orthorhombic'
loop_
_space_group_symop_operation_xyz
x,y,z
-x,1/2-y,z
x,1/2-y,1/2-z
-x,y,1/2-z
-x,-y,-z
x,1/2+y,-z
-x,1/2+y,1/2+z
x,-y,1/2+z
1/2+x,1/2+y,z
1/2-x,-y,z
1/2+x,-y,1/2-z
1/2-x,1/2+y,1/2-z
1/2-x,1/2-y,-z
1/2+x,y,-z
1/2-x,y,1/2+z
1/2+x,1/2-y,1/2+z
loop_
_atom_site_type_symbol
_atom_site_label
_atom_site_fract_x
_atom_site_fract_y
_atom_site_fract_z
Si Si1 0.712085 0.651193 0.901700
Si Si2 0.719048 0.183717 0.855179
Si Si3 0.500000 0.750000 0.250000
Si Si4 0.511517 0.161102 0.972814
Si Si5 0.160715 0.072137 0.750884
O O1 0.708852 0.739596 0.883032
O O2 0.712670 0.603714 0.828424
O O3 0.856137 0.628583 0.948181
O O4 0.565581 0.633983 0.947619
O O5 0.592334 0.195686 0.798615
O O6 0.643692 0.137733 0.920201
O O7 0.835538 0.134359 0.812872
O O8 0.500000 0.250000 0.969132
O O9 0.000000 0.043201 0.750000
O O10 0.250000 0.000000 0.728719
#
# Coordination Sequence:
#
# PCOD8282549 Si02
#       5
#    16  16   4  16  16
#     4  11  23  42  69 107 135 173 220 279 341 406
#     4  11  20  40  70 100 135 174 223 283 341 397
#     4  12  16  36  70 100 132 180 206 288 336 408
#     4  10  21  37  69 102 141 170 211 277 335 409
#     4  12  30  46  68  96 136 184 236 285 333 403
#
# _framework density 22.252338999999999
#
# number of rings (size 3 to 8) (size 9 to 14) (size 15 to 20)
#    0.000    0.941    5.882    2.824   11.529    0.941 
#    0.000    2.353    0.000    0.000    0.000    0.000 
#    0.000    0.000    0.000    0.000    0.000    0.000 
#
# Total GULP energy -421443.031885 kJ/mol
# GULP energy per Si atom -12395.383291 kJ/mol
# Density = 2.220169 g / cm^3
# Si number density = 22.252339 Si / 1000 Ang^3
#
#
#
# Elastic Constant Matrix: (Units=GPa)
#
#
# Indices 1 2 3 4 5 6 
#
# 1 104.6347 28.2105 31.4518 0.0000 0.0000 0.0000
# 2 28.2105 55.7609 21.3478 0.0000 0.0000 0.0000
# 3 31.4518 21.3478 115.0706 0.0000 0.0000 0.0000
# 4 0.0000 0.0000 0.0000 10.1978 0.0000 0.0000
# 5 0.0000 0.0000 0.0000 0.0000 61.8317 0.0000
# 6 0.0000 0.0000 0.0000 0.0000 0.0000 29.4267
#
#
#
# Elastic Compliance Matrix: (Units=1/GPa)
#
#
# Indices 1 2 3 4 5 6 
#
# 1 0.011578 -0.005001 -0.002237 0.000000 0.000000 0.000000
# 2 -0.005001 0.021465 -0.002615 0.000000 0.000000 0.000000
# 3 -0.002237 -0.002615 0.009787 0.000000 0.000000 0.000000
# 4 0.000000 0.000000 0.000000 0.098061 0.000000 0.000000
# 5 0.000000 0.000000 0.000000 0.000000 0.016173 0.000000
# 6 0.000000 0.000000 0.000000 0.000000 0.000000 0.033983
#
#
# Mechanical properties :
#
#
# Convention : Reuss Voigt Hill
#
# Bulk Modulus (GPa) = 43.24590 48.60960 45.92775
# Shear Modulus (GPa) = 22.88748 33.25498 28.07123
#
# Velocity S-wave (km/s) = 3.21057 3.87000 3.55561
# Velocity P-wave (km/s) = 5.76370 6.47004 6.12705
#
# Compressibility (1/GPa) = 0.02312358
#
# Stress axis : x y z
#
# Youngs Moduli (GPa) = 86.37282 46.58729 102.17794
#
# Poissons Ratio (x) = 0.23299 0.22854
# Poissons Ratio (y) = 0.43196 0.26722
# Poissons Ratio (z) = 0.19319 0.12184
#
# Static dielectric constant tensor:
#      x y z
#    x 3.105340 0.000000 0.000000 
#    y 0.000000 3.354670 0.000000 
#    z 0.000000 0.000000 4.660060 
# 
# 
# High freq. dielectric constant tensor:
#      x y z
#    x 1.890820 0.000000 0.000000 
#    y 0.000000 1.813450 0.000000 
#    z 0.000000 0.000000 1.900420 
# 
# From -- ./inp_files/27988.got.cif
#   From: 2010.03.12/outbox.cif.g09.slc.cpg/sg68_14_cif.got.tgz:27988.got - 2010.04.10 23:14:56.
