data_PCOD8282891
_publ_section_title
;
Structure prediction by ZEFSAII (Michael W. Deem and Ramdas Pophale) SiO2 
 PCOD8282891
Probable space group: C C C A
;
_chemical_formula_sum "Si O2"
_cell_formula_units_Z 96
_cell_length_a 22.494220
_cell_length_b 22.369293
_cell_length_c 8.470470
_cell_angle_alpha 90.000000
_cell_angle_beta 90.000000
_cell_angle_gamma 90.000000
_cell_volume 4262.169383
_symmetry_space_group_name_H-M "C C C A"
_symmetry_group_IT_number 68
_space_group.IT_coordinate_system_code '2'
_symmetry_cell_setting 'orthorhombic'
loop_
_space_group_symop_operation_xyz
x,y,z
-x,1/2-y,z
x,1/2-y,1/2-z
-x,y,1/2-z
-x,-y,-z
x,1/2+y,-z
-x,1/2+y,1/2+z
x,-y,1/2+z
1/2+x,1/2+y,z
1/2-x,-y,z
1/2+x,-y,1/2-z
1/2-x,1/2+y,1/2-z
1/2-x,1/2-y,-z
1/2+x,y,-z
1/2-x,y,1/2+z
1/2+x,1/2-y,1/2+z
loop_
_atom_site_type_symbol
_atom_site_label
_atom_site_fract_x
_atom_site_fract_y
_atom_site_fract_z
Si Si1 0.815670 0.018589 0.964050
Si Si2 0.875881 0.078937 0.261278
Si Si3 0.191937 0.174900 0.071001
Si Si4 0.500000 0.859538 0.250000
Si Si5 0.126690 0.728110 0.413611
Si Si6 0.500000 0.750000 0.015904
Si Si7 0.190484 0.366505 0.784554
O O1 0.851054 0.052046 0.100439
O O2 0.750000 0.000000 0.024398
O O3 0.802833 0.063259 0.816647
O O4 0.858047 0.965298 0.904567
O O5 0.846404 0.142651 0.294691
O O6 0.945662 0.093598 0.252852
O O7 0.165016 0.242118 0.055966
O O8 0.186052 0.140404 0.903411
O O9 0.258168 0.174585 0.136761
O O10 0.502176 0.813381 0.105233
O O11 0.156632 0.750000 0.250000
O O12 0.059211 0.750564 0.413271
O O13 0.133534 0.656365 0.391048
#
# Coordination Sequence:
#
# PCOD8282891 Si02
#       7
#    16  16  16   8  16   8  16
#     4  12  25  42  69  98 133 177 223 276 341 402
#     4  12  25  45  67  98 134 178 232 281 331 408
#     4  11  22  41  65  99 140 171 220 270 335 397
#     4  11  26  44  70  94 134 174 229 282 338 400
#     4  10  22  40  67  99 135 173 218 271 333 397
#     4  11  21  44  66 100 125 179 220 276 340 401
#     4  11  23  40  66 104 135 178 213 273 333 402
#
# _framework density 22.523741000000001
#
# number of rings (size 3 to 8) (size 9 to 14) (size 15 to 20)
#    0.000    0.833    3.333    4.250    0.000    0.667 
#    0.000    0.000    0.000    0.000    0.000    0.000 
#    0.000    0.000    0.000    0.000    0.000    0.000 
#
# Total GULP energy -594731.493787 kJ/mol
# GULP energy per Si atom -12390.239454 kJ/mol
# Density = 2.247248 g / cm^3
# Si number density = 22.523741 Si / 1000 Ang^3
#
#
#
# Elastic Constant Matrix: (Units=GPa)
#
#
# Indices 1 2 3 4 5 6 
#
# 1 142.2528 49.3142 27.8267 0.0000 0.0000 0.0000
# 2 49.3142 82.9975 14.4970 0.0000 0.0000 0.0000
# 3 27.8267 14.4970 64.4955 0.0000 0.0000 0.0000
# 4 0.0000 0.0000 0.0000 28.5121 0.0000 0.0000
# 5 0.0000 0.0000 0.0000 0.0000 34.9999 0.0000
# 6 0.0000 0.0000 0.0000 0.0000 0.0000 44.9385
#
#
#
# Elastic Compliance Matrix: (Units=1/GPa)
#
#
# Indices 1 2 3 4 5 6 
#
# 1 0.009346 -0.005047 -0.002898 0.000000 0.000000 0.000000
# 2 -0.005047 0.015266 -0.001254 0.000000 0.000000 0.000000
# 3 -0.002898 -0.001254 0.017037 0.000000 0.000000 0.000000
# 4 0.000000 0.000000 0.000000 0.035073 0.000000 0.000000
# 5 0.000000 0.000000 0.000000 0.000000 0.028572 0.000000
# 6 0.000000 0.000000 0.000000 0.000000 0.000000 0.022253
#
#
# Mechanical properties :
#
#
# Convention : Reuss Voigt Hill
#
# Bulk Modulus (GPa) = 43.00745 52.55797 47.78271
# Shear Modulus (GPa) = 32.53188 34.89729 33.71458
#
# Velocity S-wave (km/s) = 3.80457 3.94046 3.87311
# Velocity P-wave (km/s) = 6.19963 6.63988 6.42353
#
# Compressibility (1/GPa) = 0.02325179
#
# Stress axis : x y z
#
# Youngs Moduli (GPa) = 106.99456 65.50349 58.69519
#
# Poissons Ratio (x) = 0.33060 0.17010
# Poissons Ratio (y) = 0.54001 0.07360
# Poissons Ratio (z) = 0.31007 0.08214
#
# Static dielectric constant tensor:
#      x y z
#    x 4.027590 0.000000 0.000000 
#    y 0.000000 4.367690 0.000000 
#    z 0.000000 0.000000 3.962970 
# 
# 
# High freq. dielectric constant tensor:
#      x y z
#    x 1.879570 0.000000 0.000000 
#    y 0.000000 1.897490 0.000000 
#    z 0.000000 0.000000 1.896530 
# 
# From -- ./inp_files/8175.got.cif
#   From: 2010.03.12/outbox.cif.g09.slc.cpg/sg68_5_cif.got.tgz:8175.got - 2010.04.10 23:14:56.
