data_PCOD8282817
_publ_section_title
;
Structure prediction by ZEFSAII (Michael W. Deem and Ramdas Pophale) SiO2 
 PCOD8282817
Probable space group: C C C A
;
_chemical_formula_sum "Si O2"
_cell_formula_units_Z 88
_cell_length_a 18.385511
_cell_length_b 16.975020
_cell_length_c 13.436670
_cell_angle_alpha 90.000000
_cell_angle_beta 90.000000
_cell_angle_gamma 90.000000
_cell_volume 4193.509689
_symmetry_space_group_name_H-M "C C C A"
_symmetry_group_IT_number 68
_space_group.IT_coordinate_system_code '2'
_symmetry_cell_setting 'orthorhombic'
loop_
_space_group_symop_operation_xyz
x,y,z
-x,1/2-y,z
x,1/2-y,1/2-z
-x,y,1/2-z
-x,-y,-z
x,1/2+y,-z
-x,1/2+y,1/2+z
x,-y,1/2+z
1/2+x,1/2+y,z
1/2-x,-y,z
1/2+x,-y,1/2-z
1/2-x,1/2+y,1/2-z
1/2-x,1/2-y,-z
1/2+x,y,-z
1/2-x,y,1/2+z
1/2+x,1/2-y,1/2+z
loop_
_atom_site_type_symbol
_atom_site_label
_atom_site_fract_x
_atom_site_fract_y
_atom_site_fract_z
Si Si1 0.243493 0.872188 0.086264
Si Si2 0.844148 0.563005 0.909900
Si Si3 0.114072 0.896770 0.490230
Si Si4 0.871547 0.248680 0.865307
Si Si5 0.465908 0.672087 0.034451
Si Si6 0.750000 0.000000 0.261226
O O1 0.208750 0.787915 0.114169
O O2 0.214814 0.932665 0.169908
O O3 0.220483 0.902765 0.977203
O O4 0.331600 0.870155 0.080605
O O5 0.877034 0.487181 0.963088
O O6 0.813385 0.540092 0.802918
O O7 0.905706 0.630220 0.896754
O O8 0.130888 0.839346 0.397804
O O9 0.030452 0.889879 0.521145
O O10 0.893121 0.250000 0.750000
O O11 0.930573 0.198093 0.928150
O O12 0.500000 0.750000 0.086729
#
# Coordination Sequence:
#
# PCOD8282817 Si02
#       6
#    16  16  16  16  16   8
#     4  11  22  39  61  94 131 162 215 276 326 392
#     4  11  21  39  65  89 125 164 217 267 327 387
#     4  11  19  39  60  89 129 167 205 268 340 385
#     4  10  22  38  63  95 127 169 223 271 326 395
#     4   9  22  39  62  87 129 174 206 267 332 394
#     4  12  20  38  64  90 124 168 224 274 322 392
#
# _framework density 20.984808000000001
#
# number of rings (size 3 to 8) (size 9 to 14) (size 15 to 20)
#    0.000    1.455    3.636    2.182    0.000    3.273 
#    0.000    0.909    0.000    3.273    0.000    0.000 
#    0.000    0.000    0.000    0.000    0.000    0.000 
#
# Total GULP energy -545531.847455 kJ/mol
# GULP energy per Si atom -12398.451079 kJ/mol
# Density = 2.093705 g / cm^3
# Si number density = 20.984808 Si / 1000 Ang^3
#
#
#
# Elastic Constant Matrix: (Units=GPa)
#
#
# Indices 1 2 3 4 5 6 
#
# 1 119.5996 35.9514 34.6146 0.0000 0.0000 0.0000
# 2 35.9514 72.6403 11.6147 0.0000 0.0000 0.0000
# 3 34.6146 11.6147 78.2353 0.0000 0.0000 0.0000
# 4 0.0000 0.0000 0.0000 32.3043 0.0000 0.0000
# 5 0.0000 0.0000 0.0000 0.0000 11.5364 0.0000
# 6 0.0000 0.0000 0.0000 0.0000 0.0000 36.9534
#
#
#
# Elastic Compliance Matrix: (Units=1/GPa)
#
#
# Indices 1 2 3 4 5 6 
#
# 1 0.011001 -0.004780 -0.004158 0.000000 0.000000 0.000000
# 2 -0.004780 0.016178 -0.000287 0.000000 0.000000 0.000000
# 3 -0.004158 -0.000287 0.014664 0.000000 0.000000 0.000000
# 4 0.000000 0.000000 0.000000 0.030956 0.000000 0.000000
# 5 0.000000 0.000000 0.000000 0.000000 0.086682 0.000000
# 6 0.000000 0.000000 0.000000 0.000000 0.000000 0.027061
#
#
# Mechanical properties :
#
#
# Convention : Reuss Voigt Hill
#
# Bulk Modulus (GPa) = 42.74582 48.31519 45.53050
# Shear Modulus (GPa) = 23.49727 28.71178 26.10452
#
# Velocity S-wave (km/s) = 3.34986 3.70296 3.53083
# Velocity P-wave (km/s) = 5.94779 6.43089 6.19405
#
# Compressibility (1/GPa) = 0.02339410
#
# Stress axis : x y z
#
# Youngs Moduli (GPa) = 90.89677 61.81197 68.19342
#
# Poissons Ratio (x) = 0.29547 0.28354
# Poissons Ratio (y) = 0.43449 0.01956
# Poissons Ratio (z) = 0.37794 0.01773
#
# Static dielectric constant tensor:
#      x y z
#    x 3.932780 0.000000 0.000000 
#    y 0.000000 3.976730 0.000000 
#    z 0.000000 0.000000 3.507710 
# 
# 
# High freq. dielectric constant tensor:
#      x y z
#    x 1.827510 0.000000 0.000000 
#    y 0.000000 1.836710 0.000000 
#    z 0.000000 0.000000 1.789240 
# 
# From -- ./inp_files/14458.got.cif
#   From: 2010.03.12/outbox.cif.g09.slc.cpg/sg68_8_cif.got.tgz:14458.got - 2010.04.10 23:14:56.
