data_PCOD8282224
_publ_section_title
;
Structure prediction by ZEFSAII (Michael W. Deem and Ramdas Pophale) SiO2 
 PCOD8282224
Probable space group: C C C A
;
_chemical_formula_sum "Si O2"
_cell_formula_units_Z 52
_cell_length_a 8.515860
_cell_length_b 17.105708
_cell_length_c 16.006644
_cell_angle_alpha 90.000000
_cell_angle_beta 90.000000
_cell_angle_gamma 90.000000
_cell_volume 2331.684863
_symmetry_space_group_name_H-M "C C C A"
_symmetry_group_IT_number 68
_space_group.IT_coordinate_system_code '2'
_symmetry_cell_setting 'orthorhombic'
loop_
_space_group_symop_operation_xyz
x,y,z
-x,1/2-y,z
x,1/2-y,1/2-z
-x,y,1/2-z
-x,-y,-z
x,1/2+y,-z
-x,1/2+y,1/2+z
x,-y,1/2+z
1/2+x,1/2+y,z
1/2-x,-y,z
1/2+x,-y,1/2-z
1/2-x,1/2+y,1/2-z
1/2-x,1/2-y,-z
1/2+x,y,-z
1/2-x,y,1/2+z
1/2+x,1/2-y,1/2+z
loop_
_atom_site_type_symbol
_atom_site_label
_atom_site_fract_x
_atom_site_fract_y
_atom_site_fract_z
Si Si1 0.556592 0.833603 0.559749
Si Si2 0.434748 0.510226 0.907225
Si Si3 0.095170 0.139670 0.388440
Si Si4 0.000000 0.750000 0.750000
O O1 0.500000 0.750000 0.595844
O O2 0.467976 0.899324 0.615613
O O3 0.738507 0.855037 0.566782
O O4 0.529172 0.834858 0.459606
O O5 0.250000 0.500000 0.896982
O O6 0.538006 0.446447 0.855275
O O7 0.500000 0.500000 0.000000
O O8 0.106665 0.196227 0.308976
#
# Coordination Sequence:
#
# PCOD8282224 Si02
#       4
#    16  16  16   4
#     4  11  21  38  74  99 124 170 233 273 311 389
#     4  10  20  36  65  99 129 165 217 276 324 376
#     4  11  23  42  66  99 136 173 219 275 334 389
#     4  12  28  40  66  96 146 170 210 276 348 388
#
# _framework density 22.301469999999998
#
# number of rings (size 3 to 8) (size 9 to 14) (size 15 to 20)
#    0.000    1.231    1.538    9.231    4.308    0.000 
#    0.000    3.846    0.000    0.000    0.000    0.000 
#    0.000    0.000    0.000    0.000    0.000    0.000 
#
# Total GULP energy -322116.072778 kJ/mol
# GULP energy per Si atom -12389.079722 kJ/mol
# Density = 2.225071 g / cm^3
# Si number density = 22.301470 Si / 1000 Ang^3
#
#
#
# Elastic Constant Matrix: (Units=GPa)
#
#
# Indices 1 2 3 4 5 6 
#
# 1 168.3462 75.1661 45.8777 0.0000 0.0000 0.0000
# 2 75.1661 232.9979 41.5845 0.0000 0.0000 0.0000
# 3 45.8777 41.5845 65.6830 0.0000 0.0000 0.0000
# 4 0.0000 0.0000 0.0000 30.1508 0.0000 0.0000
# 5 0.0000 0.0000 0.0000 0.0000 5.3460 0.0000
# 6 0.0000 0.0000 0.0000 0.0000 0.0000 36.0616
#
#
#
# Elastic Compliance Matrix: (Units=1/GPa)
#
#
# Indices 1 2 3 4 5 6 
#
# 1 0.007936 -0.001771 -0.004422 0.000000 0.000000 0.000000
# 2 -0.001771 0.005234 -0.002077 0.000000 0.000000 0.000000
# 3 -0.004422 -0.002077 0.019628 0.000000 0.000000 0.000000
# 4 0.000000 0.000000 0.000000 0.033167 0.000000 0.000000
# 5 0.000000 0.000000 0.000000 0.000000 0.187054 0.000000
# 6 0.000000 0.000000 0.000000 0.000000 0.000000 0.027730
#
#
# Mechanical properties :
#
#
# Convention : Reuss Voigt Hill
#
# Bulk Modulus (GPa) = 61.50499 88.03153 74.76826
# Shear Modulus (GPa) = 16.51763 34.60495 25.56129
#
# Velocity S-wave (km/s) = 2.72444 3.94342 3.38919
# Velocity P-wave (km/s) = 6.12663 7.76487 6.99388
#
# Compressibility (1/GPa) = 0.01625884
#
# Stress axis : x y z
#
# Youngs Moduli (GPa) = 126.00975 191.06459 50.94807
#
# Poissons Ratio (x) = 0.33837 0.22528
# Poissons Ratio (y) = 0.22316 0.10580
# Poissons Ratio (z) = 0.55719 0.39677
#
# Static dielectric constant tensor:
#      x y z
#    x 3.922890 0.000000 0.000000 
#    y 0.000000 5.943810 0.000000 
#    z 0.000000 0.000000 3.488460 
# 
# 
# High freq. dielectric constant tensor:
#      x y z
#    x 1.880310 0.000000 0.000000 
#    y 0.000000 1.917180 0.000000 
#    z 0.000000 0.000000 1.812350 
# 
# From -- ./inp_files/27592.got.cif
#   From: 2010.03.12/outbox.cif.g09.slc.cpg/sg68_14_cif.got.tgz:27592.got - 2010.04.10 23:14:56.
