data_PCOD8282718
_publ_section_title
;
Structure prediction by ZEFSAII (Michael W. Deem and Ramdas Pophale) SiO2 
 PCOD8282718
Probable space group: C C C A
;
_chemical_formula_sum "Si O2"
_cell_formula_units_Z 52
_cell_length_a 31.178276
_cell_length_b 16.278000
_cell_length_c 5.028626
_cell_angle_alpha 90.000000
_cell_angle_beta 90.000000
_cell_angle_gamma 90.000000
_cell_volume 2552.128150
_symmetry_space_group_name_H-M "C C C A"
_symmetry_group_IT_number 68
_space_group.IT_coordinate_system_code '2'
_symmetry_cell_setting 'orthorhombic'
loop_
_space_group_symop_operation_xyz
x,y,z
-x,1/2-y,z
x,1/2-y,1/2-z
-x,y,1/2-z
-x,-y,-z
x,1/2+y,-z
-x,1/2+y,1/2+z
x,-y,1/2+z
1/2+x,1/2+y,z
1/2-x,-y,z
1/2+x,-y,1/2-z
1/2-x,1/2+y,1/2-z
1/2-x,1/2-y,-z
1/2+x,y,-z
1/2-x,y,1/2+z
1/2+x,1/2-y,1/2+z
loop_
_atom_site_type_symbol
_atom_site_label
_atom_site_fract_x
_atom_site_fract_y
_atom_site_fract_z
Si Si1 0.917990 0.698880 0.007702
Si Si2 0.776431 0.653967 0.763968
Si Si3 0.860144 0.446112 0.362606
Si Si4 0.000000 0.750000 0.250000
O O1 0.907618 0.750000 0.750000
O O2 0.900250 0.608282 0.958487
O O3 0.895592 0.750000 0.250000
O O4 0.969315 0.692339 0.067025
O O5 0.787488 0.750000 0.750000
O O6 0.761976 0.629691 0.467019
O O7 0.817179 0.606882 0.879689
O O8 0.861889 0.523871 0.558744
#
# Coordination Sequence:
#
# PCOD8282718 Si02
#       4
#    16  16  16   4
#     4  10  21  41  68  90 119 159 215 251 301 375
#     4  10  22  40  62  87 120 167 219 255 289 353
#     4  12  25  39  60  96 133 165 201 255 326 370
#     4   8  22  40  74  92 106 164 220 248 306 364
#
# _framework density 20.375153000000001
#
# number of rings (size 3 to 8) (size 9 to 14) (size 15 to 20)
#    0.923    0.615    0.000    5.077    0.000    7.385 
#    0.000    1.538    0.000    0.000    0.000    0.000 
#    0.000    0.000    0.000    0.000    0.000    0.000 
#
# Total GULP energy -322205.144588 kJ/mol
# GULP energy per Si atom -12392.505561 kJ/mol
# Density = 2.032878 g / cm^3
# Si number density = 20.375153 Si / 1000 Ang^3
#
#
#
# Elastic Constant Matrix: (Units=GPa)
#
#
# Indices 1 2 3 4 5 6 
#
# 1 105.5967 53.9791 19.0567 0.0000 0.0000 0.0000
# 2 53.9791 81.5559 34.1252 0.0000 0.0000 0.0000
# 3 19.0567 34.1252 125.8810 0.0000 0.0000 0.0000
# 4 0.0000 0.0000 0.0000 43.8895 0.0000 0.0000
# 5 0.0000 0.0000 0.0000 0.0000 73.8341 0.0000
# 6 0.0000 0.0000 0.0000 0.0000 0.0000 16.3069
#
#
#
# Elastic Compliance Matrix: (Units=1/GPa)
#
#
# Indices 1 2 3 4 5 6 
#
# 1 0.014335 -0.009678 0.000453 0.000000 0.000000 0.000000
# 2 -0.009678 0.020364 -0.004055 0.000000 0.000000 0.000000
# 3 0.000453 -0.004055 0.008975 0.000000 0.000000 0.000000
# 4 0.000000 0.000000 0.000000 0.022785 0.000000 0.000000
# 5 0.000000 0.000000 0.000000 0.000000 0.013544 0.000000
# 6 0.000000 0.000000 0.000000 0.000000 0.000000 0.061324
#
#
# Mechanical properties :
#
#
# Convention : Reuss Voigt Hill
#
# Bulk Modulus (GPa) = 58.43046 58.59505 58.51276
# Shear Modulus (GPa) = 28.80350 40.53093 34.66722
#
# Velocity S-wave (km/s) = 3.76394 4.46492 4.12933
# Velocity P-wave (km/s) = 6.90140 7.44320 7.17741
#
# Compressibility (1/GPa) = 0.01711436
#
# Stress axis : x y z
#
# Youngs Moduli (GPa) = 69.75815 49.10688 111.42377
#
# Poissons Ratio (x) = 0.47524 -0.05052
# Poissons Ratio (y) = 0.67510 0.45186
# Poissons Ratio (z) = -0.03163 0.19915
#
# Static dielectric constant tensor:
#      x y z
#    x 3.520160 0.000000 0.000000 
#    y 0.000000 2.892130 0.000000 
#    z 0.000000 0.000000 3.879930 
# 
# 
# High freq. dielectric constant tensor:
#      x y z
#    x 1.783890 0.000000 0.000000 
#    y 0.000000 1.781340 0.000000 
#    z 0.000000 0.000000 1.818850 
# 
# From -- ./inp_files/2547.got.cif
#   From: 2010.03.12/outbox.cif.g09.slc.cpg/sg68_2_cif.got.tgz:2547.got - 2010.04.10 23:14:56.
