data_PCOD8282220
_publ_section_title
;
Structure prediction by ZEFSAII (Michael W. Deem and Ramdas Pophale) SiO2 
 PCOD8282220
Probable space group: C C C A
;
_chemical_formula_sum "Si O2"
_cell_formula_units_Z 64
_cell_length_a 17.316894
_cell_length_b 9.810872
_cell_length_c 16.954728
_cell_angle_alpha 90.000000
_cell_angle_beta 90.000000
_cell_angle_gamma 90.000000
_cell_volume 2880.503685
_symmetry_space_group_name_H-M "C C C A"
_symmetry_group_IT_number 68
_space_group.IT_coordinate_system_code '2'
_symmetry_cell_setting 'orthorhombic'
loop_
_space_group_symop_operation_xyz
x,y,z
-x,1/2-y,z
x,1/2-y,1/2-z
-x,y,1/2-z
-x,-y,-z
x,1/2+y,-z
-x,1/2+y,1/2+z
x,-y,1/2+z
1/2+x,1/2+y,z
1/2-x,-y,z
1/2+x,-y,1/2-z
1/2-x,1/2+y,1/2-z
1/2-x,1/2-y,-z
1/2+x,y,-z
1/2-x,y,1/2+z
1/2+x,1/2-y,1/2+z
loop_
_atom_site_type_symbol
_atom_site_label
_atom_site_fract_x
_atom_site_fract_y
_atom_site_fract_z
Si Si1 0.681698 0.405830 0.749304
Si Si2 0.042590 0.465141 0.672001
Si Si3 0.389897 0.477153 0.912665
Si Si4 0.586461 0.270531 0.457898
O O1 0.708466 0.250000 0.750000
O O2 0.750000 0.500000 0.783592
O O3 0.605710 0.421110 0.804151
O O4 0.665587 0.453278 0.660597
O O5 0.084746 0.339640 0.628877
O O6 0.000000 0.408389 0.750000
O O7 0.980233 0.531923 0.612716
O O8 0.370796 0.625726 0.949263
O O9 0.369919 0.364823 0.978743
O O10 0.500000 0.250000 0.489316
#
# Coordination Sequence:
#
# PCOD8282220 Si02
#       4
#    16  16  16  16
#     4  11  27  44  65  90 128 171 219 267 319 383
#     4   9  20  38  66  96 127 164 215 271 319 371
#     4  10  23  39  67 100 128 165 212 260 326 383
#     4  10  20  36  64  99 135 161 201 268 319 384
#
# _framework density 22.218336999999998
#
# number of rings (size 3 to 8) (size 9 to 14) (size 15 to 20)
#    0.000    2.000    0.000    3.000   10.500   14.000 
#    0.000    2.500    0.000    0.000    0.000    0.000 
#    0.000    0.000    0.000    0.000    0.000    0.000 
#
# Total GULP energy -396856.013206 kJ/mol
# GULP energy per Si atom -12401.750413 kJ/mol
# Density = 2.216777 g / cm^3
# Si number density = 22.218337 Si / 1000 Ang^3
#
#
#
# Elastic Constant Matrix: (Units=GPa)
#
#
# Indices 1 2 3 4 5 6 
#
# 1 62.4022 35.7126 17.0341 0.0000 0.0000 0.0000
# 2 35.7126 167.8317 48.4325 0.0000 0.0000 0.0000
# 3 17.0341 48.4325 99.2661 0.0000 0.0000 0.0000
# 4 0.0000 0.0000 0.0000 40.6965 0.0000 0.0000
# 5 0.0000 0.0000 0.0000 0.0000 13.0115 0.0000
# 6 0.0000 0.0000 0.0000 0.0000 0.0000 25.0728
#
#
#
# Elastic Compliance Matrix: (Units=1/GPa)
#
#
# Indices 1 2 3 4 5 6 
#
# 1 0.018426 -0.003501 -0.001454 0.000000 0.000000 0.000000
# 2 -0.003501 0.007600 -0.003107 0.000000 0.000000 0.000000
# 3 -0.001454 -0.003107 0.011839 0.000000 0.000000 0.000000
# 4 0.000000 0.000000 0.000000 0.024572 0.000000 0.000000
# 5 0.000000 0.000000 0.000000 0.000000 0.076855 0.000000
# 6 0.000000 0.000000 0.000000 0.000000 0.000000 0.039884
#
#
# Mechanical properties :
#
#
# Convention : Reuss Voigt Hill
#
# Bulk Modulus (GPa) = 45.99633 59.09538 52.54585
# Shear Modulus (GPa) = 24.68554 30.97753 27.83153
#
# Velocity S-wave (km/s) = 3.33685 3.73799 3.54310
# Velocity P-wave (km/s) = 5.96599 6.72945 6.35918
#
# Compressibility (1/GPa) = 0.02174086
#
# Stress axis : x y z
#
# Youngs Moduli (GPa) = 54.27225 131.57748 84.46349
#
# Poissons Ratio (x) = 0.46069 0.12277
# Poissons Ratio (y) = 0.19002 0.26245
# Poissons Ratio (z) = 0.07889 0.40885
#
# Static dielectric constant tensor:
#      x y z
#    x 3.555950 0.000000 0.000000 
#    y 0.000000 4.005960 0.000000 
#    z 0.000000 0.000000 3.974650 
# 
# 
# High freq. dielectric constant tensor:
#      x y z
#    x 1.832990 0.000000 0.000000 
#    y 0.000000 1.876850 0.000000 
#    z 0.000000 0.000000 1.880550 
# 
# From -- ./inp_files/27876.got.cif
#   From: 2010.03.12/outbox.cif.g09.slc.cpg/sg68_14_cif.got.tgz:27876.got - 2010.04.10 23:14:56.
