data_PCOD8282311
_publ_section_title
;
Structure prediction by ZEFSAII (Michael W. Deem and Ramdas Pophale) SiO2 
 PCOD8282311
Probable space group: C C C A
;
_chemical_formula_sum "Si O2"
_cell_formula_units_Z 88
_cell_length_a 17.582729
_cell_length_b 19.010729
_cell_length_c 11.653663
_cell_angle_alpha 90.000000
_cell_angle_beta 90.000000
_cell_angle_gamma 90.000000
_cell_volume 3895.359176
_symmetry_space_group_name_H-M "C C C A"
_symmetry_group_IT_number 68
_space_group.IT_coordinate_system_code '2'
_symmetry_cell_setting 'orthorhombic'
loop_
_space_group_symop_operation_xyz
x,y,z
-x,1/2-y,z
x,1/2-y,1/2-z
-x,y,1/2-z
-x,-y,-z
x,1/2+y,-z
-x,1/2+y,1/2+z
x,-y,1/2+z
1/2+x,1/2+y,z
1/2-x,-y,z
1/2+x,-y,1/2-z
1/2-x,1/2+y,1/2-z
1/2-x,1/2-y,-z
1/2+x,y,-z
1/2-x,y,1/2+z
1/2+x,1/2-y,1/2+z
loop_
_atom_site_type_symbol
_atom_site_label
_atom_site_fract_x
_atom_site_fract_y
_atom_site_fract_z
Si Si1 0.865614 0.853025 0.634175
Si Si2 0.508106 0.673012 0.011372
Si Si3 0.557482 0.553144 0.649784
Si Si4 0.799100 0.622464 0.110358
Si Si5 0.746663 0.250000 0.750000
Si Si6 0.128683 0.912513 0.626347
O O1 0.949555 0.821735 0.617460
O O2 0.837078 0.884623 0.514374
O O3 0.805351 0.794354 0.666258
O O4 0.873429 0.910199 0.734977
O O5 0.500000 0.750000 0.950164
O O6 0.591641 0.656034 0.064187
O O7 0.485377 0.611105 0.925515
O O8 0.500000 0.533313 0.750000
O O9 0.640314 0.582056 0.692923
O O10 0.579778 0.480153 0.584362
O O11 0.795691 0.700672 0.165051
O O12 0.717892 0.584747 0.096168
#
# Coordination Sequence:
#
# PCOD8282311 Si02
#       6
#    16  16  16  16   8  16
#     4  10  21  38  63  93 126 165 213 263 321 385
#     4  11  23  39  64  95 127 166 213 268 330 392
#     4  11  25  43  63  92 129 171 217 267 325 392
#     4  10  23  40  63  94 129 169 215 264 323 384
#     4  10  20  38  64  94 134 172 210 266 323 384
#     4  11  23  43  67  93 126 170 219 272 325 389
#
# _framework density 22.590983999999999
#
# number of rings (size 3 to 8) (size 9 to 14) (size 15 to 20)
#    0.000    1.455    0.000    5.455    0.000    9.818 
#    0.000    7.273    0.000    0.000    0.000    0.000 
#    0.000    0.000    0.000    0.000    0.000    0.000 
#
# Total GULP energy -545123.415510 kJ/mol
# GULP energy per Si atom -12389.168534 kJ/mol
# Density = 2.253957 g / cm^3
# Si number density = 22.590984 Si / 1000 Ang^3
#
#
#
# Elastic Constant Matrix: (Units=GPa)
#
#
# Indices 1 2 3 4 5 6 
#
# 1 156.5061 36.5384 26.2107 0.0000 0.0000 0.0000
# 2 36.5384 128.4449 24.6917 0.0000 0.0000 0.0000
# 3 26.2107 24.6917 53.3897 0.0000 0.0000 0.0000
# 4 0.0000 0.0000 0.0000 31.4011 0.0000 0.0000
# 5 0.0000 0.0000 0.0000 0.0000 39.7347 0.0000
# 6 0.0000 0.0000 0.0000 0.0000 0.0000 -21.7887
#
#
#
# Elastic Compliance Matrix: (Units=1/GPa)
#
#
# Indices 1 2 3 4 5 6 
#
# 1 0.007218 -0.001506 -0.002847 0.000000 0.000000 0.000000
# 2 -0.001506 0.008859 -0.003358 0.000000 0.000000 0.000000
# 3 -0.002847 -0.003358 0.021681 0.000000 0.000000 0.000000
# 4 0.000000 0.000000 0.000000 0.031846 0.000000 0.000000
# 5 0.000000 0.000000 0.000000 0.000000 0.025167 0.000000
# 6 0.000000 0.000000 0.000000 0.000000 0.000000 -0.045895
#
#
# Mechanical properties :
#
#
# Convention : Reuss Voigt Hill
#
# Bulk Modulus (GPa) = 44.77024 57.02471 50.89747
# Shear Modulus (GPa) = 69.69314 26.59608 48.14461
#
# Velocity S-wave (km/s) = 5.56030 3.43488 4.62144
# Velocity P-wave (km/s) = 7.81559 6.40533 7.14534
#
# Compressibility (1/GPa) = 0.02233627
#
# Stress axis : x y z
#
# Youngs Moduli (GPa) = 138.54409 112.87494 46.12356
#
# Poissons Ratio (x) = 0.16999 0.13131
# Poissons Ratio (y) = 0.20864 0.15488
# Poissons Ratio (z) = 0.39444 0.37903
#
# Static dielectric constant tensor:
#      x y z
#    x 4.488670 0.000000 0.000000 
#    y 0.000000 2.759050 0.000000 
#    z 0.000000 0.000000 3.970530 
# 
# 
# High freq. dielectric constant tensor:
#      x y z
#    x 1.914790 0.000000 0.000000 
#    y 0.000000 1.893100 0.000000 
#    z 0.000000 0.000000 1.865420 
# 
# From -- ./inp_files/23615.got.cif
#   From: 2010.03.12/outbox.cif.g09.slc.cpg/sg68_12_cif.got.tgz:23615.got - 2010.04.10 23:14:56.
