data_PCOD8282806
_publ_section_title
;
Structure prediction by ZEFSAII (Michael W. Deem and Ramdas Pophale) SiO2 
 PCOD8282806
Probable space group: C C C A
;
_chemical_formula_sum "Si O2"
_cell_formula_units_Z 104
_cell_length_a 20.273037
_cell_length_b 26.771517
_cell_length_c 8.981001
_cell_angle_alpha 90.000000
_cell_angle_beta 90.000000
_cell_angle_gamma 90.000000
_cell_volume 4874.348076
_symmetry_space_group_name_H-M "C C C A"
_symmetry_group_IT_number 68
_space_group.IT_coordinate_system_code '2'
_symmetry_cell_setting 'orthorhombic'
loop_
_space_group_symop_operation_xyz
x,y,z
-x,1/2-y,z
x,1/2-y,1/2-z
-x,y,1/2-z
-x,-y,-z
x,1/2+y,-z
-x,1/2+y,1/2+z
x,-y,1/2+z
1/2+x,1/2+y,z
1/2-x,-y,z
1/2+x,-y,1/2-z
1/2-x,1/2+y,1/2-z
1/2-x,1/2-y,-z
1/2+x,y,-z
1/2-x,y,1/2+z
1/2+x,1/2-y,1/2+z
loop_
_atom_site_type_symbol
_atom_site_label
_atom_site_fract_x
_atom_site_fract_y
_atom_site_fract_z
Si Si1 0.929150 0.136714 0.698020
Si Si2 0.098864 0.476343 0.716588
Si Si3 0.818676 0.198772 0.832692
Si Si4 0.000000 0.944843 0.750000
Si Si5 0.319020 0.302952 0.687170
Si Si6 0.319663 0.476027 0.948229
Si Si7 0.610400 0.120478 0.879588
O O1 0.934477 0.077309 0.710706
O O2 0.874671 0.157652 0.810215
O O3 0.904980 0.151622 0.530840
O O4 0.000000 0.159104 0.750000
O O5 0.121529 0.490300 0.881783
O O6 0.167000 0.477924 0.623710
O O7 0.047488 0.518098 0.655392
O O8 0.840057 0.250000 0.750000
O O9 0.750135 0.180644 0.760978
O O10 0.810655 0.203126 0.010436
O O11 0.042851 0.909698 0.643790
O O12 0.342401 0.250000 0.750000
O O13 0.373433 0.343306 0.740477
O O14 0.250000 0.500000 0.908090
O O15 0.327973 0.418308 0.894718
#
# Coordination Sequence:
#
# PCOD8282806 Si02
#       7
#    16  16  16   8  16  16  16
#     4  11  24  39  64  95 135 178 228 270 325 395
#     4  10  22  38  62  87 126 178 218 272 323 388
#     4  11  24  44  73 101 132 171 213 273 337 402
#     4  10  22  42  65  88 131 174 236 262 332 384
#     4  11  23  46  74 100 135 166 215 273 340 403
#     4  10  22  38  58  91 131 167 222 275 328 384
#     4  10  24  40  63  98 132 176 228 275 327 400
#
# _framework density 21.336186999999999
#
# number of rings (size 3 to 8) (size 9 to 14) (size 15 to 20)
#    0.000    1.538    0.769    4.154    6.462    3.385 
#    2.769    0.385    0.000    0.000    0.000    0.000 
#    0.000    0.000    0.000    0.000    0.000    0.000 
#
# Total GULP energy -644487.821397 kJ/mol
# GULP energy per Si atom -12393.996565 kJ/mol
# Density = 2.128762 g / cm^3
# Si number density = 21.336187 Si / 1000 Ang^3
#
#
#
# Elastic Constant Matrix: (Units=GPa)
#
#
# Indices 1 2 3 4 5 6 
#
# 1 112.9339 55.1906 38.7724 0.0000 0.0000 0.0000
# 2 55.1906 82.3218 44.5983 0.0000 0.0000 0.0000
# 3 38.7724 44.5983 142.7415 0.0000 0.0000 0.0000
# 4 0.0000 0.0000 0.0000 31.8075 0.0000 0.0000
# 5 0.0000 0.0000 0.0000 0.0000 30.5857 0.0000
# 6 0.0000 0.0000 0.0000 0.0000 0.0000 32.2523
#
#
#
# Elastic Compliance Matrix: (Units=1/GPa)
#
#
# Indices 1 2 3 4 5 6 
#
# 1 0.013286 -0.008369 -0.000994 0.000000 0.000000 0.000000
# 2 -0.008369 0.019894 -0.003943 0.000000 0.000000 0.000000
# 3 -0.000994 -0.003943 0.008507 0.000000 0.000000 0.000000
# 4 0.000000 0.000000 0.000000 0.031439 0.000000 0.000000
# 5 0.000000 0.000000 0.000000 0.000000 0.032695 0.000000
# 6 0.000000 0.000000 0.000000 0.000000 0.000000 0.031005
#
#
# Mechanical properties :
#
#
# Convention : Reuss Voigt Hill
#
# Bulk Modulus (GPa) = 66.32733 68.34666 67.33700
# Shear Modulus (GPa) = 29.68020 32.22484 30.95252
#
# Velocity S-wave (km/s) = 3.73376 3.89052 3.81294
# Velocity P-wave (km/s) = 7.05281 7.23079 7.14236
#
# Compressibility (1/GPa) = 0.01507674
#
# Stress axis : x y z
#
# Youngs Moduli (GPa) = 75.26883 50.26694 117.54345
#
# Poissons Ratio (x) = 0.42066 0.11685
# Poissons Ratio (y) = 0.62989 0.46342
# Poissons Ratio (z) = 0.07482 0.19818
#
# Static dielectric constant tensor:
#      x y z
#    x 3.768990 0.000000 0.000000 
#    y 0.000000 3.766080 0.000000 
#    z 0.000000 0.000000 3.870200 
# 
# 
# High freq. dielectric constant tensor:
#      x y z
#    x 1.835160 0.000000 0.000000 
#    y 0.000000 1.829440 0.000000 
#    z 0.000000 0.000000 1.842120 
# 
# From -- ./inp_files/7375.got.cif
#   From: 2010.03.12/outbox.cif.g09.slc.cpg/sg68_4_cif.got.tgz:7375.got - 2010.04.10 23:14:56.
