data_PCOD8282674
_publ_section_title
;
Structure prediction by ZEFSAII (Michael W. Deem and Ramdas Pophale) SiO2 
 PCOD8282674
Probable space group: C C C A
;
_chemical_formula_sum "Si O2"
_cell_formula_units_Z 96
_cell_length_a 25.162444
_cell_length_b 14.427727
_cell_length_c 13.096150
_cell_angle_alpha 90.000000
_cell_angle_beta 90.000000
_cell_angle_gamma 90.000000
_cell_volume 4754.385340
_symmetry_space_group_name_H-M "C C C A"
_symmetry_group_IT_number 68
_space_group.IT_coordinate_system_code '2'
_symmetry_cell_setting 'orthorhombic'
loop_
_space_group_symop_operation_xyz
x,y,z
-x,1/2-y,z
x,1/2-y,1/2-z
-x,y,1/2-z
-x,-y,-z
x,1/2+y,-z
-x,1/2+y,1/2+z
x,-y,1/2+z
1/2+x,1/2+y,z
1/2-x,-y,z
1/2+x,-y,1/2-z
1/2-x,1/2+y,1/2-z
1/2-x,1/2-y,-z
1/2+x,y,-z
1/2-x,y,1/2+z
1/2+x,1/2-y,1/2+z
loop_
_atom_site_type_symbol
_atom_site_label
_atom_site_fract_x
_atom_site_fract_y
_atom_site_fract_z
Si Si1 0.379204 0.629370 0.914245
Si Si2 0.554591 0.785060 0.635178
Si Si3 0.305627 0.750000 0.250000
Si Si4 0.940033 0.467896 0.761260
Si Si5 0.146252 0.584261 0.637747
Si Si6 0.750000 0.500000 0.431858
Si Si7 0.739049 0.399750 0.127958
O O1 0.396218 0.737696 0.924531
O O2 0.423359 0.577383 0.846392
O O3 0.322620 0.624221 0.859080
O O4 0.377697 0.583177 0.024692
O O5 0.500000 0.750000 0.581548
O O6 0.554438 0.750000 0.750000
O O7 0.561098 0.895908 0.642696
O O8 0.340549 0.811531 0.326642
O O9 0.270954 0.818263 0.180943
O O10 0.898552 0.548836 0.784916
O O11 0.000000 0.507051 0.750000
O O12 0.198319 0.517015 0.638883
O O13 0.755709 0.590514 0.507196
O O14 0.750000 0.500000 0.181306
#
# Coordination Sequence:
#
# PCOD8282674 Si02
#       7
#    16  16   8  16  16   8  16
#     4  10  21  40  63  97 128 168 219 269 345 378
#     4   9  16  35  60  92 119 147 216 283 309 370
#     4  12  26  40  65  98 139 176 226 270 336 410
#     4  11  22  41  70  95 130 170 227 282 324 391
#     4  11  26  41  65  96 135 182 214 276 336 407
#     4   8  22  44  66  98 134 172 234 264 342 404
#     4   9  21  41  63  94 134 169 213 276 321 413
#
# _framework density 20.191884000000002
#
# number of rings (size 3 to 8) (size 9 to 14) (size 15 to 20)
#    0.500    1.500    3.333    1.000    7.000    4.667 
#    0.000    0.417    0.000    0.000    0.000    0.000 
#    0.000    0.000    0.000    0.000    0.000    0.000 
#
# Total GULP energy -594830.435869 kJ/mol
# GULP energy per Si atom -12392.300747 kJ/mol
# Density = 2.014593 g / cm^3
# Si number density = 20.191884 Si / 1000 Ang^3
#
#
#
# Elastic Constant Matrix: (Units=GPa)
#
#
# Indices 1 2 3 4 5 6 
#
# 1 146.7340 65.8535 43.1324 0.0000 0.0000 0.0000
# 2 65.8535 100.6346 22.9985 0.0000 0.0000 0.0000
# 3 43.1324 22.9985 64.4207 0.0000 0.0000 0.0000
# 4 0.0000 0.0000 0.0000 28.9134 0.0000 0.0000
# 5 0.0000 0.0000 0.0000 0.0000 13.7315 0.0000
# 6 0.0000 0.0000 0.0000 0.0000 0.0000 30.3468
#
#
#
# Elastic Compliance Matrix: (Units=1/GPa)
#
#
# Indices 1 2 3 4 5 6 
#
# 1 0.011073 -0.006045 -0.005256 0.000000 0.000000 0.000000
# 2 -0.006045 0.014120 -0.000994 0.000000 0.000000 0.000000
# 3 -0.005256 -0.000994 0.019397 0.000000 0.000000 0.000000
# 4 0.000000 0.000000 0.000000 0.034586 0.000000 0.000000
# 5 0.000000 0.000000 0.000000 0.000000 0.072825 0.000000
# 6 0.000000 0.000000 0.000000 0.000000 0.000000 0.032952
#
#
# Mechanical properties :
#
#
# Convention : Reuss Voigt Hill
#
# Bulk Modulus (GPa) = 49.99756 63.97311 56.98533
# Shear Modulus (GPa) = 23.12593 26.58534 24.85563
#
# Velocity S-wave (km/s) = 3.38791 3.63248 3.51233
# Velocity P-wave (km/s) = 6.33395 7.02457 6.68818
#
# Compressibility (1/GPa) = 0.02000097
#
# Stress axis : x y z
#
# Youngs Moduli (GPa) = 90.31125 70.82368 51.55544
#
# Poissons Ratio (x) = 0.42811 0.27096
# Poissons Ratio (y) = 0.54591 0.05122
# Poissons Ratio (z) = 0.47465 0.07037
#
# Static dielectric constant tensor:
#      x y z
#    x 3.896750 0.000000 0.000000 
#    y 0.000000 4.057840 0.000000 
#    z 0.000000 0.000000 3.448850 
# 
# 
# High freq. dielectric constant tensor:
#      x y z
#    x 1.793810 0.000000 0.000000 
#    y 0.000000 1.771930 0.000000 
#    z 0.000000 0.000000 1.766960 
# 
# From -- ./inp_files/25411.got.cif
#   From: 2010.03.12/outbox.cif.g09.slc.cpg/sg68_13_cif.got.tgz:25411.got - 2010.04.10 23:14:56.
