data_PCOD8282632
_publ_section_title
;
Structure prediction by ZEFSAII (Michael W. Deem and Ramdas Pophale) SiO2 
 PCOD8282632
Probable space group: C C C A
;
_chemical_formula_sum "Si O2"
_cell_formula_units_Z 96
_cell_length_a 23.124822
_cell_length_b 8.352013
_cell_length_c 21.486030
_cell_angle_alpha 90.000000
_cell_angle_beta 90.000000
_cell_angle_gamma 90.000000
_cell_volume 4149.786351
_symmetry_space_group_name_H-M "C C C A"
_symmetry_group_IT_number 68
_space_group.IT_coordinate_system_code '2'
_symmetry_cell_setting 'orthorhombic'
loop_
_space_group_symop_operation_xyz
x,y,z
-x,1/2-y,z
x,1/2-y,1/2-z
-x,y,1/2-z
-x,-y,-z
x,1/2+y,-z
-x,1/2+y,1/2+z
x,-y,1/2+z
1/2+x,1/2+y,z
1/2-x,-y,z
1/2+x,-y,1/2-z
1/2-x,1/2+y,1/2-z
1/2-x,1/2-y,-z
1/2+x,y,-z
1/2-x,y,1/2+z
1/2+x,1/2-y,1/2+z
loop_
_atom_site_type_symbol
_atom_site_label
_atom_site_fract_x
_atom_site_fract_y
_atom_site_fract_z
Si Si1 0.689074 0.429462 0.877390
Si Si2 0.091985 0.491288 0.914901
Si Si3 0.384295 0.429075 0.224416
Si Si4 0.986675 0.931918 0.652618
Si Si5 0.688118 0.077875 0.829479
Si Si6 0.089340 0.341801 0.041905
O O1 0.750000 0.500000 0.897981
O O2 0.655029 0.563543 0.837648
O O3 0.695679 0.267530 0.837170
O O4 0.654884 0.390268 0.940626
O O5 0.157679 0.494679 0.889477
O O6 0.075473 0.658155 0.946473
O O7 0.046461 0.467353 0.857429
O O8 0.082414 0.360011 0.967914
O O9 0.384899 0.250000 0.250000
O O10 0.449091 0.488491 0.207796
O O11 0.355093 0.551257 0.272389
O O12 0.953480 0.942334 0.586181
O O13 0.000000 0.750000 0.672774
O O14 0.750000 0.000000 0.816618
#
# Coordination Sequence:
#
# PCOD8282632 Si02
#       6
#    16  16  16  16  16  16
#     4  10  21  39  63  92 127 170 213 257 312 375
#     4  10  21  39  62  90 125 163 207 253 311 374
#     4  11  23  41  66  96 125 161 210 264 316 371
#     4   9  20  41  66  92 124 166 206 252 316 382
#     4  11  24  41  62  91 127 171 212 258 316 375
#     4   9  20  37  62  91 122 163 205 253 313 370
#
# _framework density 23.133721000000001
#
# number of rings (size 3 to 8) (size 9 to 14) (size 15 to 20)
#    0.000    2.000    0.000    3.500    0.000    5.333 
#    0.000   10.833    0.000    2.000    0.000    0.000 
#    0.000    0.000    0.000    0.000    0.000    0.000 
#
# Total GULP energy -595167.762007 kJ/mol
# GULP energy per Si atom -12399.328375 kJ/mol
# Density = 2.308107 g / cm^3
# Si number density = 23.133721 Si / 1000 Ang^3
#
#
#
# Elastic Constant Matrix: (Units=GPa)
#
#
# Indices 1 2 3 4 5 6 
#
# 1 151.3117 49.0358 35.0621 0.0000 0.0000 0.0000
# 2 49.0358 68.6013 30.7117 0.0000 0.0000 0.0000
# 3 35.0621 30.7117 74.7687 0.0000 0.0000 0.0000
# 4 0.0000 0.0000 0.0000 32.6780 0.0000 0.0000
# 5 0.0000 0.0000 0.0000 0.0000 26.9306 0.0000
# 6 0.0000 0.0000 0.0000 0.0000 0.0000 37.3119
#
#
#
# Elastic Compliance Matrix: (Units=1/GPa)
#
#
# Indices 1 2 3 4 5 6 
#
# 1 0.008815 -0.005453 -0.001894 0.000000 0.000000 0.000000
# 2 -0.005453 0.021235 -0.006165 0.000000 0.000000 0.000000
# 3 -0.001894 -0.006165 0.016795 0.000000 0.000000 0.000000
# 4 0.000000 0.000000 0.000000 0.030602 0.000000 0.000000
# 5 0.000000 0.000000 0.000000 0.000000 0.037132 0.000000
# 6 0.000000 0.000000 0.000000 0.000000 0.000000 0.026801
#
#
# Mechanical properties :
#
#
# Convention : Reuss Voigt Hill
#
# Bulk Modulus (GPa) = 50.45218 58.25566 54.35392
# Shear Modulus (GPa) = 28.56966 31.37558 29.97262
#
# Velocity S-wave (km/s) = 3.51804 3.68675 3.60338
# Velocity P-wave (km/s) = 6.19342 6.58481 6.39211
#
# Compressibility (1/GPa) = 0.01982075
#
# Stress axis : x y z
#
# Youngs Moduli (GPa) = 113.44467 47.09243 59.54131
#
# Poissons Ratio (x) = 0.25680 0.11276
# Poissons Ratio (y) = 0.61861 0.36708
# Poissons Ratio (z) = 0.21484 0.29033
#
# Static dielectric constant tensor:
#      x y z
#    x 4.395740 0.000000 0.000000 
#    y 0.000000 3.881280 0.000000 
#    z 0.000000 0.000000 4.102950 
# 
# 
# High freq. dielectric constant tensor:
#      x y z
#    x 1.926630 0.000000 0.000000 
#    y 0.000000 1.898110 0.000000 
#    z 0.000000 0.000000 1.907800 
# 
# From -- ./inp_files/46912.got.cif
#   From: 2010.03.12/outbox.cif.g09.slc.cpg/sg68_24_cif.got.tgz:46912.got - 2010.04.10 23:14:56.
