data_PCOD8282572
_publ_section_title
;
Structure prediction by ZEFSAII (Michael W. Deem and Ramdas Pophale) SiO2 
 PCOD8282572
Probable space group: C C C A
;
_chemical_formula_sum "Si O2"
_cell_formula_units_Z 96
_cell_length_a 8.553903
_cell_length_b 24.489539
_cell_length_c 20.987255
_cell_angle_alpha 90.000000
_cell_angle_beta 90.000000
_cell_angle_gamma 90.000000
_cell_volume 4396.434126
_symmetry_space_group_name_H-M "C C C A"
_symmetry_group_IT_number 68
_space_group.IT_coordinate_system_code '2'
_symmetry_cell_setting 'orthorhombic'
loop_
_space_group_symop_operation_xyz
x,y,z
-x,1/2-y,z
x,1/2-y,1/2-z
-x,y,1/2-z
-x,-y,-z
x,1/2+y,-z
-x,1/2+y,1/2+z
x,-y,1/2+z
1/2+x,1/2+y,z
1/2-x,-y,z
1/2+x,-y,1/2-z
1/2-x,1/2+y,1/2-z
1/2-x,1/2-y,-z
1/2+x,y,-z
1/2-x,y,1/2+z
1/2+x,1/2-y,1/2+z
loop_
_atom_site_type_symbol
_atom_site_label
_atom_site_fract_x
_atom_site_fract_y
_atom_site_fract_z
Si Si1 0.936279 0.309760 0.858933
Si Si2 0.370652 0.109157 0.468551
Si Si3 0.040501 0.592062 0.587240
Si Si4 0.905919 0.521398 0.089713
Si Si5 0.631277 0.402287 0.204775
Si Si6 0.361591 0.844235 0.290607
O O1 0.905586 0.336744 0.927627
O O2 0.777050 0.305174 0.816449
O O3 0.000000 0.250000 0.871321
O O4 0.064930 0.345005 0.822049
O O5 0.194556 0.091695 0.456439
O O6 0.400312 0.118664 0.544086
O O7 0.487532 0.059604 0.452992
O O8 0.055971 0.628519 0.649224
O O9 0.008612 0.530552 0.610117
O O10 0.750000 0.500000 0.052217
O O11 0.835595 0.554034 0.150099
O O12 0.500000 0.428906 0.250000
O O13 0.787948 0.390949 0.244946
O O14 0.500000 0.813982 0.250000
#
# Coordination Sequence:
#
# PCOD8282572 Si02
#       6
#    16  16  16  16  16  16
#     4   9  20  42  68  86 114 160 202 249 312 367
#     4  10  22  39  60  89 119 155 207 253 298 364
#     4  11  22  38  60  86 125 165 198 247 305 362
#     4  11  21  34  57  85 117 160 199 244 299 355
#     4   9  20  36  56  86 121 157 202 243 291 364
#     4  10  21  38  60  91 124 158 203 256 302 358
#
# _framework density 21.835878999999998
#
# number of rings (size 3 to 8) (size 9 to 14) (size 15 to 20)
#    0.000    2.000    0.000    4.000    0.000    6.333 
#    0.000    6.667    0.000    2.000    0.000    0.000 
#    0.000    0.000    0.000    0.000    0.000    0.000 
#
# Total GULP energy -594990.340436 kJ/mol
# GULP energy per Si atom -12395.632092 kJ/mol
# Density = 2.178618 g / cm^3
# Si number density = 21.835879 Si / 1000 Ang^3
#
#
#
# Elastic Constant Matrix: (Units=GPa)
#
#
# Indices 1 2 3 4 5 6 
#
# 1 101.3856 40.6710 28.3995 0.0000 0.0000 0.0000
# 2 40.6710 105.3429 30.9435 0.0000 0.0000 0.0000
# 3 28.3995 30.9435 91.4259 0.0000 0.0000 0.0000
# 4 0.0000 0.0000 0.0000 7.7558 0.0000 0.0000
# 5 0.0000 0.0000 0.0000 0.0000 50.7169 0.0000
# 6 0.0000 0.0000 0.0000 0.0000 0.0000 19.7381
#
#
#
# Elastic Compliance Matrix: (Units=1/GPa)
#
#
# Indices 1 2 3 4 5 6 
#
# 1 0.012137 -0.003973 -0.002425 0.000000 0.000000 0.000000
# 2 -0.003973 0.011842 -0.002774 0.000000 0.000000 0.000000
# 3 -0.002425 -0.002774 0.012630 0.000000 0.000000 0.000000
# 4 0.000000 0.000000 0.000000 0.128936 0.000000 0.000000
# 5 0.000000 0.000000 0.000000 0.000000 0.019717 0.000000
# 6 0.000000 0.000000 0.000000 0.000000 0.000000 0.050663
#
#
# Mechanical properties :
#
#
# Convention : Reuss Voigt Hill
#
# Bulk Modulus (GPa) = 54.75312 55.35360 55.05336
# Shear Modulus (GPa) = 19.20437 28.85150 24.02794
#
# Velocity S-wave (km/s) = 2.96883 3.63890 3.32081
# Velocity P-wave (km/s) = 6.07299 6.56203 6.32224
#
# Compressibility (1/GPa) = 0.01826380
#
# Stress axis : x y z
#
# Youngs Moduli (GPa) = 82.39558 84.44829 79.17726
#
# Poissons Ratio (x) = 0.33554 0.19202
# Poissons Ratio (y) = 0.32739 0.21961
# Poissons Ratio (z) = 0.19982 0.23423
#
# Static dielectric constant tensor:
#      x y z
#    x 4.250110 0.000000 0.000000 
#    y 0.000000 3.462390 0.000000 
#    z 0.000000 0.000000 4.134130 
# 
# 
# High freq. dielectric constant tensor:
#      x y z
#    x 1.877540 0.000000 0.000000 
#    y 0.000000 1.820010 0.000000 
#    z 0.000000 0.000000 1.870020 
# 
# From -- ./inp_files/36489.got.cif
#   From: 2010.03.12/outbox.cif.g09.slc.cpg/sg68_19_cif.got.tgz:36489.got - 2010.04.10 23:14:56.
