data_PCOD8282330
_publ_section_title
;
Structure prediction by ZEFSAII (Michael W. Deem and Ramdas Pophale) SiO2 
 PCOD8282330
Probable space group: C C C A
;
_chemical_formula_sum "Si O2"
_cell_formula_units_Z 88
_cell_length_a 22.166775
_cell_length_b 13.029544
_cell_length_c 14.589209
_cell_angle_alpha 90.000000
_cell_angle_beta 90.000000
_cell_angle_gamma 90.000000
_cell_volume 4213.698676
_symmetry_space_group_name_H-M "C C C A"
_symmetry_group_IT_number 68
_space_group.IT_coordinate_system_code '2'
_symmetry_cell_setting 'orthorhombic'
loop_
_space_group_symop_operation_xyz
x,y,z
-x,1/2-y,z
x,1/2-y,1/2-z
-x,y,1/2-z
-x,-y,-z
x,1/2+y,-z
-x,1/2+y,1/2+z
x,-y,1/2+z
1/2+x,1/2+y,z
1/2-x,-y,z
1/2+x,-y,1/2-z
1/2-x,1/2+y,1/2-z
1/2-x,1/2-y,-z
1/2+x,y,-z
1/2-x,y,1/2+z
1/2+x,1/2-y,1/2+z
loop_
_atom_site_type_symbol
_atom_site_label
_atom_site_fract_x
_atom_site_fract_y
_atom_site_fract_z
Si Si1 0.500000 0.005817 0.750000
Si Si2 0.727819 0.399798 0.977728
Si Si3 0.095061 0.841579 0.683875
Si Si4 0.850885 0.722219 0.489977
Si Si5 0.593853 0.348679 0.312289
Si Si6 0.312681 0.018744 0.780393
O O1 0.459783 0.076108 0.681485
O O2 0.540100 0.931656 0.686503
O O3 0.750000 0.500000 0.035260
O O4 0.787927 0.333262 0.970673
O O5 0.702720 0.438314 0.880459
O O6 0.669757 0.341492 0.019787
O O7 0.073798 0.750000 0.750000
O O8 0.114858 0.800881 0.584751
O O9 0.153439 0.893419 0.726316
O O10 0.900021 0.694367 0.414514
O O11 0.580336 0.250000 0.250000
O O12 0.653513 0.409246 0.281355
O O13 0.250000 0.000000 0.726983
#
# Coordination Sequence:
#
# PCOD8282330 Si02
#       6
#     8  16  16  16  16  16
#     4  10  26  48  68  90 132 176 230 298 328 388
#     4  10  20  39  58 101 147 166 210 263 321 410
#     4  11  23  42  67 101 133 178 228 274 338 392
#     4  11  23  38  71  99 134 179 216 271 329 407
#     4  11  24  45  67  95 132 175 227 277 337 390
#     4  10  20  40  64  95 143 176 209 273 327 408
#
# _framework density 20.884264999999999
#
# number of rings (size 3 to 8) (size 9 to 14) (size 15 to 20)
#    0.000    1.455    5.455    0.545    0.000    8.000 
#    0.000    3.636    0.000    0.000    0.000    0.000 
#    0.000    0.000    0.000    0.000    0.000    0.000 
#
# Total GULP energy -545100.396882 kJ/mol
# GULP energy per Si atom -12388.645384 kJ/mol
# Density = 2.083673 g / cm^3
# Si number density = 20.884265 Si / 1000 Ang^3
#
#
#
# Elastic Constant Matrix: (Units=GPa)
#
#
# Indices 1 2 3 4 5 6 
#
# 1 128.6285 73.4668 34.2516 0.0000 0.0000 0.0000
# 2 73.4668 154.4565 67.2389 0.0000 0.0000 0.0000
# 3 34.2516 67.2389 84.8474 0.0000 0.0000 0.0000
# 4 0.0000 0.0000 0.0000 19.3764 0.0000 0.0000
# 5 0.0000 0.0000 0.0000 0.0000 16.7918 0.0000
# 6 0.0000 0.0000 0.0000 0.0000 0.0000 63.1615
#
#
#
# Elastic Compliance Matrix: (Units=1/GPa)
#
#
# Indices 1 2 3 4 5 6 
#
# 1 0.010685 -0.004892 -0.000436 0.000000 0.000000 0.000000
# 2 -0.004892 0.012124 -0.007633 0.000000 0.000000 0.000000
# 3 -0.000436 -0.007633 0.018011 0.000000 0.000000 0.000000
# 4 0.000000 0.000000 0.000000 0.051609 0.000000 0.000000
# 5 0.000000 0.000000 0.000000 0.000000 0.059553 0.000000
# 6 0.000000 0.000000 0.000000 0.000000 0.000000 0.015832
#
#
# Mechanical properties :
#
#
# Convention : Reuss Voigt Hill
#
# Bulk Modulus (GPa) = 67.12952 79.76079 73.44515
# Shear Modulus (GPa) = 25.16319 32.73097 28.94708
#
# Velocity S-wave (km/s) = 3.47491 3.96315 3.72704
# Velocity P-wave (km/s) = 6.95078 7.69525 7.33247
#
# Compressibility (1/GPa) = 0.01489658
#
# Stress axis : x y z
#
# Youngs Moduli (GPa) = 93.59159 82.47990 55.52161
#
# Poissons Ratio (x) = 0.40351 0.02423
# Poissons Ratio (y) = 0.45787 0.42380
# Poissons Ratio (z) = 0.04084 0.62958
#
# Static dielectric constant tensor:
#      x y z
#    x 4.081040 0.000000 0.000000 
#    y 0.000000 4.519560 0.000000 
#    z 0.000000 0.000000 3.532830 
# 
# 
# High freq. dielectric constant tensor:
#      x y z
#    x 1.822090 0.000000 0.000000 
#    y 0.000000 1.842400 0.000000 
#    z 0.000000 0.000000 1.791930 
# 
# From -- ./inp_files/25279.got.cif
#   From: 2010.03.12/outbox.cif.g09.slc.cpg/sg68_13_cif.got.tgz:25279.got - 2010.04.10 23:14:56.
