data_PCOD8282252
_publ_section_title
;
Structure prediction by ZEFSAII (Michael W. Deem and Ramdas Pophale) SiO2 
 PCOD8282252
Probable space group: C C C A
;
_chemical_formula_sum "Si O2"
_cell_formula_units_Z 104
_cell_length_a 7.950156
_cell_length_b 21.705711
_cell_length_c 29.568398
_cell_angle_alpha 90.000000
_cell_angle_beta 90.000000
_cell_angle_gamma 90.000000
_cell_volume 5102.434780
_symmetry_space_group_name_H-M "C C C A"
_symmetry_group_IT_number 68
_space_group.IT_coordinate_system_code '2'
_symmetry_cell_setting 'orthorhombic'
loop_
_space_group_symop_operation_xyz
x,y,z
-x,1/2-y,z
x,1/2-y,1/2-z
-x,y,1/2-z
-x,-y,-z
x,1/2+y,-z
-x,1/2+y,1/2+z
x,-y,1/2+z
1/2+x,1/2+y,z
1/2-x,-y,z
1/2+x,-y,1/2-z
1/2-x,1/2+y,1/2-z
1/2-x,1/2-y,-z
1/2+x,y,-z
1/2-x,y,1/2+z
1/2+x,1/2-y,1/2+z
loop_
_atom_site_type_symbol
_atom_site_label
_atom_site_fract_x
_atom_site_fract_y
_atom_site_fract_z
Si Si1 0.556386 0.493006 0.800979
Si Si2 0.467557 0.117812 0.638172
Si Si3 0.329721 0.566400 0.053052
Si Si4 0.000000 0.750000 0.887662
Si Si5 0.184217 0.725343 0.452650
Si Si6 0.477411 0.597725 0.962011
Si Si7 0.640227 0.058942 0.370871
O O1 0.500000 0.500055 0.750000
O O2 0.750000 0.500000 0.803713
O O3 0.509431 0.424484 0.818789
O O4 0.491848 0.552267 0.829959
O O5 0.558771 0.089730 0.594300
O O6 0.523695 0.189227 0.643711
O O7 0.263456 0.118146 0.632239
O O8 0.250000 0.500000 0.063276
O O9 0.176313 0.614823 0.042492
O O10 0.448983 0.562310 0.009090
O O11 0.168508 0.740489 0.917185
O O12 0.250000 0.750000 0.500000
O O13 0.154135 0.652971 0.458090
O O14 0.000000 0.750000 0.437857
O O15 0.447160 0.552769 0.919446
O O16 0.750000 0.000000 0.362904
#
# Coordination Sequence:
#
# PCOD8282252 Si02
#       7
#    16  16  16   8  16  16  16
#     4  11  23  43  73 102 127 160 203 263 332 400
#     4  11  22  41  62  93 128 167 214 264 319 385
#     4  12  24  37  57  86 126 172 221 266 332 381
#     4  12  24  42  63  90 130 176 224 272 319 382
#     4  12  24  38  58  84 122 179 234 275 316 372
#     4  12  22  37  54  85 123 171 220 270 316 381
#     4  10  20  37  61  89 124 155 202 260 318 378
#
# _framework density 20.382425000000001
#
# number of rings (size 3 to 8) (size 9 to 14) (size 15 to 20)
#    0.000    0.615    2.308    9.231    0.000    0.000 
#    0.000    0.385    0.000    0.000    0.000    1.077 
#    0.000    0.000    0.000    0.000    0.000    0.000 
#
# Total GULP energy -644350.553360 kJ/mol
# GULP energy per Si atom -12391.356795 kJ/mol
# Density = 2.033603 g / cm^3
# Si number density = 20.382425 Si / 1000 Ang^3
#
#
#
# Elastic Constant Matrix: (Units=GPa)
#
#
# Indices 1 2 3 4 5 6 
#
# 1 133.3300 16.2617 27.1383 0.0000 0.0000 0.0000
# 2 16.2617 94.6073 15.2236 0.0000 0.0000 0.0000
# 3 27.1383 15.2236 88.9351 0.0000 0.0000 0.0000
# 4 0.0000 0.0000 0.0000 12.8946 0.0000 0.0000
# 5 0.0000 0.0000 0.0000 0.0000 35.3234 0.0000
# 6 0.0000 0.0000 0.0000 0.0000 0.0000 30.4385
#
#
#
# Elastic Compliance Matrix: (Units=1/GPa)
#
#
# Indices 1 2 3 4 5 6 
#
# 1 0.008092 -0.001022 -0.002294 0.000000 0.000000 0.000000
# 2 -0.001022 0.010998 -0.001571 0.000000 0.000000 0.000000
# 3 -0.002294 -0.001571 0.012213 0.000000 0.000000 0.000000
# 4 0.000000 0.000000 0.000000 0.077552 0.000000 0.000000
# 5 0.000000 0.000000 0.000000 0.000000 0.028310 0.000000
# 6 0.000000 0.000000 0.000000 0.000000 0.000000 0.032853
#
#
# Mechanical properties :
#
#
# Convention : Reuss Voigt Hill
#
# Bulk Modulus (GPa) = 46.44776 48.23553 47.34165
# Shear Modulus (GPa) = 26.74252 32.94791 29.84521
#
# Velocity S-wave (km/s) = 3.62614 4.02492 3.83072
# Velocity P-wave (km/s) = 6.35369 6.73176 6.54546
#
# Compressibility (1/GPa) = 0.02152956
#
# Stress axis : x y z
#
# Youngs Moduli (GPa) = 123.58216 90.92235 81.87898
#
# Poissons Ratio (x) = 0.09289 0.18785
# Poissons Ratio (y) = 0.12626 0.12862
# Poissons Ratio (z) = 0.28353 0.14283
#
# Static dielectric constant tensor:
#      x y z
#    x 5.085940 0.000000 0.000000 
#    y 0.000000 4.319440 0.000000 
#    z 0.000000 0.000000 3.474040 
# 
# 
# High freq. dielectric constant tensor:
#      x y z
#    x 1.828350 0.000000 0.000000 
#    y 0.000000 1.787010 0.000000 
#    z 0.000000 0.000000 1.767820 
# 
# From -- ./inp_files/49420.got.cif
#   From: 2010.03.12/outbox.cif.g09.slc.cpg/sg68_25_cif.got.tgz:49420.got - 2010.04.10 23:14:56.
