data_PCOD8282748
_publ_section_title
;
Structure prediction by ZEFSAII (Michael W. Deem and Ramdas Pophale) SiO2 
 PCOD8282748
Probable space group: C C C A
;
_chemical_formula_sum "Si O2"
_cell_formula_units_Z 64
_cell_length_a 10.771771
_cell_length_b 13.052621
_cell_length_c 18.839790
_cell_angle_alpha 90.000000
_cell_angle_beta 90.000000
_cell_angle_gamma 90.000000
_cell_volume 2648.871542
_symmetry_space_group_name_H-M "C C C A"
_symmetry_group_IT_number 68
_space_group.IT_coordinate_system_code '2'
_symmetry_cell_setting 'orthorhombic'
loop_
_space_group_symop_operation_xyz
x,y,z
-x,1/2-y,z
x,1/2-y,1/2-z
-x,y,1/2-z
-x,-y,-z
x,1/2+y,-z
-x,1/2+y,1/2+z
x,-y,1/2+z
1/2+x,1/2+y,z
1/2-x,-y,z
1/2+x,-y,1/2-z
1/2-x,1/2+y,1/2-z
1/2-x,1/2-y,-z
1/2+x,y,-z
1/2-x,y,1/2+z
1/2+x,1/2-y,1/2+z
loop_
_atom_site_type_symbol
_atom_site_label
_atom_site_fract_x
_atom_site_fract_y
_atom_site_fract_z
Si Si1 0.882993 0.613612 0.712842
Si Si2 0.686011 0.109826 0.939780
Si Si3 0.133121 0.887256 0.271438
Si Si4 0.628796 0.796985 0.581982
O O1 0.906431 0.605325 0.628226
O O2 0.874169 0.506302 0.753411
O O3 0.746238 0.664868 0.725515
O O4 0.000000 0.672452 0.750000
O O5 0.779751 0.202908 0.929688
O O6 0.750000 0.000000 0.946620
O O7 0.610920 0.132981 0.011644
O O8 0.168295 0.871731 0.353929
O O9 0.000000 0.836869 0.250000
O O10 0.500000 0.750000 0.604409
#
# Coordination Sequence:
#
# PCOD8282748 Si02
#       4
#    16  16  16  16
#     4  10  22  41  69 105 137 185 229 290 362 413
#     4  11  25  48  67 102 147 184 236 300 356 425
#     4  10  21  43  67 104 136 182 236 286 353 420
#     4  11  27  44  72 103 137 191 242 293 354 428
#
# _framework density 24.161231999999998
#
# number of rings (size 3 to 8) (size 9 to 14) (size 15 to 20)
#    0.000    1.500    2.500    1.500    7.000    8.500 
#    0.000    1.250    0.000    0.000    0.000    0.000 
#    0.000    0.000    0.000    0.000    0.000    0.000 
#
# Total GULP energy -396455.005071 kJ/mol
# GULP energy per Si atom -12389.218908 kJ/mol
# Density = 2.410624 g / cm^3
# Si number density = 24.161232 Si / 1000 Ang^3
#
#
#
# Elastic Constant Matrix: (Units=GPa)
#
#
# Indices 1 2 3 4 5 6 
#
# 1 139.1207 -22.2278 19.7122 0.0000 0.0000 0.0000
# 2 -22.2278 113.9443 56.1454 0.0000 0.0000 0.0000
# 3 19.7122 56.1454 205.3396 0.0000 0.0000 0.0000
# 4 0.0000 0.0000 0.0000 27.3319 0.0000 0.0000
# 5 0.0000 0.0000 0.0000 0.0000 33.9830 0.0000
# 6 0.0000 0.0000 0.0000 0.0000 0.0000 -29.9857
#
#
#
# Elastic Compliance Matrix: (Units=1/GPa)
#
#
# Indices 1 2 3 4 5 6 
#
# 1 0.007722 0.002163 -0.001333 0.000000 0.000000 0.000000
# 2 0.002163 0.010749 -0.003147 0.000000 0.000000 0.000000
# 3 -0.001333 -0.003147 0.005858 0.000000 0.000000 0.000000
# 4 0.000000 0.000000 0.000000 0.036587 0.000000 0.000000
# 5 0.000000 0.000000 0.000000 0.000000 0.029426 0.000000
# 6 0.000000 0.000000 0.000000 0.000000 0.000000 -0.033349
#
#
# Mechanical properties :
#
#
# Convention : Reuss Voigt Hill
#
# Bulk Modulus (GPa) = 50.76927 62.85159 56.81043
# Shear Modulus (GPa) = 73.32218 33.25082 53.28650
#
# Velocity S-wave (km/s) = 5.51479 3.71375 4.70132
# Velocity P-wave (km/s) = 7.84913 6.66777 7.28244
#
# Compressibility (1/GPa) = 0.01969695
#
# Stress axis : x y z
#
# Youngs Moduli (GPa) = 129.49221 93.03445 170.69766
#
# Poissons Ratio (x) = -0.20125 0.22751
# Poissons Ratio (y) = -0.28012 0.53713
# Poissons Ratio (z) = 0.17259 0.29275
#
# Static dielectric constant tensor:
#      x y z
#    x 6.434950 0.000000 0.000000 
#    y 0.000000 4.235260 0.000000 
#    z 0.000000 0.000000 4.724590 
# 
# 
# High freq. dielectric constant tensor:
#      x y z
#    x 1.953550 0.000000 0.000000 
#    y 0.000000 1.972150 0.000000 
#    z 0.000000 0.000000 1.972400 
# 
# From -- ./inp_files/29105.got.cif
#   From: 2010.03.12/outbox.cif.g09.slc.cpg/sg68_15_cif.got.tgz:29105.got - 2010.04.10 23:14:56.
