data_PCOD8282533
_publ_section_title
;
Structure prediction by ZEFSAII (Michael W. Deem and Ramdas Pophale) SiO2 
 PCOD8282533
Probable space group: C C C A
;
_chemical_formula_sum "Si O2"
_cell_formula_units_Z 96
_cell_length_a 8.254408
_cell_length_b 21.907297
_cell_length_c 23.092469
_cell_angle_alpha 90.000000
_cell_angle_beta 90.000000
_cell_angle_gamma 90.000000
_cell_volume 4175.851988
_symmetry_space_group_name_H-M "C C C A"
_symmetry_group_IT_number 68
_space_group.IT_coordinate_system_code '2'
_symmetry_cell_setting 'orthorhombic'
loop_
_space_group_symop_operation_xyz
x,y,z
-x,1/2-y,z
x,1/2-y,1/2-z
-x,y,1/2-z
-x,-y,-z
x,1/2+y,-z
-x,1/2+y,1/2+z
x,-y,1/2+z
1/2+x,1/2+y,z
1/2-x,-y,z
1/2+x,-y,1/2-z
1/2-x,1/2+y,1/2-z
1/2-x,1/2-y,-z
1/2+x,y,-z
1/2-x,y,1/2+z
1/2+x,1/2-y,1/2+z
loop_
_atom_site_type_symbol
_atom_site_label
_atom_site_fract_x
_atom_site_fract_y
_atom_site_fract_z
Si Si1 0.580691 0.028930 0.365939
Si Si2 0.962523 0.152254 0.684743
Si Si3 0.054653 0.418509 0.084149
Si Si4 0.727368 0.908484 0.973722
Si Si5 0.854615 0.286527 0.579673
Si Si6 0.128042 0.702763 0.641956
O O1 0.498049 0.080032 0.325192
O O2 0.609407 0.055365 0.430333
O O3 0.750000 0.000000 0.340769
O O4 0.449531 0.974025 0.370073
O O5 0.774481 0.172447 0.678523
O O6 0.000000 0.170275 0.750000
O O7 0.081537 0.188545 0.641919
O O8 0.028964 0.354737 0.117287
O O9 0.908883 0.427176 0.039262
O O10 0.210705 0.422209 0.042472
O O11 0.698819 0.836957 0.965508
O O12 0.703247 0.242056 0.589784
O O13 0.000000 0.250000 0.549093
O O14 0.000000 0.750000 0.674158
#
# Coordination Sequence:
#
# PCOD8282533 Si02
#       6
#    16  16  16  16  16  16
#     4   9  21  44  66  90 136 173 227 286 327 389
#     4  10  23  46  74  95 124 172 228 280 358 414
#     4  11  23  37  64  98 138 180 225 267 331 399
#     4  10  21  37  60  93 132 184 225 265 321 394
#     4   9  20  38  62  88 134 176 216 272 328 396
#     4  11  23  42  65  97 140 168 218 282 341 402
#
# _framework density 22.989321
#
# number of rings (size 3 to 8) (size 9 to 14) (size 15 to 20)
#    0.000    2.000    1.667    0.500    7.000    5.000 
#    3.000    1.667    0.000    0.000    0.000    0.000 
#    0.000    0.000    0.000    0.000    0.000    0.000 
#
# Total GULP energy -594801.298173 kJ/mol
# GULP energy per Si atom -12391.693712 kJ/mol
# Density = 2.293700 g / cm^3
# Si number density = 22.989321 Si / 1000 Ang^3
#
#
#
# Elastic Constant Matrix: (Units=GPa)
#
#
# Indices 1 2 3 4 5 6 
#
# 1 90.3020 43.3138 18.2111 0.0000 0.0000 0.0000
# 2 43.3138 139.8304 7.7898 0.0000 0.0000 0.0000
# 3 18.2111 7.7898 48.2826 0.0000 0.0000 0.0000
# 4 0.0000 0.0000 0.0000 13.4223 0.0000 0.0000
# 5 0.0000 0.0000 0.0000 0.0000 15.7224 0.0000
# 6 0.0000 0.0000 0.0000 0.0000 0.0000 47.4310
#
#
#
# Elastic Compliance Matrix: (Units=1/GPa)
#
#
# Indices 1 2 3 4 5 6 
#
# 1 0.013953 -0.004065 -0.004607 0.000000 0.000000 0.000000
# 2 -0.004065 0.008401 0.000178 0.000000 0.000000 0.000000
# 3 -0.004607 0.000178 0.022420 0.000000 0.000000 0.000000
# 4 0.000000 0.000000 0.000000 0.074503 0.000000 0.000000
# 5 0.000000 0.000000 0.000000 0.000000 0.063603 0.000000
# 6 0.000000 0.000000 0.000000 0.000000 0.000000 0.021083
#
#
# Mechanical properties :
#
#
# Convention : Reuss Voigt Hill
#
# Bulk Modulus (GPa) = 35.98983 46.33828 41.16405
# Shear Modulus (GPa) = 21.71893 29.25519 25.48706
#
# Velocity S-wave (km/s) = 3.07700 3.57116 3.33325
# Velocity P-wave (km/s) = 5.32099 6.09954 5.72352
#
# Compressibility (1/GPa) = 0.02778563
#
# Stress axis : x y z
#
# Youngs Moduli (GPa) = 71.66911 119.03470 44.60253
#
# Poissons Ratio (x) = 0.48393 0.20548
# Poissons Ratio (y) = 0.29137 -0.00794
# Poissons Ratio (z) = 0.33017 -0.02119
#
# Static dielectric constant tensor:
#      x y z
#    x 4.261310 0.000000 0.000000 
#    y 0.000000 4.667210 0.000000 
#    z 0.000000 0.000000 3.528520 
# 
# 
# High freq. dielectric constant tensor:
#      x y z
#    x 1.910560 0.000000 0.000000 
#    y 0.000000 1.939440 0.000000 
#    z 0.000000 0.000000 1.847760 
# 
# From -- ./inp_files/49334.got.cif
#   From: 2010.03.12/outbox.cif.g09.slc.cpg/sg68_25_cif.got.tgz:49334.got - 2010.04.10 23:14:56.
