data_PCOD8282296
_publ_section_title
;
Structure prediction by ZEFSAII (Michael W. Deem and Ramdas Pophale) SiO2 
 PCOD8282296
Probable space group: C C C A
;
_chemical_formula_sum "Si O2"
_cell_formula_units_Z 76
_cell_length_a 15.884168
_cell_length_b 20.726061
_cell_length_c 11.454669
_cell_angle_alpha 90.000000
_cell_angle_beta 90.000000
_cell_angle_gamma 90.000000
_cell_volume 3771.063000
_symmetry_space_group_name_H-M "C C C A"
_symmetry_group_IT_number 68
_space_group.IT_coordinate_system_code '2'
_symmetry_cell_setting 'orthorhombic'
loop_
_space_group_symop_operation_xyz
x,y,z
-x,1/2-y,z
x,1/2-y,1/2-z
-x,y,1/2-z
-x,-y,-z
x,1/2+y,-z
-x,1/2+y,1/2+z
x,-y,1/2+z
1/2+x,1/2+y,z
1/2-x,-y,z
1/2+x,-y,1/2-z
1/2-x,1/2+y,1/2-z
1/2-x,1/2-y,-z
1/2+x,y,-z
1/2-x,y,1/2+z
1/2+x,1/2-y,1/2+z
loop_
_atom_site_type_symbol
_atom_site_label
_atom_site_fract_x
_atom_site_fract_y
_atom_site_fract_z
Si Si1 0.647227 0.134170 0.879794
Si Si2 0.454624 0.990029 0.126856
Si Si3 0.500000 0.250000 0.250000
Si Si4 0.851955 0.324014 0.865325
Si Si5 0.210143 0.750000 0.750000
Si Si6 0.799886 0.939079 0.294538
O O1 0.571704 0.084458 0.856236
O O2 0.648713 0.191684 0.785483
O O3 0.737726 0.099440 0.879585
O O4 0.632500 0.167806 0.000511
O O5 0.500000 0.008728 0.250000
O O6 0.374041 0.036593 0.120966
O O7 0.500000 0.000000 0.000000
O O8 0.559332 0.203812 0.175513
O O9 0.773891 0.274793 0.850681
O O10 0.834218 0.393414 0.807356
O O11 0.750000 0.000000 0.236766
#
# Coordination Sequence:
#
# PCOD8282296 Si02
#       6
#    16  16   4  16   8  16
#     4  10  21  39  62  88 119 165 208 259 310 377
#     4  11  24  40  60  95 129 162 204 260 329 382
#     4  10  24  36  56  94 122 168 202 254 320 380
#     4  10  20  38  62  87 123 161 214 255 313 374
#     4   9  20  39  59  86 115 160 220 254 299 374
#     4   9  21  38  62  88 119 160 208 256 310 373
#
# _framework density 20.153469000000001
#
# number of rings (size 3 to 8) (size 9 to 14) (size 15 to 20)
#    0.000    2.105    0.000    1.895    4.421    7.579 
#    3.789    0.000    0.000    0.000    0.000    0.000 
#    0.000    0.000    0.000    0.000    0.000    0.000 
#
# Total GULP energy -470878.206142 kJ/mol
# GULP energy per Si atom -12391.531741 kJ/mol
# Density = 2.010760 g / cm^3
# Si number density = 20.153469 Si / 1000 Ang^3
#
#
#
# Elastic Constant Matrix: (Units=GPa)
#
#
# Indices 1 2 3 4 5 6 
#
# 1 95.3261 56.8237 48.0189 0.0000 0.0000 0.0000
# 2 56.8237 127.4558 28.4051 0.0000 0.0000 0.0000
# 3 48.0189 28.4051 97.3206 0.0000 0.0000 0.0000
# 4 0.0000 0.0000 0.0000 2.7571 0.0000 0.0000
# 5 0.0000 0.0000 0.0000 0.0000 10.1178 0.0000
# 6 0.0000 0.0000 0.0000 0.0000 0.0000 34.8962
#
#
#
# Elastic Compliance Matrix: (Units=1/GPa)
#
#
# Indices 1 2 3 4 5 6 
#
# 1 0.017776 -0.006386 -0.006907 0.000000 0.000000 0.000000
# 2 -0.006386 0.010686 0.000032 0.000000 0.000000 0.000000
# 3 -0.006907 0.000032 0.013674 0.000000 0.000000 0.000000
# 4 0.000000 0.000000 0.000000 0.362705 0.000000 0.000000
# 5 0.000000 0.000000 0.000000 0.000000 0.098836 0.000000
# 6 0.000000 0.000000 0.000000 0.000000 0.000000 0.028656
#
#
# Mechanical properties :
#
#
# Convention : Reuss Voigt Hill
#
# Bulk Modulus (GPa) = 64.04499 65.17751 64.61125
# Shear Modulus (GPa) = 8.86432 22.01120 15.43776
#
# Velocity S-wave (km/s) = 2.09951 3.30840 2.77069
# Velocity P-wave (km/s) = 6.14206 6.85601 6.50883
#
# Compressibility (1/GPa) = 0.01561402
#
# Stress axis : x y z
#
# Youngs Moduli (GPa) = 56.25492 93.58269 73.13141
#
# Poissons Ratio (x) = 0.59760 0.50513
# Poissons Ratio (y) = 0.35924 -0.00234
# Poissons Ratio (z) = 0.38856 -0.00299
#
# Static dielectric constant tensor:
#      x y z
#    x 3.753030 0.000000 0.000000 
#    y 0.000000 4.255700 0.000000 
#    z 0.000000 0.000000 3.391020 
# 
# 
# High freq. dielectric constant tensor:
#      x y z
#    x 1.786380 0.000000 0.000000 
#    y 0.000000 1.808450 0.000000 
#    z 0.000000 0.000000 1.768140 
# 
# From -- ./inp_files/13249.got.cif
#   From: 2010.03.12/outbox.cif.g09.slc.cpg/sg68_7_cif.got.tgz:13249.got - 2010.04.10 23:14:56.
