data_PCOD8282029
_publ_section_title
;
Structure prediction by ZEFSAII (Michael W. Deem and Ramdas Pophale) SiO2 
 PCOD8282029
Probable space group: C C C A
;
_chemical_formula_sum "Si O2"
_cell_formula_units_Z 88
_cell_length_a 12.606118
_cell_length_b 28.565238
_cell_length_c 11.964877
_cell_angle_alpha 90.000000
_cell_angle_beta 90.000000
_cell_angle_gamma 90.000000
_cell_volume 4308.513453
_symmetry_space_group_name_H-M "C C C A"
_symmetry_group_IT_number 68
_space_group.IT_coordinate_system_code '2'
_symmetry_cell_setting 'orthorhombic'
loop_
_space_group_symop_operation_xyz
x,y,z
-x,1/2-y,z
x,1/2-y,1/2-z
-x,y,1/2-z
-x,-y,-z
x,1/2+y,-z
-x,1/2+y,1/2+z
x,-y,1/2+z
1/2+x,1/2+y,z
1/2-x,-y,z
1/2+x,-y,1/2-z
1/2-x,1/2+y,1/2-z
1/2-x,1/2-y,-z
1/2+x,y,-z
1/2-x,y,1/2+z
1/2+x,1/2-y,1/2+z
loop_
_atom_site_type_symbol
_atom_site_label
_atom_site_fract_x
_atom_site_fract_y
_atom_site_fract_z
Si Si1 0.865851 0.922180 0.044640
Si Si2 0.750000 0.500000 0.337710
Si Si3 0.467365 0.151244 0.094733
Si Si4 0.144366 0.802243 0.292421
Si Si5 0.175958 0.356448 0.115754
Si Si6 0.110079 0.070906 0.216069
O O1 0.886503 0.921751 0.914370
O O2 0.760271 0.892330 0.064269
O O3 0.971643 0.899360 0.101323
O O4 0.842074 0.975136 0.087415
O O5 0.794578 0.461317 0.254999
O O6 0.383472 0.158764 0.196280
O O7 0.558416 0.191055 0.108094
O O8 0.408484 0.158578 0.977656
O O9 0.135582 0.750000 0.250000
O O10 0.262396 0.810761 0.338775
O O11 0.115017 0.379393 0.219827
O O12 0.000000 0.046215 0.250000
#
# Coordination Sequence:
#
# PCOD8282029 Si02
#       6
#    16   8  16  16  16  16
#     4  10  21  39  59  86 122 160 207 251 308 365
#     4  10  24  40  56  92 120 160 206 260 310 364
#     4  10  19  38  62  87 119 164 199 246 304 368
#     4  10  22  40  63  95 125 158 206 255 303 374
#     4  10  21  38  63  88 119 165 204 246 308 366
#     4  11  21  40  60  87 120 159 205 259 300 364
#
# _framework density 20.424679000000001
#
# number of rings (size 3 to 8) (size 9 to 14) (size 15 to 20)
#    0.000    1.818    1.818    2.727    0.000    2.909 
#   13.091    1.818    0.000    0.000    0.000    0.000 
#    0.000    0.000    0.000    0.000    0.000    0.000 
#
# Total GULP energy -545373.352537 kJ/mol
# GULP energy per Si atom -12394.848921 kJ/mol
# Density = 2.037819 g / cm^3
# Si number density = 20.424679 Si / 1000 Ang^3
#
#
#
# Elastic Constant Matrix: (Units=GPa)
#
#
# Indices 1 2 3 4 5 6 
#
# 1 88.5193 42.0220 34.6883 0.0000 0.0000 0.0000
# 2 42.0220 98.4713 52.0922 0.0000 0.0000 0.0000
# 3 34.6883 52.0922 104.9651 0.0000 0.0000 0.0000
# 4 0.0000 0.0000 0.0000 26.7381 0.0000 0.0000
# 5 0.0000 0.0000 0.0000 0.0000 44.3459 0.0000
# 6 0.0000 0.0000 0.0000 0.0000 0.0000 18.5623
#
#
#
# Elastic Compliance Matrix: (Units=1/GPa)
#
#
# Indices 1 2 3 4 5 6 
#
# 1 0.014581 -0.004981 -0.002347 0.000000 0.000000 0.000000
# 2 -0.004981 0.015472 -0.006032 0.000000 0.000000 0.000000
# 3 -0.002347 -0.006032 0.013296 0.000000 0.000000 0.000000
# 4 0.000000 0.000000 0.000000 0.037400 0.000000 0.000000
# 5 0.000000 0.000000 0.000000 0.000000 0.022550 0.000000
# 6 0.000000 0.000000 0.000000 0.000000 0.000000 0.053873
#
#
# Mechanical properties :
#
#
# Convention : Reuss Voigt Hill
#
# Bulk Modulus (GPa) = 60.13496 61.06231 60.59863
# Shear Modulus (GPa) = 26.39423 28.80613 27.60018
#
# Velocity S-wave (km/s) = 3.59872 3.75955 3.68001
# Velocity P-wave (km/s) = 6.83915 6.98619 6.91306
#
# Compressibility (1/GPa) = 0.01662926
#
# Stress axis : x y z
#
# Youngs Moduli (GPa) = 68.58157 64.63269 75.20899
#
# Poissons Ratio (x) = 0.32193 0.17650
# Poissons Ratio (y) = 0.34160 0.45369
# Poissons Ratio (z) = 0.16094 0.38989
#
# Static dielectric constant tensor:
#      x y z
#    x 3.990190 0.000000 0.000000 
#    y 0.000000 3.578640 0.000000 
#    z 0.000000 0.000000 3.745810 
# 
# 
# High freq. dielectric constant tensor:
#      x y z
#    x 1.807250 0.000000 0.000000 
#    y 0.000000 1.774330 0.000000 
#    z 0.000000 0.000000 1.802530 
# 
# From -- ./inp_files/12055.got.cif
#   From: 2010.03.12/outbox.cif.g09.slc.cpg/sg68_7_cif.got.tgz:12055.got - 2010.04.10 23:14:56.
