data_PCOD8282162
_publ_section_title
;
Structure prediction by ZEFSAII (Michael W. Deem and Ramdas Pophale) SiO2 
 PCOD8282162
Probable space group: C C C A
;
_chemical_formula_sum "Si O2"
_cell_formula_units_Z 88
_cell_length_a 5.017852
_cell_length_b 25.590023
_cell_length_c 33.013420
_cell_angle_alpha 90.000000
_cell_angle_beta 90.000000
_cell_angle_gamma 90.000000
_cell_volume 4239.152508
_symmetry_space_group_name_H-M "C C C A"
_symmetry_group_IT_number 68
_space_group.IT_coordinate_system_code '2'
_symmetry_cell_setting 'orthorhombic'
loop_
_space_group_symop_operation_xyz
x,y,z
-x,1/2-y,z
x,1/2-y,1/2-z
-x,y,1/2-z
-x,-y,-z
x,1/2+y,-z
-x,1/2+y,1/2+z
x,-y,1/2+z
1/2+x,1/2+y,z
1/2-x,-y,z
1/2+x,-y,1/2-z
1/2-x,1/2+y,1/2-z
1/2-x,1/2-y,-z
1/2+x,y,-z
1/2-x,y,1/2+z
1/2+x,1/2-y,1/2+z
loop_
_atom_site_type_symbol
_atom_site_label
_atom_site_fract_x
_atom_site_fract_y
_atom_site_fract_z
Si Si1 0.410123 0.195317 0.329805
Si Si2 0.750000 0.000000 0.028289
Si Si3 0.500071 0.969816 0.201627
Si Si4 0.730837 0.784560 0.580606
Si Si5 0.580122 0.145430 0.796673
Si Si6 0.767147 0.113874 0.527685
O O1 0.500000 0.250000 0.310715
O O2 0.417739 0.196852 0.378256
O O3 0.608975 0.153715 0.308137
O O4 0.101610 0.186978 0.319472
O O5 0.743412 0.943143 0.051524
O O6 0.500000 0.000000 0.000000
O O7 0.500000 0.970725 0.250000
O O8 0.497959 0.910975 0.185837
O O9 0.750000 0.000000 0.183332
O O10 0.250000 0.000000 0.183600
O O11 0.500000 0.750000 0.558031
O O12 0.796672 0.837696 0.557033
O O13 0.000000 0.750000 0.586811
O O14 0.500000 0.149495 0.750000
O O15 0.563288 0.117881 0.490259
#
# Coordination Sequence:
#
# PCOD8282162 Si02
#       6
#    16   8  16  16  16  16
#     4  11  23  39  55  78 114 154 189 232 296 355
#     4   8  16  32  54  84 116 150 190 234 298 344
#     4   9  17  31  52  78 106 135 170 219 283 345
#     4  11  23  39  58  83 119 163 199 235 300 361
#     4  11  22  36  59  85 107 143 194 245 289 343
#     4  10  20  35  60  90 119 153 197 248 288 340
#
# _framework density 20.758863999999999
#
# number of rings (size 3 to 8) (size 9 to 14) (size 15 to 20)
#    0.000    1.818    0.000    5.455    0.000    7.273 
#    0.000    0.000    6.000    0.000    0.000    0.000 
#    0.000    0.000    0.000    0.000    0.000    0.000 
#
# Total GULP energy -545076.512633 kJ/mol
# GULP energy per Si atom -12388.102560 kJ/mol
# Density = 2.071162 g / cm^3
# Si number density = 20.758864 Si / 1000 Ang^3
#
#
#
# Elastic Constant Matrix: (Units=GPa)
#
#
# Indices 1 2 3 4 5 6 
#
# 1 122.5148 35.7301 11.9806 0.0000 0.0000 0.0000
# 2 35.7301 163.3249 42.8040 0.0000 0.0000 0.0000
# 3 11.9806 42.8040 43.4618 0.0000 0.0000 0.0000
# 4 0.0000 0.0000 0.0000 -324.5229 0.0000 0.0000
# 5 0.0000 0.0000 0.0000 0.0000 25.9993 0.0000
# 6 0.0000 0.0000 0.0000 0.0000 0.0000 40.5513
#
#
#
# Elastic Compliance Matrix: (Units=1/GPa)
#
#
# Indices 1 2 3 4 5 6 
#
# 1 0.008735 -0.001725 -0.000709 0.000000 0.000000 0.000000
# 2 -0.001725 0.008594 -0.007988 0.000000 0.000000 0.000000
# 3 -0.000709 -0.007988 0.031071 0.000000 0.000000 0.000000
# 4 0.000000 0.000000 0.000000 -0.003081 0.000000 0.000000
# 5 0.000000 0.000000 0.000000 0.000000 0.038463 0.000000
# 6 0.000000 0.000000 0.000000 0.000000 0.000000 0.024660
#
#
# Mechanical properties :
#
#
# Convention : Reuss Voigt Hill
#
# Bulk Modulus (GPa) = 36.29018 56.70345 46.49681
# Shear Modulus (GPa) = 36.10894 -35.67532 0.21681
#
# Velocity S-wave (km/s) = 4.17519 -4.15005 0.32352
# Velocity P-wave (km/s) = 6.38457 2.10017 4.75255
#
# Compressibility (1/GPa) = 0.02755567
#
# Stress axis : x y z
#
# Youngs Moduli (GPa) = 114.48591 116.36494 32.18414
#
# Poissons Ratio (x) = 0.20074 0.02281
# Poissons Ratio (y) = 0.19750 0.25709
# Poissons Ratio (z) = 0.08115 0.92953
#
# Static dielectric constant tensor:
#      x y z
#    x 3.944700 0.000000 0.000000 
#    y 0.000000 4.431150 0.000000 
#    z 0.000000 0.000000 3.166540 
# 
# 
# High freq. dielectric constant tensor:
#      x y z
#    x 1.836730 0.000000 0.000000 
#    y 0.000000 1.838630 0.000000 
#    z 0.000000 0.000000 1.749270 
# 
# From -- ./inp_files/53265.got.cif
#   From: 2010.03.12/outbox.cif.g09.slc.cpg/sg68_27_cif.got.tgz:53265.got - 2010.04.10 23:14:56.
