data_PCOD8282793
_publ_section_title
;
Structure prediction by ZEFSAII (Michael W. Deem and Ramdas Pophale) SiO2 
 PCOD8282793
Probable space group: C C C A
;
_chemical_formula_sum "Si O2"
_cell_formula_units_Z 72
_cell_length_a 12.112437
_cell_length_b 10.235795
_cell_length_c 26.692693
_cell_angle_alpha 90.000000
_cell_angle_beta 90.000000
_cell_angle_gamma 90.000000
_cell_volume 3309.371345
_symmetry_space_group_name_H-M "C C C A"
_symmetry_group_IT_number 68
_space_group.IT_coordinate_system_code '2'
_symmetry_cell_setting 'orthorhombic'
loop_
_space_group_symop_operation_xyz
x,y,z
-x,1/2-y,z
x,1/2-y,1/2-z
-x,y,1/2-z
-x,-y,-z
x,1/2+y,-z
-x,1/2+y,1/2+z
x,-y,1/2+z
1/2+x,1/2+y,z
1/2-x,-y,z
1/2+x,-y,1/2-z
1/2-x,1/2+y,1/2-z
1/2-x,1/2-y,-z
1/2+x,y,-z
1/2-x,y,1/2+z
1/2+x,1/2-y,1/2+z
loop_
_atom_site_type_symbol
_atom_site_label
_atom_site_fract_x
_atom_site_fract_y
_atom_site_fract_z
Si Si1 0.023863 0.095592 0.694419
Si Si2 0.626431 0.048129 0.105748
Si Si3 0.211047 0.196797 0.572777
Si Si4 0.250000 0.500000 0.347833
Si Si5 0.401753 0.852677 0.478424
O O1 0.149709 0.050891 0.685672
O O2 0.000000 0.250000 0.691447
O O3 0.000000 0.043514 0.750000
O O4 0.949474 0.017806 0.653957
O O5 0.623636 0.204149 0.098296
O O6 0.750000 0.000000 0.117486
O O7 0.573692 0.980420 0.055502
O O8 0.279067 0.118224 0.614520
O O9 0.296011 0.285246 0.544215
O O10 0.137648 0.106307 0.534783
O O11 0.500000 0.750000 0.479333
#
# Coordination Sequence:
#
# PCOD8282793 Si02
#       5
#    16  16  16   8  16
#     4  11  25  46  72 100 132 177 229 293 353 408
#     4  10  22  43  65  94 141 179 229 289 337 411
#     4  10  23  37  60  98 131 182 226 272 334 410
#     4  12  24  42  70  98 138 174 226 278 350 428
#     4  10  22  37  61  92 139 183 227 269 334 407
#
# _framework density 21.756398999999998
#
# number of rings (size 3 to 8) (size 9 to 14) (size 15 to 20)
#    0.000    1.556    2.222    1.333   12.444    0.889 
#    0.000    0.000    0.000    8.667    0.000    0.000 
#    0.000    0.000    0.000    0.000    0.000    0.000 
#
# Total GULP energy -446078.882031 kJ/mol
# GULP energy per Si atom -12391.080056 kJ/mol
# Density = 2.170688 g / cm^3
# Si number density = 21.756399 Si / 1000 Ang^3
#
#
#
# Elastic Constant Matrix: (Units=GPa)
#
#
# Indices 1 2 3 4 5 6 
#
# 1 104.8764 24.2899 46.2919 0.0000 0.0000 0.0000
# 2 24.2899 84.6475 39.4907 0.0000 0.0000 0.0000
# 3 46.2919 39.4907 149.1776 0.0000 0.0000 0.0000
# 4 0.0000 0.0000 0.0000 26.4927 0.0000 0.0000
# 5 0.0000 0.0000 0.0000 0.0000 49.1807 0.0000
# 6 0.0000 0.0000 0.0000 0.0000 0.0000 35.3367
#
#
#
# Elastic Compliance Matrix: (Units=1/GPa)
#
#
# Indices 1 2 3 4 5 6 
#
# 1 0.011292 -0.001832 -0.003019 0.000000 0.000000 0.000000
# 2 -0.001832 0.013775 -0.003078 0.000000 0.000000 0.000000
# 3 -0.003019 -0.003078 0.008455 0.000000 0.000000 0.000000
# 4 0.000000 0.000000 0.000000 0.037746 0.000000 0.000000
# 5 0.000000 0.000000 0.000000 0.000000 0.020333 0.000000
# 6 0.000000 0.000000 0.000000 0.000000 0.000000 0.028299
#
#
# Mechanical properties :
#
#
# Convention : Reuss Voigt Hill
#
# Bulk Modulus (GPa) = 56.61147 62.09406 59.35276
# Shear Modulus (GPa) = 35.29891 37.44396 36.37143
#
# Velocity S-wave (km/s) = 4.03235 4.15306 4.09315
# Velocity P-wave (km/s) = 6.91063 7.18330 7.04828
#
# Compressibility (1/GPa) = 0.01766427
#
# Stress axis : x y z
#
# Youngs Moduli (GPa) = 88.55908 72.59303 118.27064
#
# Poissons Ratio (x) = 0.13297 0.35707
# Poissons Ratio (y) = 0.16222 0.36407
# Poissons Ratio (z) = 0.26737 0.22346
#
# Static dielectric constant tensor:
#      x y z
#    x 3.246610 0.000000 0.000000 
#    y 0.000000 4.269710 0.000000 
#    z 0.000000 0.000000 4.375900 
# 
# 
# High freq. dielectric constant tensor:
#      x y z
#    x 1.862410 0.000000 0.000000 
#    y 0.000000 1.843130 0.000000 
#    z 0.000000 0.000000 1.857430 
# 
# From -- ./inp_files/50010.got.cif
#   From: 2010.03.12/outbox.cif.g09.slc.cpg/sg68_26_cif.got.tgz:50010.got - 2010.04.10 23:14:56.
