data_PCOD8282520
_publ_section_title
;
Structure prediction by ZEFSAII (Michael W. Deem and Ramdas Pophale) SiO2 
 PCOD8282520
Probable space group: C C C A
;
_chemical_formula_sum "Si O2"
_cell_formula_units_Z 64
_cell_length_a 17.250367
_cell_length_b 30.366255
_cell_length_c 5.209705
_cell_angle_alpha 90.000000
_cell_angle_beta 90.000000
_cell_angle_gamma 90.000000
_cell_volume 2728.994785
_symmetry_space_group_name_H-M "C C C A"
_symmetry_group_IT_number 68
_space_group.IT_coordinate_system_code '2'
_symmetry_cell_setting 'orthorhombic'
loop_
_space_group_symop_operation_xyz
x,y,z
-x,1/2-y,z
x,1/2-y,1/2-z
-x,y,1/2-z
-x,-y,-z
x,1/2+y,-z
-x,1/2+y,1/2+z
x,-y,1/2+z
1/2+x,1/2+y,z
1/2-x,-y,z
1/2+x,-y,1/2-z
1/2-x,1/2+y,1/2-z
1/2-x,1/2-y,-z
1/2+x,y,-z
1/2-x,y,1/2+z
1/2+x,1/2-y,1/2+z
loop_
_atom_site_type_symbol
_atom_site_label
_atom_site_fract_x
_atom_site_fract_y
_atom_site_fract_z
Si Si1 0.451682 0.176129 0.499403
Si Si2 0.215838 0.799098 0.660814
Si Si3 0.046983 0.926899 0.496067
Si Si4 0.217409 0.548682 0.039738
O O1 0.500000 0.187436 0.750000
O O2 0.370240 0.200618 0.541268
O O3 0.434107 0.124578 0.473016
O O4 0.500000 0.193112 0.250000
O O5 0.242283 0.750000 0.750000
O O6 0.271814 0.822139 0.442072
O O7 0.126341 0.953657 0.508305
O O8 0.000000 0.943727 0.250000
O O9 0.000000 0.938542 0.750000
O O10 0.250000 0.500000 0.092826
O O11 0.239341 0.573741 0.304961
#
# Coordination Sequence:
#
# PCOD8282520 Si02
#       4
#    16  16  16  16
#     4  10  21  37  58  85 114 148 194 240 286 342
#     4  10  21  37  56  82 116 151 187 229 282 340
#     4  10  21  38  59  83 113 149 190 239 291 342
#     4  10  21  38  56  82 114 145 188 236 283 345
#
# _framework density 23.451858999999999
#
# number of rings (size 3 to 8) (size 9 to 14) (size 15 to 20)
#    0.000    2.000    0.000    3.000    0.000    2.500 
#    0.000   16.250    0.000    0.000    0.000    0.000 
#    0.000    0.000    0.000    0.000    0.000    0.000 
#
# Total GULP energy -396522.287364 kJ/mol
# GULP energy per Si atom -12391.321480 kJ/mol
# Density = 2.339848 g / cm^3
# Si number density = 23.451859 Si / 1000 Ang^3
#
#
#
# Elastic Constant Matrix: (Units=GPa)
#
#
# Indices 1 2 3 4 5 6 
#
# 1 167.4487 18.6713 79.3537 0.0000 0.0000 0.0000
# 2 18.6713 17.1350 12.6049 0.0000 0.0000 0.0000
# 3 79.3537 12.6049 246.7800 0.0000 0.0000 0.0000
# 4 0.0000 0.0000 0.0000 44.1577 0.0000 0.0000
# 5 0.0000 0.0000 0.0000 0.0000 47.0699 0.0000
# 6 0.0000 0.0000 0.0000 0.0000 0.0000 24.6118
#
#
#
# Elastic Compliance Matrix: (Units=1/GPa)
#
#
# Indices 1 2 3 4 5 6 
#
# 1 0.007753 -0.006873 -0.002142 0.000000 0.000000 0.000000
# 2 -0.006873 0.066731 -0.001198 0.000000 0.000000 0.000000
# 3 -0.002142 -0.001198 0.004802 0.000000 0.000000 0.000000
# 4 0.000000 0.000000 0.000000 0.022646 0.000000 0.000000
# 5 0.000000 0.000000 0.000000 0.000000 0.021245 0.000000
# 6 0.000000 0.000000 0.000000 0.000000 0.000000 0.040631
#
#
# Mechanical properties :
#
#
# Convention : Reuss Voigt Hill
#
# Bulk Modulus (GPa) = 16.98961 72.51373 44.75167
# Shear Modulus (GPa) = 24.52723 44.55012 34.53868
#
# Velocity S-wave (km/s) = 3.23748 4.36322 3.84180
# Velocity P-wave (km/s) = 4.60817 7.50806 6.22921
#
# Compressibility (1/GPa) = 0.05885950
#
# Stress axis : x y z
#
# Youngs Moduli (GPa) = 128.97420 14.98563 208.23694
#
# Poissons Ratio (x) = 0.10299 0.44607
# Poissons Ratio (y) = 0.88642 0.24956
# Poissons Ratio (z) = 0.27628 0.01796
#
# Static dielectric constant tensor:
#      x y z
#    x 4.004010 0.000000 0.000000 
#    y 0.000000 3.958680 0.000000 
#    z 0.000000 0.000000 5.438030 
# 
# 
# High freq. dielectric constant tensor:
#      x y z
#    x 1.928460 0.000000 0.000000 
#    y 0.000000 1.883840 0.000000 
#    z 0.000000 0.000000 1.972340 
# 
# From -- ./inp_files/1127.got.cif
#   From: 2010.03.12/outbox.cif.g09.slc.cpg/sg68_1_cif.got.tgz:1127.got - 2010.04.10 23:14:56.
