data_PCOD8282123
_publ_section_title
;
Structure prediction by ZEFSAII (Michael W. Deem and Ramdas Pophale) SiO2 
 PCOD8282123
Probable space group: C C C A
;
_chemical_formula_sum "Si O2"
_cell_formula_units_Z 64
_cell_length_a 26.598461
_cell_length_b 12.667982
_cell_length_c 9.420516
_cell_angle_alpha 90.000000
_cell_angle_beta 90.000000
_cell_angle_gamma 90.000000
_cell_volume 3174.231799
_symmetry_space_group_name_H-M "C C C A"
_symmetry_group_IT_number 68
_space_group.IT_coordinate_system_code '2'
_symmetry_cell_setting 'orthorhombic'
loop_
_space_group_symop_operation_xyz
x,y,z
-x,1/2-y,z
x,1/2-y,1/2-z
-x,y,1/2-z
-x,-y,-z
x,1/2+y,-z
-x,1/2+y,1/2+z
x,-y,1/2+z
1/2+x,1/2+y,z
1/2-x,-y,z
1/2+x,-y,1/2-z
1/2-x,1/2+y,1/2-z
1/2-x,1/2-y,-z
1/2+x,y,-z
1/2-x,y,1/2+z
1/2+x,1/2-y,1/2+z
loop_
_atom_site_type_symbol
_atom_site_label
_atom_site_fract_x
_atom_site_fract_y
_atom_site_fract_z
Si Si1 0.250000 0.500000 0.011081
Si Si2 0.500000 0.500097 0.250000
Si Si3 0.049362 0.189093 0.886562
Si Si4 0.586092 0.351138 0.666657
Si Si5 0.197147 0.374841 0.260958
O O1 0.220771 0.579790 0.906364
O O2 0.214446 0.432244 0.116094
O O3 0.467193 0.429963 0.144145
O O4 0.459528 0.567211 0.336578
O O5 0.071646 0.250000 0.750000
O O6 0.000000 0.250000 0.943208
O O7 0.093494 0.185774 0.002990
O O8 0.567263 0.250000 0.750000
O O9 0.637590 0.396695 0.729743
O O10 0.209060 0.250000 0.250000
#
# Coordination Sequence:
#
# PCOD8282123 Si02
#       5
#     8   8  16  16  16
#     4  10  22  46  68  88 128 156 208 262 318 372
#     4  10  20  34  60  84 126 160 198 242 292 352
#     4   9  20  38  54  82 123 163 200 238 294 348
#     4  11  22  36  58  90 120 158 201 245 299 361
#     4  10  23  42  67  96 122 161 207 257 316 370
#
# _framework density 20.162358999999999
#
# number of rings (size 3 to 8) (size 9 to 14) (size 15 to 20)
#    0.000    2.250    0.000    3.375    3.500    2.000 
#    9.000    1.250    0.000    0.000    0.000    0.000 
#    0.000    0.000    0.000    0.000    0.000    0.000 
#
# Total GULP energy -396536.995528 kJ/mol
# GULP energy per Si atom -12391.781110 kJ/mol
# Density = 2.011647 g / cm^3
# Si number density = 20.162359 Si / 1000 Ang^3
#
#
#
# Elastic Constant Matrix: (Units=GPa)
#
#
# Indices 1 2 3 4 5 6 
#
# 1 65.8258 50.4656 59.4662 0.0000 0.0000 0.0000
# 2 50.4656 123.8490 72.7543 0.0000 0.0000 0.0000
# 3 59.4662 72.7543 162.7163 0.0000 0.0000 0.0000
# 4 0.0000 0.0000 0.0000 17.6666 0.0000 0.0000
# 5 0.0000 0.0000 0.0000 0.0000 259.5522 0.0000
# 6 0.0000 0.0000 0.0000 0.0000 0.0000 -31.8062
#
#
#
# Elastic Compliance Matrix: (Units=1/GPa)
#
#
# Indices 1 2 3 4 5 6 
#
# 1 0.026420 -0.006908 -0.006567 0.000000 0.000000 0.000000
# 2 -0.006908 0.012757 -0.003179 0.000000 0.000000 0.000000
# 3 -0.006567 -0.003179 0.009967 0.000000 0.000000 0.000000
# 4 0.000000 0.000000 0.000000 0.056604 0.000000 0.000000
# 5 0.000000 0.000000 0.000000 0.000000 0.003853 0.000000
# 6 0.000000 0.000000 0.000000 0.000000 0.000000 -0.031440
#
#
# Mechanical properties :
#
#
# Convention : Reuss Voigt Hill
#
# Bulk Modulus (GPa) = 63.14764 79.75149 71.44956
# Shear Modulus (GPa) = 42.82776 60.39619 51.61197
#
# Velocity S-wave (km/s) = 4.61384 5.47905 5.06495
# Velocity P-wave (km/s) = 7.73117 8.92564 8.34979
#
# Compressibility (1/GPa) = 0.01583590
#
# Stress axis : x y z
#
# Youngs Moduli (GPa) = 37.85032 78.38924 100.33039
#
# Poissons Ratio (x) = 0.54151 0.65884
# Poissons Ratio (y) = 0.26147 0.31898
# Poissons Ratio (z) = 0.24855 0.24922
#
# Static dielectric constant tensor:
#      x y z
#    x 3.385070 0.000000 0.000000 
#    y 0.000000 3.856330 0.000000 
#    z 0.000000 0.000000 3.801150 
# 
# 
# High freq. dielectric constant tensor:
#      x y z
#    x 1.762990 0.000000 0.000000 
#    y 0.000000 1.801070 0.000000 
#    z 0.000000 0.000000 1.804500 
# 
# From -- ./inp_files/4096.got.cif
#   From: 2010.03.12/outbox.cif.g09.slc.cpg/sg68_3_cif.got.tgz:4096.got - 2010.04.10 23:14:56.
