data_PCOD8282124
_publ_section_title
;
Structure prediction by ZEFSAII (Michael W. Deem and Ramdas Pophale) SiO2 
 PCOD8282124
Probable space group: C C C A
;
_chemical_formula_sum "Si O2"
_cell_formula_units_Z 80
_cell_length_a 20.790389
_cell_length_b 14.028089
_cell_length_c 13.973100
_cell_angle_alpha 90.000000
_cell_angle_beta 90.000000
_cell_angle_gamma 90.000000
_cell_volume 4075.246612
_symmetry_space_group_name_H-M "C C C A"
_symmetry_group_IT_number 68
_space_group.IT_coordinate_system_code '2'
_symmetry_cell_setting 'orthorhombic'
loop_
_space_group_symop_operation_xyz
x,y,z
-x,1/2-y,z
x,1/2-y,1/2-z
-x,y,1/2-z
-x,-y,-z
x,1/2+y,-z
-x,1/2+y,1/2+z
x,-y,1/2+z
1/2+x,1/2+y,z
1/2-x,-y,z
1/2+x,-y,1/2-z
1/2-x,1/2+y,1/2-z
1/2-x,1/2-y,-z
1/2+x,y,-z
1/2-x,y,1/2+z
1/2+x,1/2-y,1/2+z
loop_
_atom_site_type_symbol
_atom_site_label
_atom_site_fract_x
_atom_site_fract_y
_atom_site_fract_z
Si Si1 0.493531 0.525219 0.136107
Si Si2 0.577969 0.612396 0.986319
Si Si3 0.291208 0.241162 0.854912
Si Si4 0.065557 0.715660 0.607078
Si Si5 0.724538 0.602743 0.991211
O O1 0.500000 0.525061 0.250000
O O2 0.467925 0.422614 0.100238
O O3 0.440508 0.601707 0.096711
O O4 0.560893 0.553375 0.084594
O O5 0.651220 0.595285 0.956815
O O6 0.566181 0.725398 0.005985
O O7 0.259930 0.250000 0.750000
O O8 0.368318 0.240665 0.840290
O O9 0.267185 0.144342 0.904646
O O10 0.268034 0.331543 0.915594
O O11 0.000000 0.750000 0.663408
O O12 0.750000 0.500000 0.020382
#
# Coordination Sequence:
#
# PCOD8282124 Si02
#       5
#    16  16  16  16  16
#     4  10  20  34  60  90 111 144 192 242 281 343
#     4   9  20  37  55  83 120 144 186 239 291 340
#     4  10  22  36  57  87 115 148 202 237 276 354
#     4   9  19  32  58  83 111 145 184 240 295 322
#     4  10  21  40  57  79 119 159 186 233 294 341
#
# _framework density 19.630713
#
# number of rings (size 3 to 8) (size 9 to 14) (size 15 to 20)
#    0.000    2.400    0.000    1.200    8.400    1.600 
#    3.600    0.000    0.000    1.200    0.000    0.000 
#    0.000    0.000    0.000    0.000    0.000    0.000 
#
# Total GULP energy -495597.928272 kJ/mol
# GULP energy per Si atom -12389.948207 kJ/mol
# Density = 1.958603 g / cm^3
# Si number density = 19.630713 Si / 1000 Ang^3
#
#
#
# Elastic Constant Matrix: (Units=GPa)
#
#
# Indices 1 2 3 4 5 6 
#
# 1 100.9516 27.5660 45.2214 0.0000 0.0000 0.0000
# 2 27.5660 107.3009 52.4981 0.0000 0.0000 0.0000
# 3 45.2214 52.4981 125.1989 0.0000 0.0000 0.0000
# 4 0.0000 0.0000 0.0000 9.7788 0.0000 0.0000
# 5 0.0000 0.0000 0.0000 0.0000 9.5771 0.0000
# 6 0.0000 0.0000 0.0000 0.0000 0.0000 20.3625
#
#
#
# Elastic Compliance Matrix: (Units=1/GPa)
#
#
# Indices 1 2 3 4 5 6 
#
# 1 0.011940 -0.001205 -0.003808 0.000000 0.000000 0.000000
# 2 -0.001205 0.011847 -0.004532 0.000000 0.000000 0.000000
# 3 -0.003808 -0.004532 0.011263 0.000000 0.000000 0.000000
# 4 0.000000 0.000000 0.000000 0.102262 0.000000 0.000000
# 5 0.000000 0.000000 0.000000 0.000000 0.104415 0.000000
# 6 0.000000 0.000000 0.000000 0.000000 0.000000 0.049110
#
#
# Mechanical properties :
#
#
# Convention : Reuss Voigt Hill
#
# Bulk Modulus (GPa) = 62.65386 64.89138 63.77262
# Shear Modulus (GPa) = 15.86059 21.82142 18.84101
#
# Velocity S-wave (km/s) = 2.84553 3.33768 3.10138
# Velocity P-wave (km/s) = 6.54076 6.92685 6.73657
#
# Compressibility (1/GPa) = 0.01596071
#
# Stress axis : x y z
#
# Youngs Moduli (GPa) = 83.74984 84.41270 88.78522
#
# Poissons Ratio (x) = 0.10168 0.33807
# Poissons Ratio (y) = 0.10088 0.40241
# Poissons Ratio (z) = 0.31890 0.38259
#
# Static dielectric constant tensor:
#      x y z
#    x 3.694470 0.000000 0.000000 
#    y 0.000000 3.667670 0.000000 
#    z 0.000000 0.000000 3.256690 
# 
# 
# High freq. dielectric constant tensor:
#      x y z
#    x 1.766740 0.000000 0.000000 
#    y 0.000000 1.764520 0.000000 
#    z 0.000000 0.000000 1.735860 
# 
# From -- ./inp_files/16228.got.cif
#   From: 2010.03.12/outbox.cif.g09.slc.cpg/sg68_9_cif.got.tgz:16228.got - 2010.04.10 23:14:56.
