data_PCOD8282818
_publ_section_title
;
Structure prediction by ZEFSAII (Michael W. Deem and Ramdas Pophale) SiO2 
 PCOD8282818
Probable space group: C C C A
;
_chemical_formula_sum "Si O2"
_cell_formula_units_Z 64
_cell_length_a 7.412742
_cell_length_b 19.284399
_cell_length_c 21.146723
_cell_angle_alpha 90.000000
_cell_angle_beta 90.000000
_cell_angle_gamma 90.000000
_cell_volume 3022.929856
_symmetry_space_group_name_H-M "C C C A"
_symmetry_group_IT_number 68
_space_group.IT_coordinate_system_code '2'
_symmetry_cell_setting 'orthorhombic'
loop_
_space_group_symop_operation_xyz
x,y,z
-x,1/2-y,z
x,1/2-y,1/2-z
-x,y,1/2-z
-x,-y,-z
x,1/2+y,-z
-x,1/2+y,1/2+z
x,-y,1/2+z
1/2+x,1/2+y,z
1/2-x,-y,z
1/2+x,-y,1/2-z
1/2-x,1/2+y,1/2-z
1/2-x,1/2-y,-z
1/2+x,y,-z
1/2-x,y,1/2+z
1/2+x,1/2-y,1/2+z
loop_
_atom_site_type_symbol
_atom_site_label
_atom_site_fract_x
_atom_site_fract_y
_atom_site_fract_z
Si Si1 0.761351 0.922085 0.050269
Si Si2 0.500000 0.607579 0.750000
Si Si3 0.250000 0.500000 0.811450
Si Si4 0.376953 0.903729 0.087933
Si Si5 0.536107 0.328367 0.120725
O O1 0.580591 0.880062 0.071138
O O2 0.934801 0.880951 0.074340
O O3 0.750000 0.000000 0.078429
O O4 0.777348 0.930117 0.975059
O O5 0.333112 0.557925 0.766122
O O6 0.541109 0.657500 0.809090
O O7 0.393554 0.464086 0.858936
O O8 0.251921 0.841862 0.116134
O O9 0.500000 0.250000 0.100146
#
# Coordination Sequence:
#
# PCOD8282818 Si02
#       5
#    16   8   8  16  16
#     4  12  22  39  70  95 130 166 206 273 330 382
#     4  10  23  42  66  90 129 168 220 272 322 375
#     4  10  22  38  64 100 124 158 222 278 322 378
#     4  11  22  40  64  99 132 163 215 265 329 390
#     4  11  26  44  63  92 134 179 215 262 324 393
#
# _framework density 21.171513999999998
#
# number of rings (size 3 to 8) (size 9 to 14) (size 15 to 20)
#    0.000    1.000    3.750    4.125    5.250    2.000 
#    0.000    0.000    0.000    3.000    0.000    0.000 
#    0.000    0.000    0.000    0.000    0.000    0.000 
#
# Total GULP energy -396640.708392 kJ/mol
# GULP energy per Si atom -12395.022137 kJ/mol
# Density = 2.112333 g / cm^3
# Si number density = 21.171514 Si / 1000 Ang^3
#
#
#
# Elastic Constant Matrix: (Units=GPa)
#
#
# Indices 1 2 3 4 5 6 
#
# 1 98.4807 17.0023 21.1082 0.0000 0.0000 0.0000
# 2 17.0023 112.3859 19.0195 0.0000 0.0000 0.0000
# 3 21.1082 19.0195 95.3582 0.0000 0.0000 0.0000
# 4 0.0000 0.0000 0.0000 5.9162 0.0000 0.0000
# 5 0.0000 0.0000 0.0000 0.0000 26.4451 0.0000
# 6 0.0000 0.0000 0.0000 0.0000 0.0000 23.3324
#
#
#
# Elastic Compliance Matrix: (Units=1/GPa)
#
#
# Indices 1 2 3 4 5 6 
#
# 1 0.010834 -0.001276 -0.002144 0.000000 0.000000 0.000000
# 2 -0.001276 0.009359 -0.001584 0.000000 0.000000 0.000000
# 3 -0.002144 -0.001584 0.011277 0.000000 0.000000 0.000000
# 4 0.000000 0.000000 0.000000 0.169028 0.000000 0.000000
# 5 0.000000 0.000000 0.000000 0.000000 0.037814 0.000000
# 6 0.000000 0.000000 0.000000 0.000000 0.000000 0.042859
#
#
# Mechanical properties :
#
#
# Convention : Reuss Voigt Hill
#
# Bulk Modulus (GPa) = 46.59345 46.72053 46.65699
# Shear Modulus (GPa) = 16.75973 27.74505 22.25239
#
# Velocity S-wave (km/s) = 2.81662 3.62400 3.24551
# Velocity P-wave (km/s) = 5.71255 6.29497 6.01082
#
# Compressibility (1/GPa) = 0.02146224
#
# Stress axis : x y z
#
# Youngs Moduli (GPa) = 92.30129 106.84796 88.67410
#
# Poissons Ratio (x) = 0.13637 0.19009
# Poissons Ratio (y) = 0.11780 0.14048
# Poissons Ratio (z) = 0.19786 0.16927
#
# Static dielectric constant tensor:
#      x y z
#    x 3.792690 0.000000 0.000000 
#    y 0.000000 3.493100 0.000000 
#    z 0.000000 0.000000 4.023390 
# 
# 
# High freq. dielectric constant tensor:
#      x y z
#    x 1.825130 0.000000 0.000000 
#    y 0.000000 1.802220 0.000000 
#    z 0.000000 0.000000 1.841180 
# 
# From -- ./inp_files/35797.got.cif
#   From: 2010.03.12/outbox.cif.g09.slc.cpg/sg68_18_cif.got.tgz:35797.got - 2010.04.10 23:14:56.
