data_PCOD8282751
_publ_section_title
;
Structure prediction by ZEFSAII (Michael W. Deem and Ramdas Pophale) SiO2 
 PCOD8282751
Probable space group: C C C A
;
_chemical_formula_sum "Si O2"
_cell_formula_units_Z 88
_cell_length_a 25.093633
_cell_length_b 13.746211
_cell_length_c 11.580389
_cell_angle_alpha 90.000000
_cell_angle_beta 90.000000
_cell_angle_gamma 90.000000
_cell_volume 3994.566873
_symmetry_space_group_name_H-M "C C C A"
_symmetry_group_IT_number 68
_space_group.IT_coordinate_system_code '2'
_symmetry_cell_setting 'orthorhombic'
loop_
_space_group_symop_operation_xyz
x,y,z
-x,1/2-y,z
x,1/2-y,1/2-z
-x,y,1/2-z
-x,-y,-z
x,1/2+y,-z
-x,1/2+y,1/2+z
x,-y,1/2+z
1/2+x,1/2+y,z
1/2-x,-y,z
1/2+x,-y,1/2-z
1/2-x,1/2+y,1/2-z
1/2-x,1/2-y,-z
1/2+x,y,-z
1/2-x,y,1/2+z
1/2+x,1/2-y,1/2+z
loop_
_atom_site_type_symbol
_atom_site_label
_atom_site_fract_x
_atom_site_fract_y
_atom_site_fract_z
Si Si1 0.641529 0.657618 0.329383
Si Si2 0.645632 0.697639 0.982222
Si Si3 0.724342 0.397471 0.655272
Si Si4 0.806204 0.750000 0.250000
Si Si5 0.535504 0.948437 0.148338
Si Si6 0.526228 0.650221 0.945858
O O1 0.625638 0.750000 0.250000
O O2 0.654003 0.696042 0.458793
O O3 0.692877 0.603705 0.276809
O O4 0.596514 0.576760 0.330361
O O5 0.656700 0.696136 0.844520
O O6 0.584109 0.667718 0.002634
O O7 0.685240 0.623605 0.047522
O O8 0.750000 0.500000 0.629882
O O9 0.770963 0.319074 0.668982
O O10 0.500000 0.905694 0.250000
O O11 0.531902 0.065965 0.149452
O O12 0.515810 0.893527 0.035423
O O13 0.500000 0.750000 0.895901
#
# Coordination Sequence:
#
# PCOD8282751 Si02
#       6
#    16  16  16   8  16  16
#     4  10  21  43  73 100 135 184 243 298 348 424
#     4  11  24  46  69  97 144 183 237 288 356 430
#     4  11  25  44  72 103 137 181 239 295 355 411
#     4  12  26  44  67  98 137 192 222 288 354 412
#     4  11  24  41  72 102 134 180 239 284 356 426
#     4  11  25  45  66 102 141 183 223 292 360 420
#
# _framework density 22.029924000000001
#
# number of rings (size 3 to 8) (size 9 to 14) (size 15 to 20)
#    0.000    1.091    4.545    2.727    2.545    4.000 
#    0.000    0.000    0.000    0.000    0.000    0.000 
#    0.000    0.000    0.000    0.000    0.000    0.000 
#
# Total GULP energy -545507.054861 kJ/mol
# GULP energy per Si atom -12397.887610 kJ/mol
# Density = 2.197978 g / cm^3
# Si number density = 22.029924 Si / 1000 Ang^3
#
#
#
# Elastic Constant Matrix: (Units=GPa)
#
#
# Indices 1 2 3 4 5 6 
#
# 1 106.6724 49.3274 22.0231 0.0000 0.0000 0.0000
# 2 49.3274 127.9313 15.5608 0.0000 0.0000 0.0000
# 3 22.0231 15.5608 80.0495 0.0000 0.0000 0.0000
# 4 0.0000 0.0000 0.0000 15.3774 0.0000 0.0000
# 5 0.0000 0.0000 0.0000 0.0000 34.6316 0.0000
# 6 0.0000 0.0000 0.0000 0.0000 0.0000 40.7156
#
#
#
# Elastic Compliance Matrix: (Units=1/GPa)
#
#
# Indices 1 2 3 4 5 6 
#
# 1 0.011853 -0.004275 -0.002430 0.000000 0.000000 0.000000
# 2 -0.004275 0.009548 -0.000680 0.000000 0.000000 0.000000
# 3 -0.002430 -0.000680 0.013293 0.000000 0.000000 0.000000
# 4 0.000000 0.000000 0.000000 0.065030 0.000000 0.000000
# 5 0.000000 0.000000 0.000000 0.000000 0.028875 0.000000
# 6 0.000000 0.000000 0.000000 0.000000 0.000000 0.024561
#
#
# Mechanical properties :
#
#
# Convention : Reuss Voigt Hill
#
# Bulk Modulus (GPa) = 50.18986 54.27508 52.23247
# Shear Modulus (GPa) = 28.64176 33.32772 30.98474
#
# Velocity S-wave (km/s) = 3.60964 3.89374 3.75438
# Velocity P-wave (km/s) = 6.34072 6.70115 6.52343
#
# Compressibility (1/GPa) = 0.01992434
#
# Stress axis : x y z
#
# Youngs Moduli (GPa) = 84.36782 104.73837 75.22765
#
# Poissons Ratio (x) = 0.44772 0.18280
# Poissons Ratio (y) = 0.36064 0.05115
# Poissons Ratio (z) = 0.20501 0.07121
#
# Static dielectric constant tensor:
#      x y z
#    x 4.016070 0.000000 0.000000 
#    y 0.000000 3.903490 0.000000 
#    z 0.000000 0.000000 3.825570 
# 
# 
# High freq. dielectric constant tensor:
#      x y z
#    x 1.880490 0.000000 0.000000 
#    y 0.000000 1.858360 0.000000 
#    z 0.000000 0.000000 1.857810 
# 
# From -- ./inp_files/13338.got.cif
#   From: 2010.03.12/outbox.cif.g09.slc.cpg/sg68_7_cif.got.tgz:13338.got - 2010.04.10 23:14:56.
