data_PCOD8282207
_publ_section_title
;
Structure prediction by ZEFSAII (Michael W. Deem and Ramdas Pophale) SiO2 
 PCOD8282207
Probable space group: C C C A
;
_chemical_formula_sum "Si O2"
_cell_formula_units_Z 68
_cell_length_a 28.945388
_cell_length_b 7.733149
_cell_length_c 15.156052
_cell_angle_alpha 90.000000
_cell_angle_beta 90.000000
_cell_angle_gamma 90.000000
_cell_volume 3392.515497
_symmetry_space_group_name_H-M "C C C A"
_symmetry_group_IT_number 68
_space_group.IT_coordinate_system_code '2'
_symmetry_cell_setting 'orthorhombic'
loop_
_space_group_symop_operation_xyz
x,y,z
-x,1/2-y,z
x,1/2-y,1/2-z
-x,y,1/2-z
-x,-y,-z
x,1/2+y,-z
-x,1/2+y,1/2+z
x,-y,1/2+z
1/2+x,1/2+y,z
1/2-x,-y,z
1/2+x,-y,1/2-z
1/2-x,1/2+y,1/2-z
1/2-x,1/2-y,-z
1/2+x,y,-z
1/2-x,y,1/2+z
1/2+x,1/2-y,1/2+z
loop_
_atom_site_type_symbol
_atom_site_label
_atom_site_fract_x
_atom_site_fract_y
_atom_site_fract_z
Si Si1 0.500000 0.250000 0.539927
Si Si2 0.259815 0.197423 0.400120
Si Si3 0.000000 0.750000 0.250000
Si Si4 0.306531 0.750000 0.250000
Si Si5 0.553127 0.450441 0.393426
Si Si6 0.148392 0.104547 0.817440
O O1 0.535859 0.358900 0.481956
O O2 0.466448 0.356492 0.603589
O O3 0.250000 0.250000 0.500000
O O4 0.226033 0.301587 0.333636
O O5 0.313084 0.213120 0.371961
O O6 0.250000 0.000000 0.385887
O O7 0.966691 0.632913 0.306453
O O8 0.336165 0.576527 0.229232
O O9 0.608558 0.446535 0.387128
O O10 0.129501 0.250000 0.750000
#
# Coordination Sequence:
#
# PCOD8282207 Si02
#       6
#     8  16   4   8  16  16
#     4   9  22  42  64  85 142 156 214 279 334 398
#     4  10  23  39  63  93 128 177 217 268 334 387
#     4  10  20  36  60  90 124 152 224 244 340 402
#     4  10  24  43  58  97 134 173 220 267 340 382
#     4  10  21  41  62  96 119 176 207 271 333 395
#     4  11  23  41  67  91 131 169 220 280 314 397
#
# _framework density 20.044124
#
# number of rings (size 3 to 8) (size 9 to 14) (size 15 to 20)
#    0.000    1.882    2.353    0.000    3.294    6.118 
#    4.235    0.000    0.000    0.000    0.000    0.000 
#    0.000    0.000    0.000    0.000    0.000    0.000 
#
# Total GULP energy -421352.197273 kJ/mol
# GULP energy per Si atom -12392.711684 kJ/mol
# Density = 1.999850 g / cm^3
# Si number density = 20.044124 Si / 1000 Ang^3
#
#
#
# Elastic Constant Matrix: (Units=GPa)
#
#
# Indices 1 2 3 4 5 6 
#
# 1 144.1052 54.2137 47.1705 0.0000 0.0000 0.0000
# 2 54.2137 98.6350 33.3622 0.0000 0.0000 0.0000
# 3 47.1705 33.3622 109.1539 0.0000 0.0000 0.0000
# 4 0.0000 0.0000 0.0000 37.7194 0.0000 0.0000
# 5 0.0000 0.0000 0.0000 0.0000 67.4127 0.0000
# 6 0.0000 0.0000 0.0000 0.0000 0.0000 32.1059
#
#
#
# Elastic Compliance Matrix: (Units=1/GPa)
#
#
# Indices 1 2 3 4 5 6 
#
# 1 0.009451 -0.004253 -0.002784 0.000000 0.000000 0.000000
# 2 -0.004253 0.013221 -0.002203 0.000000 0.000000 0.000000
# 3 -0.002784 -0.002203 0.011038 0.000000 0.000000 0.000000
# 4 0.000000 0.000000 0.000000 0.026512 0.000000 0.000000
# 5 0.000000 0.000000 0.000000 0.000000 0.014834 0.000000
# 6 0.000000 0.000000 0.000000 0.000000 0.000000 0.031147
#
#
# Mechanical properties :
#
#
# Convention : Reuss Voigt Hill
#
# Bulk Modulus (GPa) = 65.66227 69.04302 67.35264
# Shear Modulus (GPa) = 38.53303 41.92412 40.22858
#
# Velocity S-wave (km/s) = 4.38929 4.57835 4.48482
# Velocity P-wave (km/s) = 7.64969 7.90372 7.77774
#
# Compressibility (1/GPa) = 0.01522945
#
# Stress axis : x y z
#
# Youngs Moduli (GPa) = 105.81262 75.63702 90.59645
#
# Poissons Ratio (x) = 0.32166 0.25224
# Poissons Ratio (y) = 0.44999 0.19960
# Poissons Ratio (z) = 0.29461 0.16664
#
# Static dielectric constant tensor:
#      x y z
#    x 4.031480 0.000000 0.000000 
#    y 0.000000 4.823120 0.000000 
#    z 0.000000 0.000000 3.409910 
# 
# 
# High freq. dielectric constant tensor:
#      x y z
#    x 1.787430 0.000000 0.000000 
#    y 0.000000 1.788630 0.000000 
#    z 0.000000 0.000000 1.779100 
# 
# From -- ./inp_files/25795.got.cif
#   From: 2010.03.12/outbox.cif.g09.slc.cpg/sg68_13_cif.got.tgz:25795.got - 2010.04.10 23:14:56.
