data_PCOD8282085
_publ_section_title
;
Structure prediction by ZEFSAII (Michael W. Deem and Ramdas Pophale) SiO2 
 PCOD8282085
Probable space group: C C C A
;
_chemical_formula_sum "Si O2"
_cell_formula_units_Z 96
_cell_length_a 22.580905
_cell_length_b 18.885296
_cell_length_c 11.443983
_cell_angle_alpha 90.000000
_cell_angle_beta 90.000000
_cell_angle_gamma 90.000000
_cell_volume 4880.253075
_symmetry_space_group_name_H-M "C C C A"
_symmetry_group_IT_number 68
_space_group.IT_coordinate_system_code '2'
_symmetry_cell_setting 'orthorhombic'
loop_
_space_group_symop_operation_xyz
x,y,z
-x,1/2-y,z
x,1/2-y,1/2-z
-x,y,1/2-z
-x,-y,-z
x,1/2+y,-z
-x,1/2+y,1/2+z
x,-y,1/2+z
1/2+x,1/2+y,z
1/2-x,-y,z
1/2+x,-y,1/2-z
1/2-x,1/2+y,1/2-z
1/2-x,1/2-y,-z
1/2+x,y,-z
1/2-x,y,1/2+z
1/2+x,1/2-y,1/2+z
loop_
_atom_site_type_symbol
_atom_site_label
_atom_site_fract_x
_atom_site_fract_y
_atom_site_fract_z
Si Si1 0.069518 0.078619 0.259439
Si Si2 0.766568 0.579027 0.365403
Si Si3 0.622439 0.054497 0.974098
Si Si4 0.439583 0.419160 0.191297
Si Si5 0.855275 0.895520 0.523775
Si Si6 0.840367 0.828854 0.288202
O O1 0.108938 0.097901 0.145105
O O2 0.095821 0.116707 0.374340
O O3 0.000000 0.098382 0.250000
O O4 0.080327 0.994484 0.257410
O O5 0.750000 0.500000 0.325200
O O6 0.819193 0.583652 0.460887
O O7 0.708898 0.613299 0.420386
O O8 0.784784 0.621330 0.248179
O O9 0.632344 0.970092 0.958824
O O10 0.562683 0.069057 0.051174
O O11 0.500000 0.395486 0.250000
O O12 0.396885 0.354511 0.217426
O O13 0.856600 0.834535 0.425547
O O14 0.824644 0.750000 0.250000
#
# Coordination Sequence:
#
# PCOD8282085 Si02
#       6
#    16  16  16  16  16  16
#     4  10  20  32  58  92 118 148 194 257 315 351
#     4   9  21  37  61  86 112 155 196 252 306 358
#     4   9  18  34  54  88 118 145 191 253 309 356
#     4   9  19  33  56  81 115 155 194 244 300 357
#     4  10  21  34  57  82 116 155 191 247 304 364
#     4  11  23  38  56  84 120 155 202 244 296 372
#
# _framework density 19.671111
#
# number of rings (size 3 to 8) (size 9 to 14) (size 15 to 20)
#    0.000    2.333    1.667    1.000    4.667    3.667 
#    0.000    0.000    0.000    0.000    0.000    4.667 
#    0.000    0.000    0.000    0.000    0.000    0.000 
#
# Total GULP energy -594681.399969 kJ/mol
# GULP energy per Si atom -12389.195833 kJ/mol
# Density = 1.962634 g / cm^3
# Si number density = 19.671111 Si / 1000 Ang^3
#
#
#
# Elastic Constant Matrix: (Units=GPa)
#
#
# Indices 1 2 3 4 5 6 
#
# 1 105.5677 39.1921 68.5010 0.0000 0.0000 0.0000
# 2 39.1921 65.4192 36.0487 0.0000 0.0000 0.0000
# 3 68.5010 36.0487 129.9158 0.0000 0.0000 0.0000
# 4 0.0000 0.0000 0.0000 18.9672 0.0000 0.0000
# 5 0.0000 0.0000 0.0000 0.0000 27.7609 0.0000
# 6 0.0000 0.0000 0.0000 0.0000 0.0000 11.6711
#
#
#
# Elastic Compliance Matrix: (Units=1/GPa)
#
#
# Indices 1 2 3 4 5 6 
#
# 1 0.016104 -0.005866 -0.006864 0.000000 0.000000 0.000000
# 2 -0.005866 0.020182 -0.002507 0.000000 0.000000 0.000000
# 3 -0.006864 -0.002507 0.012012 0.000000 0.000000 0.000000
# 4 0.000000 0.000000 0.000000 0.052723 0.000000 0.000000
# 5 0.000000 0.000000 0.000000 0.000000 0.036022 0.000000
# 6 0.000000 0.000000 0.000000 0.000000 0.000000 0.085682
#
#
# Mechanical properties :
#
#
# Convention : Reuss Voigt Hill
#
# Bulk Modulus (GPa) = 56.10169 65.37626 60.73897
# Shear Modulus (GPa) = 19.29475 22.15722 20.72598
#
# Velocity S-wave (km/s) = 3.13528 3.35981 3.24948
# Velocity P-wave (km/s) = 6.45665 6.95398 6.70993
#
# Compressibility (1/GPa) = 0.01782478
#
# Stress axis : x y z
#
# Youngs Moduli (GPa) = 62.09711 49.55003 83.25061
#
# Poissons Ratio (x) = 0.29064 0.57139
# Poissons Ratio (y) = 0.36424 0.20872
# Poissons Ratio (z) = 0.42620 0.12423
#
# Static dielectric constant tensor:
#      x y z
#    x 3.850780 0.000000 0.000000 
#    y 0.000000 3.025640 0.000000 
#    z 0.000000 0.000000 3.809400 
# 
# 
# High freq. dielectric constant tensor:
#      x y z
#    x 1.772100 0.000000 0.000000 
#    y 0.000000 1.702770 0.000000 
#    z 0.000000 0.000000 1.778690 
# 
# From -- ./inp_files/14642.got.cif
#   From: 2010.03.12/outbox.cif.g09.slc.cpg/sg68_8_cif.got.tgz:14642.got - 2010.04.10 23:14:56.
