data_PCOD8282228
_publ_section_title
;
Structure prediction by ZEFSAII (Michael W. Deem and Ramdas Pophale) SiO2 
 PCOD8282228
Probable space group: C C C A
;
_chemical_formula_sum "Si O2"
_cell_formula_units_Z 108
_cell_length_a 19.954590
_cell_length_b 14.454904
_cell_length_c 17.318304
_cell_angle_alpha 90.000000
_cell_angle_beta 90.000000
_cell_angle_gamma 90.000000
_cell_volume 4995.320749
_symmetry_space_group_name_H-M "C C C A"
_symmetry_group_IT_number 68
_space_group.IT_coordinate_system_code '2'
_symmetry_cell_setting 'orthorhombic'
loop_
_space_group_symop_operation_xyz
x,y,z
-x,1/2-y,z
x,1/2-y,1/2-z
-x,y,1/2-z
-x,-y,-z
x,1/2+y,-z
-x,1/2+y,1/2+z
x,-y,1/2+z
1/2+x,1/2+y,z
1/2-x,-y,z
1/2+x,-y,1/2-z
1/2-x,1/2+y,1/2-z
1/2-x,1/2-y,-z
1/2+x,y,-z
1/2-x,y,1/2+z
1/2+x,1/2-y,1/2+z
loop_
_atom_site_type_symbol
_atom_site_label
_atom_site_fract_x
_atom_site_fract_y
_atom_site_fract_z
Si Si1 0.250000 0.000000 0.487757
Si Si2 0.928266 0.771002 0.038619
Si Si3 0.188794 0.429301 0.735288
Si Si4 0.116212 0.035011 0.907416
Si Si5 0.000000 0.250000 0.250000
Si Si6 0.582965 0.837225 0.113618
Si Si7 0.781966 0.283121 0.328511
Si Si8 0.311169 0.644152 0.897271
O O1 0.193484 0.955017 0.434696
O O2 0.207642 0.073357 0.536417
O O3 0.869675 0.713202 0.077948
O O4 0.000000 0.750000 0.077712
O O5 0.920450 0.880957 0.049649
O O6 0.933398 0.743514 0.947809
O O7 0.250000 0.500000 0.737590
O O8 0.123551 0.459871 0.686160
O O9 0.214823 0.335986 0.695502
O O10 0.163411 0.411251 0.822091
O O11 0.072272 0.940980 0.921766
O O12 0.955820 0.183859 0.193728
O O13 0.663534 0.841658 0.125384
O O14 0.818701 0.250000 0.250000
O O15 0.758209 0.197417 0.380580
#
# Coordination Sequence:
#
# PCOD8282228 Si02
#       8
#     8  16  16  16   4  16  16  16
#     4  12  22  40  70 110 138 176 240 306 374 428
#     4  12  28  50  68  98 150 199 242 296 355 441
#     4  11  20  39  65 102 139 169 230 295 367 423
#     4  12  25  43  73 105 137 189 237 301 366 428
#     4  12  28  52  72 108 142 198 242 296 372 436
#     4  12  24  48  73 103 143 185 245 296 362 434
#     4  10  20  36  68  99 132 175 222 300 357 411
#     4  11  24  41  67 105 142 188 236 299 374 433
#
# _framework density 21.620234
#
# number of rings (size 3 to 8) (size 9 to 14) (size 15 to 20)
#    0.000    0.593    7.407    0.889    0.000    1.778 
#    5.333    0.741    0.000    0.000    0.000    0.000 
#    0.000    0.000    0.000    0.000    0.000    0.000 
#
# Total GULP energy -669342.697248 kJ/mol
# GULP energy per Si atom -12395.235134 kJ/mol
# Density = 2.157103 g / cm^3
# Si number density = 21.620234 Si / 1000 Ang^3
#
#
#
# Elastic Constant Matrix: (Units=GPa)
#
#
# Indices 1 2 3 4 5 6 
#
# 1 87.8402 37.9432 27.0245 0.0000 0.0000 0.0000
# 2 37.9432 134.7224 48.5712 0.0000 0.0000 0.0000
# 3 27.0245 48.5712 113.7879 0.0000 0.0000 0.0000
# 4 0.0000 0.0000 0.0000 -21.7287 0.0000 0.0000
# 5 0.0000 0.0000 0.0000 0.0000 12.6097 0.0000
# 6 0.0000 0.0000 0.0000 0.0000 0.0000 25.0476
#
#
#
# Elastic Compliance Matrix: (Units=1/GPa)
#
#
# Indices 1 2 3 4 5 6 
#
# 1 0.013279 -0.003076 -0.001841 0.000000 0.000000 0.000000
# 2 -0.003076 0.009485 -0.003318 0.000000 0.000000 0.000000
# 3 -0.001841 -0.003318 0.010642 0.000000 0.000000 0.000000
# 4 0.000000 0.000000 0.000000 -0.046022 0.000000 0.000000
# 5 0.000000 0.000000 0.000000 0.000000 0.079304 0.000000
# 6 0.000000 0.000000 0.000000 0.000000 0.000000 0.039924
#
#
# Mechanical properties :
#
#
# Convention : Reuss Voigt Hill
#
# Bulk Modulus (GPa) = 59.04562 62.60313 60.82438
# Shear Modulus (GPa) = 38.84122 18.03981 28.44052
#
# Velocity S-wave (km/s) = 4.24314 2.89172 3.63086
# Velocity P-wave (km/s) = 7.16765 6.33783 6.76548
#
# Compressibility (1/GPa) = 0.01693606
#
# Stress axis : x y z
#
# Youngs Moduli (GPa) = 75.30413 105.42468 93.96839
#
# Poissons Ratio (x) = 0.32433 0.17296
# Poissons Ratio (y) = 0.23167 0.31181
# Poissons Ratio (z) = 0.13861 0.34983
#
# Static dielectric constant tensor:
#      x y z
#    x 3.632520 0.000000 0.000000 
#    y 0.000000 4.236970 0.000000 
#    z 0.000000 0.000000 4.143390 
# 
# 
# High freq. dielectric constant tensor:
#      x y z
#    x 1.825160 0.000000 0.000000 
#    y 0.000000 1.858620 0.000000 
#    z 0.000000 0.000000 1.859990 
# 
# From -- ./inp_files/25525.got.cif
#   From: 2010.03.12/outbox.cif.g09.slc.cpg/sg68_13_cif.got.tgz:25525.got - 2010.04.10 23:14:56.
