data_PCOD8282878
_publ_section_title
;
Structure prediction by ZEFSAII (Michael W. Deem and Ramdas Pophale) SiO2 
 PCOD8282878
Probable space group: C C C A
;
_chemical_formula_sum "Si O2"
_cell_formula_units_Z 72
_cell_length_a 9.112862
_cell_length_b 23.602022
_cell_length_c 14.820262
_cell_angle_alpha 90.000000
_cell_angle_beta 90.000000
_cell_angle_gamma 90.000000
_cell_volume 3187.571138
_symmetry_space_group_name_H-M "C C C A"
_symmetry_group_IT_number 68
_space_group.IT_coordinate_system_code '2'
_symmetry_cell_setting 'orthorhombic'
loop_
_space_group_symop_operation_xyz
x,y,z
-x,1/2-y,z
x,1/2-y,1/2-z
-x,y,1/2-z
-x,-y,-z
x,1/2+y,-z
-x,1/2+y,1/2+z
x,-y,1/2+z
1/2+x,1/2+y,z
1/2-x,-y,z
1/2+x,-y,1/2-z
1/2-x,1/2+y,1/2-z
1/2-x,1/2-y,-z
1/2+x,y,-z
1/2-x,y,1/2+z
1/2+x,1/2-y,1/2+z
loop_
_atom_site_type_symbol
_atom_site_label
_atom_site_fract_x
_atom_site_fract_y
_atom_site_fract_z
Si Si1 0.313619 0.558828 0.586146
Si Si2 0.637077 0.221731 0.437412
Si Si3 0.334068 0.375870 0.740085
Si Si4 0.350018 0.407473 0.412415
Si Si5 0.750949 0.250000 0.250000
O O1 0.250000 0.500000 0.626077
O O2 0.239036 0.608701 0.644421
O O3 0.491594 0.561091 0.592833
O O4 0.260009 0.562342 0.482342
O O5 0.500000 0.250000 0.483424
O O6 0.750000 0.250000 0.500000
O O7 0.623869 0.155124 0.448645
O O8 0.647301 0.243602 0.335570
O O9 0.500000 0.399556 0.750000
O O10 0.230502 0.404758 0.815817
O O11 0.346448 0.307590 0.745808
#
# Coordination Sequence:
#
# PCOD8282878 Si02
#       5
#    16  16  16  16   8
#     4  12  26  45  67  92 127 174 226 281 333 393
#     4  11  22  37  63  94 129 168 210 264 330 404
#     4  11  24  42  67  99 133 172 217 271 334 403
#     4  11  24  43  66  95 130 171 221 275 334 397
#     4  10  22  40  64  94 134 172 210 260 330 406
#
# _framework density 22.587731000000002
#
# number of rings (size 3 to 8) (size 9 to 14) (size 15 to 20)
#    0.000    0.889    0.000    7.333    0.000   11.556 
#    0.000    0.000    0.000    0.000    0.000    0.000 
#    0.000    0.000    0.000    0.000    0.000    0.000 
#
# Total GULP energy -446192.234696 kJ/mol
# GULP energy per Si atom -12394.228742 kJ/mol
# Density = 2.253632 g / cm^3
# Si number density = 22.587731 Si / 1000 Ang^3
#
#
#
# Elastic Constant Matrix: (Units=GPa)
#
#
# Indices 1 2 3 4 5 6 
#
# 1 184.3448 54.3164 38.4834 0.0000 0.0000 0.0000
# 2 54.3164 92.3475 43.4554 0.0000 0.0000 0.0000
# 3 38.4834 43.4554 91.2297 0.0000 0.0000 0.0000
# 4 0.0000 0.0000 0.0000 20.0920 0.0000 0.0000
# 5 0.0000 0.0000 0.0000 0.0000 14.1020 0.0000
# 6 0.0000 0.0000 0.0000 0.0000 0.0000 37.1496
#
#
#
# Elastic Compliance Matrix: (Units=1/GPa)
#
#
# Indices 1 2 3 4 5 6 
#
# 1 0.006665 -0.003348 -0.001217 0.000000 0.000000 0.000000
# 2 -0.003348 0.015638 -0.006037 0.000000 0.000000 0.000000
# 3 -0.001217 -0.006037 0.014350 0.000000 0.000000 0.000000
# 4 0.000000 0.000000 0.000000 0.049771 0.000000 0.000000
# 5 0.000000 0.000000 0.000000 0.000000 0.070912 0.000000
# 6 0.000000 0.000000 0.000000 0.000000 0.000000 0.026918
#
#
# Mechanical properties :
#
#
# Convention : Reuss Voigt Hill
#
# Bulk Modulus (GPa) = 64.72163 71.15913 67.94038
# Shear Modulus (GPa) = 23.74078 29.71318 26.72698
#
# Velocity S-wave (km/s) = 3.24550 3.63086 3.44357
# Velocity P-wave (km/s) = 6.53912 7.01066 6.77899
#
# Compressibility (1/GPa) = 0.01545078
#
# Stress axis : x y z
#
# Youngs Moduli (GPa) = 150.03750 63.94545 69.68516
#
# Poissons Ratio (x) = 0.21406 0.08481
# Poissons Ratio (y) = 0.50225 0.42068
# Poissons Ratio (z) = 0.18259 0.38603
#
# Static dielectric constant tensor:
#      x y z
#    x 4.009480 0.000000 0.000000 
#    y 0.000000 4.145800 0.000000 
#    z 0.000000 0.000000 3.901770 
# 
# 
# High freq. dielectric constant tensor:
#      x y z
#    x 1.903080 0.000000 0.000000 
#    y 0.000000 1.894350 0.000000 
#    z 0.000000 0.000000 1.897400 
# 
# From -- ./inp_files/19443.got.cif
#   From: 2010.03.12/outbox.cif.g09.slc.cpg/sg68_10_cif.got.tgz:19443.got - 2010.04.10 23:14:56.
