data_PCOD8282411
_publ_section_title
;
Structure prediction by ZEFSAII (Michael W. Deem and Ramdas Pophale) SiO2 
 PCOD8282411
Probable space group: C C C A
;
_chemical_formula_sum "Si O2"
_cell_formula_units_Z 92
_cell_length_a 27.539500
_cell_length_b 8.834539
_cell_length_c 19.764395
_cell_angle_alpha 90.000000
_cell_angle_beta 90.000000
_cell_angle_gamma 90.000000
_cell_volume 4808.653325
_symmetry_space_group_name_H-M "C C C A"
_symmetry_group_IT_number 68
_space_group.IT_coordinate_system_code '2'
_symmetry_cell_setting 'orthorhombic'
loop_
_space_group_symop_operation_xyz
x,y,z
-x,1/2-y,z
x,1/2-y,1/2-z
-x,y,1/2-z
-x,-y,-z
x,1/2+y,-z
-x,1/2+y,1/2+z
x,-y,1/2+z
1/2+x,1/2+y,z
1/2-x,-y,z
1/2+x,-y,1/2-z
1/2-x,1/2+y,1/2-z
1/2-x,1/2-y,-z
1/2+x,y,-z
1/2-x,y,1/2+z
1/2+x,1/2-y,1/2+z
loop_
_atom_site_type_symbol
_atom_site_label
_atom_site_fract_x
_atom_site_fract_y
_atom_site_fract_z
Si Si1 0.611455 0.756087 0.326744
Si Si2 0.184551 0.743698 0.945306
Si Si3 0.250000 0.500000 0.008224
Si Si4 0.553134 0.053690 0.583794
Si Si5 0.591026 0.257028 0.030045
Si Si6 0.951685 0.458072 0.641916
Si Si7 0.000000 0.750000 0.250000
O O1 0.629936 0.750000 0.250000
O O2 0.658539 0.776162 0.373343
O O3 0.581538 0.604895 0.348114
O O4 0.574828 0.895389 0.331358
O O5 0.214856 0.592947 0.958868
O O6 0.146285 0.769790 0.005745
O O7 0.219771 0.888922 0.942863
O O8 0.554993 0.193943 0.531109
O O9 0.580833 0.915439 0.548795
O O10 0.498670 0.006548 0.599385
O O11 0.584436 0.364560 0.094342
O O12 0.965565 0.353541 0.704687
#
# Coordination Sequence:
#
# PCOD8282411 Si02
#       7
#    16  16   8  16  16  16   4
#     4  11  24  40  60  84 124 165 207 244 295 360
#     4  10  21  39  63  93 113 147 190 249 312 373
#     4  10  20  40  68  88 116 138 184 254 324 374
#     4  11  22  38  57  91 122 167 210 254 296 335
#     4  11  21  37  62  89 122 152 206 260 298 349
#     4  12  23  38  56  83 126 171 212 248 288 345
#     4  12  24  40  54  84 124 180 224 244 292 352
#
# _framework density 19.132175
#
# number of rings (size 3 to 8) (size 9 to 14) (size 15 to 20)
#    0.000    1.043    1.739    7.304    0.000    3.478 
#    0.000    0.870    0.000    0.000    0.000    0.000 
#    0.000    0.000    0.000    0.000    0.000    0.000 
#
# Total GULP energy -570594.820380 kJ/mol
# GULP energy per Si atom -12404.235226 kJ/mol
# Density = 1.908863 g / cm^3
# Si number density = 19.132175 Si / 1000 Ang^3
#
#
#
# Elastic Constant Matrix: (Units=GPa)
#
#
# Indices 1 2 3 4 5 6 
#
# 1 102.2897 42.8626 48.5563 0.0000 0.0000 0.0000
# 2 42.8626 105.8056 42.8219 0.0000 0.0000 0.0000
# 3 48.5563 42.8219 113.8352 0.0000 0.0000 0.0000
# 4 0.0000 0.0000 0.0000 26.9805 0.0000 0.0000
# 5 0.0000 0.0000 0.0000 0.0000 13.8794 0.0000
# 6 0.0000 0.0000 0.0000 0.0000 0.0000 25.5490
#
#
#
# Elastic Compliance Matrix: (Units=1/GPa)
#
#
# Indices 1 2 3 4 5 6 
#
# 1 0.013363 -0.003664 -0.004322 0.000000 0.000000 0.000000
# 2 -0.003664 0.012154 -0.003009 0.000000 0.000000 0.000000
# 3 -0.004322 -0.003009 0.011760 0.000000 0.000000 0.000000
# 4 0.000000 0.000000 0.000000 0.037064 0.000000 0.000000
# 5 0.000000 0.000000 0.000000 0.000000 0.072049 0.000000
# 6 0.000000 0.000000 0.000000 0.000000 0.000000 0.039140
#
#
# Mechanical properties :
#
#
# Convention : Reuss Voigt Hill
#
# Bulk Modulus (GPa) = 65.41564 65.60135 65.50849
# Shear Modulus (GPa) = 23.51668 25.79444 24.65556
#
# Velocity S-wave (km/s) = 3.50975 3.67580 3.59374
# Velocity P-wave (km/s) = 7.11970 7.23728 7.17873
#
# Compressibility (1/GPa) = 0.01528687
#
# Stress axis : x y z
#
# Youngs Moduli (GPa) = 74.83302 82.28078 85.03554
#
# Poissons Ratio (x) = 0.30151 0.36748
# Poissons Ratio (y) = 0.27422 0.25585
# Poissons Ratio (z) = 0.32339 0.24756
#
# Static dielectric constant tensor:
#      x y z
#    x 3.493940 0.000000 0.000000 
#    y 0.000000 3.862650 0.000000 
#    z 0.000000 0.000000 3.551150 
# 
# 
# High freq. dielectric constant tensor:
#      x y z
#    x 1.735630 0.000000 0.000000 
#    y 0.000000 1.768040 0.000000 
#    z 0.000000 0.000000 1.735500 
# 
# From -- ./inp_files/36345.got.cif
#   From: 2010.03.12/outbox.cif.g09.slc.cpg/sg68_19_cif.got.tgz:36345.got - 2010.04.10 23:14:56.
