data_PCOD8282657
_publ_section_title
;
Structure prediction by ZEFSAII (Michael W. Deem and Ramdas Pophale) SiO2 
 PCOD8282657
Probable space group: C C C A
;
_chemical_formula_sum "Si O2"
_cell_formula_units_Z 64
_cell_length_a 16.616450
_cell_length_b 19.705144
_cell_length_c 8.372892
_cell_angle_alpha 90.000000
_cell_angle_beta 90.000000
_cell_angle_gamma 90.000000
_cell_volume 2741.532176
_symmetry_space_group_name_H-M "C C C A"
_symmetry_group_IT_number 68
_space_group.IT_coordinate_system_code '2'
_symmetry_cell_setting 'orthorhombic'
loop_
_space_group_symop_operation_xyz
x,y,z
-x,1/2-y,z
x,1/2-y,1/2-z
-x,y,1/2-z
-x,-y,-z
x,1/2+y,-z
-x,1/2+y,1/2+z
x,-y,1/2+z
1/2+x,1/2+y,z
1/2-x,-y,z
1/2+x,-y,1/2-z
1/2-x,1/2+y,1/2-z
1/2-x,1/2-y,-z
1/2+x,y,-z
1/2-x,y,1/2+z
1/2+x,1/2-y,1/2+z
loop_
_atom_site_type_symbol
_atom_site_label
_atom_site_fract_x
_atom_site_fract_y
_atom_site_fract_z
Si Si1 0.662368 0.969018 0.944619
Si Si2 0.650704 0.691566 0.018057
Si Si3 0.821914 0.832855 0.621281
Si Si4 0.579301 0.927946 0.645431
O O1 0.654240 0.947296 0.760232
O O2 0.750000 0.000000 0.972163
O O3 0.647744 0.902039 0.047719
O O4 0.591041 0.020963 0.995821
O O5 0.729331 0.684852 0.908813
O O6 0.582291 0.648918 0.924118
O O7 0.666849 0.658417 0.190083
O O8 0.626011 0.770391 0.044589
O O9 0.500000 0.938227 0.750000
#
# Coordination Sequence:
#
# PCOD8282657 Si02
#       4
#    16  16  16  16
#     4  12  24  41  67  99 132 183 238 289 339 425
#     4  10  21  40  65 102 134 175 224 293 350 409
#     4  10  21  39  69  99 133 169 235 290 341 405
#     4  12  26  43  66 100 145 186 229 288 362 418
#
# _framework density 23.344609999999999
#
# number of rings (size 3 to 8) (size 9 to 14) (size 15 to 20)
#    0.000    1.000    2.500    4.500    0.000    3.000 
#    0.000    2.500    0.000    3.000    0.000    0.000 
#    0.000    0.000    0.000    0.000    0.000    0.000 
#
# Total GULP energy -396738.272540 kJ/mol
# GULP energy per Si atom -12398.071017 kJ/mol
# Density = 2.329148 g / cm^3
# Si number density = 23.344610 Si / 1000 Ang^3
#
#
#
# Elastic Constant Matrix: (Units=GPa)
#
#
# Indices 1 2 3 4 5 6 
#
# 1 57.6611 31.2744 26.2450 0.0000 0.0000 0.0000
# 2 31.2744 149.6215 48.7963 0.0000 0.0000 0.0000
# 3 26.2450 48.7963 121.3415 0.0000 0.0000 0.0000
# 4 0.0000 0.0000 0.0000 45.4509 0.0000 0.0000
# 5 0.0000 0.0000 0.0000 0.0000 22.9350 0.0000
# 6 0.0000 0.0000 0.0000 0.0000 0.0000 23.0203
#
#
#
# Elastic Compliance Matrix: (Units=1/GPa)
#
#
# Indices 1 2 3 4 5 6 
#
# 1 0.020541 -0.003274 -0.003126 0.000000 0.000000 0.000000
# 2 -0.003274 0.008214 -0.002595 0.000000 0.000000 0.000000
# 3 -0.003126 -0.002595 0.009961 0.000000 0.000000 0.000000
# 4 0.000000 0.000000 0.000000 0.022002 0.000000 0.000000
# 5 0.000000 0.000000 0.000000 0.000000 0.043601 0.000000
# 6 0.000000 0.000000 0.000000 0.000000 0.000000 0.043440
#
#
# Mechanical properties :
#
#
# Convention : Reuss Voigt Hill
#
# Bulk Modulus (GPa) = 48.24919 60.13949 54.19434
# Shear Modulus (GPa) = 28.95876 33.10181 31.03029
#
# Velocity S-wave (km/s) = 3.52588 3.76967 3.64981
# Velocity P-wave (km/s) = 6.10646 6.69065 6.40522
#
# Compressibility (1/GPa) = 0.02072574
#
# Stress axis : x y z
#
# Youngs Moduli (GPa) = 48.68204 121.73981 100.39162
#
# Poissons Ratio (x) = 0.39858 0.31385
# Poissons Ratio (y) = 0.15939 0.26053
# Poissons Ratio (z) = 0.15219 0.31593
#
# Static dielectric constant tensor:
#      x y z
#    x 3.651510 0.000000 0.000000 
#    y 0.000000 4.651640 0.000000 
#    z 0.000000 0.000000 4.464720 
# 
# 
# High freq. dielectric constant tensor:
#      x y z
#    x 1.872510 0.000000 0.000000 
#    y 0.000000 1.944360 0.000000 
#    z 0.000000 0.000000 1.945130 
# 
# From -- ./inp_files/5820.got.cif
#   From: 2010.03.12/outbox.cif.g09.slc.cpg/sg68_3_cif.got.tgz:5820.got - 2010.04.10 23:14:56.
