data_PCOD8282519
_publ_section_title
;
Structure prediction by ZEFSAII (Michael W. Deem and Ramdas Pophale) SiO2 
 PCOD8282519
Probable space group: C C C A
;
_chemical_formula_sum "Si O2"
_cell_formula_units_Z 64
_cell_length_a 14.679885
_cell_length_b 37.941550
_cell_length_c 5.200543
_cell_angle_alpha 90.000000
_cell_angle_beta 90.000000
_cell_angle_gamma 90.000000
_cell_volume 2896.585911
_symmetry_space_group_name_H-M "C C C A"
_symmetry_group_IT_number 68
_space_group.IT_coordinate_system_code '2'
_symmetry_cell_setting 'orthorhombic'
loop_
_space_group_symop_operation_xyz
x,y,z
-x,1/2-y,z
x,1/2-y,1/2-z
-x,y,1/2-z
-x,-y,-z
x,1/2+y,-z
-x,1/2+y,1/2+z
x,-y,1/2+z
1/2+x,1/2+y,z
1/2-x,-y,z
1/2+x,-y,1/2-z
1/2-x,1/2+y,1/2-z
1/2-x,1/2-y,-z
1/2+x,y,-z
1/2-x,y,1/2+z
1/2+x,1/2-y,1/2+z
loop_
_atom_site_type_symbol
_atom_site_label
_atom_site_fract_x
_atom_site_fract_y
_atom_site_fract_z
Si Si1 0.191205 0.834859 0.416216
Si Si2 0.895061 0.982732 0.209107
Si Si3 0.192790 0.586209 0.061133
Si Si4 0.102190 0.265369 0.501982
O O1 0.268735 0.828757 0.631483
O O2 0.150931 0.874451 0.424281
O O3 0.108271 0.807876 0.478150
O O4 0.885141 0.941877 0.130294
O O5 0.000000 0.992159 0.250000
O O6 0.849320 0.993099 0.483163
O O7 0.272785 0.580684 0.270265
O O8 0.152546 0.250000 0.250000
O O9 0.000000 0.250000 0.500943
O O10 0.154592 0.250000 0.750000
#
# Coordination Sequence:
#
# PCOD8282519 Si02
#       4
#    16  16  16  16
#     4  10  21  37  58  83 114 149 186 233 287 339
#     4  10  21  37  57  83 118 153 192 233 280 334
#     4  10  21  37  58  85 116 147 191 236 281 336
#     4  10  21  37  56  81 114 143 185 238 275 340
#
# _framework density 22.094975999999999
#
# number of rings (size 3 to 8) (size 9 to 14) (size 15 to 20)
#    0.000    2.000    0.000    3.000    0.000    6.000 
#    4.500    0.000   11.000    0.000    0.000    0.000 
#    0.000    0.000    0.000    0.000    0.000    0.000 
#
# Total GULP energy -396482.031301 kJ/mol
# GULP energy per Si atom -12390.063478 kJ/mol
# Density = 2.204469 g / cm^3
# Si number density = 22.094976 Si / 1000 Ang^3
#
#
#
# Elastic Constant Matrix: (Units=GPa)
#
#
# Indices 1 2 3 4 5 6 
#
# 1 28.1080 33.0561 8.2618 0.0000 0.0000 0.0000
# 2 33.0561 188.3190 56.4996 0.0000 0.0000 0.0000
# 3 8.2618 56.4996 184.0349 0.0000 0.0000 0.0000
# 4 0.0000 0.0000 0.0000 37.2501 0.0000 0.0000
# 5 0.0000 0.0000 0.0000 0.0000 8.8445 0.0000
# 6 0.0000 0.0000 0.0000 0.0000 0.0000 45.1274
#
#
#
# Elastic Compliance Matrix: (Units=1/GPa)
#
#
# Indices 1 2 3 4 5 6 
#
# 1 0.044865 -0.008009 0.000445 0.000000 0.000000 0.000000
# 2 -0.008009 0.007278 -0.001875 0.000000 0.000000 0.000000
# 3 0.000445 -0.001875 0.005989 0.000000 0.000000 0.000000
# 4 0.000000 0.000000 0.000000 0.026846 0.000000 0.000000
# 5 0.000000 0.000000 0.000000 0.000000 0.113064 0.000000
# 6 0.000000 0.000000 0.000000 0.000000 0.000000 0.022159
#
#
# Mechanical properties :
#
#
# Convention : Reuss Voigt Hill
#
# Bulk Modulus (GPa) = 25.47472 66.23300 45.85386
# Shear Modulus (GPa) = 19.82830 38.42071 29.12451
#
# Velocity S-wave (km/s) = 2.99893 4.17452 3.63457
# Velocity P-wave (km/s) = 4.85244 7.29912 6.19771
#
# Compressibility (1/GPa) = 0.03925461
#
# Stress axis : x y z
#
# Youngs Moduli (GPa) = 22.28920 137.39208 166.96097
#
# Poissons Ratio (x) = 1.10032 -0.07423
# Poissons Ratio (y) = 0.17851 0.31305
# Poissons Ratio (z) = -0.00991 0.25761
#
# Static dielectric constant tensor:
#      x y z
#    x 3.248910 0.000000 0.000000 
#    y 0.000000 4.204010 0.000000 
#    z 0.000000 0.000000 7.250070 
# 
# 
# High freq. dielectric constant tensor:
#      x y z
#    x 1.808400 0.000000 0.000000 
#    y 0.000000 1.881230 0.000000 
#    z 0.000000 0.000000 1.911470 
# 
# From -- ./inp_files/1100.got.cif
#   From: 2010.03.12/outbox.cif.g09.slc.cpg/sg68_1_cif.got.tgz:1100.got - 2010.04.10 23:14:56.
