data_PCOD8282064
_publ_section_title
;
Structure prediction by ZEFSAII (Michael W. Deem and Ramdas Pophale) SiO2 
 PCOD8282064
Probable space group: C C C A
;
_chemical_formula_sum "Si O2"
_cell_formula_units_Z 108
_cell_length_a 29.040434
_cell_length_b 16.302388
_cell_length_c 11.083894
_cell_angle_alpha 90.000000
_cell_angle_beta 90.000000
_cell_angle_gamma 90.000000
_cell_volume 5247.430454
_symmetry_space_group_name_H-M "C C C A"
_symmetry_group_IT_number 68
_space_group.IT_coordinate_system_code '2'
_symmetry_cell_setting 'orthorhombic'
loop_
_space_group_symop_operation_xyz
x,y,z
-x,1/2-y,z
x,1/2-y,1/2-z
-x,y,1/2-z
-x,-y,-z
x,1/2+y,-z
-x,1/2+y,1/2+z
x,-y,1/2+z
1/2+x,1/2+y,z
1/2-x,-y,z
1/2+x,-y,1/2-z
1/2-x,1/2+y,1/2-z
1/2-x,1/2-y,-z
1/2+x,y,-z
1/2-x,y,1/2+z
1/2+x,1/2-y,1/2+z
loop_
_atom_site_type_symbol
_atom_site_label
_atom_site_fract_x
_atom_site_fract_y
_atom_site_fract_z
Si Si1 0.137409 0.897396 0.802873
Si Si2 0.137091 0.172429 0.559336
Si Si3 0.149793 0.917523 0.305771
Si Si4 0.000000 0.250000 0.750000
Si Si5 0.798435 0.250000 0.250000
Si Si6 0.429760 0.821019 0.921914
Si Si7 0.951292 0.338792 0.196016
Si Si8 0.790405 0.718129 0.374085
O O1 0.170753 0.831259 0.736180
O O2 0.088971 0.901197 0.733228
O O3 0.160515 0.986256 0.800816
O O4 0.126031 0.877125 0.939957
O O5 0.143762 0.109073 0.667501
O O6 0.095767 0.234063 0.585812
O O7 0.183362 0.226173 0.527050
O O8 0.104429 0.894864 0.383715
O O9 0.194666 0.877660 0.374541
O O10 0.028699 0.185712 0.829228
O O11 0.764422 0.262078 0.367836
O O12 0.452536 0.836726 0.051841
O O13 0.938628 0.250000 0.250000
O O14 0.000000 0.369278 0.250000
O O15 0.814804 0.750000 0.250000
#
# Coordination Sequence:
#
# PCOD8282064 Si02
#       8
#    16  16  16   4   8  16  16  16
#     4  12  24  38  65  95 127 172 213 262 320 397
#     4  10  19  42  62  88 123 167 210 258 322 379
#     4  10  22  40  62  93 130 164 211 264 325 366
#     4  12  20  34  70 100 104 166 222 262 304 388
#     4  10  20  41  63  92 126 167 219 250 324 392
#     4  11  21  40  67  91 125 165 215 262 317 385
#     4  11  23  42  61  91 131 171 209 259 318 378
#     4   7  17  39  65  83 122 164 198 267 308 370
#
# _framework density 20.581500999999999
#
# number of rings (size 3 to 8) (size 9 to 14) (size 15 to 20)
#    0.444    1.333    3.704    1.778    2.074    1.185 
#    1.333    0.741    3.259    0.000    0.000    0.000 
#    0.000    0.000    0.000    0.000    0.000    0.000 
#
# Total GULP energy -669221.649891 kJ/mol
# GULP energy per Si atom -12392.993516 kJ/mol
# Density = 2.053466 g / cm^3
# Si number density = 20.581501 Si / 1000 Ang^3
#
#
#
# Elastic Constant Matrix: (Units=GPa)
#
#
# Indices 1 2 3 4 5 6 
#
# 1 128.1589 46.5467 40.2493 0.0000 0.0000 0.0000
# 2 46.5467 135.1553 25.3808 0.0000 0.0000 0.0000
# 3 40.2493 25.3808 102.2566 0.0000 0.0000 0.0000
# 4 0.0000 0.0000 0.0000 14.0663 0.0000 0.0000
# 5 0.0000 0.0000 0.0000 0.0000 35.1972 0.0000
# 6 0.0000 0.0000 0.0000 0.0000 0.0000 20.3763
#
#
#
# Elastic Compliance Matrix: (Units=1/GPa)
#
#
# Indices 1 2 3 4 5 6 
#
# 1 0.009809 -0.002783 -0.003170 0.000000 0.000000 0.000000
# 2 -0.002783 0.008550 -0.001027 0.000000 0.000000 0.000000
# 3 -0.003170 -0.001027 0.011282 0.000000 0.000000 0.000000
# 4 0.000000 0.000000 0.000000 0.071092 0.000000 0.000000
# 5 0.000000 0.000000 0.000000 0.000000 0.028411 0.000000
# 6 0.000000 0.000000 0.000000 0.000000 0.000000 0.049077
#
#
# Mechanical properties :
#
#
# Convention : Reuss Voigt Hill
#
# Bulk Modulus (GPa) = 63.76984 65.54715 64.65850
# Shear Modulus (GPa) = 25.32823 30.82091 28.07457
#
# Velocity S-wave (km/s) = 3.51184 3.87396 3.69734
# Velocity P-wave (km/s) = 6.89169 7.20603 7.05061
#
# Compressibility (1/GPa) = 0.01568139
#
# Stress axis : x y z
#
# Youngs Moduli (GPa) = 101.94518 116.95725 88.63652
#
# Poissons Ratio (x) = 0.32548 0.28100
# Poissons Ratio (y) = 0.28370 0.09101
# Poissons Ratio (z) = 0.32319 0.12009
#
# Static dielectric constant tensor:
#      x y z
#    x 3.713800 0.000000 0.000000 
#    y 0.000000 3.471000 0.000000 
#    z 0.000000 0.000000 3.757540 
# 
# 
# High freq. dielectric constant tensor:
#      x y z
#    x 1.808320 0.000000 0.000000 
#    y 0.000000 1.773940 0.000000 
#    z 0.000000 0.000000 1.816490 
# 
# From -- ./inp_files/17820.got.cif
#   From: 2010.03.12/outbox.cif.g09.slc.cpg/sg68_9_cif.got.tgz:17820.got - 2010.04.10 23:14:56.
