data_PCOD8282057
_publ_section_title
;
Structure prediction by ZEFSAII (Michael W. Deem and Ramdas Pophale) SiO2 
 PCOD8282057
Probable space group: C C C A
;
_chemical_formula_sum "Si O2"
_cell_formula_units_Z 64
_cell_length_a 10.128822
_cell_length_b 16.356820
_cell_length_c 17.319497
_cell_angle_alpha 90.000000
_cell_angle_beta 90.000000
_cell_angle_gamma 90.000000
_cell_volume 2869.413178
_symmetry_space_group_name_H-M "C C C A"
_symmetry_group_IT_number 68
_space_group.IT_coordinate_system_code '2'
_symmetry_cell_setting 'orthorhombic'
loop_
_space_group_symop_operation_xyz
x,y,z
-x,1/2-y,z
x,1/2-y,1/2-z
-x,y,1/2-z
-x,-y,-z
x,1/2+y,-z
-x,1/2+y,1/2+z
x,-y,1/2+z
1/2+x,1/2+y,z
1/2-x,-y,z
1/2+x,-y,1/2-z
1/2-x,1/2+y,1/2-z
1/2-x,1/2-y,-z
1/2+x,y,-z
1/2-x,y,1/2+z
1/2+x,1/2-y,1/2+z
loop_
_atom_site_type_symbol
_atom_site_label
_atom_site_fract_x
_atom_site_fract_y
_atom_site_fract_z
Si Si1 0.103084 0.094853 0.806820
Si Si2 0.640062 0.411553 0.744031
Si Si3 0.709185 0.588884 0.065923
Si Si4 0.512722 0.154729 0.461156
O O1 0.249392 0.134536 0.796458
O O2 0.051352 0.101091 0.893085
O O3 0.000000 0.140381 0.750000
O O4 0.116101 0.001155 0.779750
O O5 0.500000 0.363779 0.750000
O O6 0.697479 0.414067 0.657943
O O7 0.750000 0.500000 0.034376
O O8 0.829881 0.643511 0.034442
O O9 0.568400 0.623226 0.035636
O O10 0.500000 0.250000 0.446352
#
# Coordination Sequence:
#
# PCOD8282057 Si02
#       4
#    16  16  16  16
#     4  10  19  40  65  94 131 174 225 286 334 397
#     4  10  20  38  68  99 131 166 238 299 328 389
#     4  12  24  46  71 104 133 185 244 285 335 418
#     4  12  28  45  69 102 150 186 222 283 364 424
#
# _framework density 22.304212
#
# number of rings (size 3 to 8) (size 9 to 14) (size 15 to 20)
#    0.000    1.000    5.000    3.000    7.000    0.500 
#    0.000    0.000    0.000    0.000    0.000    0.000 
#    0.000    0.000    0.000    0.000    0.000    0.000 
#
# Total GULP energy -396465.564633 kJ/mol
# GULP energy per Si atom -12389.548895 kJ/mol
# Density = 2.225345 g / cm^3
# Si number density = 22.304212 Si / 1000 Ang^3
#
#
#
# Elastic Constant Matrix: (Units=GPa)
#
#
# Indices 1 2 3 4 5 6 
#
# 1 153.1462 10.1440 -3.6090 0.0000 0.0000 0.0000
# 2 10.1440 62.9300 11.8455 0.0000 0.0000 0.0000
# 3 -3.6090 11.8455 70.1373 0.0000 0.0000 0.0000
# 4 0.0000 0.0000 0.0000 4.9301 0.0000 0.0000
# 5 0.0000 0.0000 0.0000 0.0000 36.9055 0.0000
# 6 0.0000 0.0000 0.0000 0.0000 0.0000 26.2673
#
#
#
# Elastic Compliance Matrix: (Units=1/GPa)
#
#
# Indices 1 2 3 4 5 6 
#
# 1 0.006620 -0.001168 0.000538 0.000000 0.000000 0.000000
# 2 -0.001168 0.016619 -0.002867 0.000000 0.000000 0.000000
# 3 0.000538 -0.002867 0.014770 0.000000 0.000000 0.000000
# 4 0.000000 0.000000 0.000000 0.202834 0.000000 0.000000
# 5 0.000000 0.000000 0.000000 0.000000 0.027096 0.000000
# 6 0.000000 0.000000 0.000000 0.000000 0.000000 0.038070
#
#
# Mechanical properties :
#
#
# Convention : Reuss Voigt Hill
#
# Bulk Modulus (GPa) = 32.24394 35.88605 34.06500
# Shear Modulus (GPa) = 15.46357 31.47612 23.46984
#
# Velocity S-wave (km/s) = 2.63592 3.76069 3.24738
# Velocity P-wave (km/s) = 4.87359 5.91451 5.41910
#
# Compressibility (1/GPa) = 0.03101358
#
# Stress axis : x y z
#
# Youngs Moduli (GPa) = 151.06260 60.17338 67.70664
#
# Poissons Ratio (x) = 0.07030 -0.03642
# Poissons Ratio (y) = 0.17649 0.19410
# Poissons Ratio (z) = -0.08126 0.17251
#
# Static dielectric constant tensor:
#      x y z
#    x 6.353840 0.000000 0.000000 
#    y 0.000000 3.517000 0.000000 
#    z 0.000000 0.000000 3.866310 
# 
# 
# High freq. dielectric constant tensor:
#      x y z
#    x 1.921930 0.000000 0.000000 
#    y 0.000000 1.827860 0.000000 
#    z 0.000000 0.000000 1.872510 
# 
# From -- ./inp_files/29160.got.cif
#   From: 2010.03.12/outbox.cif.g09.slc.cpg/sg68_15_cif.got.tgz:29160.got - 2010.04.10 23:14:56.
