data_PCOD8282231
_publ_section_title
;
Structure prediction by ZEFSAII (Michael W. Deem and Ramdas Pophale) SiO2 
 PCOD8282231
Probable space group: C C C A
;
_chemical_formula_sum "Si O2"
_cell_formula_units_Z 64
_cell_length_a 25.813861
_cell_length_b 12.858848
_cell_length_c 8.235472
_cell_angle_alpha 90.000000
_cell_angle_beta 90.000000
_cell_angle_gamma 90.000000
_cell_volume 2733.653874
_symmetry_space_group_name_H-M "C C C A"
_symmetry_group_IT_number 68
_space_group.IT_coordinate_system_code '2'
_symmetry_cell_setting 'orthorhombic'
loop_
_space_group_symop_operation_xyz
x,y,z
-x,1/2-y,z
x,1/2-y,1/2-z
-x,y,1/2-z
-x,-y,-z
x,1/2+y,-z
-x,1/2+y,1/2+z
x,-y,1/2+z
1/2+x,1/2+y,z
1/2-x,-y,z
1/2+x,-y,1/2-z
1/2-x,1/2+y,1/2-z
1/2-x,1/2-y,-z
1/2+x,y,-z
1/2-x,y,1/2+z
1/2+x,1/2-y,1/2+z
loop_
_atom_site_type_symbol
_atom_site_label
_atom_site_fract_x
_atom_site_fract_y
_atom_site_fract_z
Si Si1 0.250000 0.500000 0.434398
Si Si2 0.587668 0.888559 0.552613
Si Si3 0.500000 0.750000 0.975746
Si Si4 0.196960 0.138751 0.810241
Si Si5 0.945056 0.093122 0.198499
O O1 0.228251 0.402813 0.534823
O O2 0.203559 0.549890 0.327507
O O3 0.536122 0.829814 0.626194
O O4 0.637814 0.841158 0.638188
O O5 0.588402 0.876137 0.357265
O O6 0.586432 0.010605 0.592570
O O7 0.457368 0.693241 0.089237
O O8 0.219330 0.250000 0.750000
O O9 0.000000 0.042327 0.250000
#
# Coordination Sequence:
#
# PCOD8282231 Si02
#       5
#     8  16   8  16  16
#     4  10  24  48  68  94 136 166 218 296 330 386
#     4  11  22  37  60  91 123 163 211 258 316 390
#     4  10  21  38  59  88 131 172 213 262 315 386
#     4  11  24  43  70  99 128 173 220 271 346 402
#     4  10  20  37  56  83 125 169 207 256 312 372
#
# _framework density 23.411888999999999
#
# number of rings (size 3 to 8) (size 9 to 14) (size 15 to 20)
#    0.000    1.500    0.000    8.625    0.000    6.000 
#    0.000    8.750    0.000    0.000    0.000    0.000 
#    0.000    0.000    0.000    0.000    0.000    0.000 
#
# Total GULP energy -396613.458420 kJ/mol
# GULP energy per Si atom -12394.170576 kJ/mol
# Density = 2.335860 g / cm^3
# Si number density = 23.411889 Si / 1000 Ang^3
#
#
#
# Elastic Constant Matrix: (Units=GPa)
#
#
# Indices 1 2 3 4 5 6 
#
# 1 106.5452 43.3592 55.2020 0.0000 0.0000 0.0000
# 2 43.3592 129.0907 46.6762 0.0000 0.0000 0.0000
# 3 55.2020 46.6762 97.5222 0.0000 0.0000 0.0000
# 4 0.0000 0.0000 0.0000 37.5653 0.0000 0.0000
# 5 0.0000 0.0000 0.0000 0.0000 15.9321 0.0000
# 6 0.0000 0.0000 0.0000 0.0000 0.0000 35.3159
#
#
#
# Elastic Compliance Matrix: (Units=1/GPa)
#
#
# Indices 1 2 3 4 5 6 
#
# 1 0.013772 -0.002185 -0.006750 0.000000 0.000000 0.000000
# 2 -0.002185 0.009714 -0.003413 0.000000 0.000000 0.000000
# 3 -0.006750 -0.003413 0.015708 0.000000 0.000000 0.000000
# 4 0.000000 0.000000 0.000000 0.026620 0.000000 0.000000
# 5 0.000000 0.000000 0.000000 0.000000 0.062766 0.000000
# 6 0.000000 0.000000 0.000000 0.000000 0.000000 0.028316
#
#
# Mechanical properties :
#
#
# Convention : Reuss Voigt Hill
#
# Bulk Modulus (GPa) = 68.96808 69.29251 69.13030
# Shear Modulus (GPa) = 26.82042 30.29072 28.55557
#
# Velocity S-wave (km/s) = 3.38833 3.60087 3.49621
# Velocity P-wave (km/s) = 6.69554 6.85199 6.77421
#
# Compressibility (1/GPa) = 0.01449946
#
# Stress axis : x y z
#
# Youngs Moduli (GPa) = 72.61075 102.94018 63.66165
#
# Poissons Ratio (x) = 0.22495 0.42970
# Poissons Ratio (y) = 0.15867 0.21725
# Poissons Ratio (z) = 0.49010 0.35129
#
# Static dielectric constant tensor:
#      x y z
#    x 3.895690 0.000000 0.000000 
#    y 0.000000 4.204590 0.000000 
#    z 0.000000 0.000000 4.276260 
# 
# 
# High freq. dielectric constant tensor:
#      x y z
#    x 1.893930 0.000000 0.000000 
#    y 0.000000 1.940470 0.000000 
#    z 0.000000 0.000000 1.929300 
# 
# From -- ./inp_files/5051.got.cif
#   From: 2010.03.12/outbox.cif.g09.slc.cpg/sg68_3_cif.got.tgz:5051.got - 2010.04.10 23:14:56.
