data_PCOD8282403
_publ_section_title
;
Structure prediction by ZEFSAII (Michael W. Deem and Ramdas Pophale) SiO2 
 PCOD8282403
Probable space group: C C C A
;
_chemical_formula_sum "Si O2"
_cell_formula_units_Z 72
_cell_length_a 14.642267
_cell_length_b 16.265921
_cell_length_c 14.944059
_cell_angle_alpha 90.000000
_cell_angle_beta 90.000000
_cell_angle_gamma 90.000000
_cell_volume 3559.225909
_symmetry_space_group_name_H-M "C C C A"
_symmetry_group_IT_number 68
_space_group.IT_coordinate_system_code '2'
_symmetry_cell_setting 'orthorhombic'
loop_
_space_group_symop_operation_xyz
x,y,z
-x,1/2-y,z
x,1/2-y,1/2-z
-x,y,1/2-z
-x,-y,-z
x,1/2+y,-z
-x,1/2+y,1/2+z
x,-y,1/2+z
1/2+x,1/2+y,z
1/2-x,-y,z
1/2+x,-y,1/2-z
1/2-x,1/2+y,1/2-z
1/2-x,1/2-y,-z
1/2+x,y,-z
1/2-x,y,1/2+z
1/2+x,1/2-y,1/2+z
loop_
_atom_site_type_symbol
_atom_site_label
_atom_site_fract_x
_atom_site_fract_y
_atom_site_fract_z
Si Si1 0.830840 0.940883 0.802398
Si Si2 0.774712 0.188857 0.173060
Si Si3 0.430589 0.681654 0.622315
Si Si4 0.407548 0.709349 0.417181
Si Si5 0.000000 0.452563 0.750000
O O1 0.794773 0.903423 0.707607
O O2 0.861830 0.869144 0.869435
O O3 0.750000 0.000000 0.841658
O O4 0.919306 0.993491 0.786839
O O5 0.809695 0.250000 0.250000
O O6 0.669285 0.204292 0.155756
O O7 0.833774 0.215219 0.085529
O O8 0.500000 0.750000 0.658196
O O9 0.431147 0.677300 0.515578
O O10 0.464097 0.597129 0.664543
O O11 0.500000 0.750000 0.374401
#
# Coordination Sequence:
#
# PCOD8282403 Si02
#       5
#    16  16  16  16   8
#     4  11  23  41  63  97 129 168 214 264 331 389
#     4  10  20  40  66  89 121 166 215 258 310 386
#     4  11  23  39  63  93 121 165 216 265 314 379
#     4  10  23  42  63  92 125 168 219 265 314 383
#     4  12  23  40  65  88 132 164 206 264 329 394
#
# _framework density 20.229118
#
# number of rings (size 3 to 8) (size 9 to 14) (size 15 to 20)
#    0.000    1.333    2.222    3.667    3.111    4.000 
#    4.000    0.000    0.000    0.000    0.000    0.000 
#    0.000    0.000    0.000    0.000    0.000    0.000 
#
# Total GULP energy -446177.472966 kJ/mol
# GULP energy per Si atom -12393.818694 kJ/mol
# Density = 2.018308 g / cm^3
# Si number density = 20.229118 Si / 1000 Ang^3
#
#
#
# Elastic Constant Matrix: (Units=GPa)
#
#
# Indices 1 2 3 4 5 6 
#
# 1 148.4480 41.1298 29.2728 0.0000 0.0000 0.0000
# 2 41.1298 89.2557 33.5013 0.0000 0.0000 0.0000
# 3 29.2728 33.5013 74.1965 0.0000 0.0000 0.0000
# 4 0.0000 0.0000 0.0000 -38.0462 0.0000 0.0000
# 5 0.0000 0.0000 0.0000 0.0000 33.5533 0.0000
# 6 0.0000 0.0000 0.0000 0.0000 0.0000 59.0604
#
#
#
# Elastic Compliance Matrix: (Units=1/GPa)
#
#
# Indices 1 2 3 4 5 6 
#
# 1 0.007912 -0.002979 -0.001776 0.000000 0.000000 0.000000
# 2 -0.002979 0.014612 -0.005422 0.000000 0.000000 0.000000
# 3 -0.001776 -0.005422 0.016627 0.000000 0.000000 0.000000
# 4 0.000000 0.000000 0.000000 -0.026284 0.000000 0.000000
# 5 0.000000 0.000000 0.000000 0.000000 0.029803 0.000000
# 6 0.000000 0.000000 0.000000 0.000000 0.000000 0.016932
#
#
# Mechanical properties :
#
#
# Convention : Reuss Voigt Hill
#
# Bulk Modulus (GPa) = 53.20516 57.74535 55.47526
# Shear Modulus (GPa) = 57.98949 24.77990 41.38470
#
# Velocity S-wave (km/s) = 5.35990 3.50374 4.52796
# Velocity P-wave (km/s) = 8.04134 6.70641 7.40402
#
# Compressibility (1/GPa) = 0.01879517
#
# Stress axis : x y z
#
# Youngs Moduli (GPa) = 126.38879 68.43801 60.14392
#
# Poissons Ratio (x) = 0.20389 0.10684
# Poissons Ratio (y) = 0.37654 0.32611
# Poissons Ratio (z) = 0.22452 0.37108
#
# Static dielectric constant tensor:
#      x y z
#    x 4.012320 0.000000 0.000000 
#    y 0.000000 3.737930 0.000000 
#    z 0.000000 0.000000 3.601060 
# 
# 
# High freq. dielectric constant tensor:
#      x y z
#    x 1.818660 0.000000 0.000000 
#    y 0.000000 1.793570 0.000000 
#    z 0.000000 0.000000 1.772480 
# 
# From -- ./inp_files/22019.got.cif
#   From: 2010.03.12/outbox.cif.g09.slc.cpg/sg68_12_cif.got.tgz:22019.got - 2010.04.10 23:14:56.
