data_PCOD8282015
_publ_section_title
;
Structure prediction by ZEFSAII (Michael W. Deem and Ramdas Pophale) SiO2 
 PCOD8282015
Probable space group: C C C A
;
_chemical_formula_sum "Si O2"
_cell_formula_units_Z 104
_cell_length_a 15.974318
_cell_length_b 17.573938
_cell_length_c 18.687314
_cell_angle_alpha 90.000000
_cell_angle_beta 90.000000
_cell_angle_gamma 90.000000
_cell_volume 5246.120944
_symmetry_space_group_name_H-M "C C C A"
_symmetry_group_IT_number 68
_space_group.IT_coordinate_system_code '2'
_symmetry_cell_setting 'orthorhombic'
loop_
_space_group_symop_operation_xyz
x,y,z
-x,1/2-y,z
x,1/2-y,1/2-z
-x,y,1/2-z
-x,-y,-z
x,1/2+y,-z
-x,1/2+y,1/2+z
x,-y,1/2+z
1/2+x,1/2+y,z
1/2-x,-y,z
1/2+x,-y,1/2-z
1/2-x,1/2+y,1/2-z
1/2-x,1/2-y,-z
1/2+x,y,-z
1/2-x,y,1/2+z
1/2+x,1/2-y,1/2+z
loop_
_atom_site_type_symbol
_atom_site_label
_atom_site_fract_x
_atom_site_fract_y
_atom_site_fract_z
Si Si1 0.883505 0.616007 0.188852
Si Si2 0.633455 0.951881 0.154623
Si Si3 0.166704 0.252023 0.906571
Si Si4 0.344501 0.186251 0.938639
Si Si5 0.068984 0.613773 0.149640
Si Si6 0.750000 0.000000 0.767117
Si Si7 0.500000 0.250000 0.643152
Si Si8 0.500000 0.626055 0.250000
O O1 0.838629 0.691086 0.159851
O O2 0.906510 0.634521 0.269913
O O3 0.819246 0.543821 0.184357
O O4 0.968593 0.600821 0.143345
O O5 0.649520 0.902323 0.083769
O O6 0.708965 0.940745 0.211034
O O7 0.557145 0.929517 0.205025
O O8 0.617438 0.037214 0.126019
O O9 0.259596 0.219160 0.906279
O O10 0.098886 0.183471 0.900891
O O11 0.150294 0.302943 0.976733
O O12 0.423252 0.227412 0.905380
O O13 0.540249 0.317660 0.690989
#
# Coordination Sequence:
#
# PCOD8282015 Si02
#       8
#    16  16  16  16  16   8   8   8
#     4  10  21  37  61  94 121 158 197 250 296 355
#     4  10  19  37  60  85 117 154 194 247 297 351
#     4  11  23  39  58  88 123 161 200 246 289 366
#     4  10  23  39  58  85 117 161 203 241 299 357
#     4  10  21  39  63  90 120 159 202 244 303 355
#     4  10  20  34  60  92 120 152 194 250 308 352
#     4   9  20  36  58  86 111 154 192 250 299 348
#     4   9  18  34  58  84 115 142 194 250 291 346
#
# _framework density 19.824171
#
# number of rings (size 3 to 8) (size 9 to 14) (size 15 to 20)
#    0.000    2.000    0.000    4.615    4.308    1.231 
#    2.769    4.615    0.000    0.000    0.000    0.000 
#    0.000    0.000    0.000    0.000    0.000    0.000 
#
# Total GULP energy -644389.795028 kJ/mol
# GULP energy per Si atom -12392.111443 kJ/mol
# Density = 1.977905 g / cm^3
# Si number density = 19.824171 Si / 1000 Ang^3
#
#
#
# Elastic Constant Matrix: (Units=GPa)
#
#
# Indices 1 2 3 4 5 6 
#
# 1 110.3500 59.6030 41.0484 0.0000 0.0000 0.0000
# 2 59.6030 130.7490 61.9108 0.0000 0.0000 0.0000
# 3 41.0484 61.9108 69.8652 0.0000 0.0000 0.0000
# 4 0.0000 0.0000 0.0000 36.5818 0.0000 0.0000
# 5 0.0000 0.0000 0.0000 0.0000 32.6622 0.0000
# 6 0.0000 0.0000 0.0000 0.0000 0.0000 8.8336
#
#
#
# Elastic Compliance Matrix: (Units=1/GPa)
#
#
# Indices 1 2 3 4 5 6 
#
# 1 0.012639 -0.003869 -0.003998 0.000000 0.000000 0.000000
# 2 -0.003869 0.014362 -0.010454 0.000000 0.000000 0.000000
# 3 -0.003998 -0.010454 0.025925 0.000000 0.000000 0.000000
# 4 0.000000 0.000000 0.000000 0.027336 0.000000 0.000000
# 5 0.000000 0.000000 0.000000 0.000000 0.030616 0.000000
# 6 0.000000 0.000000 0.000000 0.000000 0.000000 0.113204
#
#
# Mechanical properties :
#
#
# Convention : Reuss Voigt Hill
#
# Bulk Modulus (GPa) = 61.40147 70.67649 66.03898
# Shear Modulus (GPa) = 18.78640 25.50900 22.14770
#
# Velocity S-wave (km/s) = 3.08173 3.59104 3.34609
# Velocity P-wave (km/s) = 6.61083 7.27483 6.95076
#
# Compressibility (1/GPa) = 0.01628626
#
# Stress axis : x y z
#
# Youngs Moduli (GPa) = 79.12276 69.63014 38.57223
#
# Poissons Ratio (x) = 0.26937 0.15420
# Poissons Ratio (y) = 0.30609 0.40322
# Poissons Ratio (z) = 0.31630 0.72788
#
# Static dielectric constant tensor:
#      x y z
#    x 3.484450 0.000000 0.000000 
#    y 0.000000 3.660990 0.000000 
#    z 0.000000 0.000000 3.444660 
# 
# 
# High freq. dielectric constant tensor:
#      x y z
#    x 1.785860 0.000000 0.000000 
#    y 0.000000 1.778280 0.000000 
#    z 0.000000 0.000000 1.749580 
# 
# From -- ./inp_files/32136.got.cif
#   From: 2010.03.12/outbox.cif.g09.slc.cpg/sg68_17_cif.got.tgz:32136.got - 2010.04.10 23:14:56.
