data_PCOD8282325
_publ_section_title
;
Structure prediction by ZEFSAII (Michael W. Deem and Ramdas Pophale) SiO2 
 PCOD8282325
Probable space group: C C C A
;
_chemical_formula_sum "Si O2"
_cell_formula_units_Z 64
_cell_length_a 8.523817
_cell_length_b 23.567773
_cell_length_c 13.360035
_cell_angle_alpha 90.000000
_cell_angle_beta 90.000000
_cell_angle_gamma 90.000000
_cell_volume 2683.862483
_symmetry_space_group_name_H-M "C C C A"
_symmetry_group_IT_number 68
_space_group.IT_coordinate_system_code '2'
_symmetry_cell_setting 'orthorhombic'
loop_
_space_group_symop_operation_xyz
x,y,z
-x,1/2-y,z
x,1/2-y,1/2-z
-x,y,1/2-z
-x,-y,-z
x,1/2+y,-z
-x,1/2+y,1/2+z
x,-y,1/2+z
1/2+x,1/2+y,z
1/2-x,-y,z
1/2+x,-y,1/2-z
1/2-x,1/2+y,1/2-z
1/2-x,1/2-y,-z
1/2+x,y,-z
1/2-x,y,1/2+z
1/2+x,1/2-y,1/2+z
loop_
_atom_site_type_symbol
_atom_site_label
_atom_site_fract_x
_atom_site_fract_y
_atom_site_fract_z
Si Si1 0.250000 0.500000 0.392894
Si Si2 0.725350 0.876149 0.694667
Si Si3 0.910714 0.110025 0.908696
Si Si4 0.000000 0.549465 0.750000
Si Si5 0.138874 0.210367 0.438853
O O1 0.187626 0.555360 0.453868
O O2 0.400773 0.510595 0.323920
O O3 0.683253 0.868655 0.811112
O O4 0.587477 0.904422 0.627490
O O5 0.882164 0.913258 0.682939
O O6 0.765148 0.813314 0.655501
O O7 0.920566 0.158002 0.992786
O O8 0.250000 0.250000 0.500000
O O9 0.000000 0.250000 0.398739
#
# Coordination Sequence:
#
# PCOD8282325 Si02
#       5
#     8  16  16   8  16
#     4  10  20  38  68  98 138 170 222 280 334 408
#     4  10  23  43  68  97 136 173 229 271 338 400
#     4  10  23  45  66 100 135 178 221 279 346 392
#     4  10  20  38  67 100 131 178 218 272 330 402
#     4  12  26  46  68  97 137 177 228 280 328 402
#
# _framework density 23.846229999999998
#
# number of rings (size 3 to 8) (size 9 to 14) (size 15 to 20)
#    0.000    1.500    2.500    3.000    7.000    1.000 
#    0.000   10.000    0.000    0.000    0.000    0.000 
#    0.000    0.000    0.000    0.000    0.000    0.000 
#
# Total GULP energy -396644.997528 kJ/mol
# GULP energy per Si atom -12395.156173 kJ/mol
# Density = 2.379195 g / cm^3
# Si number density = 23.846230 Si / 1000 Ang^3
#
#
#
# Elastic Constant Matrix: (Units=GPa)
#
#
# Indices 1 2 3 4 5 6 
#
# 1 150.6063 51.1895 20.0408 0.0000 0.0000 0.0000
# 2 51.1895 133.3279 32.7126 0.0000 0.0000 0.0000
# 3 20.0408 32.7126 52.1518 0.0000 0.0000 0.0000
# 4 0.0000 0.0000 0.0000 49.6250 0.0000 0.0000
# 5 0.0000 0.0000 0.0000 0.0000 25.6667 0.0000
# 6 0.0000 0.0000 0.0000 0.0000 0.0000 62.5596
#
#
#
# Elastic Compliance Matrix: (Units=1/GPa)
#
#
# Indices 1 2 3 4 5 6 
#
# 1 0.007711 -0.002640 -0.001307 0.000000 0.000000 0.000000
# 2 -0.002640 0.009768 -0.005113 0.000000 0.000000 0.000000
# 3 -0.001307 -0.005113 0.022884 0.000000 0.000000 0.000000
# 4 0.000000 0.000000 0.000000 0.020151 0.000000 0.000000
# 5 0.000000 0.000000 0.000000 0.000000 0.038961 0.000000
# 6 0.000000 0.000000 0.000000 0.000000 0.000000 0.015985
#
#
# Mechanical properties :
#
#
# Convention : Reuss Voigt Hill
#
# Bulk Modulus (GPa) = 44.95668 60.44130 52.69899
# Shear Modulus (GPa) = 35.46229 43.04647 39.25438
#
# Velocity S-wave (km/s) = 3.86051 4.25334 4.06167
# Velocity P-wave (km/s) = 6.22616 7.03722 6.64408
#
# Compressibility (1/GPa) = 0.02224364
#
# Stress axis : x y z
#
# Youngs Moduli (GPa) = 129.68438 102.37238 43.69821
#
# Poissons Ratio (x) = 0.27024 0.05713
# Poissons Ratio (y) = 0.34234 0.22342
# Poissons Ratio (z) = 0.16954 0.52341
#
# Static dielectric constant tensor:
#      x y z
#    x 4.525040 0.000000 0.000000 
#    y 0.000000 4.295940 0.000000 
#    z 0.000000 0.000000 4.098500 
# 
# 
# High freq. dielectric constant tensor:
#      x y z
#    x 1.968560 0.000000 0.000000 
#    y 0.000000 1.947920 0.000000 
#    z 0.000000 0.000000 1.922010 
# 
# From -- ./inp_files/19299.got.cif
#   From: 2010.03.12/outbox.cif.g09.slc.cpg/sg68_10_cif.got.tgz:19299.got - 2010.04.10 23:14:56.
