data_PCOD8282538
_publ_section_title
;
Structure prediction by ZEFSAII (Michael W. Deem and Ramdas Pophale) SiO2 
 PCOD8282538
Probable space group: C C C A
;
_chemical_formula_sum "Si O2"
_cell_formula_units_Z 112
_cell_length_a 29.278188
_cell_length_b 14.111960
_cell_length_c 14.597574
_cell_angle_alpha 90.000000
_cell_angle_beta 90.000000
_cell_angle_gamma 90.000000
_cell_volume 6031.317865
_symmetry_space_group_name_H-M "C C C A"
_symmetry_group_IT_number 68
_space_group.IT_coordinate_system_code '2'
_symmetry_cell_setting 'orthorhombic'
loop_
_space_group_symop_operation_xyz
x,y,z
-x,1/2-y,z
x,1/2-y,1/2-z
-x,y,1/2-z
-x,-y,-z
x,1/2+y,-z
-x,1/2+y,1/2+z
x,-y,1/2+z
1/2+x,1/2+y,z
1/2-x,-y,z
1/2+x,-y,1/2-z
1/2-x,1/2+y,1/2-z
1/2-x,1/2-y,-z
1/2+x,y,-z
1/2-x,y,1/2+z
1/2+x,1/2-y,1/2+z
loop_
_atom_site_type_symbol
_atom_site_label
_atom_site_fract_x
_atom_site_fract_y
_atom_site_fract_z
Si Si1 0.183171 0.681033 0.165437
Si Si2 0.584745 0.911618 0.062042
Si Si3 0.896218 0.063948 0.408322
Si Si4 0.993811 0.138275 0.352853
Si Si5 0.648942 0.748592 0.024532
Si Si6 0.144080 0.485904 0.220475
Si Si7 0.287683 0.168591 0.824214
O O1 0.177823 0.750000 0.250000
O O2 0.151355 0.590363 0.181025
O O3 0.235218 0.647977 0.152731
O O4 0.166784 0.739316 0.078052
O O5 0.530412 0.907809 0.077548
O O6 0.602784 0.811036 0.024152
O O7 0.606905 0.930675 0.160631
O O8 0.598277 0.993263 0.992247
O O9 0.944163 0.111527 0.386928
O O10 0.860451 0.145549 0.433843
O O11 0.875337 0.006698 0.323102
O O12 0.000000 0.250000 0.353539
O O13 0.000000 0.098586 0.250000
O O14 0.687838 0.801957 0.081904
O O15 0.191290 0.427501 0.217398
O O16 0.294324 0.250000 0.750000
#
# Coordination Sequence:
#
# PCOD8282538 Si02
#       7
#    16  16  16  16  16  16  16
#     4  11  23  41  59  87 125 160 200 252 304 370
#     4  11  23  39  61  89 121 162 198 250 309 365
#     4  12  22  39  64  87 126 158 202 255 303 376
#     4  11  22  37  63  92 118 155 203 255 309 363
#     4  11  22  39  62  89 117 163 205 246 308 367
#     4  11  22  38  62  89 116 161 203 245 307 363
#     4  10  21  37  63  88 121 155 204 258 299 354
#
# _framework density 18.569738999999998
#
# number of rings (size 3 to 8) (size 9 to 14) (size 15 to 20)
#    0.000    1.000    5.714    2.143    0.000    0.000 
#    0.000    0.000    0.000    0.000    0.000    2.000 
#    0.000    0.000    0.000    0.000    0.000    0.000 
#
# Total GULP energy -694681.424310 kJ/mol
# GULP energy per Si atom -12405.025434 kJ/mol
# Density = 1.852747 g / cm^3
# Si number density = 18.569739 Si / 1000 Ang^3
#
#
#
# Elastic Constant Matrix: (Units=GPa)
#
#
# Indices 1 2 3 4 5 6 
#
# 1 85.4451 15.4752 38.4283 0.0000 0.0000 0.0000
# 2 15.4752 68.2241 18.1754 0.0000 0.0000 0.0000
# 3 38.4283 18.1754 92.5116 0.0000 0.0000 0.0000
# 4 0.0000 0.0000 0.0000 30.1542 0.0000 0.0000
# 5 0.0000 0.0000 0.0000 0.0000 31.4716 0.0000
# 6 0.0000 0.0000 0.0000 0.0000 0.0000 31.5261
#
#
#
# Elastic Compliance Matrix: (Units=1/GPa)
#
#
# Indices 1 2 3 4 5 6 
#
# 1 0.014596 -0.001789 -0.005712 0.000000 0.000000 0.000000
# 2 -0.001789 0.015686 -0.002339 0.000000 0.000000 0.000000
# 3 -0.005712 -0.002339 0.013641 0.000000 0.000000 0.000000
# 4 0.000000 0.000000 0.000000 0.033163 0.000000 0.000000
# 5 0.000000 0.000000 0.000000 0.000000 0.031775 0.000000
# 6 0.000000 0.000000 0.000000 0.000000 0.000000 0.031720
#
#
# Mechanical properties :
#
#
# Convention : Reuss Voigt Hill
#
# Bulk Modulus (GPa) = 41.24523 43.37094 42.30808
# Shear Modulus (GPa) = 29.70143 30.23717 29.96930
#
# Velocity S-wave (km/s) = 4.00366 4.03960 4.02167
# Velocity P-wave (km/s) = 6.60542 6.72044 6.66318
#
# Compressibility (1/GPa) = 0.02424523
#
# Stress axis : x y z
#
# Youngs Moduli (GPa) = 68.51097 63.74925 73.30606
#
# Poissons Ratio (x) = 0.11406 0.41869
# Poissons Ratio (y) = 0.12258 0.17144
# Poissons Ratio (z) = 0.39131 0.14909
#
# Static dielectric constant tensor:
#      x y z
#    x 3.486140 0.000000 0.000000 
#    y 0.000000 3.402110 0.000000 
#    z 0.000000 0.000000 3.449740 
# 
# 
# High freq. dielectric constant tensor:
#      x y z
#    x 1.725220 0.000000 0.000000 
#    y 0.000000 1.721950 0.000000 
#    z 0.000000 0.000000 1.727980 
# 
# From -- ./inp_files/13581.got.cif
#   From: 2010.03.12/outbox.cif.g09.slc.cpg/sg68_7_cif.got.tgz:13581.got - 2010.04.10 23:14:56.
