data_PCOD8282977
_publ_section_title
;
Structure prediction by ZEFSAII (Michael W. Deem and Ramdas Pophale) SiO2 
 PCOD8282977
Probable space group: C C C A
;
_chemical_formula_sum "Si O2"
_cell_formula_units_Z 64
_cell_length_a 29.240204
_cell_length_b 12.013485
_cell_length_c 8.397899
_cell_angle_alpha 90.000000
_cell_angle_beta 90.000000
_cell_angle_gamma 90.000000
_cell_volume 2949.986686
_symmetry_space_group_name_H-M "C C C A"
_symmetry_group_IT_number 68
_space_group.IT_coordinate_system_code '2'
_symmetry_cell_setting 'orthorhombic'
loop_
_space_group_symop_operation_xyz
x,y,z
-x,1/2-y,z
x,1/2-y,1/2-z
-x,y,1/2-z
-x,-y,-z
x,1/2+y,-z
-x,1/2+y,1/2+z
x,-y,1/2+z
1/2+x,1/2+y,z
1/2-x,-y,z
1/2+x,-y,1/2-z
1/2-x,1/2+y,1/2-z
1/2-x,1/2-y,-z
1/2+x,y,-z
1/2-x,y,1/2+z
1/2+x,1/2-y,1/2+z
loop_
_atom_site_type_symbol
_atom_site_label
_atom_site_fract_x
_atom_site_fract_y
_atom_site_fract_z
Si Si1 0.886136 0.250000 0.250000
Si Si2 0.308050 0.589170 0.158867
Si Si3 0.212795 0.632154 0.296987
Si Si4 0.000000 0.539643 0.250000
Si Si5 0.963340 0.155114 0.453951
O O1 0.855762 0.146308 0.197226
O O2 0.915300 0.210566 0.404078
O O3 0.267561 0.633547 0.271926
O O4 0.313341 0.457406 0.187929
O O5 0.294287 0.608357 0.979659
O O6 0.191177 0.750000 0.250000
O O7 0.031795 0.459603 0.355442
O O8 0.968117 0.619808 0.360193
O O9 0.000000 0.250000 0.409734
#
# Coordination Sequence:
#
# PCOD8282977 Si02
#       5
#     8  16  16   8  16
#     4  12  25  42  70 106 152 172 248 304 349 402
#     4  11  25  41  72 100 140 193 241 301 348 426
#     4  11  23  45  69  95 139 196 243 279 367 419
#     4  10  22  42  80  94 130 192 228 258 368 446
#     4  11  22  47  70 103 138 185 219 291 356 430
#
# _framework density 21.695014
#
# number of rings (size 3 to 8) (size 9 to 14) (size 15 to 20)
#    0.000    1.000    3.750    4.125    3.500    2.000 
#    0.000    0.000    0.000    0.000    0.000    0.000 
#    0.000    0.000    0.000    0.000    0.000    0.000 
#
# Total GULP energy -396753.350499 kJ/mol
# GULP energy per Si atom -12398.542203 kJ/mol
# Density = 2.164563 g / cm^3
# Si number density = 21.695014 Si / 1000 Ang^3
#
#
#
# Elastic Constant Matrix: (Units=GPa)
#
#
# Indices 1 2 3 4 5 6 
#
# 1 129.8793 75.4407 72.7845 0.0000 0.0000 0.0000
# 2 75.4407 185.4150 77.7988 0.0000 0.0000 0.0000
# 3 72.7845 77.7988 167.8282 0.0000 0.0000 0.0000
# 4 0.0000 0.0000 0.0000 7.6072 0.0000 0.0000
# 5 0.0000 0.0000 0.0000 0.0000 46.1586 0.0000
# 6 0.0000 0.0000 0.0000 0.0000 0.0000 41.6538
#
#
#
# Elastic Compliance Matrix: (Units=1/GPa)
#
#
# Indices 1 2 3 4 5 6 
#
# 1 0.011538 -0.003222 -0.003510 0.000000 0.000000 0.000000
# 2 -0.003222 0.007595 -0.002124 0.000000 0.000000 0.000000
# 3 -0.003510 -0.002124 0.008465 0.000000 0.000000 0.000000
# 4 0.000000 0.000000 0.000000 0.131455 0.000000 0.000000
# 5 0.000000 0.000000 0.000000 0.000000 0.021664 0.000000
# 6 0.000000 0.000000 0.000000 0.000000 0.000000 0.024007
#
#
# Mechanical properties :
#
#
# Convention : Reuss Voigt Hill
#
# Bulk Modulus (GPa) = 101.14180 103.90782 102.52481
# Shear Modulus (GPa) = 22.15012 36.22381 29.18696
#
# Velocity S-wave (km/s) = 3.19874 4.09061 3.67185
# Velocity P-wave (km/s) = 7.76940 8.38508 8.08311
#
# Compressibility (1/GPa) = 0.00988711
#
# Stress axis : x y z
#
# Youngs Moduli (GPa) = 86.67040 131.66282 118.12838
#
# Poissons Ratio (x) = 0.42416 0.41468
# Poissons Ratio (y) = 0.27921 0.25087
# Poissons Ratio (z) = 0.30425 0.27961
#
# Static dielectric constant tensor:
#      x y z
#    x 3.731520 0.000000 0.000000 
#    y 0.000000 4.355830 0.000000 
#    z 0.000000 0.000000 4.057720 
# 
# 
# High freq. dielectric constant tensor:
#      x y z
#    x 1.816700 0.000000 0.000000 
#    y 0.000000 1.879940 0.000000 
#    z 0.000000 0.000000 1.862850 
# 
# From -- ./inp_files/9378.got.cif
#   From: 2010.03.12/outbox.cif.g09.slc.cpg/sg68_5_cif.got.tgz:9378.got - 2010.04.10 23:14:56.
