data_PCOD8282990
_publ_section_title
;
Structure prediction by ZEFSAII (Michael W. Deem and Ramdas Pophale) SiO2 
 PCOD8282990
Probable space group: C C C A
;
_chemical_formula_sum "Si O2"
_cell_formula_units_Z 72
_cell_length_a 19.510275
_cell_length_b 13.595738
_cell_length_c 11.615812
_cell_angle_alpha 90.000000
_cell_angle_beta 90.000000
_cell_angle_gamma 90.000000
_cell_volume 3081.170649
_symmetry_space_group_name_H-M "C C C A"
_symmetry_group_IT_number 68
_space_group.IT_coordinate_system_code '2'
_symmetry_cell_setting 'orthorhombic'
loop_
_space_group_symop_operation_xyz
x,y,z
-x,1/2-y,z
x,1/2-y,1/2-z
-x,y,1/2-z
-x,-y,-z
x,1/2+y,-z
-x,1/2+y,1/2+z
x,-y,1/2+z
1/2+x,1/2+y,z
1/2-x,-y,z
1/2+x,-y,1/2-z
1/2-x,1/2+y,1/2-z
1/2-x,1/2-y,-z
1/2+x,y,-z
1/2-x,y,1/2+z
1/2+x,1/2-y,1/2+z
loop_
_atom_site_type_symbol
_atom_site_label
_atom_site_fract_x
_atom_site_fract_y
_atom_site_fract_z
Si Si1 0.106978 0.608109 0.477289
Si Si2 0.291771 0.597371 0.193706
Si Si3 0.114084 0.109568 0.091437
Si Si4 0.500000 0.750000 0.429570
Si Si5 0.692127 0.228842 0.089700
O O1 0.149342 0.607790 0.597183
O O2 0.087485 0.501272 0.429145
O O3 0.036704 0.667396 0.492826
O O4 0.151768 0.669274 0.382223
O O5 0.250000 0.500000 0.168427
O O6 0.323916 0.604252 0.319349
O O7 0.232411 0.681098 0.196506
O O8 0.055118 0.183680 0.142485
O O9 0.138834 0.152087 0.969193
O O10 0.750000 0.250000 0.000000
#
# Coordination Sequence:
#
# PCOD8282990 Si02
#       5
#    16  16  16   8  16
#     4  10  22  43  68  95 132 177 222 276 329 392
#     4  11  23  38  64  98 139 170 210 273 340 407
#     4  11  23  42  66  97 133 180 217 279 329 390
#     4  10  24  45  70  93 130 176 240 269 322 397
#     4   9  21  38  59  96 137 165 214 265 335 399
#
# _framework density 23.367740999999999
#
# number of rings (size 3 to 8) (size 9 to 14) (size 15 to 20)
#    0.000    1.778    2.222    0.667    6.222    9.778 
#    0.000    0.000    0.000    1.333    0.000    0.000 
#    0.000    0.000    0.000    0.000    0.000    0.000 
#
# Total GULP energy -445976.866503 kJ/mol
# GULP energy per Si atom -12388.246292 kJ/mol
# Density = 2.331456 g / cm^3
# Si number density = 23.367741 Si / 1000 Ang^3
#
#
#
# Elastic Constant Matrix: (Units=GPa)
#
#
# Indices 1 2 3 4 5 6 
#
# 1 107.2661 62.3620 16.0712 0.0000 0.0000 0.0000
# 2 62.3620 194.7107 25.4989 0.0000 0.0000 0.0000
# 3 16.0712 25.4989 52.6563 0.0000 0.0000 0.0000
# 4 0.0000 0.0000 0.0000 25.0774 0.0000 0.0000
# 5 0.0000 0.0000 0.0000 0.0000 22.4767 0.0000
# 6 0.0000 0.0000 0.0000 0.0000 0.0000 41.3711
#
#
#
# Elastic Compliance Matrix: (Units=1/GPa)
#
#
# Indices 1 2 3 4 5 6 
#
# 1 0.011624 -0.003479 -0.001863 0.000000 0.000000 0.000000
# 2 -0.003479 0.006525 -0.002098 0.000000 0.000000 0.000000
# 3 -0.001863 -0.002098 0.020576 0.000000 0.000000 0.000000
# 4 0.000000 0.000000 0.000000 0.039877 0.000000 0.000000
# 5 0.000000 0.000000 0.000000 0.000000 0.044491 0.000000
# 6 0.000000 0.000000 0.000000 0.000000 0.000000 0.024171
#
#
# Mechanical properties :
#
#
# Convention : Reuss Voigt Hill
#
# Bulk Modulus (GPa) = 41.93790 62.49970 52.21880
# Shear Modulus (GPa) = 29.39590 34.49843 31.94717
#
# Velocity S-wave (km/s) = 3.55063 3.84647 3.70151
# Velocity P-wave (km/s) = 5.89875 6.82139 6.37677
#
# Compressibility (1/GPa) = 0.02384478
#
# Stress axis : x y z
#
# Youngs Moduli (GPa) = 86.02592 153.26070 48.60131
#
# Poissons Ratio (x) = 0.53321 0.09055
# Poissons Ratio (y) = 0.29929 0.10196
# Poissons Ratio (z) = 0.16028 0.32151
#
# Static dielectric constant tensor:
#      x y z
#    x 3.802070 0.000000 0.000000 
#    y 0.000000 4.277510 0.000000 
#    z 0.000000 0.000000 4.206900 
# 
# 
# High freq. dielectric constant tensor:
#      x y z
#    x 1.933090 0.000000 0.000000 
#    y 0.000000 1.957840 0.000000 
#    z 0.000000 0.000000 1.882740 
# 
# From -- ./inp_files/23374.got.cif
#   From: 2010.03.12/outbox.cif.g09.slc.cpg/sg68_12_cif.got.tgz:23374.got - 2010.04.10 23:14:56.
