data_PCOD8282314
_publ_section_title
;
Structure prediction by ZEFSAII (Michael W. Deem and Ramdas Pophale) SiO2 
 PCOD8282314
Probable space group: C C C A
;
_chemical_formula_sum "Si O2"
_cell_formula_units_Z 56
_cell_length_a 17.078334
_cell_length_b 9.149633
_cell_length_c 15.421429
_cell_angle_alpha 90.000000
_cell_angle_beta 90.000000
_cell_angle_gamma 90.000000
_cell_volume 2409.760027
_symmetry_space_group_name_H-M "C C C A"
_symmetry_group_IT_number 68
_space_group.IT_coordinate_system_code '2'
_symmetry_cell_setting 'orthorhombic'
loop_
_space_group_symop_operation_xyz
x,y,z
-x,1/2-y,z
x,1/2-y,1/2-z
-x,y,1/2-z
-x,-y,-z
x,1/2+y,-z
-x,1/2+y,1/2+z
x,-y,1/2+z
1/2+x,1/2+y,z
1/2-x,-y,z
1/2+x,-y,1/2-z
1/2-x,1/2+y,1/2-z
1/2-x,1/2-y,-z
1/2+x,y,-z
1/2-x,y,1/2+z
1/2+x,1/2-y,1/2+z
loop_
_atom_site_type_symbol
_atom_site_label
_atom_site_fract_x
_atom_site_fract_y
_atom_site_fract_z
Si Si1 0.377938 0.850255 0.833029
Si Si2 0.750000 0.000000 0.058533
Si Si3 0.895838 0.395127 0.540578
Si Si4 0.006115 0.090028 0.369278
O O1 0.361537 0.750000 0.750000
O O2 0.295961 0.900399 0.873004
O O3 0.413962 0.755752 0.910772
O O4 0.439770 0.981153 0.809903
O O5 0.806747 0.087953 0.992767
O O6 0.950101 0.390382 0.458615
O O7 0.920294 0.524491 0.608162
O O8 0.000000 0.250000 0.323946
#
# Coordination Sequence:
#
# PCOD8282314 Si02
#       4
#    16   8  16  16
#     4  11  24  41  63  95 135 169 206 266 331 379
#     4  10  22  40  66  92 122 174 226 258 308 384
#     4  10  20  38  66  95 128 169 215 260 309 380
#     4  10  20  38  65  94 125 168 219 262 308 381
#
# _framework density 23.238828999999999
#
# number of rings (size 3 to 8) (size 9 to 14) (size 15 to 20)
#    0.000    1.714    0.000    6.857    0.000    5.714 
#    0.000    2.857    0.000    0.000    0.000    0.000 
#    0.000    0.000    0.000    0.000    0.000    0.000 
#
# Total GULP energy -346922.409797 kJ/mol
# GULP energy per Si atom -12390.086064 kJ/mol
# Density = 2.318594 g / cm^3
# Si number density = 23.238829 Si / 1000 Ang^3
#
#
#
# Elastic Constant Matrix: (Units=GPa)
#
#
# Indices 1 2 3 4 5 6 
#
# 1 131.5857 54.8825 28.9035 0.0000 0.0000 0.0000
# 2 54.8825 160.2844 33.5913 0.0000 0.0000 0.0000
# 3 28.9035 33.5913 92.4995 0.0000 0.0000 0.0000
# 4 0.0000 0.0000 0.0000 38.0182 0.0000 0.0000
# 5 0.0000 0.0000 0.0000 0.0000 -5.6696 0.0000
# 6 0.0000 0.0000 0.0000 0.0000 0.0000 39.0884
#
#
#
# Elastic Compliance Matrix: (Units=1/GPa)
#
#
# Indices 1 2 3 4 5 6 
#
# 1 0.009153 -0.002744 -0.001864 0.000000 0.000000 0.000000
# 2 -0.002744 0.007575 -0.001894 0.000000 0.000000 0.000000
# 3 -0.001864 -0.001894 0.012081 0.000000 0.000000 0.000000
# 4 0.000000 0.000000 0.000000 0.026303 0.000000 0.000000
# 5 0.000000 0.000000 0.000000 0.000000 -0.176380 0.000000
# 6 0.000000 0.000000 0.000000 0.000000 0.000000 0.025583
#
#
# Mechanical properties :
#
#
# Convention : Reuss Voigt Hill
#
# Bulk Modulus (GPa) = 63.26161 68.79156 66.02658
# Shear Modulus (GPa) = -64.58831 32.08691 -16.25070
#
# Velocity S-wave (km/s) = -5.27765 3.71987 -2.64728
# Velocity P-wave (km/s) = 3.13953 6.93658 4.37376
#
# Compressibility (1/GPa) = 0.01580738
#
# Stress axis : x y z
#
# Youngs Moduli (GPa) = 109.25020 132.01015 82.77495
#
# Poissons Ratio (x) = 0.36218 0.15428
# Poissons Ratio (y) = 0.29973 0.15675
# Poissons Ratio (z) = 0.20362 0.24998
#
# Static dielectric constant tensor:
#      x y z
#    x 5.235440 0.000000 0.000000 
#    y 0.000000 5.121500 0.000000 
#    z 0.000000 0.000000 4.045100 
# 
# 
# High freq. dielectric constant tensor:
#      x y z
#    x 1.913400 0.000000 0.000000 
#    y 0.000000 1.929480 0.000000 
#    z 0.000000 0.000000 1.920800 
# 
# From -- ./inp_files/27678.got.cif
#   From: 2010.03.12/outbox.cif.g09.slc.cpg/sg68_14_cif.got.tgz:27678.got - 2010.04.10 23:14:56.
