data_PCOD8282155
_publ_section_title
;
Structure prediction by ZEFSAII (Michael W. Deem and Ramdas Pophale) SiO2 
 PCOD8282155
Probable space group: C C C A
;
_chemical_formula_sum "Si O2"
_cell_formula_units_Z 80
_cell_length_a 17.610636
_cell_length_b 14.105034
_cell_length_c 16.337025
_cell_angle_alpha 90.000000
_cell_angle_beta 90.000000
_cell_angle_gamma 90.000000
_cell_volume 4058.094457
_symmetry_space_group_name_H-M "C C C A"
_symmetry_group_IT_number 68
_space_group.IT_coordinate_system_code '2'
_symmetry_cell_setting 'orthorhombic'
loop_
_space_group_symop_operation_xyz
x,y,z
-x,1/2-y,z
x,1/2-y,1/2-z
-x,y,1/2-z
-x,-y,-z
x,1/2+y,-z
-x,1/2+y,1/2+z
x,-y,1/2+z
1/2+x,1/2+y,z
1/2-x,-y,z
1/2+x,-y,1/2-z
1/2-x,1/2+y,1/2-z
1/2-x,1/2-y,-z
1/2+x,y,-z
1/2-x,y,1/2+z
1/2+x,1/2-y,1/2+z
loop_
_atom_site_type_symbol
_atom_site_label
_atom_site_fract_x
_atom_site_fract_y
_atom_site_fract_z
Si Si1 0.102175 0.330360 0.688184
Si Si2 0.536728 0.648046 0.462688
Si Si3 0.680837 0.567954 0.680607
Si Si4 0.822550 0.713876 0.046811
Si Si5 0.513912 0.969054 0.877318
O O1 0.070038 0.250000 0.750000
O O2 0.174252 0.376655 0.733573
O O3 0.127984 0.290927 0.599023
O O4 0.038095 0.411464 0.685618
O O5 0.500000 0.750000 0.444917
O O6 0.625873 0.666413 0.476444
O O7 0.504541 0.596053 0.542562
O O8 0.520115 0.575275 0.388200
O O9 0.750000 0.500000 0.695399
O O10 0.708620 0.636822 0.609269
O O11 0.600515 0.520784 0.653827
O O12 0.750000 0.750000 0.000000
#
# Coordination Sequence:
#
# PCOD8282155 Si02
#       5
#    16  16  16  16  16
#     4  10  21  40  63  87 115 160 215 252 300 370
#     4  10  20  35  58  91 122 153 197 255 301 365
#     4  10  23  37  56  86 123 156 197 258 304 367
#     4  10  22  36  61  90 119 158 195 257 314 355
#     4  10  21  36  62  88 118 159 204 252 304 358
#
# _framework density 19.713685999999999
#
# number of rings (size 3 to 8) (size 9 to 14) (size 15 to 20)
#    0.000    2.000    2.000    0.600    2.800    7.200 
#    0.000    0.000    0.000    1.200    0.000    0.000 
#    0.000    0.000    0.000    0.000    0.000    0.000 
#
# Total GULP energy -495613.583459 kJ/mol
# GULP energy per Si atom -12390.339586 kJ/mol
# Density = 1.966882 g / cm^3
# Si number density = 19.713686 Si / 1000 Ang^3
#
#
#
# Elastic Constant Matrix: (Units=GPa)
#
#
# Indices 1 2 3 4 5 6 
#
# 1 116.0262 71.9641 45.0606 0.0000 0.0000 0.0000
# 2 71.9641 150.7548 41.7491 0.0000 0.0000 0.0000
# 3 45.0606 41.7491 65.2244 0.0000 0.0000 0.0000
# 4 0.0000 0.0000 0.0000 22.4797 0.0000 0.0000
# 5 0.0000 0.0000 0.0000 0.0000 -3.4815 0.0000
# 6 0.0000 0.0000 0.0000 0.0000 0.0000 44.1320
#
#
#
# Elastic Compliance Matrix: (Units=1/GPa)
#
#
# Indices 1 2 3 4 5 6 
#
# 1 0.014305 -0.004973 -0.006699 0.000000 0.000000 0.000000
# 2 -0.004973 0.009792 -0.002831 0.000000 0.000000 0.000000
# 3 -0.006699 -0.002831 0.021772 0.000000 0.000000 0.000000
# 4 0.000000 0.000000 0.000000 0.044485 0.000000 0.000000
# 5 0.000000 0.000000 0.000000 0.000000 -0.287229 0.000000
# 6 0.000000 0.000000 0.000000 0.000000 0.000000 0.022659
#
#
# Mechanical properties :
#
#
# Convention : Reuss Voigt Hill
#
# Bulk Modulus (GPa) = 59.31024 72.17254 65.74139
# Shear Modulus (GPa) = -35.81994 24.17480 -5.82257
#
# Velocity S-wave (km/s) = -4.26726 3.50565 -1.72046
# Velocity P-wave (km/s) = 2.42317 7.28532 5.42898
#
# Compressibility (1/GPa) = 0.01686050
#
# Stress axis : x y z
#
# Youngs Moduli (GPa) = 69.90400 102.12890 45.92966
#
# Poissons Ratio (x) = 0.50793 0.30770
# Poissons Ratio (y) = 0.34767 0.13005
# Poissons Ratio (z) = 0.46832 0.28918
#
# Static dielectric constant tensor:
#      x y z
#    x 3.412640 0.000000 0.000000 
#    y 0.000000 3.688700 0.000000 
#    z 0.000000 0.000000 3.593230 
# 
# 
# High freq. dielectric constant tensor:
#      x y z
#    x 1.762750 0.000000 0.000000 
#    y 0.000000 1.768020 0.000000 
#    z 0.000000 0.000000 1.759000 
# 
# From -- ./inp_files/31757.got.cif
#   From: 2010.03.12/outbox.cif.g09.slc.cpg/sg68_16_cif.got.tgz:31757.got - 2010.04.10 23:14:56.
