data_PCOD8282027
_publ_section_title
;
Structure prediction by ZEFSAII (Michael W. Deem and Ramdas Pophale) SiO2 
 PCOD8282027
Probable space group: C C C A
;
_chemical_formula_sum "Si O2"
_cell_formula_units_Z 112
_cell_length_a 11.231194
_cell_length_b 15.419701
_cell_length_c 32.728895
_cell_angle_alpha 90.000000
_cell_angle_beta 90.000000
_cell_angle_gamma 90.000000
_cell_volume 5668.044149
_symmetry_space_group_name_H-M "C C C A"
_symmetry_group_IT_number 68
_space_group.IT_coordinate_system_code '2'
_symmetry_cell_setting 'orthorhombic'
loop_
_space_group_symop_operation_xyz
x,y,z
-x,1/2-y,z
x,1/2-y,1/2-z
-x,y,1/2-z
-x,-y,-z
x,1/2+y,-z
-x,1/2+y,1/2+z
x,-y,1/2+z
1/2+x,1/2+y,z
1/2-x,-y,z
1/2+x,-y,1/2-z
1/2-x,1/2+y,1/2-z
1/2-x,1/2-y,-z
1/2+x,y,-z
1/2-x,y,1/2+z
1/2+x,1/2-y,1/2+z
loop_
_atom_site_type_symbol
_atom_site_label
_atom_site_fract_x
_atom_site_fract_y
_atom_site_fract_z
Si Si1 0.143256 0.060462 0.061573
Si Si2 0.335406 0.922484 0.345317
Si Si3 0.125635 0.801789 0.492276
Si Si4 0.140070 0.757182 0.796427
Si Si5 0.329469 0.168209 0.401164
Si Si6 0.765258 0.653512 0.134074
Si Si7 0.978915 0.039861 0.876190
O O1 0.104412 0.122884 0.025203
O O2 0.170294 0.117889 0.101765
O O3 0.250000 0.000000 0.045782
O O4 0.040778 0.994362 0.077091
O O5 0.323861 0.853201 0.309585
O O6 0.296260 0.876187 0.388246
O O7 0.250000 0.000000 0.332700
O O8 0.469120 0.959731 0.349778
O O9 0.250000 0.750000 0.500000
O O10 0.145050 0.845147 0.448611
O O11 0.000000 0.750000 0.492683
O O12 0.183652 0.750000 0.750000
O O13 0.203370 0.684240 0.824168
O O14 0.000000 0.750000 0.801333
O O15 0.334671 0.268715 0.388665
O O16 0.429877 0.118937 0.375699
O O17 0.857053 0.575310 0.144010
#
# Coordination Sequence:
#
# PCOD8282027 Si02
#       7
#    16  16  16  16  16  16  16
#     4  10  23  37  56  84 119 151 206 255 306 353
#     4   9  20  38  61  87 117 152 199 245 301 356
#     4  12  26  41  60  87 125 168 214 260 314 368
#     4  10  21  38  61  88 118 154 193 236 297 371
#     4  10  21  38  60  81 118 161 204 245 305 361
#     4  10  19  38  61  82 116 154 198 243 297 366
#     4  10  20  35  60  89 111 155 197 255 299 357
#
# _framework density 19.759903999999999
#
# number of rings (size 3 to 8) (size 9 to 14) (size 15 to 20)
#    0.000    1.857    1.429    2.143    4.000    2.857 
#    0.000    5.000    0.000   14.571    0.000    0.000 
#    0.000    0.000    0.000    0.000    0.000    0.000 
#
# Total GULP energy -694023.659825 kJ/mol
# GULP energy per Si atom -12393.279640 kJ/mol
# Density = 1.971493 g / cm^3
# Si number density = 19.759904 Si / 1000 Ang^3
#
#
#
# Elastic Constant Matrix: (Units=GPa)
#
#
# Indices 1 2 3 4 5 6 
#
# 1 88.3808 44.7137 46.0587 0.0000 0.0000 0.0000
# 2 44.7137 108.4490 55.0969 0.0000 0.0000 0.0000
# 3 46.0587 55.0969 138.6149 0.0000 0.0000 0.0000
# 4 0.0000 0.0000 0.0000 23.1058 0.0000 0.0000
# 5 0.0000 0.0000 0.0000 0.0000 20.1477 0.0000
# 6 0.0000 0.0000 0.0000 0.0000 0.0000 25.6320
#
#
#
# Elastic Compliance Matrix: (Units=1/GPa)
#
#
# Indices 1 2 3 4 5 6 
#
# 1 0.015380 -0.004692 -0.003245 0.000000 0.000000 0.000000
# 2 -0.004692 0.012986 -0.003602 0.000000 0.000000 0.000000
# 3 -0.003245 -0.003602 0.009724 0.000000 0.000000 0.000000
# 4 0.000000 0.000000 0.000000 0.043279 0.000000 0.000000
# 5 0.000000 0.000000 0.000000 0.000000 0.049633 0.000000
# 6 0.000000 0.000000 0.000000 0.000000 0.000000 0.039014
#
#
# Mechanical properties :
#
#
# Convention : Reuss Voigt Hill
#
# Bulk Modulus (GPa) = 66.62246 69.68703 68.15475
# Shear Modulus (GPa) = 25.23977 26.41546 25.82762
#
# Velocity S-wave (km/s) = 3.57784 3.66022 3.61927
# Velocity P-wave (km/s) = 7.13142 7.29427 7.21331
#
# Compressibility (1/GPa) = 0.01500995
#
# Stress axis : x y z
#
# Youngs Moduli (GPa) = 65.01988 77.00714 102.83354
#
# Poissons Ratio (x) = 0.36135 0.33372
# Poissons Ratio (y) = 0.30510 0.37045
# Poissons Ratio (z) = 0.21101 0.27741
#
# Static dielectric constant tensor:
#      x y z
#    x 3.757630 0.000000 0.000000 
#    y 0.000000 3.869270 0.000000 
#    z 0.000000 0.000000 3.359050 
# 
# 
# High freq. dielectric constant tensor:
#      x y z
#    x 1.775780 0.000000 0.000000 
#    y 0.000000 1.791400 0.000000 
#    z 0.000000 0.000000 1.738940 
# 
# From -- ./inp_files/54806.got.cif
#   From: 2010.03.12/outbox.cif.g09.slc.cpg/sg68_28_cif.got.tgz:54806.got - 2010.04.10 23:14:56.
