data_PCOD8282260
_publ_section_title
;
Structure prediction by ZEFSAII (Michael W. Deem and Ramdas Pophale) SiO2 
 PCOD8282260
Probable space group: C C C A
;
_chemical_formula_sum "Si O2"
_cell_formula_units_Z 116
_cell_length_a 22.425161
_cell_length_b 9.620286
_cell_length_c 27.547245
_cell_angle_alpha 90.000000
_cell_angle_beta 90.000000
_cell_angle_gamma 90.000000
_cell_volume 5942.945186
_symmetry_space_group_name_H-M "C C C A"
_symmetry_group_IT_number 68
_space_group.IT_coordinate_system_code '2'
_symmetry_cell_setting 'orthorhombic'
loop_
_space_group_symop_operation_xyz
x,y,z
-x,1/2-y,z
x,1/2-y,1/2-z
-x,y,1/2-z
-x,-y,-z
x,1/2+y,-z
-x,1/2+y,1/2+z
x,-y,1/2+z
1/2+x,1/2+y,z
1/2-x,-y,z
1/2+x,-y,1/2-z
1/2-x,1/2+y,1/2-z
1/2-x,1/2-y,-z
1/2+x,y,-z
1/2-x,y,1/2+z
1/2+x,1/2-y,1/2+z
loop_
_atom_site_type_symbol
_atom_site_label
_atom_site_fract_x
_atom_site_fract_y
_atom_site_fract_z
Si Si1 0.500000 0.250000 0.750000
Si Si2 0.659696 0.794257 0.107173
Si Si3 0.562425 0.940087 0.173200
Si Si4 0.703426 0.262161 0.390083
Si Si5 0.115480 0.228384 0.804305
Si Si6 0.965425 0.612419 0.128005
Si Si7 0.858472 0.504613 0.072853
Si Si8 0.681028 0.988093 0.532430
O O1 0.457469 0.158816 0.783626
O O2 0.617650 0.868972 0.145963
O O3 0.729110 0.804916 0.121515
O O4 0.642167 0.634028 0.104852
O O5 0.654515 0.870428 0.055189
O O6 0.580484 0.084759 0.196671
O O7 0.507705 0.978132 0.136801
O O8 0.672396 0.279855 0.338606
O O9 0.696205 0.106262 0.411540
O O10 0.672236 0.363756 0.429235
O O11 0.138588 0.250000 0.750000
O O12 0.071668 0.351555 0.822800
O O13 0.920983 0.579315 0.083787
O O14 0.000000 0.750000 0.110682
O O15 0.855317 0.461175 0.016666
O O16 0.750000 0.000000 0.518003
#
# Coordination Sequence:
#
# PCOD8282260 Si02
#       8
#     4  16  16  16  16  16  16  16
#     4  12  24  36  58  84 112 152 208 254 294 352
#     4  11  22  37  62  89 128 159 189 257 313 350
#     4  11  22  40  60  84 121 157 202 255 307 357
#     4  10  21  39  61  90 127 162 199 246 305 375
#     4  10  20  38  66  88 113 159 208 247 305 370
#     4   9  21  40  63  86 118 159 205 260 298 360
#     4  11  21  36  63  93 122 156 212 248 297 362
#     4  10  20  37  62  90 122 167 202 241 302 374
#
# _framework density 19.518941999999999
#
# number of rings (size 3 to 8) (size 9 to 14) (size 15 to 20)
#    0.000    1.655    1.379    3.724    0.000    5.241 
#    1.241    0.690    4.552    0.000    0.000    0.000 
#    0.000    0.000    0.000    0.000    0.000    0.000 
#
# Total GULP energy -719204.083224 kJ/mol
# GULP energy per Si atom -12400.070400 kJ/mol
# Density = 1.947452 g / cm^3
# Si number density = 19.518942 Si / 1000 Ang^3
#
#
#
# Elastic Constant Matrix: (Units=GPa)
#
#
# Indices 1 2 3 4 5 6 
#
# 1 110.0386 40.1916 67.8438 0.0000 0.0000 0.0000
# 2 40.1916 97.7944 39.2823 0.0000 0.0000 0.0000
# 3 67.8438 39.2823 135.6110 0.0000 0.0000 0.0000
# 4 0.0000 0.0000 0.0000 23.5572 0.0000 0.0000
# 5 0.0000 0.0000 0.0000 0.0000 27.2279 0.0000
# 6 0.0000 0.0000 0.0000 0.0000 0.0000 34.6946
#
#
#
# Elastic Compliance Matrix: (Units=1/GPa)
#
#
# Indices 1 2 3 4 5 6 
#
# 1 0.014042 -0.003337 -0.006058 0.000000 0.000000 0.000000
# 2 -0.003337 0.012365 -0.001912 0.000000 0.000000 0.000000
# 3 -0.006058 -0.001912 0.010959 0.000000 0.000000 0.000000
# 4 0.000000 0.000000 0.000000 0.042450 0.000000 0.000000
# 5 0.000000 0.000000 0.000000 0.000000 0.036727 0.000000
# 6 0.000000 0.000000 0.000000 0.000000 0.000000 0.028823
#
#
# Mechanical properties :
#
#
# Convention : Reuss Voigt Hill
#
# Bulk Modulus (GPa) = 67.79530 70.89772 69.34651
# Shear Modulus (GPa) = 28.91879 30.17102 29.54491
#
# Velocity S-wave (km/s) = 3.85330 3.93584 3.89479
# Velocity P-wave (km/s) = 7.38957 7.55353 7.47200
#
# Compressibility (1/GPa) = 0.01475029
#
# Stress axis : x y z
#
# Youngs Moduli (GPa) = 71.21564 80.87173 91.25165
#
# Poissons Ratio (x) = 0.26991 0.55281
# Poissons Ratio (y) = 0.23768 0.17449
# Poissons Ratio (z) = 0.43143 0.15464
#
# Static dielectric constant tensor:
#      x y z
#    x 3.560430 0.000000 0.000000 
#    y 0.000000 3.841190 0.000000 
#    z 0.000000 0.000000 3.354450 
# 
# 
# High freq. dielectric constant tensor:
#      x y z
#    x 1.756360 0.000000 0.000000 
#    y 0.000000 1.777120 0.000000 
#    z 0.000000 0.000000 1.745740 
# 
# From -- ./inp_files/49629.got.cif
#   From: 2010.03.12/outbox.cif.g09.slc.cpg/sg68_25_cif.got.tgz:49629.got - 2010.04.10 23:14:56.
