data_PCOD8282386
_publ_section_title
;
Structure prediction by ZEFSAII (Michael W. Deem and Ramdas Pophale) SiO2 
 PCOD8282386
Probable space group: C C C A
;
_chemical_formula_sum "Si O2"
_cell_formula_units_Z 64
_cell_length_a 33.409584
_cell_length_b 8.558113
_cell_length_c 10.490817
_cell_angle_alpha 90.000000
_cell_angle_beta 90.000000
_cell_angle_gamma 90.000000
_cell_volume 2999.565818
_symmetry_space_group_name_H-M "C C C A"
_symmetry_group_IT_number 68
_space_group.IT_coordinate_system_code '2'
_symmetry_cell_setting 'orthorhombic'
loop_
_space_group_symop_operation_xyz
x,y,z
-x,1/2-y,z
x,1/2-y,1/2-z
-x,y,1/2-z
-x,-y,-z
x,1/2+y,-z
-x,1/2+y,1/2+z
x,-y,1/2+z
1/2+x,1/2+y,z
1/2-x,-y,z
1/2+x,-y,1/2-z
1/2-x,1/2+y,1/2-z
1/2-x,1/2-y,-z
1/2+x,y,-z
1/2-x,y,1/2+z
1/2+x,1/2-y,1/2+z
loop_
_atom_site_type_symbol
_atom_site_label
_atom_site_fract_x
_atom_site_fract_y
_atom_site_fract_z
Si Si1 0.500000 0.250000 0.435759
Si Si2 0.396643 0.750000 0.250000
Si Si3 0.675194 0.388998 0.883383
Si Si4 0.966416 0.946800 0.846228
Si Si5 0.705644 0.939386 0.381490
O O1 0.471895 0.134578 0.516842
O O2 0.470742 0.363782 0.353851
O O3 0.369025 0.685211 0.135151
O O4 0.423064 0.897658 0.205349
O O5 0.687923 0.487975 0.757128
O O6 0.706743 0.247348 0.896815
O O7 0.676323 0.493275 0.009235
O O8 0.000000 0.881807 0.750000
O O9 0.750000 0.000000 0.401648
#
# Coordination Sequence:
#
# PCOD8282386 Si02
#       5
#     8   8  16  16  16
#     4  10  22  34  66  88 108 154 214 238 312 366
#     4  10  21  40  60  82 136 154 194 272 316 370
#     4  10  24  38  61  96 126 169 209 253 324 368
#     4  11  20  40  58  89 116 154 202 255 298 374
#     4  10  20  40  63  91 126 166 215 259 300 372
#
# _framework density 21.33642
#
# number of rings (size 3 to 8) (size 9 to 14) (size 15 to 20)
#    0.000    2.000    2.500    1.875    0.000    7.000 
#    0.000    0.000   11.000    0.000    0.000    0.000 
#    0.000    0.000    0.000    0.000    0.000    0.000 
#
# Total GULP energy -396686.433827 kJ/mol
# GULP energy per Si atom -12396.451057 kJ/mol
# Density = 2.128786 g / cm^3
# Si number density = 21.336420 Si / 1000 Ang^3
#
#
#
# Elastic Constant Matrix: (Units=GPa)
#
#
# Indices 1 2 3 4 5 6 
#
# 1 124.3112 45.4665 54.0492 0.0000 0.0000 0.0000
# 2 45.4665 120.5472 64.2182 0.0000 0.0000 0.0000
# 3 54.0492 64.2182 132.4351 0.0000 0.0000 0.0000
# 4 0.0000 0.0000 0.0000 46.3427 0.0000 0.0000
# 5 0.0000 0.0000 0.0000 0.0000 18.1386 0.0000
# 6 0.0000 0.0000 0.0000 0.0000 0.0000 21.5973
#
#
#
# Elastic Compliance Matrix: (Units=1/GPa)
#
#
# Indices 1 2 3 4 5 6 
#
# 1 0.010193 -0.002196 -0.003095 0.000000 0.000000 0.000000
# 2 -0.002196 0.011658 -0.004757 0.000000 0.000000 0.000000
# 3 -0.003095 -0.004757 0.011121 0.000000 0.000000 0.000000
# 4 0.000000 0.000000 0.000000 0.021578 0.000000 0.000000
# 5 0.000000 0.000000 0.000000 0.000000 0.055131 0.000000
# 6 0.000000 0.000000 0.000000 0.000000 0.000000 0.046302
#
#
# Mechanical properties :
#
#
# Convention : Reuss Voigt Hill
#
# Bulk Modulus (GPa) = 77.66326 78.30681 77.98503
# Shear Modulus (GPa) = 27.72071 31.45302 29.58687
#
# Velocity S-wave (km/s) = 3.60838 3.84363 3.72786
# Velocity P-wave (km/s) = 7.33750 7.51523 7.42690
#
# Compressibility (1/GPa) = 0.01287610
#
# Stress axis : x y z
#
# Youngs Moduli (GPa) = 98.10472 85.78062 89.92211
#
# Poissons Ratio (x) = 0.18834 0.27834
# Poissons Ratio (y) = 0.21539 0.42774
# Poissons Ratio (z) = 0.30367 0.40804
#
# Static dielectric constant tensor:
#      x y z
#    x 3.587920 0.000000 0.000000 
#    y 0.000000 3.966510 0.000000 
#    z 0.000000 0.000000 4.012190 
# 
# 
# High freq. dielectric constant tensor:
#      x y z
#    x 1.815480 0.000000 0.000000 
#    y 0.000000 1.837990 0.000000 
#    z 0.000000 0.000000 1.843000 
# 
# From -- ./inp_files/17488.got.cif
#   From: 2010.03.12/outbox.cif.g09.slc.cpg/sg68_9_cif.got.tgz:17488.got - 2010.04.10 23:14:56.
