data_PCOD8282065
_publ_section_title
;
Structure prediction by ZEFSAII (Michael W. Deem and Ramdas Pophale) SiO2 
 PCOD8282065
Probable space group: C C C A
;
_chemical_formula_sum "Si O2"
_cell_formula_units_Z 72
_cell_length_a 13.820806
_cell_length_b 23.082982
_cell_length_c 9.860812
_cell_angle_alpha 90.000000
_cell_angle_beta 90.000000
_cell_angle_gamma 90.000000
_cell_volume 3145.849652
_symmetry_space_group_name_H-M "C C C A"
_symmetry_group_IT_number 68
_space_group.IT_coordinate_system_code '2'
_symmetry_cell_setting 'orthorhombic'
loop_
_space_group_symop_operation_xyz
x,y,z
-x,1/2-y,z
x,1/2-y,1/2-z
-x,y,1/2-z
-x,-y,-z
x,1/2+y,-z
-x,1/2+y,1/2+z
x,-y,1/2+z
1/2+x,1/2+y,z
1/2-x,-y,z
1/2+x,-y,1/2-z
1/2-x,1/2+y,1/2-z
1/2-x,1/2-y,-z
1/2+x,y,-z
1/2-x,y,1/2+z
1/2+x,1/2-y,1/2+z
loop_
_atom_site_type_symbol
_atom_site_label
_atom_site_fract_x
_atom_site_fract_y
_atom_site_fract_z
Si Si1 0.557346 0.428729 0.621075
Si Si2 0.500000 0.750000 0.582691
Si Si3 0.165834 0.324720 0.496316
Si Si4 0.334203 0.170336 0.190294
Si Si5 0.426753 0.943148 0.633509
O O1 0.500000 0.402835 0.750000
O O2 0.641174 0.387329 0.566778
O O3 0.607824 0.490668 0.658307
O O4 0.474631 0.438638 0.511805
O O5 0.569415 0.786085 0.483163
O O6 0.565806 0.706388 0.675270
O O7 0.253442 0.298956 0.405313
O O8 0.198162 0.328513 0.653188
O O9 0.340760 0.103653 0.141024
O O10 0.500000 0.923007 0.750000
#
# Coordination Sequence:
#
# PCOD8282065 Si02
#       5
#    16   8  16  16  16
#     4  10  22  39  69 102 134 174 223 267 330 394
#     4  12  25  50  73  90 131 180 229 288 343 400
#     4  12  26  44  69 103 133 177 223 281 337 404
#     4  12  25  44  70  99 133 176 226 277 342 400
#     4  10  19  42  70  96 134 182 216 267 331 399
#
# _framework density 22.887297
#
# number of rings (size 3 to 8) (size 9 to 14) (size 15 to 20)
#    0.000    0.889    4.444    2.667    3.111    0.889 
#    0.000    6.111    0.000    0.000    0.000    0.000 
#    0.000    0.000    0.000    0.000    0.000    0.000 
#
# Total GULP energy -446377.353635 kJ/mol
# GULP energy per Si atom -12399.370934 kJ/mol
# Density = 2.283520 g / cm^3
# Si number density = 22.887297 Si / 1000 Ang^3
#
#
#
# Elastic Constant Matrix: (Units=GPa)
#
#
# Indices 1 2 3 4 5 6 
#
# 1 117.5819 45.0660 70.4744 0.0000 0.0000 0.0000
# 2 45.0660 111.9392 43.5748 0.0000 0.0000 0.0000
# 3 70.4744 43.5748 162.0457 0.0000 0.0000 0.0000
# 4 0.0000 0.0000 0.0000 36.3553 0.0000 0.0000
# 5 0.0000 0.0000 0.0000 0.0000 45.7507 0.0000
# 6 0.0000 0.0000 0.0000 0.0000 0.0000 25.3895
#
#
#
# Elastic Compliance Matrix: (Units=1/GPa)
#
#
# Indices 1 2 3 4 5 6 
#
# 1 0.012480 -0.003252 -0.004553 0.000000 0.000000 0.000000
# 2 -0.003252 0.010825 -0.001497 0.000000 0.000000 0.000000
# 3 -0.004553 -0.001497 0.008554 0.000000 0.000000 0.000000
# 4 0.000000 0.000000 0.000000 0.027506 0.000000 0.000000
# 5 0.000000 0.000000 0.000000 0.000000 0.021858 0.000000
# 6 0.000000 0.000000 0.000000 0.000000 0.000000 0.039386
#
#
# Mechanical properties :
#
#
# Convention : Reuss Voigt Hill
#
# Bulk Modulus (GPa) = 75.44052 78.86636 77.15344
# Shear Modulus (GPa) = 34.81127 36.99586 35.90357
#
# Velocity S-wave (km/s) = 3.90421 4.02485 3.96499
# Velocity P-wave (km/s) = 7.30460 7.49217 7.39898
#
# Compressibility (1/GPa) = 0.01325548
#
# Stress axis : x y z
#
# Youngs Moduli (GPa) = 80.12735 92.37654 116.90762
#
# Poissons Ratio (x) = 0.30041 0.53230
# Poissons Ratio (y) = 0.26057 0.17497
# Poissons Ratio (z) = 0.36484 0.13826
#
# Static dielectric constant tensor:
#      x y z
#    x 3.863490 0.000000 0.000000 
#    y 0.000000 4.627210 0.000000 
#    z 0.000000 0.000000 3.842460 
# 
# 
# High freq. dielectric constant tensor:
#      x y z
#    x 1.877170 0.000000 0.000000 
#    y 0.000000 1.923990 0.000000 
#    z 0.000000 0.000000 1.909960 
# 
# From -- ./inp_files/5236.got.cif
#   From: 2010.03.12/outbox.cif.g09.slc.cpg/sg68_3_cif.got.tgz:5236.got - 2010.04.10 23:14:56.
