data_PCOD8282592
_publ_section_title
;
Structure prediction by ZEFSAII (Michael W. Deem and Ramdas Pophale) SiO2 
 PCOD8282592
Probable space group: C C C A
;
_chemical_formula_sum "Si O2"
_cell_formula_units_Z 104
_cell_length_a 20.965440
_cell_length_b 14.606272
_cell_length_c 16.281759
_cell_angle_alpha 90.000000
_cell_angle_beta 90.000000
_cell_angle_gamma 90.000000
_cell_volume 4985.912898
_symmetry_space_group_name_H-M "C C C A"
_symmetry_group_IT_number 68
_space_group.IT_coordinate_system_code '2'
_symmetry_cell_setting 'orthorhombic'
loop_
_space_group_symop_operation_xyz
x,y,z
-x,1/2-y,z
x,1/2-y,1/2-z
-x,y,1/2-z
-x,-y,-z
x,1/2+y,-z
-x,1/2+y,1/2+z
x,-y,1/2+z
1/2+x,1/2+y,z
1/2-x,-y,z
1/2+x,-y,1/2-z
1/2-x,1/2+y,1/2-z
1/2-x,1/2-y,-z
1/2+x,y,-z
1/2-x,y,1/2+z
1/2+x,1/2-y,1/2+z
loop_
_atom_site_type_symbol
_atom_site_label
_atom_site_fract_x
_atom_site_fract_y
_atom_site_fract_z
Si Si1 0.250000 0.500000 0.823978
Si Si2 0.872129 0.923719 0.386250
Si Si3 0.066453 0.113875 0.785118
Si Si4 0.424753 0.763366 0.928977
Si Si5 0.158322 0.850446 0.738561
Si Si6 0.575194 0.113425 0.918886
Si Si7 0.543662 0.418946 0.829527
O O1 0.202982 0.445886 0.885819
O O2 0.213203 0.572624 0.765737
O O3 0.888881 0.915852 0.289715
O O4 0.887480 0.832411 0.437226
O O5 0.911129 0.005238 0.430004
O O6 0.096891 0.192979 0.841658
O O7 0.000000 0.151619 0.750000
O O8 0.055065 0.026788 0.844717
O O9 0.500000 0.750000 0.929619
O O10 0.403512 0.829726 0.002099
O O11 0.189428 0.750000 0.750000
O O12 0.116932 0.850056 0.656149
O O13 0.111209 0.868405 0.816382
O O14 0.498364 0.125006 0.903421
O O15 0.500000 0.408986 0.750000
#
# Coordination Sequence:
#
# PCOD8282592 Si02
#       7
#     8  16  16  16  16  16  16
#     4  10  22  44  66  88 120 170 230 268 304 360
#     4  11  22  43  64  87 129 171 212 267 313 377
#     4  11  18  38  61  91 127 163 205 257 325 383
#     4  12  25  34  62 101 129 163 207 260 329 405
#     4  10  21  38  64  91 121 166 214 256 317 375
#     4  10  22  40  58  96 134 162 197 258 331 383
#     4   9  16  34  61  86 123 162 192 251 319 380
#
# _framework density 20.858768000000001
#
# number of rings (size 3 to 8) (size 9 to 14) (size 15 to 20)
#    0.000    1.538    7.692    0.462    2.154    5.846 
#    0.000    3.077    0.000    4.615    0.000    0.000 
#    0.000    0.000    0.000    0.000    0.000    0.000 
#
# Total GULP energy -644662.744464 kJ/mol
# GULP energy per Si atom -12397.360470 kJ/mol
# Density = 2.081129 g / cm^3
# Si number density = 20.858768 Si / 1000 Ang^3
#
#
#
# Elastic Constant Matrix: (Units=GPa)
#
#
# Indices 1 2 3 4 5 6 
#
# 1 114.9657 55.1154 27.1057 0.0000 0.0000 0.0000
# 2 55.1154 173.3247 55.0709 0.0000 0.0000 0.0000
# 3 27.1057 55.0709 77.4334 0.0000 0.0000 0.0000
# 4 0.0000 0.0000 0.0000 34.4885 0.0000 0.0000
# 5 0.0000 0.0000 0.0000 0.0000 8.7941 0.0000
# 6 0.0000 0.0000 0.0000 0.0000 0.0000 24.8031
#
#
#
# Elastic Compliance Matrix: (Units=1/GPa)
#
#
# Indices 1 2 3 4 5 6 
#
# 1 0.010427 -0.002785 -0.001669 0.000000 0.000000 0.000000
# 2 -0.002785 0.008198 -0.004855 0.000000 0.000000 0.000000
# 3 -0.001669 -0.004855 0.016952 0.000000 0.000000 0.000000
# 4 0.000000 0.000000 0.000000 0.028995 0.000000 0.000000
# 5 0.000000 0.000000 0.000000 0.000000 0.113712 0.000000
# 6 0.000000 0.000000 0.000000 0.000000 0.000000 0.040318
#
#
# Mechanical properties :
#
#
# Convention : Reuss Voigt Hill
#
# Bulk Modulus (GPa) = 58.97217 71.14532 65.05875
# Shear Modulus (GPa) = 20.58681 28.84591 24.71636
#
# Velocity S-wave (km/s) = 3.14500 3.72279 3.44603
# Velocity P-wave (km/s) = 6.44372 7.25679 6.86231
#
# Compressibility (1/GPa) = 0.01695715
#
# Stress axis : x y z
#
# Youngs Moduli (GPa) = 95.90397 121.98151 58.99100
#
# Poissons Ratio (x) = 0.33977 0.09846
# Poissons Ratio (y) = 0.26713 0.28642
# Poissons Ratio (z) = 0.16007 0.59227
#
# Static dielectric constant tensor:
#      x y z
#    x 3.695460 0.000000 0.000000 
#    y 0.000000 4.077140 0.000000 
#    z 0.000000 0.000000 3.610480 
# 
# 
# High freq. dielectric constant tensor:
#      x y z
#    x 1.785190 0.000000 0.000000 
#    y 0.000000 1.837880 0.000000 
#    z 0.000000 0.000000 1.785230 
# 
# From -- ./inp_files/33002.got.cif
#   From: 2010.03.12/outbox.cif.g09.slc.cpg/sg68_17_cif.got.tgz:33002.got - 2010.04.10 23:14:56.
