data_PCOD8282689
_publ_section_title
;
Structure prediction by ZEFSAII (Michael W. Deem and Ramdas Pophale) SiO2 
 PCOD8282689
Probable space group: C C C A
;
_chemical_formula_sum "Si O2"
_cell_formula_units_Z 104
_cell_length_a 24.904087
_cell_length_b 21.312887
_cell_length_c 8.964352
_cell_angle_alpha 90.000000
_cell_angle_beta 90.000000
_cell_angle_gamma 90.000000
_cell_volume 4758.080755
_symmetry_space_group_name_H-M "C C C A"
_symmetry_group_IT_number 68
_space_group.IT_coordinate_system_code '2'
_symmetry_cell_setting 'orthorhombic'
loop_
_space_group_symop_operation_xyz
x,y,z
-x,1/2-y,z
x,1/2-y,1/2-z
-x,y,1/2-z
-x,-y,-z
x,1/2+y,-z
-x,1/2+y,1/2+z
x,-y,1/2+z
1/2+x,1/2+y,z
1/2-x,-y,z
1/2+x,-y,1/2-z
1/2-x,1/2+y,1/2-z
1/2-x,1/2-y,-z
1/2+x,y,-z
1/2-x,y,1/2+z
1/2+x,1/2-y,1/2+z
loop_
_atom_site_type_symbol
_atom_site_label
_atom_site_fract_x
_atom_site_fract_y
_atom_site_fract_z
Si Si1 0.500000 0.355734 0.750000
Si Si2 0.112570 0.750000 0.250000
Si Si3 0.861238 0.750000 0.750000
Si Si4 0.694691 0.139534 0.895636
Si Si5 0.935649 0.308682 0.486168
Si Si6 0.807934 0.633537 0.260088
Si Si7 0.610570 0.936385 0.920790
Si Si8 0.896482 0.942487 0.756441
O O1 0.493626 0.312628 0.598955
O O2 0.446804 0.396334 0.765436
O O3 0.072228 0.747227 0.393734
O O4 0.151221 0.809034 0.244399
O O5 0.827925 0.790347 0.869844
O O6 0.894264 0.799918 0.651665
O O7 0.751396 0.143804 0.815880
O O8 0.655747 0.085896 0.834955
O O9 0.702952 0.121957 0.067089
O O10 0.926751 0.374483 0.573269
O O11 0.834970 0.575661 0.172895
O O12 0.582430 0.994277 0.836580
O O13 0.622331 0.957879 0.089086
#
# Coordination Sequence:
#
# PCOD8282689 Si02
#       8
#     8   8   8  16  16  16  16  16
#     4  10  22  43  72 100 128 187 230 284 352 428
#     4  10  21  40  66 100 139 173 220 293 332 416
#     4  12  21  41  66  93 141 180 228 284 336 420
#     4  12  24  39  65 100 135 185 226 281 341 424
#     4  10  22  41  69 102 136 179 235 283 356 410
#     4  11  24  39  65  99 138 178 226 273 354 405
#     4  10  22  43  65  97 134 176 224 295 340 429
#     4  11  23  43  68  96 135 175 235 285 353 406
#
# _framework density 21.857554
#
# number of rings (size 3 to 8) (size 9 to 14) (size 15 to 20)
#    0.000    1.231    4.615    2.308    2.154    4.615 
#    0.000    3.077    0.000   24.000    0.000    0.000 
#    0.000    0.000    0.000    0.000    0.000    0.000 
#
# Total GULP energy -644421.925796 kJ/mol
# GULP energy per Si atom -12392.729342 kJ/mol
# Density = 2.180780 g / cm^3
# Si number density = 21.857554 Si / 1000 Ang^3
#
#
#
# Elastic Constant Matrix: (Units=GPa)
#
#
# Indices 1 2 3 4 5 6 
#
# 1 99.4897 43.9201 78.9063 0.0000 0.0000 0.0000
# 2 43.9201 73.9120 43.8807 0.0000 0.0000 0.0000
# 3 78.9063 43.8807 198.5956 0.0000 0.0000 0.0000
# 4 0.0000 0.0000 0.0000 29.8744 0.0000 0.0000
# 5 0.0000 0.0000 0.0000 0.0000 42.9247 0.0000
# 6 0.0000 0.0000 0.0000 0.0000 0.0000 14.9293
#
#
#
# Elastic Compliance Matrix: (Units=1/GPa)
#
#
# Indices 1 2 3 4 5 6 
#
# 1 0.017478 -0.007209 -0.005352 0.000000 0.000000 0.000000
# 2 -0.007209 0.018545 -0.001234 0.000000 0.000000 0.000000
# 3 -0.005352 -0.001234 0.007434 0.000000 0.000000 0.000000
# 4 0.000000 0.000000 0.000000 0.033473 0.000000 0.000000
# 5 0.000000 0.000000 0.000000 0.000000 0.023297 0.000000
# 6 0.000000 0.000000 0.000000 0.000000 0.000000 0.066982
#
#
# Mechanical properties :
#
#
# Convention : Reuss Voigt Hill
#
# Bulk Modulus (GPa) = 63.01158 78.37906 70.69532
# Shear Modulus (GPa) = 24.98905 31.23170 28.11038
#
# Velocity S-wave (km/s) = 3.38489 3.78415 3.59007
# Velocity P-wave (km/s) = 6.64587 7.41821 7.04264
#
# Compressibility (1/GPa) = 0.01587010
#
# Stress axis : x y z
#
# Youngs Moduli (GPa) = 57.21490 53.92153 134.51301
#
# Poissons Ratio (x) = 0.38870 0.71986
# Poissons Ratio (y) = 0.41244 0.16593
# Poissons Ratio (z) = 0.30619 0.06652
#
# Static dielectric constant tensor:
#      x y z
#    x 3.850780 0.000000 0.000000 
#    y 0.000000 4.125120 0.000000 
#    z 0.000000 0.000000 4.529800 
# 
# 
# High freq. dielectric constant tensor:
#      x y z
#    x 1.845150 0.000000 0.000000 
#    y 0.000000 1.863030 0.000000 
#    z 0.000000 0.000000 1.878790 
# 
# From -- ./inp_files/9049.got.cif
#   From: 2010.03.12/outbox.cif.g09.slc.cpg/sg68_5_cif.got.tgz:9049.got - 2010.04.10 23:14:56.
