data_PCOD8282936
_publ_section_title
;
Structure prediction by ZEFSAII (Michael W. Deem and Ramdas Pophale) SiO2 
 PCOD8282936
Probable space group: C C C A
;
_chemical_formula_sum "Si O2"
_cell_formula_units_Z 84
_cell_length_a 21.527756
_cell_length_b 19.188838
_cell_length_c 9.787331
_cell_angle_alpha 90.000000
_cell_angle_beta 90.000000
_cell_angle_gamma 90.000000
_cell_volume 4043.074229
_symmetry_space_group_name_H-M "C C C A"
_symmetry_group_IT_number 68
_space_group.IT_coordinate_system_code '2'
_symmetry_cell_setting 'orthorhombic'
loop_
_space_group_symop_operation_xyz
x,y,z
-x,1/2-y,z
x,1/2-y,1/2-z
-x,y,1/2-z
-x,-y,-z
x,1/2+y,-z
-x,1/2+y,1/2+z
x,-y,1/2+z
1/2+x,1/2+y,z
1/2-x,-y,z
1/2+x,-y,1/2-z
1/2-x,1/2+y,1/2-z
1/2-x,1/2-y,-z
1/2+x,y,-z
1/2-x,y,1/2+z
1/2+x,1/2-y,1/2+z
loop_
_atom_site_type_symbol
_atom_site_label
_atom_site_fract_x
_atom_site_fract_y
_atom_site_fract_z
Si Si1 0.213676 0.319920 0.478085
Si Si2 0.585304 0.852660 0.576154
Si Si3 0.852740 0.473217 0.750452
Si Si4 0.230581 0.097824 0.283346
Si Si5 0.000000 0.250000 0.750000
Si Si6 0.038180 0.459340 0.388816
O O1 0.250000 0.250000 0.500000
O O2 0.144589 0.307240 0.534336
O O3 0.208466 0.341030 0.318687
O O4 0.248096 0.378087 0.567637
O O5 0.605474 0.923791 0.653734
O O6 0.541860 0.801192 0.660477
O O7 0.550001 0.880531 0.441466
O O8 0.825292 0.544355 0.817882
O O9 0.790655 0.433255 0.702294
O O10 0.896894 0.498700 0.627773
O O11 0.000000 0.454095 0.250000
O O12 0.000000 0.500000 0.500000
#
# Coordination Sequence:
#
# PCOD8282936 Si02
#       6
#    16  16  16  16   4  16
#     4  11  24  42  65 100 136 180 221 271 346 416
#     4  11  25  46  69  96 137 185 234 284 342 426
#     4  10  22  41  68 102 132 167 224 283 351 398
#     4  10  23  39  68  98 136 170 216 281 344 410
#     4  12  28  52  66  96 132 204 240 274 348 428
#     4  12  23  41  68 102 136 172 223 284 342 403
#
# _framework density 20.776268999999999
#
# number of rings (size 3 to 8) (size 9 to 14) (size 15 to 20)
#    0.000    1.143    3.810    1.714    8.000    1.524 
#    3.429    0.476    0.000    0.000    0.000    0.000 
#    0.000    0.000    0.000    0.000    0.000    0.000 
#
# Total GULP energy -520488.950253 kJ/mol
# GULP energy per Si atom -12392.594054 kJ/mol
# Density = 2.072898 g / cm^3
# Si number density = 20.776269 Si / 1000 Ang^3
#
#
#
# Elastic Constant Matrix: (Units=GPa)
#
#
# Indices 1 2 3 4 5 6 
#
# 1 130.8244 60.8933 45.2709 0.0000 0.0000 0.0000
# 2 60.8933 115.7378 39.8652 0.0000 0.0000 0.0000
# 3 45.2709 39.8652 95.2712 0.0000 0.0000 0.0000
# 4 0.0000 0.0000 0.0000 21.8701 0.0000 0.0000
# 5 0.0000 0.0000 0.0000 0.0000 37.2360 0.0000
# 6 0.0000 0.0000 0.0000 0.0000 0.0000 46.7277
#
#
#
# Elastic Compliance Matrix: (Units=1/GPa)
#
#
# Indices 1 2 3 4 5 6 
#
# 1 0.010923 -0.004626 -0.003255 0.000000 0.000000 0.000000
# 2 -0.004626 0.012054 -0.002846 0.000000 0.000000 0.000000
# 3 -0.003255 -0.002846 0.013234 0.000000 0.000000 0.000000
# 4 0.000000 0.000000 0.000000 0.045724 0.000000 0.000000
# 5 0.000000 0.000000 0.000000 0.000000 0.026856 0.000000
# 6 0.000000 0.000000 0.000000 0.000000 0.000000 0.021401
#
#
# Mechanical properties :
#
#
# Convention : Reuss Voigt Hill
#
# Bulk Modulus (GPa) = 67.75927 70.43245 69.09586
# Shear Modulus (GPa) = 31.93561 34.22037 33.07799
#
# Velocity S-wave (km/s) = 3.92486 4.06284 3.99445
# Velocity P-wave (km/s) = 7.29548 7.48217 7.38941
#
# Compressibility (1/GPa) = 0.01475813
#
# Stress axis : x y z
#
# Youngs Moduli (GPa) = 91.54683 82.95772 75.56408
#
# Poissons Ratio (x) = 0.38376 0.24595
# Poissons Ratio (y) = 0.42350 0.21504
# Poissons Ratio (z) = 0.29797 0.23608
#
# Static dielectric constant tensor:
#      x y z
#    x 3.925830 0.000000 0.000000 
#    y 0.000000 3.768990 0.000000 
#    z 0.000000 0.000000 4.101430 
# 
# 
# High freq. dielectric constant tensor:
#      x y z
#    x 1.832360 0.000000 0.000000 
#    y 0.000000 1.806260 0.000000 
#    z 0.000000 0.000000 1.804510 
# 
# From -- ./inp_files/7953.got.cif
#   From: 2010.03.12/outbox.cif.g09.slc.cpg/sg68_4_cif.got.tgz:7953.got - 2010.04.10 23:14:56.
