data_PCOD8282388
_publ_section_title
;
Structure prediction by ZEFSAII (Michael W. Deem and Ramdas Pophale) SiO2 
 PCOD8282388
Probable space group: C C C A
;
_chemical_formula_sum "Si O2"
_cell_formula_units_Z 96
_cell_length_a 13.864468
_cell_length_b 21.444623
_cell_length_c 15.971745
_cell_angle_alpha 90.000000
_cell_angle_beta 90.000000
_cell_angle_gamma 90.000000
_cell_volume 4748.691901
_symmetry_space_group_name_H-M "C C C A"
_symmetry_group_IT_number 68
_space_group.IT_coordinate_system_code '2'
_symmetry_cell_setting 'orthorhombic'
loop_
_space_group_symop_operation_xyz
x,y,z
-x,1/2-y,z
x,1/2-y,1/2-z
-x,y,1/2-z
-x,-y,-z
x,1/2+y,-z
-x,1/2+y,1/2+z
x,-y,1/2+z
1/2+x,1/2+y,z
1/2-x,-y,z
1/2+x,-y,1/2-z
1/2-x,1/2+y,1/2-z
1/2-x,1/2-y,-z
1/2+x,y,-z
1/2-x,y,1/2+z
1/2+x,1/2-y,1/2+z
loop_
_atom_site_type_symbol
_atom_site_label
_atom_site_fract_x
_atom_site_fract_y
_atom_site_fract_z
Si Si1 0.449758 0.039319 0.838517
Si Si2 0.005291 0.153638 0.053343
Si Si3 0.244699 0.750000 0.750000
Si Si4 0.837705 0.747860 0.931547
Si Si5 0.750000 0.000000 0.224554
Si Si6 0.652566 0.619818 0.732265
Si Si7 0.983643 0.909183 0.118122
O O1 0.500000 0.032530 0.750000
O O2 0.473670 0.106619 0.874265
O O3 0.335608 0.026461 0.833604
O O4 0.495259 0.983580 0.893275
O O5 0.914103 0.197568 0.034786
O O6 0.104369 0.187582 0.078310
O O7 0.036314 0.117818 0.971449
O O8 0.188893 0.768396 0.835349
O O9 0.302995 0.811806 0.727162
O O10 0.750000 0.750000 0.000000
O O11 0.777413 0.939931 0.282083
O O12 0.605680 0.608795 0.822783
O O13 0.578887 0.620969 0.656135
#
# Coordination Sequence:
#
# PCOD8282388 Si02
#       7
#    16  16   8  16   8  16  16
#     4  11  22  41  65  96 130 167 221 275 331 409
#     4  11  25  40  67  91 135 173 218 274 338 390
#     4  12  24  38  66  94 130 172 224 263 351 384
#     4  11  26  45  62  98 134 172 226 276 327 414
#     4  10  20  40  64  88 132 166 210 278 328 398
#     4  10  21  37  65  90 122 170 218 271 328 401
#     4  10  20  42  61  91 125 167 221 271 328 389
#
# _framework density 20.216094999999999
#
# number of rings (size 3 to 8) (size 9 to 14) (size 15 to 20)
#    0.000    1.333    3.333    3.500    4.667    4.667 
#    0.000    0.833    0.000    0.000    0.000    0.000 
#    0.000    0.000    0.000    0.000    0.000    0.000 
#
# Total GULP energy -594840.640931 kJ/mol
# GULP energy per Si atom -12392.513353 kJ/mol
# Density = 2.017008 g / cm^3
# Si number density = 20.216095 Si / 1000 Ang^3
#
#
#
# Elastic Constant Matrix: (Units=GPa)
#
#
# Indices 1 2 3 4 5 6 
#
# 1 107.5697 38.6297 24.1173 0.0000 0.0000 0.0000
# 2 38.6297 119.4857 0.1944 0.0000 0.0000 0.0000
# 3 24.1173 0.1944 63.5434 0.0000 0.0000 0.0000
# 4 0.0000 0.0000 0.0000 37.0996 0.0000 0.0000
# 5 0.0000 0.0000 0.0000 0.0000 8.7551 0.0000
# 6 0.0000 0.0000 0.0000 0.0000 0.0000 35.9028
#
#
#
# Elastic Compliance Matrix: (Units=1/GPa)
#
#
# Indices 1 2 3 4 5 6 
#
# 1 0.011631 -0.003753 -0.004403 0.000000 0.000000 0.000000
# 2 -0.003753 0.009580 0.001395 0.000000 0.000000 0.000000
# 3 -0.004403 0.001395 0.017404 0.000000 0.000000 0.000000
# 4 0.000000 0.000000 0.000000 0.026954 0.000000 0.000000
# 5 0.000000 0.000000 0.000000 0.000000 0.114219 0.000000
# 6 0.000000 0.000000 0.000000 0.000000 0.000000 0.027853
#
#
# Mechanical properties :
#
#
# Convention : Reuss Voigt Hill
#
# Bulk Modulus (GPa) = 39.85080 46.27572 43.06326
# Shear Modulus (GPa) = 21.78376 31.52867 26.65621
#
# Velocity S-wave (km/s) = 3.28616 3.95344 3.63514
# Velocity P-wave (km/s) = 5.84411 6.61663 6.24233
#
# Compressibility (1/GPa) = 0.02509360
#
# Stress axis : x y z
#
# Youngs Moduli (GPa) = 85.97482 104.38034 57.45752
#
# Poissons Ratio (x) = 0.39176 0.25299
# Poissons Ratio (y) = 0.32268 -0.08016
# Poissons Ratio (z) = 0.37855 -0.14563
#
# Static dielectric constant tensor:
#      x y z
#    x 3.789230 0.000000 0.000000 
#    y 0.000000 3.120950 0.000000 
#    z 0.000000 0.000000 3.472770 
# 
# 
# High freq. dielectric constant tensor:
#      x y z
#    x 1.793710 0.000000 0.000000 
#    y 0.000000 1.812590 0.000000 
#    z 0.000000 0.000000 1.777820 
# 
# From -- ./inp_files/22410.got.cif
#   From: 2010.03.12/outbox.cif.g09.slc.cpg/sg68_12_cif.got.tgz:22410.got - 2010.04.10 23:14:56.
