data_PCOD8282139
_publ_section_title
;
Structure prediction by ZEFSAII (Michael W. Deem and Ramdas Pophale) SiO2 
 PCOD8282139
Probable space group: C C C A
;
_chemical_formula_sum "Si O2"
_cell_formula_units_Z 80
_cell_length_a 25.919563
_cell_length_b 8.628231
_cell_length_c 18.165414
_cell_angle_alpha 90.000000
_cell_angle_beta 90.000000
_cell_angle_gamma 90.000000
_cell_volume 4062.512769
_symmetry_space_group_name_H-M "C C C A"
_symmetry_group_IT_number 68
_space_group.IT_coordinate_system_code '2'
_symmetry_cell_setting 'orthorhombic'
loop_
_space_group_symop_operation_xyz
x,y,z
-x,1/2-y,z
x,1/2-y,1/2-z
-x,y,1/2-z
-x,-y,-z
x,1/2+y,-z
-x,1/2+y,1/2+z
x,-y,1/2+z
1/2+x,1/2+y,z
1/2-x,-y,z
1/2+x,-y,1/2-z
1/2-x,1/2+y,1/2-z
1/2-x,1/2-y,-z
1/2+x,y,-z
1/2-x,y,1/2+z
1/2+x,1/2-y,1/2+z
loop_
_atom_site_type_symbol
_atom_site_label
_atom_site_fract_x
_atom_site_fract_y
_atom_site_fract_z
Si Si1 0.338070 0.679830 0.935340
Si Si2 0.549952 0.308858 0.596121
Si Si3 0.548056 0.661217 0.559260
Si Si4 0.163811 0.321353 0.405491
Si Si5 0.242021 0.318666 0.673283
O O1 0.396597 0.715096 0.908012
O O2 0.324785 0.499487 0.925157
O O3 0.300387 0.787116 0.888653
O O4 0.330658 0.719842 0.020945
O O5 0.500000 0.250000 0.645256
O O6 0.539593 0.480773 0.568818
O O7 0.549408 0.192580 0.527297
O O8 0.606879 0.299144 0.632152
O O9 0.500000 0.750000 0.598194
O O10 0.204270 0.264584 0.345561
O O11 0.221584 0.250000 0.750000
O O12 0.250000 0.500000 0.680835
#
# Coordination Sequence:
#
# PCOD8282139 Si02
#       5
#    16  16  16  16  16
#     4  10  20  35  55  81 110 141 177 217 260 309
#     4   9  16  26  45  73 106 138 169 208 254 302
#     4   9  16  26  45  73 106 138 169 208 254 302
#     4  10  20  35  55  81 110 141 177 217 260 309
#     4  12  25  40  57  76 102 138 176 220 269 318
#
# _framework density 19.692243999999999
#
# number of rings (size 3 to 8) (size 9 to 14) (size 15 to 20)
#    0.000    2.000    0.000    6.000    0.000    4.800 
#    0.000    0.000    0.000    1.200    0.000    8.400 
#    0.000    0.000    0.000    0.000    0.000    0.000 
#
# Total GULP energy -495701.767757 kJ/mol
# GULP energy per Si atom -12392.544194 kJ/mol
# Density = 1.964742 g / cm^3
# Si number density = 19.692244 Si / 1000 Ang^3
#
#
#
# Elastic Constant Matrix: (Units=GPa)
#
#
# Indices 1 2 3 4 5 6 
#
# 1 122.5453 24.0865 13.4987 0.0000 0.0000 0.0000
# 2 24.0865 82.2433 4.5407 0.0000 0.0000 0.0000
# 3 13.4987 4.5407 34.4536 0.0000 0.0000 0.0000
# 4 0.0000 0.0000 0.0000 21.4494 0.0000 0.0000
# 5 0.0000 0.0000 0.0000 0.0000 3.1863 0.0000
# 6 0.0000 0.0000 0.0000 0.0000 0.0000 34.9212
#
#
#
# Elastic Compliance Matrix: (Units=1/GPa)
#
#
# Indices 1 2 3 4 5 6 
#
# 1 0.008996 -0.002458 -0.003201 0.000000 0.000000 0.000000
# 2 -0.002458 0.012920 -0.000740 0.000000 0.000000 0.000000
# 3 -0.003201 -0.000740 0.030376 0.000000 0.000000 0.000000
# 4 0.000000 0.000000 0.000000 0.046621 0.000000 0.000000
# 5 0.000000 0.000000 0.000000 0.000000 0.313847 0.000000
# 6 0.000000 0.000000 0.000000 0.000000 0.000000 0.028636
#
#
# Mechanical properties :
#
#
# Convention : Reuss Voigt Hill
#
# Bulk Modulus (GPa) = 25.31958 35.94378 30.63168
# Shear Modulus (GPa) = 10.69845 25.05248 17.87546
#
# Velocity S-wave (km/s) = 2.33337 3.57066 3.01614
# Velocity P-wave (km/s) = 4.48832 5.94070 5.26483
#
# Compressibility (1/GPa) = 0.03949512
#
# Stress axis : x y z
#
# Youngs Moduli (GPa) = 111.16165 77.40101 32.92076
#
# Poissons Ratio (x) = 0.19024 0.10537
# Poissons Ratio (y) = 0.27323 0.02435
# Poissons Ratio (z) = 0.35578 0.05726
#
# Static dielectric constant tensor:
#      x y z
#    x 4.485190 0.000000 0.000000 
#    y 0.000000 3.664840 0.000000 
#    z 0.000000 0.000000 2.998190 
# 
# 
# High freq. dielectric constant tensor:
#      x y z
#    x 1.802050 0.000000 0.000000 
#    y 0.000000 1.785840 0.000000 
#    z 0.000000 0.000000 1.695010 
# 
# From -- ./inp_files/33954.got.cif
#   From: 2010.03.12/outbox.cif.g09.slc.cpg/sg68_17_cif.got.tgz:33954.got - 2010.04.10 23:14:56.
