data_PCOD8282514
_publ_section_title
;
Structure prediction by ZEFSAII (Michael W. Deem and Ramdas Pophale) SiO2 
 PCOD8282514
Probable space group: C C C A
;
_chemical_formula_sum "Si O2"
_cell_formula_units_Z 88
_cell_length_a 21.723198
_cell_length_b 13.907143
_cell_length_c 12.765906
_cell_angle_alpha 90.000000
_cell_angle_beta 90.000000
_cell_angle_gamma 90.000000
_cell_volume 3856.677492
_symmetry_space_group_name_H-M "C C C A"
_symmetry_group_IT_number 68
_space_group.IT_coordinate_system_code '2'
_symmetry_cell_setting 'orthorhombic'
loop_
_space_group_symop_operation_xyz
x,y,z
-x,1/2-y,z
x,1/2-y,1/2-z
-x,y,1/2-z
-x,-y,-z
x,1/2+y,-z
-x,1/2+y,1/2+z
x,-y,1/2+z
1/2+x,1/2+y,z
1/2-x,-y,z
1/2+x,-y,1/2-z
1/2-x,1/2+y,1/2-z
1/2-x,1/2-y,-z
1/2+x,y,-z
1/2-x,y,1/2+z
1/2+x,1/2-y,1/2+z
loop_
_atom_site_type_symbol
_atom_site_label
_atom_site_fract_x
_atom_site_fract_y
_atom_site_fract_z
Si Si1 0.084540 0.536082 0.377498
Si Si2 0.000000 0.094789 0.250000
Si Si3 0.818979 0.996274 0.051686
Si Si4 0.863509 0.157230 0.693697
Si Si5 0.934607 0.266487 0.528596
Si Si6 0.125718 0.179315 0.336557
O O1 0.028302 0.466820 0.346376
O O2 0.134930 0.485954 0.453288
O O3 0.116352 0.574221 0.272356
O O4 0.056922 0.623639 0.439647
O O5 0.942928 0.154602 0.204119
O O6 0.835186 0.084460 0.132038
O O7 0.750000 0.000000 0.006644
O O8 0.818041 0.895422 0.114258
O O9 0.831512 0.250000 0.750000
O O10 0.921849 0.199236 0.628866
O O11 0.881304 0.256173 0.441628
O O12 0.000000 0.250000 0.475196
O O13 0.157976 0.250000 0.250000
#
# Coordination Sequence:
#
# PCOD8282514 Si02
#       6
#    16   8  16  16  16  16
#     4  10  23  40  65 104 133 176 227 285 344 415
#     4  12  21  40  71 100 144 174 223 278 367 402
#     4  11  26  46  69  98 137 186 237 283 336 402
#     4  10  22  43  66  99 132 180 233 279 346 407
#     4  10  21  36  64  97 141 174 221 278 354 416
#     4  11  25  41  65 107 139 182 229 278 349 409
#
# _framework density 22.817567
#
# number of rings (size 3 to 8) (size 9 to 14) (size 15 to 20)
#    0.000    1.455    1.818    2.455    5.091    5.455 
#    0.000    8.182    0.000    0.000    0.000    0.000 
#    0.000    0.000    0.000    0.000    0.000    0.000 
#
# Total GULP energy -545116.180359 kJ/mol
# GULP energy per Si atom -12389.004099 kJ/mol
# Density = 2.276563 g / cm^3
# Si number density = 22.817567 Si / 1000 Ang^3
#
#
#
# Elastic Constant Matrix: (Units=GPa)
#
#
# Indices 1 2 3 4 5 6 
#
# 1 90.2006 29.9182 22.4409 0.0000 0.0000 0.0000
# 2 29.9182 84.6593 53.9508 0.0000 0.0000 0.0000
# 3 22.4409 53.9508 116.2532 0.0000 0.0000 0.0000
# 4 0.0000 0.0000 0.0000 31.6907 0.0000 0.0000
# 5 0.0000 0.0000 0.0000 0.0000 23.1452 0.0000
# 6 0.0000 0.0000 0.0000 0.0000 0.0000 14.6489
#
#
#
# Elastic Compliance Matrix: (Units=1/GPa)
#
#
# Indices 1 2 3 4 5 6 
#
# 1 0.012580 -0.004115 -0.000519 0.000000 0.000000 0.000000
# 2 -0.004115 0.018119 -0.007614 0.000000 0.000000 0.000000
# 3 -0.000519 -0.007614 0.012236 0.000000 0.000000 0.000000
# 4 0.000000 0.000000 0.000000 0.031555 0.000000 0.000000
# 5 0.000000 0.000000 0.000000 0.000000 0.043205 0.000000
# 6 0.000000 0.000000 0.000000 0.000000 0.000000 0.068264
#
#
# Mechanical properties :
#
#
# Convention : Reuss Voigt Hill
#
# Bulk Modulus (GPa) = 54.23432 55.97033 55.10233
# Shear Modulus (GPa) = 23.08383 26.21717 24.65050
#
# Velocity S-wave (km/s) = 3.18413 3.39335 3.29040
# Velocity P-wave (km/s) = 6.11052 6.31948 6.21588
#
# Compressibility (1/GPa) = 0.01843851
#
# Stress axis : x y z
#
# Youngs Moduli (GPa) = 79.48853 55.19184 81.72898
#
# Poissons Ratio (x) = 0.22714 0.04238
# Poissons Ratio (y) = 0.32713 0.62229
# Poissons Ratio (z) = 0.04122 0.42023
#
# Static dielectric constant tensor:
#      x y z
#    x 3.556610 0.000000 0.000000 
#    y 0.000000 4.326890 0.000000 
#    z 0.000000 0.000000 4.693550 
# 
# 
# High freq. dielectric constant tensor:
#      x y z
#    x 1.853230 0.000000 0.000000 
#    y 0.000000 1.913930 0.000000 
#    z 0.000000 0.000000 1.919000 
# 
# From -- ./inp_files/16303.got.cif
#   From: 2010.03.12/outbox.cif.g09.slc.cpg/sg68_9_cif.got.tgz:16303.got - 2010.04.10 23:14:56.
