data_PCOD8282827
_publ_section_title
;
Structure prediction by ZEFSAII (Michael W. Deem and Ramdas Pophale) SiO2 
 PCOD8282827
Probable space group: C C C A
;
_chemical_formula_sum "Si O2"
_cell_formula_units_Z 88
_cell_length_a 15.397420
_cell_length_b 18.087892
_cell_length_c 16.048171
_cell_angle_alpha 90.000000
_cell_angle_beta 90.000000
_cell_angle_gamma 90.000000
_cell_volume 4469.525875
_symmetry_space_group_name_H-M "C C C A"
_symmetry_group_IT_number 68
_space_group.IT_coordinate_system_code '2'
_symmetry_cell_setting 'orthorhombic'
loop_
_space_group_symop_operation_xyz
x,y,z
-x,1/2-y,z
x,1/2-y,1/2-z
-x,y,1/2-z
-x,-y,-z
x,1/2+y,-z
-x,1/2+y,1/2+z
x,-y,1/2+z
1/2+x,1/2+y,z
1/2-x,-y,z
1/2+x,-y,1/2-z
1/2-x,1/2+y,1/2-z
1/2-x,1/2-y,-z
1/2+x,y,-z
1/2-x,y,1/2+z
1/2+x,1/2-y,1/2+z
loop_
_atom_site_type_symbol
_atom_site_label
_atom_site_fract_x
_atom_site_fract_y
_atom_site_fract_z
Si Si1 0.951776 0.392811 0.950853
Si Si2 0.500000 0.750000 0.446185
Si Si3 0.640778 0.807471 0.182298
Si Si4 0.720220 0.420070 0.354419
Si Si5 0.426020 0.494139 0.895517
Si Si6 0.750000 0.500000 0.196013
Si Si7 0.500000 0.409132 0.750000
O O1 0.872702 0.390670 0.885100
O O2 0.041029 0.421198 0.906979
O O3 0.924476 0.453552 0.017192
O O4 0.969172 0.314766 0.993086
O O5 0.580425 0.730077 0.387226
O O6 0.681225 0.750000 0.250000
O O7 0.711992 0.853361 0.129666
O O8 0.585920 0.860991 0.241942
O O9 0.750000 0.500000 0.395042
O O10 0.720145 0.431106 0.254008
O O11 0.329916 0.483195 0.862684
O O12 0.495288 0.457977 0.832816
#
# Coordination Sequence:
#
# PCOD8282827 Si02
#       7
#    16   8  16  16  16   8   8
#     4  11  25  41  60  96 136 172 206 265 342 391
#     4  12  25  40  62  97 136 182 208 262 340 405
#     4  12  21  39  69  96 126 167 227 278 322 385
#     4  10  24  43  64  95 130 168 217 282 317 385
#     4  11  22  39  70  93 125 168 217 276 320 387
#     4  10  22  38  68  96 118 160 228 274 318 370
#     4  12  17  42  70  95 118 162 234 276 313 372
#
# _framework density 19.688887999999999
#
# number of rings (size 3 to 8) (size 9 to 14) (size 15 to 20)
#    0.545    0.364    5.455    2.182    3.818    0.727 
#    3.273    0.000    0.000    0.000    0.000    0.000 
#    0.000    0.000    0.000    0.000    0.000    0.000 
#
# Total GULP energy -545315.933122 kJ/mol
# GULP energy per Si atom -12393.543935 kJ/mol
# Density = 1.964408 g / cm^3
# Si number density = 19.688888 Si / 1000 Ang^3
#
#
#
# Elastic Constant Matrix: (Units=GPa)
#
#
# Indices 1 2 3 4 5 6 
#
# 1 109.5006 55.2169 49.7957 0.0000 0.0000 0.0000
# 2 55.2169 122.1483 40.8641 0.0000 0.0000 0.0000
# 3 49.7957 40.8641 83.0323 0.0000 0.0000 0.0000
# 4 0.0000 0.0000 0.0000 23.8069 0.0000 0.0000
# 5 0.0000 0.0000 0.0000 0.0000 28.9371 0.0000
# 6 0.0000 0.0000 0.0000 0.0000 0.0000 33.8582
#
#
#
# Elastic Compliance Matrix: (Units=1/GPa)
#
#
# Indices 1 2 3 4 5 6 
#
# 1 0.014206 -0.004275 -0.006415 0.000000 0.000000 0.000000
# 2 -0.004275 0.011087 -0.002892 0.000000 0.000000 0.000000
# 3 -0.006415 -0.002892 0.017314 0.000000 0.000000 0.000000
# 4 0.000000 0.000000 0.000000 0.042005 0.000000 0.000000
# 5 0.000000 0.000000 0.000000 0.000000 0.034558 0.000000
# 6 0.000000 0.000000 0.000000 0.000000 0.000000 0.029535
#
#
# Mechanical properties :
#
#
# Convention : Reuss Voigt Hill
#
# Bulk Modulus (GPa) = 64.76307 67.38164 66.07235
# Shear Modulus (GPa) = 27.62163 28.57406 28.09784
#
# Velocity S-wave (km/s) = 3.74960 3.81370 3.78178
# Velocity P-wave (km/s) = 7.19101 7.32734 7.25949
#
# Compressibility (1/GPa) = 0.01544090
#
# Stress axis : x y z
#
# Youngs Moduli (GPa) = 70.39452 90.19460 57.75570
#
# Poissons Ratio (x) = 0.38562 0.37051
# Poissons Ratio (y) = 0.30097 0.16706
# Poissons Ratio (z) = 0.45159 0.26088
#
# Static dielectric constant tensor:
#      x y z
#    x 4.362190 0.000000 0.000000 
#    y 0.000000 3.756400 0.000000 
#    z 0.000000 0.000000 3.583030 
# 
# 
# High freq. dielectric constant tensor:
#      x y z
#    x 1.762670 0.000000 0.000000 
#    y 0.000000 1.760310 0.000000 
#    z 0.000000 0.000000 1.767370 
# 
# From -- ./inp_files/22315.got.cif
#   From: 2010.03.12/outbox.cif.g09.slc.cpg/sg68_12_cif.got.tgz:22315.got - 2010.04.10 23:14:56.
