data_PCOD8282091
_publ_section_title
;
Structure prediction by ZEFSAII (Michael W. Deem and Ramdas Pophale) SiO2 
 PCOD8282091
Probable space group: C C C A
;
_chemical_formula_sum "Si O2"
_cell_formula_units_Z 96
_cell_length_a 26.521731
_cell_length_b 20.013433
_cell_length_c 8.464169
_cell_angle_alpha 90.000000
_cell_angle_beta 90.000000
_cell_angle_gamma 90.000000
_cell_volume 4492.703766
_symmetry_space_group_name_H-M "C C C A"
_symmetry_group_IT_number 68
_space_group.IT_coordinate_system_code '2'
_symmetry_cell_setting 'orthorhombic'
loop_
_space_group_symop_operation_xyz
x,y,z
-x,1/2-y,z
x,1/2-y,1/2-z
-x,y,1/2-z
-x,-y,-z
x,1/2+y,-z
-x,1/2+y,1/2+z
x,-y,1/2+z
1/2+x,1/2+y,z
1/2-x,-y,z
1/2+x,-y,1/2-z
1/2-x,1/2+y,1/2-z
1/2-x,1/2-y,-z
1/2+x,y,-z
1/2-x,y,1/2+z
1/2+x,1/2-y,1/2+z
loop_
_atom_site_type_symbol
_atom_site_label
_atom_site_fract_x
_atom_site_fract_y
_atom_site_fract_z
Si Si1 0.661382 0.862173 0.452573
Si Si2 0.346035 0.467338 0.703721
Si Si3 0.000000 0.532509 0.750000
Si Si4 0.774906 0.133397 0.037826
Si Si5 0.353970 0.115345 0.207237
Si Si6 0.693615 0.750000 0.250000
Si Si7 0.933846 0.943328 0.478593
O O1 0.634543 0.918974 0.345960
O O2 0.719504 0.884309 0.478521
O O3 0.634910 0.852865 0.622138
O O4 0.657176 0.790984 0.366546
O O5 0.297616 0.431283 0.626148
O O6 0.332889 0.539440 0.773537
O O7 0.389209 0.480973 0.573098
O O8 0.025370 0.577930 0.612550
O O9 0.958250 0.487580 0.660592
O O10 0.771763 0.197934 0.152804
O O11 0.810266 0.153580 0.888731
O O12 0.406776 0.118838 0.109199
#
# Coordination Sequence:
#
# PCOD8282091 Si02
#       7
#    16  16   8  16  16   8  16
#     4  11  22  35  57  77 113 158 199 240 279 326
#     4  10  21  35  52  82 125 151 178 237 279 337
#     4  10  20  34  58  80 112 160 188 202 278 354
#     4  10  22  36  54  81 109 162 204 237 282 320
#     4  11  21  34  55  83 118 155 185 236 284 345
#     4  10  22  40  52  74 110 151 212 267 276 294
#     4  10  20  33  53  82 113 155 178 221 272 338
#
# _framework density 21.367978000000001
#
# number of rings (size 3 to 8) (size 9 to 14) (size 15 to 20)
#    0.000    1.667    1.667    4.500    0.000    4.667 
#    0.000    0.000    0.000    0.000    0.000    0.000 
#    0.000  234.000    0.000    0.167    0.000    0.000 
#
# Total GULP energy -594720.418875 kJ/mol
# GULP energy per Si atom -12390.008727 kJ/mol
# Density = 2.131934 g / cm^3
# Si number density = 21.367978 Si / 1000 Ang^3
#
#
#
# Elastic Constant Matrix: (Units=GPa)
#
#
# Indices 1 2 3 4 5 6 
#
# 1 85.5578 11.4816 46.4115 0.0000 0.0000 0.0000
# 2 11.4816 64.0878 23.4264 0.0000 0.0000 0.0000
# 3 46.4115 23.4264 159.1461 0.0000 0.0000 0.0000
# 4 0.0000 0.0000 0.0000 41.4772 0.0000 0.0000
# 5 0.0000 0.0000 0.0000 0.0000 53.3923 0.0000
# 6 0.0000 0.0000 0.0000 0.0000 0.0000 7.5709
#
#
#
# Elastic Compliance Matrix: (Units=1/GPa)
#
#
# Indices 1 2 3 4 5 6 
#
# 1 0.013954 -0.001070 -0.003912 0.000000 0.000000 0.000000
# 2 -0.001070 0.016573 -0.002128 0.000000 0.000000 0.000000
# 3 -0.003912 -0.002128 0.007737 0.000000 0.000000 0.000000
# 4 0.000000 0.000000 0.000000 0.024110 0.000000 0.000000
# 5 0.000000 0.000000 0.000000 0.000000 0.018729 0.000000
# 6 0.000000 0.000000 0.000000 0.000000 0.000000 0.132085
#
#
# Mechanical properties :
#
#
# Convention : Reuss Voigt Hill
#
# Bulk Modulus (GPa) = 41.58773 52.38119 46.98446
# Shear Modulus (GPa) = 21.23852 35.65290 28.44571
#
# Velocity S-wave (km/s) = 3.15610 4.08918 3.65256
# Velocity P-wave (km/s) = 5.72592 6.84561 6.31065
#
# Compressibility (1/GPa) = 0.02404555
#
# Stress axis : x y z
#
# Youngs Moduli (GPa) = 71.66638 60.33925 129.24094
#
# Poissons Ratio (x) = 0.06456 0.50556
# Poissons Ratio (y) = 0.07668 0.27496
# Poissons Ratio (z) = 0.28034 0.12837
#
# Static dielectric constant tensor:
#      x y z
#    x 3.749970 0.000000 0.000000 
#    y 0.000000 3.479640 0.000000 
#    z 0.000000 0.000000 4.760810 
# 
# 
# High freq. dielectric constant tensor:
#      x y z
#    x 1.805580 0.000000 0.000000 
#    y 0.000000 1.781980 0.000000 
#    z 0.000000 0.000000 1.889220 
# 
# From -- ./inp_files/9100.got.cif
#   From: 2010.03.12/outbox.cif.g09.slc.cpg/sg68_5_cif.got.tgz:9100.got - 2010.04.10 23:14:56.
