data_PCOD8282278
_publ_section_title
;
Structure prediction by ZEFSAII (Michael W. Deem and Ramdas Pophale) SiO2 
 PCOD8282278
Probable space group: C C C A
;
_chemical_formula_sum "Si O2"
_cell_formula_units_Z 44
_cell_length_a 4.908068
_cell_length_b 19.920714
_cell_length_c 21.346055
_cell_angle_alpha 90.000000
_cell_angle_beta 90.000000
_cell_angle_gamma 90.000000
_cell_volume 2087.051163
_symmetry_space_group_name_H-M "C C C A"
_symmetry_group_IT_number 68
_space_group.IT_coordinate_system_code '2'
_symmetry_cell_setting 'orthorhombic'
loop_
_space_group_symop_operation_xyz
x,y,z
-x,1/2-y,z
x,1/2-y,1/2-z
-x,y,1/2-z
-x,-y,-z
x,1/2+y,-z
-x,1/2+y,1/2+z
x,-y,1/2+z
1/2+x,1/2+y,z
1/2-x,-y,z
1/2+x,-y,1/2-z
1/2-x,1/2+y,1/2-z
1/2-x,1/2-y,-z
1/2+x,y,-z
1/2-x,y,1/2+z
1/2+x,1/2-y,1/2+z
loop_
_atom_site_type_symbol
_atom_site_label
_atom_site_fract_x
_atom_site_fract_y
_atom_site_fract_z
Si Si1 0.500000 0.750000 0.250000
Si Si2 0.000000 0.250000 0.045436
Si Si3 0.388408 0.349493 0.847112
Si Si4 0.607830 0.933975 0.681404
O O1 0.699706 0.706855 0.203863
O O2 0.027223 0.182875 0.086902
O O3 0.250000 0.250000 0.000000
O O4 0.659357 0.378801 0.815359
O O5 0.149763 0.404748 0.857815
O O6 0.500000 0.953478 0.750000
O O7 0.750000 0.000000 0.650330
#
# Coordination Sequence:
#
# PCOD8282278 Si02
#       4
#     4   8  16  16
#     4  10  20  38  56  98 124 156 208 250 344 368
#     4  11  24  45  66  91 122 169 220 272 328 369
#     4  11  23  38  65  92 129 166 207 270 313 395
#     4  12  22  38  60  95 135 172 203 248 319 395
#
# _framework density 21.082376
#
# number of rings (size 3 to 8) (size 9 to 14) (size 15 to 20)
#    0.000    0.727    3.636    5.455    0.000    5.818 
#    0.000    0.000    0.000   21.818    0.000    0.000 
#    0.000    0.000    0.000    0.000    0.000    0.000 
#
# Total GULP energy -272652.390904 kJ/mol
# GULP energy per Si atom -12393.290496 kJ/mol
# Density = 2.103439 g / cm^3
# Si number density = 21.082376 Si / 1000 Ang^3
#
#
#
# Elastic Constant Matrix: (Units=GPa)
#
#
# Indices 1 2 3 4 5 6 
#
# 1 162.3507 63.1173 52.3509 0.0000 0.0000 0.0000
# 2 63.1173 111.5023 61.6928 0.0000 0.0000 0.0000
# 3 52.3509 61.6928 108.3326 0.0000 0.0000 0.0000
# 4 0.0000 0.0000 0.0000 12.3369 0.0000 0.0000
# 5 0.0000 0.0000 0.0000 0.0000 29.1117 0.0000
# 6 0.0000 0.0000 0.0000 0.0000 0.0000 40.1917
#
#
#
# Elastic Compliance Matrix: (Units=1/GPa)
#
#
# Indices 1 2 3 4 5 6 
#
# 1 0.008161 -0.003559 -0.001917 0.000000 0.000000 0.000000
# 2 -0.003559 0.014646 -0.006621 0.000000 0.000000 0.000000
# 3 -0.001917 -0.006621 0.013928 0.000000 0.000000 0.000000
# 4 0.000000 0.000000 0.000000 0.081058 0.000000 0.000000
# 5 0.000000 0.000000 0.000000 0.000000 0.034350 0.000000
# 6 0.000000 0.000000 0.000000 0.000000 0.000000 0.024881
#
#
# Mechanical properties :
#
#
# Convention : Reuss Voigt Hill
#
# Bulk Modulus (GPa) = 79.73666 81.83420 80.78543
# Shear Modulus (GPa) = 24.34289 29.99635 27.16962
#
# Velocity S-wave (km/s) = 3.40171 3.77612 3.59379
# Velocity P-wave (km/s) = 7.30290 7.61004 7.45805
#
# Compressibility (1/GPa) = 0.01254128
#
# Stress axis : x y z
#
# Youngs Moduli (GPa) = 122.52840 68.27642 71.79974
#
# Poissons Ratio (x) = 0.24301 0.13764
# Poissons Ratio (y) = 0.43610 0.47537
# Poissons Ratio (z) = 0.23489 0.45204
#
# Static dielectric constant tensor:
#      x y z
#    x 3.873410 0.000000 0.000000 
#    y 0.000000 4.151840 0.000000 
#    z 0.000000 0.000000 2.973630 
# 
# 
# High freq. dielectric constant tensor:
#      x y z
#    x 1.838310 0.000000 0.000000 
#    y 0.000000 1.838600 0.000000 
#    z 0.000000 0.000000 1.784420 
# 
# From -- ./inp_files/41935.got.cif
#   From: 2010.03.12/outbox.cif.g09.slc.cpg/sg68_21_cif.got.tgz:41935.got - 2010.04.10 23:14:56.
