data_PCOD8282427
_publ_section_title
;
Structure prediction by ZEFSAII (Michael W. Deem and Ramdas Pophale) SiO2 
 PCOD8282427
Probable space group: C C C A
;
_chemical_formula_sum "Si O2"
_cell_formula_units_Z 80
_cell_length_a 13.186694
_cell_length_b 13.120366
_cell_length_c 21.937160
_cell_angle_alpha 90.000000
_cell_angle_beta 90.000000
_cell_angle_gamma 90.000000
_cell_volume 3795.441320
_symmetry_space_group_name_H-M "C C C A"
_symmetry_group_IT_number 68
_space_group.IT_coordinate_system_code '2'
_symmetry_cell_setting 'orthorhombic'
loop_
_space_group_symop_operation_xyz
x,y,z
-x,1/2-y,z
x,1/2-y,1/2-z
-x,y,1/2-z
-x,-y,-z
x,1/2+y,-z
-x,1/2+y,1/2+z
x,-y,1/2+z
1/2+x,1/2+y,z
1/2-x,-y,z
1/2+x,-y,1/2-z
1/2-x,1/2+y,1/2-z
1/2-x,1/2-y,-z
1/2+x,y,-z
1/2-x,y,1/2+z
1/2+x,1/2-y,1/2+z
loop_
_atom_site_type_symbol
_atom_site_label
_atom_site_fract_x
_atom_site_fract_y
_atom_site_fract_z
Si Si1 0.250000 0.000000 0.047736
Si Si2 0.571063 0.100210 0.001541
Si Si3 0.387469 0.922274 0.653568
Si Si4 0.500000 0.750000 0.401457
Si Si5 0.500000 0.750000 0.896821
Si Si6 0.750000 0.500000 0.754654
Si Si7 0.945652 0.588231 0.810789
O O1 0.189544 0.072127 0.000980
O O2 0.332991 0.054837 0.089600
O O3 0.561941 0.172218 0.942702
O O4 0.553088 0.163169 0.062763
O O5 0.500000 0.000000 0.000000
O O6 0.422126 0.805522 0.648312
O O7 0.309911 0.922805 0.710039
O O8 0.483192 0.997840 0.662728
O O9 0.570230 0.680326 0.358185
O O10 0.831126 0.553930 0.797842
O O11 0.000000 0.629922 0.750000
#
# Coordination Sequence:
#
# PCOD8282427 Si02
#       7
#     8  16  16   8   8   8  16
#     4  11  20  42  67  84 134 175 206 260 335 374
#     4  11  23  42  64  97 131 174 217 267 325 388
#     4  10  21  42  66  94 133 172 211 276 323 380
#     4  11  21  40  69  92 131 162 217 273 308 384
#     4  11  22  42  68  94 134 170 220 277 318 386
#     4   9  22  42  69  90 130 177 210 264 345 384
#     4  10  20  42  64  94 130 167 215 272 321 381
#
# _framework density 21.077918
#
# number of rings (size 3 to 8) (size 9 to 14) (size 15 to 20)
#    0.000    1.600    4.000    0.300    0.000    0.800 
#    3.600    8.500    0.000    0.000    0.000    0.000 
#    0.000    0.000    0.000    0.000    0.000    0.000 
#
# Total GULP energy -495745.212045 kJ/mol
# GULP energy per Si atom -12393.630301 kJ/mol
# Density = 2.102994 g / cm^3
# Si number density = 21.077918 Si / 1000 Ang^3
#
#
#
# Elastic Constant Matrix: (Units=GPa)
#
#
# Indices 1 2 3 4 5 6 
#
# 1 156.7153 74.5298 58.6668 0.0000 0.0000 0.0000
# 2 74.5298 139.4222 59.7527 0.0000 0.0000 0.0000
# 3 58.6668 59.7527 87.8039 0.0000 0.0000 0.0000
# 4 0.0000 0.0000 0.0000 41.6452 0.0000 0.0000
# 5 0.0000 0.0000 0.0000 0.0000 32.6880 0.0000
# 6 0.0000 0.0000 0.0000 0.0000 0.0000 33.0381
#
#
#
# Elastic Compliance Matrix: (Units=1/GPa)
#
#
# Indices 1 2 3 4 5 6 
#
# 1 0.009489 -0.003325 -0.004077 0.000000 0.000000 0.000000
# 2 -0.003325 0.011291 -0.005462 0.000000 0.000000 0.000000
# 3 -0.004077 -0.005462 0.017830 0.000000 0.000000 0.000000
# 4 0.000000 0.000000 0.000000 0.024012 0.000000 0.000000
# 5 0.000000 0.000000 0.000000 0.000000 0.030592 0.000000
# 6 0.000000 0.000000 0.000000 0.000000 0.000000 0.030268
#
#
# Mechanical properties :
#
#
# Convention : Reuss Voigt Hill
#
# Bulk Modulus (GPa) = 77.63194 85.53781 81.58487
# Shear Modulus (GPa) = 32.57240 34.20707 33.38974
#
# Velocity S-wave (km/s) = 3.93534 4.03288 3.98441
# Velocity P-wave (km/s) = 7.58683 7.89654 7.74323
#
# Compressibility (1/GPa) = 0.01288130
#
# Stress axis : x y z
#
# Youngs Moduli (GPa) = 105.39071 88.56855 56.08429
#
# Poissons Ratio (x) = 0.29447 0.22867
# Poissons Ratio (y) = 0.35040 0.30634
# Poissons Ratio (z) = 0.42970 0.48377
#
# Static dielectric constant tensor:
#      x y z
#    x 3.836310 0.000000 0.000000 
#    y 0.000000 3.849010 0.000000 
#    z 0.000000 0.000000 4.025520 
# 
# 
# High freq. dielectric constant tensor:
#      x y z
#    x 1.819500 0.000000 0.000000 
#    y 0.000000 1.821120 0.000000 
#    z 0.000000 0.000000 1.836620 
# 
# From -- ./inp_files/44186.got.cif
#   From: 2010.03.12/outbox.cif.g09.slc.cpg/sg68_23_cif.got.tgz:44186.got - 2010.04.10 23:14:56.
