data_PCOD8282168
_publ_section_title
;
Structure prediction by ZEFSAII (Michael W. Deem and Ramdas Pophale) SiO2 
 PCOD8282168
Probable space group: C C C A
;
_chemical_formula_sum "Si O2"
_cell_formula_units_Z 100
_cell_length_a 18.641806
_cell_length_b 8.998530
_cell_length_c 30.995727
_cell_angle_alpha 90.000000
_cell_angle_beta 90.000000
_cell_angle_gamma 90.000000
_cell_volume 5199.497576
_symmetry_space_group_name_H-M "C C C A"
_symmetry_group_IT_number 68
_space_group.IT_coordinate_system_code '2'
_symmetry_cell_setting 'orthorhombic'
loop_
_space_group_symop_operation_xyz
x,y,z
-x,1/2-y,z
x,1/2-y,1/2-z
-x,y,1/2-z
-x,-y,-z
x,1/2+y,-z
-x,1/2+y,1/2+z
x,-y,1/2+z
1/2+x,1/2+y,z
1/2-x,-y,z
1/2+x,-y,1/2-z
1/2-x,1/2+y,1/2-z
1/2-x,1/2-y,-z
1/2+x,y,-z
1/2-x,y,1/2+z
1/2+x,1/2-y,1/2+z
loop_
_atom_site_type_symbol
_atom_site_label
_atom_site_fract_x
_atom_site_fract_y
_atom_site_fract_z
Si Si1 0.551982 0.025998 0.443842
Si Si2 0.368517 0.250000 0.250000
Si Si3 0.177873 0.568231 0.375857
Si Si4 0.576962 0.514361 0.196156
Si Si5 0.000000 0.750000 0.750000
Si Si6 0.000000 0.250000 0.011004
Si Si7 0.466807 0.911498 0.866421
Si Si8 0.688323 0.621922 0.834638
O O1 0.619173 0.065572 0.413613
O O2 0.551599 0.142769 0.483121
O O3 0.478397 0.048523 0.416646
O O4 0.552299 0.855504 0.460405
O O5 0.419915 0.367219 0.274127
O O6 0.318034 0.336856 0.215975
O O7 0.250000 0.500000 0.394766
O O8 0.149482 0.480190 0.333107
O O9 0.201967 0.733514 0.363336
O O10 0.560273 0.656761 0.224683
O O11 0.510686 0.520348 0.163806
O O12 0.500000 0.750000 0.856708
O O13 0.385793 0.941304 0.853098
O O14 0.750000 0.500000 0.841185
#
# Coordination Sequence:
#
# PCOD8282168 Si02
#       8
#    16   8  16  16   4   8  16  16
#     4  10  20  38  63  93 117 153 193 241 297 361
#     4  10  20  39  57  76 113 165 200 254 314 367
#     4  10  22  40  58  78 118 160 196 239 297 363
#     4  10  23  36  57  81 110 157 205 253 305 350
#     4  12  24  32  54  92 122 142 208 286 304 348
#     4  10  20  35  64  96 122 138 188 252 298 357
#     4  11  18  39  66  82 111 157 210 241 289 377
#     4  11  23  36  58  87 112 156 206 254 302 358
#
# _framework density 19.232627000000001
#
# number of rings (size 3 to 8) (size 9 to 14) (size 15 to 20)
#    0.000    1.600    5.600    0.960    0.000    9.600 
#    0.000    2.400    0.000    3.840    0.000    0.000 
#    0.000    0.000    0.000    0.000    0.000    0.000 
#
# Total GULP energy -619599.043537 kJ/mol
# GULP energy per Si atom -12391.980871 kJ/mol
# Density = 1.918885 g / cm^3
# Si number density = 19.232627 Si / 1000 Ang^3
#
#
#
# Elastic Constant Matrix: (Units=GPa)
#
#
# Indices 1 2 3 4 5 6 
#
# 1 119.4202 46.0325 38.9932 0.0000 0.0000 0.0000
# 2 46.0325 110.2437 45.7625 0.0000 0.0000 0.0000
# 3 38.9932 45.7625 97.7447 0.0000 0.0000 0.0000
# 4 0.0000 0.0000 0.0000 35.7214 0.0000 0.0000
# 5 0.0000 0.0000 0.0000 0.0000 -15.8419 0.0000
# 6 0.0000 0.0000 0.0000 0.0000 0.0000 35.1952
#
#
#
# Elastic Compliance Matrix: (Units=1/GPa)
#
#
# Indices 1 2 3 4 5 6 
#
# 1 0.010507 -0.003286 -0.002653 0.000000 0.000000 0.000000
# 2 -0.003286 0.012286 -0.004442 0.000000 0.000000 0.000000
# 3 -0.002653 -0.004442 0.013369 0.000000 0.000000 0.000000
# 4 0.000000 0.000000 0.000000 0.027994 0.000000 0.000000
# 5 0.000000 0.000000 0.000000 0.000000 -0.063124 0.000000
# 6 0.000000 0.000000 0.000000 0.000000 0.000000 0.028413
#
#
# Mechanical properties :
#
#
# Convention : Reuss Voigt Hill
#
# Bulk Modulus (GPa) = 64.93108 65.44278 65.18693
# Shear Modulus (GPa) = 90.35070 24.12295 57.23683
#
# Velocity S-wave (km/s) = 6.86147 3.54541 5.46122
# Velocity P-wave (km/s) = 9.82890 7.13167 8.58685
#
# Compressibility (1/GPa) = 0.01540095
#
# Stress axis : x y z
#
# Youngs Moduli (GPa) = 95.17804 81.39015 74.80230
#
# Poissons Ratio (x) = 0.26743 0.19845
# Poissons Ratio (y) = 0.31273 0.33224
# Poissons Ratio (z) = 0.25251 0.36150
#
# Static dielectric constant tensor:
#      x y z
#    x 3.346550 0.000000 0.000000 
#    y 0.000000 3.359190 0.000000 
#    z 0.000000 0.000000 3.763500 
# 
# 
# High freq. dielectric constant tensor:
#      x y z
#    x 1.726080 0.000000 0.000000 
#    y 0.000000 1.748900 0.000000 
#    z 0.000000 0.000000 1.754880 
# 
# From -- ./inp_files/55822.got.cif
#   From: 2010.03.12/outbox.cif.g09.slc.cpg/sg68_28_cif.got.tgz:55822.got - 2010.04.10 23:14:56.
