data_PCOD8282398
_publ_section_title
;
Structure prediction by ZEFSAII (Michael W. Deem and Ramdas Pophale) SiO2 
 PCOD8282398
Probable space group: C C C A
;
_chemical_formula_sum "Si O2"
_cell_formula_units_Z 120
_cell_length_a 11.642783
_cell_length_b 20.823688
_cell_length_c 22.646221
_cell_angle_alpha 90.000000
_cell_angle_beta 90.000000
_cell_angle_gamma 90.000000
_cell_volume 5490.478464
_symmetry_space_group_name_H-M "C C C A"
_symmetry_group_IT_number 68
_space_group.IT_coordinate_system_code '2'
_symmetry_cell_setting 'orthorhombic'
loop_
_space_group_symop_operation_xyz
x,y,z
-x,1/2-y,z
x,1/2-y,1/2-z
-x,y,1/2-z
-x,-y,-z
x,1/2+y,-z
-x,1/2+y,1/2+z
x,-y,1/2+z
1/2+x,1/2+y,z
1/2-x,-y,z
1/2+x,-y,1/2-z
1/2-x,1/2+y,1/2-z
1/2-x,1/2-y,-z
1/2+x,y,-z
1/2-x,y,1/2+z
1/2+x,1/2-y,1/2+z
loop_
_atom_site_type_symbol
_atom_site_label
_atom_site_fract_x
_atom_site_fract_y
_atom_site_fract_z
Si Si1 0.200031 0.647547 0.977195
Si Si2 0.000000 0.375396 0.750000
Si Si3 0.628985 0.325984 0.747706
Si Si4 0.316456 0.593224 0.360934
Si Si5 0.686640 0.332138 0.333194
Si Si6 0.657416 0.445957 0.419749
Si Si7 0.073831 0.961664 0.139882
Si Si8 0.630170 0.753636 0.935299
O O1 0.129644 0.628741 0.918305
O O2 0.325576 0.676224 0.956590
O O3 0.199629 0.583873 0.018023
O O4 0.136910 0.705416 0.009617
O O5 0.903503 0.327889 0.778248
O O6 0.956575 0.422398 0.698538
O O7 0.640182 0.250000 0.750000
O O8 0.500000 0.350948 0.750000
O O9 0.693660 0.355629 0.691552
O O10 0.688805 0.348907 0.807532
O O11 0.190553 0.570778 0.384455
O O12 0.395893 0.534338 0.340455
O O13 0.653749 0.392295 0.371050
O O14 0.696075 0.269622 0.375828
O O15 0.750000 0.500000 0.403102
O O16 0.523258 0.467955 0.412578
O O17 0.500000 0.750000 0.914309
#
# Coordination Sequence:
#
# PCOD8282398 Si02
#       8
#    16   8  16  16  16  16  16  16
#     4  10  24  43  63  97 131 172 221 279 334 399
#     4  10  20  40  65  98 133 166 218 280 328 392
#     4  11  25  43  63  95 136 180 222 270 331 406
#     4  11  24  43  67  96 135 175 221 278 334 400
#     4  10  22  41  68  97 131 172 223 272 333 396
#     4  10  24  42  66  98 132 173 223 276 332 406
#     4  10  24  41  66 101 129 177 223 271 336 402
#     4  10  23  44  69  96 130 175 227 282 335 400
#
# _framework density 21.856019
#
# number of rings (size 3 to 8) (size 9 to 14) (size 15 to 20)
#    0.000    1.733    1.333    0.800   10.267    3.733 
#    7.200    0.000    0.000    0.000    0.000    0.000 
#    0.000    0.000    0.000    0.000    0.000    0.000 
#
# Total GULP energy -743291.524947 kJ/mol
# GULP energy per Si atom -12388.192082 kJ/mol
# Density = 2.180627 g / cm^3
# Si number density = 21.856019 Si / 1000 Ang^3
#
#
#
# Elastic Constant Matrix: (Units=GPa)
#
#
# Indices 1 2 3 4 5 6 
#
# 1 117.7296 32.3534 42.0642 0.0000 0.0000 0.0000
# 2 32.3534 64.3840 31.0207 0.0000 0.0000 0.0000
# 3 42.0642 31.0207 127.3893 0.0000 0.0000 0.0000
# 4 0.0000 0.0000 0.0000 -26.4054 0.0000 0.0000
# 5 0.0000 0.0000 0.0000 0.0000 48.8494 0.0000
# 6 0.0000 0.0000 0.0000 0.0000 0.0000 19.5024
#
#
#
# Elastic Compliance Matrix: (Units=1/GPa)
#
#
# Indices 1 2 3 4 5 6 
#
# 1 0.010500 -0.004085 -0.002472 0.000000 0.000000 0.000000
# 2 -0.004085 0.019186 -0.003323 0.000000 0.000000 0.000000
# 3 -0.002472 -0.003323 0.009476 0.000000 0.000000 0.000000
# 4 0.000000 0.000000 0.000000 -0.037871 0.000000 0.000000
# 5 0.000000 0.000000 0.000000 0.000000 0.020471 0.000000
# 6 0.000000 0.000000 0.000000 0.000000 0.000000 0.051276
#
#
# Mechanical properties :
#
#
# Convention : Reuss Voigt Hill
#
# Bulk Modulus (GPa) = 51.54578 57.81994 54.68286
# Shear Modulus (GPa) = 50.37040 21.99360 36.18200
#
# Velocity S-wave (km/s) = 4.80588 3.17566 4.07316
# Velocity P-wave (km/s) = 7.37772 6.32129 6.86984
#
# Compressibility (1/GPa) = 0.01940023
#
# Stress axis : x y z
#
# Youngs Moduli (GPa) = 95.23770 52.12223 105.53510
#
# Poissons Ratio (x) = 0.21293 0.26092
# Poissons Ratio (y) = 0.38906 0.35069
# Poissons Ratio (z) = 0.23546 0.17320
#
# Static dielectric constant tensor:
#      x y z
#    x 4.029610 0.000000 0.000000 
#    y 0.000000 3.474130 0.000000 
#    z 0.000000 0.000000 4.155290 
# 
# 
# High freq. dielectric constant tensor:
#      x y z
#    x 1.848760 0.000000 0.000000 
#    y 0.000000 1.864030 0.000000 
#    z 0.000000 0.000000 1.865950 
# 
# From -- ./inp_files/44657.got.cif
#   From: 2010.03.12/outbox.cif.g09.slc.cpg/sg68_23_cif.got.tgz:44657.got - 2010.04.10 23:14:56.
