data_PCOD8282928
_publ_section_title
;
Structure prediction by ZEFSAII (Michael W. Deem and Ramdas Pophale) SiO2 
 PCOD8282928
Probable space group: C C C A
;
_chemical_formula_sum "Si O2"
_cell_formula_units_Z 104
_cell_length_a 25.048655
_cell_length_b 20.577182
_cell_length_c 9.743889
_cell_angle_alpha 90.000000
_cell_angle_beta 90.000000
_cell_angle_gamma 90.000000
_cell_volume 5022.299847
_symmetry_space_group_name_H-M "C C C A"
_symmetry_group_IT_number 68
_space_group.IT_coordinate_system_code '2'
_symmetry_cell_setting 'orthorhombic'
loop_
_space_group_symop_operation_xyz
x,y,z
-x,1/2-y,z
x,1/2-y,1/2-z
-x,y,1/2-z
-x,-y,-z
x,1/2+y,-z
-x,1/2+y,1/2+z
x,-y,1/2+z
1/2+x,1/2+y,z
1/2-x,-y,z
1/2+x,-y,1/2-z
1/2-x,1/2+y,1/2-z
1/2-x,1/2-y,-z
1/2+x,y,-z
1/2-x,y,1/2+z
1/2+x,1/2-y,1/2+z
loop_
_atom_site_type_symbol
_atom_site_label
_atom_site_fract_x
_atom_site_fract_y
_atom_site_fract_z
Si Si1 0.766521 0.646630 0.164290
Si Si2 0.363191 0.836185 0.485771
Si Si3 0.437463 0.455522 0.226285
Si Si4 0.317795 0.750000 0.250000
Si Si5 0.120139 0.481737 0.002383
Si Si6 0.280248 0.937180 0.929651
Si Si7 0.438359 0.182477 0.212777
O O1 0.719378 0.699261 0.169975
O O2 0.780975 0.618491 0.313815
O O3 0.818857 0.681424 0.101210
O O4 0.749022 0.588251 0.065428
O O5 0.355915 0.789555 0.354679
O O6 0.355694 0.912464 0.448428
O O7 0.422840 0.828087 0.551258
O O8 0.500000 0.455606 0.250000
O O9 0.430378 0.501303 0.096275
O O10 0.400536 0.483298 0.347559
O O11 0.417899 0.380676 0.203599
O O12 0.160881 0.540712 0.026602
O O13 0.250000 0.000000 0.870355
O O14 0.408870 0.250000 0.250000
O O15 0.500000 0.190314 0.250000
#
# Coordination Sequence:
#
# PCOD8282928 Si02
#       7
#    16  16  16   8  16  16  16
#     4  12  25  42  61  94 132 181 221 272 329 401
#     4  11  24  41  64  93 137 170 221 279 328 400
#     4  10  22  41  66  96 129 161 212 277 329 396
#     4  12  26  42  60  93 139 180 224 272 340 398
#     4  11  23  40  64  97 125 172 215 265 338 386
#     4  12  24  38  64  92 132 168 220 272 327 400
#     4   9  20  41  69  96 122 167 223 267 319 390
#
# _framework density 20.707644999999999
#
# number of rings (size 3 to 8) (size 9 to 14) (size 15 to 20)
#    0.000    1.077    3.077    3.231    5.385    1.231 
#    0.000    0.000    0.000    0.000    0.000    0.000 
#    0.000    0.000    0.000    0.000    0.000    0.000 
#
# Total GULP energy -644437.647052 kJ/mol
# GULP energy per Si atom -12393.031674 kJ/mol
# Density = 2.066051 g / cm^3
# Si number density = 20.707645 Si / 1000 Ang^3
#
#
#
# Elastic Constant Matrix: (Units=GPa)
#
#
# Indices 1 2 3 4 5 6 
#
# 1 86.5144 30.1341 31.5266 0.0000 0.0000 0.0000
# 2 30.1341 91.5260 43.5851 0.0000 0.0000 0.0000
# 3 31.5266 43.5851 79.8690 0.0000 0.0000 0.0000
# 4 0.0000 0.0000 0.0000 22.4441 0.0000 0.0000
# 5 0.0000 0.0000 0.0000 0.0000 37.9908 0.0000
# 6 0.0000 0.0000 0.0000 0.0000 0.0000 29.2104
#
#
#
# Elastic Compliance Matrix: (Units=1/GPa)
#
#
# Indices 1 2 3 4 5 6 
#
# 1 0.013966 -0.002666 -0.004058 0.000000 0.000000 0.000000
# 2 -0.002666 0.015271 -0.007281 0.000000 0.000000 0.000000
# 3 -0.004058 -0.007281 0.018096 0.000000 0.000000 0.000000
# 4 0.000000 0.000000 0.000000 0.044555 0.000000 0.000000
# 5 0.000000 0.000000 0.000000 0.000000 0.026322 0.000000
# 6 0.000000 0.000000 0.000000 0.000000 0.000000 0.034234
#
#
# Mechanical properties :
#
#
# Convention : Reuss Voigt Hill
#
# Bulk Modulus (GPa) = 51.75270 52.04456 51.89863
# Shear Modulus (GPa) = 26.75294 28.10663 27.42978
#
# Velocity S-wave (km/s) = 3.59825 3.68816 3.64348
# Velocity P-wave (km/s) = 6.50458 6.58212 6.54346
#
# Compressibility (1/GPa) = 0.01932266
#
# Stress axis : x y z
#
# Youngs Moduli (GPa) = 71.60203 65.48425 55.26163
#
# Poissons Ratio (x) = 0.17456 0.22426
# Poissons Ratio (y) = 0.19087 0.40237
# Poissons Ratio (z) = 0.29057 0.47680
#
# Static dielectric constant tensor:
#      x y z
#    x 3.744590 0.000000 0.000000 
#    y 0.000000 4.163780 0.000000 
#    z 0.000000 0.000000 3.611200 
# 
# 
# High freq. dielectric constant tensor:
#      x y z
#    x 1.809690 0.000000 0.000000 
#    y 0.000000 1.826400 0.000000 
#    z 0.000000 0.000000 1.794540 
# 
# From -- ./inp_files/9025.got.cif
#   From: 2010.03.12/outbox.cif.g09.slc.cpg/sg68_5_cif.got.tgz:9025.got - 2010.04.10 23:14:56.
