data_PCOD8282377
_publ_section_title
;
Structure prediction by ZEFSAII (Michael W. Deem and Ramdas Pophale) SiO2 
 PCOD8282377
Probable space group: C C C A
;
_chemical_formula_sum "Si O2"
_cell_formula_units_Z 60
_cell_length_a 12.867165
_cell_length_b 19.014040
_cell_length_c 13.108105
_cell_angle_alpha 90.000000
_cell_angle_beta 90.000000
_cell_angle_gamma 90.000000
_cell_volume 3206.986892
_symmetry_space_group_name_H-M "C C C A"
_symmetry_group_IT_number 68
_space_group.IT_coordinate_system_code '2'
_symmetry_cell_setting 'orthorhombic'
loop_
_space_group_symop_operation_xyz
x,y,z
-x,1/2-y,z
x,1/2-y,1/2-z
-x,y,1/2-z
-x,-y,-z
x,1/2+y,-z
-x,1/2+y,1/2+z
x,-y,1/2+z
1/2+x,1/2+y,z
1/2-x,-y,z
1/2+x,-y,1/2-z
1/2-x,1/2+y,1/2-z
1/2-x,1/2-y,-z
1/2+x,y,-z
1/2-x,y,1/2+z
1/2+x,1/2-y,1/2+z
loop_
_atom_site_type_symbol
_atom_site_label
_atom_site_fract_x
_atom_site_fract_y
_atom_site_fract_z
Si Si1 0.339208 0.442790 0.377829
Si Si2 0.804027 0.676922 0.278700
Si Si3 0.000000 0.478624 0.250000
Si Si4 0.178888 0.432190 0.111226
Si Si5 0.000000 0.250000 0.750000
O O1 0.250000 0.500000 0.361990
O O2 0.305646 0.371339 0.322304
O O3 0.446092 0.471290 0.332261
O O4 0.361020 0.428552 0.496299
O O5 0.744447 0.750000 0.250000
O O6 0.747994 0.637258 0.370850
O O7 0.922183 0.698898 0.314869
O O8 0.917935 0.430543 0.310988
O O9 0.250000 0.500000 0.133914
#
# Coordination Sequence:
#
# PCOD8282377 Si02
#       5
#    16  16   8  16   4
#     4  11  22  39  64  92 116 158 202 254 302 357
#     4  10  20  40  61  86 122 160 198 254 289 357
#     4  12  19  40  62  90 121 162 192 258 303 352
#     4  11  23  37  63  91 123 156 205 255 301 354
#     4   8  22  36  68  78 114 178 194 232 298 358
#
# _framework density 18.709150000000001
#
# number of rings (size 3 to 8) (size 9 to 14) (size 15 to 20)
#    0.800    0.533    5.333    1.600    0.000    1.067 
#    0.000    0.667    0.000    0.000    0.000    0.000 
#    0.000    0.000    0.000    0.000    0.000    0.000 
#
# Total GULP energy -371795.422277 kJ/mol
# GULP energy per Si atom -12393.180743 kJ/mol
# Density = 1.866657 g / cm^3
# Si number density = 18.709150 Si / 1000 Ang^3
#
#
#
# Elastic Constant Matrix: (Units=GPa)
#
#
# Indices 1 2 3 4 5 6 
#
# 1 108.4004 46.5543 63.9781 0.0000 0.0000 0.0000
# 2 46.5543 130.2597 45.6474 0.0000 0.0000 0.0000
# 3 63.9781 45.6474 130.5183 0.0000 0.0000 0.0000
# 4 0.0000 0.0000 0.0000 6.3558 0.0000 0.0000
# 5 0.0000 0.0000 0.0000 0.0000 31.6860 0.0000
# 6 0.0000 0.0000 0.0000 0.0000 0.0000 40.3012
#
#
#
# Elastic Compliance Matrix: (Units=1/GPa)
#
#
# Indices 1 2 3 4 5 6 
#
# 1 0.013903 -0.002941 -0.005787 0.000000 0.000000 0.000000
# 2 -0.002941 0.009371 -0.001836 0.000000 0.000000 0.000000
# 3 -0.005787 -0.001836 0.011140 0.000000 0.000000 0.000000
# 4 0.000000 0.000000 0.000000 0.157336 0.000000 0.000000
# 5 0.000000 0.000000 0.000000 0.000000 0.031560 0.000000
# 6 0.000000 0.000000 0.000000 0.000000 0.000000 0.024813
#
#
# Mechanical properties :
#
#
# Convention : Reuss Voigt Hill
#
# Bulk Modulus (GPa) = 75.25610 75.72645 75.49127
# Shear Modulus (GPa) = 18.26947 29.86852 24.06899
#
# Velocity S-wave (km/s) = 3.12829 3.99991 3.59065
# Velocity P-wave (km/s) = 7.30478 7.86740 7.59130
#
# Compressibility (1/GPa) = 0.01328796
#
# Stress axis : x y z
#
# Youngs Moduli (GPa) = 71.92444 106.70655 89.76393
#
# Poissons Ratio (x) = 0.31385 0.51943
# Poissons Ratio (y) = 0.21155 0.16479
# Poissons Ratio (z) = 0.41620 0.19590
#
# Static dielectric constant tensor:
#      x y z
#    x 3.440780 0.000000 0.000000 
#    y 0.000000 3.502930 0.000000 
#    z 0.000000 0.000000 3.376740 
# 
# 
# High freq. dielectric constant tensor:
#      x y z
#    x 1.726170 0.000000 0.000000 
#    y 0.000000 1.723960 0.000000 
#    z 0.000000 0.000000 1.714340 
# 
# From -- ./inp_files/11572.got.cif
#   From: 2010.03.12/outbox.cif.g09.slc.cpg/sg68_6_cif.got.tgz:11572.got - 2010.04.10 23:14:56.
