data_PCOD8282661
_publ_section_title
;
Structure prediction by ZEFSAII (Michael W. Deem and Ramdas Pophale) SiO2 
 PCOD8282661
Probable space group: C C C A
;
_chemical_formula_sum "Si O2"
_cell_formula_units_Z 80
_cell_length_a 24.380238
_cell_length_b 11.657656
_cell_length_c 13.106995
_cell_angle_alpha 90.000000
_cell_angle_beta 90.000000
_cell_angle_gamma 90.000000
_cell_volume 3725.223298
_symmetry_space_group_name_H-M "C C C A"
_symmetry_group_IT_number 68
_space_group.IT_coordinate_system_code '2'
_symmetry_cell_setting 'orthorhombic'
loop_
_space_group_symop_operation_xyz
x,y,z
-x,1/2-y,z
x,1/2-y,1/2-z
-x,y,1/2-z
-x,-y,-z
x,1/2+y,-z
-x,1/2+y,1/2+z
x,-y,1/2+z
1/2+x,1/2+y,z
1/2-x,-y,z
1/2+x,-y,1/2-z
1/2-x,1/2+y,1/2-z
1/2-x,1/2-y,-z
1/2+x,y,-z
1/2-x,y,1/2+z
1/2+x,1/2-y,1/2+z
loop_
_atom_site_type_symbol
_atom_site_label
_atom_site_fract_x
_atom_site_fract_y
_atom_site_fract_z
Si Si1 0.443389 0.474599 0.694964
Si Si2 0.646814 0.656587 0.175418
Si Si3 0.311133 0.966975 0.989409
Si Si4 0.116540 0.692666 0.149113
Si Si5 0.898301 0.161482 0.030290
O O1 0.500000 0.449861 0.750000
O O2 0.391661 0.425010 0.757140
O O3 0.433116 0.608843 0.679702
O O4 0.446201 0.414103 0.582920
O O5 0.677141 0.750000 0.250000
O O6 0.608504 0.725270 0.098019
O O7 0.688096 0.580279 0.106731
O O8 0.334536 0.870691 0.912039
O O9 0.250000 0.000000 0.957676
O O10 0.344054 0.084303 0.977696
O O11 0.142437 0.750000 0.250000
O O12 0.087809 0.793919 0.082741
#
# Coordination Sequence:
#
# PCOD8282661 Si02
#       5
#    16  16  16  16  16
#     4  10  21  40  64  90 120 159 204 247 301 363
#     4   9  19  37  58  86 122 156 198 248 298 358
#     4  10  21  40  62  87 121 160 204 252 302 359
#     4  10  21  40  60  87 125 159 200 251 300 357
#     4   9  20  39  60  86 122 156 195 248 296 353
#
# _framework density 21.475223
#
# number of rings (size 3 to 8) (size 9 to 14) (size 15 to 20)
#    0.000    2.400    0.000    1.200    0.000    7.200 
#    0.000   46.000    0.000    0.000    0.000    0.000 
#    0.000    0.000    0.000    0.000    0.000    0.000 
#
# Total GULP energy -495714.554568 kJ/mol
# GULP energy per Si atom -12392.863864 kJ/mol
# Density = 2.142634 g / cm^3
# Si number density = 21.475223 Si / 1000 Ang^3
#
#
#
# Elastic Constant Matrix: (Units=GPa)
#
#
# Indices 1 2 3 4 5 6 
#
# 1 82.2138 41.5721 40.5899 0.0000 0.0000 0.0000
# 2 41.5721 111.8824 63.7672 0.0000 0.0000 0.0000
# 3 40.5899 63.7672 150.6633 0.0000 0.0000 0.0000
# 4 0.0000 0.0000 0.0000 56.0990 0.0000 0.0000
# 5 0.0000 0.0000 0.0000 0.0000 15.9893 0.0000
# 6 0.0000 0.0000 0.0000 0.0000 0.0000 12.4734
#
#
#
# Elastic Compliance Matrix: (Units=1/GPa)
#
#
# Indices 1 2 3 4 5 6 
#
# 1 0.015559 -0.004471 -0.002300 0.000000 0.000000 0.000000
# 2 -0.004471 0.013064 -0.004325 0.000000 0.000000 0.000000
# 3 -0.002300 -0.004325 0.009087 0.000000 0.000000 0.000000
# 4 0.000000 0.000000 0.000000 0.017826 0.000000 0.000000
# 5 0.000000 0.000000 0.000000 0.000000 0.062542 0.000000
# 6 0.000000 0.000000 0.000000 0.000000 0.000000 0.080171
#
#
# Mechanical properties :
#
#
# Convention : Reuss Voigt Hill
#
# Bulk Modulus (GPa) = 64.43122 70.73530 67.58326
# Shear Modulus (GPa) = 22.16189 30.16770 26.16480
#
# Velocity S-wave (km/s) = 3.21592 3.75209 3.49430
# Velocity P-wave (km/s) = 6.62248 7.19587 6.91512
#
# Compressibility (1/GPa) = 0.01552043
#
# Stress axis : x y z
#
# Youngs Moduli (GPa) = 64.26976 76.54580 110.04360
#
# Poissons Ratio (x) = 0.34222 0.25306
# Poissons Ratio (y) = 0.28733 0.47592
# Poissons Ratio (z) = 0.14780 0.33105
#
# Static dielectric constant tensor:
#      x y z
#    x 3.176410 0.000000 0.000000 
#    y 0.000000 4.219460 0.000000 
#    z 0.000000 0.000000 4.470680 
# 
# 
# High freq. dielectric constant tensor:
#      x y z
#    x 1.780020 0.000000 0.000000 
#    y 0.000000 1.867310 0.000000 
#    z 0.000000 0.000000 1.865510 
# 
# From -- ./inp_files/25178.got.cif
#   From: 2010.03.12/outbox.cif.g09.slc.cpg/sg68_13_cif.got.tgz:25178.got - 2010.04.10 23:14:56.
