data_PCOD8282645
_publ_section_title
;
Structure prediction by ZEFSAII (Michael W. Deem and Ramdas Pophale) SiO2 
 PCOD8282645
Probable space group: C C C A
;
_chemical_formula_sum "Si O2"
_cell_formula_units_Z 96
_cell_length_a 13.031642
_cell_length_b 15.786161
_cell_length_c 22.296099
_cell_angle_alpha 90.000000
_cell_angle_beta 90.000000
_cell_angle_gamma 90.000000
_cell_volume 4586.744539
_symmetry_space_group_name_H-M "C C C A"
_symmetry_group_IT_number 68
_space_group.IT_coordinate_system_code '2'
_symmetry_cell_setting 'orthorhombic'
loop_
_space_group_symop_operation_xyz
x,y,z
-x,1/2-y,z
x,1/2-y,1/2-z
-x,y,1/2-z
-x,-y,-z
x,1/2+y,-z
-x,1/2+y,1/2+z
x,-y,1/2+z
1/2+x,1/2+y,z
1/2-x,-y,z
1/2+x,-y,1/2-z
1/2-x,1/2+y,1/2-z
1/2-x,1/2-y,-z
1/2+x,y,-z
1/2-x,y,1/2+z
1/2+x,1/2-y,1/2+z
loop_
_atom_site_type_symbol
_atom_site_label
_atom_site_fract_x
_atom_site_fract_y
_atom_site_fract_z
Si Si1 0.263708 0.630771 0.748460
Si Si2 0.191707 0.629052 0.559442
Si Si3 0.094334 0.457671 0.587407
Si Si4 0.227026 0.243712 0.648539
Si Si5 0.899078 0.506486 0.780505
Si Si6 0.926675 0.174571 0.945861
O O1 0.315102 0.694693 0.700812
O O2 0.220693 0.669115 0.811357
O O3 0.171717 0.588431 0.710076
O O4 0.346983 0.559465 0.765933
O O5 0.104886 0.557709 0.572382
O O6 0.306667 0.591643 0.561824
O O7 0.190614 0.709543 0.605103
O O8 0.165147 0.662141 0.493291
O O9 0.087429 0.453539 0.658765
O O10 0.991683 0.412787 0.561913
O O11 0.128194 0.205756 0.614812
O O12 0.000000 0.541425 0.750000
O O13 0.000000 0.250000 0.968636
#
# Coordination Sequence:
#
# PCOD8282645 Si02
#       6
#    16  16  16  16  16  16
#     4  10  21  39  65  95 129 168 213 261 340 393
#     4  11  22  43  66  85 133 177 207 268 338 383
#     4  11  22  43  64  94 127 171 216 266 329 393
#     4  11  21  40  65  91 129 170 211 271 323 389
#     4  11  20  40  66  94 128 170 210 266 327 400
#     4  12  24  39  65  99 126 167 229 270 318 389
#
# _framework density 20.929877999999999
#
# number of rings (size 3 to 8) (size 9 to 14) (size 15 to 20)
#    0.000    1.000    5.000    3.000    0.000    0.000 
#    3.000   10.000    0.000    0.000    0.000    0.000 
#    0.000    0.000    0.000    0.000    0.000    0.000 
#
# Total GULP energy -594676.509832 kJ/mol
# GULP energy per Si atom -12389.093955 kJ/mol
# Density = 2.088224 g / cm^3
# Si number density = 20.929878 Si / 1000 Ang^3
#
#
#
# Elastic Constant Matrix: (Units=GPa)
#
#
# Indices 1 2 3 4 5 6 
#
# 1 85.1309 32.6246 53.4303 0.0000 0.0000 0.0000
# 2 32.6246 88.7118 50.1875 0.0000 0.0000 0.0000
# 3 53.4303 50.1875 119.2496 0.0000 0.0000 0.0000
# 4 0.0000 0.0000 0.0000 24.4316 0.0000 0.0000
# 5 0.0000 0.0000 0.0000 0.0000 33.7263 0.0000
# 6 0.0000 0.0000 0.0000 0.0000 0.0000 30.7985
#
#
#
# Elastic Compliance Matrix: (Units=1/GPa)
#
#
# Indices 1 2 3 4 5 6 
#
# 1 0.016759 -0.002514 -0.006451 0.000000 0.000000 0.000000
# 2 -0.002514 0.015172 -0.005259 0.000000 0.000000 0.000000
# 3 -0.006451 -0.005259 0.013489 0.000000 0.000000 0.000000
# 4 0.000000 0.000000 0.000000 0.040931 0.000000 0.000000
# 5 0.000000 0.000000 0.000000 0.000000 0.029650 0.000000
# 6 0.000000 0.000000 0.000000 0.000000 0.000000 0.032469
#
#
# Mechanical properties :
#
#
# Convention : Reuss Voigt Hill
#
# Bulk Modulus (GPa) = 58.91718 62.84189 60.87953
# Shear Modulus (GPa) = 27.38595 28.24795 27.81695
#
# Velocity S-wave (km/s) = 3.62119 3.67774 3.64957
# Velocity P-wave (km/s) = 6.75980 6.93718 6.84907
#
# Compressibility (1/GPa) = 0.01697298
#
# Stress axis : x y z
#
# Youngs Moduli (GPa) = 59.67065 65.91028 74.13182
#
# Poissons Ratio (x) = 0.16567 0.47822
# Poissons Ratio (y) = 0.14999 0.38987
# Poissons Ratio (z) = 0.38493 0.34663
#
# Static dielectric constant tensor:
#      x y z
#    x 3.515530 0.000000 0.000000 
#    y 0.000000 4.157300 0.000000 
#    z 0.000000 0.000000 3.732820 
# 
# 
# High freq. dielectric constant tensor:
#      x y z
#    x 1.787600 0.000000 0.000000 
#    y 0.000000 1.836930 0.000000 
#    z 0.000000 0.000000 1.817990 
# 
# From -- ./inp_files/44423.got.cif
#   From: 2010.03.12/outbox.cif.g09.slc.cpg/sg68_23_cif.got.tgz:44423.got - 2010.04.10 23:14:56.
