data_PCOD8282415
_publ_section_title
;
Structure prediction by ZEFSAII (Michael W. Deem and Ramdas Pophale) SiO2 
 PCOD8282415
Probable space group: C C C A
;
_chemical_formula_sum "Si O2"
_cell_formula_units_Z 116
_cell_length_a 13.985866
_cell_length_b 22.620065
_cell_length_c 17.928642
_cell_angle_alpha 90.000000
_cell_angle_beta 90.000000
_cell_angle_gamma 90.000000
_cell_volume 5671.926662
_symmetry_space_group_name_H-M "C C C A"
_symmetry_group_IT_number 68
_space_group.IT_coordinate_system_code '2'
_symmetry_cell_setting 'orthorhombic'
loop_
_space_group_symop_operation_xyz
x,y,z
-x,1/2-y,z
x,1/2-y,1/2-z
-x,y,1/2-z
-x,-y,-z
x,1/2+y,-z
-x,1/2+y,1/2+z
x,-y,1/2+z
1/2+x,1/2+y,z
1/2-x,-y,z
1/2+x,-y,1/2-z
1/2-x,1/2+y,1/2-z
1/2-x,1/2-y,-z
1/2+x,y,-z
1/2-x,y,1/2+z
1/2+x,1/2-y,1/2+z
loop_
_atom_site_type_symbol
_atom_site_label
_atom_site_fract_x
_atom_site_fract_y
_atom_site_fract_z
Si Si1 0.333536 0.834926 0.269704
Si Si2 0.716285 0.668317 0.627916
Si Si3 0.669279 0.047837 0.650047
Si Si4 0.484456 0.868623 0.669050
Si Si5 0.000000 0.750000 0.750000
Si Si6 0.162258 0.297712 0.624998
Si Si7 0.554166 0.033742 0.062841
Si Si8 0.273884 0.606477 0.519709
O O1 0.309598 0.827617 0.181505
O O2 0.351581 0.904662 0.284915
O O3 0.426820 0.795081 0.292977
O O4 0.240716 0.812949 0.313015
O O5 0.626122 0.647076 0.674863
O O6 0.680467 0.731396 0.597048
O O7 0.735769 0.621649 0.562078
O O8 0.690545 0.085837 0.575349
O O9 0.750000 0.000000 0.674109
O O10 0.575114 0.010431 0.631696
O O11 0.500000 0.898500 0.750000
O O12 0.556393 0.812158 0.658392
O O13 0.497824 0.912243 0.599326
O O14 0.174875 0.335308 0.550558
O O15 0.650114 0.053477 0.019872
O O16 0.500000 0.000000 0.000000
#
# Coordination Sequence:
#
# PCOD8282415 Si02
#       8
#    16  16  16  16   4  16  16  16
#     4  11  23  40  64  89 128 170 213 262 326 397
#     4  12  21  37  63  99 126 161 215 267 313 388
#     4   9  20  42  64  83 122 171 205 258 338 382
#     4  11  23  37  65  98 126 163 221 264 326 394
#     4  12  24  44  56  94 128 180 220 256 332 402
#     4  10  20  41  62  89 129 171 195 262 330 379
#     4  10  21  42  63  85 127 171 212 273 326 376
#     4   9  21  37  63  89 124 166 215 255 319 390
#
# _framework density 20.451602999999999
#
# number of rings (size 3 to 8) (size 9 to 14) (size 15 to 20)
#    0.000    1.655    2.759    2.483    0.000    1.655 
#    3.724    3.448    0.000    0.000    0.000    0.000 
#    0.000    0.000    0.000    0.000    0.000    0.000 
#
# Total GULP energy -718605.364460 kJ/mol
# GULP energy per Si atom -12389.747663 kJ/mol
# Density = 2.040505 g / cm^3
# Si number density = 20.451603 Si / 1000 Ang^3
#
#
#
# Elastic Constant Matrix: (Units=GPa)
#
#
# Indices 1 2 3 4 5 6 
#
# 1 88.4725 27.8416 25.2535 0.0000 0.0000 0.0000
# 2 27.8416 119.1056 27.1059 0.0000 0.0000 0.0000
# 3 25.2535 27.1059 66.3510 0.0000 0.0000 0.0000
# 4 0.0000 0.0000 0.0000 30.2702 0.0000 0.0000
# 5 0.0000 0.0000 0.0000 0.0000 21.2619 0.0000
# 6 0.0000 0.0000 0.0000 0.0000 0.0000 18.3064
#
#
#
# Elastic Compliance Matrix: (Units=1/GPa)
#
#
# Indices 1 2 3 4 5 6 
#
# 1 0.013155 -0.002134 -0.004135 0.000000 0.000000 0.000000
# 2 -0.002134 0.009603 -0.003111 0.000000 0.000000 0.000000
# 3 -0.004135 -0.003111 0.017916 0.000000 0.000000 0.000000
# 4 0.000000 0.000000 0.000000 0.033036 0.000000 0.000000
# 5 0.000000 0.000000 0.000000 0.000000 0.047032 0.000000
# 6 0.000000 0.000000 0.000000 0.000000 0.000000 0.054626
#
#
# Mechanical properties :
#
#
# Convention : Reuss Voigt Hill
#
# Bulk Modulus (GPa) = 45.63279 48.25900 46.94590
# Shear Modulus (GPa) = 24.82235 26.88291 25.85263
#
# Velocity S-wave (km/s) = 3.48762 3.62949 3.55926
# Velocity P-wave (km/s) = 6.21120 6.41967 6.31629
#
# Compressibility (1/GPa) = 0.02191406
#
# Stress axis : x y z
#
# Youngs Moduli (GPa) = 76.01797 104.13775 55.81612
#
# Poissons Ratio (x) = 0.22223 0.23080
# Poissons Ratio (y) = 0.16222 0.17363
# Poissons Ratio (z) = 0.31433 0.32394
#
# Static dielectric constant tensor:
#      x y z
#    x 3.760380 0.000000 0.000000 
#    y 0.000000 4.015090 0.000000 
#    z 0.000000 0.000000 3.417520 
# 
# 
# High freq. dielectric constant tensor:
#      x y z
#    x 1.793570 0.000000 0.000000 
#    y 0.000000 1.811200 0.000000 
#    z 0.000000 0.000000 1.775250 
# 
# From -- ./inp_files/31248.got.cif
#   From: 2010.03.12/outbox.cif.g09.slc.cpg/sg68_16_cif.got.tgz:31248.got - 2010.04.10 23:14:56.
