data_PCOD8282380
_publ_section_title
;
Structure prediction by ZEFSAII (Michael W. Deem and Ramdas Pophale) SiO2 
 PCOD8282380
Probable space group: C C C A
;
_chemical_formula_sum "Si O2"
_cell_formula_units_Z 116
_cell_length_a 24.196729
_cell_length_b 18.915347
_cell_length_c 12.689186
_cell_angle_alpha 90.000000
_cell_angle_beta 90.000000
_cell_angle_gamma 90.000000
_cell_volume 5807.707517
_symmetry_space_group_name_H-M "C C C A"
_symmetry_group_IT_number 68
_space_group.IT_coordinate_system_code '2'
_symmetry_cell_setting 'orthorhombic'
loop_
_space_group_symop_operation_xyz
x,y,z
-x,1/2-y,z
x,1/2-y,1/2-z
-x,y,1/2-z
-x,-y,-z
x,1/2+y,-z
-x,1/2+y,1/2+z
x,-y,1/2+z
1/2+x,1/2+y,z
1/2-x,-y,z
1/2+x,-y,1/2-z
1/2-x,1/2+y,1/2-z
1/2-x,1/2-y,-z
1/2+x,y,-z
1/2-x,y,1/2+z
1/2+x,1/2-y,1/2+z
loop_
_atom_site_type_symbol
_atom_site_label
_atom_site_fract_x
_atom_site_fract_y
_atom_site_fract_z
Si Si1 0.833332 0.379713 0.758994
Si Si2 0.945870 0.562020 0.920884
Si Si3 0.373392 0.530188 0.262746
Si Si4 0.595669 0.707422 0.899679
Si Si5 0.225666 0.425852 0.135469
Si Si6 0.000000 0.750000 0.250000
Si Si7 0.355478 0.853650 0.528943
Si Si8 0.434010 0.422482 0.963791
O O1 0.873428 0.447722 0.769813
O O2 0.861893 0.311496 0.807731
O O3 0.776366 0.382018 0.821233
O O4 0.823098 0.369692 0.635734
O O5 0.917466 0.572599 0.807896
O O6 0.006938 0.595215 0.910274
O O7 0.910152 0.599249 0.012339
O O8 0.947580 0.478661 0.945073
O O9 0.311654 0.556684 0.237586
O O10 0.389078 0.544835 0.383406
O O11 0.538221 0.709295 0.834485
O O12 0.618997 0.774599 0.964898
O O13 0.592184 0.647512 0.988318
O O14 0.250000 0.500000 0.084904
O O15 0.190641 0.374547 0.058117
#
# Coordination Sequence:
#
# PCOD8282380 Si02
#       8
#    16  16  16  16  16   4  16  16
#     4  11  21  40  63  93 126 169 216 275 323 385
#     4  10  21  37  60  91 126 171 214 264 330 392
#     4  10  20  40  61  94 128 163 221 275 320 388
#     4  12  25  39  65  97 131 171 220 270 338 395
#     4   9  23  40  67  94 127 175 222 269 330 390
#     4  12  24  44  64  92 142 180 208 278 330 416
#     4  11  22  43  62  93 134 170 216 272 333 403
#     4  11  22  36  63  94 127 169 217 274 323 388
#
# _framework density 19.973457
#
# number of rings (size 3 to 8) (size 9 to 14) (size 15 to 20)
#    0.000    1.379    4.138    1.241    0.000    3.310 
#    0.000    4.138    0.000    3.310    0.000    0.000 
#    0.000    0.000    0.000    0.000    0.000    0.000 
#
# Total GULP energy -718606.242812 kJ/mol
# GULP energy per Si atom -12389.762807 kJ/mol
# Density = 1.992800 g / cm^3
# Si number density = 19.973457 Si / 1000 Ang^3
#
#
#
# Elastic Constant Matrix: (Units=GPa)
#
#
# Indices 1 2 3 4 5 6 
#
# 1 117.1656 42.9259 44.3523 0.0000 0.0000 0.0000
# 2 42.9259 94.7516 33.0647 0.0000 0.0000 0.0000
# 3 44.3523 33.0647 74.4150 0.0000 0.0000 0.0000
# 4 0.0000 0.0000 0.0000 29.5172 0.0000 0.0000
# 5 0.0000 0.0000 0.0000 0.0000 32.5627 0.0000
# 6 0.0000 0.0000 0.0000 0.0000 0.0000 33.0453
#
#
#
# Elastic Compliance Matrix: (Units=1/GPa)
#
#
# Indices 1 2 3 4 5 6 
#
# 1 0.011905 -0.003453 -0.005561 0.000000 0.000000 0.000000
# 2 -0.003453 0.013492 -0.003937 0.000000 0.000000 0.000000
# 3 -0.005561 -0.003937 0.018502 0.000000 0.000000 0.000000
# 4 0.000000 0.000000 0.000000 0.033878 0.000000 0.000000
# 5 0.000000 0.000000 0.000000 0.000000 0.030710 0.000000
# 6 0.000000 0.000000 0.000000 0.000000 0.000000 0.030262
#
#
# Mechanical properties :
#
#
# Convention : Reuss Voigt Hill
#
# Bulk Modulus (GPa) = 55.56511 58.55756 57.06133
# Shear Modulus (GPa) = 29.29960 30.09099 29.69529
#
# Velocity S-wave (km/s) = 3.83420 3.88564 3.86001
# Velocity P-wave (km/s) = 6.89067 7.03649 6.96396
#
# Compressibility (1/GPa) = 0.01799691
#
# Stress axis : x y z
#
# Youngs Moduli (GPa) = 83.99711 74.11800 54.04765
#
# Poissons Ratio (x) = 0.25591 0.30059
# Poissons Ratio (y) = 0.29002 0.21279
# Poissons Ratio (z) = 0.46715 0.29180
#
# Static dielectric constant tensor:
#      x y z
#    x 3.758180 0.000000 0.000000 
#    y 0.000000 3.553300 0.000000 
#    z 0.000000 0.000000 3.518860 
# 
# 
# High freq. dielectric constant tensor:
#      x y z
#    x 1.790930 0.000000 0.000000 
#    y 0.000000 1.766050 0.000000 
#    z 0.000000 0.000000 1.774750 
# 
# From -- ./inp_files/17237.got.cif
#   From: 2010.03.12/outbox.cif.g09.slc.cpg/sg68_9_cif.got.tgz:17237.got - 2010.04.10 23:14:56.
