data_PCOD8282769
_publ_section_title
;
Structure prediction by ZEFSAII (Michael W. Deem and Ramdas Pophale) SiO2 
 PCOD8282769
Probable space group: C C C A
;
_chemical_formula_sum "Si O2"
_cell_formula_units_Z 104
_cell_length_a 26.152921
_cell_length_b 9.687328
_cell_length_c 21.185485
_cell_angle_alpha 90.000000
_cell_angle_beta 90.000000
_cell_angle_gamma 90.000000
_cell_volume 5367.383383
_symmetry_space_group_name_H-M "C C C A"
_symmetry_group_IT_number 68
_space_group.IT_coordinate_system_code '2'
_symmetry_cell_setting 'orthorhombic'
loop_
_space_group_symop_operation_xyz
x,y,z
-x,1/2-y,z
x,1/2-y,1/2-z
-x,y,1/2-z
-x,-y,-z
x,1/2+y,-z
-x,1/2+y,1/2+z
x,-y,1/2+z
1/2+x,1/2+y,z
1/2-x,-y,z
1/2+x,-y,1/2-z
1/2-x,1/2+y,1/2-z
1/2-x,1/2-y,-z
1/2+x,y,-z
1/2-x,y,1/2+z
1/2+x,1/2-y,1/2+z
loop_
_atom_site_type_symbol
_atom_site_label
_atom_site_fract_x
_atom_site_fract_y
_atom_site_fract_z
Si Si1 0.310758 0.987166 0.364308
Si Si2 0.103121 0.022335 0.620665
Si Si3 0.130494 0.298982 0.548281
Si Si4 0.182689 0.799324 0.575682
Si Si5 0.750000 0.500000 0.136330
Si Si6 0.966934 0.886165 0.966861
Si Si7 0.337125 0.908807 0.731105
O O1 0.327815 0.835906 0.383899
O O2 0.250000 0.000000 0.375581
O O3 0.344645 0.095397 0.402697
O O4 0.325958 0.997325 0.291229
O O5 0.111303 0.165303 0.584256
O O6 0.109043 0.050723 0.696302
O O7 0.144405 0.915178 0.597771
O O8 0.049148 0.953013 0.601030
O O9 0.175251 0.263109 0.497973
O O10 0.082065 0.361310 0.511282
O O11 0.237291 0.868690 0.591335
O O12 0.705593 0.438801 0.179344
O O13 0.000000 0.750000 0.954010
O O14 0.000000 0.000000 0.000000
O O15 0.336470 0.750000 0.750000
#
# Coordination Sequence:
#
# PCOD8282769 Si02
#       7
#    16  16  16  16   8  16  16
#     4  12  25  39  64  91 132 183 227 261 312 393
#     4  10  22  39  61  95 125 163 211 274 323 380
#     4  11  23  42  62 100 131 160 212 270 334 389
#     4  10  23  37  57  87 127 166 209 273 323 367
#     4  10  22  34  56  80 126 172 230 264 298 372
#     4  11  22  41  72 100 126 161 208 268 344 414
#     4  11  21  39  59  85 125 175 226 258 308 378
#
# _framework density 19.376294000000001
#
# number of rings (size 3 to 8) (size 9 to 14) (size 15 to 20)
#    0.000    1.231    3.846    2.769    5.385    2.462 
#    0.000    0.000    0.000    0.923    4.000    0.000 
#    0.000    0.000    0.000    0.000    0.000    0.000 
#
# Total GULP energy -644424.090079 kJ/mol
# GULP energy per Si atom -12392.770963 kJ/mol
# Density = 1.933219 g / cm^3
# Si number density = 19.376294 Si / 1000 Ang^3
#
#
#
# Elastic Constant Matrix: (Units=GPa)
#
#
# Indices 1 2 3 4 5 6 
#
# 1 89.6019 45.3474 58.2814 0.0000 0.0000 0.0000
# 2 45.3474 126.1524 31.7460 0.0000 0.0000 0.0000
# 3 58.2814 31.7460 85.1517 0.0000 0.0000 0.0000
# 4 0.0000 0.0000 0.0000 20.3491 0.0000 0.0000
# 5 0.0000 0.0000 0.0000 0.0000 29.5029 0.0000
# 6 0.0000 0.0000 0.0000 0.0000 0.0000 28.2457
#
#
#
# Elastic Compliance Matrix: (Units=1/GPa)
#
#
# Indices 1 2 3 4 5 6 
#
# 1 0.022306 -0.004609 -0.013549 0.000000 0.000000 0.000000
# 2 -0.004609 0.009700 -0.000462 0.000000 0.000000 0.000000
# 3 -0.013549 -0.000462 0.021189 0.000000 0.000000 0.000000
# 4 0.000000 0.000000 0.000000 0.049142 0.000000 0.000000
# 5 0.000000 0.000000 0.000000 0.000000 0.033895 0.000000
# 6 0.000000 0.000000 0.000000 0.000000 0.000000 0.035404
#
#
# Mechanical properties :
#
#
# Convention : Reuss Voigt Hill
#
# Bulk Modulus (GPa) = 62.67165 63.51727 63.09446
# Shear Modulus (GPa) = 23.34344 26.65496 24.99920
#
# Velocity S-wave (km/s) = 3.47471 3.71300 3.59583
# Velocity P-wave (km/s) = 6.96511 7.15778 7.06211
#
# Compressibility (1/GPa) = 0.01595618
#
# Stress axis : x y z
#
# Youngs Moduli (GPa) = 44.83169 103.09501 47.19355
#
# Poissons Ratio (x) = 0.47512 0.63942
# Poissons Ratio (y) = 0.20661 0.02180
# Poissons Ratio (z) = 0.60741 0.04762
#
# Static dielectric constant tensor:
#      x y z
#    x 3.744300 0.000000 0.000000 
#    y 0.000000 3.565830 0.000000 
#    z 0.000000 0.000000 4.319000 
# 
# 
# High freq. dielectric constant tensor:
#      x y z
#    x 1.737570 0.000000 0.000000 
#    y 0.000000 1.777950 0.000000 
#    z 0.000000 0.000000 1.756140 
# 
# From -- ./inp_files/41326.got.cif
#   From: 2010.03.12/outbox.cif.g09.slc.cpg/sg68_21_cif.got.tgz:41326.got - 2010.04.10 23:14:56.
