data_PCOD8282627
_publ_section_title
;
Structure prediction by ZEFSAII (Michael W. Deem and Ramdas Pophale) SiO2 
 PCOD8282627
Probable space group: C C C A
;
_chemical_formula_sum "Si O2"
_cell_formula_units_Z 48
_cell_length_a 4.923940
_cell_length_b 28.882786
_cell_length_c 15.554624
_cell_angle_alpha 90.000000
_cell_angle_beta 90.000000
_cell_angle_gamma 90.000000
_cell_volume 2212.133599
_symmetry_space_group_name_H-M "C C C A"
_symmetry_group_IT_number 68
_space_group.IT_coordinate_system_code '2'
_symmetry_cell_setting 'orthorhombic'
loop_
_space_group_symop_operation_xyz
x,y,z
-x,1/2-y,z
x,1/2-y,1/2-z
-x,y,1/2-z
-x,-y,-z
x,1/2+y,-z
-x,1/2+y,1/2+z
x,-y,1/2+z
1/2+x,1/2+y,z
1/2-x,-y,z
1/2+x,-y,1/2-z
1/2-x,1/2+y,1/2-z
1/2-x,1/2-y,-z
1/2+x,y,-z
1/2-x,y,1/2+z
1/2+x,1/2-y,1/2+z
loop_
_atom_site_type_symbol
_atom_site_label
_atom_site_fract_x
_atom_site_fract_y
_atom_site_fract_z
Si Si1 0.015635 0.804288 0.445351
Si Si2 0.764338 0.052601 0.556160
Si Si3 0.257476 0.871603 0.807301
O O1 0.716195 0.819262 0.476350
O O2 0.000000 0.750000 0.427048
O O3 0.116912 0.827980 0.358329
O O4 0.570329 0.062106 0.474492
O O5 0.669926 0.086707 0.631055
O O6 0.750000 0.000000 0.590122
O O7 0.500000 0.891582 0.750000
O O8 0.000000 0.855713 0.750000
#
# Coordination Sequence:
#
# PCOD8282627 Si02
#       3
#    16  16  16
#     4  10  21  40  63  83 109 152 201 242 285 348
#     4  10  21  39  62  85 115 160 207 245 286 350
#     4  12  24  37  58  90 125 155 189 246 310 358
#
# _framework density 21.698509999999999
#
# number of rings (size 3 to 8) (size 9 to 14) (size 15 to 20)
#    0.000    1.333    0.000    6.000    0.000    2.000 
#    0.000    1.667    0.000    0.000    0.000    0.000 
#    0.000    0.000    0.000    0.000    0.000    0.000 
#
# Total GULP energy -297637.976745 kJ/mol
# GULP energy per Si atom -12401.582364 kJ/mol
# Density = 2.164912 g / cm^3
# Si number density = 21.698510 Si / 1000 Ang^3
#
#
#
# Elastic Constant Matrix: (Units=GPa)
#
#
# Indices 1 2 3 4 5 6 
#
# 1 108.7320 42.6631 31.4427 0.0000 0.0000 0.0000
# 2 42.6631 100.5886 65.1241 0.0000 0.0000 0.0000
# 3 31.4427 65.1241 100.1612 0.0000 0.0000 0.0000
# 4 0.0000 0.0000 0.0000 11.0340 0.0000 0.0000
# 5 0.0000 0.0000 0.0000 0.0000 42.1281 0.0000
# 6 0.0000 0.0000 0.0000 0.0000 0.0000 28.5480
#
#
#
# Elastic Compliance Matrix: (Units=1/GPa)
#
#
# Indices 1 2 3 4 5 6 
#
# 1 0.011064 -0.004221 -0.000729 0.000000 0.000000 0.000000
# 2 -0.004221 0.018779 -0.010885 0.000000 0.000000 0.000000
# 3 -0.000729 -0.010885 0.017290 0.000000 0.000000 0.000000
# 4 0.000000 0.000000 0.000000 0.090629 0.000000 0.000000
# 5 0.000000 0.000000 0.000000 0.000000 0.023737 0.000000
# 6 0.000000 0.000000 0.000000 0.000000 0.000000 0.035029
#
#
# Mechanical properties :
#
#
# Convention : Reuss Voigt Hill
#
# Bulk Modulus (GPa) = 64.66760 65.32684 64.99722
# Shear Modulus (GPa) = 21.42697 27.69216 24.55956
#
# Velocity S-wave (km/s) = 3.14584 3.57630 3.36795
# Velocity P-wave (km/s) = 6.56221 6.87206 6.71892
#
# Compressibility (1/GPa) = 0.01546369
#
# Stress axis : x y z
#
# Youngs Moduli (GPa) = 90.38531 53.25153 57.83679
#
# Poissons Ratio (x) = 0.22475 0.04216
# Poissons Ratio (y) = 0.38148 0.62955
# Poissons Ratio (z) = 0.06589 0.57964
#
# Static dielectric constant tensor:
#      x y z
#    x 4.174840 0.000000 0.000000 
#    y 0.000000 3.879520 0.000000 
#    z 0.000000 0.000000 3.752740 
# 
# 
# High freq. dielectric constant tensor:
#      x y z
#    x 1.874370 0.000000 0.000000 
#    y 0.000000 1.854750 0.000000 
#    z 0.000000 0.000000 1.837890 
# 
# From -- ./inp_files/18145.got.cif
#   From: 2010.03.12/outbox.cif.g09.slc.cpg/sg68_10_cif.got.tgz:18145.got - 2010.04.10 23:14:56.
