data_PCOD8282095
_publ_section_title
;
Structure prediction by ZEFSAII (Michael W. Deem and Ramdas Pophale) SiO2 
 PCOD8282095
Probable space group: C C C A
;
_chemical_formula_sum "Si O2"
_cell_formula_units_Z 80
_cell_length_a 19.050820
_cell_length_b 12.463952
_cell_length_c 19.164486
_cell_angle_alpha 90.000000
_cell_angle_beta 90.000000
_cell_angle_gamma 90.000000
_cell_volume 4550.578570
_symmetry_space_group_name_H-M "C C C A"
_symmetry_group_IT_number 68
_space_group.IT_coordinate_system_code '2'
_symmetry_cell_setting 'orthorhombic'
loop_
_space_group_symop_operation_xyz
x,y,z
-x,1/2-y,z
x,1/2-y,1/2-z
-x,y,1/2-z
-x,-y,-z
x,1/2+y,-z
-x,1/2+y,1/2+z
x,-y,1/2+z
1/2+x,1/2+y,z
1/2-x,-y,z
1/2+x,-y,1/2-z
1/2-x,1/2+y,1/2-z
1/2-x,1/2-y,-z
1/2+x,y,-z
1/2-x,y,1/2+z
1/2+x,1/2-y,1/2+z
loop_
_atom_site_type_symbol
_atom_site_label
_atom_site_fract_x
_atom_site_fract_y
_atom_site_fract_z
Si Si1 0.431578 0.941100 0.429561
Si Si2 0.577406 0.368987 0.225489
Si Si3 0.328575 0.463154 0.693463
Si Si4 0.000000 0.750000 0.642725
Si Si5 0.119894 0.250000 0.250000
Si Si6 0.966409 0.133734 0.928036
O O1 0.361798 0.946531 0.383085
O O2 0.488211 0.855834 0.402128
O O3 0.414790 0.902836 0.508750
O O4 0.466182 0.057230 0.426247
O O5 0.596773 0.250000 0.250000
O O6 0.500000 0.402970 0.250000
O O7 0.631504 0.450591 0.259423
O O8 0.580413 0.373225 0.141665
O O9 0.250000 0.500000 0.681453
O O10 0.330031 0.350461 0.734198
O O11 0.930679 0.721480 0.686033
O O12 0.000000 0.250000 0.938460
#
# Coordination Sequence:
#
# PCOD8282095 Si02
#       6
#    16  16  16   8   8  16
#     4  10  20  33  55  84 114 143 186 231 291 344
#     4  11  20  36  62  88 113 145 198 248 283 330
#     4  11  23  38  57  81 120 157 191 232 293 351
#     4   9  16  32  56  80 113 136 186 240 285 334
#     4   9  20  32  54  82 105 150 190 240 281 336
#     4  11  19  33  57  90 111 141 187 248 288 325
#
# _framework density 17.580182000000001
#
# number of rings (size 3 to 8) (size 9 to 14) (size 15 to 20)
#    0.000    1.600    5.000    1.200    4.200    0.000 
#    0.000    1.000    0.000    4.800    0.000    0.000 
#    0.000    0.000    0.000    0.000    0.000    0.000 
#
# Total GULP energy -495971.128671 kJ/mol
# GULP energy per Si atom -12399.278217 kJ/mol
# Density = 1.754017 g / cm^3
# Si number density = 17.580182 Si / 1000 Ang^3
#
#
#
# Elastic Constant Matrix: (Units=GPa)
#
#
# Indices 1 2 3 4 5 6 
#
# 1 94.8728 65.7872 46.6646 0.0000 0.0000 0.0000
# 2 65.7872 132.4569 63.7970 0.0000 0.0000 0.0000
# 3 46.6646 63.7970 150.9062 0.0000 0.0000 0.0000
# 4 0.0000 0.0000 0.0000 29.4026 0.0000 0.0000
# 5 0.0000 0.0000 0.0000 0.0000 13.9948 0.0000
# 6 0.0000 0.0000 0.0000 0.0000 0.0000 24.8455
#
#
#
# Elastic Compliance Matrix: (Units=1/GPa)
#
#
# Indices 1 2 3 4 5 6 
#
# 1 0.016575 -0.007237 -0.002066 0.000000 0.000000 0.000000
# 2 -0.007237 0.012640 -0.003106 0.000000 0.000000 0.000000
# 3 -0.002066 -0.003106 0.008578 0.000000 0.000000 0.000000
# 4 0.000000 0.000000 0.000000 0.034011 0.000000 0.000000
# 5 0.000000 0.000000 0.000000 0.000000 0.071455 0.000000
# 6 0.000000 0.000000 0.000000 0.000000 0.000000 0.040249
#
#
# Mechanical properties :
#
#
# Convention : Reuss Voigt Hill
#
# Bulk Modulus (GPa) = 77.06669 81.19263 79.12966
# Shear Modulus (GPa) = 23.51269 27.11438 25.31353
#
# Velocity S-wave (km/s) = 3.66109 3.93151 3.79871
# Velocity P-wave (km/s) = 7.86154 8.17884 8.02176
#
# Compressibility (1/GPa) = 0.01297578
#
# Stress axis : x y z
#
# Youngs Moduli (GPa) = 60.33149 79.11377 116.57160
#
# Poissons Ratio (x) = 0.57257 0.24082
# Poissons Ratio (y) = 0.43664 0.36204
# Poissons Ratio (z) = 0.12464 0.24570
#
# Static dielectric constant tensor:
#      x y z
#    x 2.876020 0.000000 0.000000 
#    y 0.000000 3.539890 0.000000 
#    z 0.000000 0.000000 3.640950 
# 
# 
# High freq. dielectric constant tensor:
#      x y z
#    x 1.631100 0.000000 0.000000 
#    y 0.000000 1.704690 0.000000 
#    z 0.000000 0.000000 1.695300 
# 
# From -- ./inp_files/32715.got.cif
#   From: 2010.03.12/outbox.cif.g09.slc.cpg/sg68_17_cif.got.tgz:32715.got - 2010.04.10 23:14:56.
