data_PCOD8282682
_publ_section_title
;
Structure prediction by ZEFSAII (Michael W. Deem and Ramdas Pophale) SiO2 
 PCOD8282682
Probable space group: C C C A
;
_chemical_formula_sum "Si O2"
_cell_formula_units_Z 104
_cell_length_a 10.536268
_cell_length_b 16.742844
_cell_length_c 28.365889
_cell_angle_alpha 90.000000
_cell_angle_beta 90.000000
_cell_angle_gamma 90.000000
_cell_volume 5003.943975
_symmetry_space_group_name_H-M "C C C A"
_symmetry_group_IT_number 68
_space_group.IT_coordinate_system_code '2'
_symmetry_cell_setting 'orthorhombic'
loop_
_space_group_symop_operation_xyz
x,y,z
-x,1/2-y,z
x,1/2-y,1/2-z
-x,y,1/2-z
-x,-y,-z
x,1/2+y,-z
-x,1/2+y,1/2+z
x,-y,1/2+z
1/2+x,1/2+y,z
1/2-x,-y,z
1/2+x,-y,1/2-z
1/2-x,1/2+y,1/2-z
1/2-x,1/2-y,-z
1/2+x,y,-z
1/2-x,y,1/2+z
1/2+x,1/2-y,1/2+z
loop_
_atom_site_type_symbol
_atom_site_label
_atom_site_fract_x
_atom_site_fract_y
_atom_site_fract_z
Si Si1 0.133413 0.441093 0.824254
Si Si2 0.816680 0.751377 0.931933
Si Si3 0.000000 0.457466 0.250000
Si Si4 0.103777 0.127005 0.579677
Si Si5 0.250000 0.000000 0.018472
Si Si6 0.322710 0.830517 0.221572
Si Si7 0.628933 0.146760 0.016690
Si Si8 0.500000 0.250000 0.648405
O O1 0.250000 0.500000 0.836492
O O2 0.024348 0.485408 0.794587
O O3 0.061940 0.412149 0.871041
O O4 0.189754 0.362722 0.798218
O O5 0.701538 0.802050 0.909791
O O6 0.762608 0.679633 0.963329
O O7 0.895025 0.714365 0.887871
O O8 0.900155 0.809751 0.966347
O O9 0.877723 0.399298 0.256470
O O10 0.167906 0.059513 0.548968
O O11 0.984183 0.163952 0.552641
O O12 0.349663 0.948294 0.987927
O O13 0.296017 0.750000 0.250000
O O14 0.430155 0.816195 0.180897
#
# Coordination Sequence:
#
# PCOD8282682 Si02
#       8
#    16  16   8  16   8  16  16   8
#     4  10  22  41  63  95 124 160 206 255 325 382
#     4  10  24  38  62  92 120 167 212 259 310 371
#     4  10  21  40  65  90 124 164 194 260 323 376
#     4  11  20  41  64  88 122 167 207 260 311 383
#     4  10  22  38  58  92 118 174 208 254 314 376
#     4  11  21  43  67  92 124 161 212 264 313 381
#     4  10  23  41  58  88 131 164 208 261 315 366
#     4  12  21  38  66  96 114 164 216 265 294 386
#
# _framework density 20.783607
#
# number of rings (size 3 to 8) (size 9 to 14) (size 15 to 20)
#    0.000    1.538    3.846    0.923    6.462    0.000 
#    8.308    0.385    0.000    0.000    0.000    0.000 
#    0.000    0.000    0.000    0.000    0.000    0.000 
#
# Total GULP energy -644586.792482 kJ/mol
# GULP energy per Si atom -12395.899855 kJ/mol
# Density = 2.073630 g / cm^3
# Si number density = 20.783607 Si / 1000 Ang^3
#
#
#
# Elastic Constant Matrix: (Units=GPa)
#
#
# Indices 1 2 3 4 5 6 
#
# 1 70.6721 23.9643 40.3422 0.0000 0.0000 0.0000
# 2 23.9643 98.8480 38.6421 0.0000 0.0000 0.0000
# 3 40.3422 38.6421 108.6276 0.0000 0.0000 0.0000
# 4 0.0000 0.0000 0.0000 129.9823 0.0000 0.0000
# 5 0.0000 0.0000 0.0000 0.0000 33.3468 0.0000
# 6 0.0000 0.0000 0.0000 0.0000 0.0000 28.5071
#
#
#
# Elastic Compliance Matrix: (Units=1/GPa)
#
#
# Indices 1 2 3 4 5 6 
#
# 1 0.018314 -0.002069 -0.006065 0.000000 0.000000 0.000000
# 2 -0.002069 0.011984 -0.003495 0.000000 0.000000 0.000000
# 3 -0.006065 -0.003495 0.012702 0.000000 0.000000 0.000000
# 4 0.000000 0.000000 0.000000 0.007693 0.000000 0.000000
# 5 0.000000 0.000000 0.000000 0.000000 0.029988 0.000000
# 6 0.000000 0.000000 0.000000 0.000000 0.000000 0.035079
#
#
# Mechanical properties :
#
#
# Convention : Reuss Voigt Hill
#
# Bulk Modulus (GPa) = 50.65488 53.78279 52.21884
# Shear Modulus (GPa) = 34.34101 50.04720 42.19410
#
# Velocity S-wave (km/s) = 4.06927 4.91247 4.51062
# Velocity P-wave (km/s) = 6.81939 7.62301 7.23237
#
# Compressibility (1/GPa) = 0.01974143
#
# Stress axis : x y z
#
# Youngs Moduli (GPa) = 54.60383 83.44235 78.73029
#
# Poissons Ratio (x) = 0.17262 0.47753
# Poissons Ratio (y) = 0.11296 0.27515
# Poissons Ratio (z) = 0.33120 0.29162
#
# Static dielectric constant tensor:
#      x y z
#    x 3.633600 0.000000 0.000000 
#    y 0.000000 3.997590 0.000000 
#    z 0.000000 0.000000 3.843770 
# 
# 
# High freq. dielectric constant tensor:
#      x y z
#    x 1.795610 0.000000 0.000000 
#    y 0.000000 1.815780 0.000000 
#    z 0.000000 0.000000 1.808010 
# 
# From -- ./inp_files/50330.got.cif
#   From: 2010.03.12/outbox.cif.g09.slc.cpg/sg68_26_cif.got.tgz:50330.got - 2010.04.10 23:14:56.
