data_PCOD8282850
_publ_section_title
;
Structure prediction by ZEFSAII (Michael W. Deem and Ramdas Pophale) SiO2 
 PCOD8282850
Probable space group: C C C A
;
_chemical_formula_sum "Si O2"
_cell_formula_units_Z 88
_cell_length_a 10.793170
_cell_length_b 23.497222
_cell_length_c 15.663989
_cell_angle_alpha 90.000000
_cell_angle_beta 90.000000
_cell_angle_gamma 90.000000
_cell_volume 3972.536600
_symmetry_space_group_name_H-M "C C C A"
_symmetry_group_IT_number 68
_space_group.IT_coordinate_system_code '2'
_symmetry_cell_setting 'orthorhombic'
loop_
_space_group_symop_operation_xyz
x,y,z
-x,1/2-y,z
x,1/2-y,1/2-z
-x,y,1/2-z
-x,-y,-z
x,1/2+y,-z
-x,1/2+y,1/2+z
x,-y,1/2+z
1/2+x,1/2+y,z
1/2-x,-y,z
1/2+x,-y,1/2-z
1/2-x,1/2+y,1/2-z
1/2-x,1/2-y,-z
1/2+x,y,-z
1/2-x,y,1/2+z
1/2+x,1/2-y,1/2+z
loop_
_atom_site_type_symbol
_atom_site_label
_atom_site_fract_x
_atom_site_fract_y
_atom_site_fract_z
Si Si1 0.959531 0.371484 0.000105
Si Si2 0.250000 0.000000 0.238088
Si Si3 0.205580 0.308957 0.962276
Si Si4 0.577962 0.087144 0.828150
Si Si5 0.893928 0.598753 0.315906
Si Si6 0.734167 0.686742 0.223233
O O1 0.954105 0.402975 0.909722
O O2 0.072630 0.326235 0.002658
O O3 0.819483 0.350549 0.017174
O O4 0.989312 0.414218 0.079493
O O5 0.305872 0.954989 0.170929
O O6 0.161532 0.963899 0.300589
O O7 0.178977 0.306877 0.860560
O O8 0.250000 0.250000 0.000000
O O9 0.500000 0.061582 0.750000
O O10 0.611980 0.152522 0.805421
O O11 0.797207 0.651140 0.301078
O O12 0.000000 0.611949 0.250000
O O13 0.694800 0.750000 0.250000
#
# Coordination Sequence:
#
# PCOD8282850 Si02
#       6
#    16   8  16  16  16  16
#     4  11  25  42  69  98 139 181 226 286 340 409
#     4  10  24  44  70  94 128 184 228 300 342 412
#     4  11  23  41  63 102 140 182 232 272 333 415
#     4  10  24  44  65  97 136 174 234 284 349 412
#     4  11  22  44  67  96 135 175 236 282 348 410
#     4  10  22  39  65  97 137 180 223 278 339 410
#
# _framework density 22.152092
#
# number of rings (size 3 to 8) (size 9 to 14) (size 15 to 20)
#    0.000    1.455    1.818    2.182    7.636    1.455 
#    0.000    3.636    0.000    0.000    0.000    0.000 
#    0.000    0.000    0.000    0.000    0.000    0.000 
#
# Total GULP energy -545167.122445 kJ/mol
# GULP energy per Si atom -12390.161874 kJ/mol
# Density = 2.210167 g / cm^3
# Si number density = 22.152092 Si / 1000 Ang^3
#
#
#
# Elastic Constant Matrix: (Units=GPa)
#
#
# Indices 1 2 3 4 5 6 
#
# 1 78.9430 21.7282 37.2759 0.0000 0.0000 0.0000
# 2 21.7282 116.8271 37.2752 0.0000 0.0000 0.0000
# 3 37.2759 37.2752 180.8507 0.0000 0.0000 0.0000
# 4 0.0000 0.0000 0.0000 -6.2337 0.0000 0.0000
# 5 0.0000 0.0000 0.0000 0.0000 31.8218 0.0000
# 6 0.0000 0.0000 0.0000 0.0000 0.0000 21.5634
#
#
#
# Elastic Compliance Matrix: (Units=1/GPa)
#
#
# Indices 1 2 3 4 5 6 
#
# 1 0.014398 -0.001853 -0.002586 0.000000 0.000000 0.000000
# 2 -0.001853 0.009401 -0.001556 0.000000 0.000000 0.000000
# 3 -0.002586 -0.001556 0.006383 0.000000 0.000000 0.000000
# 4 0.000000 0.000000 0.000000 -0.160418 0.000000 0.000000
# 5 0.000000 0.000000 0.000000 0.000000 0.031425 0.000000
# 6 0.000000 0.000000 0.000000 0.000000 0.000000 0.046375
#
#
# Mechanical properties :
#
#
# Convention : Reuss Voigt Hill
#
# Bulk Modulus (GPa) = 54.96521 63.24217 59.10369
# Shear Modulus (GPa) = -145.42253 28.11972 -58.65141
#
# Velocity S-wave (km/s) = -8.11109 3.56672 -5.15113
# Velocity P-wave (km/s) = 7.92800 6.75078 2.93941
#
# Compressibility (1/GPa) = 0.01819333
#
# Stress axis : x y z
#
# Youngs Moduli (GPa) = 69.45245 106.37601 156.66533
#
# Poissons Ratio (x) = 0.19710 0.40511
# Poissons Ratio (y) = 0.12869 0.24372
# Poissons Ratio (z) = 0.17959 0.16549
#
# Static dielectric constant tensor:
#      x y z
#    x 4.100580 0.000000 0.000000 
#    y 0.000000 3.837330 0.000000 
#    z 0.000000 0.000000 4.556240 
# 
# 
# High freq. dielectric constant tensor:
#      x y z
#    x 1.866990 0.000000 0.000000 
#    y 0.000000 1.862240 0.000000 
#    z 0.000000 0.000000 1.881750 
# 
# From -- ./inp_files/20945.got.cif
#   From: 2010.03.12/outbox.cif.g09.slc.cpg/sg68_11_cif.got.tgz:20945.got - 2010.04.10 23:14:56.
