data_PCOD8282491
_publ_section_title
;
Structure prediction by ZEFSAII (Michael W. Deem and Ramdas Pophale) SiO2 
 PCOD8282491
Probable space group: C C C A
;
_chemical_formula_sum "Si O2"
_cell_formula_units_Z 80
_cell_length_a 8.856264
_cell_length_b 15.145361
_cell_length_c 28.140208
_cell_angle_alpha 90.000000
_cell_angle_beta 90.000000
_cell_angle_gamma 90.000000
_cell_volume 3774.483114
_symmetry_space_group_name_H-M "C C C A"
_symmetry_group_IT_number 68
_space_group.IT_coordinate_system_code '2'
_symmetry_cell_setting 'orthorhombic'
loop_
_space_group_symop_operation_xyz
x,y,z
-x,1/2-y,z
x,1/2-y,1/2-z
-x,y,1/2-z
-x,-y,-z
x,1/2+y,-z
-x,1/2+y,1/2+z
x,-y,1/2+z
1/2+x,1/2+y,z
1/2-x,-y,z
1/2+x,-y,1/2-z
1/2-x,1/2+y,1/2-z
1/2-x,1/2-y,-z
1/2+x,y,-z
1/2-x,y,1/2+z
1/2+x,1/2-y,1/2+z
loop_
_atom_site_type_symbol
_atom_site_label
_atom_site_fract_x
_atom_site_fract_y
_atom_site_fract_z
Si Si1 0.187515 0.408996 0.464752
Si Si2 0.823781 0.095777 0.136408
Si Si3 0.677534 0.590565 0.144325
Si Si4 0.888727 0.666787 0.962296
Si Si5 0.672398 0.254803 0.306140
O O1 0.250000 0.500000 0.485435
O O2 0.230521 0.394610 0.409881
O O3 0.267842 0.329674 0.494633
O O4 0.007464 0.412245 0.472244
O O5 0.801726 0.148934 0.086944
O O6 0.742497 0.152485 0.177032
O O7 0.998304 0.084179 0.149391
O O8 0.750000 0.000000 0.132514
O O9 0.750000 0.500000 0.164224
O O10 0.733968 0.672899 0.174143
O O11 0.000000 0.750000 0.957272
O O12 0.500000 0.250000 0.323856
O O13 0.683082 0.250000 0.250000
#
# Coordination Sequence:
#
# PCOD8282491 Si02
#       5
#    16  16  16  16  16
#     4  10  21  36  56  85 120 160 202 248 300 359
#     4  11  23  41  64  91 124 165 207 253 306 365
#     4  10  22  41  64  93 126 162 207 254 308 369
#     4  11  22  37  57  87 123 161 208 252 300 357
#     4  11  25  44  66  93 122 155 200 254 314 377
#
# _framework density 21.194956999999999
#
# number of rings (size 3 to 8) (size 9 to 14) (size 15 to 20)
#    0.000    1.400    0.000    6.000    0.000    8.000 
#    0.000    0.000    0.000    0.000    0.000    0.000 
#    0.000    0.000    0.000    0.000    0.000    0.000 
#
# Total GULP energy -496045.576900 kJ/mol
# GULP energy per Si atom -12401.139422 kJ/mol
# Density = 2.114672 g / cm^3
# Si number density = 21.194957 Si / 1000 Ang^3
#
#
#
# Elastic Constant Matrix: (Units=GPa)
#
#
# Indices 1 2 3 4 5 6 
#
# 1 120.5130 37.8158 47.0679 0.0000 0.0000 0.0000
# 2 37.8158 106.8389 34.1769 0.0000 0.0000 0.0000
# 3 47.0679 34.1769 82.1369 0.0000 0.0000 0.0000
# 4 0.0000 0.0000 0.0000 26.1399 0.0000 0.0000
# 5 0.0000 0.0000 0.0000 0.0000 4.9730 0.0000
# 6 0.0000 0.0000 0.0000 0.0000 0.0000 39.8329
#
#
#
# Elastic Compliance Matrix: (Units=1/GPa)
#
#
# Indices 1 2 3 4 5 6 
#
# 1 0.011117 -0.002188 -0.005460 0.000000 0.000000 0.000000
# 2 -0.002188 0.011228 -0.003418 0.000000 0.000000 0.000000
# 3 -0.005460 -0.003418 0.016726 0.000000 0.000000 0.000000
# 4 0.000000 0.000000 0.000000 0.038256 0.000000 0.000000
# 5 0.000000 0.000000 0.000000 0.000000 0.201086 0.000000
# 6 0.000000 0.000000 0.000000 0.000000 0.000000 0.025105
#
#
# Mechanical properties :
#
#
# Convention : Reuss Voigt Hill
#
# Bulk Modulus (GPa) = 59.03782 60.84555 59.94168
# Shear Modulus (GPa) = 15.09228 26.88438 20.98833
#
# Velocity S-wave (km/s) = 2.67136 3.56537 3.15024
# Velocity P-wave (km/s) = 6.11801 6.76159 6.44783
#
# Compressibility (1/GPa) = 0.01693829
#
# Stress axis : x y z
#
# Youngs Moduli (GPa) = 89.95249 89.06485 59.78811
#
# Poissons Ratio (x) = 0.19490 0.32644
# Poissons Ratio (y) = 0.19684 0.20435
# Poissons Ratio (z) = 0.49114 0.30441
#
# Static dielectric constant tensor:
#      x y z
#    x 4.444790 0.000000 0.000000 
#    y 0.000000 4.053610 0.000000 
#    z 0.000000 0.000000 3.715460 
# 
# 
# High freq. dielectric constant tensor:
#      x y z
#    x 1.845490 0.000000 0.000000 
#    y 0.000000 1.848560 0.000000 
#    z 0.000000 0.000000 1.818610 
# 
# From -- ./inp_files/49112.got.cif
#   From: 2010.03.12/outbox.cif.g09.slc.cpg/sg68_25_cif.got.tgz:49112.got - 2010.04.10 23:14:56.
