data_PCOD8282165
_publ_section_title
;
Structure prediction by ZEFSAII (Michael W. Deem and Ramdas Pophale) SiO2 
 PCOD8282165
Probable space group: C C C A
;
_chemical_formula_sum "Si O2"
_cell_formula_units_Z 116
_cell_length_a 20.719920
_cell_length_b 26.201261
_cell_length_c 9.769475
_cell_angle_alpha 90.000000
_cell_angle_beta 90.000000
_cell_angle_gamma 90.000000
_cell_volume 5303.731055
_symmetry_space_group_name_H-M "C C C A"
_symmetry_group_IT_number 68
_space_group.IT_coordinate_system_code '2'
_symmetry_cell_setting 'orthorhombic'
loop_
_space_group_symop_operation_xyz
x,y,z
-x,1/2-y,z
x,1/2-y,1/2-z
-x,y,1/2-z
-x,-y,-z
x,1/2+y,-z
-x,1/2+y,1/2+z
x,-y,1/2+z
1/2+x,1/2+y,z
1/2-x,-y,z
1/2+x,-y,1/2-z
1/2-x,1/2+y,1/2-z
1/2-x,1/2-y,-z
1/2+x,y,-z
1/2-x,y,1/2+z
1/2+x,1/2-y,1/2+z
loop_
_atom_site_type_symbol
_atom_site_label
_atom_site_fract_x
_atom_site_fract_y
_atom_site_fract_z
Si Si1 0.500000 0.250000 0.750000
Si Si2 0.386124 0.287058 0.569574
Si Si3 0.574437 0.031202 0.229574
Si Si4 0.283969 0.837203 0.249525
Si Si5 0.427208 0.887243 0.545115
Si Si6 0.676211 0.686017 0.958595
Si Si7 0.125110 0.425305 0.228662
Si Si8 0.072003 0.105434 0.994837
O O1 0.455245 0.281360 0.644425
O O2 0.340707 0.300978 0.696652
O O3 0.389113 0.333715 0.461008
O O4 0.358188 0.240363 0.481617
O O5 0.500000 0.012781 0.250000
O O6 0.592581 0.079791 0.323327
O O7 0.583605 0.049784 0.073107
O O8 0.625907 0.985986 0.260163
O O9 0.277329 0.827568 0.087152
O O10 0.219210 0.818319 0.322652
O O11 0.304363 0.897272 0.275337
O O12 0.411898 0.921325 0.413473
O O13 0.502415 0.874115 0.547042
O O14 0.621065 0.645514 0.932156
O O15 0.081892 0.397229 0.342854
#
# Coordination Sequence:
#
# PCOD8282165 Si02
#       8
#     4  16  16  16  16  16  16  16
#     4  12  20  36  68 100 134 160 216 286 350 396
#     4  11  22  36  63  95 127 162 209 271 337 392
#     4  10  20  37  57  89 130 167 203 265 339 401
#     4  10  23  40  61  92 124 166 224 269 320 390
#     4  10  21  34  59  95 129 159 208 263 337 398
#     4  11  22  42  61  88 126 171 221 266 323 388
#     4  10  20  35  61  91 120 162 218 267 325 383
#     4  10  21  36  59  88 125 166 209 265 324 397
#
# _framework density 21.871396000000001
#
# number of rings (size 3 to 8) (size 9 to 14) (size 15 to 20)
#    0.000    1.655    1.379    3.310    3.862    4.414 
#    0.000    2.759    0.000    5.793    0.000    0.000 
#    0.000    0.000    0.000    0.000    0.000    0.000 
#
# Total GULP energy -718946.609427 kJ/mol
# GULP energy per Si atom -12395.631197 kJ/mol
# Density = 2.182162 g / cm^3
# Si number density = 21.871396 Si / 1000 Ang^3
#
#
#
# Elastic Constant Matrix: (Units=GPa)
#
#
# Indices 1 2 3 4 5 6 
#
# 1 65.3940 41.0134 31.6650 0.0000 0.0000 0.0000
# 2 41.0134 124.9935 20.7907 0.0000 0.0000 0.0000
# 3 31.6650 20.7907 63.9468 0.0000 0.0000 0.0000
# 4 0.0000 0.0000 0.0000 29.5921 0.0000 0.0000
# 5 0.0000 0.0000 0.0000 0.0000 31.7429 0.0000
# 6 0.0000 0.0000 0.0000 0.0000 0.0000 20.3129
#
#
#
# Elastic Compliance Matrix: (Units=1/GPa)
#
#
# Indices 1 2 3 4 5 6 
#
# 1 0.023962 -0.006225 -0.009841 0.000000 0.000000 0.000000
# 2 -0.006225 0.010075 -0.000193 0.000000 0.000000 0.000000
# 3 -0.009841 -0.000193 0.020574 0.000000 0.000000 0.000000
# 4 0.000000 0.000000 0.000000 0.033793 0.000000 0.000000
# 5 0.000000 0.000000 0.000000 0.000000 0.031503 0.000000
# 6 0.000000 0.000000 0.000000 0.000000 0.000000 0.049230
#
#
# Mechanical properties :
#
#
# Convention : Reuss Voigt Hill
#
# Bulk Modulus (GPa) = 45.26640 49.03026 47.14833
# Shear Modulus (GPa) = 23.92118 27.05392 25.48755
#
# Velocity S-wave (km/s) = 3.31073 3.52085 3.41741
# Velocity P-wave (km/s) = 5.94610 6.24458 6.09717
#
# Compressibility (1/GPa) = 0.02209144
#
# Stress axis : x y z
#
# Youngs Moduli (GPa) = 41.73327 99.25313 48.60527
#
# Poissons Ratio (x) = 0.61790 0.47834
# Poissons Ratio (y) = 0.25981 0.00938
# Poissons Ratio (z) = 0.41071 0.01916
#
# Static dielectric constant tensor:
#      x y z
#    x 3.713600 0.000000 0.000000 
#    y 0.000000 4.056010 0.000000 
#    z 0.000000 0.000000 3.943350 
# 
# 
# High freq. dielectric constant tensor:
#      x y z
#    x 1.835150 0.000000 0.000000 
#    y 0.000000 1.864570 0.000000 
#    z 0.000000 0.000000 1.865070 
# 
# From -- ./inp_files/8344.got.cif
#   From: 2010.03.12/outbox.cif.g09.slc.cpg/sg68_5_cif.got.tgz:8344.got - 2010.04.10 23:14:56.
