data_PCOD8282834
_publ_section_title
;
Structure prediction by ZEFSAII (Michael W. Deem and Ramdas Pophale) SiO2 
 PCOD8282834
Probable space group: C C C A
;
_chemical_formula_sum "Si O2"
_cell_formula_units_Z 112
_cell_length_a 14.843473
_cell_length_b 11.415249
_cell_length_c 31.558528
_cell_angle_alpha 90.000000
_cell_angle_beta 90.000000
_cell_angle_gamma 90.000000
_cell_volume 5347.338218
_symmetry_space_group_name_H-M "C C C A"
_symmetry_group_IT_number 68
_space_group.IT_coordinate_system_code '2'
_symmetry_cell_setting 'orthorhombic'
loop_
_space_group_symop_operation_xyz
x,y,z
-x,1/2-y,z
x,1/2-y,1/2-z
-x,y,1/2-z
-x,-y,-z
x,1/2+y,-z
-x,1/2+y,1/2+z
x,-y,1/2+z
1/2+x,1/2+y,z
1/2-x,-y,z
1/2+x,-y,1/2-z
1/2-x,1/2+y,1/2-z
1/2-x,1/2-y,-z
1/2+x,y,-z
1/2-x,y,1/2+z
1/2+x,1/2-y,1/2+z
loop_
_atom_site_type_symbol
_atom_site_label
_atom_site_fract_x
_atom_site_fract_y
_atom_site_fract_z
Si Si1 0.329024 0.415643 0.520133
Si Si2 0.649084 0.542404 0.356382
Si Si3 0.077182 0.903689 0.432219
Si Si4 0.891223 0.753623 0.912906
Si Si5 0.999252 0.387621 0.299615
Si Si6 0.624109 0.656217 0.567750
Si Si7 0.651380 0.521120 0.138066
O O1 0.250000 0.500000 0.539219
O O2 0.413933 0.495769 0.532359
O O3 0.344533 0.288483 0.542804
O O4 0.317463 0.402107 0.469877
O O5 0.750000 0.500000 0.347340
O O6 0.590008 0.457170 0.385622
O O7 0.649100 0.670155 0.377008
O O8 0.594969 0.553034 0.312617
O O9 0.147591 0.794774 0.434025
O O10 0.979858 0.856335 0.442323
O O11 0.856305 0.882419 0.899808
O O12 0.000000 0.750000 0.915505
O O13 0.000000 0.250000 0.311292
O O14 0.000000 0.409578 0.250000
O O15 0.082094 0.450908 0.324014
O O16 0.638302 0.602371 0.614129
O O17 0.750000 0.500000 0.158451
#
# Coordination Sequence:
#
# PCOD8282834 Si02
#       7
#    16  16  16  16  16  16  16
#     4  11  25  39  58  88 127 170 232 281 322 383
#     4  11  21  41  71  94 125 167 218 269 328 398
#     4  10  22  39  59  86 121 170 226 262 333 389
#     4  11  21  41  67  92 126 178 230 276 325 390
#     4  11  23  46  74 103 133 167 219 273 330 412
#     4  11  24  38  58  88 128 180 212 276 328 395
#     4  12  24  39  67  99 135 174 217 277 335 391
#
# _framework density 20.945
#
# number of rings (size 3 to 8) (size 9 to 14) (size 15 to 20)
#    0.000    1.000    4.286    3.429    8.000    1.143 
#    0.000    0.000    0.000    1.714    0.000    0.000 
#    0.000    0.000    0.000    0.000    0.000    0.000 
#
# Total GULP energy -693827.187479 kJ/mol
# GULP energy per Si atom -12389.771205 kJ/mol
# Density = 2.089733 g / cm^3
# Si number density = 20.945000 Si / 1000 Ang^3
#
#
#
# Elastic Constant Matrix: (Units=GPa)
#
#
# Indices 1 2 3 4 5 6 
#
# 1 99.2632 4.0399 26.8756 0.0000 0.0000 0.0000
# 2 4.0399 66.6975 22.7718 0.0000 0.0000 0.0000
# 3 26.8756 22.7718 110.0024 0.0000 0.0000 0.0000
# 4 0.0000 0.0000 0.0000 6.1953 0.0000 0.0000
# 5 0.0000 0.0000 0.0000 0.0000 7.2658 0.0000
# 6 0.0000 0.0000 0.0000 0.0000 0.0000 31.3552
#
#
#
# Elastic Compliance Matrix: (Units=1/GPa)
#
#
# Indices 1 2 3 4 5 6 
#
# 1 0.010792 0.000265 -0.002692 0.000000 0.000000 0.000000
# 2 0.000265 0.016140 -0.003406 0.000000 0.000000 0.000000
# 3 -0.002692 -0.003406 0.010453 0.000000 0.000000 0.000000
# 4 0.000000 0.000000 0.000000 0.161414 0.000000 0.000000
# 5 0.000000 0.000000 0.000000 0.000000 0.137631 0.000000
# 6 0.000000 0.000000 0.000000 0.000000 0.000000 0.031893
#
#
# Mechanical properties :
#
#
# Convention : Reuss Voigt Hill
#
# Bulk Modulus (GPa) = 38.87903 42.59310 40.73606
# Shear Modulus (GPa) = 12.86801 23.78165 18.32483
#
# Velocity S-wave (km/s) = 2.48134 3.37327 2.96108
# Velocity P-wave (km/s) = 5.17804 5.96253 5.58408
#
# Compressibility (1/GPa) = 0.02572081
#
# Stress axis : x y z
#
# Youngs Moduli (GPa) = 92.65956 61.95846 95.66262
#
# Poissons Ratio (x) = -0.01644 0.25749
# Poissons Ratio (y) = -0.02458 0.32582
# Poissons Ratio (z) = 0.24941 0.21103
#
# Static dielectric constant tensor:
#      x y z
#    x 3.912420 0.000000 0.000000 
#    y 0.000000 4.145110 0.000000 
#    z 0.000000 0.000000 3.453850 
# 
# 
# High freq. dielectric constant tensor:
#      x y z
#    x 1.832420 0.000000 0.000000 
#    y 0.000000 1.832050 0.000000 
#    z 0.000000 0.000000 1.787240 
# 
# From -- ./inp_files/55253.got.cif
#   From: 2010.03.12/outbox.cif.g09.slc.cpg/sg68_28_cif.got.tgz:55253.got - 2010.04.10 23:14:56.
