data_PCOD8282687
_publ_section_title
;
Structure prediction by ZEFSAII (Michael W. Deem and Ramdas Pophale) SiO2 
 PCOD8282687
Probable space group: C C C A
;
_chemical_formula_sum "Si O2"
_cell_formula_units_Z 60
_cell_length_a 11.934965
_cell_length_b 16.731821
_cell_length_c 13.255834
_cell_angle_alpha 90.000000
_cell_angle_beta 90.000000
_cell_angle_gamma 90.000000
_cell_volume 2647.106512
_symmetry_space_group_name_H-M "C C C A"
_symmetry_group_IT_number 68
_space_group.IT_coordinate_system_code '2'
_symmetry_cell_setting 'orthorhombic'
loop_
_space_group_symop_operation_xyz
x,y,z
-x,1/2-y,z
x,1/2-y,1/2-z
-x,y,1/2-z
-x,-y,-z
x,1/2+y,-z
-x,1/2+y,1/2+z
x,-y,1/2+z
1/2+x,1/2+y,z
1/2-x,-y,z
1/2+x,-y,1/2-z
1/2-x,1/2+y,1/2-z
1/2-x,1/2-y,-z
1/2+x,y,-z
1/2-x,y,1/2+z
1/2+x,1/2-y,1/2+z
loop_
_atom_site_type_symbol
_atom_site_label
_atom_site_fract_x
_atom_site_fract_y
_atom_site_fract_z
Si Si1 0.304469 0.864870 0.423380
Si Si2 0.317197 0.641148 0.309096
Si Si3 0.500000 0.250000 0.750000
Si Si4 0.750000 0.000000 0.940012
Si Si5 0.375511 0.757904 0.588192
O O1 0.331659 0.881191 0.308102
O O2 0.324309 0.946076 0.485773
O O3 0.382949 0.799465 0.478234
O O4 0.176882 0.830289 0.429325
O O5 0.423370 0.698463 0.327705
O O6 0.325985 0.558293 0.370601
O O7 0.202717 0.689359 0.335345
O O8 0.500000 0.750000 0.634570
#
# Coordination Sequence:
#
# PCOD8282687 Si02
#       5
#    16  16   4   8  16
#     4  10  21  40  65  99 137 186 229 297 357 434
#     4  11  23  44  72 102 142 187 240 300 363 438
#     4  12  24  44  78 104 136 196 248 290 368 444
#     4  10  24  44  62 102 148 176 242 292 368 426
#     4  10  22  41  71 105 137 183 249 302 357 431
#
# _framework density 22.666257000000002
#
# number of rings (size 3 to 8) (size 9 to 14) (size 15 to 20)
#    0.000    1.600    2.667    0.800    1.867    2.133 
#    0.000   17.333    0.000    0.000    0.000    0.000 
#    0.000    0.000    0.000    0.000    0.000    0.000 
#
# Total GULP energy -371652.245946 kJ/mol
# GULP energy per Si atom -12388.408198 kJ/mol
# Density = 2.261467 g / cm^3
# Si number density = 22.666257 Si / 1000 Ang^3
#
#
#
# Elastic Constant Matrix: (Units=GPa)
#
#
# Indices 1 2 3 4 5 6 
#
# 1 129.1598 42.1663 26.0498 0.0000 0.0000 0.0000
# 2 42.1663 147.3972 62.3928 0.0000 0.0000 0.0000
# 3 26.0498 62.3928 167.3893 0.0000 0.0000 0.0000
# 4 0.0000 0.0000 0.0000 51.1518 0.0000 0.0000
# 5 0.0000 0.0000 0.0000 0.0000 20.9173 0.0000
# 6 0.0000 0.0000 0.0000 0.0000 0.0000 14.3897
#
#
#
# Elastic Compliance Matrix: (Units=1/GPa)
#
#
# Indices 1 2 3 4 5 6 
#
# 1 0.008575 -0.002242 -0.000499 0.000000 0.000000 0.000000
# 2 -0.002242 0.008642 -0.002872 0.000000 0.000000 0.000000
# 3 -0.000499 -0.002872 0.007122 0.000000 0.000000 0.000000
# 4 0.000000 0.000000 0.000000 0.019550 0.000000 0.000000
# 5 0.000000 0.000000 0.000000 0.000000 0.047807 0.000000
# 6 0.000000 0.000000 0.000000 0.000000 0.000000 0.069494
#
#
# Mechanical properties :
#
#
# Convention : Reuss Voigt Hill
#
# Bulk Modulus (GPa) = 76.26045 78.35156 77.30600
# Shear Modulus (GPa) = 28.28274 38.18092 33.23183
#
# Velocity S-wave (km/s) = 3.53624 4.10870 3.83317
# Velocity P-wave (km/s) = 7.09868 7.55983 7.33288
#
# Compressibility (1/GPa) = 0.01311296
#
# Stress axis : x y z
#
# Youngs Moduli (GPa) = 116.62006 115.72059 140.40426
#
# Poissons Ratio (x) = 0.25943 0.07004
# Poissons Ratio (y) = 0.26145 0.40326
# Poissons Ratio (z) = 0.05817 0.33237
#
# Static dielectric constant tensor:
#      x y z
#    x 3.799100 0.000000 0.000000 
#    y 0.000000 4.281020 0.000000 
#    z 0.000000 0.000000 4.336450 
# 
# 
# High freq. dielectric constant tensor:
#      x y z
#    x 1.854370 0.000000 0.000000 
#    y 0.000000 1.888860 0.000000 
#    z 0.000000 0.000000 1.919810 
# 
# From -- ./inp_files/20362.got.cif
#   From: 2010.03.12/outbox.cif.g09.slc.cpg/sg68_11_cif.got.tgz:20362.got - 2010.04.10 23:14:56.
