data_PCOD8282063
_publ_section_title
;
Structure prediction by ZEFSAII (Michael W. Deem and Ramdas Pophale) SiO2 
 PCOD8282063
Probable space group: C C C A
;
_chemical_formula_sum "Si O2"
_cell_formula_units_Z 112
_cell_length_a 13.950186
_cell_length_b 28.862274
_cell_length_c 13.161503
_cell_angle_alpha 90.000000
_cell_angle_beta 90.000000
_cell_angle_gamma 90.000000
_cell_volume 5299.269792
_symmetry_space_group_name_H-M "C C C A"
_symmetry_group_IT_number 68
_space_group.IT_coordinate_system_code '2'
_symmetry_cell_setting 'orthorhombic'
loop_
_space_group_symop_operation_xyz
x,y,z
-x,1/2-y,z
x,1/2-y,1/2-z
-x,y,1/2-z
-x,-y,-z
x,1/2+y,-z
-x,1/2+y,1/2+z
x,-y,1/2+z
1/2+x,1/2+y,z
1/2-x,-y,z
1/2+x,-y,1/2-z
1/2-x,1/2+y,1/2-z
1/2-x,1/2-y,-z
1/2+x,y,-z
1/2-x,y,1/2+z
1/2+x,1/2-y,1/2+z
loop_
_atom_site_type_symbol
_atom_site_label
_atom_site_fract_x
_atom_site_fract_y
_atom_site_fract_z
Si Si1 0.037194 0.541807 0.863460
Si Si2 0.241842 0.826020 0.492322
Si Si3 0.204224 0.158099 0.773393
Si Si4 0.555509 0.560941 0.571476
Si Si5 0.812714 0.250000 0.250000
Si Si6 0.608724 0.756952 0.031696
Si Si7 0.238745 0.587301 0.877745
Si Si8 0.500000 0.870916 0.750000
O O1 0.020504 0.487733 0.882809
O O2 0.150334 0.552433 0.870194
O O3 0.000000 0.555683 0.750000
O O4 0.982390 0.568773 0.955348
O O5 0.247951 0.848830 0.383245
O O6 0.346977 0.804016 0.517955
O O7 0.164195 0.785776 0.483509
O O8 0.208020 0.865153 0.568108
O O9 0.248665 0.204634 0.721820
O O10 0.230793 0.107137 0.730829
O O11 0.089685 0.162919 0.767639
O O12 0.671505 0.562647 0.567287
O O13 0.512356 0.599115 0.646969
O O14 0.879483 0.240304 0.153459
O O15 0.500000 0.750000 0.000216
#
# Coordination Sequence:
#
# PCOD8282063 Si02
#       8
#    16  16  16  16   8  16  16   8
#     4  11  24  44  67 102 132 170 220 268 327 398
#     4  10  22  40  56  89 124 156 214 269 305 385
#     4  10  22  37  61  86 127 164 213 267 313 378
#     4  10  23  44  68  96 135 170 215 270 324 396
#     4  10  19  41  54  88 124 158 215 268 311 384
#     4  10  21  38  61  82 118 168 207 261 324 371
#     4  11  23  42  66  95 130 169 212 268 326 379
#     4  10  20  41  64  92 124 180 210 263 332 386
#
# _framework density 21.134986000000001
#
# number of rings (size 3 to 8) (size 9 to 14) (size 15 to 20)
#    0.000    1.714    2.143    1.500    2.000    3.714 
#    2.571    1.429    0.000    0.000    0.000    0.000 
#    0.000    0.000    0.000    0.000    0.000    0.000 
#
# Total GULP energy -694105.263580 kJ/mol
# GULP energy per Si atom -12394.736850 kJ/mol
# Density = 2.108688 g / cm^3
# Si number density = 21.134986 Si / 1000 Ang^3
#
#
#
# Elastic Constant Matrix: (Units=GPa)
#
#
# Indices 1 2 3 4 5 6 
#
# 1 133.0546 10.7289 24.4104 0.0000 0.0000 0.0000
# 2 10.7289 46.2935 8.6340 0.0000 0.0000 0.0000
# 3 24.4104 8.6340 101.2531 0.0000 0.0000 0.0000
# 4 0.0000 0.0000 0.0000 3.5552 0.0000 0.0000
# 5 0.0000 0.0000 0.0000 0.0000 23.3260 0.0000
# 6 0.0000 0.0000 0.0000 0.0000 0.0000 25.0852
#
#
#
# Elastic Compliance Matrix: (Units=1/GPa)
#
#
# Indices 1 2 3 4 5 6 
#
# 1 0.007966 -0.001512 -0.001792 0.000000 0.000000 0.000000
# 2 -0.001512 0.022237 -0.001532 0.000000 0.000000 0.000000
# 3 -0.001792 -0.001532 0.010439 0.000000 0.000000 0.000000
# 4 0.000000 0.000000 0.000000 0.281276 0.000000 0.000000
# 5 0.000000 0.000000 0.000000 0.000000 0.042871 0.000000
# 6 0.000000 0.000000 0.000000 0.000000 0.000000 0.039864
#
#
# Mechanical properties :
#
#
# Convention : Reuss Voigt Hill
#
# Bulk Modulus (GPa) = 32.28750 40.90531 36.59641
# Shear Modulus (GPa) = 11.77447 26.18181 18.97814
#
# Velocity S-wave (km/s) = 2.36287 3.52346 2.99983
# Velocity P-wave (km/s) = 4.77014 5.99578 5.41773
#
# Compressibility (1/GPa) = 0.03097173
#
# Stress axis : x y z
#
# Youngs Moduli (GPa) = 125.52826 44.96923 95.79672
#
# Poissons Ratio (x) = 0.06800 0.17163
# Poissons Ratio (y) = 0.18981 0.14673
# Poissons Ratio (z) = 0.22490 0.06888
#
# Static dielectric constant tensor:
#      x y z
#    x 3.776140 0.000000 0.000000 
#    y 0.000000 3.734060 0.000000 
#    z 0.000000 0.000000 4.026930 
# 
# 
# High freq. dielectric constant tensor:
#      x y z
#    x 1.821450 0.000000 0.000000 
#    y 0.000000 1.822300 0.000000 
#    z 0.000000 0.000000 1.840860 
# 
# From -- ./inp_files/22758.got.cif
#   From: 2010.03.12/outbox.cif.g09.slc.cpg/sg68_12_cif.got.tgz:22758.got - 2010.04.10 23:14:56.
