data_PCOD8282915
_publ_section_title
;
Structure prediction by ZEFSAII (Michael W. Deem and Ramdas Pophale) SiO2 
 PCOD8282915
Probable space group: C C C A
;
_chemical_formula_sum "Si O2"
_cell_formula_units_Z 60
_cell_length_a 11.773630
_cell_length_b 18.939742
_cell_length_c 12.918252
_cell_angle_alpha 90.000000
_cell_angle_beta 90.000000
_cell_angle_gamma 90.000000
_cell_volume 2880.634743
_symmetry_space_group_name_H-M "C C C A"
_symmetry_group_IT_number 68
_space_group.IT_coordinate_system_code '2'
_symmetry_cell_setting 'orthorhombic'
loop_
_space_group_symop_operation_xyz
x,y,z
-x,1/2-y,z
x,1/2-y,1/2-z
-x,y,1/2-z
-x,-y,-z
x,1/2+y,-z
-x,1/2+y,1/2+z
x,-y,1/2+z
1/2+x,1/2+y,z
1/2-x,-y,z
1/2+x,-y,1/2-z
1/2-x,1/2+y,1/2-z
1/2-x,1/2-y,-z
1/2+x,y,-z
1/2-x,y,1/2+z
1/2+x,1/2-y,1/2+z
loop_
_atom_site_type_symbol
_atom_site_label
_atom_site_fract_x
_atom_site_fract_y
_atom_site_fract_z
Si Si1 0.454666 0.328808 0.599591
Si Si2 0.000000 0.018489 0.750000
Si Si3 0.106640 0.369923 0.876790
Si Si4 0.500000 0.250000 0.250000
Si Si5 0.849594 0.105391 0.285774
O O1 0.500000 0.250000 0.584834
O O2 0.389105 0.356983 0.498896
O O3 0.563856 0.377903 0.620491
O O4 0.365747 0.335190 0.695565
O O5 0.987232 0.070311 0.849661
O O6 0.886788 0.970465 0.737622
O O7 0.080464 0.296084 0.822592
O O8 0.225338 0.397946 0.832284
#
# Coordination Sequence:
#
# PCOD8282915 Si02
#       5
#    16   8  16   4  16
#     4  10  22  41  62  98 129 167 223 262 318 399
#     4   9  22  43  59  94 129 160 224 258 305 388
#     4  11  22  40  66  93 132 171 209 268 326 375
#     4  10  24  36  56 104 130 156 214 268 306 392
#     4  10  23  40  66  92 130 176 209 272 320 378
#
# _framework density 20.828742999999999
#
# number of rings (size 3 to 8) (size 9 to 14) (size 15 to 20)
#    0.000    2.133    1.333    2.400    3.733    9.600 
#    0.000    5.333    0.000    0.000    0.000    0.000 
#    0.000    0.000    0.000    0.000    0.000    0.000 
#
# Total GULP energy -371864.435906 kJ/mol
# GULP energy per Si atom -12395.481197 kJ/mol
# Density = 2.078134 g / cm^3
# Si number density = 20.828743 Si / 1000 Ang^3
#
#
#
# Elastic Constant Matrix: (Units=GPa)
#
#
# Indices 1 2 3 4 5 6 
#
# 1 111.1476 48.6033 61.3521 0.0000 0.0000 0.0000
# 2 48.6033 121.9143 47.8967 0.0000 0.0000 0.0000
# 3 61.3521 47.8967 138.9701 0.0000 0.0000 0.0000
# 4 0.0000 0.0000 0.0000 21.5265 0.0000 0.0000
# 5 0.0000 0.0000 0.0000 0.0000 34.4087 0.0000
# 6 0.0000 0.0000 0.0000 0.0000 0.0000 24.5006
#
#
#
# Elastic Compliance Matrix: (Units=1/GPa)
#
#
# Indices 1 2 3 4 5 6 
#
# 1 0.013002 -0.003387 -0.004573 0.000000 0.000000 0.000000
# 2 -0.003387 0.010369 -0.002079 0.000000 0.000000 0.000000
# 3 -0.004573 -0.002079 0.009931 0.000000 0.000000 0.000000
# 4 0.000000 0.000000 0.000000 0.046454 0.000000 0.000000
# 5 0.000000 0.000000 0.000000 0.000000 0.029062 0.000000
# 6 0.000000 0.000000 0.000000 0.000000 0.000000 0.040815
#
#
# Mechanical properties :
#
#
# Convention : Reuss Voigt Hill
#
# Bulk Modulus (GPa) = 75.60998 76.41512 76.01255
# Shear Modulus (GPa) = 28.71578 30.36583 29.54080
#
# Velocity S-wave (km/s) = 3.71706 3.82236 3.77008
# Velocity P-wave (km/s) = 7.40281 7.49984 7.45148
#
# Compressibility (1/GPa) = 0.01322577
#
# Stress axis : x y z
#
# Youngs Moduli (GPa) = 76.90943 96.43765 100.69499
#
# Poissons Ratio (x) = 0.32664 0.46046
# Poissons Ratio (y) = 0.26050 0.20930
# Poissons Ratio (z) = 0.35170 0.20045
#
# Static dielectric constant tensor:
#      x y z
#    x 3.564410 0.000000 0.000000 
#    y 0.000000 4.043320 0.000000 
#    z 0.000000 0.000000 3.686080 
# 
# 
# High freq. dielectric constant tensor:
#      x y z
#    x 1.797980 0.000000 0.000000 
#    y 0.000000 1.832650 0.000000 
#    z 0.000000 0.000000 1.805020 
# 
# From -- ./inp_files/15169.got.cif
#   From: 2010.03.12/outbox.cif.g09.slc.cpg/sg68_8_cif.got.tgz:15169.got - 2010.04.10 23:14:56.
