data_PCOD8282363
_publ_section_title
;
Structure prediction by ZEFSAII (Michael W. Deem and Ramdas Pophale) SiO2 
 PCOD8282363
Probable space group: C C C A
;
_chemical_formula_sum "Si O2"
_cell_formula_units_Z 112
_cell_length_a 18.374332
_cell_length_b 16.882189
_cell_length_c 17.839178
_cell_angle_alpha 90.000000
_cell_angle_beta 90.000000
_cell_angle_gamma 90.000000
_cell_volume 5533.694205
_symmetry_space_group_name_H-M "C C C A"
_symmetry_group_IT_number 68
_space_group.IT_coordinate_system_code '2'
_symmetry_cell_setting 'orthorhombic'
loop_
_space_group_symop_operation_xyz
x,y,z
-x,1/2-y,z
x,1/2-y,1/2-z
-x,y,1/2-z
-x,-y,-z
x,1/2+y,-z
-x,1/2+y,1/2+z
x,-y,1/2+z
1/2+x,1/2+y,z
1/2-x,-y,z
1/2+x,-y,1/2-z
1/2-x,1/2+y,1/2-z
1/2-x,1/2-y,-z
1/2+x,y,-z
1/2-x,y,1/2+z
1/2+x,1/2-y,1/2+z
loop_
_atom_site_type_symbol
_atom_site_label
_atom_site_fract_x
_atom_site_fract_y
_atom_site_fract_z
Si Si1 0.826771 0.387616 0.255973
Si Si2 0.325904 0.170917 0.299871
Si Si3 0.924155 0.970907 0.209588
Si Si4 0.621949 0.676154 0.403497
Si Si5 0.867221 0.857443 0.907190
Si Si6 0.226949 0.670375 0.039100
Si Si7 0.989187 0.551819 0.928163
O O1 0.742972 0.384136 0.280360
O O2 0.859185 0.476182 0.255797
O O3 0.876757 0.334641 0.312535
O O4 0.825805 0.353839 0.171725
O O5 0.328071 0.250000 0.250000
O O6 0.398744 0.120142 0.285229
O O7 0.323177 0.190315 0.388636
O O8 0.000000 0.983065 0.250000
O O9 0.940622 0.997067 0.125308
O O10 0.608975 0.767446 0.424840
O O11 0.696112 0.633994 0.433910
O O12 0.555814 0.631559 0.443829
O O13 0.932748 0.919547 0.897458
O O14 0.815287 0.883886 0.977367
O O15 0.250000 0.750000 0.000000
O O16 0.000000 0.500000 0.000000
#
# Coordination Sequence:
#
# PCOD8282363 Si02
#       7
#    16  16  16  16  16  16  16
#     4  10  20  39  66  95 119 157 201 265 319 371
#     4  11  22  40  66  89 124 170 211 256 311 375
#     4  11  23  43  59  90 130 166 211 254 312 384
#     4   9  20  36  62  90 122 151 202 255 320 371
#     4  11  19  37  63  91 119 153 205 261 312 364
#     4   9  19  37  60  91 121 150 203 265 305 358
#     4  11  23  40  58  85 126 166 201 249 314 377
#
# _framework density 20.239643999999998
#
# number of rings (size 3 to 8) (size 9 to 14) (size 15 to 20)
#    0.000    1.714    1.429    4.714    0.000    0.286 
#    7.714    3.571    0.000    0.000    0.000    0.000 
#    0.000    0.000    0.000    0.000    0.000    0.000 
#
# Total GULP energy -694028.778796 kJ/mol
# GULP energy per Si atom -12393.371050 kJ/mol
# Density = 2.019358 g / cm^3
# Si number density = 20.239644 Si / 1000 Ang^3
#
#
#
# Elastic Constant Matrix: (Units=GPa)
#
#
# Indices 1 2 3 4 5 6 
#
# 1 78.8951 40.9037 37.3715 0.0000 0.0000 0.0000
# 2 40.9037 82.6003 37.1950 0.0000 0.0000 0.0000
# 3 37.3715 37.1950 129.7243 0.0000 0.0000 0.0000
# 4 0.0000 0.0000 0.0000 28.5818 0.0000 0.0000
# 5 0.0000 0.0000 0.0000 0.0000 29.9594 0.0000
# 6 0.0000 0.0000 0.0000 0.0000 0.0000 33.6967
#
#
#
# Elastic Compliance Matrix: (Units=1/GPa)
#
#
# Indices 1 2 3 4 5 6 
#
# 1 0.018031 -0.007567 -0.003025 0.000000 0.000000 0.000000
# 2 -0.007567 0.017077 -0.002716 0.000000 0.000000 0.000000
# 3 -0.003025 -0.002716 0.009359 0.000000 0.000000 0.000000
# 4 0.000000 0.000000 0.000000 0.034987 0.000000 0.000000
# 5 0.000000 0.000000 0.000000 0.000000 0.033379 0.000000
# 6 0.000000 0.000000 0.000000 0.000000 0.000000 0.029676
#
#
# Mechanical properties :
#
#
# Convention : Reuss Voigt Hill
#
# Bulk Modulus (GPa) = 56.02099 58.01780 57.01940
# Shear Modulus (GPa) = 28.55912 30.16422 29.36167
#
# Velocity S-wave (km/s) = 3.76047 3.86470 3.81294
# Velocity P-wave (km/s) = 6.82596 6.97439 6.90058
#
# Compressibility (1/GPa) = 0.01785045
#
# Stress axis : x y z
#
# Youngs Moduli (GPa) = 55.46016 58.55897 106.84986
#
# Poissons Ratio (x) = 0.44311 0.32320
# Poissons Ratio (y) = 0.41966 0.29025
# Poissons Ratio (z) = 0.16776 0.15907
#
# Static dielectric constant tensor:
#      x y z
#    x 4.640000 0.000000 0.000000 
#    y 0.000000 3.443610 0.000000 
#    z 0.000000 0.000000 3.864960 
# 
# 
# High freq. dielectric constant tensor:
#      x y z
#    x 1.789510 0.000000 0.000000 
#    y 0.000000 1.770650 0.000000 
#    z 0.000000 0.000000 1.797060 
# 
# From -- ./inp_files/33148.got.cif
#   From: 2010.03.12/outbox.cif.g09.slc.cpg/sg68_17_cif.got.tgz:33148.got - 2010.04.10 23:14:56.
