data_PCOD8282230
_publ_section_title
;
Structure prediction by ZEFSAII (Michael W. Deem and Ramdas Pophale) SiO2 
 PCOD8282230
Probable space group: C C C A
;
_chemical_formula_sum "Si O2"
_cell_formula_units_Z 60
_cell_length_a 7.605249
_cell_length_b 17.115757
_cell_length_c 24.598866
_cell_angle_alpha 90.000000
_cell_angle_beta 90.000000
_cell_angle_gamma 90.000000
_cell_volume 3202.024395
_symmetry_space_group_name_H-M "C C C A"
_symmetry_group_IT_number 68
_space_group.IT_coordinate_system_code '2'
_symmetry_cell_setting 'orthorhombic'
loop_
_space_group_symop_operation_xyz
x,y,z
-x,1/2-y,z
x,1/2-y,1/2-z
-x,y,1/2-z
-x,-y,-z
x,1/2+y,-z
-x,1/2+y,1/2+z
x,-y,1/2+z
1/2+x,1/2+y,z
1/2-x,-y,z
1/2+x,-y,1/2-z
1/2-x,1/2+y,1/2-z
1/2-x,1/2-y,-z
1/2+x,y,-z
1/2-x,y,1/2+z
1/2+x,1/2-y,1/2+z
loop_
_atom_site_type_symbol
_atom_site_label
_atom_site_fract_x
_atom_site_fract_y
_atom_site_fract_z
Si Si1 0.645287 0.692616 0.646030
Si Si2 0.500000 0.750000 0.750000
Si Si3 0.616502 0.903833 0.047723
Si Si4 0.989024 0.065564 0.928809
Si Si5 0.000000 0.750000 0.900779
O O1 0.500000 0.750000 0.618357
O O2 0.616788 0.692721 0.711546
O O3 0.616662 0.605928 0.620936
O O4 0.836880 0.728685 0.637215
O O5 0.815524 0.900106 0.068170
O O6 0.529324 0.821671 0.059138
O O7 0.505540 0.971787 0.078855
O O8 0.621294 0.918357 0.983336
#
# Coordination Sequence:
#
# PCOD8282230 Si02
#       5
#    16   4  16  16   8
#     4  10  21  38  58  85 109 149 184 246 274 338
#     4   8  20  40  60  84 110 144 188 250 284 314
#     4  10  21  33  55  86 116 157 185 228 279 353
#     4  10  20  37  53  81 124 150 190 231 284 331
#     4  12  22  34  62  84 110 150 192 226 294 340
#
# _framework density 18.738146
#
# number of rings (size 3 to 8) (size 9 to 14) (size 15 to 20)
#    0.800    1.067    2.667    1.600    1.867    5.867 
#    0.000    0.000    0.000   12.800    0.000    0.000 
#    0.000    0.000    0.000    0.000    0.000    0.000 
#
# Total GULP energy -371827.680616 kJ/mol
# GULP energy per Si atom -12394.256021 kJ/mol
# Density = 1.869550 g / cm^3
# Si number density = 18.738146 Si / 1000 Ang^3
#
#
#
# Elastic Constant Matrix: (Units=GPa)
#
#
# Indices 1 2 3 4 5 6 
#
# 1 103.6634 47.8128 37.7892 0.0000 0.0000 0.0000
# 2 47.8128 128.1479 45.7558 0.0000 0.0000 0.0000
# 3 37.7892 45.7558 93.6842 0.0000 0.0000 0.0000
# 4 0.0000 0.0000 0.0000 27.0791 0.0000 0.0000
# 5 0.0000 0.0000 0.0000 0.0000 23.9176 0.0000
# 6 0.0000 0.0000 0.0000 0.0000 0.0000 31.0162
#
#
#
# Elastic Compliance Matrix: (Units=1/GPa)
#
#
# Indices 1 2 3 4 5 6 
#
# 1 0.012457 -0.003456 -0.003337 0.000000 0.000000 0.000000
# 2 -0.003456 0.010411 -0.003690 0.000000 0.000000 0.000000
# 3 -0.003337 -0.003690 0.013823 0.000000 0.000000 0.000000
# 4 0.000000 0.000000 0.000000 0.036929 0.000000 0.000000
# 5 0.000000 0.000000 0.000000 0.000000 0.041810 0.000000
# 6 0.000000 0.000000 0.000000 0.000000 0.000000 0.032241
#
#
# Mechanical properties :
#
#
# Convention : Reuss Voigt Hill
#
# Bulk Modulus (GPa) = 63.59993 65.35679 64.47836
# Shear Modulus (GPa) = 28.75561 29.34508 29.05034
#
# Velocity S-wave (km/s) = 3.92165 3.96164 3.94170
# Velocity P-wave (km/s) = 7.38383 7.47535 7.42973
#
# Compressibility (1/GPa) = 0.01572329
#
# Stress axis : x y z
#
# Youngs Moduli (GPa) = 80.27491 96.05391 72.34577
#
# Poissons Ratio (x) = 0.33201 0.24139
# Poissons Ratio (y) = 0.27747 0.26699
# Poissons Ratio (z) = 0.26785 0.35448
#
# Static dielectric constant tensor:
#      x y z
#    x 3.517010 0.000000 0.000000 
#    y 0.000000 3.561770 0.000000 
#    z 0.000000 0.000000 3.020870 
# 
# 
# High freq. dielectric constant tensor:
#      x y z
#    x 1.743130 0.000000 0.000000 
#    y 0.000000 1.730360 0.000000 
#    z 0.000000 0.000000 1.683900 
# 
# From -- ./inp_files/42697.got.cif
#   From: 2010.03.12/outbox.cif.g09.slc.cpg/sg68_22_cif.got.tgz:42697.got - 2010.04.10 23:14:56.
