data_PCOD8282205
_publ_section_title
;
Structure prediction by ZEFSAII (Michael W. Deem and Ramdas Pophale) SiO2 
 PCOD8282205
Probable space group: C C C A
;
_chemical_formula_sum "Si O2"
_cell_formula_units_Z 72
_cell_length_a 21.198684
_cell_length_b 4.999838
_cell_length_c 32.157415
_cell_angle_alpha 90.000000
_cell_angle_beta 90.000000
_cell_angle_gamma 90.000000
_cell_volume 3408.363960
_symmetry_space_group_name_H-M "C C C A"
_symmetry_group_IT_number 68
_space_group.IT_coordinate_system_code '2'
_symmetry_cell_setting 'orthorhombic'
loop_
_space_group_symop_operation_xyz
x,y,z
-x,1/2-y,z
x,1/2-y,1/2-z
-x,y,1/2-z
-x,-y,-z
x,1/2+y,-z
-x,1/2+y,1/2+z
x,-y,1/2+z
1/2+x,1/2+y,z
1/2-x,-y,z
1/2+x,-y,1/2-z
1/2-x,1/2+y,1/2-z
1/2-x,1/2-y,-z
1/2+x,y,-z
1/2-x,y,1/2+z
1/2+x,1/2-y,1/2+z
loop_
_atom_site_type_symbol
_atom_site_label
_atom_site_fract_x
_atom_site_fract_y
_atom_site_fract_z
Si Si1 0.000000 0.750000 0.154607
Si Si2 0.321672 0.915485 0.345417
Si Si3 0.877217 0.590281 0.112900
Si Si4 0.582662 0.993310 0.221401
Si Si5 0.678263 0.526774 0.027357
O O1 0.950713 0.581132 0.126396
O O2 0.033839 0.531269 0.183696
O O3 0.333920 0.613092 0.360555
O O4 0.349085 0.942839 0.298881
O O5 0.250000 0.000000 0.342840
O O6 0.354249 0.109314 0.378849
O O7 0.870967 0.526332 0.064230
O O8 0.560375 0.750000 0.250000
O O9 0.585777 0.250000 0.250000
O O10 0.750000 0.500000 0.044389
O O11 0.666359 0.323542 0.989548
#
# Coordination Sequence:
#
# PCOD8282205 Si02
#       5
#     8  16  16  16  16
#     4  10  25  42  62  88 120 164 212 250 300 364
#     4  11  23  39  61  89 120 158 200 249 312 365
#     4  11  23  40  62  89 122 160 202 248 295 363
#     4  11  24  40  61  86 116 155 202 254 300 354
#     4  10  20  36  60  89 119 152 193 243 300 360
#
# _framework density 21.124507000000001
#
# number of rings (size 3 to 8) (size 9 to 14) (size 15 to 20)
#    0.000    1.333    0.000    6.333    0.000   13.333 
#    0.000    1.111    0.000    0.000    0.000    0.000 
#    0.000    0.000    0.000    0.000    0.000    0.000 
#
# Total GULP energy -446506.752050 kJ/mol
# GULP energy per Si atom -12402.965335 kJ/mol
# Density = 2.107643 g / cm^3
# Si number density = 21.124507 Si / 1000 Ang^3
#
#
#
# Elastic Constant Matrix: (Units=GPa)
#
#
# Indices 1 2 3 4 5 6 
#
# 1 116.4512 11.6076 56.2312 0.0000 0.0000 0.0000
# 2 11.6076 90.6649 25.7682 0.0000 0.0000 0.0000
# 3 56.2312 25.7682 125.0095 0.0000 0.0000 0.0000
# 4 0.0000 0.0000 0.0000 15.1264 0.0000 0.0000
# 5 0.0000 0.0000 0.0000 0.0000 32.3362 0.0000
# 6 0.0000 0.0000 0.0000 0.0000 0.0000 26.3995
#
#
#
# Elastic Compliance Matrix: (Units=1/GPa)
#
#
# Indices 1 2 3 4 5 6 
#
# 1 0.010970 -0.000002 -0.004934 0.000000 0.000000 0.000000
# 2 -0.000002 0.011716 -0.002414 0.000000 0.000000 0.000000
# 3 -0.004934 -0.002414 0.010716 0.000000 0.000000 0.000000
# 4 0.000000 0.000000 0.000000 0.066110 0.000000 0.000000
# 5 0.000000 0.000000 0.000000 0.000000 0.030925 0.000000
# 6 0.000000 0.000000 0.000000 0.000000 0.000000 0.037879
#
#
# Mechanical properties :
#
#
# Convention : Reuss Voigt Hill
#
# Bulk Modulus (GPa) = 53.47034 57.70438 55.58736
# Shear Modulus (GPa) = 26.41991 30.67366 28.54678
#
# Velocity S-wave (km/s) = 3.54033 3.81470 3.68007
# Velocity P-wave (km/s) = 6.48682 6.83946 6.66547
#
# Compressibility (1/GPa) = 0.01870196
#
# Stress axis : x y z
#
# Youngs Moduli (GPa) = 91.15759 85.35335 93.31484
#
# Poissons Ratio (x) = 0.00018 0.46042
# Poissons Ratio (y) = 0.00020 0.22527
# Poissons Ratio (z) = 0.44978 0.20605
#
# Static dielectric constant tensor:
#      x y z
#    x 3.971510 0.000000 0.000000 
#    y 0.000000 3.850880 0.000000 
#    z 0.000000 0.000000 3.769810 
# 
# 
# High freq. dielectric constant tensor:
#      x y z
#    x 1.817850 0.000000 0.000000 
#    y 0.000000 1.844080 0.000000 
#    z 0.000000 0.000000 1.824290 
# 
# From -- ./inp_files/55728.got.cif
#   From: 2010.03.12/outbox.cif.g09.slc.cpg/sg68_28_cif.got.tgz:55728.got - 2010.04.10 23:14:56.
