data_PCOD8282412
_publ_section_title
;
Structure prediction by ZEFSAII (Michael W. Deem and Ramdas Pophale) SiO2 
 PCOD8282412
Probable space group: C C C A
;
_chemical_formula_sum "Si O2"
_cell_formula_units_Z 116
_cell_length_a 9.127849
_cell_length_b 23.067383
_cell_length_c 26.316484
_cell_angle_alpha 90.000000
_cell_angle_beta 90.000000
_cell_angle_gamma 90.000000
_cell_volume 5541.082785
_symmetry_space_group_name_H-M "C C C A"
_symmetry_group_IT_number 68
_space_group.IT_coordinate_system_code '2'
_symmetry_cell_setting 'orthorhombic'
loop_
_space_group_symop_operation_xyz
x,y,z
-x,1/2-y,z
x,1/2-y,1/2-z
-x,y,1/2-z
-x,-y,-z
x,1/2+y,-z
-x,1/2+y,1/2+z
x,-y,1/2+z
1/2+x,1/2+y,z
1/2-x,-y,z
1/2+x,-y,1/2-z
1/2-x,1/2+y,1/2-z
1/2-x,1/2-y,-z
1/2+x,y,-z
1/2-x,y,1/2+z
1/2+x,1/2-y,1/2+z
loop_
_atom_site_type_symbol
_atom_site_label
_atom_site_fract_x
_atom_site_fract_y
_atom_site_fract_z
Si Si1 0.500000 0.750000 0.250000
Si Si2 0.008248 0.135746 0.983172
Si Si3 0.623128 0.392628 0.863611
Si Si4 0.872609 0.290404 0.599982
Si Si5 0.827303 0.060688 0.242373
Si Si6 0.293973 0.936442 0.466673
Si Si7 0.336781 0.656509 0.318205
Si Si8 0.625670 0.787539 0.073567
O O1 0.403843 0.708410 0.285266
O O2 0.949137 0.157850 0.929918
O O3 0.178790 0.117135 0.977031
O O4 0.929369 0.075866 0.996440
O O5 0.964188 0.183170 0.026571
O O6 0.707192 0.416158 0.814327
O O7 0.647640 0.439055 0.908617
O O8 0.453001 0.379135 0.852368
O O9 0.689789 0.332651 0.885300
O O10 0.788268 0.317280 0.647037
O O11 0.765195 0.253875 0.561296
O O12 0.000000 0.250000 0.622117
O O13 0.764436 0.109016 0.280629
O O14 0.000000 0.052790 0.250000
O O15 0.750000 0.000000 0.252771
O O16 0.250000 0.000000 0.483324
O O17 0.500000 0.750000 0.101927
#
# Coordination Sequence:
#
# PCOD8282412 Si02
#       8
#     4  16  16  16  16  16  16  16
#     4  12  20  44  74  96 128 172 234 274 324 428
#     4  11  24  41  62  95 133 171 220 262 322 401
#     4  10  20  40  68  92 123 166 227 261 320 390
#     4  12  24  41  62 100 136 167 209 272 337 397
#     4  10  22  45  67  97 127 172 225 271 326 395
#     4  11  24  43  67  93 128 175 222 275 325 373
#     4  11  23  41  70  98 129 174 222 273 335 404
#     4  11  20  37  68  93 128 177 214 255 321 397
#
# _framework density 20.934536000000001
#
# number of rings (size 3 to 8) (size 9 to 14) (size 15 to 20)
#    0.000    1.103    3.448    4.966    1.931    0.000 
#    9.931    0.345    0.000    0.000    0.000    0.000 
#    0.000    0.000    0.000    0.000    0.000    0.000 
#
# Total GULP energy -718704.860727 kJ/mol
# GULP energy per Si atom -12391.463116 kJ/mol
# Density = 2.088689 g / cm^3
# Si number density = 20.934536 Si / 1000 Ang^3
#
#
#
# Elastic Constant Matrix: (Units=GPa)
#
#
# Indices 1 2 3 4 5 6 
#
# 1 74.7112 19.5014 38.0866 0.0000 0.0000 0.0000
# 2 19.5014 106.5816 47.1706 0.0000 0.0000 0.0000
# 3 38.0866 47.1706 117.0571 0.0000 0.0000 0.0000
# 4 0.0000 0.0000 0.0000 6.9704 0.0000 0.0000
# 5 0.0000 0.0000 0.0000 0.0000 0.2651 0.0000
# 6 0.0000 0.0000 0.0000 0.0000 0.0000 45.2670
#
#
#
# Elastic Compliance Matrix: (Units=1/GPa)
#
#
# Indices 1 2 3 4 5 6 
#
# 1 0.016097 -0.000764 -0.004930 0.000000 0.000000 0.000000
# 2 -0.000764 0.011455 -0.004368 0.000000 0.000000 0.000000
# 3 -0.004930 -0.004368 0.011907 0.000000 0.000000 0.000000
# 4 0.000000 0.000000 0.000000 0.143464 0.000000 0.000000
# 5 0.000000 0.000000 0.000000 0.000000 3.771895 0.000000
# 6 0.000000 0.000000 0.000000 0.000000 0.000000 0.022091
#
#
# Mechanical properties :
#
#
# Convention : Reuss Voigt Hill
#
# Bulk Modulus (GPa) = 51.71352 56.42970 54.07161
# Shear Modulus (GPa) = 1.24891 23.40657 12.32774
#
# Velocity S-wave (km/s) = 0.77322 3.34740 2.42930
# Velocity P-wave (km/s) = 5.05503 6.47719 5.80979
#
# Compressibility (1/GPa) = 0.01933730
#
# Stress axis : x y z
#
# Youngs Moduli (GPa) = 62.12200 87.29637 83.98468
#
# Poissons Ratio (x) = 0.06665 0.41404
# Poissons Ratio (y) = 0.04743 0.36682
# Poissons Ratio (z) = 0.30626 0.38129
#
# Static dielectric constant tensor:
#      x y z
#    x 3.893570 0.000000 0.000000 
#    y 0.000000 3.931840 0.000000 
#    z 0.000000 0.000000 3.898650 
# 
# 
# High freq. dielectric constant tensor:
#      x y z
#    x 1.809350 0.000000 0.000000 
#    y 0.000000 1.831070 0.000000 
#    z 0.000000 0.000000 1.818320 
# 
# From -- ./inp_files/49626.got.cif
#   From: 2010.03.12/outbox.cif.g09.slc.cpg/sg68_25_cif.got.tgz:49626.got - 2010.04.10 23:14:56.
