data_PCOD8282529
_publ_section_title
;
Structure prediction by ZEFSAII (Michael W. Deem and Ramdas Pophale) SiO2 
 PCOD8282529
Probable space group: C C C A
;
_chemical_formula_sum "Si O2"
_cell_formula_units_Z 100
_cell_length_a 28.915341
_cell_length_b 11.332747
_cell_length_c 15.656599
_cell_angle_alpha 90.000000
_cell_angle_beta 90.000000
_cell_angle_gamma 90.000000
_cell_volume 5130.514746
_symmetry_space_group_name_H-M "C C C A"
_symmetry_group_IT_number 68
_space_group.IT_coordinate_system_code '2'
_symmetry_cell_setting 'orthorhombic'
loop_
_space_group_symop_operation_xyz
x,y,z
-x,1/2-y,z
x,1/2-y,1/2-z
-x,y,1/2-z
-x,-y,-z
x,1/2+y,-z
-x,1/2+y,1/2+z
x,-y,1/2+z
1/2+x,1/2+y,z
1/2-x,-y,z
1/2+x,-y,1/2-z
1/2-x,1/2+y,1/2-z
1/2-x,1/2-y,-z
1/2+x,y,-z
1/2-x,y,1/2+z
1/2+x,1/2-y,1/2+z
loop_
_atom_site_type_symbol
_atom_site_label
_atom_site_fract_x
_atom_site_fract_y
_atom_site_fract_z
Si Si1 0.445172 0.124412 0.894682
Si Si2 0.187587 0.588683 0.371597
Si Si3 0.289272 0.825234 0.160098
Si Si4 0.500000 0.250000 0.750000
Si Si5 0.913393 0.139596 0.599054
Si Si6 0.500000 0.750000 0.976797
Si Si7 0.368648 0.250000 0.250000
Si Si8 0.854915 0.720753 0.976651
O O1 0.465714 0.165457 0.803828
O O2 0.399568 0.198025 0.918150
O O3 0.429579 0.992211 0.901709
O O4 0.486541 0.140235 0.962621
O O5 0.238417 0.645080 0.373769
O O6 0.185165 0.452811 0.338832
O O7 0.162045 0.659690 0.300201
O O8 0.162015 0.610964 0.463225
O O9 0.290371 0.750000 0.250000
O O10 0.312859 0.747687 0.086689
O O11 0.900689 0.166665 0.694897
O O12 0.869696 0.167945 0.536606
O O13 0.956169 0.223673 0.580138
#
# Coordination Sequence:
#
# PCOD8282529 Si02
#       8
#    16  16  16   4  16   8   8  16
#     4  10  21  38  58  85 117 159 193 258 300 359
#     4  10  22  43  58  90 129 158 203 258 305 373
#     4  11  23  39  65  94 120 163 207 255 312 370
#     4  10  24  36  54  88 128 150 210 258 310 356
#     4  10  21  37  60  83 116 159 200 246 305 362
#     4   9  20  38  56  83 114 148 204 241 305 365
#     4  10  22  37  57  86 122 158 201 255 306 354
#     4  10  22  39  63  89 121 161 208 247 310 374
#
# _framework density 19.491222
#
# number of rings (size 3 to 8) (size 9 to 14) (size 15 to 20)
#    0.000    1.920    0.800    1.920    3.360    1.600 
#    0.000    4.800    0.000    0.000    0.000    0.000 
#    0.000    0.000    0.000    0.000    0.000    0.000 
#
# Total GULP energy -619499.038816 kJ/mol
# GULP energy per Si atom -12389.980776 kJ/mol
# Density = 1.944686 g / cm^3
# Si number density = 19.491222 Si / 1000 Ang^3
#
#
#
# Elastic Constant Matrix: (Units=GPa)
#
#
# Indices 1 2 3 4 5 6 
#
# 1 75.5341 24.7615 39.8185 0.0000 0.0000 0.0000
# 2 24.7615 107.6884 39.6492 0.0000 0.0000 0.0000
# 3 39.8185 39.6492 101.0145 0.0000 0.0000 0.0000
# 4 0.0000 0.0000 0.0000 22.0699 0.0000 0.0000
# 5 0.0000 0.0000 0.0000 0.0000 48.5058 0.0000
# 6 0.0000 0.0000 0.0000 0.0000 0.0000 33.3599
#
#
#
# Elastic Compliance Matrix: (Units=1/GPa)
#
#
# Indices 1 2 3 4 5 6 
#
# 1 0.016968 -0.001682 -0.006028 0.000000 0.000000 0.000000
# 2 -0.001682 0.011021 -0.003663 0.000000 0.000000 0.000000
# 3 -0.006028 -0.003663 0.013714 0.000000 0.000000 0.000000
# 4 0.000000 0.000000 0.000000 0.045311 0.000000 0.000000
# 5 0.000000 0.000000 0.000000 0.000000 0.020616 0.000000
# 6 0.000000 0.000000 0.000000 0.000000 0.000000 0.029976
#
#
# Mechanical properties :
#
#
# Convention : Reuss Voigt Hill
#
# Bulk Modulus (GPa) = 52.75238 54.74394 53.74816
# Shear Modulus (GPa) = 29.99900 32.78765 31.39332
#
# Velocity S-wave (km/s) = 3.92740 4.10588 4.01763
# Velocity P-wave (km/s) = 6.90575 7.11513 7.01122
#
# Compressibility (1/GPa) = 0.01895649
#
# Stress axis : x y z
#
# Youngs Moduli (GPa) = 58.93298 90.73195 72.91995
#
# Poissons Ratio (x) = 0.15262 0.43960
# Poissons Ratio (y) = 0.09913 0.26711
# Poissons Ratio (z) = 0.35528 0.33235
#
# Static dielectric constant tensor:
#      x y z
#    x 3.929950 0.000000 0.000000 
#    y 0.000000 3.629190 0.000000 
#    z 0.000000 0.000000 3.802650 
# 
# 
# High freq. dielectric constant tensor:
#      x y z
#    x 1.774410 0.000000 0.000000 
#    y 0.000000 1.755700 0.000000 
#    z 0.000000 0.000000 1.764140 
# 
# From -- ./inp_files/21231.got.cif
#   From: 2010.03.12/outbox.cif.g09.slc.cpg/sg68_11_cif.got.tgz:21231.got - 2010.04.10 23:14:56.
