data_PCOD8282036
_publ_section_title
;
Structure prediction by ZEFSAII (Michael W. Deem and Ramdas Pophale) SiO2 
 PCOD8282036
Probable space group: C C C A
;
_chemical_formula_sum "Si O2"
_cell_formula_units_Z 112
_cell_length_a 16.704060
_cell_length_b 10.809943
_cell_length_c 30.663876
_cell_angle_alpha 90.000000
_cell_angle_beta 90.000000
_cell_angle_gamma 90.000000
_cell_volume 5536.974141
_symmetry_space_group_name_H-M "C C C A"
_symmetry_group_IT_number 68
_space_group.IT_coordinate_system_code '2'
_symmetry_cell_setting 'orthorhombic'
loop_
_space_group_symop_operation_xyz
x,y,z
-x,1/2-y,z
x,1/2-y,1/2-z
-x,y,1/2-z
-x,-y,-z
x,1/2+y,-z
-x,1/2+y,1/2+z
x,-y,1/2+z
1/2+x,1/2+y,z
1/2-x,-y,z
1/2+x,-y,1/2-z
1/2-x,1/2+y,1/2-z
1/2-x,1/2-y,-z
1/2+x,y,-z
1/2-x,y,1/2+z
1/2+x,1/2-y,1/2+z
loop_
_atom_site_type_symbol
_atom_site_label
_atom_site_fract_x
_atom_site_fract_y
_atom_site_fract_z
Si Si1 0.427829 0.514180 0.624529
Si Si2 0.838894 0.817738 0.069593
Si Si3 0.663217 0.285494 0.912032
Si Si4 0.068882 0.351163 0.486610
Si Si5 0.327345 0.574381 0.350602
Si Si6 0.583072 0.557259 0.576040
Si Si7 0.986943 0.606296 0.699701
O O1 0.361596 0.620828 0.616758
O O2 0.400296 0.392226 0.598712
O O3 0.506717 0.579890 0.606011
O O4 0.446696 0.475912 0.674313
O O5 0.744132 0.834365 0.065752
O O6 0.870916 0.680116 0.062754
O O7 0.880400 0.888479 0.029332
O O8 0.622340 0.201166 0.947774
O O9 0.688130 0.215684 0.866480
O O10 0.046583 0.486617 0.466644
O O11 0.000000 0.250000 0.497822
O O12 0.250000 0.500000 0.331920
O O13 0.351631 0.514588 0.396115
O O14 0.396694 0.569595 0.314019
O O15 0.000000 0.750000 0.688498
O O16 0.000000 0.576682 0.750000
#
# Coordination Sequence:
#
# PCOD8282036 Si02
#       7
#    16  16  16  16  16  16  16
#     4  11  22  40  63  86 122 162 202 256 317 379
#     4  12  25  38  56  87 128 168 209 262 319 375
#     4  11  22  40  57  89 120 167 209 266 311 362
#     4  11  23  38  61  81 120 170 226 273 305 356
#     4  10  19  38  66  89 122 161 202 250 310 367
#     4  10  22  38  60  85 114 166 220 254 305 369
#     4  10  21  40  72 102 121 153 208 260 306 383
#
# _framework density 20.227654999999999
#
# number of rings (size 3 to 8) (size 9 to 14) (size 15 to 20)
#    0.000    1.286    4.286    2.143    2.000    1.143 
#    2.571    1.429    0.000    6.857    0.000    0.000 
#    0.000    0.000    0.000    0.000    0.000    0.000 
#
# Total GULP energy -693822.031768 kJ/mol
# GULP energy per Si atom -12389.679139 kJ/mol
# Density = 2.018162 g / cm^3
# Si number density = 20.227655 Si / 1000 Ang^3
#
#
#
# Elastic Constant Matrix: (Units=GPa)
#
#
# Indices 1 2 3 4 5 6 
#
# 1 82.1694 0.1359 29.5303 0.0000 0.0000 0.0000
# 2 0.1359 31.5430 11.5361 0.0000 0.0000 0.0000
# 3 29.5303 11.5361 97.8568 0.0000 0.0000 0.0000
# 4 0.0000 0.0000 0.0000 -15.8652 0.0000 0.0000
# 5 0.0000 0.0000 0.0000 0.0000 -15.5414 0.0000
# 6 0.0000 0.0000 0.0000 0.0000 0.0000 22.0954
#
#
#
# Elastic Compliance Matrix: (Units=1/GPa)
#
#
# Indices 1 2 3 4 5 6 
#
# 1 0.013720 0.001521 -0.004320 0.000000 0.000000 0.000000
# 2 0.001521 0.033300 -0.004385 0.000000 0.000000 0.000000
# 3 -0.004320 -0.004385 0.012039 0.000000 0.000000 0.000000
# 4 0.000000 0.000000 0.000000 -0.063031 0.000000 0.000000
# 5 0.000000 0.000000 0.000000 0.000000 -0.064344 0.000000
# 6 0.000000 0.000000 0.000000 0.000000 0.000000 0.045258
#
#
# Mechanical properties :
#
#
# Convention : Reuss Voigt Hill
#
# Bulk Modulus (GPa) = 22.37529 32.66378 27.51953
# Shear Modulus (GPa) = 805.70441 9.49557 407.59999
#
# Velocity S-wave (km/s) = 19.97956 2.16900 14.21069
# Velocity P-wave (km/s) = 23.30943 4.73876 16.81942
#
# Compressibility (1/GPa) = 0.04469217
#
# Stress axis : x y z
#
# Youngs Moduli (GPa) = 72.88727 30.03028 83.06068
#
# Poissons Ratio (x) = -0.04567 0.35878
# Poissons Ratio (y) = -0.11084 0.36418
# Poissons Ratio (z) = 0.31484 0.13167
#
# Static dielectric constant tensor:
#      x y z
#    x 3.766350 0.000000 0.000000 
#    y 0.000000 3.835520 0.000000 
#    z 0.000000 0.000000 3.462590 
# 
# 
# High freq. dielectric constant tensor:
#      x y z
#    x 1.796880 0.000000 0.000000 
#    y 0.000000 1.794210 0.000000 
#    z 0.000000 0.000000 1.760350 
# 
# From -- ./inp_files/55281.got.cif
#   From: 2010.03.12/outbox.cif.g09.slc.cpg/sg68_28_cif.got.tgz:55281.got - 2010.04.10 23:14:56.
