data_PCOD8282373
_publ_section_title
;
Structure prediction by ZEFSAII (Michael W. Deem and Ramdas Pophale) SiO2 
 PCOD8282373
Probable space group: C C C A
;
_chemical_formula_sum "Si O2"
_cell_formula_units_Z 96
_cell_length_a 9.527771
_cell_length_b 24.515355
_cell_length_c 21.248905
_cell_angle_alpha 90.000000
_cell_angle_beta 90.000000
_cell_angle_gamma 90.000000
_cell_volume 4963.248863
_symmetry_space_group_name_H-M "C C C A"
_symmetry_group_IT_number 68
_space_group.IT_coordinate_system_code '2'
_symmetry_cell_setting 'orthorhombic'
loop_
_space_group_symop_operation_xyz
x,y,z
-x,1/2-y,z
x,1/2-y,1/2-z
-x,y,1/2-z
-x,-y,-z
x,1/2+y,-z
-x,1/2+y,1/2+z
x,-y,1/2+z
1/2+x,1/2+y,z
1/2-x,-y,z
1/2+x,-y,1/2-z
1/2-x,1/2+y,1/2-z
1/2-x,1/2-y,-z
1/2+x,y,-z
1/2-x,y,1/2+z
1/2+x,1/2-y,1/2+z
loop_
_atom_site_type_symbol
_atom_site_label
_atom_site_fract_x
_atom_site_fract_y
_atom_site_fract_z
Si Si1 0.973469 0.626875 0.064017
Si Si2 0.532401 0.131017 0.921462
Si Si3 0.257947 0.835555 0.870225
Si Si4 0.736061 0.211618 0.390629
Si Si5 0.162216 0.153904 0.733441
Si Si6 0.238573 0.436789 0.858780
O O1 0.881175 0.682467 0.065829
O O2 0.878495 0.576444 0.088083
O O3 0.104109 0.631023 0.111165
O O4 0.030374 0.615836 0.994776
O O5 0.375377 0.132994 0.896467
O O6 0.611235 0.188499 0.909648
O O7 0.611250 0.083140 0.884229
O O8 0.266414 0.775874 0.901727
O O9 0.244968 0.833979 0.794880
O O10 0.701606 0.199588 0.317754
O O11 0.198396 0.094240 0.705726
O O12 0.000000 0.159023 0.750000
O O13 0.250000 0.500000 0.843556
#
# Coordination Sequence:
#
# PCOD8282373 Si02
#       6
#    16  16  16  16  16  16
#     4  10  21  38  60  86 120 159 197 238 286 358
#     4  10  23  39  55  90 124 150 195 249 290 346
#     4  12  20  35  61  87 118 161 198 230 291 356
#     4  10  22  34  57  88 125 162 188 235 287 348
#     4  10  20  40  59  86 114 152 204 248 285 358
#     4  10  23  45  63  83 117 155 197 262 316 339
#
# _framework density 19.342168999999998
#
# number of rings (size 3 to 8) (size 9 to 14) (size 15 to 20)
#    0.000    2.000    3.333    3.500    0.000    8.000 
#    3.000    4.167    0.000    0.000    0.000    0.000 
#    0.000    0.000    0.000    0.000    0.000    0.000 
#
# Total GULP energy -595291.337385 kJ/mol
# GULP energy per Si atom -12401.902862 kJ/mol
# Density = 1.929815 g / cm^3
# Si number density = 19.342169 Si / 1000 Ang^3
#
#
#
# Elastic Constant Matrix: (Units=GPa)
#
#
# Indices 1 2 3 4 5 6 
#
# 1 97.0287 23.4329 7.2349 0.0000 0.0000 0.0000
# 2 23.4329 74.9912 -7.5038 0.0000 0.0000 0.0000
# 3 7.2349 -7.5038 58.4174 0.0000 0.0000 0.0000
# 4 0.0000 0.0000 0.0000 10.9499 0.0000 0.0000
# 5 0.0000 0.0000 0.0000 0.0000 24.4087 0.0000
# 6 0.0000 0.0000 0.0000 0.0000 0.0000 16.1970
#
#
#
# Elastic Compliance Matrix: (Units=1/GPa)
#
#
# Indices 1 2 3 4 5 6 
#
# 1 0.011349 -0.003735 -0.001885 0.000000 0.000000 0.000000
# 2 -0.003735 0.014738 0.002356 0.000000 0.000000 0.000000
# 3 -0.001885 0.002356 0.017654 0.000000 0.000000 0.000000
# 4 0.000000 0.000000 0.000000 0.091325 0.000000 0.000000
# 5 0.000000 0.000000 0.000000 0.000000 0.040969 0.000000
# 6 0.000000 0.000000 0.000000 0.000000 0.000000 0.061740
#
#
# Mechanical properties :
#
#
# Convention : Reuss Voigt Hill
#
# Bulk Modulus (GPa) = 26.87327 30.75169 28.81248
# Shear Modulus (GPa) = 19.47745 24.12935 21.80340
#
# Velocity S-wave (km/s) = 3.17676 3.53583 3.36109
# Velocity P-wave (km/s) = 5.23254 5.70988 5.47642
#
# Compressibility (1/GPa) = 0.03721170
#
# Stress axis : x y z
#
# Youngs Moduli (GPa) = 88.11515 67.85337 56.64358
#
# Poissons Ratio (x) = 0.25342 0.10679
# Poissons Ratio (y) = 0.32910 -0.13343
# Poissons Ratio (z) = 0.16612 -0.15984
#
# Static dielectric constant tensor:
#      x y z
#    x 3.617690 0.000000 0.000000 
#    y 0.000000 3.186550 0.000000 
#    z 0.000000 0.000000 3.678780 
# 
# 
# High freq. dielectric constant tensor:
#      x y z
#    x 1.765630 0.000000 0.000000 
#    y 0.000000 1.719840 0.000000 
#    z 0.000000 0.000000 1.761140 
# 
# From -- ./inp_files/36484.got.cif
#   From: 2010.03.12/outbox.cif.g09.slc.cpg/sg68_19_cif.got.tgz:36484.got - 2010.04.10 23:14:56.
