data_PCOD8282552
_publ_section_title
;
Structure prediction by ZEFSAII (Michael W. Deem and Ramdas Pophale) SiO2 
 PCOD8282552
Probable space group: C C C A
;
_chemical_formula_sum "Si O2"
_cell_formula_units_Z 72
_cell_length_a 16.489140
_cell_length_b 16.599377
_cell_length_c 13.905881
_cell_angle_alpha 90.000000
_cell_angle_beta 90.000000
_cell_angle_gamma 90.000000
_cell_volume 3806.171058
_symmetry_space_group_name_H-M "C C C A"
_symmetry_group_IT_number 68
_space_group.IT_coordinate_system_code '2'
_symmetry_cell_setting 'orthorhombic'
loop_
_space_group_symop_operation_xyz
x,y,z
-x,1/2-y,z
x,1/2-y,1/2-z
-x,y,1/2-z
-x,-y,-z
x,1/2+y,-z
-x,1/2+y,1/2+z
x,-y,1/2+z
1/2+x,1/2+y,z
1/2-x,-y,z
1/2+x,-y,1/2-z
1/2-x,1/2+y,1/2-z
1/2-x,1/2-y,-z
1/2+x,y,-z
1/2-x,y,1/2+z
1/2+x,1/2-y,1/2+z
loop_
_atom_site_type_symbol
_atom_site_label
_atom_site_fract_x
_atom_site_fract_y
_atom_site_fract_z
Si Si1 0.381909 0.183966 0.333268
Si Si2 0.921893 0.595469 0.698432
Si Si3 0.500000 0.442831 0.250000
Si Si4 0.801999 0.176652 0.177247
Si Si5 0.910807 0.225473 0.452353
O O1 0.392648 0.250000 0.250000
O O2 0.442206 0.110144 0.316547
O O3 0.290401 0.151058 0.341286
O O4 0.405196 0.223632 0.433479
O O5 0.847825 0.601015 0.774791
O O6 0.896259 0.638408 0.598530
O O7 0.000000 0.638040 0.750000
O O8 0.943902 0.500720 0.681731
O O9 0.808223 0.250000 0.250000
O O10 0.845657 0.206823 0.079797
O O11 0.000000 0.250000 0.420192
#
# Coordination Sequence:
#
# PCOD8282552 Si02
#       5
#    16  16   8  16  16
#     4  11  23  37  53  83 119 155 181 228 290 346
#     4   9  19  36  57  85 104 143 192 237 278 321
#     4  10  21  38  53  76 120 150 186 224 287 338
#     4   9  19  35  59  85 112 139 191 241 278 328
#     4  11  18  33  62  84 110 145 193 236 281 342
#
# _framework density 18.916649
#
# number of rings (size 3 to 8) (size 9 to 14) (size 15 to 20)
#    0.667    1.333    2.222    2.333    0.000    1.778 
#    0.000    0.000    0.000    8.000    0.000    0.000 
#    0.000    0.000    0.000    0.000    0.000    0.000 
#
# Total GULP energy -446154.151511 kJ/mol
# GULP energy per Si atom -12393.170875 kJ/mol
# Density = 1.887359 g / cm^3
# Si number density = 18.916649 Si / 1000 Ang^3
#
#
#
# Elastic Constant Matrix: (Units=GPa)
#
#
# Indices 1 2 3 4 5 6 
#
# 1 122.8518 54.7968 31.9705 0.0000 0.0000 0.0000
# 2 54.7968 89.9742 46.2037 0.0000 0.0000 0.0000
# 3 31.9705 46.2037 121.3578 0.0000 0.0000 0.0000
# 4 0.0000 0.0000 0.0000 14.6983 0.0000 0.0000
# 5 0.0000 0.0000 0.0000 0.0000 25.7286 0.0000
# 6 0.0000 0.0000 0.0000 0.0000 0.0000 15.7278
#
#
#
# Elastic Compliance Matrix: (Units=1/GPa)
#
#
# Indices 1 2 3 4 5 6 
#
# 1 0.011195 -0.006592 -0.000439 0.000000 0.000000 0.000000
# 2 -0.006592 0.017697 -0.005001 0.000000 0.000000 0.000000
# 3 -0.000439 -0.005001 0.010260 0.000000 0.000000 0.000000
# 4 0.000000 0.000000 0.000000 0.068035 0.000000 0.000000
# 5 0.000000 0.000000 0.000000 0.000000 0.038867 0.000000
# 6 0.000000 0.000000 0.000000 0.000000 0.000000 0.063582
#
#
# Mechanical properties :
#
#
# Convention : Reuss Voigt Hill
#
# Bulk Modulus (GPa) = 66.28440 66.68062 66.48251
# Shear Modulus (GPa) = 20.94414 24.64511 22.79463
#
# Velocity S-wave (km/s) = 3.33104 3.61338 3.47508
# Velocity P-wave (km/s) = 7.06475 7.26188 7.16400
#
# Compressibility (1/GPa) = 0.01508651
#
# Stress axis : x y z
#
# Youngs Moduli (GPa) = 89.32869 56.50569 97.46714
#
# Poissons Ratio (x) = 0.37250 0.04282
# Poissons Ratio (y) = 0.58888 0.48745
# Poissons Ratio (z) = 0.03924 0.28259
#
# Static dielectric constant tensor:
#      x y z
#    x 3.856230 0.000000 0.000000 
#    y 0.000000 3.166270 0.000000 
#    z 0.000000 0.000000 3.220800 
# 
# 
# High freq. dielectric constant tensor:
#      x y z
#    x 1.749830 0.000000 0.000000 
#    y 0.000000 1.706530 0.000000 
#    z 0.000000 0.000000 1.721990 
# 
# From -- ./inp_files/14224.got.cif
#   From: 2010.03.12/outbox.cif.g09.slc.cpg/sg68_8_cif.got.tgz:14224.got - 2010.04.10 23:14:56.
