data_PCOD8282598
_publ_section_title
;
Structure prediction by ZEFSAII (Michael W. Deem and Ramdas Pophale) SiO2 
 PCOD8282598
Probable space group: C C C A
;
_chemical_formula_sum "Si O2"
_cell_formula_units_Z 108
_cell_length_a 10.450071
_cell_length_b 29.097176
_cell_length_c 16.752461
_cell_angle_alpha 90.000000
_cell_angle_beta 90.000000
_cell_angle_gamma 90.000000
_cell_volume 5093.879858
_symmetry_space_group_name_H-M "C C C A"
_symmetry_group_IT_number 68
_space_group.IT_coordinate_system_code '2'
_symmetry_cell_setting 'orthorhombic'
loop_
_space_group_symop_operation_xyz
x,y,z
-x,1/2-y,z
x,1/2-y,1/2-z
-x,y,1/2-z
-x,-y,-z
x,1/2+y,-z
-x,1/2+y,1/2+z
x,-y,1/2+z
1/2+x,1/2+y,z
1/2-x,-y,z
1/2+x,-y,1/2-z
1/2-x,1/2+y,1/2-z
1/2-x,1/2-y,-z
1/2+x,y,-z
1/2-x,y,1/2+z
1/2+x,1/2-y,1/2+z
loop_
_atom_site_type_symbol
_atom_site_label
_atom_site_fract_x
_atom_site_fract_y
_atom_site_fract_z
Si Si1 0.370224 0.906526 0.077482
Si Si2 0.740096 0.877741 0.193481
Si Si3 0.629902 0.877120 0.021433
Si Si4 0.000000 0.750000 0.750000
Si Si5 0.362877 0.035031 0.726786
Si Si6 0.074462 0.297737 0.903611
Si Si7 0.000000 0.143518 0.750000
Si Si8 0.674058 0.184241 0.830622
O O1 0.504437 0.910192 0.028912
O O2 0.357846 0.950863 0.133942
O O3 0.386442 0.859662 0.126536
O O4 0.236766 0.904257 0.029571
O O5 0.706535 0.865447 0.102632
O O6 0.650340 0.919922 0.217993
O O7 0.722285 0.831058 0.243374
O O8 0.886701 0.890324 0.218844
O O9 0.574398 0.830589 0.981330
O O10 0.068421 0.720949 0.816575
O O11 0.500000 0.012864 0.750000
O O12 0.250000 0.000000 0.746993
O O13 0.021841 0.324398 0.826739
O O14 0.222291 0.288635 0.883685
O O15 0.000000 0.250000 0.920395
#
# Coordination Sequence:
#
# PCOD8282598 Si02
#       8
#    16  16  16   4  16  16   8  16
#     4  10  22  45  65  95 132 176 215 266 334 399
#     4  10  21  41  69  93 131 173 219 267 344 401
#     4  11  21  41  67  94 136 183 214 264 347 401
#     4  12  20  32  58  90 112 164 242 276 320 364
#     4  11  24  46  73 102 130 161 218 277 320 405
#     4  10  22  39  57  92 132 174 230 289 324 381
#     4  10  21  38  66  93 122 186 237 274 330 401
#     4   9  22  37  59  87 122 173 232 280 318 389
#
# _framework density 21.201915
#
# number of rings (size 3 to 8) (size 9 to 14) (size 15 to 20)
#    0.000    1.778    1.481    2.889    7.259    0.000 
#    8.000    3.704    0.000    0.000    1.926    0.000 
#    0.000    0.000    0.000    0.000    0.000    0.000 
#
# Total GULP energy -669030.976571 kJ/mol
# GULP energy per Si atom -12389.462529 kJ/mol
# Density = 2.115366 g / cm^3
# Si number density = 21.201915 Si / 1000 Ang^3
#
#
#
# Elastic Constant Matrix: (Units=GPa)
#
#
# Indices 1 2 3 4 5 6 
#
# 1 136.7906 39.3001 34.1553 0.0000 0.0000 0.0000
# 2 39.3001 61.9557 31.7490 0.0000 0.0000 0.0000
# 3 34.1553 31.7490 119.1213 0.0000 0.0000 0.0000
# 4 0.0000 0.0000 0.0000 8.9891 0.0000 0.0000
# 5 0.0000 0.0000 0.0000 0.0000 33.8502 0.0000
# 6 0.0000 0.0000 0.0000 0.0000 0.0000 18.9211
#
#
#
# Elastic Compliance Matrix: (Units=1/GPa)
#
#
# Indices 1 2 3 4 5 6 
#
# 1 0.009095 -0.005134 -0.001239 0.000000 0.000000 0.000000
# 2 -0.005134 0.021592 -0.004283 0.000000 0.000000 0.000000
# 3 -0.001239 -0.004283 0.009892 0.000000 0.000000 0.000000
# 4 0.000000 0.000000 0.000000 0.111246 0.000000 0.000000
# 5 0.000000 0.000000 0.000000 0.000000 0.029542 0.000000
# 6 0.000000 0.000000 0.000000 0.000000 0.000000 0.052851
#
#
# Mechanical properties :
#
#
# Convention : Reuss Voigt Hill
#
# Bulk Modulus (GPa) = 51.90463 58.69737 55.30100
# Shear Modulus (GPa) = 19.08751 26.52963 22.80857
#
# Velocity S-wave (km/s) = 3.00371 3.54119 3.28347
# Velocity P-wave (km/s) = 6.04681 6.66821 6.36510
#
# Compressibility (1/GPa) = 0.01926610
#
# Stress axis : x y z
#
# Youngs Moduli (GPa) = 109.95145 46.31370 101.09545
#
# Poissons Ratio (x) = 0.23778 0.12530
# Poissons Ratio (y) = 0.56449 0.43297
# Poissons Ratio (z) = 0.13627 0.19835
#
# Static dielectric constant tensor:
#      x y z
#    x 4.362770 0.000000 0.000000 
#    y 0.000000 3.395500 0.000000 
#    z 0.000000 0.000000 3.912440 
# 
# 
# High freq. dielectric constant tensor:
#      x y z
#    x 1.857780 0.000000 0.000000 
#    y 0.000000 1.792950 0.000000 
#    z 0.000000 0.000000 1.835540 
# 
# From -- ./inp_files/21308.got.cif
#   From: 2010.03.12/outbox.cif.g09.slc.cpg/sg68_11_cif.got.tgz:21308.got - 2010.04.10 23:14:56.
