data_PCOD8282019
_publ_section_title
;
Structure prediction by ZEFSAII (Michael W. Deem and Ramdas Pophale) SiO2 
 PCOD8282019
Probable space group: C C C A
;
_chemical_formula_sum "Si O2"
_cell_formula_units_Z 112
_cell_length_a 13.587566
_cell_length_b 14.549410
_cell_length_c 27.716570
_cell_angle_alpha 90.000000
_cell_angle_beta 90.000000
_cell_angle_gamma 90.000000
_cell_volume 5479.318342
_symmetry_space_group_name_H-M "C C C A"
_symmetry_group_IT_number 68
_space_group.IT_coordinate_system_code '2'
_symmetry_cell_setting 'orthorhombic'
loop_
_space_group_symop_operation_xyz
x,y,z
-x,1/2-y,z
x,1/2-y,1/2-z
-x,y,1/2-z
-x,-y,-z
x,1/2+y,-z
-x,1/2+y,1/2+z
x,-y,1/2+z
1/2+x,1/2+y,z
1/2-x,-y,z
1/2+x,-y,1/2-z
1/2-x,1/2+y,1/2-z
1/2-x,1/2-y,-z
1/2+x,y,-z
1/2-x,y,1/2+z
1/2+x,1/2-y,1/2+z
loop_
_atom_site_type_symbol
_atom_site_label
_atom_site_fract_x
_atom_site_fract_y
_atom_site_fract_z
Si Si1 0.972374 0.145233 0.304757
Si Si2 0.114916 0.249222 0.695585
Si Si3 0.772400 0.696691 0.062777
Si Si4 0.400169 0.065227 0.890264
Si Si5 0.595845 0.305475 0.979026
Si Si6 0.180268 0.873455 0.381693
Si Si7 0.239596 0.894606 0.658586
O O1 0.855632 0.141413 0.312949
O O2 0.000000 0.250000 0.313403
O O3 0.000000 0.113241 0.250000
O O4 0.026695 0.083771 0.345405
O O5 0.148171 0.250000 0.750000
O O6 0.153409 0.343229 0.672218
O O7 0.161704 0.157307 0.674088
O O8 0.000000 0.250000 0.687354
O O9 0.671384 0.728953 0.039221
O O10 0.831015 0.785334 0.083712
O O11 0.734818 0.622138 0.101306
O O12 0.848628 0.648356 0.025169
O O13 0.433162 0.117533 0.939173
O O14 0.292755 0.098658 0.876529
O O15 0.391859 0.955319 0.899758
O O16 0.500000 0.250000 0.995321
O O17 0.250000 0.000000 0.671105
#
# Coordination Sequence:
#
# PCOD8282019 Si02
#       7
#    16  16  16  16  16  16  16
#     4  11  24  40  67  96 129 174 221 271 338 393
#     4  10  23  41  64  87 128 176 213 255 330 402
#     4   9  20  40  60  88 126 167 210 261 336 395
#     4  10  20  38  63  94 126 163 218 283 322 389
#     4  10  19  37  63  90 120 169 215 267 328 393
#     4   9  20  38  63  86 124 170 211 270 325 397
#     4  11  25  43  64  97 133 167 215 282 326 383
#
# _framework density 20.440498999999999
#
# number of rings (size 3 to 8) (size 9 to 14) (size 15 to 20)
#    0.000    2.000    0.000    3.857    6.000    3.429 
#    7.714    0.714    0.000    0.000    0.000    0.000 
#    0.000    0.000    0.000    0.000    0.000    0.000 
#
# Total GULP energy -694131.023824 kJ/mol
# GULP energy per Si atom -12395.196854 kJ/mol
# Density = 2.039398 g / cm^3
# Si number density = 20.440499 Si / 1000 Ang^3
#
#
#
# Elastic Constant Matrix: (Units=GPa)
#
#
# Indices 1 2 3 4 5 6 
#
# 1 281.7230 123.4073 22.4106 0.0000 0.0000 0.0000
# 2 123.4073 137.1989 7.8640 0.0000 0.0000 0.0000
# 3 22.4106 7.8640 114.7732 0.0000 0.0000 0.0000
# 4 0.0000 0.0000 0.0000 24.5307 0.0000 0.0000
# 5 0.0000 0.0000 0.0000 0.0000 59.6460 0.0000
# 6 0.0000 0.0000 0.0000 0.0000 0.0000 20.8659
#
#
#
# Elastic Compliance Matrix: (Units=1/GPa)
#
#
# Indices 1 2 3 4 5 6 
#
# 1 0.005929 -0.005287 -0.000795 0.000000 0.000000 0.000000
# 2 -0.005287 0.012033 0.000208 0.000000 0.000000 0.000000
# 3 -0.000795 0.000208 0.008854 0.000000 0.000000 0.000000
# 4 0.000000 0.000000 0.000000 0.040765 0.000000 0.000000
# 5 0.000000 0.000000 0.000000 0.000000 0.016766 0.000000
# 6 0.000000 0.000000 0.000000 0.000000 0.000000 0.047925
#
#
# Mechanical properties :
#
#
# Convention : Reuss Voigt Hill
#
# Bulk Modulus (GPa) = 66.37524 93.45100 79.91312
# Shear Modulus (GPa) = 33.54733 46.34272 39.94503
#
# Velocity S-wave (km/s) = 4.05559 4.76668 4.42544
# Velocity P-wave (km/s) = 7.38061 8.72426 8.08041
#
# Compressibility (1/GPa) = 0.01506586
#
# Stress axis : x y z
#
# Youngs Moduli (GPa) = 168.66339 83.10727 112.94455
#
# Poissons Ratio (x) = 0.43942 0.08984
# Poissons Ratio (y) = 0.89179 -0.02349
# Poissons Ratio (z) = 0.13416 -0.01728
#
# Static dielectric constant tensor:
#      x y z
#    x 4.321060 0.000000 0.000000 
#    y 0.000000 5.696410 0.000000 
#    z 0.000000 0.000000 4.112330 
# 
# 
# High freq. dielectric constant tensor:
#      x y z
#    x 1.805590 0.000000 0.000000 
#    y 0.000000 1.783380 0.000000 
#    z 0.000000 0.000000 1.805290 
# 
# From -- ./inp_files/54843.got.cif
#   From: 2010.03.12/outbox.cif.g09.slc.cpg/sg68_28_cif.got.tgz:54843.got - 2010.04.10 23:14:56.
