data_PCOD8282510
_publ_section_title
;
Structure prediction by ZEFSAII (Michael W. Deem and Ramdas Pophale) SiO2 
 PCOD8282510
Probable space group: C C C A
;
_chemical_formula_sum "Si O2"
_cell_formula_units_Z 88
_cell_length_a 15.536825
_cell_length_b 26.241291
_cell_length_c 9.517283
_cell_angle_alpha 90.000000
_cell_angle_beta 90.000000
_cell_angle_gamma 90.000000
_cell_volume 3880.256676
_symmetry_space_group_name_H-M "C C C A"
_symmetry_group_IT_number 68
_space_group.IT_coordinate_system_code '2'
_symmetry_cell_setting 'orthorhombic'
loop_
_space_group_symop_operation_xyz
x,y,z
-x,1/2-y,z
x,1/2-y,1/2-z
-x,y,1/2-z
-x,-y,-z
x,1/2+y,-z
-x,1/2+y,1/2+z
x,-y,1/2+z
1/2+x,1/2+y,z
1/2-x,-y,z
1/2+x,-y,1/2-z
1/2-x,1/2+y,1/2-z
1/2-x,1/2-y,-z
1/2+x,y,-z
1/2-x,y,1/2+z
1/2+x,1/2-y,1/2+z
loop_
_atom_site_type_symbol
_atom_site_label
_atom_site_fract_x
_atom_site_fract_y
_atom_site_fract_z
Si Si1 0.095198 0.561356 0.794019
Si Si2 0.148229 0.885889 0.074186
Si Si3 0.944627 0.708559 0.107336
Si Si4 0.215610 0.750000 0.250000
Si Si5 0.149309 0.507253 0.526675
Si Si6 0.272748 0.141787 0.800596
O O1 0.129536 0.515627 0.691453
O O2 0.100006 0.540254 0.954121
O O3 0.149771 0.613298 0.780471
O O4 0.000000 0.576397 0.750000
O O5 0.225732 0.875678 0.962766
O O6 0.068604 0.847177 0.038771
O O7 0.114973 0.942892 0.056625
O O8 0.182618 0.876597 0.232072
O O9 0.847885 0.730952 0.126084
O O10 0.000000 0.750000 0.015113
O O11 0.000000 0.701391 0.250000
O O12 0.278095 0.703353 0.205725
O O13 0.250000 0.500000 0.502456
#
# Coordination Sequence:
#
# PCOD8282510 Si02
#       6
#    16  16  16   8  16  16
#     4  11  24  41  60  90 128 159 204 266 315 365
#     4  10  21  36  62  92 117 160 206 254 304 374
#     4   8  16  34  58  88 123 150 201 258 301 359
#     4   8  17  36  61  86 114 162 200 246 297 372
#     4  11  22  40  66  90 119 166 213 250 311 379
#     4  10  21  38  58  88 122 155 209 245 308 368
#
# _framework density 22.678913000000001
#
# number of rings (size 3 to 8) (size 9 to 14) (size 15 to 20)
#    0.000    2.364    1.818    1.091    2.545    3.636 
#    0.000   15.000    0.000    0.000    0.000   11.455 
#    0.000    0.000    0.000    0.000    0.000    0.000 
#
# Total GULP energy -545079.353401 kJ/mol
# GULP energy per Si atom -12388.167123 kJ/mol
# Density = 2.262730 g / cm^3
# Si number density = 22.678913 Si / 1000 Ang^3
#
#
#
# Elastic Constant Matrix: (Units=GPa)
#
#
# Indices 1 2 3 4 5 6 
#
# 1 81.6899 44.0239 0.1381 0.0000 0.0000 0.0000
# 2 44.0239 122.4964 9.7076 0.0000 0.0000 0.0000
# 3 0.1381 9.7076 53.5228 0.0000 0.0000 0.0000
# 4 0.0000 0.0000 0.0000 22.2714 0.0000 0.0000
# 5 0.0000 0.0000 0.0000 0.0000 16.9456 0.0000
# 6 0.0000 0.0000 0.0000 0.0000 0.0000 40.4658
#
#
#
# Elastic Compliance Matrix: (Units=1/GPa)
#
#
# Indices 1 2 3 4 5 6 
#
# 1 0.015231 -0.005551 0.000967 0.000000 0.000000 0.000000
# 2 -0.005551 0.010305 -0.001855 0.000000 0.000000 0.000000
# 3 0.000967 -0.001855 0.019018 0.000000 0.000000 0.000000
# 4 0.000000 0.000000 0.000000 0.044901 0.000000 0.000000
# 5 0.000000 0.000000 0.000000 0.000000 0.059012 0.000000
# 6 0.000000 0.000000 0.000000 0.000000 0.000000 0.024712
#
#
# Mechanical properties :
#
#
# Convention : Reuss Voigt Hill
#
# Bulk Modulus (GPa) = 31.56756 40.60535 36.08646
# Shear Modulus (GPa) = 25.43050 29.52586 27.47818
#
# Velocity S-wave (km/s) = 3.35226 3.61211 3.48461
# Velocity P-wave (km/s) = 5.37895 5.94473 5.66890
#
# Compressibility (1/GPa) = 0.03167809
#
# Stress axis : x y z
#
# Youngs Moduli (GPa) = 65.65534 97.03752 52.58307
#
# Poissons Ratio (x) = 0.53861 -0.05087
# Poissons Ratio (y) = 0.36442 0.09753
# Poissons Ratio (z) = -0.06352 0.17998
#
# Static dielectric constant tensor:
#      x y z
#    x 3.881750 0.000000 0.000000 
#    y 0.000000 4.523960 0.000000 
#    z 0.000000 0.000000 3.859040 
# 
# 
# High freq. dielectric constant tensor:
#      x y z
#    x 1.871620 0.000000 0.000000 
#    y 0.000000 1.909410 0.000000 
#    z 0.000000 0.000000 1.861850 
# 
# From -- ./inp_files/13464.got.cif
#   From: 2010.03.12/outbox.cif.g09.slc.cpg/sg68_7_cif.got.tgz:13464.got - 2010.04.10 23:14:56.
