data_PCOD8282456
_publ_section_title
;
Structure prediction by ZEFSAII (Michael W. Deem and Ramdas Pophale) SiO2 
 PCOD8282456
Probable space group: C C C A
;
_chemical_formula_sum "Si O2"
_cell_formula_units_Z 80
_cell_length_a 16.091826
_cell_length_b 17.871484
_cell_length_c 13.368671
_cell_angle_alpha 90.000000
_cell_angle_beta 90.000000
_cell_angle_gamma 90.000000
_cell_volume 3844.626721
_symmetry_space_group_name_H-M "C C C A"
_symmetry_group_IT_number 68
_space_group.IT_coordinate_system_code '2'
_symmetry_cell_setting 'orthorhombic'
loop_
_space_group_symop_operation_xyz
x,y,z
-x,1/2-y,z
x,1/2-y,1/2-z
-x,y,1/2-z
-x,-y,-z
x,1/2+y,-z
-x,1/2+y,1/2+z
x,-y,1/2+z
1/2+x,1/2+y,z
1/2-x,-y,z
1/2+x,-y,1/2-z
1/2-x,1/2+y,1/2-z
1/2-x,1/2-y,-z
1/2+x,y,-z
1/2-x,y,1/2+z
1/2+x,1/2-y,1/2+z
loop_
_atom_site_type_symbol
_atom_site_label
_atom_site_fract_x
_atom_site_fract_y
_atom_site_fract_z
Si Si1 0.020917 0.090834 0.642594
Si Si2 0.815174 0.894880 0.662051
Si Si3 0.606796 0.065084 0.868021
Si Si4 0.961847 0.668678 0.944941
Si Si5 0.839591 0.557192 0.420987
O O1 0.936193 0.062821 0.596756
O O2 0.000000 0.128591 0.750000
O O3 0.056116 0.149673 0.561690
O O4 0.082885 0.020673 0.657554
O O5 0.840058 0.901494 0.777026
O O6 0.872630 0.831969 0.610752
O O7 0.715340 0.882223 0.644182
O O8 0.821134 0.971355 0.600627
O O9 0.521770 0.110761 0.887066
O O10 0.670609 0.071495 0.960281
O O11 0.000000 0.750000 0.936152
#
# Coordination Sequence:
#
# PCOD8282456 Si02
#       5
#    16  16  16  16  16
#     4  11  19  38  62  86 118 158 205 254 300 362
#     4  11  21  35  60  93 120 153 202 248 316 353
#     4  11  20  39  61  88 119 156 204 252 303 370
#     4  11  23  39  60  87 123 162 203 249 300 376
#     4  10  21  34  57  93 122 144 195 263 307 350
#
# _framework density 20.808263
#
# number of rings (size 3 to 8) (size 9 to 14) (size 15 to 20)
#    0.000    1.200    6.000    1.800    0.000    6.800 
#    0.000    4.000    0.000    4.800    0.000    0.000 
#    0.000    0.000    0.000    0.000    0.000    0.000 
#
# Total GULP energy -495654.513388 kJ/mol
# GULP energy per Si atom -12391.362835 kJ/mol
# Density = 2.076090 g / cm^3
# Si number density = 20.808263 Si / 1000 Ang^3
#
#
#
# Elastic Constant Matrix: (Units=GPa)
#
#
# Indices 1 2 3 4 5 6 
#
# 1 49.0559 2.5393 27.5192 0.0000 0.0000 0.0000
# 2 2.5393 63.1339 12.4381 0.0000 0.0000 0.0000
# 3 27.5192 12.4381 153.9476 0.0000 0.0000 0.0000
# 4 0.0000 0.0000 0.0000 9.6672 0.0000 0.0000
# 5 0.0000 0.0000 0.0000 0.0000 30.4151 0.0000
# 6 0.0000 0.0000 0.0000 0.0000 0.0000 22.6804
#
#
#
# Elastic Compliance Matrix: (Units=1/GPa)
#
#
# Indices 1 2 3 4 5 6 
#
# 1 0.022658 -0.000115 -0.004041 0.000000 0.000000 0.000000
# 2 -0.000115 0.016096 -0.001280 0.000000 0.000000 0.000000
# 3 -0.004041 -0.001280 0.007321 0.000000 0.000000 0.000000
# 4 0.000000 0.000000 0.000000 0.103443 0.000000 0.000000
# 5 0.000000 0.000000 0.000000 0.000000 0.032878 0.000000
# 6 0.000000 0.000000 0.000000 0.000000 0.000000 0.044091
#
#
# Mechanical properties :
#
#
# Convention : Reuss Voigt Hill
#
# Bulk Modulus (GPa) = 28.40639 39.01450 33.71044
# Shear Modulus (GPa) = 20.07275 27.46191 23.76733
#
# Velocity S-wave (km/s) = 3.10926 3.63679 3.38332
# Velocity P-wave (km/s) = 5.15472 6.03533 5.61232
#
# Compressibility (1/GPa) = 0.03520335
#
# Stress axis : x y z
#
# Youngs Moduli (GPa) = 44.13502 62.12667 136.58467
#
# Poissons Ratio (x) = 0.00716 0.55193
# Poissons Ratio (y) = 0.00508 0.17481
# Poissons Ratio (z) = 0.17835 0.07952
#
# Static dielectric constant tensor:
#      x y z
#    x 22.845220 0.000000 0.000000 
#    y 0.000000 3.302460 0.000000 
#    z 0.000000 0.000000 4.479910 
# 
# 
# High freq. dielectric constant tensor:
#      x y z
#    x 1.818880 0.000000 0.000000 
#    y 0.000000 1.756140 0.000000 
#    z 0.000000 0.000000 1.836480 
# 
# From -- ./inp_files/23503.got.cif
#   From: 2010.03.12/outbox.cif.g09.slc.cpg/sg68_12_cif.got.tgz:23503.got - 2010.04.10 23:14:56.
