data_PCOD8282765
_publ_section_title
;
Structure prediction by ZEFSAII (Michael W. Deem and Ramdas Pophale) SiO2 
 PCOD8282765
Probable space group: C C C A
;
_chemical_formula_sum "Si O2"
_cell_formula_units_Z 116
_cell_length_a 23.319059
_cell_length_b 26.192377
_cell_length_c 9.314742
_cell_angle_alpha 90.000000
_cell_angle_beta 90.000000
_cell_angle_gamma 90.000000
_cell_volume 5689.272879
_symmetry_space_group_name_H-M "C C C A"
_symmetry_group_IT_number 68
_space_group.IT_coordinate_system_code '2'
_symmetry_cell_setting 'orthorhombic'
loop_
_space_group_symop_operation_xyz
x,y,z
-x,1/2-y,z
x,1/2-y,1/2-z
-x,y,1/2-z
-x,-y,-z
x,1/2+y,-z
-x,1/2+y,1/2+z
x,-y,1/2+z
1/2+x,1/2+y,z
1/2-x,-y,z
1/2+x,-y,1/2-z
1/2-x,1/2+y,1/2-z
1/2-x,1/2-y,-z
1/2+x,y,-z
1/2-x,y,1/2+z
1/2+x,1/2-y,1/2+z
loop_
_atom_site_type_symbol
_atom_site_label
_atom_site_fract_x
_atom_site_fract_y
_atom_site_fract_z
Si Si1 0.265517 0.058384 0.889216
Si Si2 0.320107 0.098568 0.175715
Si Si3 0.417180 0.203058 0.969168
Si Si4 0.563469 0.362290 0.232536
Si Si5 0.128630 0.815171 0.492097
Si Si6 0.341373 0.359190 0.720053
Si Si7 0.723695 0.307357 0.283600
Si Si8 0.500000 0.250000 0.750000
O O1 0.207563 0.086132 0.833817
O O2 0.317830 0.082282 0.793433
O O3 0.250000 0.000000 0.861867
O O4 0.285534 0.066900 0.054333
O O5 0.389769 0.093721 0.183413
O O6 0.307377 0.159202 0.157470
O O7 0.379847 0.154360 0.916774
O O8 0.465781 0.211272 0.850897
O O9 0.442500 0.184808 0.120921
O O10 0.382989 0.255920 0.977929
O O11 0.500000 0.387358 0.250000
O O12 0.582459 0.337807 0.382501
O O13 0.123797 0.850156 0.634030
O O14 0.193693 0.819831 0.435858
O O15 0.290389 0.318184 0.711217
O O16 0.709511 0.250000 0.250000
#
# Coordination Sequence:
#
# PCOD8282765 Si02
#       8
#    16  16  16  16  16  16  16   4
#     4  11  24  44  70  99 127 168 219 294 368 423
#     4  10  23  42  64  98 130 167 224 278 342 422
#     4  12  22  40  57  91 133 183 235 278 321 395
#     4  11  24  40  63  92 133 185 230 276 330 402
#     4  11  22  38  58  87 136 184 225 270 318 398
#     4  11  24  37  58  93 130 166 221 276 340 406
#     4  10  22  33  58  90 133 175 211 253 329 408
#     4  12  24  36  62  88 136 188 246 280 318 392
#
# _framework density 20.389247999999998
#
# number of rings (size 3 to 8) (size 9 to 14) (size 15 to 20)
#    0.000    1.103    2.759    4.138   11.586    1.655 
#    0.000    0.000    0.000    0.828    1.793    0.000 
#    0.000    0.000    0.000    0.000    0.000    0.000 
#
# Total GULP energy -718556.622530 kJ/mol
# GULP energy per Si atom -12388.907285 kJ/mol
# Density = 2.034284 g / cm^3
# Si number density = 20.389248 Si / 1000 Ang^3
#
#
#
# Elastic Constant Matrix: (Units=GPa)
#
#
# Indices 1 2 3 4 5 6 
#
# 1 127.9590 32.3305 50.8286 0.0000 0.0000 0.0000
# 2 32.3305 109.8477 31.8594 0.0000 0.0000 0.0000
# 3 50.8286 31.8594 114.5831 0.0000 0.0000 0.0000
# 4 0.0000 0.0000 0.0000 23.3368 0.0000 0.0000
# 5 0.0000 0.0000 0.0000 0.0000 21.4645 0.0000
# 6 0.0000 0.0000 0.0000 0.0000 0.0000 14.4067
#
#
#
# Elastic Compliance Matrix: (Units=1/GPa)
#
#
# Indices 1 2 3 4 5 6 
#
# 1 0.009791 -0.001764 -0.003853 0.000000 0.000000 0.000000
# 2 -0.001764 0.010220 -0.002059 0.000000 0.000000 0.000000
# 3 -0.003853 -0.002059 0.011009 0.000000 0.000000 0.000000
# 4 0.000000 0.000000 0.000000 0.042851 0.000000 0.000000
# 5 0.000000 0.000000 0.000000 0.000000 0.046589 0.000000
# 6 0.000000 0.000000 0.000000 0.000000 0.000000 0.069412
#
#
# Mechanical properties :
#
#
# Convention : Reuss Voigt Hill
#
# Bulk Modulus (GPa) = 63.82486 64.71407 64.26947
# Shear Modulus (GPa) = 23.75903 27.66635 25.71269
#
# Velocity S-wave (km/s) = 3.41731 3.68762 3.55504
# Velocity P-wave (km/s) = 6.85141 7.06680 6.95994
#
# Compressibility (1/GPa) = 0.01566788
#
# Stress axis : x y z
#
# Youngs Moduli (GPa) = 102.13242 97.84772 90.83593
#
# Poissons Ratio (x) = 0.17264 0.34997
# Poissons Ratio (y) = 0.18020 0.18703
# Poissons Ratio (z) = 0.39349 0.20147
#
# Static dielectric constant tensor:
#      x y z
#    x 3.854640 0.000000 0.000000 
#    y 0.000000 3.505450 0.000000 
#    z 0.000000 0.000000 4.011940 
# 
# 
# High freq. dielectric constant tensor:
#      x y z
#    x 1.791740 0.000000 0.000000 
#    y 0.000000 1.753560 0.000000 
#    z 0.000000 0.000000 1.815880 
# 
# From -- ./inp_files/8375.got.cif
#   From: 2010.03.12/outbox.cif.g09.slc.cpg/sg68_5_cif.got.tgz:8375.got - 2010.04.10 23:14:56.
