data_PCOD8282116
_publ_section_title
;
Structure prediction by ZEFSAII (Michael W. Deem and Ramdas Pophale) SiO2 
 PCOD8282116
Probable space group: C C C A
;
_chemical_formula_sum "Si O2"
_cell_formula_units_Z 88
_cell_length_a 15.143604
_cell_length_b 23.338595
_cell_length_c 13.285121
_cell_angle_alpha 90.000000
_cell_angle_beta 90.000000
_cell_angle_gamma 90.000000
_cell_volume 4695.366168
_symmetry_space_group_name_H-M "C C C A"
_symmetry_group_IT_number 68
_space_group.IT_coordinate_system_code '2'
_symmetry_cell_setting 'orthorhombic'
loop_
_space_group_symop_operation_xyz
x,y,z
-x,1/2-y,z
x,1/2-y,1/2-z
-x,y,1/2-z
-x,-y,-z
x,1/2+y,-z
-x,1/2+y,1/2+z
x,-y,1/2+z
1/2+x,1/2+y,z
1/2-x,-y,z
1/2+x,-y,1/2-z
1/2-x,1/2+y,1/2-z
1/2-x,1/2-y,-z
1/2+x,y,-z
1/2-x,y,1/2+z
1/2+x,1/2-y,1/2+z
loop_
_atom_site_type_symbol
_atom_site_label
_atom_site_fract_x
_atom_site_fract_y
_atom_site_fract_z
Si Si1 0.600601 0.254404 0.939028
Si Si2 0.099765 0.873614 0.034178
Si Si3 0.281029 0.750000 0.250000
Si Si4 0.825012 0.138207 0.754625
Si Si5 0.256221 0.567522 0.092862
Si Si6 0.599365 0.138110 0.049967
O O1 0.500000 0.250000 0.902513
O O2 0.659602 0.268750 0.843414
O O3 0.615171 0.306030 0.017227
O O4 0.628170 0.195630 0.992457
O O5 0.131042 0.889359 0.146644
O O6 0.995820 0.886670 0.019149
O O7 0.150721 0.912833 0.953815
O O8 0.222457 0.803201 0.215417
O O9 0.754309 0.093317 0.706025
O O10 0.900253 0.151082 0.670290
O O11 0.250000 0.500000 0.097775
O O12 0.175339 0.591485 0.023556
#
# Coordination Sequence:
#
# PCOD8282116 Si02
#       6
#    16  16   8  16  16  16
#     4  10  20  34  57  91 123 154 191 236 295 360
#     4  11  20  39  63  84 121 155 193 244 296 340
#     4  12  19  34  57  84 128 154 184 242 302 344
#     4  10  22  34  59  85 113 151 198 240 288 342
#     4  10  23  40  57  89 118 155 202 240 287 349
#     4   9  21  38  59  88 117 153 197 239 290 345
#
# _framework density 18.741882
#
# number of rings (size 3 to 8) (size 9 to 14) (size 15 to 20)
#    1.091    0.727    1.818    3.000    0.000    3.636 
#    0.000    3.636    0.000    2.182    0.000    0.000 
#    0.000    0.000    0.000    0.000    0.000    0.000 
#
# Total GULP energy -545453.500867 kJ/mol
# GULP energy per Si atom -12396.670474 kJ/mol
# Density = 1.869923 g / cm^3
# Si number density = 18.741882 Si / 1000 Ang^3
#
#
#
# Elastic Constant Matrix: (Units=GPa)
#
#
# Indices 1 2 3 4 5 6 
#
# 1 85.5724 30.1135 18.3907 0.0000 0.0000 0.0000
# 2 30.1135 102.3103 -2.4812 0.0000 0.0000 0.0000
# 3 18.3907 -2.4812 55.5158 0.0000 0.0000 0.0000
# 4 0.0000 0.0000 0.0000 20.1384 0.0000 0.0000
# 5 0.0000 0.0000 0.0000 0.0000 26.5524 0.0000
# 6 0.0000 0.0000 0.0000 0.0000 0.0000 19.9201
#
#
#
# Elastic Compliance Matrix: (Units=1/GPa)
#
#
# Indices 1 2 3 4 5 6 
#
# 1 0.014262 -0.004317 -0.004918 0.000000 0.000000 0.000000
# 2 -0.004317 0.011092 0.001926 0.000000 0.000000 0.000000
# 3 -0.004918 0.001926 0.019728 0.000000 0.000000 0.000000
# 4 0.000000 0.000000 0.000000 0.049656 0.000000 0.000000
# 5 0.000000 0.000000 0.000000 0.000000 0.037661 0.000000
# 6 0.000000 0.000000 0.000000 0.000000 0.000000 0.050201
#
#
# Mechanical properties :
#
#
# Convention : Reuss Voigt Hill
#
# Bulk Modulus (GPa) = 32.82556 37.27162 35.04859
# Shear Modulus (GPa) = 24.11121 26.48052 25.29587
#
# Velocity S-wave (km/s) = 3.59066 3.76294 3.67781
# Velocity P-wave (km/s) = 5.89432 6.22974 6.06435
#
# Compressibility (1/GPa) = 0.03046406
#
# Stress axis : x y z
#
# Youngs Moduli (GPa) = 70.11607 90.15866 50.68936
#
# Poissons Ratio (x) = 0.38922 0.24927
# Poissons Ratio (y) = 0.30270 -0.09762
# Poissons Ratio (z) = 0.34480 -0.17363
#
# Static dielectric constant tensor:
#      x y z
#    x 3.468430 0.000000 0.000000 
#    y 0.000000 3.133060 0.000000 
#    z 0.000000 0.000000 3.250370 
# 
# 
# High freq. dielectric constant tensor:
#      x y z
#    x 1.732850 0.000000 0.000000 
#    y 0.000000 1.706210 0.000000 
#    z 0.000000 0.000000 1.720250 
# 
# From -- ./inp_files/22478.got.cif
#   From: 2010.03.12/outbox.cif.g09.slc.cpg/sg68_12_cif.got.tgz:22478.got - 2010.04.10 23:14:56.
