data_PCOD8282359
_publ_section_title
;
Structure prediction by ZEFSAII (Michael W. Deem and Ramdas Pophale) SiO2 
 PCOD8282359
Probable space group: C C C A
;
_chemical_formula_sum "Si O2"
_cell_formula_units_Z 108
_cell_length_a 27.799646
_cell_length_b 14.987696
_cell_length_c 11.656193
_cell_angle_alpha 90.000000
_cell_angle_beta 90.000000
_cell_angle_gamma 90.000000
_cell_volume 4856.583623
_symmetry_space_group_name_H-M "C C C A"
_symmetry_group_IT_number 68
_space_group.IT_coordinate_system_code '2'
_symmetry_cell_setting 'orthorhombic'
loop_
_space_group_symop_operation_xyz
x,y,z
-x,1/2-y,z
x,1/2-y,1/2-z
-x,y,1/2-z
-x,-y,-z
x,1/2+y,-z
-x,1/2+y,1/2+z
x,-y,1/2+z
1/2+x,1/2+y,z
1/2-x,-y,z
1/2+x,-y,1/2-z
1/2-x,1/2+y,1/2-z
1/2-x,1/2-y,-z
1/2+x,y,-z
1/2-x,y,1/2+z
1/2+x,1/2-y,1/2+z
loop_
_atom_site_type_symbol
_atom_site_label
_atom_site_fract_x
_atom_site_fract_y
_atom_site_fract_z
Si Si1 0.697233 0.891140 0.413822
Si Si2 0.191424 0.090005 0.625713
Si Si3 0.629032 0.888080 0.073734
Si Si4 0.655339 0.750000 0.250000
Si Si5 0.000000 0.250000 0.250000
Si Si6 0.644667 0.584137 0.858851
Si Si7 0.030351 0.411101 0.643135
Si Si8 0.975252 0.892587 0.575466
O O1 0.754560 0.897203 0.416930
O O2 0.688827 0.814015 0.323271
O O3 0.670336 0.867318 0.533299
O O4 0.675947 0.986041 0.374977
O O5 0.161692 0.144975 0.531097
O O6 0.175819 0.122652 0.752017
O O7 0.622890 0.810841 0.168071
O O8 0.577003 0.907200 0.018732
O O9 0.651250 0.977395 0.130617
O O10 0.969168 0.314654 0.331077
O O11 0.587664 0.606176 0.844520
O O12 0.012746 0.513974 0.637217
O O13 0.000000 0.369351 0.750000
O O14 0.013820 0.366067 0.522629
#
# Coordination Sequence:
#
# PCOD8282359 Si02
#       8
#    16  16  16   8   4  16  16  16
#     4  10  24  38  67  92 128 169 211 263 319 377
#     4  10  21  42  65  91 124 172 217 257 313 382
#     4  10  22  38  62  92 128 164 212 261 319 374
#     4  12  23  42  62  99 132 164 207 268 317 380
#     4  12  22  40  62  92 132 174 204 254 334 380
#     4  10  21  40  65  93 122 170 215 261 310 382
#     4  10  20  39  65  93 125 162 219 263 309 373
#     4  10  22  37  61  93 127 168 207 261 318 383
#
# _framework density 22.237855
#
# number of rings (size 3 to 8) (size 9 to 14) (size 15 to 20)
#    0.000    1.778    2.222    1.333    2.074    5.333 
#    0.000    0.370    0.000    3.556    0.000    0.000 
#    0.000    0.000    0.000    0.000    0.000    0.000 
#
# Total GULP energy -669173.342615 kJ/mol
# GULP energy per Si atom -12392.098937 kJ/mol
# Density = 2.218724 g / cm^3
# Si number density = 22.237855 Si / 1000 Ang^3
#
#
#
# Elastic Constant Matrix: (Units=GPa)
#
#
# Indices 1 2 3 4 5 6 
#
# 1 126.1511 14.0527 74.2883 0.0000 0.0000 0.0000
# 2 14.0527 58.1226 29.3284 0.0000 0.0000 0.0000
# 3 74.2883 29.3284 155.1051 0.0000 0.0000 0.0000
# 4 0.0000 0.0000 0.0000 35.4022 0.0000 0.0000
# 5 0.0000 0.0000 0.0000 0.0000 39.6707 0.0000
# 6 0.0000 0.0000 0.0000 0.0000 0.0000 8.7819
#
#
#
# Elastic Compliance Matrix: (Units=1/GPa)
#
#
# Indices 1 2 3 4 5 6 
#
# 1 0.011041 -0.000001 -0.005288 0.000000 0.000000 0.000000
# 2 -0.000001 0.019020 -0.003596 0.000000 0.000000 0.000000
# 3 -0.005288 -0.003596 0.009660 0.000000 0.000000 0.000000
# 4 0.000000 0.000000 0.000000 0.028247 0.000000 0.000000
# 5 0.000000 0.000000 0.000000 0.000000 0.025208 0.000000
# 6 0.000000 0.000000 0.000000 0.000000 0.000000 0.113870
#
#
# Mechanical properties :
#
#
# Convention : Reuss Voigt Hill
#
# Bulk Modulus (GPa) = 45.55652 63.85753 54.70702
# Shear Modulus (GPa) = 21.53944 31.55157 26.54550
#
# Velocity S-wave (km/s) = 3.11560 3.77081 3.45876
# Velocity P-wave (km/s) = 5.78560 6.90918 6.37220
#
# Compressibility (1/GPa) = 0.02195075
#
# Stress axis : x y z
#
# Youngs Moduli (GPa) = 90.57039 52.57693 103.52113
#
# Poissons Ratio (x) = 0.00006 0.54742
# Poissons Ratio (y) = 0.00011 0.37224
# Poissons Ratio (z) = 0.47893 0.18906
#
# Static dielectric constant tensor:
#      x y z
#    x 3.809840 0.000000 0.000000 
#    y 0.000000 3.790590 0.000000 
#    z 0.000000 0.000000 4.060520 
# 
# 
# High freq. dielectric constant tensor:
#      x y z
#    x 1.875780 0.000000 0.000000 
#    y 0.000000 1.850250 0.000000 
#    z 0.000000 0.000000 1.881300 
# 
# From -- ./inp_files/17835.got.cif
#   From: 2010.03.12/outbox.cif.g09.slc.cpg/sg68_9_cif.got.tgz:17835.got - 2010.04.10 23:14:56.
