data_PCOD8282795
_publ_section_title
;
Structure prediction by ZEFSAII (Michael W. Deem and Ramdas Pophale) SiO2 
 PCOD8282795
Probable space group: C C C A
;
_chemical_formula_sum "Si O2"
_cell_formula_units_Z 120
_cell_length_a 28.079863
_cell_length_b 11.859868
_cell_length_c 18.147105
_cell_angle_alpha 90.000000
_cell_angle_beta 90.000000
_cell_angle_gamma 90.000000
_cell_volume 6043.411853
_symmetry_space_group_name_H-M "C C C A"
_symmetry_group_IT_number 68
_space_group.IT_coordinate_system_code '2'
_symmetry_cell_setting 'orthorhombic'
loop_
_space_group_symop_operation_xyz
x,y,z
-x,1/2-y,z
x,1/2-y,1/2-z
-x,y,1/2-z
-x,-y,-z
x,1/2+y,-z
-x,1/2+y,1/2+z
x,-y,1/2+z
1/2+x,1/2+y,z
1/2-x,-y,z
1/2+x,-y,1/2-z
1/2-x,1/2+y,1/2-z
1/2-x,1/2-y,-z
1/2+x,y,-z
1/2-x,y,1/2+z
1/2+x,1/2-y,1/2+z
loop_
_atom_site_type_symbol
_atom_site_label
_atom_site_fract_x
_atom_site_fract_y
_atom_site_fract_z
Si Si1 0.592810 0.932873 0.362017
Si Si2 0.250000 0.000000 0.101431
Si Si3 0.262326 0.232847 0.669681
Si Si4 0.842257 0.292494 0.830303
Si Si5 0.646136 0.204823 0.604036
Si Si6 0.007111 0.124587 0.335980
Si Si7 0.652950 0.400951 0.051914
Si Si8 0.106495 0.020405 0.307316
O O1 0.609861 0.804605 0.374528
O O2 0.536014 0.946881 0.370883
O O3 0.606520 0.980971 0.281253
O O4 0.615277 0.004607 0.426866
O O5 0.254341 0.899343 0.159326
O O6 0.204607 0.964358 0.050611
O O7 0.285560 0.250000 0.750000
O O8 0.214942 0.310786 0.664436
O O9 0.298614 0.260135 0.603702
O O10 0.856554 0.250000 0.750000
O O11 0.853929 0.200525 0.891326
O O12 0.874107 0.403879 0.842484
O O13 0.636322 0.148444 0.525695
O O14 0.643731 0.114653 0.669313
O O15 0.056770 0.057953 0.347609
O O16 0.000000 0.250000 0.370601
O O17 0.000000 0.137347 0.250000
#
# Coordination Sequence:
#
# PCOD8282795 Si02
#       8
#    16   8  16  16  16  16  16  16
#     4  11  21  43  67  90 127 160 216 271 320 373
#     4  10  22  42  62  82 130 172 216 256 320 372
#     4  10  22  37  62  94 124 166 215 264 315 376
#     4  10  22  41  62  91 132 171 211 254 323 384
#     4  12  25  36  64  97 124 166 215 263 321 381
#     4   9  18  36  66  99 119 150 208 272 319 365
#     4  11  25  41  62  88 133 176 205 265 320 385
#     4  11  22  39  69  98 122 164 215 270 315 384
#
# _framework density 19.856331999999998
#
# number of rings (size 3 to 8) (size 9 to 14) (size 15 to 20)
#    0.000    1.467    4.000    1.200    1.867    3.733 
#    0.000    1.333    2.933    0.000    0.000    0.000 
#    0.000    0.000    0.000    0.000    0.000    0.000 
#
# Total GULP energy -743348.460434 kJ/mol
# GULP energy per Si atom -12389.141007 kJ/mol
# Density = 1.981114 g / cm^3
# Si number density = 19.856332 Si / 1000 Ang^3
#
#
#
# Elastic Constant Matrix: (Units=GPa)
#
#
# Indices 1 2 3 4 5 6 
#
# 1 116.2874 60.3253 22.8553 0.0000 0.0000 0.0000
# 2 60.3253 106.5702 16.0124 0.0000 0.0000 0.0000
# 3 22.8553 16.0124 52.6464 0.0000 0.0000 0.0000
# 4 0.0000 0.0000 0.0000 31.8451 0.0000 0.0000
# 5 0.0000 0.0000 0.0000 0.0000 9.3060 0.0000
# 6 0.0000 0.0000 0.0000 0.0000 0.0000 26.4386
#
#
#
# Elastic Compliance Matrix: (Units=1/GPa)
#
#
# Indices 1 2 3 4 5 6 
#
# 1 0.012763 -0.006698 -0.003503 0.000000 0.000000 0.000000
# 2 -0.006698 0.013348 -0.001152 0.000000 0.000000 0.000000
# 3 -0.003503 -0.001152 0.020866 0.000000 0.000000 0.000000
# 4 0.000000 0.000000 0.000000 0.031402 0.000000 0.000000
# 5 0.000000 0.000000 0.000000 0.000000 0.107458 0.000000
# 6 0.000000 0.000000 0.000000 0.000000 0.000000 0.037823
#
#
# Mechanical properties :
#
#
# Convention : Reuss Voigt Hill
#
# Bulk Modulus (GPa) = 41.20352 52.65442 46.92897
# Shear Modulus (GPa) = 19.64971 25.27200 22.46085
#
# Velocity S-wave (km/s) = 3.14919 3.57142 3.36693
# Velocity P-wave (km/s) = 5.83259 6.60167 6.22901
#
# Compressibility (1/GPa) = 0.02426977
#
# Stress axis : x y z
#
# Youngs Moduli (GPa) = 78.35377 74.91715 47.92491
#
# Poissons Ratio (x) = 0.50180 0.16790
# Poissons Ratio (y) = 0.52482 0.05521
# Poissons Ratio (z) = 0.27451 0.08631
#
# Static dielectric constant tensor:
#      x y z
#    x 3.875700 0.000000 0.000000 
#    y 0.000000 3.606790 0.000000 
#    z 0.000000 0.000000 3.443200 
# 
# 
# High freq. dielectric constant tensor:
#      x y z
#    x 1.776500 0.000000 0.000000 
#    y 0.000000 1.777020 0.000000 
#    z 0.000000 0.000000 1.753900 
# 
# From -- ./inp_files/41443.got.cif
#   From: 2010.03.12/outbox.cif.g09.slc.cpg/sg68_21_cif.got.tgz:41443.got - 2010.04.10 23:14:56.
