data_PCOD8282745
_publ_section_title
;
Structure prediction by ZEFSAII (Michael W. Deem and Ramdas Pophale) SiO2 
 PCOD8282745
Probable space group: C C C A
;
_chemical_formula_sum "Si O2"
_cell_formula_units_Z 88
_cell_length_a 19.170508
_cell_length_b 8.662250
_cell_length_c 24.892577
_cell_angle_alpha 90.000000
_cell_angle_beta 90.000000
_cell_angle_gamma 90.000000
_cell_volume 4133.654688
_symmetry_space_group_name_H-M "C C C A"
_symmetry_group_IT_number 68
_space_group.IT_coordinate_system_code '2'
_symmetry_cell_setting 'orthorhombic'
loop_
_space_group_symop_operation_xyz
x,y,z
-x,1/2-y,z
x,1/2-y,1/2-z
-x,y,1/2-z
-x,-y,-z
x,1/2+y,-z
-x,1/2+y,1/2+z
x,-y,1/2+z
1/2+x,1/2+y,z
1/2-x,-y,z
1/2+x,-y,1/2-z
1/2-x,1/2+y,1/2-z
1/2-x,1/2-y,-z
1/2+x,y,-z
1/2-x,y,1/2+z
1/2+x,1/2-y,1/2+z
loop_
_atom_site_type_symbol
_atom_site_label
_atom_site_fract_x
_atom_site_fract_y
_atom_site_fract_z
Si Si1 0.147370 0.634462 0.425081
Si Si2 0.250000 0.000000 0.657476
Si Si3 0.065911 0.655148 0.603376
Si Si4 0.120891 0.647115 0.801063
Si Si5 0.526326 0.911166 0.845548
Si Si6 0.670310 0.527153 0.968571
O O1 0.205069 0.618268 0.378495
O O2 0.071238 0.616304 0.399600
O O3 0.160765 0.496956 0.467688
O O4 0.151234 0.798695 0.454206
O O5 0.298535 0.098334 0.697633
O O6 0.106580 0.768699 0.642888
O O7 0.119224 0.597600 0.558526
O O8 0.000000 0.750000 0.578092
O O9 0.040985 0.509864 0.638223
O O10 0.103521 0.750000 0.750000
O O11 0.070661 0.497204 0.799116
O O12 0.500000 0.750000 0.821175
O O13 0.750000 0.500000 0.950761
#
# Coordination Sequence:
#
# PCOD8282745 Si02
#       6
#    16   8  16  16  16  16
#     4  11  24  38  66  95 135 180 226 272 332 402
#     4  10  22  46  66  94 140 166 222 284 338 402
#     4  10  23  41  66  94 137 179 226 279 335 397
#     4  10  23  45  71  97 127 174 224 280 344 406
#     4  10  21  43  65  95 135 172 222 279 334 390
#     4  12  24  38  63  98 135 183 231 269 334 401
#
# _framework density 21.288668999999999
#
# number of rings (size 3 to 8) (size 9 to 14) (size 15 to 20)
#    0.000    1.455    2.727    1.636    7.636    4.727 
#    4.909    1.818    0.000    0.000    0.000    0.000 
#    0.000    0.000    0.000    0.000    0.000    0.000 
#
# Total GULP energy -545710.421715 kJ/mol
# GULP energy per Si atom -12402.509584 kJ/mol
# Density = 2.124022 g / cm^3
# Si number density = 21.288669 Si / 1000 Ang^3
#
#
#
# Elastic Constant Matrix: (Units=GPa)
#
#
# Indices 1 2 3 4 5 6 
#
# 1 120.7500 39.3793 30.0395 0.0000 0.0000 0.0000
# 2 39.3793 130.3466 32.9924 0.0000 0.0000 0.0000
# 3 30.0395 32.9924 73.7758 0.0000 0.0000 0.0000
# 4 0.0000 0.0000 0.0000 37.8731 0.0000 0.0000
# 5 0.0000 0.0000 0.0000 0.0000 16.1701 0.0000
# 6 0.0000 0.0000 0.0000 0.0000 0.0000 37.0620
#
#
#
# Elastic Compliance Matrix: (Units=1/GPa)
#
#
# Indices 1 2 3 4 5 6 
#
# 1 0.009738 -0.002186 -0.002987 0.000000 0.000000 0.000000
# 2 -0.002186 0.009142 -0.003198 0.000000 0.000000 0.000000
# 3 -0.002987 -0.003198 0.016201 0.000000 0.000000 0.000000
# 4 0.000000 0.000000 0.000000 0.026404 0.000000 0.000000
# 5 0.000000 0.000000 0.000000 0.000000 0.061842 0.000000
# 6 0.000000 0.000000 0.000000 0.000000 0.000000 0.026982
#
#
# Mechanical properties :
#
#
# Convention : Reuss Voigt Hill
#
# Bulk Modulus (GPa) = 54.53207 58.85497 56.69352
# Shear Modulus (GPa) = 28.87439 33.05179 30.96309
#
# Velocity S-wave (km/s) = 3.68683 3.94452 3.81785
# Velocity P-wave (km/s) = 6.61776 6.96073 6.79141
#
# Compressibility (1/GPa) = 0.01833783
#
# Stress axis : x y z
#
# Youngs Moduli (GPa) = 102.69495 109.38910 61.72382
#
# Poissons Ratio (x) = 0.23909 0.18440
# Poissons Ratio (y) = 0.22446 0.19740
# Poissons Ratio (z) = 0.30680 0.34985
#
# Static dielectric constant tensor:
#      x y z
#    x 4.042070 0.000000 0.000000 
#    y 0.000000 4.098850 0.000000 
#    z 0.000000 0.000000 3.503390 
# 
# 
# High freq. dielectric constant tensor:
#      x y z
#    x 1.847900 0.000000 0.000000 
#    y 0.000000 1.848990 0.000000 
#    z 0.000000 0.000000 1.808570 
# 
# From -- ./inp_files/43130.got.cif
#   From: 2010.03.12/outbox.cif.g09.slc.cpg/sg68_22_cif.got.tgz:43130.got - 2010.04.10 23:14:56.
