data_PCOD8282639
_publ_section_title
;
Structure prediction by ZEFSAII (Michael W. Deem and Ramdas Pophale) SiO2 
 PCOD8282639
Probable space group: C C C A
;
_chemical_formula_sum "Si O2"
_cell_formula_units_Z 52
_cell_length_a 19.095333
_cell_length_b 22.359097
_cell_length_c 5.235017
_cell_angle_alpha 90.000000
_cell_angle_beta 90.000000
_cell_angle_gamma 90.000000
_cell_volume 2235.113557
_symmetry_space_group_name_H-M "C C C A"
_symmetry_group_IT_number 68
_space_group.IT_coordinate_system_code '2'
_symmetry_cell_setting 'orthorhombic'
loop_
_space_group_symop_operation_xyz
x,y,z
-x,1/2-y,z
x,1/2-y,1/2-z
-x,y,1/2-z
-x,-y,-z
x,1/2+y,-z
-x,1/2+y,1/2+z
x,-y,1/2+z
1/2+x,1/2+y,z
1/2-x,-y,z
1/2+x,-y,1/2-z
1/2-x,1/2+y,1/2-z
1/2-x,1/2-y,-z
1/2+x,y,-z
1/2-x,y,1/2+z
1/2+x,1/2-y,1/2+z
loop_
_atom_site_type_symbol
_atom_site_label
_atom_site_fract_x
_atom_site_fract_y
_atom_site_fract_z
Si Si1 0.078240 0.526888 0.701527
Si Si2 0.710233 0.820945 0.745849
Si Si3 0.500000 0.250000 0.750000
Si Si4 0.935995 0.852444 0.431335
O O1 0.116190 0.490063 0.470092
O O2 0.077176 0.597675 0.647578
O O3 0.000000 0.501390 0.750000
O O4 0.708703 0.750000 0.750000
O O5 0.746190 0.845306 0.488716
O O6 0.631586 0.845902 0.753230
O O7 0.449804 0.289934 0.573801
O O8 0.000000 0.871538 0.250000
#
# Coordination Sequence:
#
# PCOD8282639 Si02
#       4
#    16  16   4  16
#     4  10  21  39  63  93 126 168 216 265 324 385
#     4  10  24  42  63  89 130 178 216 254 321 404
#     4  12  26  36  60 106 132 164 204 278 342 376
#     4  12  25  41  65  98 136 165 217 280 329 387
#
# _framework density 23.265037
#
# number of rings (size 3 to 8) (size 9 to 14) (size 15 to 20)
#    0.000    1.231    1.538    5.077   10.769    0.000 
#    0.000    0.000    0.000    5.538    0.000    0.000 
#    0.000    0.000    0.000    0.000    0.000    0.000 
#
# Total GULP energy -322412.208076 kJ/mol
# GULP energy per Si atom -12400.469541 kJ/mol
# Density = 2.321208 g / cm^3
# Si number density = 23.265037 Si / 1000 Ang^3
#
#
#
# Elastic Constant Matrix: (Units=GPa)
#
#
# Indices 1 2 3 4 5 6 
#
# 1 127.8515 16.0966 50.9963 0.0000 0.0000 0.0000
# 2 16.0966 119.0628 50.9958 0.0000 0.0000 0.0000
# 3 50.9963 50.9958 183.5163 0.0000 0.0000 0.0000
# 4 0.0000 0.0000 0.0000 24.4680 0.0000 0.0000
# 5 0.0000 0.0000 0.0000 0.0000 27.1631 0.0000
# 6 0.0000 0.0000 0.0000 0.0000 0.0000 8.1715
#
#
#
# Elastic Compliance Matrix: (Units=1/GPa)
#
#
# Indices 1 2 3 4 5 6 
#
# 1 0.008799 -0.000162 -0.002400 0.000000 0.000000 0.000000
# 2 -0.000162 0.009537 -0.002605 0.000000 0.000000 0.000000
# 3 -0.002400 -0.002605 0.006840 0.000000 0.000000 0.000000
# 4 0.000000 0.000000 0.000000 0.040870 0.000000 0.000000
# 5 0.000000 0.000000 0.000000 0.000000 0.036815 0.000000
# 6 0.000000 0.000000 0.000000 0.000000 0.000000 0.122377
#
#
# Mechanical properties :
#
#
# Convention : Reuss Voigt Hill
#
# Bulk Modulus (GPa) = 67.37659 74.06756 70.72207
# Shear Modulus (GPa) = 20.78846 32.78331 26.78588
#
# Velocity S-wave (km/s) = 2.99247 3.75790 3.39682
# Velocity P-wave (km/s) = 6.40025 7.12283 6.77118
#
# Compressibility (1/GPa) = 0.01484195
#
# Stress axis : x y z
#
# Youngs Moduli (GPa) = 113.64504 104.85937 146.19803
#
# Poissons Ratio (x) = 0.01694 0.35092
# Poissons Ratio (y) = 0.01836 0.38087
# Poissons Ratio (z) = 0.27278 0.27317
#
# Static dielectric constant tensor:
#      x y z
#    x 3.824870 0.000000 0.000000 
#    y 0.000000 3.917690 0.000000 
#    z 0.000000 0.000000 4.832970 
# 
# 
# High freq. dielectric constant tensor:
#      x y z
#    x 1.870510 0.000000 0.000000 
#    y 0.000000 1.909490 0.000000 
#    z 0.000000 0.000000 1.947220 
# 
# From -- ./inp_files/1298.got.cif
#   From: 2010.03.12/outbox.cif.g09.slc.cpg/sg68_1_cif.got.tgz:1298.got - 2010.04.10 23:14:56.
