data_PCOD8282643
_publ_section_title
;
Structure prediction by ZEFSAII (Michael W. Deem and Ramdas Pophale) SiO2 
 PCOD8282643
Probable space group: C C C A
;
_chemical_formula_sum "Si O2"
_cell_formula_units_Z 80
_cell_length_a 10.126030
_cell_length_b 27.088728
_cell_length_c 16.353152
_cell_angle_alpha 90.000000
_cell_angle_beta 90.000000
_cell_angle_gamma 90.000000
_cell_volume 4485.690401
_symmetry_space_group_name_H-M "C C C A"
_symmetry_group_IT_number 68
_space_group.IT_coordinate_system_code '2'
_symmetry_cell_setting 'orthorhombic'
loop_
_space_group_symop_operation_xyz
x,y,z
-x,1/2-y,z
x,1/2-y,1/2-z
-x,y,1/2-z
-x,-y,-z
x,1/2+y,-z
-x,1/2+y,1/2+z
x,-y,1/2+z
1/2+x,1/2+y,z
1/2-x,-y,z
1/2+x,-y,1/2-z
1/2-x,1/2+y,1/2-z
1/2-x,1/2-y,-z
1/2+x,y,-z
1/2-x,y,1/2+z
1/2+x,1/2-y,1/2+z
loop_
_atom_site_type_symbol
_atom_site_label
_atom_site_fract_x
_atom_site_fract_y
_atom_site_fract_z
Si Si1 0.988732 0.193602 0.380240
Si Si2 0.486627 0.611960 0.988308
Si Si3 0.408851 0.887281 0.818316
Si Si4 0.781105 0.306688 0.253386
Si Si5 0.729806 0.557821 0.949580
O O1 0.852377 0.181623 0.332825
O O2 0.000000 0.250000 0.408782
O O3 0.991865 0.161063 0.460554
O O4 0.113686 0.182272 0.323975
O O5 0.494956 0.629136 0.893288
O O6 0.603356 0.572130 0.005282
O O7 0.351653 0.585831 0.010898
O O8 0.500000 0.914389 0.750000
O O9 0.344804 0.840599 0.771834
O O10 0.296807 0.924138 0.855411
O O11 0.734214 0.250000 0.250000
O O12 0.750000 0.500000 0.950599
#
# Coordination Sequence:
#
# PCOD8282643 Si02
#       5
#    16  16  16  16  16
#     4   9  17  34  61  89 114 157 200 238 293 364
#     4  10  21  39  64  85 122 156 199 250 294 362
#     4  10  23  37  55  83 123 149 200 249 298 347
#     4   9  18  36  57  83 122 154 195 244 295 351
#     4  10  22  41  63  88 117 155 206 248 306 350
#
# _framework density 17.834489999999999
#
# number of rings (size 3 to 8) (size 9 to 14) (size 15 to 20)
#    1.200    1.200    2.000    1.800    2.800    0.400 
#    3.600    6.000    0.000    0.000    0.000    0.000 
#    0.000    0.000    0.000    0.000    0.000    0.000 
#
# Total GULP energy -495583.365286 kJ/mol
# GULP energy per Si atom -12389.584132 kJ/mol
# Density = 1.779390 g / cm^3
# Si number density = 17.834490 Si / 1000 Ang^3
#
#
#
# Elastic Constant Matrix: (Units=GPa)
#
#
# Indices 1 2 3 4 5 6 
#
# 1 97.0961 23.9428 39.3764 0.0000 0.0000 0.0000
# 2 23.9428 66.3750 43.5056 0.0000 0.0000 0.0000
# 3 39.3764 43.5056 109.8881 0.0000 0.0000 0.0000
# 4 0.0000 0.0000 0.0000 26.6692 0.0000 0.0000
# 5 0.0000 0.0000 0.0000 0.0000 34.6448 0.0000
# 6 0.0000 0.0000 0.0000 0.0000 0.0000 19.2658
#
#
#
# Elastic Compliance Matrix: (Units=1/GPa)
#
#
# Indices 1 2 3 4 5 6 
#
# 1 0.012260 -0.002084 -0.003568 0.000000 0.000000 0.000000
# 2 -0.002084 0.020700 -0.007449 0.000000 0.000000 0.000000
# 3 -0.003568 -0.007449 0.013328 0.000000 0.000000 0.000000
# 4 0.000000 0.000000 0.000000 0.037496 0.000000 0.000000
# 5 0.000000 0.000000 0.000000 0.000000 0.028864 0.000000
# 6 0.000000 0.000000 0.000000 0.000000 0.000000 0.051906
#
#
# Mechanical properties :
#
#
# Convention : Reuss Voigt Hill
#
# Bulk Modulus (GPa) = 49.78449 54.11209 51.94829
# Shear Modulus (GPa) = 25.32289 27.21826 26.27057
#
# Velocity S-wave (km/s) = 3.77222 3.91085 3.84216
# Velocity P-wave (km/s) = 6.85188 7.12742 6.99100
#
# Compressibility (1/GPa) = 0.02008658
#
# Stress axis : x y z
#
# Youngs Moduli (GPa) = 81.56664 48.30992 75.03171
#
# Poissons Ratio (x) = 0.10066 0.26773
# Poissons Ratio (y) = 0.16995 0.55888
# Poissons Ratio (z) = 0.29105 0.35984
#
# Static dielectric constant tensor:
#      x y z
#    x 3.380910 0.000000 0.000000 
#    y 0.000000 3.226630 0.000000 
#    z 0.000000 0.000000 3.188710 
# 
# 
# High freq. dielectric constant tensor:
#      x y z
#    x 1.695190 0.000000 0.000000 
#    y 0.000000 1.675530 0.000000 
#    z 0.000000 0.000000 1.683290 
# 
# From -- ./inp_files/21086.got.cif
#   From: 2010.03.12/outbox.cif.g09.slc.cpg/sg68_11_cif.got.tgz:21086.got - 2010.04.10 23:14:56.
