data_PCOD8282570
_publ_section_title
;
Structure prediction by ZEFSAII (Michael W. Deem and Ramdas Pophale) SiO2 
 PCOD8282570
Probable space group: C C C A
;
_chemical_formula_sum "Si O2"
_cell_formula_units_Z 84
_cell_length_a 21.249296
_cell_length_b 18.654381
_cell_length_c 9.478572
_cell_angle_alpha 90.000000
_cell_angle_beta 90.000000
_cell_angle_gamma 90.000000
_cell_volume 3757.234506
_symmetry_space_group_name_H-M "C C C A"
_symmetry_group_IT_number 68
_space_group.IT_coordinate_system_code '2'
_symmetry_cell_setting 'orthorhombic'
loop_
_space_group_symop_operation_xyz
x,y,z
-x,1/2-y,z
x,1/2-y,1/2-z
-x,y,1/2-z
-x,-y,-z
x,1/2+y,-z
-x,1/2+y,1/2+z
x,-y,1/2+z
1/2+x,1/2+y,z
1/2-x,-y,z
1/2+x,-y,1/2-z
1/2-x,1/2+y,1/2-z
1/2-x,1/2-y,-z
1/2+x,y,-z
1/2-x,y,1/2+z
1/2+x,1/2-y,1/2+z
loop_
_atom_site_type_symbol
_atom_site_label
_atom_site_fract_x
_atom_site_fract_y
_atom_site_fract_z
Si Si1 0.425637 0.443956 0.388300
Si Si2 0.476861 0.402205 0.896185
Si Si3 0.210209 0.572668 0.486194
Si Si4 0.737142 0.830371 0.718714
Si Si5 0.500000 0.250000 0.250000
Si Si6 0.900244 0.848351 0.124279
O O1 0.469354 0.392518 0.484052
O O2 0.463199 0.515870 0.359034
O O3 0.360962 0.454511 0.473095
O O4 0.412331 0.412199 0.234472
O O5 0.500000 0.364611 0.750000
O O6 0.411390 0.371956 0.961247
O O7 0.250000 0.500000 0.502843
O O8 0.215631 0.624199 0.621635
O O9 0.230946 0.621969 0.357120
O O10 0.763456 0.750000 0.750000
O O11 0.670255 0.818947 0.639630
O O12 0.453320 0.289885 0.145852
#
# Coordination Sequence:
#
# PCOD8282570 Si02
#       6
#    16  16  16  16   4  16
#     4  10  21  38  60  88 122 161 202 255 323 398
#     4  11  21  35  61  97 125 149 202 274 329 372
#     4  11  24  41  64  91 128 169 223 274 330 398
#     4  11  24  43  66  94 127 176 226 275 335 405
#     4  12  20  40  66  80 120 168 218 242 302 424
#     4  11  22  40  65  88 120 169 212 251 327 408
#
# _framework density 22.356867999999999
#
# number of rings (size 3 to 8) (size 9 to 14) (size 15 to 20)
#    0.000    1.143    2.857    4.571    0.000    6.095 
#    0.000    0.476    0.000    0.000    0.000    0.000 
#    0.000    0.000    0.000    0.000    0.000    0.000 
#
# Total GULP energy -520621.938824 kJ/mol
# GULP energy per Si atom -12395.760448 kJ/mol
# Density = 2.230598 g / cm^3
# Si number density = 22.356868 Si / 1000 Ang^3
#
#
#
# Elastic Constant Matrix: (Units=GPa)
#
#
# Indices 1 2 3 4 5 6 
#
# 1 66.9941 20.5523 5.6085 0.0000 0.0000 0.0000
# 2 20.5523 95.0423 24.4893 0.0000 0.0000 0.0000
# 3 5.6085 24.4893 100.9018 0.0000 0.0000 0.0000
# 4 0.0000 0.0000 0.0000 522.2255 0.0000 0.0000
# 5 0.0000 0.0000 0.0000 0.0000 26.1320 0.0000
# 6 0.0000 0.0000 0.0000 0.0000 0.0000 22.0523
#
#
#
# Elastic Compliance Matrix: (Units=1/GPa)
#
#
# Indices 1 2 3 4 5 6 
#
# 1 0.015988 -0.003444 -0.000053 0.000000 0.000000 0.000000
# 2 -0.003444 0.011965 -0.002713 0.000000 0.000000 0.000000
# 3 -0.000053 -0.002713 0.010572 0.000000 0.000000 0.000000
# 4 0.000000 0.000000 0.000000 0.001915 0.000000 0.000000
# 5 0.000000 0.000000 0.000000 0.000000 0.038267 0.000000
# 6 0.000000 0.000000 0.000000 0.000000 0.000000 0.045347
#
#
# Mechanical properties :
#
#
# Convention : Reuss Voigt Hill
#
# Bulk Modulus (GPa) = 38.30452 40.47092 39.38772
# Shear Modulus (GPa) = 34.44146 128.23450 81.33798
#
# Velocity S-wave (km/s) = 3.92922 7.58172 6.03826
# Velocity P-wave (km/s) = 6.14454 9.73575 8.14065
#
# Compressibility (1/GPa) = 0.02610658
#
# Stress axis : x y z
#
# Youngs Moduli (GPa) = 62.54873 83.57549 94.59014
#
# Poissons Ratio (x) = 0.28780 0.00500
# Poissons Ratio (y) = 0.21539 0.25659
# Poissons Ratio (z) = 0.00331 0.22671
#
# Static dielectric constant tensor:
#      x y z
#    x 4.208120 0.000000 0.000000 
#    y 0.000000 4.057460 0.000000 
#    z 0.000000 0.000000 4.124080 
# 
# 
# High freq. dielectric constant tensor:
#      x y z
#    x 1.883440 0.000000 0.000000 
#    y 0.000000 1.868480 0.000000 
#    z 0.000000 0.000000 1.884760 
# 
# From -- ./inp_files/7970.got.cif
#   From: 2010.03.12/outbox.cif.g09.slc.cpg/sg68_4_cif.got.tgz:7970.got - 2010.04.10 23:14:56.
