data_PCOD8282699
_publ_section_title
;
Structure prediction by ZEFSAII (Michael W. Deem and Ramdas Pophale) SiO2 
 PCOD8282699
Probable space group: C C C A
;
_chemical_formula_sum "Si O2"
_cell_formula_units_Z 72
_cell_length_a 23.485966
_cell_length_b 14.259751
_cell_length_c 8.962965
_cell_angle_alpha 90.000000
_cell_angle_beta 90.000000
_cell_angle_gamma 90.000000
_cell_volume 3001.733074
_symmetry_space_group_name_H-M "C C C A"
_symmetry_group_IT_number 68
_space_group.IT_coordinate_system_code '2'
_symmetry_cell_setting 'orthorhombic'
loop_
_space_group_symop_operation_xyz
x,y,z
-x,1/2-y,z
x,1/2-y,1/2-z
-x,y,1/2-z
-x,-y,-z
x,1/2+y,-z
-x,1/2+y,1/2+z
x,-y,1/2+z
1/2+x,1/2+y,z
1/2-x,-y,z
1/2+x,-y,1/2-z
1/2-x,1/2+y,1/2-z
1/2-x,1/2-y,-z
1/2+x,y,-z
1/2-x,y,1/2+z
1/2+x,1/2-y,1/2+z
loop_
_atom_site_type_symbol
_atom_site_label
_atom_site_fract_x
_atom_site_fract_y
_atom_site_fract_z
Si Si1 0.807824 0.854406 0.454303
Si Si2 0.418694 0.403876 0.643946
Si Si3 0.195145 0.864425 0.384353
Si Si4 0.577149 0.584454 0.009400
Si Si5 0.000000 0.750000 0.548793
O O1 0.861546 0.880310 0.555222
O O2 0.808529 0.743921 0.427455
O O3 0.806578 0.895515 0.288195
O O4 0.754216 0.897771 0.542549
O O5 0.450793 0.490552 0.562044
O O6 0.412178 0.427824 0.816002
O O7 0.459154 0.313645 0.648460
O O8 0.140988 0.916513 0.448758
O O9 0.540374 0.676359 0.956718
#
# Coordination Sequence:
#
# PCOD8282699 Si02
#       5
#    16  16  16  16   8
#     4  10  21  40  68 103 138 178 223 275 338 405
#     4  12  25  45  70 102 137 179 228 280 338 402
#     4  10  21  40  68 103 138 178 223 275 338 405
#     4  12  25  45  70 102 137 179 228 280 338 402
#     4  12  27  48  73  96 135 184 229 282 341 400
#
# _framework density 23.986142000000001
#
# number of rings (size 3 to 8) (size 9 to 14) (size 15 to 20)
#    0.000    0.889    2.222    5.333    0.000    2.667 
#    0.000   12.222    0.000    0.000    0.000    0.000 
#    0.000    0.000    0.000    0.000    0.000    0.000 
#
# Total GULP energy -446094.656701 kJ/mol
# GULP energy per Si atom -12391.518242 kJ/mol
# Density = 2.393155 g / cm^3
# Si number density = 23.986142 Si / 1000 Ang^3
#
#
#
# Elastic Constant Matrix: (Units=GPa)
#
#
# Indices 1 2 3 4 5 6 
#
# 1 130.8245 59.0807 72.1020 0.0000 0.0000 0.0000
# 2 59.0807 119.6692 71.1051 0.0000 0.0000 0.0000
# 3 72.1020 71.1051 180.6487 0.0000 0.0000 0.0000
# 4 0.0000 0.0000 0.0000 33.4754 0.0000 0.0000
# 5 0.0000 0.0000 0.0000 0.0000 37.1740 0.0000
# 6 0.0000 0.0000 0.0000 0.0000 0.0000 307.0824
#
#
#
# Elastic Compliance Matrix: (Units=1/GPa)
#
#
# Indices 1 2 3 4 5 6 
#
# 1 0.010897 -0.003649 -0.002913 0.000000 0.000000 0.000000
# 2 -0.003649 0.012129 -0.003318 0.000000 0.000000 0.000000
# 3 -0.002913 -0.003318 0.008004 0.000000 0.000000 0.000000
# 4 0.000000 0.000000 0.000000 0.029873 0.000000 0.000000
# 5 0.000000 0.000000 0.000000 0.000000 0.026901 0.000000
# 6 0.000000 0.000000 0.000000 0.000000 0.000000 0.003256
#
#
# Mechanical properties :
#
#
# Convention : Reuss Voigt Hill
#
# Bulk Modulus (GPa) = 88.72409 92.85754 90.79082
# Shear Modulus (GPa) = 43.63871 90.80334 67.22103
#
# Velocity S-wave (km/s) = 4.26999 6.15945 5.29960
# Velocity P-wave (km/s) = 7.83457 9.45421 8.68224
#
# Compressibility (1/GPa) = 0.01127090
#
# Stress axis : x y z
#
# Youngs Moduli (GPa) = 91.76614 82.44522 124.93431
#
# Poissons Ratio (x) = 0.30085 0.36395
# Poissons Ratio (y) = 0.33486 0.41450
# Poissons Ratio (z) = 0.26732 0.27353
#
# Static dielectric constant tensor:
#      x y z
#    x 4.615910 0.000000 0.000000 
#    y 0.000000 4.689930 0.000000 
#    z 0.000000 0.000000 4.201150 
# 
# 
# High freq. dielectric constant tensor:
#      x y z
#    x 1.969450 0.000000 0.000000 
#    y 0.000000 1.967940 0.000000 
#    z 0.000000 0.000000 1.946420 
# 
# From -- ./inp_files/8670.got.cif
#   From: 2010.03.12/outbox.cif.g09.slc.cpg/sg68_5_cif.got.tgz:8670.got - 2010.04.10 23:14:56.
