data_PCOD8282522
_publ_section_title
;
Structure prediction by ZEFSAII (Michael W. Deem and Ramdas Pophale) SiO2 
 PCOD8282522
Probable space group: C C C A
;
_chemical_formula_sum "Si O2"
_cell_formula_units_Z 40
_cell_length_a 4.865952
_cell_length_b 12.922129
_cell_length_c 27.959638
_cell_angle_alpha 90.000000
_cell_angle_beta 90.000000
_cell_angle_gamma 90.000000
_cell_volume 1758.058964
_symmetry_space_group_name_H-M "C C C A"
_symmetry_group_IT_number 68
_space_group.IT_coordinate_system_code '2'
_symmetry_cell_setting 'orthorhombic'
loop_
_space_group_symop_operation_xyz
x,y,z
-x,1/2-y,z
x,1/2-y,1/2-z
-x,y,1/2-z
-x,-y,-z
x,1/2+y,-z
-x,1/2+y,1/2+z
x,-y,1/2+z
1/2+x,1/2+y,z
1/2-x,-y,z
1/2+x,-y,1/2-z
1/2-x,1/2+y,1/2-z
1/2-x,1/2-y,-z
1/2+x,y,-z
1/2-x,y,1/2+z
1/2+x,1/2-y,1/2+z
loop_
_atom_site_type_symbol
_atom_site_label
_atom_site_fract_x
_atom_site_fract_y
_atom_site_fract_z
Si Si1 0.000000 0.074372 0.750000
Si Si2 0.751968 0.378652 0.970391
Si Si3 0.500000 0.250000 0.888470
Si Si4 0.500000 0.250000 0.175910
O O1 0.091027 0.150052 0.793271
O O2 0.750000 0.000000 0.764523
O O3 0.750000 0.500000 0.964949
O O4 0.639128 0.338524 0.920378
O O5 0.558699 0.341826 0.015142
O O6 0.745081 0.208165 0.855376
#
# Coordination Sequence:
#
# PCOD8282522 Si02
#       4
#     8  16   8   8
#     4  11  24  47  70  88 126 167 196 251 322 380
#     4  10  21  37  57  84 122 169 211 247 300 362
#     4  12  22  38  62  91 128 157 202 268 306 350
#     4  11  26  41  64 101 122 155 214 253 308 389
#
# _framework density 22.752367
#
# number of rings (size 3 to 8) (size 9 to 14) (size 15 to 20)
#    0.000    1.200    0.000    6.000    0.000    8.000 
#    0.000    0.000    0.000    0.000    0.000    0.000 
#    0.000    0.000    0.000    0.000    0.000    0.000 
#
# Total GULP energy -247963.243306 kJ/mol
# GULP energy per Si atom -12398.162165 kJ/mol
# Density = 2.270058 g / cm^3
# Si number density = 22.752367 Si / 1000 Ang^3
#
#
#
# Elastic Constant Matrix: (Units=GPa)
#
#
# Indices 1 2 3 4 5 6 
#
# 1 120.0018 6.4527 31.9477 0.0000 0.0000 0.0000
# 2 6.4527 101.0718 31.0349 0.0000 0.0000 0.0000
# 3 31.9477 31.0349 114.2523 0.0000 0.0000 0.0000
# 4 0.0000 0.0000 0.0000 -70.0394 0.0000 0.0000
# 5 0.0000 0.0000 0.0000 0.0000 52.1947 0.0000
# 6 0.0000 0.0000 0.0000 0.0000 0.0000 31.0766
#
#
#
# Elastic Compliance Matrix: (Units=1/GPa)
#
#
# Indices 1 2 3 4 5 6 
#
# 1 0.009008 0.000216 -0.002578 0.000000 0.000000 0.000000
# 2 0.000216 0.010799 -0.002994 0.000000 0.000000 0.000000
# 3 -0.002578 -0.002994 0.010287 0.000000 0.000000 0.000000
# 4 0.000000 0.000000 0.000000 -0.014278 0.000000 0.000000
# 5 0.000000 0.000000 0.000000 0.000000 0.019159 0.000000
# 6 0.000000 0.000000 0.000000 0.000000 0.000000 0.032179
#
#
# Mechanical properties :
#
#
# Convention : Reuss Voigt Hill
#
# Bulk Modulus (GPa) = 51.59042 52.68850 52.13946
# Shear Modulus (GPa) = 59.29414 20.37242 39.83328
#
# Velocity S-wave (km/s) = 5.11050 2.99557 4.18871
# Velocity P-wave (km/s) = 7.58597 5.93062 6.80879
#
# Compressibility (1/GPa) = 0.01938344
#
# Stress axis : x y z
#
# Youngs Moduli (GPa) = 111.01501 92.59707 97.21399
#
# Poissons Ratio (x) = -0.02004 0.25058
# Poissons Ratio (y) = -0.02402 0.29106
# Poissons Ratio (z) = 0.28615 0.27724
#
# Static dielectric constant tensor:
#      x y z
#    x 4.593710 0.000000 0.000000 
#    y 0.000000 4.110810 0.000000 
#    z 0.000000 0.000000 4.126110 
# 
# 
# High freq. dielectric constant tensor:
#      x y z
#    x 1.916030 0.000000 0.000000 
#    y 0.000000 1.910320 0.000000 
#    z 0.000000 0.000000 1.892320 
# 
# From -- ./inp_files/41802.got.cif
#   From: 2010.03.12/outbox.cif.g09.slc.cpg/sg68_21_cif.got.tgz:41802.got - 2010.04.10 23:14:56.
