data_PCOD8282173
_publ_section_title
;
Structure prediction by ZEFSAII (Michael W. Deem and Ramdas Pophale) SiO2 
 PCOD8282173
Probable space group: C C C A
;
_chemical_formula_sum "Si O2"
_cell_formula_units_Z 104
_cell_length_a 23.065193
_cell_length_b 26.171629
_cell_length_c 8.869802
_cell_angle_alpha 90.000000
_cell_angle_beta 90.000000
_cell_angle_gamma 90.000000
_cell_volume 5354.288565
_symmetry_space_group_name_H-M "C C C A"
_symmetry_group_IT_number 68
_space_group.IT_coordinate_system_code '2'
_symmetry_cell_setting 'orthorhombic'
loop_
_space_group_symop_operation_xyz
x,y,z
-x,1/2-y,z
x,1/2-y,1/2-z
-x,y,1/2-z
-x,-y,-z
x,1/2+y,-z
-x,1/2+y,1/2+z
x,-y,1/2+z
1/2+x,1/2+y,z
1/2-x,-y,z
1/2+x,-y,1/2-z
1/2-x,1/2+y,1/2-z
1/2-x,1/2-y,-z
1/2+x,y,-z
1/2-x,y,1/2+z
1/2+x,1/2-y,1/2+z
loop_
_atom_site_type_symbol
_atom_site_label
_atom_site_fract_x
_atom_site_fract_y
_atom_site_fract_z
Si Si1 0.765387 0.413000 0.529164
Si Si2 0.322448 0.043395 0.326643
Si Si3 0.866491 0.431162 0.328247
Si Si4 0.011387 0.445772 0.075475
Si Si5 0.598342 0.611187 0.008969
Si Si6 0.808331 0.686917 0.493174
Si Si7 0.245734 0.750000 0.750000
O O1 0.723665 0.457564 0.463798
O O2 0.789820 0.430640 0.687918
O O3 0.817599 0.400037 0.415727
O O4 0.728436 0.362007 0.542529
O O5 0.378021 0.076555 0.373183
O O6 0.344423 0.987591 0.287684
O O7 0.921378 0.431015 0.442216
O O8 0.878131 0.404527 0.171696
O O9 0.000000 0.454339 0.250000
O O10 0.971266 0.399168 0.009583
O O11 0.000000 0.500000 0.000000
O O12 0.623207 0.669142 0.982878
O O13 0.797951 0.727832 0.624602
O O14 0.787983 0.708784 0.330984
#
# Coordination Sequence:
#
# PCOD8282173 Si02
#       7
#    16  16  16  16  16  16   8
#     4  11  22  33  51  79 111 147 182 232 274 342
#     4  11  21  33  49  73 114 153 194 222 267 319
#     4  11  21  33  50  75 110 156 194 223 263 311
#     4  10  21  35  53  75 110 153 198 230 259 302
#     4  10  20  36  54  77 110 149 185 235 266 332
#     4  10  20  36  55  82 110 134 179 226 301 347
#     4  10  20  36  60  82 106 136 170 242 302 370
#
# _framework density 19.423683
#
# number of rings (size 3 to 8) (size 9 to 14) (size 15 to 20)
#    0.000    1.538    1.538    6.000    2.154    2.462 
#    0.000    0.000    0.000    0.000    0.000   24.231 
#    0.000    0.000    0.000    0.000    0.000    0.000 
#
# Total GULP energy -644410.065357 kJ/mol
# GULP energy per Si atom -12392.501257 kJ/mol
# Density = 1.937947 g / cm^3
# Si number density = 19.423683 Si / 1000 Ang^3
#
#
#
# Elastic Constant Matrix: (Units=GPa)
#
#
# Indices 1 2 3 4 5 6 
#
# 1 100.4583 25.4464 6.3074 0.0000 0.0000 0.0000
# 2 25.4464 54.8943 3.1733 0.0000 0.0000 0.0000
# 3 6.3074 3.1733 54.4559 0.0000 0.0000 0.0000
# 4 0.0000 0.0000 0.0000 26.3888 0.0000 0.0000
# 5 0.0000 0.0000 0.0000 0.0000 28.5374 0.0000
# 6 0.0000 0.0000 0.0000 0.0000 0.0000 24.8099
#
#
#
# Elastic Compliance Matrix: (Units=1/GPa)
#
#
# Indices 1 2 3 4 5 6 
#
# 1 0.011334 -0.005195 -0.001010 0.000000 0.000000 0.000000
# 2 -0.005195 0.020660 -0.000602 0.000000 0.000000 0.000000
# 3 -0.001010 -0.000602 0.018516 0.000000 0.000000 0.000000
# 4 0.000000 0.000000 0.000000 0.037895 0.000000 0.000000
# 5 0.000000 0.000000 0.000000 0.000000 0.035042 0.000000
# 6 0.000000 0.000000 0.000000 0.000000 0.000000 0.040307
#
#
# Mechanical properties :
#
#
# Convention : Reuss Voigt Hill
#
# Bulk Modulus (GPa) = 27.10454 31.07364 29.08909
# Shear Modulus (GPa) = 26.36217 27.60597 26.98407
#
# Velocity S-wave (km/s) = 3.68804 3.77404 3.73129
# Velocity P-wave (km/s) = 5.66747 5.91808 5.79413
#
# Compressibility (1/GPa) = 0.03689418
#
# Stress axis : x y z
#
# Youngs Moduli (GPa) = 88.23153 48.40275 54.00867
#
# Poissons Ratio (x) = 0.25147 0.05455
# Poissons Ratio (y) = 0.45840 0.03252
# Poissons Ratio (z) = 0.08911 0.02915
#
# Static dielectric constant tensor:
#      x y z
#    x 4.260690 0.000000 0.000000 
#    y 0.000000 3.706540 0.000000 
#    z 0.000000 0.000000 3.731790 
# 
# 
# High freq. dielectric constant tensor:
#      x y z
#    x 1.754470 0.000000 0.000000 
#    y 0.000000 1.722170 0.000000 
#    z 0.000000 0.000000 1.770680 
# 
# From -- ./inp_files/8314.got.cif
#   From: 2010.03.12/outbox.cif.g09.slc.cpg/sg68_5_cif.got.tgz:8314.got - 2010.04.10 23:14:56.
