data_PCOD8282824
_publ_section_title
;
Structure prediction by ZEFSAII (Michael W. Deem and Ramdas Pophale) SiO2 
 PCOD8282824
Probable space group: C C C A
;
_chemical_formula_sum "Si O2"
_cell_formula_units_Z 68
_cell_length_a 14.059471
_cell_length_b 10.733517
_cell_length_c 21.615414
_cell_angle_alpha 90.000000
_cell_angle_beta 90.000000
_cell_angle_gamma 90.000000
_cell_volume 3261.929623
_symmetry_space_group_name_H-M "C C C A"
_symmetry_group_IT_number 68
_space_group.IT_coordinate_system_code '2'
_symmetry_cell_setting 'orthorhombic'
loop_
_space_group_symop_operation_xyz
x,y,z
-x,1/2-y,z
x,1/2-y,1/2-z
-x,y,1/2-z
-x,-y,-z
x,1/2+y,-z
-x,1/2+y,1/2+z
x,-y,1/2+z
1/2+x,1/2+y,z
1/2-x,-y,z
1/2+x,-y,1/2-z
1/2-x,1/2+y,1/2-z
1/2-x,1/2-y,-z
1/2+x,y,-z
1/2-x,y,1/2+z
1/2+x,1/2-y,1/2+z
loop_
_atom_site_type_symbol
_atom_site_label
_atom_site_fract_x
_atom_site_fract_y
_atom_site_fract_z
Si Si1 0.881051 0.425386 0.663294
Si Si2 0.396101 0.196844 0.036811
Si Si3 0.223947 0.636256 0.577750
Si Si4 0.000000 0.250000 0.750000
Si Si5 0.176983 0.185019 0.184994
O O1 0.905422 0.403627 0.591468
O O2 0.899043 0.572906 0.675296
O O3 0.776529 0.383691 0.681480
O O4 0.944608 0.341046 0.705909
O O5 0.500000 0.250000 0.019932
O O6 0.324307 0.305442 0.057360
O O7 0.350505 0.125898 0.978492
O O8 0.250000 0.500000 0.603221
O O9 0.170641 0.711933 0.631522
O O10 0.157670 0.250000 0.250000
#
# Coordination Sequence:
#
# PCOD8282824 Si02
#       5
#    16  16  16   4  16
#     4  10  22  38  67  92 127 163 224 257 325 392
#     4  10  22  42  64  94 125 174 213 270 321 385
#     4  10  24  40  65  96 130 166 222 263 326 393
#     4  12  20  40  66 104 116 166 218 278 312 412
#     4  10  22  41  63  91 128 174 207 270 327 386
#
# _framework density 20.846556
#
# number of rings (size 3 to 8) (size 9 to 14) (size 15 to 20)
#    0.000    1.882    2.353    0.000   13.176    0.941 
#    0.000    0.588    0.000    0.000    0.000    0.000 
#    0.000    0.000    0.000    0.000    0.000    0.000 
#
# Total GULP energy -421512.357645 kJ/mol
# GULP energy per Si atom -12397.422284 kJ/mol
# Density = 2.079911 g / cm^3
# Si number density = 20.846556 Si / 1000 Ang^3
#
#
#
# Elastic Constant Matrix: (Units=GPa)
#
#
# Indices 1 2 3 4 5 6 
#
# 1 66.1990 25.1923 35.0265 0.0000 0.0000 0.0000
# 2 25.1923 174.8333 86.0788 0.0000 0.0000 0.0000
# 3 35.0265 86.0788 169.6049 0.0000 0.0000 0.0000
# 4 0.0000 0.0000 0.0000 -35.9911 0.0000 0.0000
# 5 0.0000 0.0000 0.0000 0.0000 11.3127 0.0000
# 6 0.0000 0.0000 0.0000 0.0000 0.0000 25.2098
#
#
#
# Elastic Compliance Matrix: (Units=1/GPa)
#
#
# Indices 1 2 3 4 5 6 
#
# 1 0.017081 -0.000966 -0.003037 0.000000 0.000000 0.000000
# 2 -0.000966 0.007680 -0.003698 0.000000 0.000000 0.000000
# 3 -0.003037 -0.003698 0.008400 0.000000 0.000000 0.000000
# 4 0.000000 0.000000 0.000000 -0.027785 0.000000 0.000000
# 5 0.000000 0.000000 0.000000 0.000000 0.088396 0.000000
# 6 0.000000 0.000000 0.000000 0.000000 0.000000 0.039667
#
#
# Mechanical properties :
#
#
# Convention : Reuss Voigt Hill
#
# Bulk Modulus (GPa) = 56.31277 78.13694 67.22485
# Shear Modulus (GPa) = 32.30787 17.72892 25.01839
#
# Velocity S-wave (km/s) = 3.94101 2.91941 3.46803
# Velocity P-wave (km/s) = 6.91234 6.99480 6.95369
#
# Compressibility (1/GPa) = 0.01775796
#
# Stress axis : x y z
#
# Youngs Moduli (GPa) = 58.54607 130.21356 119.04434
#
# Poissons Ratio (x) = 0.12576 0.36157
# Poissons Ratio (y) = 0.05654 0.44025
# Poissons Ratio (z) = 0.17782 0.48155
#
# Static dielectric constant tensor:
#      x y z
#    x 3.386880 0.000000 0.000000 
#    y 0.000000 3.985580 0.000000 
#    z 0.000000 0.000000 3.878470 
# 
# 
# High freq. dielectric constant tensor:
#      x y z
#    x 1.800490 0.000000 0.000000 
#    y 0.000000 1.826130 0.000000 
#    z 0.000000 0.000000 1.824970 
# 
# From -- ./inp_files/37198.got.cif
#   From: 2010.03.12/outbox.cif.g09.slc.cpg/sg68_19_cif.got.tgz:37198.got - 2010.04.10 23:14:56.
