data_PCOD8282862
_publ_section_title
;
Structure prediction by ZEFSAII (Michael W. Deem and Ramdas Pophale) SiO2 
 PCOD8282862
Probable space group: C C C A
;
_chemical_formula_sum "Si O2"
_cell_formula_units_Z 108
_cell_length_a 21.772275
_cell_length_b 12.648488
_cell_length_c 18.827227
_cell_angle_alpha 90.000000
_cell_angle_beta 90.000000
_cell_angle_gamma 90.000000
_cell_volume 5184.761495
_symmetry_space_group_name_H-M "C C C A"
_symmetry_group_IT_number 68
_space_group.IT_coordinate_system_code '2'
_symmetry_cell_setting 'orthorhombic'
loop_
_space_group_symop_operation_xyz
x,y,z
-x,1/2-y,z
x,1/2-y,1/2-z
-x,y,1/2-z
-x,-y,-z
x,1/2+y,-z
-x,1/2+y,1/2+z
x,-y,1/2+z
1/2+x,1/2+y,z
1/2-x,-y,z
1/2+x,-y,1/2-z
1/2-x,1/2+y,1/2-z
1/2-x,1/2-y,-z
1/2+x,y,-z
1/2-x,y,1/2+z
1/2+x,1/2-y,1/2+z
loop_
_atom_site_type_symbol
_atom_site_label
_atom_site_fract_x
_atom_site_fract_y
_atom_site_fract_z
Si Si1 0.039656 0.053554 0.834118
Si Si2 0.709637 0.267760 0.430873
Si Si3 0.179744 0.962450 0.093366
Si Si4 0.000000 0.750000 0.250000
Si Si5 0.790577 0.906194 0.662823
Si Si6 0.086906 0.951283 0.700131
Si Si7 0.367180 0.964695 0.949144
Si Si8 0.626202 0.750000 0.250000
O O1 0.065309 0.043750 0.913971
O O2 0.038986 0.173487 0.802650
O O3 0.085481 0.987689 0.782815
O O4 0.972330 0.001686 0.837622
O O5 0.750000 0.250000 0.500000
O O6 0.678765 0.162749 0.400841
O O7 0.748086 0.313260 0.365975
O O8 0.655566 0.345382 0.451983
O O9 0.250000 0.000000 0.081165
O O10 0.150220 0.009597 0.164688
O O11 0.133802 0.994417 0.029496
O O12 0.834439 0.845826 0.717150
O O13 0.750000 0.000000 0.700077
O O14 0.824224 0.957440 0.595556
O O15 0.084506 0.821187 0.696368
#
# Coordination Sequence:
#
# PCOD8282862 Si02
#       8
#    16  16  16   4  16  16  16   8
#     4  10  23  47  65  95 128 174 226 275 338 390
#     4  11  21  38  63  91 133 183 206 265 344 397
#     4  12  23  41  66 100 136 168 224 274 329 407
#     4   8  20  40  70  82 124 166 224 278 324 388
#     4  10  22  40  58  95 135 174 216 270 331 401
#     4  10  25  42  68  95 131 175 226 280 323 403
#     4  11  22  41  67  92 135 169 218 274 331 398
#     4  12  22  41  69  92 130 177 229 272 348 392
#
# _framework density 20.830272999999998
#
# number of rings (size 3 to 8) (size 9 to 14) (size 15 to 20)
#    0.000    1.481    4.444    1.333    4.148    3.556 
#    0.000    0.000    0.000    0.000    0.000    0.000 
#    0.000    0.000    0.000    0.000    0.000    0.000 
#
# Total GULP energy -669219.666285 kJ/mol
# GULP energy per Si atom -12392.956783 kJ/mol
# Density = 2.078286 g / cm^3
# Si number density = 20.830273 Si / 1000 Ang^3
#
#
#
# Elastic Constant Matrix: (Units=GPa)
#
#
# Indices 1 2 3 4 5 6 
#
# 1 86.6449 52.2685 44.6802 0.0000 0.0000 0.0000
# 2 52.2685 178.1466 30.9486 0.0000 0.0000 0.0000
# 3 44.6802 30.9486 65.4114 0.0000 0.0000 0.0000
# 4 0.0000 0.0000 0.0000 27.6686 0.0000 0.0000
# 5 0.0000 0.0000 0.0000 0.0000 44.1392 0.0000
# 6 0.0000 0.0000 0.0000 0.0000 0.0000 33.3611
#
#
#
# Elastic Compliance Matrix: (Units=1/GPa)
#
#
# Indices 1 2 3 4 5 6 
#
# 1 0.019921 -0.003793 -0.011813 0.000000 0.000000 0.000000
# 2 -0.003793 0.006838 -0.000645 0.000000 0.000000 0.000000
# 3 -0.011813 -0.000645 0.023662 0.000000 0.000000 0.000000
# 4 0.000000 0.000000 0.000000 0.036142 0.000000 0.000000
# 5 0.000000 0.000000 0.000000 0.000000 0.022656 0.000000
# 6 0.000000 0.000000 0.000000 0.000000 0.000000 0.029975
#
#
# Mechanical properties :
#
#
# Convention : Reuss Voigt Hill
#
# Bulk Modulus (GPa) = 55.80227 65.11083 60.45655
# Shear Modulus (GPa) = 28.14254 34.52081 31.33168
#
# Velocity S-wave (km/s) = 3.67964 4.07534 3.88253
# Velocity P-wave (km/s) = 6.70076 7.31233 7.01321
#
# Compressibility (1/GPa) = 0.01792042
#
# Stress axis : x y z
#
# Youngs Moduli (GPa) = 50.19898 146.23891 42.26226
#
# Poissons Ratio (x) = 0.55463 0.49923
# Poissons Ratio (y) = 0.19038 0.02725
# Poissons Ratio (z) = 0.59299 0.09429
#
# Static dielectric constant tensor:
#      x y z
#    x 3.648290 0.000000 0.000000 
#    y 0.000000 4.226560 0.000000 
#    z 0.000000 0.000000 3.540660 
# 
# 
# High freq. dielectric constant tensor:
#      x y z
#    x 1.803140 0.000000 0.000000 
#    y 0.000000 1.837880 0.000000 
#    z 0.000000 0.000000 1.799930 
# 
# From -- ./inp_files/40920.got.cif
#   From: 2010.03.12/outbox.cif.g09.slc.cpg/sg68_21_cif.got.tgz:40920.got - 2010.04.10 23:14:56.
