data_PCOD8282037
_publ_section_title
;
Structure prediction by ZEFSAII (Michael W. Deem and Ramdas Pophale) SiO2 
 PCOD8282037
Probable space group: C C C A
;
_chemical_formula_sum "Si O2"
_cell_formula_units_Z 96
_cell_length_a 10.208048
_cell_length_b 17.425597
_cell_length_c 26.642672
_cell_angle_alpha 90.000000
_cell_angle_beta 90.000000
_cell_angle_gamma 90.000000
_cell_volume 4739.233946
_symmetry_space_group_name_H-M "C C C A"
_symmetry_group_IT_number 68
_space_group.IT_coordinate_system_code '2'
_symmetry_cell_setting 'orthorhombic'
loop_
_space_group_symop_operation_xyz
x,y,z
-x,1/2-y,z
x,1/2-y,1/2-z
-x,y,1/2-z
-x,-y,-z
x,1/2+y,-z
-x,1/2+y,1/2+z
x,-y,1/2+z
1/2+x,1/2+y,z
1/2-x,-y,z
1/2+x,-y,1/2-z
1/2-x,1/2+y,1/2-z
1/2-x,1/2-y,-z
1/2+x,y,-z
1/2-x,y,1/2+z
1/2+x,1/2-y,1/2+z
loop_
_atom_site_type_symbol
_atom_site_label
_atom_site_fract_x
_atom_site_fract_y
_atom_site_fract_z
Si Si1 0.353073 0.065649 0.255263
Si Si2 0.633456 0.944619 0.557605
Si Si3 0.376766 0.543927 0.443181
Si Si4 0.483199 0.664891 0.370339
Si Si5 0.778528 0.351349 0.854409
Si Si6 0.234861 0.797134 0.701243
O O1 0.500000 0.033070 0.250000
O O2 0.334474 0.092744 0.312116
O O3 0.337093 0.136463 0.216167
O O4 0.250000 0.000000 0.240867
O O5 0.649826 0.924039 0.499152
O O6 0.645647 0.869287 0.593199
O O7 0.750000 0.000000 0.575448
O O8 0.494162 0.984476 0.563279
O O9 0.250000 0.500000 0.422568
O O10 0.401909 0.618677 0.411031
O O11 0.500000 0.750000 0.392723
O O12 0.624380 0.628597 0.359092
O O13 0.398997 0.666105 0.319317
O O14 0.799125 0.261527 0.839573
O O15 0.192224 0.750000 0.750000
#
# Coordination Sequence:
#
# PCOD8282037 Si02
#       6
#    16  16  16  16  16  16
#     4  11  26  41  63  94 128 166 214 268 316 378
#     4  10  19  38  66  90 127 167 210 257 322 389
#     4  10  22  37  63  99 127 159 211 274 320 369
#     4  10  21  39  64  91 128 172 212 258 320 393
#     4  10  21  39  66  88 122 177 210 250 326 391
#     4   9  22  41  62  90 127 166 213 264 314 376
#
# _framework density 20.256437999999999
#
# number of rings (size 3 to 8) (size 9 to 14) (size 15 to 20)
#    0.000    2.000    1.667    0.500    2.333   12.000 
#    0.000    5.000    3.667    0.000    0.000    0.000 
#    0.000    0.000    0.000    0.000    0.000    0.000 
#
# Total GULP energy -595181.573023 kJ/mol
# GULP energy per Si atom -12399.616105 kJ/mol
# Density = 2.021033 g / cm^3
# Si number density = 20.256438 Si / 1000 Ang^3
#
#
#
# Elastic Constant Matrix: (Units=GPa)
#
#
# Indices 1 2 3 4 5 6 
#
# 1 140.5132 53.0858 48.4970 0.0000 0.0000 0.0000
# 2 53.0858 87.3379 57.7792 0.0000 0.0000 0.0000
# 3 48.4970 57.7792 102.3443 0.0000 0.0000 0.0000
# 4 0.0000 0.0000 0.0000 39.0904 0.0000 0.0000
# 5 0.0000 0.0000 0.0000 0.0000 19.8056 0.0000
# 6 0.0000 0.0000 0.0000 0.0000 0.0000 35.3838
#
#
#
# Elastic Compliance Matrix: (Units=1/GPa)
#
#
# Indices 1 2 3 4 5 6 
#
# 1 0.009483 -0.004455 -0.001978 0.000000 0.000000 0.000000
# 2 -0.004455 0.020368 -0.009388 0.000000 0.000000 0.000000
# 3 -0.001978 -0.009388 0.016009 0.000000 0.000000 0.000000
# 4 0.000000 0.000000 0.000000 0.025582 0.000000 0.000000
# 5 0.000000 0.000000 0.000000 0.000000 0.050491 0.000000
# 6 0.000000 0.000000 0.000000 0.000000 0.000000 0.028262
#
#
# Mechanical properties :
#
#
# Convention : Reuss Voigt Hill
#
# Bulk Modulus (GPa) = 70.33970 72.10217 71.22093
# Shear Modulus (GPa) = 26.79882 30.24484 28.52183
#
# Velocity S-wave (km/s) = 3.64122 3.86825 3.75645
# Velocity P-wave (km/s) = 7.24417 7.45809 7.35191
#
# Compressibility (1/GPa) = 0.01421672
#
# Stress axis : x y z
#
# Youngs Moduli (GPa) = 105.45549 49.09579 62.46673
#
# Poissons Ratio (x) = 0.21872 0.12358
# Poissons Ratio (y) = 0.46980 0.58644
# Poissons Ratio (z) = 0.20863 0.46091
#
# Static dielectric constant tensor:
#      x y z
#    x 3.693770 0.000000 0.000000 
#    y 0.000000 3.644600 0.000000 
#    z 0.000000 0.000000 3.732950 
# 
# 
# High freq. dielectric constant tensor:
#      x y z
#    x 1.795340 0.000000 0.000000 
#    y 0.000000 1.780170 0.000000 
#    z 0.000000 0.000000 1.788940 
# 
# From -- ./inp_files/49305.got.cif
#   From: 2010.03.12/outbox.cif.g09.slc.cpg/sg68_25_cif.got.tgz:49305.got - 2010.04.10 23:14:56.
