data_PCOD8282958
_publ_section_title
;
Structure prediction by ZEFSAII (Michael W. Deem and Ramdas Pophale) SiO2 
 PCOD8282958
Probable space group: C C C A
;
_chemical_formula_sum "Si O2"
_cell_formula_units_Z 64
_cell_length_a 10.587486
_cell_length_b 24.386610
_cell_length_c 11.460096
_cell_angle_alpha 90.000000
_cell_angle_beta 90.000000
_cell_angle_gamma 90.000000
_cell_volume 2958.915328
_symmetry_space_group_name_H-M "C C C A"
_symmetry_group_IT_number 68
_space_group.IT_coordinate_system_code '2'
_symmetry_cell_setting 'orthorhombic'
loop_
_space_group_symop_operation_xyz
x,y,z
-x,1/2-y,z
x,1/2-y,1/2-z
-x,y,1/2-z
-x,-y,-z
x,1/2+y,-z
-x,1/2+y,1/2+z
x,-y,1/2+z
1/2+x,1/2+y,z
1/2-x,-y,z
1/2+x,-y,1/2-z
1/2-x,1/2+y,1/2-z
1/2-x,1/2-y,-z
1/2+x,y,-z
1/2-x,y,1/2+z
1/2+x,1/2-y,1/2+z
loop_
_atom_site_type_symbol
_atom_site_label
_atom_site_fract_x
_atom_site_fract_y
_atom_site_fract_z
Si Si1 0.491411 0.358003 0.585524
Si Si2 0.000000 0.453059 0.250000
Si Si3 0.301272 0.312517 0.766797
Si Si4 0.750000 0.500000 0.688964
Si Si5 0.102131 0.603663 0.343017
O O1 0.524899 0.417865 0.634620
O O2 0.369967 0.333345 0.650044
O O3 0.610104 0.318543 0.617282
O O4 0.467692 0.366152 0.449611
O O5 0.869479 0.485588 0.270904
O O6 0.260693 0.250000 0.750000
O O7 0.177594 0.348761 0.778252
O O8 0.804689 0.446927 0.616340
O O9 0.000000 0.580935 0.250000
#
# Coordination Sequence:
#
# PCOD8282958 Si02
#       5
#    16   8  16   8  16
#     4  10  22  44  69  97 130 178 228 275 349 410
#     4  10  22  42  67  94 133 186 232 274 352 408
#     4  10  23  48  71  95 135 182 224 283 351 411
#     4  12  22  44  66  98 144 180 232 288 342 420
#     4  12  27  42  68 105 137 176 236 284 340 416
#
# _framework density 21.629546999999999
#
# number of rings (size 3 to 8) (size 9 to 14) (size 15 to 20)
#    0.000    1.500    6.250    1.500    3.500    3.500 
#    4.500    0.000    0.000    0.000    0.000    0.000 
#    0.000    0.000    0.000    0.000    0.000    0.000 
#
# Total GULP energy -396459.140015 kJ/mol
# GULP energy per Si atom -12389.348125 kJ/mol
# Density = 2.158032 g / cm^3
# Si number density = 21.629547 Si / 1000 Ang^3
#
#
#
# Elastic Constant Matrix: (Units=GPa)
#
#
# Indices 1 2 3 4 5 6 
#
# 1 119.6526 49.2528 21.7701 0.0000 0.0000 0.0000
# 2 49.2528 141.6124 18.9959 0.0000 0.0000 0.0000
# 3 21.7701 18.9959 73.4853 0.0000 0.0000 0.0000
# 4 0.0000 0.0000 0.0000 8.4094 0.0000 0.0000
# 5 0.0000 0.0000 0.0000 0.0000 17.5061 0.0000
# 6 0.0000 0.0000 0.0000 0.0000 0.0000 32.5547
#
#
#
# Elastic Compliance Matrix: (Units=1/GPa)
#
#
# Indices 1 2 3 4 5 6 
#
# 1 0.010072 -0.003214 -0.002153 0.000000 0.000000 0.000000
# 2 -0.003214 0.008341 -0.001204 0.000000 0.000000 0.000000
# 3 -0.002153 -0.001204 0.014557 0.000000 0.000000 0.000000
# 4 0.000000 0.000000 0.000000 0.118915 0.000000 0.000000
# 5 0.000000 0.000000 0.000000 0.000000 0.057123 0.000000
# 6 0.000000 0.000000 0.000000 0.000000 0.000000 0.030718
#
#
# Mechanical properties :
#
#
# Convention : Reuss Voigt Hill
#
# Bulk Modulus (GPa) = 50.43377 57.19869 53.81623
# Shear Modulus (GPa) = 19.26948 28.00947 23.63947
#
# Velocity S-wave (km/s) = 2.98801 3.60246 3.30953
# Velocity P-wave (km/s) = 5.93902 6.61859 6.28799
#
# Compressibility (1/GPa) = 0.01982798
#
# Stress axis : x y z
#
# Youngs Moduli (GPa) = 99.28121 119.89008 68.69449
#
# Poissons Ratio (x) = 0.38537 0.14790
# Poissons Ratio (y) = 0.31913 0.08270
# Poissons Ratio (z) = 0.21376 0.14433
#
# Static dielectric constant tensor:
#      x y z
#    x 4.133230 0.000000 0.000000 
#    y 0.000000 4.047920 0.000000 
#    z 0.000000 0.000000 3.435110 
# 
# 
# High freq. dielectric constant tensor:
#      x y z
#    x 1.863240 0.000000 0.000000 
#    y 0.000000 1.860990 0.000000 
#    z 0.000000 0.000000 1.800460 
# 
# From -- ./inp_files/11701.got.cif
#   From: 2010.03.12/outbox.cif.g09.slc.cpg/sg68_6_cif.got.tgz:11701.got - 2010.04.10 23:14:56.
