data_PCOD8282002
_publ_section_title
;
Structure prediction by ZEFSAII (Michael W. Deem and Ramdas Pophale) SiO2 
 PCOD8282002
Probable space group: C C C A
;
_chemical_formula_sum "Si O2"
_cell_formula_units_Z 96
_cell_length_a 23.990304
_cell_length_b 13.139033
_cell_length_c 14.924829
_cell_angle_alpha 90.000000
_cell_angle_beta 90.000000
_cell_angle_gamma 90.000000
_cell_volume 4704.446334
_symmetry_space_group_name_H-M "C C C A"
_symmetry_group_IT_number 68
_space_group.IT_coordinate_system_code '2'
_symmetry_cell_setting 'orthorhombic'
loop_
_space_group_symop_operation_xyz
x,y,z
-x,1/2-y,z
x,1/2-y,1/2-z
-x,y,1/2-z
-x,-y,-z
x,1/2+y,-z
-x,1/2+y,1/2+z
x,-y,1/2+z
1/2+x,1/2+y,z
1/2-x,-y,z
1/2+x,-y,1/2-z
1/2-x,1/2+y,1/2-z
1/2-x,1/2-y,-z
1/2+x,y,-z
1/2-x,y,1/2+z
1/2+x,1/2-y,1/2+z
loop_
_atom_site_type_symbol
_atom_site_label
_atom_site_fract_x
_atom_site_fract_y
_atom_site_fract_z
Si Si1 0.133452 0.987739 0.089756
Si Si2 0.136788 0.556469 0.103311
Si Si3 0.250000 0.500000 0.188276
Si Si4 0.065505 0.549397 0.745875
Si Si5 0.782957 0.361534 0.157529
Si Si6 0.876337 0.250000 0.250000
Si Si7 0.670151 0.772957 0.855432
O O1 0.133584 0.869357 0.115462
O O2 0.088017 0.039106 0.153549
O O3 0.195149 0.038153 0.104517
O O4 0.114571 0.006170 0.987998
O O5 0.195527 0.506064 0.127933
O O6 0.091542 0.535811 0.180721
O O7 0.145873 0.677104 0.090147
O O8 0.243910 0.398361 0.248031
O O9 0.084422 0.660675 0.710697
O O10 0.000000 0.537082 0.750000
O O11 0.836358 0.289236 0.170375
O O12 0.733721 0.296659 0.111375
O O13 0.665422 0.750000 0.750000
#
# Coordination Sequence:
#
# PCOD8282002 Si02
#       7
#    16  16   8  16  16   8  16
#     4  11  25  41  63 101 137 170 233 276 336 401
#     4  12  26  40  66 100 137 173 225 285 333 404
#     4  12  18  38  62  96 136 178 204 268 338 400
#     4  11  24  46  69  90 129 181 233 287 337 390
#     4  11  18  37  62  94 139 175 218 262 324 413
#     4  10  19  36  64  92 120 172 219 270 330 394
#     4  12  20  41  67  94 138 187 214 265 338 415
#
# _framework density 20.406227999999999
#
# number of rings (size 3 to 8) (size 9 to 14) (size 15 to 20)
#    0.000    0.667    9.167    0.250    2.333    4.000 
#    0.000    1.667    0.000    0.000    0.000    0.000 
#    0.000    0.000    0.000    0.000    0.000    0.000 
#
# Total GULP energy -595212.017307 kJ/mol
# GULP energy per Si atom -12400.250361 kJ/mol
# Density = 2.035978 g / cm^3
# Si number density = 20.406228 Si / 1000 Ang^3
#
#
#
# Elastic Constant Matrix: (Units=GPa)
#
#
# Indices 1 2 3 4 5 6 
#
# 1 126.7825 46.6391 38.3079 0.0000 0.0000 0.0000
# 2 46.6391 135.1890 23.1642 0.0000 0.0000 0.0000
# 3 38.3079 23.1642 97.0439 0.0000 0.0000 0.0000
# 4 0.0000 0.0000 0.0000 28.6633 0.0000 0.0000
# 5 0.0000 0.0000 0.0000 0.0000 11.8943 0.0000
# 6 0.0000 0.0000 0.0000 0.0000 0.0000 22.6008
#
#
#
# Elastic Compliance Matrix: (Units=1/GPa)
#
#
# Indices 1 2 3 4 5 6 
#
# 1 0.009919 -0.002868 -0.003231 0.000000 0.000000 0.000000
# 2 -0.002868 0.008542 -0.000907 0.000000 0.000000 0.000000
# 3 -0.003231 -0.000907 0.011796 0.000000 0.000000 0.000000
# 4 0.000000 0.000000 0.000000 0.034888 0.000000 0.000000
# 5 0.000000 0.000000 0.000000 0.000000 0.084074 0.000000
# 6 0.000000 0.000000 0.000000 0.000000 0.000000 0.044246
#
#
# Mechanical properties :
#
#
# Convention : Reuss Voigt Hill
#
# Bulk Modulus (GPa) = 61.55510 63.91529 62.73520
# Shear Modulus (GPa) = 23.48610 29.35864 26.42237
#
# Velocity S-wave (km/s) = 3.39621 3.79715 3.60226
# Velocity P-wave (km/s) = 6.75347 7.11434 6.93626
#
# Compressibility (1/GPa) = 0.01624561
#
# Stress axis : x y z
#
# Youngs Moduli (GPa) = 100.81769 117.06905 84.77172
#
# Poissons Ratio (x) = 0.33580 0.27388
# Poissons Ratio (y) = 0.28918 0.07686
# Poissons Ratio (z) = 0.32572 0.10614
#
# Static dielectric constant tensor:
#      x y z
#    x 3.432630 0.000000 0.000000 
#    y 0.000000 4.100580 0.000000 
#    z 0.000000 0.000000 3.424060 
# 
# 
# High freq. dielectric constant tensor:
#      x y z
#    x 1.768530 0.000000 0.000000 
#    y 0.000000 1.816770 0.000000 
#    z 0.000000 0.000000 1.770130 
# 
# From -- ./inp_files/26026.got.cif
#   From: 2010.03.12/outbox.cif.g09.slc.cpg/sg68_14_cif.got.tgz:26026.got - 2010.04.10 23:14:56.
