data_PCOD8282107
_publ_section_title
;
Structure prediction by ZEFSAII (Michael W. Deem and Ramdas Pophale) SiO2 
 PCOD8282107
Probable space group: C C C A
;
_chemical_formula_sum "Si O2"
_cell_formula_units_Z 64
_cell_length_a 7.957507
_cell_length_b 15.917986
_cell_length_c 22.944659
_cell_angle_alpha 90.000000
_cell_angle_beta 90.000000
_cell_angle_gamma 90.000000
_cell_volume 2906.342250
_symmetry_space_group_name_H-M "C C C A"
_symmetry_group_IT_number 68
_space_group.IT_coordinate_system_code '2'
_symmetry_cell_setting 'orthorhombic'
loop_
_space_group_symop_operation_xyz
x,y,z
-x,1/2-y,z
x,1/2-y,1/2-z
-x,y,1/2-z
-x,-y,-z
x,1/2+y,-z
-x,1/2+y,1/2+z
x,-y,1/2+z
1/2+x,1/2+y,z
1/2-x,-y,z
1/2+x,-y,1/2-z
1/2-x,1/2+y,1/2-z
1/2-x,1/2-y,-z
1/2+x,y,-z
1/2-x,y,1/2+z
1/2+x,1/2-y,1/2+z
loop_
_atom_site_type_symbol
_atom_site_label
_atom_site_fract_x
_atom_site_fract_y
_atom_site_fract_z
Si Si1 0.969023 0.908853 0.474030
Si Si2 0.453219 0.846107 0.311326
Si Si3 0.156370 0.191076 0.881083
Si Si4 0.138999 0.343469 0.423793
O O1 0.099258 0.884542 0.422726
O O2 0.993700 0.842162 0.526792
O O3 0.783113 0.904581 0.448071
O O4 0.000000 0.000000 0.500000
O O5 0.500000 0.750000 0.304104
O O6 0.500000 0.892462 0.250000
O O7 0.252484 0.851481 0.325970
O O8 0.564214 0.884159 0.364299
O O9 0.294899 0.248986 0.913749
O O10 0.000000 0.250000 0.861130
#
# Coordination Sequence:
#
# PCOD8282107 Si02
#       4
#    16  16  16  16
#     4  11  21  34  54  82 114 145 186 237 288 349
#     4   9  18  35  57  82 111 146 190 238 281 333
#     4   9  19  35  56  82 114 150 187 232 289 347
#     4  10  20  34  54  80 112 149 185 231 290 346
#
# _framework density 22.020804999999999
#
# number of rings (size 3 to 8) (size 9 to 14) (size 15 to 20)
#    0.000    2.250    0.000    3.000    0.000    7.000 
#    0.000   21.250    0.000    6.000    0.000    0.000 
#    0.000    0.000    0.000    0.000    0.000    2.000 
#
# Total GULP energy -396510.270904 kJ/mol
# GULP energy per Si atom -12390.945966 kJ/mol
# Density = 2.197068 g / cm^3
# Si number density = 22.020805 Si / 1000 Ang^3
#
#
#
# Elastic Constant Matrix: (Units=GPa)
#
#
# Indices 1 2 3 4 5 6 
#
# 1 134.1068 33.1637 106.1039 0.0000 0.0000 0.0000
# 2 33.1637 57.0083 23.5974 0.0000 0.0000 0.0000
# 3 106.1039 23.5974 184.9642 0.0000 0.0000 0.0000
# 4 0.0000 0.0000 0.0000 9.3432 0.0000 0.0000
# 5 0.0000 0.0000 0.0000 0.0000 37.0778 0.0000
# 6 0.0000 0.0000 0.0000 0.0000 0.0000 19.6980
#
#
#
# Elastic Compliance Matrix: (Units=1/GPa)
#
#
# Indices 1 2 3 4 5 6 
#
# 1 0.015127 -0.005498 -0.007976 0.000000 0.000000 0.000000
# 2 -0.005498 0.020518 0.000536 0.000000 0.000000 0.000000
# 3 -0.007976 0.000536 0.009913 0.000000 0.000000 0.000000
# 4 0.000000 0.000000 0.000000 0.107029 0.000000 0.000000
# 5 0.000000 0.000000 0.000000 0.000000 0.026970 0.000000
# 6 0.000000 0.000000 0.000000 0.000000 0.000000 0.050767
#
#
# Mechanical properties :
#
#
# Convention : Reuss Voigt Hill
#
# Bulk Modulus (GPa) = 50.80687 77.97880 64.39284
# Shear Modulus (GPa) = 19.02868 27.43809 23.23338
#
# Velocity S-wave (km/s) = 2.94279 3.53371 3.25170
# Velocity P-wave (km/s) = 5.88803 7.22065 6.58812
#
# Compressibility (1/GPa) = 0.01968238
#
# Stress axis : x y z
#
# Youngs Moduli (GPa) = 66.10674 48.73809 100.87305
#
# Poissons Ratio (x) = 0.26798 0.80457
# Poissons Ratio (y) = 0.36348 -0.05412
# Poissons Ratio (z) = 0.52727 -0.02615
#
# Static dielectric constant tensor:
#      x y z
#    x 4.622550 0.000000 0.000000 
#    y 0.000000 3.388960 0.000000 
#    z 0.000000 0.000000 5.026290 
# 
# 
# High freq. dielectric constant tensor:
#      x y z
#    x 1.887990 0.000000 0.000000 
#    y 0.000000 1.816720 0.000000 
#    z 0.000000 0.000000 1.858520 
# 
# From -- ./inp_files/35758.got.cif
#   From: 2010.03.12/outbox.cif.g09.slc.cpg/sg68_18_cif.got.tgz:35758.got - 2010.04.10 23:14:56.
