data_PCOD8282060
_publ_section_title
;
Structure prediction by ZEFSAII (Michael W. Deem and Ramdas Pophale) SiO2 
 PCOD8282060
Probable space group: C C C A
;
_chemical_formula_sum "Si O2"
_cell_formula_units_Z 104
_cell_length_a 8.719238
_cell_length_b 20.288615
_cell_length_c 28.817375
_cell_angle_alpha 90.000000
_cell_angle_beta 90.000000
_cell_angle_gamma 90.000000
_cell_volume 5097.830030
_symmetry_space_group_name_H-M "C C C A"
_symmetry_group_IT_number 68
_space_group.IT_coordinate_system_code '2'
_symmetry_cell_setting 'orthorhombic'
loop_
_space_group_symop_operation_xyz
x,y,z
-x,1/2-y,z
x,1/2-y,1/2-z
-x,y,1/2-z
-x,-y,-z
x,1/2+y,-z
-x,1/2+y,1/2+z
x,-y,1/2+z
1/2+x,1/2+y,z
1/2-x,-y,z
1/2+x,-y,1/2-z
1/2-x,1/2+y,1/2-z
1/2-x,1/2-y,-z
1/2+x,y,-z
1/2-x,y,1/2+z
1/2+x,1/2-y,1/2+z
loop_
_atom_site_type_symbol
_atom_site_label
_atom_site_fract_x
_atom_site_fract_y
_atom_site_fract_z
Si Si1 0.250000 0.500000 0.986150
Si Si2 0.340967 0.933099 0.772016
Si Si3 0.647263 0.790746 0.964143
Si Si4 0.911577 0.147541 0.639327
Si Si5 0.335769 0.316593 0.772118
Si Si6 0.482797 0.916558 0.957727
Si Si7 0.222307 0.716435 0.364952
O O1 0.386651 0.527254 0.953851
O O2 0.329493 0.442425 0.016954
O O3 0.500000 0.953715 0.750000
O O4 0.355774 0.904218 0.823160
O O5 0.265529 0.879980 0.737973
O O6 0.250000 0.000000 0.775955
O O7 0.500000 0.750000 0.945363
O O8 0.569916 0.856729 0.985646
O O9 0.750432 0.807320 0.918415
O O10 0.750000 0.750000 0.000000
O O11 0.931214 0.106932 0.592282
O O12 0.783089 0.204096 0.633928
O O13 0.068087 0.182836 0.654749
O O14 0.260702 0.250000 0.750000
O O15 0.500000 0.328447 0.750000
O O16 0.351820 0.306886 0.828229
#
# Coordination Sequence:
#
# PCOD8282060 Si02
#       7
#     8  16  16  16  16  16  16
#     4  10  22  40  64  86 126 182 216 258 322 394
#     4  12  25  42  64  93 129 172 213 266 335 387
#     4  11  21  38  63  96 133 162 211 280 338 393
#     4  10  20  38  66  94 121 162 219 265 319 405
#     4  11  23  41  67  94 129 162 217 281 321 392
#     4  10  21  39  62  93 126 168 223 260 320 395
#     4  10  19  40  68  94 120 171 216 263 338 399
#
# _framework density 20.400836999999999
#
# number of rings (size 3 to 8) (size 9 to 14) (size 15 to 20)
#    0.000    1.385    6.154    1.385    1.077    0.308 
#    4.154    1.538    0.000    0.000    0.000    0.000 
#    0.000    0.000    0.000    0.000    0.000    0.000 
#
# Total GULP energy -644459.352260 kJ/mol
# GULP energy per Si atom -12393.449082 kJ/mol
# Density = 2.035440 g / cm^3
# Si number density = 20.400837 Si / 1000 Ang^3
#
#
#
# Elastic Constant Matrix: (Units=GPa)
#
#
# Indices 1 2 3 4 5 6 
#
# 1 90.1509 45.7707 55.3797 0.0000 0.0000 0.0000
# 2 45.7707 135.5616 55.5054 0.0000 0.0000 0.0000
# 3 55.3797 55.5054 139.1677 0.0000 0.0000 0.0000
# 4 0.0000 0.0000 0.0000 23.9158 0.0000 0.0000
# 5 0.0000 0.0000 0.0000 0.0000 25.9784 0.0000
# 6 0.0000 0.0000 0.0000 0.0000 0.0000 30.9847
#
#
#
# Elastic Compliance Matrix: (Units=1/GPa)
#
#
# Indices 1 2 3 4 5 6 
#
# 1 0.015831 -0.003305 -0.004981 0.000000 0.000000 0.000000
# 2 -0.003305 0.009507 -0.002476 0.000000 0.000000 0.000000
# 3 -0.004981 -0.002476 0.010155 0.000000 0.000000 0.000000
# 4 0.000000 0.000000 0.000000 0.041813 0.000000 0.000000
# 5 0.000000 0.000000 0.000000 0.000000 0.038493 0.000000
# 6 0.000000 0.000000 0.000000 0.000000 0.000000 0.032274
#
#
# Mechanical properties :
#
#
# Convention : Reuss Voigt Hill
#
# Bulk Modulus (GPa) = 71.59819 75.35465 73.47642
# Shear Modulus (GPa) = 28.69354 30.05742 29.37548
#
# Velocity S-wave (km/s) = 3.75439 3.84258 3.79874
# Velocity P-wave (km/s) = 7.34614 7.53023 7.43876
#
# Compressibility (1/GPa) = 0.01396683
#
# Stress axis : x y z
#
# Youngs Moduli (GPa) = 63.16827 105.18928 98.46961
#
# Poissons Ratio (x) = 0.34770 0.49050
# Poissons Ratio (y) = 0.20880 0.24384
# Poissons Ratio (z) = 0.31466 0.26048
#
# Static dielectric constant tensor:
#      x y z
#    x 3.591800 0.000000 0.000000 
#    y 0.000000 3.964310 0.000000 
#    z 0.000000 0.000000 3.582760 
# 
# 
# High freq. dielectric constant tensor:
#      x y z
#    x 1.782100 0.000000 0.000000 
#    y 0.000000 1.807480 0.000000 
#    z 0.000000 0.000000 1.791770 
# 
# From -- ./inp_files/49407.got.cif
#   From: 2010.03.12/outbox.cif.g09.slc.cpg/sg68_25_cif.got.tgz:49407.got - 2010.04.10 23:14:56.
