data_PCOD8282444
_publ_section_title
;
Structure prediction by ZEFSAII (Michael W. Deem and Ramdas Pophale) SiO2 
 PCOD8282444
Probable space group: C C C A
;
_chemical_formula_sum "Si O2"
_cell_formula_units_Z 88
_cell_length_a 12.850476
_cell_length_b 19.856694
_cell_length_c 15.086067
_cell_angle_alpha 90.000000
_cell_angle_beta 90.000000
_cell_angle_gamma 90.000000
_cell_volume 3849.481087
_symmetry_space_group_name_H-M "C C C A"
_symmetry_group_IT_number 68
_space_group.IT_coordinate_system_code '2'
_symmetry_cell_setting 'orthorhombic'
loop_
_space_group_symop_operation_xyz
x,y,z
-x,1/2-y,z
x,1/2-y,1/2-z
-x,y,1/2-z
-x,-y,-z
x,1/2+y,-z
-x,1/2+y,1/2+z
x,-y,1/2+z
1/2+x,1/2+y,z
1/2-x,-y,z
1/2+x,-y,1/2-z
1/2-x,1/2+y,1/2-z
1/2-x,1/2-y,-z
1/2+x,y,-z
1/2-x,y,1/2+z
1/2+x,1/2-y,1/2+z
loop_
_atom_site_type_symbol
_atom_site_label
_atom_site_fract_x
_atom_site_fract_y
_atom_site_fract_z
Si Si1 0.837087 0.162747 0.456566
Si Si2 0.000000 0.250000 0.942491
Si Si3 0.847538 0.956273 0.337875
Si Si4 0.693980 0.566631 0.457882
Si Si5 0.335630 0.692120 0.823817
Si Si6 0.511714 0.425852 0.654661
O O1 0.774594 0.129410 0.539388
O O2 0.762055 0.202691 0.389388
O O3 0.919265 0.214385 0.493487
O O4 0.894062 0.103877 0.402205
O O5 0.058460 0.302586 0.879925
O O6 0.842876 0.941715 0.441941
O O7 0.841583 0.884479 0.285367
O O8 0.750000 0.000000 0.303228
O O9 0.955281 0.996716 0.323736
O O10 0.750000 0.500000 0.420740
O O11 0.596432 0.582149 0.396052
O O12 0.329013 0.750000 0.750000
O O13 0.500000 0.388626 0.750000
#
# Coordination Sequence:
#
# PCOD8282444 Si02
#       6
#    16   8  16  16  16  16
#     4  11  24  47  69 100 141 191 243 285 346 437
#     4  12  27  44  71 102 140 198 240 282 355 450
#     4  10  20  46  74 101 141 181 238 291 352 433
#     4  10  21  41  72  99 140 185 231 291 357 422
#     4  11  25  45  73 104 145 185 231 303 363 417
#     4  12  25  40  69 109 139 179 237 303 361 406
#
# _framework density 22.860223000000001
#
# number of rings (size 3 to 8) (size 9 to 14) (size 15 to 20)
#    0.000    1.091    5.455    3.545    2.545    5.091 
#    0.000    0.000    0.000    0.000    0.000    0.000 
#    0.000    0.000    0.000    0.000    0.000    0.000 
#
# Total GULP energy -545517.551950 kJ/mol
# GULP energy per Si atom -12398.126181 kJ/mol
# Density = 2.280819 g / cm^3
# Si number density = 22.860223 Si / 1000 Ang^3
#
#
#
# Elastic Constant Matrix: (Units=GPa)
#
#
# Indices 1 2 3 4 5 6 
#
# 1 147.2663 56.6938 51.1408 0.0000 0.0000 0.0000
# 2 56.6938 137.2414 41.7727 0.0000 0.0000 0.0000
# 3 51.1408 41.7727 69.8438 0.0000 0.0000 0.0000
# 4 0.0000 0.0000 0.0000 17.0540 0.0000 0.0000
# 5 0.0000 0.0000 0.0000 0.0000 -10.8119 0.0000
# 6 0.0000 0.0000 0.0000 0.0000 0.0000 45.0810
#
#
#
# Elastic Compliance Matrix: (Units=1/GPa)
#
#
# Indices 1 2 3 4 5 6 
#
# 1 0.009639 -0.002242 -0.005717 0.000000 0.000000 0.000000
# 2 -0.002242 0.009429 -0.003998 0.000000 0.000000 0.000000
# 3 -0.005717 -0.003998 0.020895 0.000000 0.000000 0.000000
# 4 0.000000 0.000000 0.000000 0.058637 0.000000 0.000000
# 5 0.000000 0.000000 0.000000 0.000000 -0.092490 0.000000
# 6 0.000000 0.000000 0.000000 0.000000 0.000000 0.022182
#
#
# Mechanical properties :
#
#
# Convention : Reuss Voigt Hill
#
# Bulk Modulus (GPa) = 62.30731 72.61848 67.46289
# Shear Modulus (GPa) = 86.87238 23.91423 55.39331
#
# Velocity S-wave (km/s) = 6.17123 3.23787 4.92787
# Velocity P-wave (km/s) = 8.83706 6.76858 7.87106
#
# Compressibility (1/GPa) = 0.01604948
#
# Stress axis : x y z
#
# Youngs Moduli (GPa) = 103.74860 106.05134 47.85834
#
# Poissons Ratio (x) = 0.23773 0.27360
# Poissons Ratio (y) = 0.23256 0.19135
# Poissons Ratio (z) = 0.59312 0.42402
#
# Static dielectric constant tensor:
#      x y z
#    x 4.408780 0.000000 0.000000 
#    y 0.000000 4.540870 0.000000 
#    z 0.000000 0.000000 3.921540 
# 
# 
# High freq. dielectric constant tensor:
#      x y z
#    x 1.920060 0.000000 0.000000 
#    y 0.000000 1.902450 0.000000 
#    z 0.000000 0.000000 1.886150 
# 
# From -- ./inp_files/20968.got.cif
#   From: 2010.03.12/outbox.cif.g09.slc.cpg/sg68_11_cif.got.tgz:20968.got - 2010.04.10 23:14:56.
