data_PCOD8282366
_publ_section_title
;
Structure prediction by ZEFSAII (Michael W. Deem and Ramdas Pophale) SiO2 
 PCOD8282366
Probable space group: C C C A
;
_chemical_formula_sum "Si O2"
_cell_formula_units_Z 60
_cell_length_a 8.640786
_cell_length_b 14.420950
_cell_length_c 21.449688
_cell_angle_alpha 90.000000
_cell_angle_beta 90.000000
_cell_angle_gamma 90.000000
_cell_volume 2672.810077
_symmetry_space_group_name_H-M "C C C A"
_symmetry_group_IT_number 68
_space_group.IT_coordinate_system_code '2'
_symmetry_cell_setting 'orthorhombic'
loop_
_space_group_symop_operation_xyz
x,y,z
-x,1/2-y,z
x,1/2-y,1/2-z
-x,y,1/2-z
-x,-y,-z
x,1/2+y,-z
-x,1/2+y,1/2+z
x,-y,1/2+z
1/2+x,1/2+y,z
1/2-x,-y,z
1/2+x,-y,1/2-z
1/2-x,1/2+y,1/2-z
1/2-x,1/2-y,-z
1/2+x,y,-z
1/2-x,y,1/2+z
1/2+x,1/2-y,1/2+z
loop_
_atom_site_type_symbol
_atom_site_label
_atom_site_fract_x
_atom_site_fract_y
_atom_site_fract_z
Si Si1 0.213656 0.182909 0.584579
Si Si2 0.500000 0.750000 0.482516
Si Si3 0.797955 0.685728 0.303560
Si Si4 0.000000 0.750000 0.750000
Si Si5 0.000000 0.029923 0.750000
Si Si6 0.750000 0.000000 0.839868
O O1 0.389888 0.188744 0.561150
O O2 0.168064 0.270211 0.628505
O O3 0.101050 0.180717 0.525124
O O4 0.194747 0.087172 0.620753
O O5 0.872351 0.750000 0.250000
O O6 0.610285 0.683577 0.292861
O O7 0.882357 0.587732 0.295026
O O8 0.893936 0.968451 0.796065
#
# Coordination Sequence:
#
# PCOD8282366 Si02
#       6
#    16   8  16   4   8   8
#     4  11  23  42  66  92 126 166 222 262 313 373
#     4  10  25  44  66  86 116 183 228 254 296 386
#     4  10  20  39  69  93 125 171 208 258 315 405
#     4   8  18  28  64  98 112 156 216 250 302 364
#     4  12  25  39  62 102 136 170 202 253 352 393
#     4  12  26  40  64  98 136 162 204 280 328 384
#
# _framework density 22.448284999999998
#
# number of rings (size 3 to 8) (size 9 to 14) (size 15 to 20)
#    0.800    0.533    2.667    2.800    0.000    7.467 
#    0.000    0.000    0.000    0.000    0.000    0.000 
#    0.000    0.000    0.000    0.000    0.000    0.000 
#
# Total GULP energy -371813.318607 kJ/mol
# GULP energy per Si atom -12393.777287 kJ/mol
# Density = 2.239719 g / cm^3
# Si number density = 22.448285 Si / 1000 Ang^3
#
#
#
# Elastic Constant Matrix: (Units=GPa)
#
#
# Indices 1 2 3 4 5 6 
#
# 1 111.1489 2.3789 19.1551 0.0000 0.0000 0.0000
# 2 2.3789 39.1811 10.9031 0.0000 0.0000 0.0000
# 3 19.1551 10.9031 96.6084 0.0000 0.0000 0.0000
# 4 0.0000 0.0000 0.0000 19.3912 0.0000 0.0000
# 5 0.0000 0.0000 0.0000 0.0000 194.0491 0.0000
# 6 0.0000 0.0000 0.0000 0.0000 0.0000 30.7141
#
#
#
# Elastic Compliance Matrix: (Units=1/GPa)
#
#
# Indices 1 2 3 4 5 6 
#
# 1 0.009315 -0.000053 -0.001841 0.000000 0.000000 0.000000
# 2 -0.000053 0.026350 -0.002963 0.000000 0.000000 0.000000
# 3 -0.001841 -0.002963 0.011051 0.000000 0.000000 0.000000
# 4 0.000000 0.000000 0.000000 0.051570 0.000000 0.000000
# 5 0.000000 0.000000 0.000000 0.000000 0.005153 0.000000
# 6 0.000000 0.000000 0.000000 0.000000 0.000000 0.032558
#
#
# Mechanical properties :
#
#
# Convention : Reuss Voigt Hill
#
# Bulk Modulus (GPa) = 27.02624 34.64585 30.83605
# Shear Modulus (GPa) = 31.63625 63.13096 47.38360
#
# Velocity S-wave (km/s) = 3.75813 5.30885 4.59932
# Velocity P-wave (km/s) = 5.55849 7.28325 6.47852
#
# Compressibility (1/GPa) = 0.03700107
#
# Stress axis : x y z
#
# Youngs Moduli (GPa) = 107.34969 37.95013 90.49338
#
# Poissons Ratio (x) = 0.00202 0.16660
# Poissons Ratio (y) = 0.00572 0.26816
# Poissons Ratio (z) = 0.19763 0.11246
#
# Static dielectric constant tensor:
#      x y z
#    x 4.363320 0.000000 0.000000 
#    y 0.000000 3.458230 0.000000 
#    z 0.000000 0.000000 4.090280 
# 
# 
# High freq. dielectric constant tensor:
#      x y z
#    x 1.919560 0.000000 0.000000 
#    y 0.000000 1.841070 0.000000 
#    z 0.000000 0.000000 1.879500 
# 
# From -- ./inp_files/27748.got.cif
#   From: 2010.03.12/outbox.cif.g09.slc.cpg/sg68_14_cif.got.tgz:27748.got - 2010.04.10 23:14:56.
