data_PCOD8282855
_publ_section_title
;
Structure prediction by ZEFSAII (Michael W. Deem and Ramdas Pophale) SiO2 
 PCOD8282855
Probable space group: C C C A
;
_chemical_formula_sum "Si O2"
_cell_formula_units_Z 100
_cell_length_a 16.934189
_cell_length_b 28.583132
_cell_length_c 9.025243
_cell_angle_alpha 90.000000
_cell_angle_beta 90.000000
_cell_angle_gamma 90.000000
_cell_volume 4368.507859
_symmetry_space_group_name_H-M "C C C A"
_symmetry_group_IT_number 68
_space_group.IT_coordinate_system_code '2'
_symmetry_cell_setting 'orthorhombic'
loop_
_space_group_symop_operation_xyz
x,y,z
-x,1/2-y,z
x,1/2-y,1/2-z
-x,y,1/2-z
-x,-y,-z
x,1/2+y,-z
-x,1/2+y,1/2+z
x,-y,1/2+z
1/2+x,1/2+y,z
1/2-x,-y,z
1/2+x,-y,1/2-z
1/2-x,1/2+y,1/2-z
1/2-x,1/2-y,-z
1/2+x,y,-z
1/2-x,y,1/2+z
1/2+x,1/2-y,1/2+z
loop_
_atom_site_type_symbol
_atom_site_label
_atom_site_fract_x
_atom_site_fract_y
_atom_site_fract_z
Si Si1 0.000000 0.250000 0.750000
Si Si2 0.825915 0.250000 0.250000
Si Si3 0.205685 0.897185 0.093004
Si Si4 0.918661 0.802508 0.985726
Si Si5 0.868102 0.937621 0.798885
Si Si6 0.000000 0.135983 0.250000
Si Si7 0.724364 0.161355 0.147569
Si Si8 0.342310 0.988875 0.487347
O O1 0.051425 0.282558 0.642025
O O2 0.886031 0.261210 0.117371
O O3 0.770243 0.208002 0.195799
O O4 0.286636 0.912942 0.168734
O O5 0.176463 0.858331 0.210028
O O6 0.144604 0.940123 0.078254
O O7 0.215035 0.875294 0.928359
O O8 0.985957 0.832081 0.897160
O O9 0.841229 0.832813 0.020140
O O10 0.864100 0.980160 0.681919
O O11 0.925622 0.897908 0.737252
O O12 0.893206 0.967462 0.946856
O O13 0.250000 0.000000 0.500952
#
# Coordination Sequence:
#
# PCOD8282855 Si02
#       8
#     4   8  16  16  16   8  16  16
#     4  12  30  46  68  98 138 202 238 286 332 454
#     4  12  25  45  72 103 137 174 222 314 372 408
#     4  11  22  39  68 104 134 169 220 292 366 411
#     4  12  27  47  68  98 140 185 241 275 354 425
#     4  11  23  41  63  97 133 184 228 278 345 416
#     4  12  26  47  68  91 144 196 233 273 338 432
#     4  12  23  41  70 106 133 172 227 299 367 418
#     4  10  22  39  67  97 132 166 224 292 351 400
#
# _framework density 22.891112
#
# number of rings (size 3 to 8) (size 9 to 14) (size 15 to 20)
#    0.000    0.640    4.800    3.360    4.480    1.920 
#    0.000    0.000    0.000    0.000    0.000    0.000 
#    0.000    0.000    0.000    0.000    0.000    0.000 
#
# Total GULP energy -619505.587539 kJ/mol
# GULP energy per Si atom -12390.111751 kJ/mol
# Density = 2.283901 g / cm^3
# Si number density = 22.891112 Si / 1000 Ang^3
#
#
#
# Elastic Constant Matrix: (Units=GPa)
#
#
# Indices 1 2 3 4 5 6 
#
# 1 48.7605 17.4638 17.4959 0.0000 0.0000 0.0000
# 2 17.4638 83.3954 48.4949 0.0000 0.0000 0.0000
# 3 17.4959 48.4949 138.2941 0.0000 0.0000 0.0000
# 4 0.0000 0.0000 0.0000 55.6871 0.0000 0.0000
# 5 0.0000 0.0000 0.0000 0.0000 36.7589 0.0000
# 6 0.0000 0.0000 0.0000 0.0000 0.0000 29.2808
#
#
#
# Elastic Compliance Matrix: (Units=1/GPa)
#
#
# Indices 1 2 3 4 5 6 
#
# 1 0.022414 -0.003825 -0.001495 0.000000 0.000000 0.000000
# 2 -0.003825 0.015715 -0.005027 0.000000 0.000000 0.000000
# 3 -0.001495 -0.005027 0.009183 0.000000 0.000000 0.000000
# 4 0.000000 0.000000 0.000000 0.017957 0.000000 0.000000
# 5 0.000000 0.000000 0.000000 0.000000 0.027204 0.000000
# 6 0.000000 0.000000 0.000000 0.000000 0.000000 0.034152
#
#
# Mechanical properties :
#
#
# Convention : Reuss Voigt Hill
#
# Bulk Modulus (GPa) = 37.56547 48.59547 43.08047
# Shear Modulus (GPa) = 32.01186 36.81170 34.41178
#
# Velocity S-wave (km/s) = 3.74363 4.01449 3.88142
# Velocity P-wave (km/s) = 5.92727 6.53936 6.24082
#
# Compressibility (1/GPa) = 0.02662019
#
# Stress axis : x y z
#
# Youngs Moduli (GPa) = 44.61398 63.63273 108.89926
#
# Poissons Ratio (x) = 0.24338 0.16275
# Poissons Ratio (y) = 0.17064 0.54742
# Poissons Ratio (z) = 0.06668 0.31987
#
# Static dielectric constant tensor:
#      x y z
#    x 3.774300 0.000000 0.000000 
#    y 0.000000 4.840940 0.000000 
#    z 0.000000 0.000000 4.431690 
# 
# 
# High freq. dielectric constant tensor:
#      x y z
#    x 1.855990 0.000000 0.000000 
#    y 0.000000 1.926000 0.000000 
#    z 0.000000 0.000000 1.925750 
# 
# From -- ./inp_files/7521.got.cif
#   From: 2010.03.12/outbox.cif.g09.slc.cpg/sg68_4_cif.got.tgz:7521.got - 2010.04.10 23:14:56.
