data_PCOD8282408
_publ_section_title
;
Structure prediction by ZEFSAII (Michael W. Deem and Ramdas Pophale) SiO2 
 PCOD8282408
Probable space group: C C C A
;
_chemical_formula_sum "Si O2"
_cell_formula_units_Z 72
_cell_length_a 18.846987
_cell_length_b 19.316659
_cell_length_c 8.731928
_cell_angle_alpha 90.000000
_cell_angle_beta 90.000000
_cell_angle_gamma 90.000000
_cell_volume 3178.952877
_symmetry_space_group_name_H-M "C C C A"
_symmetry_group_IT_number 68
_space_group.IT_coordinate_system_code '2'
_symmetry_cell_setting 'orthorhombic'
loop_
_space_group_symop_operation_xyz
x,y,z
-x,1/2-y,z
x,1/2-y,1/2-z
-x,y,1/2-z
-x,-y,-z
x,1/2+y,-z
-x,1/2+y,1/2+z
x,-y,1/2+z
1/2+x,1/2+y,z
1/2-x,-y,z
1/2+x,-y,1/2-z
1/2-x,1/2+y,1/2-z
1/2-x,1/2-y,-z
1/2+x,y,-z
1/2-x,y,1/2+z
1/2+x,1/2-y,1/2+z
loop_
_atom_site_type_symbol
_atom_site_label
_atom_site_fract_x
_atom_site_fract_y
_atom_site_fract_z
Si Si1 0.000000 0.491604 0.750000
Si Si2 0.083416 0.922610 0.517451
Si Si3 0.360341 0.779363 0.091777
Si Si4 0.780819 0.429751 0.844382
Si Si5 0.206237 0.339237 0.929853
O O1 0.939485 0.540956 0.676342
O O2 0.030011 0.442106 0.618311
O O3 0.086188 0.839199 0.535445
O O4 0.162541 0.948394 0.476590
O O5 0.391470 0.750000 0.250000
O O6 0.280895 0.806612 0.121276
O O7 0.353729 0.718644 0.963614
O O8 0.750000 0.500000 0.773062
O O9 0.820443 0.386511 0.711031
O O10 0.716773 0.385312 0.917643
#
# Coordination Sequence:
#
# PCOD8282408 Si02
#       5
#     8  16  16  16  16
#     4  10  24  52  67  97 130 184 242 292 326 382
#     4  10  25  43  75  92 134 180 233 287 338 400
#     4  10  20  40  66  98 134 183 211 274 349 415
#     4  11  23  37  65 111 134 176 215 280 357 422
#     4  10  21  36  61  99 148 167 212 264 345 431
#
# _framework density 22.648969000000001
#
# number of rings (size 3 to 8) (size 9 to 14) (size 15 to 20)
#    0.000    1.778    2.222    0.667    9.333    0.000 
#    4.000    0.556    4.889    0.000    0.000    0.000 
#    0.000    0.000    0.000    0.000    0.000    0.000 
#
# Total GULP energy -446388.698204 kJ/mol
# GULP energy per Si atom -12399.686061 kJ/mol
# Density = 2.259742 g / cm^3
# Si number density = 22.648969 Si / 1000 Ang^3
#
#
#
# Elastic Constant Matrix: (Units=GPa)
#
#
# Indices 1 2 3 4 5 6 
#
# 1 52.0812 52.3587 28.6960 0.0000 0.0000 0.0000
# 2 52.3587 184.3988 84.7083 0.0000 0.0000 0.0000
# 3 28.6960 84.7083 133.2570 0.0000 0.0000 0.0000
# 4 0.0000 0.0000 0.0000 41.0519 0.0000 0.0000
# 5 0.0000 0.0000 0.0000 0.0000 25.4694 0.0000
# 6 0.0000 0.0000 0.0000 0.0000 0.0000 42.0252
#
#
#
# Elastic Compliance Matrix: (Units=1/GPa)
#
#
# Indices 1 2 3 4 5 6 
#
# 1 0.027037 -0.007066 -0.001331 0.000000 0.000000 0.000000
# 2 -0.007066 0.009506 -0.004521 0.000000 0.000000 0.000000
# 3 -0.001331 -0.004521 0.010665 0.000000 0.000000 0.000000
# 4 0.000000 0.000000 0.000000 0.024359 0.000000 0.000000
# 5 0.000000 0.000000 0.000000 0.000000 0.039263 0.000000
# 6 0.000000 0.000000 0.000000 0.000000 0.000000 0.023795
#
#
# Mechanical properties :
#
#
# Convention : Reuss Voigt Hill
#
# Bulk Modulus (GPa) = 46.78826 77.91812 62.35319
# Shear Modulus (GPa) = 29.83538 35.30756 32.57147
#
# Velocity S-wave (km/s) = 3.63339 3.95258 3.79634
# Velocity P-wave (km/s) = 6.18910 7.43691 6.84151
#
# Compressibility (1/GPa) = 0.02137288
#
# Stress axis : x y z
#
# Youngs Moduli (GPa) = 36.98580 105.19336 93.76462
#
# Poissons Ratio (x) = 0.74327 0.12478
# Poissons Ratio (y) = 0.26133 0.42394
# Poissons Ratio (z) = 0.04922 0.47562
#
# Static dielectric constant tensor:
#      x y z
#    x 3.566180 0.000000 0.000000 
#    y 0.000000 4.397450 0.000000 
#    z 0.000000 0.000000 4.088540 
# 
# 
# High freq. dielectric constant tensor:
#      x y z
#    x 1.837150 0.000000 0.000000 
#    y 0.000000 1.907540 0.000000 
#    z 0.000000 0.000000 1.904330 
# 
# From -- ./inp_files/6943.got.cif
#   From: 2010.03.12/outbox.cif.g09.slc.cpg/sg68_4_cif.got.tgz:6943.got - 2010.04.10 23:14:56.
