data_PCOD8282698
_publ_section_title
;
Structure prediction by ZEFSAII (Michael W. Deem and Ramdas Pophale) SiO2 
 PCOD8282698
Probable space group: C C C A
;
_chemical_formula_sum "Si O2"
_cell_formula_units_Z 96
_cell_length_a 20.126026
_cell_length_b 13.969295
_cell_length_c 16.126659
_cell_angle_alpha 90.000000
_cell_angle_beta 90.000000
_cell_angle_gamma 90.000000
_cell_volume 4533.952031
_symmetry_space_group_name_H-M "C C C A"
_symmetry_group_IT_number 68
_space_group.IT_coordinate_system_code '2'
_symmetry_cell_setting 'orthorhombic'
loop_
_space_group_symop_operation_xyz
x,y,z
-x,1/2-y,z
x,1/2-y,1/2-z
-x,y,1/2-z
-x,-y,-z
x,1/2+y,-z
-x,1/2+y,1/2+z
x,-y,1/2+z
1/2+x,1/2+y,z
1/2-x,-y,z
1/2+x,-y,1/2-z
1/2-x,1/2+y,1/2-z
1/2-x,1/2-y,-z
1/2+x,y,-z
1/2-x,y,1/2+z
1/2+x,1/2-y,1/2+z
loop_
_atom_site_type_symbol
_atom_site_label
_atom_site_fract_x
_atom_site_fract_y
_atom_site_fract_z
Si Si1 0.430980 0.804034 0.051952
Si Si2 0.250000 0.500000 0.105709
Si Si3 0.240302 0.750000 0.250000
Si Si4 0.950406 0.525928 0.675184
Si Si5 0.033913 0.647598 0.120821
Si Si6 0.294579 0.299797 0.569676
Si Si7 0.351353 0.915184 0.768777
O O1 0.500000 0.750000 0.054707
O O2 0.432086 0.880327 0.124657
O O3 0.371469 0.727419 0.058129
O O4 0.424659 0.858917 0.964469
O O5 0.279695 0.587929 0.052296
O O6 0.312363 0.466890 0.158827
O O7 0.280398 0.774947 0.333514
O O8 0.195150 0.660521 0.277801
O O9 0.877273 0.494759 0.705413
O O10 0.000000 0.554157 0.750000
O O11 0.981329 0.439707 0.620944
O O12 0.083697 0.638785 0.197205
O O13 0.000000 0.750000 0.130342
O O14 0.250000 0.250000 0.500000
#
# Coordination Sequence:
#
# PCOD8282698 Si02
#       7
#    16   8   8  16  16  16  16
#     4  11  25  41  67  95 135 179 225 278 347 415
#     4  10  24  44  72  92 146 174 228 300 338 418
#     4  10  22  42  70  94 138 176 232 288 334 418
#     4  10  23  38  64  99 135 173 221 275 344 416
#     4  10  21  42  65  97 131 169 223 281 343 407
#     4  11  26  49  68 104 135 188 231 288 353 417
#     4  10  21  40  67  98 128 176 223 282 344 401
#
# _framework density 21.173580999999999
#
# number of rings (size 3 to 8) (size 9 to 14) (size 15 to 20)
#    0.000    1.667    0.000    3.500    9.333    4.000 
#   12.000    0.000    0.000    0.000    0.000    0.000 
#    0.000    0.000    0.000    0.000    0.000    0.000 
#
# Total GULP energy -595031.081930 kJ/mol
# GULP energy per Si atom -12396.480874 kJ/mol
# Density = 2.112539 g / cm^3
# Si number density = 21.173581 Si / 1000 Ang^3
#
#
#
# Elastic Constant Matrix: (Units=GPa)
#
#
# Indices 1 2 3 4 5 6 
#
# 1 122.1152 47.6515 17.9738 0.0000 0.0000 0.0000
# 2 47.6515 134.7525 33.9625 0.0000 0.0000 0.0000
# 3 17.9738 33.9625 75.0511 0.0000 0.0000 0.0000
# 4 0.0000 0.0000 0.0000 104.2820 0.0000 0.0000
# 5 0.0000 0.0000 0.0000 0.0000 33.6055 0.0000
# 6 0.0000 0.0000 0.0000 0.0000 0.0000 27.1176
#
#
#
# Elastic Compliance Matrix: (Units=1/GPa)
#
#
# Indices 1 2 3 4 5 6 
#
# 1 0.009548 -0.003161 -0.000856 0.000000 0.000000 0.000000
# 2 -0.003161 0.009423 -0.003507 0.000000 0.000000 0.000000
# 3 -0.000856 -0.003507 0.015116 0.000000 0.000000 0.000000
# 4 0.000000 0.000000 0.000000 0.009589 0.000000 0.000000
# 5 0.000000 0.000000 0.000000 0.000000 0.029757 0.000000
# 6 0.000000 0.000000 0.000000 0.000000 0.000000 0.036876
#
#
# Mechanical properties :
#
#
# Convention : Reuss Voigt Hill
#
# Bulk Modulus (GPa) = 52.52347 59.01049 55.76698
# Shear Modulus (GPa) = 37.96367 48.48975 43.22671
#
# Velocity S-wave (km/s) = 4.23895 4.79070 4.52324
# Velocity P-wave (km/s) = 6.98700 7.65058 7.32631
#
# Compressibility (1/GPa) = 0.01903911
#
# Stress axis : x y z
#
# Youngs Moduli (GPa) = 104.72971 106.12794 66.15342
#
# Poissons Ratio (x) = 0.33544 0.05666
# Poissons Ratio (y) = 0.33102 0.23200
# Poissons Ratio (z) = 0.08969 0.37219
#
# Static dielectric constant tensor:
#      x y z
#    x 3.966870 0.000000 0.000000 
#    y 0.000000 3.963500 0.000000 
#    z 0.000000 0.000000 4.076590 
# 
# 
# High freq. dielectric constant tensor:
#      x y z
#    x 1.839010 0.000000 0.000000 
#    y 0.000000 1.839710 0.000000 
#    z 0.000000 0.000000 1.826650 
# 
# From -- ./inp_files/24501.got.cif
#   From: 2010.03.12/outbox.cif.g09.slc.cpg/sg68_13_cif.got.tgz:24501.got - 2010.04.10 23:14:56.
