data_PCOD8282209
_publ_section_title
;
Structure prediction by ZEFSAII (Michael W. Deem and Ramdas Pophale) SiO2 
 PCOD8282209
Probable space group: C C C A
;
_chemical_formula_sum "Si O2"
_cell_formula_units_Z 64
_cell_length_a 8.395492
_cell_length_b 16.415115
_cell_length_c 23.762470
_cell_angle_alpha 90.000000
_cell_angle_beta 90.000000
_cell_angle_gamma 90.000000
_cell_volume 3274.776486
_symmetry_space_group_name_H-M "C C C A"
_symmetry_group_IT_number 68
_space_group.IT_coordinate_system_code '2'
_symmetry_cell_setting 'orthorhombic'
loop_
_space_group_symop_operation_xyz
x,y,z
-x,1/2-y,z
x,1/2-y,1/2-z
-x,y,1/2-z
-x,-y,-z
x,1/2+y,-z
-x,1/2+y,1/2+z
x,-y,1/2+z
1/2+x,1/2+y,z
1/2-x,-y,z
1/2+x,-y,1/2-z
1/2-x,1/2+y,1/2-z
1/2-x,1/2-y,-z
1/2+x,y,-z
1/2-x,y,1/2+z
1/2+x,1/2-y,1/2+z
loop_
_atom_site_type_symbol
_atom_site_label
_atom_site_fract_x
_atom_site_fract_y
_atom_site_fract_z
Si Si1 0.698562 0.908454 0.129113
Si Si2 0.314087 0.763322 0.938096
Si Si3 0.322390 0.346265 0.247272
Si Si4 0.107569 0.672267 0.848762
O O1 0.781148 0.855627 0.080623
O O2 0.746802 0.877400 0.190348
O O3 0.507355 0.897330 0.125449
O O4 0.750000 0.000000 0.118238
O O5 0.500000 0.750000 0.935284
O O6 0.229189 0.699869 0.896753
O O7 0.250000 0.750000 0.000000
O O8 0.336665 0.250000 0.250000
O O9 0.500000 0.384769 0.250000
O O10 0.206886 0.370788 0.298722
O O11 0.000000 0.750000 0.828368
#
# Coordination Sequence:
#
# PCOD8282209 Si02
#       4
#    16  16  16  16
#     4  11  24  39  61  95 127 155 203 264 313 353
#     4  11  22  42  67  90 115 163 213 247 302 383
#     4  11  20  34  59  91 127 168 209 243 296 376
#     4  10  20  36  61  87 121 168 206 244 303 374
#
# _framework density 19.543319
#
# number of rings (size 3 to 8) (size 9 to 14) (size 15 to 20)
#    0.000    1.250    5.000    4.500    0.000    2.000 
#    0.000    8.750    0.000    0.000    0.000    0.000 
#    0.000    0.000    0.000    0.000    0.000    0.000 
#
# Total GULP energy -396762.855795 kJ/mol
# GULP energy per Si atom -12398.839244 kJ/mol
# Density = 1.949884 g / cm^3
# Si number density = 19.543319 Si / 1000 Ang^3
#
#
#
# Elastic Constant Matrix: (Units=GPa)
#
#
# Indices 1 2 3 4 5 6 
#
# 1 190.4242 60.4389 68.7417 0.0000 0.0000 0.0000
# 2 60.4389 120.1877 57.2011 0.0000 0.0000 0.0000
# 3 68.7417 57.2011 154.8739 0.0000 0.0000 0.0000
# 4 0.0000 0.0000 0.0000 8.2016 0.0000 0.0000
# 5 0.0000 0.0000 0.0000 0.0000 40.5081 0.0000
# 6 0.0000 0.0000 0.0000 0.0000 0.0000 26.4599
#
#
#
# Elastic Compliance Matrix: (Units=1/GPa)
#
#
# Indices 1 2 3 4 5 6 
#
# 1 0.006779 -0.002399 -0.002123 0.000000 0.000000 0.000000
# 2 -0.002399 0.010943 -0.002977 0.000000 0.000000 0.000000
# 3 -0.002123 -0.002977 0.008499 0.000000 0.000000 0.000000
# 4 0.000000 0.000000 0.000000 0.121928 0.000000 0.000000
# 5 0.000000 0.000000 0.000000 0.000000 0.024686 0.000000
# 6 0.000000 0.000000 0.000000 0.000000 0.000000 0.037793
#
#
# Mechanical properties :
#
#
# Convention : Reuss Voigt Hill
#
# Bulk Modulus (GPa) = 89.09769 93.13880 91.11824
# Shear Modulus (GPa) = 21.79908 33.64085 27.71996
#
# Velocity S-wave (km/s) = 3.34342 4.15341 3.77023
# Velocity P-wave (km/s) = 7.78418 8.41203 8.10418
#
# Compressibility (1/GPa) = 0.01122364
#
# Stress axis : x y z
#
# Youngs Moduli (GPa) = 147.51136 91.37873 117.66353
#
# Poissons Ratio (x) = 0.21918 0.24981
# Poissons Ratio (y) = 0.35382 0.35031
# Poissons Ratio (z) = 0.31318 0.27205
#
# Static dielectric constant tensor:
#      x y z
#    x 4.121500 0.000000 0.000000 
#    y 0.000000 4.415490 0.000000 
#    z 0.000000 0.000000 2.884320 
# 
# 
# High freq. dielectric constant tensor:
#      x y z
#    x 1.790670 0.000000 0.000000 
#    y 0.000000 1.724270 0.000000 
#    z 0.000000 0.000000 1.760080 
# 
# From -- ./inp_files/35747.got.cif
#   From: 2010.03.12/outbox.cif.g09.slc.cpg/sg68_18_cif.got.tgz:35747.got - 2010.04.10 23:14:56.
