data_PCOD8282924
_publ_section_title
;
Structure prediction by ZEFSAII (Michael W. Deem and Ramdas Pophale) SiO2 
 PCOD8282924
Probable space group: C C C A
;
_chemical_formula_sum "Si O2"
_cell_formula_units_Z 60
_cell_length_a 13.881698
_cell_length_b 15.347085
_cell_length_c 11.804314
_cell_angle_alpha 90.000000
_cell_angle_beta 90.000000
_cell_angle_gamma 90.000000
_cell_volume 2514.833540
_symmetry_space_group_name_H-M "C C C A"
_symmetry_group_IT_number 68
_space_group.IT_coordinate_system_code '2'
_symmetry_cell_setting 'orthorhombic'
loop_
_space_group_symop_operation_xyz
x,y,z
-x,1/2-y,z
x,1/2-y,1/2-z
-x,y,1/2-z
-x,-y,-z
x,1/2+y,-z
-x,1/2+y,1/2+z
x,-y,1/2+z
1/2+x,1/2+y,z
1/2-x,-y,z
1/2+x,-y,1/2-z
1/2-x,1/2+y,1/2-z
1/2-x,1/2-y,-z
1/2+x,y,-z
1/2-x,y,1/2+z
1/2+x,1/2-y,1/2+z
loop_
_atom_site_type_symbol
_atom_site_label
_atom_site_fract_x
_atom_site_fract_y
_atom_site_fract_z
Si Si1 0.144094 0.687099 0.080527
Si Si2 0.147303 0.351071 0.068730
Si Si3 0.500000 0.750000 0.750000
Si Si4 0.898259 0.482209 0.051464
Si Si5 0.000000 0.082390 0.250000
O O1 0.253440 0.679997 0.129375
O O2 0.067444 0.682059 0.181668
O O3 0.118073 0.777763 0.020618
O O4 0.137781 0.610800 0.989694
O O5 0.060408 0.359993 0.159379
O O6 0.168511 0.438585 0.992707
O O7 0.917448 0.476195 0.187396
O O8 0.000000 0.500000 0.000000
#
# Coordination Sequence:
#
# PCOD8282924 Si02
#       5
#    16  16   4  16   8
#     4  11  25  43  65  97 136 173 218 275 327 389
#     4  10  24  44  67  99 134 170 217 274 332 390
#     4  12  24  42  68  94 132 182 228 266 324 390
#     4  10  22  41  64  95 132 169 214 267 323 385
#     4  10  22  42  74 100 128 176 220 264 332 402
#
# _framework density 23.858438
#
# number of rings (size 3 to 8) (size 9 to 14) (size 15 to 20)
#    0.000    1.600    0.000    4.000    0.000   16.000 
#    0.000    8.000    0.000    0.000    0.000    0.000 
#    0.000    0.000    0.000    0.000    0.000    0.000 
#
# Total GULP energy -371707.111751 kJ/mol
# GULP energy per Si atom -12390.237058 kJ/mol
# Density = 2.380413 g / cm^3
# Si number density = 23.858438 Si / 1000 Ang^3
#
#
#
# Elastic Constant Matrix: (Units=GPa)
#
#
# Indices 1 2 3 4 5 6 
#
# 1 124.5309 27.5236 64.4164 0.0000 0.0000 0.0000
# 2 27.5236 160.7113 59.3067 0.0000 0.0000 0.0000
# 3 64.4164 59.3067 124.2771 0.0000 0.0000 0.0000
# 4 0.0000 0.0000 0.0000 16.9858 0.0000 0.0000
# 5 0.0000 0.0000 0.0000 0.0000 35.0623 0.0000
# 6 0.0000 0.0000 0.0000 0.0000 0.0000 34.6185
#
#
#
# Elastic Compliance Matrix: (Units=1/GPa)
#
#
# Indices 1 2 3 4 5 6 
#
# 1 0.010981 0.000267 -0.005819 0.000000 0.000000 0.000000
# 2 0.000267 0.007559 -0.003745 0.000000 0.000000 0.000000
# 3 -0.005819 -0.003745 0.012850 0.000000 0.000000 0.000000
# 4 0.000000 0.000000 0.000000 0.058873 0.000000 0.000000
# 5 0.000000 0.000000 0.000000 0.000000 0.028521 0.000000
# 6 0.000000 0.000000 0.000000 0.000000 0.000000 0.028886
#
#
# Mechanical properties :
#
#
# Convention : Reuss Voigt Hill
#
# Bulk Modulus (GPa) = 78.15859 79.11253 78.63556
# Shear Modulus (GPa) = 29.32027 34.55151 31.93589
#
# Velocity S-wave (km/s) = 3.50941 3.80964 3.66260
# Velocity P-wave (km/s) = 7.01795 7.25136 7.13561
#
# Compressibility (1/GPa) = 0.01279450
#
# Stress axis : x y z
#
# Youngs Moduli (GPa) = 91.06386 132.29582 77.81980
#
# Poissons Ratio (x) = -0.03529 0.45285
# Poissons Ratio (y) = -0.02429 0.29147
# Poissons Ratio (z) = 0.52992 0.49551
#
# Static dielectric constant tensor:
#      x y z
#    x 4.461550 0.000000 0.000000 
#    y 0.000000 5.166590 0.000000 
#    z 0.000000 0.000000 -12.289300 
# 
# 
# High freq. dielectric constant tensor:
#      x y z
#    x 1.962900 0.000000 0.000000 
#    y 0.000000 1.946960 0.000000 
#    z 0.000000 0.000000 1.930100 
# 
# From -- ./inp_files/12704.got.cif
#   From: 2010.03.12/outbox.cif.g09.slc.cpg/sg68_7_cif.got.tgz:12704.got - 2010.04.10 23:14:56.
