data_PCOD8282222
_publ_section_title
;
Structure prediction by ZEFSAII (Michael W. Deem and Ramdas Pophale) SiO2 
 PCOD8282222
Probable space group: C C C A
;
_chemical_formula_sum "Si O2"
_cell_formula_units_Z 64
_cell_length_a 30.186094
_cell_length_b 5.462149
_cell_length_c 17.263216
_cell_angle_alpha 90.000000
_cell_angle_beta 90.000000
_cell_angle_gamma 90.000000
_cell_volume 2846.375336
_symmetry_space_group_name_H-M "C C C A"
_symmetry_group_IT_number 68
_space_group.IT_coordinate_system_code '2'
_symmetry_cell_setting 'orthorhombic'
loop_
_space_group_symop_operation_xyz
x,y,z
-x,1/2-y,z
x,1/2-y,1/2-z
-x,y,1/2-z
-x,-y,-z
x,1/2+y,-z
-x,1/2+y,1/2+z
x,-y,1/2+z
1/2+x,1/2+y,z
1/2-x,-y,z
1/2+x,-y,1/2-z
1/2-x,1/2+y,1/2-z
1/2-x,1/2-y,-z
1/2+x,y,-z
1/2-x,y,1/2+z
1/2+x,1/2-y,1/2+z
loop_
_atom_site_type_symbol
_atom_site_label
_atom_site_fract_x
_atom_site_fract_y
_atom_site_fract_z
Si Si1 0.750000 0.500000 0.856417
Si Si2 0.616968 0.103939 0.327520
Si Si3 0.319826 0.773448 0.951690
Si Si4 0.982238 0.500917 0.661904
Si Si5 0.180893 0.750000 0.750000
O O1 0.728252 0.716882 0.908352
O O2 0.789718 0.575364 0.801630
O O3 0.607461 0.250000 0.250000
O O4 0.638175 0.277061 0.393319
O O5 0.570347 0.986779 0.350657
O O6 0.651783 0.890112 0.312639
O O7 0.323020 0.525641 0.000547
O O8 0.000000 0.250000 0.621826
O O9 0.000000 0.501656 0.750000
O O10 0.000000 0.750000 0.621035
#
# Coordination Sequence:
#
# PCOD8282222 Si02
#       5
#     8  16  16  16   8
#     4  12  24  44  70  98 142 188 250 298 356 412
#     4  12  24  44  72 104 139 180 236 299 351 416
#     4  12  28  48  68  99 144 196 238 287 355 428
#     4  10  20  36  65 106 133 166 214 287 344 414
#     4  12  24  42  69 110 138 172 245 318 354 392
#
# _framework density 22.484736000000002
#
# number of rings (size 3 to 8) (size 9 to 14) (size 15 to 20)
#    0.000    0.500    5.000    5.250    0.000    2.000 
#    0.000    0.000    0.000    4.500    0.000    0.000 
#    0.000    0.000    0.000    0.000    0.000    0.000 
#
# Total GULP energy -396660.173615 kJ/mol
# GULP energy per Si atom -12395.630425 kJ/mol
# Density = 2.243356 g / cm^3
# Si number density = 22.484736 Si / 1000 Ang^3
#
#
#
# Elastic Constant Matrix: (Units=GPa)
#
#
# Indices 1 2 3 4 5 6 
#
# 1 197.9776 74.7024 47.9252 0.0000 0.0000 0.0000
# 2 74.7024 186.5327 46.6859 0.0000 0.0000 0.0000
# 3 47.9252 46.6859 77.2610 0.0000 0.0000 0.0000
# 4 0.0000 0.0000 0.0000 20.6987 0.0000 0.0000
# 5 0.0000 0.0000 0.0000 0.0000 28.5806 0.0000
# 6 0.0000 0.0000 0.0000 0.0000 0.0000 66.1579
#
#
#
# Elastic Compliance Matrix: (Units=1/GPa)
#
#
# Indices 1 2 3 4 5 6 
#
# 1 0.006450 -0.001864 -0.002875 0.000000 0.000000 0.000000
# 2 -0.001864 0.006855 -0.002986 0.000000 0.000000 0.000000
# 3 -0.002875 -0.002986 0.016531 0.000000 0.000000 0.000000
# 4 0.000000 0.000000 0.000000 0.048312 0.000000 0.000000
# 5 0.000000 0.000000 0.000000 0.000000 0.034989 0.000000
# 6 0.000000 0.000000 0.000000 0.000000 0.000000 0.015115
#
#
# Mechanical properties :
#
#
# Convention : Reuss Voigt Hill
#
# Bulk Modulus (GPa) = 69.50958 88.93316 79.22137
# Shear Modulus (GPa) = 33.67074 42.58462 38.12768
#
# Velocity S-wave (km/s) = 3.87394 4.35666 4.12237
# Velocity P-wave (km/s) = 7.14081 8.05890 7.61370
#
# Compressibility (1/GPa) = 0.01438651
#
# Stress axis : x y z
#
# Youngs Moduli (GPa) = 155.03333 145.88577 60.49306
#
# Poissons Ratio (x) = 0.27188 0.17392
# Poissons Ratio (y) = 0.28892 0.18063
# Poissons Ratio (z) = 0.44572 0.43562
#
# Static dielectric constant tensor:
#      x y z
#    x 4.322380 0.000000 0.000000 
#    y 0.000000 4.690830 0.000000 
#    z 0.000000 0.000000 4.049740 
# 
# 
# High freq. dielectric constant tensor:
#      x y z
#    x 1.900180 0.000000 0.000000 
#    y 0.000000 1.901680 0.000000 
#    z 0.000000 0.000000 1.853450 
# 
# From -- ./inp_files/41479.got.cif
#   From: 2010.03.12/outbox.cif.g09.slc.cpg/sg68_21_cif.got.tgz:41479.got - 2010.04.10 23:14:56.
