data_PCOD8282346
_publ_section_title
;
Structure prediction by ZEFSAII (Michael W. Deem and Ramdas Pophale) SiO2 
 PCOD8282346
Probable space group: C C C A
;
_chemical_formula_sum "Si O2"
_cell_formula_units_Z 64
_cell_length_a 12.973287
_cell_length_b 11.338365
_cell_length_c 18.964258
_cell_angle_alpha 90.000000
_cell_angle_beta 90.000000
_cell_angle_gamma 90.000000
_cell_volume 2789.563902
_symmetry_space_group_name_H-M "C C C A"
_symmetry_group_IT_number 68
_space_group.IT_coordinate_system_code '2'
_symmetry_cell_setting 'orthorhombic'
loop_
_space_group_symop_operation_xyz
x,y,z
-x,1/2-y,z
x,1/2-y,1/2-z
-x,y,1/2-z
-x,-y,-z
x,1/2+y,-z
-x,1/2+y,1/2+z
x,-y,1/2+z
1/2+x,1/2+y,z
1/2-x,-y,z
1/2+x,-y,1/2-z
1/2-x,1/2+y,1/2-z
1/2-x,1/2-y,-z
1/2+x,y,-z
1/2-x,y,1/2+z
1/2+x,1/2-y,1/2+z
loop_
_atom_site_type_symbol
_atom_site_label
_atom_site_fract_x
_atom_site_fract_y
_atom_site_fract_z
Si Si1 0.734900 0.360578 0.617652
Si Si2 0.000000 0.049995 0.750000
Si Si3 0.584908 0.844623 0.978676
Si Si4 0.667235 0.750000 0.750000
Si Si5 0.482474 0.429783 0.894691
O O1 0.750000 0.500000 0.637054
O O2 0.799264 0.317645 0.548451
O O3 0.762535 0.273073 0.681832
O O4 0.614449 0.338632 0.599782
O O5 0.900338 0.132023 0.743477
O O6 0.006623 0.959258 0.814481
O O7 0.500000 0.750000 0.956188
O O8 0.551339 0.953496 0.932568
O O9 0.579341 0.873594 0.062628
#
# Coordination Sequence:
#
# PCOD8282346 Si02
#       5
#    16   8  16   8  16
#     4  10  20  39  63  95 131 159 220 273 319 384
#     4  11  20  38  67  94 124 175 226 264 321 396
#     4  10  20  40  64  89 123 178 209 263 326 384
#     4  11  20  36  70  93 122 176 220 265 324 399
#     4  10  22  39  64  91 135 165 213 279 322 378
#
# _framework density 22.942655999999999
#
# number of rings (size 3 to 8) (size 9 to 14) (size 15 to 20)
#    0.000    1.750    5.000    1.500    0.000    1.000 
#    4.500    5.000    5.500    0.000    0.000    0.000 
#    0.000    0.000    0.000    0.000    0.000    0.000 
#
# Total GULP energy -396460.116196 kJ/mol
# GULP energy per Si atom -12389.378631 kJ/mol
# Density = 2.289044 g / cm^3
# Si number density = 22.942656 Si / 1000 Ang^3
#
#
#
# Elastic Constant Matrix: (Units=GPa)
#
#
# Indices 1 2 3 4 5 6 
#
# 1 82.6989 22.4611 89.3283 0.0000 0.0000 0.0000
# 2 22.4611 63.9846 53.9021 0.0000 0.0000 0.0000
# 3 89.3283 53.9021 209.0228 0.0000 0.0000 0.0000
# 4 0.0000 0.0000 0.0000 42.6382 0.0000 0.0000
# 5 0.0000 0.0000 0.0000 0.0000 41.5320 0.0000
# 6 0.0000 0.0000 0.0000 0.0000 0.0000 12.2169
#
#
#
# Elastic Compliance Matrix: (Units=1/GPa)
#
#
# Indices 1 2 3 4 5 6 
#
# 1 0.022463 0.000258 -0.009666 0.000000 0.000000 0.000000
# 2 0.000258 0.019969 -0.005260 0.000000 0.000000 0.000000
# 3 -0.009666 -0.005260 0.010272 0.000000 0.000000 0.000000
# 4 0.000000 0.000000 0.000000 0.023453 0.000000 0.000000
# 5 0.000000 0.000000 0.000000 0.000000 0.024078 0.000000
# 6 0.000000 0.000000 0.000000 0.000000 0.000000 0.081854
#
#
# Mechanical properties :
#
#
# Convention : Reuss Voigt Hill
#
# Bulk Modulus (GPa) = 42.79489 76.34324 59.56907
# Shear Modulus (GPa) = 22.80863 31.94507 27.37685
#
# Velocity S-wave (km/s) = 3.15645 3.73552 3.45813
# Velocity P-wave (km/s) = 5.65488 7.20787 6.47808
#
# Compressibility (1/GPa) = 0.02336728
#
# Stress axis : x y z
#
# Youngs Moduli (GPa) = 44.51682 50.07711 97.35584
#
# Poissons Ratio (x) = -0.01291 0.94109
# Poissons Ratio (y) = -0.01147 0.51206
# Poissons Ratio (z) = 0.43032 0.26339
#
# Static dielectric constant tensor:
#      x y z
#    x 4.969390 0.000000 0.000000 
#    y 0.000000 3.816630 0.000000 
#    z 0.000000 0.000000 4.528810 
# 
# 
# High freq. dielectric constant tensor:
#      x y z
#    x 1.897310 0.000000 0.000000 
#    y 0.000000 1.909330 0.000000 
#    z 0.000000 0.000000 1.909960 
# 
# From -- ./inp_files/30507.got.cif
#   From: 2010.03.12/outbox.cif.g09.slc.cpg/sg68_16_cif.got.tgz:30507.got - 2010.04.10 23:14:56.
