data_PCOD8282581
_publ_section_title
;
Structure prediction by ZEFSAII (Michael W. Deem and Ramdas Pophale) SiO2 
 PCOD8282581
Probable space group: C C C A
;
_chemical_formula_sum "Si O2"
_cell_formula_units_Z 80
_cell_length_a 16.323801
_cell_length_b 10.829565
_cell_length_c 23.570041
_cell_angle_alpha 90.000000
_cell_angle_beta 90.000000
_cell_angle_gamma 90.000000
_cell_volume 4166.703928
_symmetry_space_group_name_H-M "C C C A"
_symmetry_group_IT_number 68
_space_group.IT_coordinate_system_code '2'
_symmetry_cell_setting 'orthorhombic'
loop_
_space_group_symop_operation_xyz
x,y,z
-x,1/2-y,z
x,1/2-y,1/2-z
-x,y,1/2-z
-x,-y,-z
x,1/2+y,-z
-x,1/2+y,1/2+z
x,-y,1/2+z
1/2+x,1/2+y,z
1/2-x,-y,z
1/2+x,-y,1/2-z
1/2-x,1/2+y,1/2-z
1/2-x,1/2-y,-z
1/2+x,y,-z
1/2-x,y,1/2+z
1/2+x,1/2-y,1/2+z
loop_
_atom_site_type_symbol
_atom_site_label
_atom_site_fract_x
_atom_site_fract_y
_atom_site_fract_z
Si Si1 0.032043 0.880573 0.033891
Si Si2 0.952592 0.364799 0.662413
Si Si3 0.262114 0.863360 0.661526
Si Si4 0.357566 0.750000 0.250000
Si Si5 0.723542 0.629910 0.533036
Si Si6 0.500000 0.435413 0.750000
O O1 0.009334 0.890698 0.100143
O O2 0.127831 0.875053 0.032145
O O3 0.000000 0.750000 0.007990
O O4 0.000000 0.000000 0.000000
O O5 0.857244 0.326904 0.665806
O O6 0.000000 0.250000 0.690216
O O7 0.972420 0.487504 0.696084
O O8 0.201981 0.773654 0.696335
O O9 0.236054 0.860256 0.595524
O O10 0.250000 0.000000 0.686759
O O11 0.418902 0.640220 0.232350
O O12 0.750000 0.500000 0.504188
O O13 0.750000 0.750000 0.500000
#
# Coordination Sequence:
#
# PCOD8282581 Si02
#       6
#    16  16  16   8  16   8
#     4  10  21  39  60  90 121 156 200 243 293 356
#     4  10  22  39  61  86 119 158 198 240 295 355
#     4  10  21  40  59  84 121 157 195 244 302 349
#     4  11  24  38  59  88 116 150 201 248 298 361
#     4  10  21  38  62  87 120 159 197 244 298 355
#     4  11  23  40  56  88 117 149 198 250 300 351
#
# _framework density 19.199828
#
# number of rings (size 3 to 8) (size 9 to 14) (size 15 to 20)
#    0.000    1.800    2.000    1.500    2.800    1.600 
#    3.600    1.000    0.000    0.000    0.000    0.000 
#    0.000    0.000    0.000    0.000    0.000    0.000 
#
# Total GULP energy -495794.716749 kJ/mol
# GULP energy per Si atom -12394.867919 kJ/mol
# Density = 1.915613 g / cm^3
# Si number density = 19.199828 Si / 1000 Ang^3
#
#
#
# Elastic Constant Matrix: (Units=GPa)
#
#
# Indices 1 2 3 4 5 6 
#
# 1 88.8077 49.7538 36.8682 0.0000 0.0000 0.0000
# 2 49.7538 159.3663 59.4534 0.0000 0.0000 0.0000
# 3 36.8682 59.4534 79.6045 0.0000 0.0000 0.0000
# 4 0.0000 0.0000 0.0000 34.8640 0.0000 0.0000
# 5 0.0000 0.0000 0.0000 0.0000 35.3579 0.0000
# 6 0.0000 0.0000 0.0000 0.0000 0.0000 37.9680
#
#
#
# Elastic Compliance Matrix: (Units=1/GPa)
#
#
# Indices 1 2 3 4 5 6 
#
# 1 0.014828 -0.002866 -0.004727 0.000000 0.000000 0.000000
# 2 -0.002866 0.009252 -0.005583 0.000000 0.000000 0.000000
# 3 -0.004727 -0.005583 0.018921 0.000000 0.000000 0.000000
# 4 0.000000 0.000000 0.000000 0.028683 0.000000 0.000000
# 5 0.000000 0.000000 0.000000 0.000000 0.028282 0.000000
# 6 0.000000 0.000000 0.000000 0.000000 0.000000 0.026338
#
#
# Mechanical properties :
#
#
# Convention : Reuss Voigt Hill
#
# Bulk Modulus (GPa) = 60.06069 68.88105 64.47087
# Shear Modulus (GPa) = 31.60421 33.75153 32.67787
#
# Velocity S-wave (km/s) = 4.06158 4.19729 4.12999
# Velocity P-wave (km/s) = 7.30377 7.70996 7.50961
#
# Compressibility (1/GPa) = 0.01664982
#
# Stress axis : x y z
#
# Youngs Moduli (GPa) = 67.43843 108.08111 52.85093
#
# Poissons Ratio (x) = 0.30974 0.24984
# Poissons Ratio (y) = 0.19327 0.29506
# Poissons Ratio (z) = 0.31880 0.60341
#
# Static dielectric constant tensor:
#      x y z
#    x 3.623820 0.000000 0.000000 
#    y 0.000000 3.783140 0.000000 
#    z 0.000000 0.000000 3.647400 
# 
# 
# High freq. dielectric constant tensor:
#      x y z
#    x 1.761680 0.000000 0.000000 
#    y 0.000000 1.755470 0.000000 
#    z 0.000000 0.000000 1.734340 
# 
# From -- ./inp_files/51325.got.cif
#   From: 2010.03.12/outbox.cif.g09.slc.cpg/sg68_26_cif.got.tgz:51325.got - 2010.04.10 23:14:56.
