data_PCOD8282490
_publ_section_title
;
Structure prediction by ZEFSAII (Michael W. Deem and Ramdas Pophale) SiO2 
 PCOD8282490
Probable space group: C C C A
;
_chemical_formula_sum "Si O2"
_cell_formula_units_Z 72
_cell_length_a 16.447218
_cell_length_b 8.306102
_cell_length_c 26.178247
_cell_angle_alpha 90.000000
_cell_angle_beta 90.000000
_cell_angle_gamma 90.000000
_cell_volume 3576.269756
_symmetry_space_group_name_H-M "C C C A"
_symmetry_group_IT_number 68
_space_group.IT_coordinate_system_code '2'
_symmetry_cell_setting 'orthorhombic'
loop_
_space_group_symop_operation_xyz
x,y,z
-x,1/2-y,z
x,1/2-y,1/2-z
-x,y,1/2-z
-x,-y,-z
x,1/2+y,-z
-x,1/2+y,1/2+z
x,-y,1/2+z
1/2+x,1/2+y,z
1/2-x,-y,z
1/2+x,-y,1/2-z
1/2-x,1/2+y,1/2-z
1/2-x,1/2-y,-z
1/2+x,y,-z
1/2-x,y,1/2+z
1/2+x,1/2-y,1/2+z
loop_
_atom_site_type_symbol
_atom_site_label
_atom_site_fract_x
_atom_site_fract_y
_atom_site_fract_z
Si Si1 0.860024 0.250000 0.250000
Si Si2 0.000000 0.750000 0.381254
Si Si3 0.435617 0.075421 0.289651
Si Si4 0.250000 0.000000 0.492880
Si Si5 0.771461 0.312440 0.824906
Si Si6 0.668106 0.260889 0.068807
O O1 0.915739 0.395144 0.270096
O O2 0.798442 0.291894 0.203400
O O3 0.978156 0.592509 0.345829
O O4 0.925995 0.789134 0.418745
O O5 0.500000 0.148720 0.250000
O O6 0.355636 0.189082 0.292648
O O7 0.314958 0.088926 0.456895
O O8 0.194725 0.108235 0.528464
O O9 0.750000 0.500000 0.831846
O O10 0.780150 0.225937 0.879160
#
# Coordination Sequence:
#
# PCOD8282490 Si02
#       6
#     8   8  16   8  16  16
#     4  10  21  36  59  84 124 166 204 242 287 368
#     4  10  23  38  62  84 126 160 204 251 320 364
#     4  10  21  36  55  85 120 164 198 246 293 357
#     4  10  22  40  66  88 120 152 216 262 316 364
#     4   9  19  36  58  85 117 157 199 241 296 360
#     4  10  21  40  63  91 118 161 200 265 308 371
#
# _framework density 20.132709999999999
#
# number of rings (size 3 to 8) (size 9 to 14) (size 15 to 20)
#    0.000    2.222    1.111    0.667    6.222    2.667 
#    2.000    0.000    0.000    0.000    0.000    0.000 
#    0.000    0.000    0.000    0.000    0.000    0.000 
#
# Total GULP energy -445971.672065 kJ/mol
# GULP energy per Si atom -12388.102002 kJ/mol
# Density = 2.008689 g / cm^3
# Si number density = 20.132710 Si / 1000 Ang^3
#
#
#
# Elastic Constant Matrix: (Units=GPa)
#
#
# Indices 1 2 3 4 5 6 
#
# 1 141.3591 45.3540 66.2665 0.0000 0.0000 0.0000
# 2 45.3540 86.6367 45.5785 0.0000 0.0000 0.0000
# 3 66.2665 45.5785 119.3670 0.0000 0.0000 0.0000
# 4 0.0000 0.0000 0.0000 26.8570 0.0000 0.0000
# 5 0.0000 0.0000 0.0000 0.0000 51.1511 0.0000
# 6 0.0000 0.0000 0.0000 0.0000 0.0000 14.3625
#
#
#
# Elastic Compliance Matrix: (Units=1/GPa)
#
#
# Indices 1 2 3 4 5 6 
#
# 1 0.010125 -0.002932 -0.004501 0.000000 0.000000 0.000000
# 2 -0.002932 0.015293 -0.004212 0.000000 0.000000 0.000000
# 3 -0.004501 -0.004212 0.012485 0.000000 0.000000 0.000000
# 4 0.000000 0.000000 0.000000 0.037234 0.000000 0.000000
# 5 0.000000 0.000000 0.000000 0.000000 0.019550 0.000000
# 6 0.000000 0.000000 0.000000 0.000000 0.000000 0.069626
#
#
# Mechanical properties :
#
#
# Convention : Reuss Voigt Hill
#
# Bulk Modulus (GPa) = 68.43506 73.52900 70.98203
# Shear Modulus (GPa) = 25.97751 31.15170 28.56461
#
# Velocity S-wave (km/s) = 3.59599 3.93786 3.77080
# Velocity P-wave (km/s) = 7.16291 7.56817 7.36833
#
# Compressibility (1/GPa) = 0.01461239
#
# Stress axis : x y z
#
# Youngs Moduli (GPa) = 98.76416 65.38844 80.09921
#
# Poissons Ratio (x) = 0.19175 0.36055
# Poissons Ratio (y) = 0.28962 0.33734
# Poissons Ratio (z) = 0.44456 0.27539
#
# Static dielectric constant tensor:
#      x y z
#    x 4.043040 0.000000 0.000000 
#    y 0.000000 3.494790 0.000000 
#    z 0.000000 0.000000 3.780600 
# 
# 
# High freq. dielectric constant tensor:
#      x y z
#    x 1.796540 0.000000 0.000000 
#    y 0.000000 1.767970 0.000000 
#    z 0.000000 0.000000 1.793210 
# 
# From -- ./inp_files/42974.got.cif
#   From: 2010.03.12/outbox.cif.g09.slc.cpg/sg68_22_cif.got.tgz:42974.got - 2010.04.10 23:14:56.
