data_PCOD8282371
_publ_section_title
;
Structure prediction by ZEFSAII (Michael W. Deem and Ramdas Pophale) SiO2 
 PCOD8282371
Probable space group: C C C A
;
_chemical_formula_sum "Si O2"
_cell_formula_units_Z 92
_cell_length_a 9.094366
_cell_length_b 17.789871
_cell_length_c 28.883071
_cell_angle_alpha 90.000000
_cell_angle_beta 90.000000
_cell_angle_gamma 90.000000
_cell_volume 4672.922679
_symmetry_space_group_name_H-M "C C C A"
_symmetry_group_IT_number 68
_space_group.IT_coordinate_system_code '2'
_symmetry_cell_setting 'orthorhombic'
loop_
_space_group_symop_operation_xyz
x,y,z
-x,1/2-y,z
x,1/2-y,1/2-z
-x,y,1/2-z
-x,-y,-z
x,1/2+y,-z
-x,1/2+y,1/2+z
x,-y,1/2+z
1/2+x,1/2+y,z
1/2-x,-y,z
1/2+x,-y,1/2-z
1/2-x,1/2+y,1/2-z
1/2-x,1/2-y,-z
1/2+x,y,-z
1/2-x,y,1/2+z
1/2+x,1/2-y,1/2+z
loop_
_atom_site_type_symbol
_atom_site_label
_atom_site_fract_x
_atom_site_fract_y
_atom_site_fract_z
Si Si1 0.824268 0.628818 0.050831
Si Si2 0.155318 0.429528 0.119195
Si Si3 0.608518 0.854084 0.673754
Si Si4 0.398567 0.531382 0.860926
Si Si5 0.486258 0.159808 0.959630
Si Si6 0.500000 0.250000 0.402678
Si Si7 0.000000 0.750000 0.250000
O O1 0.873250 0.566280 0.087997
O O2 0.649070 0.625285 0.045035
O O3 0.874566 0.711218 0.066898
O O4 0.910361 0.617542 0.002845
O O5 0.250000 0.500000 0.098092
O O6 0.239257 0.398244 0.165219
O O7 0.120676 0.363182 0.082815
O O8 0.999663 0.458808 0.135921
O O9 0.467765 0.909550 0.675403
O O10 0.594266 0.806592 0.627438
O O11 0.607954 0.801678 0.719091
O O12 0.250000 0.500000 0.838543
O O13 0.500000 0.250000 0.963980
#
# Coordination Sequence:
#
# PCOD8282371 Si02
#       7
#    16  16  16  16  16   8   4
#     4  11  23  34  55  82 124 171 224 273 306 350
#     4  10  22  39  60  88 123 167 214 251 312 373
#     4   9  20  37  69  89 119 155 193 250 309 391
#     4  10  20  40  57  86 123 171 208 248 302 364
#     4  12  24  35  55  86 125 171 227 277 315 348
#     4   9  18  37  56  84 120 162 210 249 314 367
#     4  10  20  44  72 106 120 144 186 246 332 382
#
# _framework density 19.687892999999999
#
# number of rings (size 3 to 8) (size 9 to 14) (size 15 to 20)
#    0.000    1.739    2.609    1.565    7.304    1.391 
#    0.000    2.609    0.000    1.043    0.000    0.000 
#    0.000    0.000    0.000    0.000    0.000    0.000 
#
# Total GULP energy -570089.686645 kJ/mol
# GULP energy per Si atom -12393.254057 kJ/mol
# Density = 1.964308 g / cm^3
# Si number density = 19.687893 Si / 1000 Ang^3
#
#
#
# Elastic Constant Matrix: (Units=GPa)
#
#
# Indices 1 2 3 4 5 6 
#
# 1 146.1777 44.8382 45.4475 0.0000 0.0000 0.0000
# 2 44.8382 84.8921 35.4846 0.0000 0.0000 0.0000
# 3 45.4475 35.4846 85.2757 0.0000 0.0000 0.0000
# 4 0.0000 0.0000 0.0000 12.9868 0.0000 0.0000
# 5 0.0000 0.0000 0.0000 0.0000 15.3215 0.0000
# 6 0.0000 0.0000 0.0000 0.0000 0.0000 34.7111
#
#
#
# Elastic Compliance Matrix: (Units=1/GPa)
#
#
# Indices 1 2 3 4 5 6 
#
# 1 0.008899 -0.003290 -0.003374 0.000000 0.000000 0.000000
# 2 -0.003290 0.015476 -0.004686 0.000000 0.000000 0.000000
# 3 -0.003374 -0.004686 0.015475 0.000000 0.000000 0.000000
# 4 0.000000 0.000000 0.000000 0.077001 0.000000 0.000000
# 5 0.000000 0.000000 0.000000 0.000000 0.065268 0.000000
# 6 0.000000 0.000000 0.000000 0.000000 0.000000 0.028809
#
#
# Mechanical properties :
#
#
# Convention : Reuss Voigt Hill
#
# Bulk Modulus (GPa) = 58.31022 63.09844 60.70433
# Shear Modulus (GPa) = 20.89033 25.30892 23.09963
#
# Velocity S-wave (km/s) = 3.26095 3.58929 3.42905
# Velocity P-wave (km/s) = 6.62269 7.02113 6.82482
#
# Compressibility (1/GPa) = 0.01714965
#
# Stress axis : x y z
#
# Youngs Moduli (GPa) = 112.37106 64.61469 64.62123
#
# Poissons Ratio (x) = 0.21259 0.21801
# Poissons Ratio (y) = 0.36971 0.30285
# Poissons Ratio (z) = 0.37910 0.30282
#
# Static dielectric constant tensor:
#      x y z
#    x 3.779270 0.000000 0.000000 
#    y 0.000000 3.894060 0.000000 
#    z 0.000000 0.000000 3.270780 
# 
# 
# High freq. dielectric constant tensor:
#      x y z
#    x 1.775230 0.000000 0.000000 
#    y 0.000000 1.779350 0.000000 
#    z 0.000000 0.000000 1.730160 
# 
# From -- ./inp_files/49353.got.cif
#   From: 2010.03.12/outbox.cif.g09.slc.cpg/sg68_25_cif.got.tgz:49353.got - 2010.04.10 23:14:56.
