data_PCOD8282407
_publ_section_title
;
Structure prediction by ZEFSAII (Michael W. Deem and Ramdas Pophale) SiO2 
 PCOD8282407
Probable space group: C C C A
;
_chemical_formula_sum "Si O2"
_cell_formula_units_Z 88
_cell_length_a 12.039355
_cell_length_b 21.753152
_cell_length_c 13.914870
_cell_angle_alpha 90.000000
_cell_angle_beta 90.000000
_cell_angle_gamma 90.000000
_cell_volume 3644.219841
_symmetry_space_group_name_H-M "C C C A"
_symmetry_group_IT_number 68
_space_group.IT_coordinate_system_code '2'
_symmetry_cell_setting 'orthorhombic'
loop_
_space_group_symop_operation_xyz
x,y,z
-x,1/2-y,z
x,1/2-y,1/2-z
-x,y,1/2-z
-x,-y,-z
x,1/2+y,-z
-x,1/2+y,1/2+z
x,-y,1/2+z
1/2+x,1/2+y,z
1/2-x,-y,z
1/2+x,-y,1/2-z
1/2-x,1/2+y,1/2-z
1/2-x,1/2-y,-z
1/2+x,y,-z
1/2-x,y,1/2+z
1/2+x,1/2-y,1/2+z
loop_
_atom_site_type_symbol
_atom_site_label
_atom_site_fract_x
_atom_site_fract_y
_atom_site_fract_z
Si Si1 0.931091 0.089579 0.086042
Si Si2 0.126433 0.472906 0.685480
Si Si3 0.297930 0.149834 0.386037
Si Si4 0.170284 0.944689 0.109398
Si Si5 0.759210 0.250000 0.250000
Si Si6 0.842047 0.158923 0.398867
O O1 0.828379 0.127417 0.128882
O O2 0.036903 0.130437 0.107091
O O3 0.952208 0.024236 0.138122
O O4 0.913248 0.075326 0.973732
O O5 0.250000 0.500000 0.683875
O O6 0.120865 0.408829 0.626877
O O7 0.094455 0.461188 0.797726
O O8 0.320641 0.201816 0.305756
O O9 0.316800 0.178294 0.491372
O O10 0.250676 0.889035 0.139542
O O11 0.250000 0.000000 0.072737
O O12 0.837059 0.218192 0.330395
#
# Coordination Sequence:
#
# PCOD8282407 Si02
#       6
#    16  16  16  16   8  16
#     4  10  22  40  66 103 138 169 222 286 346 410
#     4   9  18  39  63  96 135 174 215 275 342 404
#     4  10  22  42  68  96 134 177 229 280 331 406
#     4  10  20  40  66  95 141 176 220 279 343 414
#     4  12  24  45  68  97 136 188 234 279 324 403
#     4  11  24  42  69  99 134 181 225 279 345 398
#
# _framework density 24.147829999999999
#
# number of rings (size 3 to 8) (size 9 to 14) (size 15 to 20)
#    0.000    1.818    1.818    3.273    0.000    5.091 
#    0.000    8.182    0.000    4.364    0.000    0.000 
#    0.000    0.000    0.000    0.000    0.000    0.000 
#
# Total GULP energy -545783.520551 kJ/mol
# GULP energy per Si atom -12404.170922 kJ/mol
# Density = 2.409287 g / cm^3
# Si number density = 24.147830 Si / 1000 Ang^3
#
#
#
# Elastic Constant Matrix: (Units=GPa)
#
#
# Indices 1 2 3 4 5 6 
#
# 1 53.8298 29.5996 13.1008 0.0000 0.0000 0.0000
# 2 29.5996 143.5047 65.6938 0.0000 0.0000 0.0000
# 3 13.1008 65.6938 116.1058 0.0000 0.0000 0.0000
# 4 0.0000 0.0000 0.0000 61.3193 0.0000 0.0000
# 5 0.0000 0.0000 0.0000 0.0000 22.9066 0.0000
# 6 0.0000 0.0000 0.0000 0.0000 0.0000 32.5838
#
#
#
# Elastic Compliance Matrix: (Units=1/GPa)
#
#
# Indices 1 2 3 4 5 6 
#
# 1 0.020955 -0.004372 0.000109 0.000000 0.000000 0.000000
# 2 -0.004372 0.010317 -0.005344 0.000000 0.000000 0.000000
# 3 0.000109 -0.005344 0.011624 0.000000 0.000000 0.000000
# 4 0.000000 0.000000 0.000000 0.016308 0.000000 0.000000
# 5 0.000000 0.000000 0.000000 0.000000 0.043656 0.000000
# 6 0.000000 0.000000 0.000000 0.000000 0.000000 0.030690
#
#
# Mechanical properties :
#
#
# Convention : Reuss Voigt Hill
#
# Bulk Modulus (GPa) = 42.22629 58.91430 50.57029
# Shear Modulus (GPa) = 31.12232 37.03167 34.07699
#
# Velocity S-wave (km/s) = 3.59391 3.92029 3.76065
# Velocity P-wave (km/s) = 5.89459 6.70387 6.31221
#
# Compressibility (1/GPa) = 0.02368193
#
# Stress axis : x y z
#
# Youngs Moduli (GPa) = 47.72220 96.93141 86.02816
#
# Poissons Ratio (x) = 0.42381 -0.00942
# Poissons Ratio (y) = 0.20865 0.45972
# Poissons Ratio (z) = -0.00522 0.51799
#
# Static dielectric constant tensor:
#      x y z
#    x 3.991800 0.000000 0.000000 
#    y 0.000000 4.421670 0.000000 
#    z 0.000000 0.000000 4.534670 
# 
# 
# High freq. dielectric constant tensor:
#      x y z
#    x 1.943220 0.000000 0.000000 
#    y 0.000000 1.955140 0.000000 
#    z 0.000000 0.000000 1.978770 
# 
# From -- ./inp_files/22248.got.cif
#   From: 2010.03.12/outbox.cif.g09.slc.cpg/sg68_12_cif.got.tgz:22248.got - 2010.04.10 23:14:56.
