data_PCOD8282489
_publ_section_title
;
Structure prediction by ZEFSAII (Michael W. Deem and Ramdas Pophale) SiO2 
 PCOD8282489
Probable space group: C C C A
;
_chemical_formula_sum "Si O2"
_cell_formula_units_Z 108
_cell_length_a 30.262443
_cell_length_b 5.121770
_cell_length_c 32.308792
_cell_angle_alpha 90.000000
_cell_angle_beta 90.000000
_cell_angle_gamma 90.000000
_cell_volume 5007.774644
_symmetry_space_group_name_H-M "C C C A"
_symmetry_group_IT_number 68
_space_group.IT_coordinate_system_code '2'
_symmetry_cell_setting 'orthorhombic'
loop_
_space_group_symop_operation_xyz
x,y,z
-x,1/2-y,z
x,1/2-y,1/2-z
-x,y,1/2-z
-x,-y,-z
x,1/2+y,-z
-x,1/2+y,1/2+z
x,-y,1/2+z
1/2+x,1/2+y,z
1/2-x,-y,z
1/2+x,-y,1/2-z
1/2-x,1/2+y,1/2-z
1/2-x,1/2-y,-z
1/2+x,y,-z
1/2-x,y,1/2+z
1/2+x,1/2-y,1/2+z
loop_
_atom_site_type_symbol
_atom_site_label
_atom_site_fract_x
_atom_site_fract_y
_atom_site_fract_z
Si Si1 0.132968 0.681952 0.092468
Si Si2 0.074581 0.867439 0.688057
Si Si3 0.132306 0.863518 0.313671
Si Si4 0.577158 0.691322 0.092626
Si Si5 0.770671 0.246232 0.704046
Si Si6 0.198220 0.513465 0.024398
Si Si7 0.500000 0.750000 0.029107
Si Si8 0.500000 0.750000 0.250000
O O1 0.147987 0.636105 0.139139
O O2 0.094416 0.479331 0.082696
O O3 0.175780 0.613035 0.066025
O O4 0.114928 0.973862 0.084497
O O5 0.109188 0.636069 0.700095
O O6 0.059661 0.832043 0.640088
O O7 0.032364 0.899704 0.718205
O O8 0.096922 0.143007 0.695382
O O9 0.176826 0.786739 0.290039
O O10 0.539279 0.668364 0.059332
O O11 0.749611 0.250000 0.750000
O O12 0.750000 0.500000 0.680786
O O13 0.750000 0.000000 0.679601
O O14 0.250000 0.500000 0.032766
O O15 0.183741 0.723262 0.989209
O O16 0.500000 0.500000 0.000000
#
# Coordination Sequence:
#
# PCOD8282489 Si02
#       8
#    16  16  16  16  16  16   8   4
#     4  10  21  38  62  83 112 161 195 229 298 355
#     4  10  24  40  63  89 121 158 195 251 306 360
#     4  10  22  41  60  88 122 155 197 248 297 344
#     4  10  22  42  58  84 124 151 190 250 298 346
#     4  10  21  36  58  86 118 156 193 234 291 344
#     4  10  21  36  55  85 120 153 195 248 295 337
#     4  12  25  38  60  89 114 151 198 242 295 356
#     4  12  26  42  68  98 112 158 212 234 310 386
#
# _framework density 21.566466999999999
#
# number of rings (size 3 to 8) (size 9 to 14) (size 15 to 20)
#    0.000    1.778    0.000    3.111    2.074    5.333 
#    0.000    6.667    0.000    0.000    0.000    0.000 
#    0.000    0.000    0.000    0.000    0.000    0.000 
#
# Total GULP energy -669006.272555 kJ/mol
# GULP energy per Si atom -12389.005047 kJ/mol
# Density = 2.151738 g / cm^3
# Si number density = 21.566467 Si / 1000 Ang^3
#
#
#
# Elastic Constant Matrix: (Units=GPa)
#
#
# Indices 1 2 3 4 5 6 
#
# 1 83.1392 26.1190 55.7238 0.0000 0.0000 0.0000
# 2 26.1190 121.2522 41.7720 0.0000 0.0000 0.0000
# 3 55.7238 41.7720 89.1616 0.0000 0.0000 0.0000
# 4 0.0000 0.0000 0.0000 18.9997 0.0000 0.0000
# 5 0.0000 0.0000 0.0000 0.0000 36.4269 0.0000
# 6 0.0000 0.0000 0.0000 0.0000 0.0000 19.7119
#
#
#
# Elastic Compliance Matrix: (Units=1/GPa)
#
#
# Indices 1 2 3 4 5 6 
#
# 1 0.020698 -0.000003 -0.012935 0.000000 0.000000 0.000000
# 2 -0.000003 0.009835 -0.004606 0.000000 0.000000 0.000000
# 3 -0.012935 -0.004606 0.021457 0.000000 0.000000 0.000000
# 4 0.000000 0.000000 0.000000 0.052633 0.000000 0.000000
# 5 0.000000 0.000000 0.000000 0.000000 0.027452 0.000000
# 6 0.000000 0.000000 0.000000 0.000000 0.000000 0.050731
#
#
# Mechanical properties :
#
#
# Convention : Reuss Voigt Hill
#
# Bulk Modulus (GPa) = 59.15807 60.08696 59.62252
# Shear Modulus (GPa) = 22.36870 26.35691 24.36280
#
# Velocity S-wave (km/s) = 3.22405 3.49968 3.36469
# Velocity P-wave (km/s) = 6.43035 6.65223 6.54223
#
# Compressibility (1/GPa) = 0.01690386
#
# Stress axis : x y z
#
# Youngs Moduli (GPa) = 48.31318 101.68208 46.60408
#
# Poissons Ratio (x) = 0.00026 0.60281
# Poissons Ratio (y) = 0.00012 0.21465
# Poissons Ratio (z) = 0.62492 0.46834
#
# Static dielectric constant tensor:
#      x y z
#    x 3.817700 0.000000 0.000000 
#    y 0.000000 4.211280 0.000000 
#    z 0.000000 0.000000 4.217270 
# 
# 
# High freq. dielectric constant tensor:
#      x y z
#    x 1.839810 0.000000 0.000000 
#    y 0.000000 1.865090 0.000000 
#    z 0.000000 0.000000 1.845030 
# 
# From -- ./inp_files/56322.got.cif
#   From: 2010.03.12/outbox.cif.g09.slc.cpg/sg68_29_cif.got.tgz:56322.got - 2010.04.10 23:14:56.
