data_PCOD8282431
_publ_section_title
;
Structure prediction by ZEFSAII (Michael W. Deem and Ramdas Pophale) SiO2 
 PCOD8282431
Probable space group: C C C A
;
_chemical_formula_sum "Si O2"
_cell_formula_units_Z 116
_cell_length_a 11.550035
_cell_length_b 28.824680
_cell_length_c 16.349777
_cell_angle_alpha 90.000000
_cell_angle_beta 90.000000
_cell_angle_gamma 90.000000
_cell_volume 5443.266885
_symmetry_space_group_name_H-M "C C C A"
_symmetry_group_IT_number 68
_space_group.IT_coordinate_system_code '2'
_symmetry_cell_setting 'orthorhombic'
loop_
_space_group_symop_operation_xyz
x,y,z
-x,1/2-y,z
x,1/2-y,1/2-z
-x,y,1/2-z
-x,-y,-z
x,1/2+y,-z
-x,1/2+y,1/2+z
x,-y,1/2+z
1/2+x,1/2+y,z
1/2-x,-y,z
1/2+x,-y,1/2-z
1/2-x,1/2+y,1/2-z
1/2-x,1/2-y,-z
1/2+x,y,-z
1/2-x,y,1/2+z
1/2+x,1/2-y,1/2+z
loop_
_atom_site_type_symbol
_atom_site_label
_atom_site_fract_x
_atom_site_fract_y
_atom_site_fract_z
Si Si1 0.693527 0.203169 0.474263
Si Si2 0.592118 0.316476 0.190742
Si Si3 0.231677 0.886559 0.294297
Si Si4 0.016615 0.402688 0.605079
Si Si5 0.719071 0.446791 0.144039
Si Si6 0.571305 0.172150 0.630447
Si Si7 0.127747 0.375754 0.445053
Si Si8 0.500000 0.250000 0.750000
O O1 0.750000 0.250000 0.500000
O O2 0.649340 0.213851 0.381294
O O3 0.592444 0.190830 0.538376
O O4 0.788294 0.162988 0.481992
O O5 0.500000 0.289391 0.250000
O O6 0.688620 0.341027 0.245796
O O7 0.522116 0.354506 0.141778
O O8 0.139839 0.912541 0.352975
O O9 0.261918 0.927270 0.231031
O O10 0.340640 0.868779 0.345563
O O11 0.034098 0.396330 0.508572
O O12 0.919018 0.440982 0.626778
O O13 0.750000 0.500000 0.136693
O O14 0.791410 0.418509 0.077868
O O15 0.444192 0.147852 0.629736
O O16 0.576773 0.215937 0.692671
#
# Coordination Sequence:
#
# PCOD8282431 Si02
#       8
#    16  16  16  16  16  16  16   4
#     4  12  24  41  70 102 140 184 240 290 343 422
#     4   9  19  41  69  90 132 183 230 280 345 407
#     4  10  21  42  69  94 132 182 219 277 354 416
#     4  10  20  42  71  94 131 180 221 280 347 418
#     4  11  24  44  70 100 132 174 233 292 353 423
#     4  12  25  43  66  98 138 189 226 282 357 409
#     4  12  22  44  69  98 138 179 224 285 356 416
#     4  12  28  40  60 100 148 180 240 292 332 414
#
# _framework density 21.310731000000001
#
# number of rings (size 3 to 8) (size 9 to 14) (size 15 to 20)
#    0.000    1.103    5.517    2.897    1.931    0.552 
#    4.966    0.690    6.069    0.000    0.000    0.000 
#    0.000    0.000    0.000    0.000    0.000    0.000 
#
# Total GULP energy -718847.759559 kJ/mol
# GULP energy per Si atom -12393.926889 kJ/mol
# Density = 2.126223 g / cm^3
# Si number density = 21.310731 Si / 1000 Ang^3
#
#
#
# Elastic Constant Matrix: (Units=GPa)
#
#
# Indices 1 2 3 4 5 6 
#
# 1 100.8467 47.5330 40.7527 0.0000 0.0000 0.0000
# 2 47.5330 130.5051 38.6490 0.0000 0.0000 0.0000
# 3 40.7527 38.6490 100.9570 0.0000 0.0000 0.0000
# 4 0.0000 0.0000 0.0000 12.7492 0.0000 0.0000
# 5 0.0000 0.0000 0.0000 0.0000 45.6057 0.0000
# 6 0.0000 0.0000 0.0000 0.0000 0.0000 20.6325
#
#
#
# Elastic Compliance Matrix: (Units=1/GPa)
#
#
# Indices 1 2 3 4 5 6 
#
# 1 0.013230 -0.003651 -0.003943 0.000000 0.000000 0.000000
# 2 -0.003651 0.009650 -0.002220 0.000000 0.000000 0.000000
# 3 -0.003943 -0.002220 0.012347 0.000000 0.000000 0.000000
# 4 0.000000 0.000000 0.000000 0.078436 0.000000 0.000000
# 5 0.000000 0.000000 0.000000 0.000000 0.021927 0.000000
# 6 0.000000 0.000000 0.000000 0.000000 0.000000 0.048467
#
#
# Mechanical properties :
#
#
# Convention : Reuss Voigt Hill
#
# Bulk Modulus (GPa) = 64.10965 65.13092 64.62028
# Shear Modulus (GPa) = 23.93652 29.48907 26.71280
#
# Velocity S-wave (km/s) = 3.35508 3.72394 3.54431
# Velocity P-wave (km/s) = 6.71992 7.00850 6.86573
#
# Compressibility (1/GPa) = 0.01559828
#
# Stress axis : x y z
#
# Youngs Moduli (GPa) = 75.58415 103.62763 80.99244
#
# Poissons Ratio (x) = 0.37836 0.31934
# Poissons Ratio (y) = 0.27597 0.17984
# Poissons Ratio (z) = 0.29802 0.23010
#
# Static dielectric constant tensor:
#      x y z
#    x 4.312130 0.000000 0.000000 
#    y 0.000000 3.488800 0.000000 
#    z 0.000000 0.000000 -6.044410 
# 
# 
# High freq. dielectric constant tensor:
#      x y z
#    x 1.843530 0.000000 0.000000 
#    y 0.000000 1.800250 0.000000 
#    z 0.000000 0.000000 1.852070 
# 
# From -- ./inp_files/30104.got.cif
#   From: 2010.03.12/outbox.cif.g09.slc.cpg/sg68_16_cif.got.tgz:30104.got - 2010.04.10 23:14:56.
