data_PCOD8282788
_publ_section_title
;
Structure prediction by ZEFSAII (Michael W. Deem and Ramdas Pophale) SiO2 
 PCOD8282788
Probable space group: C C C A
;
_chemical_formula_sum "Si O2"
_cell_formula_units_Z 72
_cell_length_a 21.826371
_cell_length_b 19.415217
_cell_length_c 8.425324
_cell_angle_alpha 90.000000
_cell_angle_beta 90.000000
_cell_angle_gamma 90.000000
_cell_volume 3570.346719
_symmetry_space_group_name_H-M "C C C A"
_symmetry_group_IT_number 68
_space_group.IT_coordinate_system_code '2'
_symmetry_cell_setting 'orthorhombic'
loop_
_space_group_symop_operation_xyz
x,y,z
-x,1/2-y,z
x,1/2-y,1/2-z
-x,y,1/2-z
-x,-y,-z
x,1/2+y,-z
-x,1/2+y,1/2+z
x,-y,1/2+z
1/2+x,1/2+y,z
1/2-x,-y,z
1/2+x,-y,1/2-z
1/2-x,1/2+y,1/2-z
1/2-x,1/2-y,-z
1/2+x,y,-z
1/2-x,y,1/2+z
1/2+x,1/2-y,1/2+z
loop_
_atom_site_type_symbol
_atom_site_label
_atom_site_fract_x
_atom_site_fract_y
_atom_site_fract_z
Si Si1 0.418798 0.062325 0.100112
Si Si2 0.168497 0.319087 0.979206
Si Si3 0.443333 0.079683 0.468038
Si Si4 0.740741 0.750000 0.250000
Si Si5 0.566398 0.271615 0.569147
O O1 0.360502 0.103941 0.028599
O O2 0.422522 0.076165 0.286547
O O3 0.482816 0.081577 0.014075
O O4 0.410565 0.981280 0.066188
O O5 0.218888 0.304964 0.846004
O O6 0.198875 0.301571 0.148073
O O7 0.112360 0.267115 0.951610
O O8 0.419187 0.148046 0.552126
O O9 0.500000 0.250000 0.506682
O O10 0.576176 0.250000 0.750000
#
# Coordination Sequence:
#
# PCOD8282788 Si02
#       5
#    16  16  16   8  16
#     4  10  22  38  63  88 138 165 203 257 333 394
#     4  11  21  42  61  93 120 178 209 279 300 386
#     4  10  22  37  59 100 128 167 196 257 338 411
#     4  10  24  38  66  86 130 170 244 250 312 350
#     4  11  22  35  64  97 131 162 210 270 338 395
#
# _framework density 20.166108000000001
#
# number of rings (size 3 to 8) (size 9 to 14) (size 15 to 20)
#    0.000    1.556    3.333    1.333    3.111    1.778 
#    0.000    0.000    0.000   22.667    0.000    0.000 
#    0.000    0.000    0.000    0.000    0.000    0.000 
#
# Total GULP energy -446334.189527 kJ/mol
# GULP energy per Si atom -12398.171931 kJ/mol
# Density = 2.012021 g / cm^3
# Si number density = 20.166108 Si / 1000 Ang^3
#
#
#
# Elastic Constant Matrix: (Units=GPa)
#
#
# Indices 1 2 3 4 5 6 
#
# 1 116.9425 54.0037 42.7664 0.0000 0.0000 0.0000
# 2 54.0037 176.8503 56.9571 0.0000 0.0000 0.0000
# 3 42.7664 56.9571 96.4566 0.0000 0.0000 0.0000
# 4 0.0000 0.0000 0.0000 33.1294 0.0000 0.0000
# 5 0.0000 0.0000 0.0000 0.0000 18.0347 0.0000
# 6 0.0000 0.0000 0.0000 0.0000 0.0000 39.0493
#
#
#
# Elastic Compliance Matrix: (Units=1/GPa)
#
#
# Indices 1 2 3 4 5 6 
#
# 1 0.010845 -0.002177 -0.003523 0.000000 0.000000 0.000000
# 2 -0.002177 0.007419 -0.003416 0.000000 0.000000 0.000000
# 3 -0.003523 -0.003416 0.013946 0.000000 0.000000 0.000000
# 4 0.000000 0.000000 0.000000 0.030185 0.000000 0.000000
# 5 0.000000 0.000000 0.000000 0.000000 0.055449 0.000000
# 6 0.000000 0.000000 0.000000 0.000000 0.000000 0.025609
#
#
# Mechanical properties :
#
#
# Convention : Reuss Voigt Hill
#
# Bulk Modulus (GPa) = 71.53506 77.52265 74.52885
# Shear Modulus (GPa) = 30.05824 33.81083 31.93453
#
# Velocity S-wave (km/s) = 3.86493 4.09909 3.98373
# Velocity P-wave (km/s) = 7.44761 7.80570 7.62875
#
# Compressibility (1/GPa) = 0.01397916
#
# Stress axis : x y z
#
# Youngs Moduli (GPa) = 92.20947 134.78116 71.70340
#
# Poissons Ratio (x) = 0.29343 0.25260
# Poissons Ratio (y) = 0.20075 0.24493
# Poissons Ratio (z) = 0.32483 0.46040
#
# Static dielectric constant tensor:
#      x y z
#    x 3.888800 0.000000 0.000000 
#    y 0.000000 3.677960 0.000000 
#    z 0.000000 0.000000 3.571680 
# 
# 
# High freq. dielectric constant tensor:
#      x y z
#    x 1.778120 0.000000 0.000000 
#    y 0.000000 1.784940 0.000000 
#    z 0.000000 0.000000 1.789220 
# 
# From -- ./inp_files/7036.got.cif
#   From: 2010.03.12/outbox.cif.g09.slc.cpg/sg68_4_cif.got.tgz:7036.got - 2010.04.10 23:14:56.
