data_PCOD8282279
_publ_section_title
;
Structure prediction by ZEFSAII (Michael W. Deem and Ramdas Pophale) SiO2 
 PCOD8282279
Probable space group: C C C A
;
_chemical_formula_sum "Si O2"
_cell_formula_units_Z 112
_cell_length_a 18.582718
_cell_length_b 25.556790
_cell_length_c 13.231388
_cell_angle_alpha 90.000000
_cell_angle_beta 90.000000
_cell_angle_gamma 90.000000
_cell_volume 6283.779625
_symmetry_space_group_name_H-M "C C C A"
_symmetry_group_IT_number 68
_space_group.IT_coordinate_system_code '2'
_symmetry_cell_setting 'orthorhombic'
loop_
_space_group_symop_operation_xyz
x,y,z
-x,1/2-y,z
x,1/2-y,1/2-z
-x,y,1/2-z
-x,-y,-z
x,1/2+y,-z
-x,1/2+y,1/2+z
x,-y,1/2+z
1/2+x,1/2+y,z
1/2-x,-y,z
1/2+x,-y,1/2-z
1/2-x,1/2+y,1/2-z
1/2-x,1/2-y,-z
1/2+x,y,-z
1/2-x,y,1/2+z
1/2+x,1/2-y,1/2+z
loop_
_atom_site_type_symbol
_atom_site_label
_atom_site_fract_x
_atom_site_fract_y
_atom_site_fract_z
Si Si1 0.807922 0.454675 0.622603
Si Si2 0.641581 0.309474 0.621802
Si Si3 0.147329 0.310628 0.148632
Si Si4 0.239832 0.373211 0.515624
Si Si5 0.993595 0.369569 0.361496
Si Si6 0.068530 0.030629 0.467976
Si Si7 0.819145 0.964572 0.145213
O O1 0.750000 0.500000 0.604674
O O2 0.776563 0.401365 0.578995
O O3 0.881414 0.467398 0.565975
O O4 0.825546 0.446717 0.739592
O O5 0.672083 0.318011 0.734996
O O6 0.642744 0.247558 0.605253
O O7 0.693045 0.327857 0.532516
O O8 0.567325 0.341432 0.604047
O O9 0.064042 0.324021 0.141651
O O10 0.198840 0.348664 0.085922
O O11 0.188369 0.412629 0.577687
O O12 0.961736 0.413182 0.435712
O O13 0.000000 0.395263 0.250000
O O14 0.111056 0.999667 0.379990
O O15 0.000000 0.000000 0.500000
O O16 0.750000 0.000000 0.124225
#
# Coordination Sequence:
#
# PCOD8282279 Si02
#       7
#    16  16  16  16  16  16  16
#     4  11  23  38  58  80 116 157 184 233 280 336
#     4  10  22  35  59  85 110 144 186 240 287 337
#     4  10  20  38  57  84 113 142 188 238 288 334
#     4  12  19  38  56  87 111 150 188 233 286 339
#     4  10  21  36  57  81 113 147 183 231 284 332
#     4  12  23  37  55  85 116 149 189 230 280 339
#     4  11  22  38  57  82 117 154 194 229 279 344
#
# _framework density 17.823667
#
# number of rings (size 3 to 8) (size 9 to 14) (size 15 to 20)
#    0.000    1.143    4.286    2.571    2.000    4.000 
#    0.000    0.000    0.000    0.000    0.000    0.000 
#    0.000    0.000    0.000    0.000    0.000    0.000 
#
# Total GULP energy -694158.769823 kJ/mol
# GULP energy per Si atom -12395.692318 kJ/mol
# Density = 1.778310 g / cm^3
# Si number density = 17.823667 Si / 1000 Ang^3
#
#
#
# Elastic Constant Matrix: (Units=GPa)
#
#
# Indices 1 2 3 4 5 6 
#
# 1 78.8646 24.6691 30.5040 0.0000 0.0000 0.0000
# 2 24.6691 93.6005 42.6843 0.0000 0.0000 0.0000
# 3 30.5040 42.6843 98.7705 0.0000 0.0000 0.0000
# 4 0.0000 0.0000 0.0000 31.5512 0.0000 0.0000
# 5 0.0000 0.0000 0.0000 0.0000 -6.1916 0.0000
# 6 0.0000 0.0000 0.0000 0.0000 0.0000 33.2351
#
#
#
# Elastic Compliance Matrix: (Units=1/GPa)
#
#
# Indices 1 2 3 4 5 6 
#
# 1 0.014774 -0.002258 -0.003587 0.000000 0.000000 0.000000
# 2 -0.002258 0.013651 -0.005202 0.000000 0.000000 0.000000
# 3 -0.003587 -0.005202 0.013480 0.000000 0.000000 0.000000
# 4 0.000000 0.000000 0.000000 0.031695 0.000000 0.000000
# 5 0.000000 0.000000 0.000000 0.000000 -0.161509 0.000000
# 6 0.000000 0.000000 0.000000 0.000000 0.000000 0.030089
#
#
# Mechanical properties :
#
#
# Convention : Reuss Voigt Hill
#
# Bulk Modulus (GPa) = 50.47633 51.88337 51.17985
# Shear Modulus (GPa) = -171.68335 23.27749 -74.20293
#
# Velocity S-wave (km/s) = -9.82509 3.61777 -6.45926
# Velocity P-wave (km/s) = 10.01641 6.82813 5.18194
#
# Compressibility (1/GPa) = 0.01981127
#
# Stress axis : x y z
#
# Youngs Moduli (GPa) = 67.68822 73.25418 74.18211
#
# Poissons Ratio (x) = 0.16541 0.26608
# Poissons Ratio (y) = 0.15284 0.38590
# Poissons Ratio (z) = 0.24279 0.38107
#
# Static dielectric constant tensor:
#      x y z
#    x 3.369900 0.000000 0.000000 
#    y 0.000000 3.276860 0.000000 
#    z 0.000000 0.000000 3.325640 
# 
# 
# High freq. dielectric constant tensor:
#      x y z
#    x 1.693720 0.000000 0.000000 
#    y 0.000000 1.697330 0.000000 
#    z 0.000000 0.000000 1.692320 
# 
# From -- ./inp_files/22755.got.cif
#   From: 2010.03.12/outbox.cif.g09.slc.cpg/sg68_12_cif.got.tgz:22755.got - 2010.04.10 23:14:56.
