data_PCOD8282389
_publ_section_title
;
Structure prediction by ZEFSAII (Michael W. Deem and Ramdas Pophale) SiO2 
 PCOD8282389
Probable space group: C C C A
;
_chemical_formula_sum "Si O2"
_cell_formula_units_Z 104
_cell_length_a 27.887755
_cell_length_b 8.478644
_cell_length_c 19.915477
_cell_angle_alpha 90.000000
_cell_angle_beta 90.000000
_cell_angle_gamma 90.000000
_cell_volume 4709.021439
_symmetry_space_group_name_H-M "C C C A"
_symmetry_group_IT_number 68
_space_group.IT_coordinate_system_code '2'
_symmetry_cell_setting 'orthorhombic'
loop_
_space_group_symop_operation_xyz
x,y,z
-x,1/2-y,z
x,1/2-y,1/2-z
-x,y,1/2-z
-x,-y,-z
x,1/2+y,-z
-x,1/2+y,1/2+z
x,-y,1/2+z
1/2+x,1/2+y,z
1/2-x,-y,z
1/2+x,-y,1/2-z
1/2-x,1/2+y,1/2-z
1/2-x,1/2-y,-z
1/2+x,y,-z
1/2-x,y,1/2+z
1/2+x,1/2-y,1/2+z
loop_
_atom_site_type_symbol
_atom_site_label
_atom_site_fract_x
_atom_site_fract_y
_atom_site_fract_z
Si Si1 0.449085 0.662535 0.167899
Si Si2 0.198903 0.796866 0.075919
Si Si3 0.949687 0.530221 0.466555
Si Si4 0.908741 0.845115 0.421287
Si Si5 0.250000 0.500000 0.032140
Si Si6 0.598320 0.962108 0.291640
Si Si7 0.797455 0.581728 0.218284
O O1 0.500000 0.750000 0.179262
O O2 0.444855 0.584739 0.096220
O O3 0.437191 0.533727 0.226591
O O4 0.406939 0.792381 0.172636
O O5 0.142666 0.764489 0.075453
O O6 0.222134 0.623350 0.078953
O O7 0.214006 0.897998 0.139968
O O8 0.212901 0.899024 0.011539
O O9 0.946514 0.710307 0.442051
O O10 0.911055 0.487437 0.524404
O O11 0.000000 0.500000 0.500000
O O12 0.918683 0.905736 0.345445
O O13 0.654101 0.980626 0.270636
O O14 0.807338 0.750000 0.250000
O O15 0.750000 0.500000 0.250531
#
# Coordination Sequence:
#
# PCOD8282389 Si02
#       7
#    16  16  16  16   8  16  16
#     4  11  24  45  73 101 137 182 231 287 355 415
#     4  10  22  41  63  95 129 172 221 274 329 399
#     4  12  25  42  69 101 139 175 223 281 346 421
#     4  11  23  41  65  99 134 178 221 280 342 403
#     4  10  20  40  64  92 130 170 224 270 332 390
#     4  10  24  44  70  98 137 182 236 285 340 418
#     4  11  26  45  67  99 141 182 236 284 346 406
#
# _framework density 22.085267000000002
#
# number of rings (size 3 to 8) (size 9 to 14) (size 15 to 20)
#    0.000    1.231    0.769    5.077    7.538    1.231 
#    2.769    0.000    3.385    0.000    0.000    0.000 
#    0.000    0.000    0.000    0.000    0.000    0.000 
#
# Total GULP energy -644704.114705 kJ/mol
# GULP energy per Si atom -12398.156052 kJ/mol
# Density = 2.203500 g / cm^3
# Si number density = 22.085267 Si / 1000 Ang^3
#
#
#
# Elastic Constant Matrix: (Units=GPa)
#
#
# Indices 1 2 3 4 5 6 
#
# 1 118.5063 61.6443 54.7521 0.0000 0.0000 0.0000
# 2 61.6443 93.9485 13.6112 0.0000 0.0000 0.0000
# 3 54.7521 13.6112 88.4673 0.0000 0.0000 0.0000
# 4 0.0000 0.0000 0.0000 47.7353 0.0000 0.0000
# 5 0.0000 0.0000 0.0000 0.0000 25.3022 0.0000
# 6 0.0000 0.0000 0.0000 0.0000 0.0000 44.2451
#
#
#
# Elastic Compliance Matrix: (Units=1/GPa)
#
#
# Indices 1 2 3 4 5 6 
#
# 1 0.018593 -0.010773 -0.009850 0.000000 0.000000 0.000000
# 2 -0.010773 0.017128 0.004032 0.000000 0.000000 0.000000
# 3 -0.009850 0.004032 0.016779 0.000000 0.000000 0.000000
# 4 0.000000 0.000000 0.000000 0.020949 0.000000 0.000000
# 5 0.000000 0.000000 0.000000 0.000000 0.039522 0.000000
# 6 0.000000 0.000000 0.000000 0.000000 0.000000 0.022601
#
#
# Mechanical properties :
#
#
# Convention : Reuss Voigt Hill
#
# Bulk Modulus (GPa) = 51.76082 62.32639 57.04360
# Shear Modulus (GPa) = 28.53990 34.85082 31.69536
#
# Velocity S-wave (km/s) = 3.59870 3.97673 3.79243
# Velocity P-wave (km/s) = 6.38398 7.02623 6.71279
#
# Compressibility (1/GPa) = 0.01931963
#
# Stress axis : x y z
#
# Youngs Moduli (GPa) = 53.78448 58.38236 59.59785
#
# Poissons Ratio (x) = 0.62893 0.58701
# Poissons Ratio (y) = 0.57940 -0.24029
# Poissons Ratio (z) = 0.52975 -0.23539
#
# Static dielectric constant tensor:
#      x y z
#    x 3.935090 0.000000 0.000000 
#    y 0.000000 4.065490 0.000000 
#    z 0.000000 0.000000 3.824270 
# 
# 
# High freq. dielectric constant tensor:
#      x y z
#    x 1.870290 0.000000 0.000000 
#    y 0.000000 1.869560 0.000000 
#    z 0.000000 0.000000 1.877890 
# 
# From -- ./inp_files/41315.got.cif
#   From: 2010.03.12/outbox.cif.g09.slc.cpg/sg68_21_cif.got.tgz:41315.got - 2010.04.10 23:14:56.
