data_PCOD8282223
_publ_section_title
;
Structure prediction by ZEFSAII (Michael W. Deem and Ramdas Pophale) SiO2 
 PCOD8282223
Probable space group: C C C A
;
_chemical_formula_sum "Si O2"
_cell_formula_units_Z 84
_cell_length_a 21.696277
_cell_length_b 13.276012
_cell_length_c 14.070649
_cell_angle_alpha 90.000000
_cell_angle_beta 90.000000
_cell_angle_gamma 90.000000
_cell_volume 4052.910214
_symmetry_space_group_name_H-M "C C C A"
_symmetry_group_IT_number 68
_space_group.IT_coordinate_system_code '2'
_symmetry_cell_setting 'orthorhombic'
loop_
_space_group_symop_operation_xyz
x,y,z
-x,1/2-y,z
x,1/2-y,1/2-z
-x,y,1/2-z
-x,-y,-z
x,1/2+y,-z
-x,1/2+y,1/2+z
x,-y,1/2+z
1/2+x,1/2+y,z
1/2-x,-y,z
1/2+x,-y,1/2-z
1/2-x,1/2+y,1/2-z
1/2-x,1/2-y,-z
1/2+x,y,-z
1/2-x,y,1/2+z
1/2+x,1/2-y,1/2+z
loop_
_atom_site_type_symbol
_atom_site_label
_atom_site_fract_x
_atom_site_fract_y
_atom_site_fract_z
Si Si1 0.623476 0.561643 0.623045
Si Si2 0.320370 0.235166 0.023958
Si Si3 0.493287 0.401428 0.062985
Si Si4 0.500000 0.250000 0.750000
Si Si5 0.887471 0.846551 0.190479
Si Si6 0.084513 0.335565 0.406060
O O1 0.672228 0.618158 0.554886
O O2 0.559617 0.624680 0.606426
O O3 0.643806 0.576335 0.733346
O O4 0.616557 0.445358 0.596086
O O5 0.339718 0.312784 0.108250
O O6 0.250000 0.250000 0.000000
O O7 0.360846 0.256351 0.928383
O O8 0.445003 0.409813 0.149279
O O9 0.500000 0.500000 0.000000
O O10 0.465093 0.319329 0.990810
O O11 0.453389 0.180867 0.690199
O O12 0.910310 0.750000 0.250000
#
# Coordination Sequence:
#
# PCOD8282223 Si02
#       6
#    16  16  16   4  16  16
#     4  10  20  36  65  93 124 159 212 260 321 380
#     4  10  22  43  63  83 125 168 223 270 316 371
#     4   9  18  32  58  89 125 154 194 244 321 381
#     4  12  24  40  60  96 144 160 204 254 344 408
#     4   9  19  34  59  93 117 160 208 264 306 373
#     4  10  23  39  61  93 128 170 202 255 328 397
#
# _framework density 20.725849
#
# number of rings (size 3 to 8) (size 9 to 14) (size 15 to 20)
#    0.000    2.286    0.000    1.714    5.333    9.143 
#    8.571    0.000    0.000    0.000    0.000    0.000 
#    0.000    0.000    0.000    0.000    0.000    0.000 
#
# Total GULP energy -520366.449309 kJ/mol
# GULP energy per Si atom -12389.677364 kJ/mol
# Density = 2.067868 g / cm^3
# Si number density = 20.725849 Si / 1000 Ang^3
#
#
#
# Elastic Constant Matrix: (Units=GPa)
#
#
# Indices 1 2 3 4 5 6 
#
# 1 125.0841 35.3880 51.3826 0.0000 0.0000 0.0000
# 2 35.3880 85.6211 39.2899 0.0000 0.0000 0.0000
# 3 51.3826 39.2899 111.7894 0.0000 0.0000 0.0000
# 4 0.0000 0.0000 0.0000 32.5523 0.0000 0.0000
# 5 0.0000 0.0000 0.0000 0.0000 23.1927 0.0000
# 6 0.0000 0.0000 0.0000 0.0000 0.0000 22.7396
#
#
#
# Elastic Compliance Matrix: (Units=1/GPa)
#
#
# Indices 1 2 3 4 5 6 
#
# 1 0.010279 -0.002480 -0.003853 0.000000 0.000000 0.000000
# 2 -0.002480 0.014524 -0.003964 0.000000 0.000000 0.000000
# 3 -0.003853 -0.003964 0.012110 0.000000 0.000000 0.000000
# 4 0.000000 0.000000 0.000000 0.030720 0.000000 0.000000
# 5 0.000000 0.000000 0.000000 0.000000 0.043117 0.000000
# 6 0.000000 0.000000 0.000000 0.000000 0.000000 0.043976
#
#
# Mechanical properties :
#
#
# Convention : Reuss Voigt Hill
#
# Bulk Modulus (GPa) = 61.28586 63.84618 62.56602
# Shear Modulus (GPa) = 27.66098 28.79253 28.22675
#
# Velocity S-wave (km/s) = 3.65720 3.73125 3.69441
# Velocity P-wave (km/s) = 6.88966 7.03100 6.96069
#
# Compressibility (1/GPa) = 0.01631698
#
# Stress axis : x y z
#
# Youngs Moduli (GPa) = 97.28507 68.85269 82.57851
#
# Poissons Ratio (x) = 0.17078 0.31816
# Poissons Ratio (y) = 0.24131 0.32738
# Poissons Ratio (z) = 0.37483 0.27297
#
# Static dielectric constant tensor:
#      x y z
#    x 3.718060 0.000000 0.000000 
#    y 0.000000 3.525640 0.000000 
#    z 0.000000 0.000000 1.004300 
# 
# 
# High freq. dielectric constant tensor:
#      x y z
#    x 1.781670 0.000000 0.000000 
#    y 0.000000 1.801530 0.000000 
#    z 0.000000 0.000000 1.824650 
# 
# From -- ./inp_files/24380.got.cif
#   From: 2010.03.12/outbox.cif.g09.slc.cpg/sg68_13_cif.got.tgz:24380.got - 2010.04.10 23:14:56.
