data_PCOD8282541
_publ_section_title
;
Structure prediction by ZEFSAII (Michael W. Deem and Ramdas Pophale) SiO2 
 PCOD8282541
Probable space group: C C C A
;
_chemical_formula_sum "Si O2"
_cell_formula_units_Z 88
_cell_length_a 15.161116
_cell_length_b 9.561555
_cell_length_c 21.312510
_cell_angle_alpha 90.000000
_cell_angle_beta 90.000000
_cell_angle_gamma 90.000000
_cell_volume 3089.543385
_symmetry_space_group_name_H-M "C C C A"
_symmetry_group_IT_number 68
_space_group.IT_coordinate_system_code '2'
_symmetry_cell_setting 'orthorhombic'
loop_
_space_group_symop_operation_xyz
x,y,z
-x,1/2-y,z
x,1/2-y,1/2-z
-x,y,1/2-z
-x,-y,-z
x,1/2+y,-z
-x,1/2+y,1/2+z
x,-y,1/2+z
1/2+x,1/2+y,z
1/2-x,-y,z
1/2+x,-y,1/2-z
1/2-x,1/2+y,1/2-z
1/2-x,1/2-y,-z
1/2+x,y,-z
1/2-x,y,1/2+z
1/2+x,1/2-y,1/2+z
loop_
_atom_site_type_symbol
_atom_site_label
_atom_site_fract_x
_atom_site_fract_y
_atom_site_fract_z
Si Si1 0.643882 0.526747 0.129251
Si Si2 0.538349 0.432127 0.379758
Si Si3 0.399190 0.707224 0.059815
Si Si4 0.680479 0.757850 0.926989
Si Si5 0.750000 0.500000 0.865577
Si Si6 0.112253 0.412310 0.739500
O O1 0.557883 0.461768 0.092732
O O2 0.646203 0.687116 0.109600
O O3 0.714153 0.405820 0.105925
O O4 0.637089 0.516693 0.204494
O O5 0.602905 0.552843 0.409219
O O6 0.583610 0.285391 0.398329
O O7 0.519913 0.429111 0.301357
O O8 0.500000 0.750000 0.043555
O O9 0.333751 0.720336 0.000608
O O10 0.753946 0.638285 0.911376
O O11 0.832407 0.470276 0.820399
O O12 0.136329 0.250000 0.750000
#
# Coordination Sequence:
#
# PCOD8282541 Si02
#       6
#    16  16  16  16   8  16
#     4  11  21  38  68  99 131 175 220 276 362 415
#     4  10  21  37  65 104 134 166 221 285 342 421
#     4  10  22  39  61 101 145 173 209 278 355 416
#     4  11  21  40  65  90 133 183 228 278 333 412
#     4  10  24  44  62  92 128 172 244 296 320 390
#     4  11  22  43  67  92 129 176 231 285 341 408
#
# _framework density 28.483173000000001
#
# number of rings (size 3 to 8) (size 9 to 14) (size 15 to 20)
#    0.000    1.455    3.636    3.273    0.000    4.364 
#    6.545   11.818    0.000    0.000    0.000    0.000 
#    0.000    0.000    0.000    0.000    0.000    0.000 
#
# Total GULP energy -545286.300035 kJ/mol
# GULP energy per Si atom -12392.870455 kJ/mol
# Density = 2.841834 g / cm^3
# Si number density = 28.483173 Si / 1000 Ang^3
#
#
#
# Elastic Constant Matrix: (Units=GPa)
#
#
# Indices 1 2 3 4 5 6 
#
# 1 66.6801 12.0933 -15.6731 0.0000 0.0000 0.0000
# 2 12.0933 185.0195 69.4074 0.0000 0.0000 0.0000
# 3 -15.6731 69.4074 193.3126 0.0000 0.0000 0.0000
# 4 0.0000 0.0000 0.0000 83.3331 0.0000 0.0000
# 5 0.0000 0.0000 0.0000 0.0000 -26.4480 0.0000
# 6 0.0000 0.0000 0.0000 0.0000 0.0000 45.5385
#
#
#
# Elastic Compliance Matrix: (Units=1/GPa)
#
#
# Indices 1 2 3 4 5 6 
#
# 1 0.015761 -0.001745 0.001904 0.000000 0.000000 0.000000
# 2 -0.001745 0.006439 -0.002453 0.000000 0.000000 0.000000
# 3 0.001904 -0.002453 0.006208 0.000000 0.000000 0.000000
# 4 0.000000 0.000000 0.000000 0.012000 0.000000 0.000000
# 5 0.000000 0.000000 0.000000 0.000000 -0.037810 0.000000
# 6 0.000000 0.000000 0.000000 0.000000 0.000000 0.021959
#
#
# Mechanical properties :
#
#
# Convention : Reuss Voigt Hill
#
# Bulk Modulus (GPa) = 41.97977 64.07416 53.02696
# Shear Modulus (GPa) = 134.82335 45.76369 90.29352
#
# Velocity S-wave (km/s) = 6.88746 4.01271 5.63644
# Velocity P-wave (km/s) = 8.83289 6.63426 7.81132
#
# Compressibility (1/GPa) = 0.02382100
#
# Stress axis : x y z
#
# Youngs Moduli (GPa) = 63.44791 155.29843 161.07659
#
# Poissons Ratio (x) = 0.27092 -0.30672
# Poissons Ratio (y) = 0.11069 0.39518
# Poissons Ratio (z) = -0.12082 0.38101
#
# Static dielectric constant tensor:
#      x y z
#    x 6.361830 0.000000 0.000000 
#    y 0.000000 5.180670 0.000000 
#    z 0.000000 0.000000 5.213570 
# 
# 
# High freq. dielectric constant tensor:
#      x y z
#    x 2.243510 0.000000 0.000000 
#    y 0.000000 2.170240 0.000000 
#    z 0.000000 0.000000 2.162690 
# 
# From -- ./inp_files/40733.got.cif
#   From: 2010.03.12/outbox.cif.g09.slc.cpg/sg68_21_cif.got.tgz:40733.got - 2010.04.10 23:14:56.
