data_PCOD8282580
_publ_section_title
;
Structure prediction by ZEFSAII (Michael W. Deem and Ramdas Pophale) SiO2 
 PCOD8282580
Probable space group: C C C A
;
_chemical_formula_sum "Si O2"
_cell_formula_units_Z 112
_cell_length_a 14.838946
_cell_length_b 24.624487
_cell_length_c 14.928894
_cell_angle_alpha 90.000000
_cell_angle_beta 90.000000
_cell_angle_gamma 90.000000
_cell_volume 5455.039259
_symmetry_space_group_name_H-M "C C C A"
_symmetry_group_IT_number 68
_space_group.IT_coordinate_system_code '2'
_symmetry_cell_setting 'orthorhombic'
loop_
_space_group_symop_operation_xyz
x,y,z
-x,1/2-y,z
x,1/2-y,1/2-z
-x,y,1/2-z
-x,-y,-z
x,1/2+y,-z
-x,1/2+y,1/2+z
x,-y,1/2+z
1/2+x,1/2+y,z
1/2-x,-y,z
1/2+x,-y,1/2-z
1/2-x,1/2+y,1/2-z
1/2-x,1/2-y,-z
1/2+x,y,-z
1/2-x,y,1/2+z
1/2+x,1/2-y,1/2+z
loop_
_atom_site_type_symbol
_atom_site_label
_atom_site_fract_x
_atom_site_fract_y
_atom_site_fract_z
Si Si1 0.907640 0.729923 0.100752
Si Si2 0.675687 0.538409 0.423343
Si Si3 0.870842 0.328381 0.016281
Si Si4 0.768066 0.202995 0.305271
Si Si5 0.545294 0.954010 0.662111
Si Si6 0.795817 0.119469 0.659230
Si Si7 0.550185 0.884876 0.972904
O O1 0.820766 0.736398 0.163098
O O2 0.000000 0.750000 0.150346
O O3 0.899142 0.767663 0.012439
O O4 0.910036 0.667231 0.075757
O O5 0.750000 0.500000 0.476631
O O6 0.595820 0.502428 0.386301
O O7 0.733007 0.566251 0.344338
O O8 0.632115 0.590185 0.471433
O O9 0.822391 0.323472 0.112344
O O10 0.959153 0.367273 0.027079
O O11 0.804658 0.351932 0.938875
O O12 0.823259 0.250000 0.250000
O O13 0.743235 0.155920 0.237107
O O14 0.500000 0.978844 0.750000
O O15 0.605684 0.901660 0.687978
O O16 0.468623 0.933077 0.596030
#
# Coordination Sequence:
#
# PCOD8282580 Si02
#       7
#    16  16  16  16  16  16  16
#     4  10  21  38  61  91 124 163 203 258 308 369
#     4  10  22  40  62  86 119 159 203 260 314 361
#     4  10  22  40  58  90 127 163 202 250 308 376
#     4  12  23  35  61  89 125 166 205 250 310 379
#     4  10  21  39  60  88 119 151 205 265 308 362
#     4  10  22  40  59  89 123 162 202 252 310 370
#     4  10  21  39  66  84 119 162 209 252 311 379
#
# _framework density 20.531475
#
# number of rings (size 3 to 8) (size 9 to 14) (size 15 to 20)
#    0.000    1.714    1.429    2.571    2.000    1.429 
#    0.000    3.571    0.000    0.000    0.000    0.000 
#    0.000    0.000    0.000    0.000    0.000    0.000 
#
# Total GULP energy -693906.980264 kJ/mol
# GULP energy per Si atom -12391.196076 kJ/mol
# Density = 2.048474 g / cm^3
# Si number density = 20.531475 Si / 1000 Ang^3
#
#
#
# Elastic Constant Matrix: (Units=GPa)
#
#
# Indices 1 2 3 4 5 6 
#
# 1 72.9648 29.9214 31.4735 0.0000 0.0000 0.0000
# 2 29.9214 94.1861 22.8616 0.0000 0.0000 0.0000
# 3 31.4735 22.8616 81.1159 0.0000 0.0000 0.0000
# 4 0.0000 0.0000 0.0000 7.5132 0.0000 0.0000
# 5 0.0000 0.0000 0.0000 0.0000 13.4413 0.0000
# 6 0.0000 0.0000 0.0000 0.0000 0.0000 46.5019
#
#
#
# Elastic Compliance Matrix: (Units=1/GPa)
#
#
# Indices 1 2 3 4 5 6 
#
# 1 0.017953 -0.004307 -0.005752 0.000000 0.000000 0.000000
# 2 -0.004307 0.012430 -0.001832 0.000000 0.000000 0.000000
# 3 -0.005752 -0.001832 0.015076 0.000000 0.000000 0.000000
# 4 0.000000 0.000000 0.000000 0.133099 0.000000 0.000000
# 5 0.000000 0.000000 0.000000 0.000000 0.074397 0.000000
# 6 0.000000 0.000000 0.000000 0.000000 0.000000 0.021504
#
#
# Mechanical properties :
#
#
# Convention : Reuss Voigt Hill
#
# Bulk Modulus (GPa) = 46.13212 46.30886 46.22049
# Shear Modulus (GPa) = 16.36832 24.42531 20.39682
#
# Velocity S-wave (km/s) = 2.82659 3.45288 3.15531
# Velocity P-wave (km/s) = 5.75939 6.20488 5.98628
#
# Compressibility (1/GPa) = 0.02167687
#
# Stress axis : x y z
#
# Youngs Moduli (GPa) = 55.70242 80.44870 66.32991
#
# Poissons Ratio (x) = 0.34650 0.38152
# Poissons Ratio (y) = 0.23992 0.12153
# Poissons Ratio (z) = 0.32039 0.14739
#
# Static dielectric constant tensor:
#      x y z
#    x 3.896340 0.000000 0.000000 
#    y 0.000000 3.847170 0.000000 
#    z 0.000000 0.000000 3.422280 
# 
# 
# High freq. dielectric constant tensor:
#      x y z
#    x 1.806930 0.000000 0.000000 
#    y 0.000000 1.822450 0.000000 
#    z 0.000000 0.000000 1.771490 
# 
# From -- ./inp_files/22625.got.cif
#   From: 2010.03.12/outbox.cif.g09.slc.cpg/sg68_12_cif.got.tgz:22625.got - 2010.04.10 23:14:56.
