data_PCOD8282671
_publ_section_title
;
Structure prediction by ZEFSAII (Michael W. Deem and Ramdas Pophale) SiO2 
 PCOD8282671
Probable space group: C C C A
;
_chemical_formula_sum "Si O2"
_cell_formula_units_Z 80
_cell_length_a 13.088093
_cell_length_b 21.459232
_cell_length_c 13.085683
_cell_angle_alpha 90.000000
_cell_angle_beta 90.000000
_cell_angle_gamma 90.000000
_cell_volume 3675.250477
_symmetry_space_group_name_H-M "C C C A"
_symmetry_group_IT_number 68
_space_group.IT_coordinate_system_code '2'
_symmetry_cell_setting 'orthorhombic'
loop_
_space_group_symop_operation_xyz
x,y,z
-x,1/2-y,z
x,1/2-y,1/2-z
-x,y,1/2-z
-x,-y,-z
x,1/2+y,-z
-x,1/2+y,1/2+z
x,-y,1/2+z
1/2+x,1/2+y,z
1/2-x,-y,z
1/2+x,-y,1/2-z
1/2-x,1/2+y,1/2-z
1/2-x,1/2-y,-z
1/2+x,y,-z
1/2-x,y,1/2+z
1/2+x,1/2-y,1/2+z
loop_
_atom_site_type_symbol
_atom_site_label
_atom_site_fract_x
_atom_site_fract_y
_atom_site_fract_z
Si Si1 0.103114 0.281560 0.502264
Si Si2 0.718981 0.825270 0.881088
Si Si3 0.655474 0.955278 0.970168
Si Si4 0.543370 0.497648 0.349047
Si Si5 0.100968 0.637334 0.193388
O O1 0.163023 0.306765 0.402194
O O2 0.156816 0.231711 0.573987
O O3 0.092692 0.340939 0.576595
O O4 0.000000 0.250000 0.461240
O O5 0.687196 0.885509 0.945914
O O6 0.697146 0.836020 0.760029
O O7 0.555100 0.975477 0.910786
O O8 0.750000 0.000000 0.944467
O O9 0.622471 0.959090 0.089522
O O10 0.500000 0.534743 0.250000
O O11 0.606752 0.437471 0.309006
O O12 0.000000 0.661817 0.250000
#
# Coordination Sequence:
#
# PCOD8282671 Si02
#       5
#    16  16  16  16  16
#     4  11  22  38  66  99 130 165 216 278 334 394
#     4  11  23  38  64  99 128 169 224 270 336 397
#     4  11  22  38  62  92 132 173 222 278 328 391
#     4  10  21  40  63  91 132 175 223 272 332 394
#     4  11  19  40  71  92 121 175 221 269 327 409
#
# _framework density 21.767225
#
# number of rings (size 3 to 8) (size 9 to 14) (size 15 to 20)
#    0.000    1.200    6.000    1.800    0.000    2.400 
#    3.600    0.000    0.000    8.400    0.000    0.000 
#    0.000    0.000    0.000    0.000    0.000    0.000 
#
# Total GULP energy -495745.491928 kJ/mol
# GULP energy per Si atom -12393.637298 kJ/mol
# Density = 2.171768 g / cm^3
# Si number density = 21.767225 Si / 1000 Ang^3
#
#
#
# Elastic Constant Matrix: (Units=GPa)
#
#
# Indices 1 2 3 4 5 6 
#
# 1 100.2916 8.9445 38.4320 0.0000 0.0000 0.0000
# 2 8.9445 39.8566 7.7579 0.0000 0.0000 0.0000
# 3 38.4320 7.7579 78.5910 0.0000 0.0000 0.0000
# 4 0.0000 0.0000 0.0000 32.4597 0.0000 0.0000
# 5 0.0000 0.0000 0.0000 0.0000 55.5393 0.0000
# 6 0.0000 0.0000 0.0000 0.0000 0.0000 22.5396
#
#
#
# Elastic Compliance Matrix: (Units=1/GPa)
#
#
# Indices 1 2 3 4 5 6 
#
# 1 0.012373 -0.001630 -0.005890 0.000000 0.000000 0.000000
# 2 -0.001630 0.025796 -0.001749 0.000000 0.000000 0.000000
# 3 -0.005890 -0.001749 0.015777 0.000000 0.000000 0.000000
# 4 0.000000 0.000000 0.000000 0.030807 0.000000 0.000000
# 5 0.000000 0.000000 0.000000 0.000000 0.018005 0.000000
# 6 0.000000 0.000000 0.000000 0.000000 0.000000 0.044366
#
#
# Mechanical properties :
#
#
# Convention : Reuss Voigt Hill
#
# Bulk Modulus (GPa) = 28.24221 36.55644 32.39932
# Shear Modulus (GPa) = 28.17429 33.01471 30.59450
#
# Velocity S-wave (km/s) = 3.60160 3.89873 3.75311
# Velocity P-wave (km/s) = 5.50438 6.09077 5.80499
#
# Compressibility (1/GPa) = 0.03540800
#
# Stress axis : x y z
#
# Youngs Moduli (GPa) = 80.81913 38.76523 63.38368
#
# Poissons Ratio (x) = 0.06320 0.37332
# Poissons Ratio (y) = 0.13176 0.11087
# Poissons Ratio (z) = 0.47601 0.06781
#
# Static dielectric constant tensor:
#      x y z
#    x 4.038020 0.000000 0.000000 
#    y 0.000000 4.012120 0.000000 
#    z 0.000000 0.000000 4.210770 
# 
# 
# High freq. dielectric constant tensor:
#      x y z
#    x 1.851340 0.000000 0.000000 
#    y 0.000000 1.849940 0.000000 
#    z 0.000000 0.000000 1.847910 
# 
# From -- ./inp_files/20825.got.cif
#   From: 2010.03.12/outbox.cif.g09.slc.cpg/sg68_11_cif.got.tgz:20825.got - 2010.04.10 23:14:56.
