data_PCOD8282309
_publ_section_title
;
Structure prediction by ZEFSAII (Michael W. Deem and Ramdas Pophale) SiO2 
 PCOD8282309
Probable space group: C C C A
;
_chemical_formula_sum "Si O2"
_cell_formula_units_Z 64
_cell_length_a 11.768594
_cell_length_b 14.052859
_cell_length_c 19.107974
_cell_angle_alpha 90.000000
_cell_angle_beta 90.000000
_cell_angle_gamma 90.000000
_cell_volume 3160.122449
_symmetry_space_group_name_H-M "C C C A"
_symmetry_group_IT_number 68
_space_group.IT_coordinate_system_code '2'
_symmetry_cell_setting 'orthorhombic'
loop_
_space_group_symop_operation_xyz
x,y,z
-x,1/2-y,z
x,1/2-y,1/2-z
-x,y,1/2-z
-x,-y,-z
x,1/2+y,-z
-x,1/2+y,1/2+z
x,-y,1/2+z
1/2+x,1/2+y,z
1/2-x,-y,z
1/2+x,-y,1/2-z
1/2-x,1/2+y,1/2-z
1/2-x,1/2-y,-z
1/2+x,y,-z
1/2-x,y,1/2+z
1/2+x,1/2-y,1/2+z
loop_
_atom_site_type_symbol
_atom_site_label
_atom_site_fract_x
_atom_site_fract_y
_atom_site_fract_z
Si Si1 0.524110 0.024891 0.579210
Si Si2 0.105043 0.189368 0.037423
Si Si3 0.541147 0.851828 0.671228
Si Si4 0.246343 0.640826 0.589985
O O1 0.444144 0.115843 0.595230
O O2 0.656487 0.053967 0.591780
O O3 0.500000 0.000000 0.500000
O O4 0.485103 0.938130 0.627906
O O5 0.189763 0.256406 0.079997
O O6 0.000000 0.250000 0.005069
O O7 0.164598 0.129747 0.974617
O O8 0.500000 0.750000 0.641859
O O9 0.500000 0.864870 0.750000
O O10 0.678678 0.857990 0.661336
#
# Coordination Sequence:
#
# PCOD8282309 Si02
#       4
#    16  16  16  16
#     4  11  22  37  66 100 129 161 216 279 328 391
#     4   9  19  34  62 101 127 160 205 271 329 393
#     4  11  25  44  61  86 133 182 222 266 323 404
#     4  10  20  38  64  92 132 165 204 267 335 382
#
# _framework density 20.252381
#
# number of rings (size 3 to 8) (size 9 to 14) (size 15 to 20)
#    0.000    1.750    2.500    1.500    7.000    0.000 
#    0.000   10.000    0.000    5.250    0.000    0.000 
#    0.000    0.000    0.000    0.000    0.000    0.000 
#
# Total GULP energy -396610.306400 kJ/mol
# GULP energy per Si atom -12394.072075 kJ/mol
# Density = 2.020629 g / cm^3
# Si number density = 20.252381 Si / 1000 Ang^3
#
#
#
# Elastic Constant Matrix: (Units=GPa)
#
#
# Indices 1 2 3 4 5 6 
#
# 1 128.5388 55.9654 56.9725 0.0000 0.0000 0.0000
# 2 55.9654 137.8089 62.5422 0.0000 0.0000 0.0000
# 3 56.9725 62.5422 107.4492 0.0000 0.0000 0.0000
# 4 0.0000 0.0000 0.0000 32.8407 0.0000 0.0000
# 5 0.0000 0.0000 0.0000 0.0000 34.9559 0.0000
# 6 0.0000 0.0000 0.0000 0.0000 0.0000 38.9952
#
#
#
# Elastic Compliance Matrix: (Units=1/GPa)
#
#
# Indices 1 2 3 4 5 6 
#
# 1 0.010729 -0.002413 -0.004285 0.000000 0.000000 0.000000
# 2 -0.002413 0.010404 -0.004776 0.000000 0.000000 0.000000
# 3 -0.004285 -0.004776 0.014359 0.000000 0.000000 0.000000
# 4 0.000000 0.000000 0.000000 0.030450 0.000000 0.000000
# 5 0.000000 0.000000 0.000000 0.000000 0.028608 0.000000
# 6 0.000000 0.000000 0.000000 0.000000 0.000000 0.025644
#
#
# Mechanical properties :
#
#
# Convention : Reuss Voigt Hill
#
# Bulk Modulus (GPa) = 79.71691 80.52857 80.12274
# Shear Modulus (GPa) = 33.93905 34.57947 34.25926
#
# Velocity S-wave (km/s) = 4.09810 4.13659 4.11739
# Velocity P-wave (km/s) = 7.86383 7.91606 7.88999
#
# Compressibility (1/GPa) = 0.01254439
#
# Stress axis : x y z
#
# Youngs Moduli (GPa) = 93.20238 96.11701 69.64398
#
# Poissons Ratio (x) = 0.23191 0.29840
# Poissons Ratio (y) = 0.22488 0.33265
# Poissons Ratio (z) = 0.39934 0.45910
#
# Static dielectric constant tensor:
#      x y z
#    x 4.867500 0.000000 0.000000 
#    y 0.000000 4.441620 0.000000 
#    z 0.000000 0.000000 3.220010 
# 
# 
# High freq. dielectric constant tensor:
#      x y z
#    x 1.801850 0.000000 0.000000 
#    y 0.000000 1.828860 0.000000 
#    z 0.000000 0.000000 1.732660 
# 
# From -- ./inp_files/29140.got.cif
#   From: 2010.03.12/outbox.cif.g09.slc.cpg/sg68_15_cif.got.tgz:29140.got - 2010.04.10 23:14:56.
