data_PCOD8282118
_publ_section_title
;
Structure prediction by ZEFSAII (Michael W. Deem and Ramdas Pophale) SiO2 
 PCOD8282118
Probable space group: C C C A
;
_chemical_formula_sum "Si O2"
_cell_formula_units_Z 88
_cell_length_a 12.377195
_cell_length_b 15.623224
_cell_length_c 21.268233
_cell_angle_alpha 90.000000
_cell_angle_beta 90.000000
_cell_angle_gamma 90.000000
_cell_volume 4112.674158
_symmetry_space_group_name_H-M "C C C A"
_symmetry_group_IT_number 68
_space_group.IT_coordinate_system_code '2'
_symmetry_cell_setting 'orthorhombic'
loop_
_space_group_symop_operation_xyz
x,y,z
-x,1/2-y,z
x,1/2-y,1/2-z
-x,y,1/2-z
-x,-y,-z
x,1/2+y,-z
-x,1/2+y,1/2+z
x,-y,1/2+z
1/2+x,1/2+y,z
1/2-x,-y,z
1/2+x,-y,1/2-z
1/2-x,1/2+y,1/2-z
1/2-x,1/2-y,-z
1/2+x,y,-z
1/2-x,y,1/2+z
1/2+x,1/2-y,1/2+z
loop_
_atom_site_type_symbol
_atom_site_label
_atom_site_fract_x
_atom_site_fract_y
_atom_site_fract_z
Si Si1 0.237313 0.850065 0.113158
Si Si2 0.022845 0.431038 0.910410
Si Si3 0.421450 0.962399 0.300188
Si Si4 0.619654 0.778541 0.178876
Si Si5 0.656459 0.940721 0.495879
Si Si6 0.750000 0.500000 0.208379
O O1 0.105819 0.853739 0.106975
O O2 0.284029 0.759848 0.136075
O O3 0.289099 0.865935 0.044629
O O4 0.276947 0.920241 0.163781
O O5 0.086977 0.501879 0.948941
O O6 0.981937 0.475076 0.847249
O O7 0.919507 0.398729 0.950512
O O8 0.500000 0.916125 0.250000
O O9 0.364548 0.880670 0.332774
O O10 0.346252 0.021738 0.256568
O O11 0.500000 0.750000 0.155466
O O12 0.640948 0.750000 0.250000
O O13 0.750000 0.000000 0.527364
#
# Coordination Sequence:
#
# PCOD8282118 Si02
#       6
#    16  16  16  16  16   8
#     4  11  19  37  59  87 126 164 203 264 330 377
#     4  10  20  34  58  87 117 160 211 262 313 370
#     4  12  21  35  57  95 128 156 211 266 316 392
#     4  11  20  32  57  91 127 156 198 256 322 383
#     4   9  18  34  58  85 113 156 216 259 303 367
#     4  12  20  32  56  92 120 160 204 256 318 384
#
# _framework density 21.397269999999999
#
# number of rings (size 3 to 8) (size 9 to 14) (size 15 to 20)
#    0.000    1.273    8.182    1.091    1.273    0.000 
#    0.000    0.000    0.000   22.909    0.000    0.000 
#    0.000    0.000    0.000    0.000    0.000    0.000 
#
# Total GULP energy -545267.765736 kJ/mol
# GULP energy per Si atom -12392.449221 kJ/mol
# Density = 2.134857 g / cm^3
# Si number density = 21.397270 Si / 1000 Ang^3
#
#
#
# Elastic Constant Matrix: (Units=GPa)
#
#
# Indices 1 2 3 4 5 6 
#
# 1 140.7840 37.7899 78.3528 0.0000 0.0000 0.0000
# 2 37.7899 60.9548 38.4537 0.0000 0.0000 0.0000
# 3 78.3528 38.4537 97.0356 0.0000 0.0000 0.0000
# 4 0.0000 0.0000 0.0000 14.1386 0.0000 0.0000
# 5 0.0000 0.0000 0.0000 0.0000 37.0887 0.0000
# 6 0.0000 0.0000 0.0000 0.0000 0.0000 29.6458
#
#
#
# Elastic Compliance Matrix: (Units=1/GPa)
#
#
# Indices 1 2 3 4 5 6 
#
# 1 0.013068 -0.001927 -0.009788 0.000000 0.000000 0.000000
# 2 -0.001927 0.022158 -0.007225 0.000000 0.000000 0.000000
# 3 -0.009788 -0.007225 0.021073 0.000000 0.000000 0.000000
# 4 0.000000 0.000000 0.000000 0.070728 0.000000 0.000000
# 5 0.000000 0.000000 0.000000 0.000000 0.026962 0.000000
# 6 0.000000 0.000000 0.000000 0.000000 0.000000 0.033732
#
#
# Mechanical properties :
#
#
# Convention : Reuss Voigt Hill
#
# Bulk Modulus (GPa) = 54.29452 67.55192 60.92322
# Shear Modulus (GPa) = 21.57583 25.78648 23.68116
#
# Velocity S-wave (km/s) = 3.17889 3.47526 3.33038
# Velocity P-wave (km/s) = 6.23726 6.90957 6.58200
#
# Compressibility (1/GPa) = 0.01841807
#
# Stress axis : x y z
#
# Youngs Moduli (GPa) = 76.52316 45.13015 47.45501
#
# Poissons Ratio (x) = 0.08695 0.46451
# Poissons Ratio (y) = 0.14743 0.34288
# Poissons Ratio (z) = 0.74904 0.32608
#
# Static dielectric constant tensor:
#      x y z
#    x 4.414090 0.000000 0.000000 
#    y 0.000000 3.374170 0.000000 
#    z 0.000000 0.000000 3.917300 
# 
# 
# High freq. dielectric constant tensor:
#      x y z
#    x 1.851160 0.000000 0.000000 
#    y 0.000000 1.787180 0.000000 
#    z 0.000000 0.000000 1.838630 
# 
# From -- ./inp_files/37472.got.cif
#   From: 2010.03.12/outbox.cif.g09.slc.cpg/sg68_19_cif.got.tgz:37472.got - 2010.04.10 23:14:56.
