data_PCOD8282678
_publ_section_title
;
Structure prediction by ZEFSAII (Michael W. Deem and Ramdas Pophale) SiO2 
 PCOD8282678
Probable space group: C C C A
;
_chemical_formula_sum "Si O2"
_cell_formula_units_Z 116
_cell_length_a 25.852229
_cell_length_b 22.281197
_cell_length_c 9.381856
_cell_angle_alpha 90.000000
_cell_angle_beta 90.000000
_cell_angle_gamma 90.000000
_cell_volume 5404.123626
_symmetry_space_group_name_H-M "C C C A"
_symmetry_group_IT_number 68
_space_group.IT_coordinate_system_code '2'
_symmetry_cell_setting 'orthorhombic'
loop_
_space_group_symop_operation_xyz
x,y,z
-x,1/2-y,z
x,1/2-y,1/2-z
-x,y,1/2-z
-x,-y,-z
x,1/2+y,-z
-x,1/2+y,1/2+z
x,-y,1/2+z
1/2+x,1/2+y,z
1/2-x,-y,z
1/2+x,-y,1/2-z
1/2-x,1/2+y,1/2-z
1/2-x,1/2-y,-z
1/2+x,y,-z
1/2-x,y,1/2+z
1/2+x,1/2-y,1/2+z
loop_
_atom_site_type_symbol
_atom_site_label
_atom_site_fract_x
_atom_site_fract_y
_atom_site_fract_z
Si Si1 0.363110 0.189066 0.821537
Si Si2 0.495528 0.436836 0.923054
Si Si3 0.245283 0.638590 0.663424
Si Si4 0.383839 0.388132 0.936684
Si Si5 0.000000 0.750000 0.250000
Si Si6 0.931399 0.841577 0.423265
Si Si7 0.221443 0.561330 0.916189
Si Si8 0.143997 0.182084 0.796735
O O1 0.379517 0.250000 0.750000
O O2 0.301239 0.186126 0.842036
O O3 0.382665 0.134019 0.725561
O O4 0.392516 0.190067 0.969108
O O5 0.500000 0.440465 0.750000
O O6 0.500000 0.500000 0.000000
O O7 0.439827 0.413307 0.970668
O O8 0.538488 0.394514 0.995843
O O9 0.230733 0.578942 0.752632
O O10 0.254487 0.616353 0.503943
O O11 0.295609 0.670311 0.730295
O O12 0.370375 0.331714 0.039160
O O13 0.340162 0.440814 0.953208
O O14 0.969017 0.792149 0.357655
O O15 0.892534 0.863393 0.296460
O O16 0.250000 0.500000 0.954411
O O17 0.130120 0.250000 0.750000
#
# Coordination Sequence:
#
# PCOD8282678 Si02
#       8
#    16  16  16  16   4  16  16  16
#     4  11  23  41  67 101 137 184 220 292 356 432
#     4  12  29  51  72 102 138 190 238 303 360 429
#     4  10  22  39  64  97 140 175 229 277 350 430
#     4  10  24  45  64  99 141 172 238 290 352 425
#     4  12  28  44  74 108 136 192 234 318 344 442
#     4  12  26  45  73 100 143 179 249 285 368 420
#     4  10  21  40  64  94 131 177 228 285 344 413
#     4  11  22  41  68 103 140 186 227 289 352 436
#
# _framework density 21.46509
#
# number of rings (size 3 to 8) (size 9 to 14) (size 15 to 20)
#    0.000    1.103    2.069    3.310    4.828    2.207 
#    2.483    5.517    0.000    0.000    0.000    0.000 
#    0.000    0.000    0.000    0.000    0.000    0.000 
#
# Total GULP energy -718951.518143 kJ/mol
# GULP energy per Si atom -12395.715830 kJ/mol
# Density = 2.141623 g / cm^3
# Si number density = 21.465090 Si / 1000 Ang^3
#
#
#
# Elastic Constant Matrix: (Units=GPa)
#
#
# Indices 1 2 3 4 5 6 
#
# 1 153.5029 43.6796 44.9924 0.0000 0.0000 0.0000
# 2 43.6796 86.7411 28.0319 0.0000 0.0000 0.0000
# 3 44.9924 28.0319 108.1998 0.0000 0.0000 0.0000
# 4 0.0000 0.0000 0.0000 24.5893 0.0000 0.0000
# 5 0.0000 0.0000 0.0000 0.0000 42.5848 0.0000
# 6 0.0000 0.0000 0.0000 0.0000 0.0000 18.5417
#
#
#
# Elastic Compliance Matrix: (Units=1/GPa)
#
#
# Indices 1 2 3 4 5 6 
#
# 1 0.008204 -0.003306 -0.002555 0.000000 0.000000 0.000000
# 2 -0.003306 0.013914 -0.002230 0.000000 0.000000 0.000000
# 3 -0.002555 -0.002230 0.010882 0.000000 0.000000 0.000000
# 4 0.000000 0.000000 0.000000 0.040668 0.000000 0.000000
# 5 0.000000 0.000000 0.000000 0.000000 0.023483 0.000000
# 6 0.000000 0.000000 0.000000 0.000000 0.000000 0.053932
#
#
# Mechanical properties :
#
#
# Convention : Reuss Voigt Hill
#
# Bulk Modulus (GPa) = 59.45773 64.65017 62.05395
# Shear Modulus (GPa) = 28.92326 32.59249 30.75788
#
# Velocity S-wave (km/s) = 3.67475 3.90089 3.78951
# Velocity P-wave (km/s) = 6.76498 7.10446 6.93680
#
# Compressibility (1/GPa) = 0.01681867
#
# Stress axis : x y z
#
# Youngs Moduli (GPa) = 121.89120 71.87095 91.89131
#
# Poissons Ratio (x) = 0.23757 0.23479
# Poissons Ratio (y) = 0.40292 0.20494
# Poissons Ratio (z) = 0.31144 0.16029
#
# Static dielectric constant tensor:
#      x y z
#    x 4.205460 0.000000 0.000000 
#    y 0.000000 3.515830 0.000000 
#    z 0.000000 0.000000 4.698710 
# 
# 
# High freq. dielectric constant tensor:
#      x y z
#    x 1.862840 0.000000 0.000000 
#    y 0.000000 1.817200 0.000000 
#    z 0.000000 0.000000 1.861910 
# 
# From -- ./inp_files/9153.got.cif
#   From: 2010.03.12/outbox.cif.g09.slc.cpg/sg68_5_cif.got.tgz:9153.got - 2010.04.10 23:14:56.
