data_PCOD8282619
_publ_section_title
;
Structure prediction by ZEFSAII (Michael W. Deem and Ramdas Pophale) SiO2 
 PCOD8282619
Probable space group: C C C A
;
_chemical_formula_sum "Si O2"
_cell_formula_units_Z 80
_cell_length_a 17.404472
_cell_length_b 9.101004
_cell_length_c 23.807639
_cell_angle_alpha 90.000000
_cell_angle_beta 90.000000
_cell_angle_gamma 90.000000
_cell_volume 3771.086433
_symmetry_space_group_name_H-M "C C C A"
_symmetry_group_IT_number 68
_space_group.IT_coordinate_system_code '2'
_symmetry_cell_setting 'orthorhombic'
loop_
_space_group_symop_operation_xyz
x,y,z
-x,1/2-y,z
x,1/2-y,1/2-z
-x,y,1/2-z
-x,-y,-z
x,1/2+y,-z
-x,1/2+y,1/2+z
x,-y,1/2+z
1/2+x,1/2+y,z
1/2-x,-y,z
1/2+x,-y,1/2-z
1/2-x,1/2+y,1/2-z
1/2-x,1/2-y,-z
1/2+x,y,-z
1/2-x,y,1/2+z
1/2+x,1/2-y,1/2+z
loop_
_atom_site_type_symbol
_atom_site_label
_atom_site_fract_x
_atom_site_fract_y
_atom_site_fract_z
Si Si1 0.607184 0.859035 0.553145
Si Si2 0.527011 0.407176 0.812976
Si Si3 0.548225 0.069811 0.409515
Si Si4 0.819694 0.591182 0.868905
Si Si5 0.814939 0.125727 0.439987
O O1 0.518086 0.909618 0.542241
O O2 0.600602 0.716776 0.593833
O O3 0.663010 0.810649 0.501601
O O4 0.647357 0.999163 0.579606
O O5 0.500000 0.250000 0.835998
O O6 0.500000 0.435825 0.750000
O O7 0.493526 0.540032 0.850108
O O8 0.619398 0.397243 0.818258
O O9 0.602441 0.934586 0.422072
O O10 0.750000 0.500000 0.841894
O O11 0.791907 0.746765 0.895775
O O12 0.750000 0.000000 0.441385
#
# Coordination Sequence:
#
# PCOD8282619 Si02
#       5
#    16  16  16  16  16
#     4  10  22  37  60  90 134 170 215 257 316 383
#     4  10  21  43  73  91 117 166 218 272 334 394
#     4  10  21  39  60  93 122 166 219 270 312 388
#     4  11  23  40  63  97 135 168 211 273 324 381
#     4  12  23  37  60  91 134 181 217 254 320 389
#
# _framework density 21.214044999999999
#
# number of rings (size 3 to 8) (size 9 to 14) (size 15 to 20)
#    0.000    1.400    2.000    3.600    0.000    7.200 
#    0.000    9.000    4.400    0.000    0.000    0.000 
#    0.000    0.000    0.000    0.000    0.000    0.000 
#
# Total GULP energy -495561.748662 kJ/mol
# GULP energy per Si atom -12389.043717 kJ/mol
# Density = 2.116576 g / cm^3
# Si number density = 21.214045 Si / 1000 Ang^3
#
#
#
# Elastic Constant Matrix: (Units=GPa)
#
#
# Indices 1 2 3 4 5 6 
#
# 1 134.5093 51.0897 47.9660 0.0000 0.0000 0.0000
# 2 51.0897 120.0660 39.6014 0.0000 0.0000 0.0000
# 3 47.9660 39.6014 92.0428 0.0000 0.0000 0.0000
# 4 0.0000 0.0000 0.0000 -17.5479 0.0000 0.0000
# 5 0.0000 0.0000 0.0000 0.0000 22.9423 0.0000
# 6 0.0000 0.0000 0.0000 0.0000 0.0000 40.4305
#
#
#
# Elastic Compliance Matrix: (Units=1/GPa)
#
#
# Indices 1 2 3 4 5 6 
#
# 1 0.009949 -0.002941 -0.003919 0.000000 0.000000 0.000000
# 2 -0.002941 0.010575 -0.003018 0.000000 0.000000 0.000000
# 3 -0.003919 -0.003018 0.014205 0.000000 0.000000 0.000000
# 4 0.000000 0.000000 0.000000 -0.056987 0.000000 0.000000
# 5 0.000000 0.000000 0.000000 0.000000 0.043588 0.000000
# 6 0.000000 0.000000 0.000000 0.000000 0.000000 0.024734
#
#
# Mechanical properties :
#
#
# Convention : Reuss Voigt Hill
#
# Bulk Modulus (GPa) = 66.78117 69.32578 68.05347
# Shear Modulus (GPa) = 70.61038 23.02906 46.81972
#
# Velocity S-wave (km/s) = 5.77555 3.29835 4.70298
# Velocity P-wave (km/s) = 8.71918 6.87427 7.85110
#
# Compressibility (1/GPa) = 0.01497428
#
# Stress axis : x y z
#
# Youngs Moduli (GPa) = 100.51195 94.55961 70.39586
#
# Poissons Ratio (x) = 0.27807 0.27592
# Poissons Ratio (y) = 0.29557 0.21242
# Poissons Ratio (z) = 0.39396 0.28534
#
# Static dielectric constant tensor:
#      x y z
#    x 4.334770 0.000000 0.000000 
#    y 0.000000 3.994830 0.000000 
#    z 0.000000 0.000000 3.360850 
# 
# 
# High freq. dielectric constant tensor:
#      x y z
#    x 1.855020 0.000000 0.000000 
#    y 0.000000 1.849050 0.000000 
#    z 0.000000 0.000000 1.777640 
# 
# From -- ./inp_files/49154.got.cif
#   From: 2010.03.12/outbox.cif.g09.slc.cpg/sg68_25_cif.got.tgz:49154.got - 2010.04.10 23:14:56.
