data_PCOD8282594
_publ_section_title
;
Structure prediction by ZEFSAII (Michael W. Deem and Ramdas Pophale) SiO2 
 PCOD8282594
Probable space group: C C C A
;
_chemical_formula_sum "Si O2"
_cell_formula_units_Z 104
_cell_length_a 8.357953
_cell_length_b 22.696904
_cell_length_c 27.471346
_cell_angle_alpha 90.000000
_cell_angle_beta 90.000000
_cell_angle_gamma 90.000000
_cell_volume 5211.304910
_symmetry_space_group_name_H-M "C C C A"
_symmetry_group_IT_number 68
_space_group.IT_coordinate_system_code '2'
_symmetry_cell_setting 'orthorhombic'
loop_
_space_group_symop_operation_xyz
x,y,z
-x,1/2-y,z
x,1/2-y,1/2-z
-x,y,1/2-z
-x,-y,-z
x,1/2+y,-z
-x,1/2+y,1/2+z
x,-y,1/2+z
1/2+x,1/2+y,z
1/2-x,-y,z
1/2+x,-y,1/2-z
1/2-x,1/2+y,1/2-z
1/2-x,1/2-y,-z
1/2+x,y,-z
1/2-x,y,1/2+z
1/2+x,1/2-y,1/2+z
loop_
_atom_site_type_symbol
_atom_site_label
_atom_site_fract_x
_atom_site_fract_y
_atom_site_fract_z
Si Si1 0.500000 0.250000 0.169489
Si Si2 0.429794 0.525685 0.803360
Si Si3 0.069501 0.570361 0.453794
Si Si4 0.933097 0.068441 0.443437
Si Si5 0.422409 0.415589 0.657014
Si Si6 0.251300 0.750000 0.750000
Si Si7 0.932042 0.377175 0.862587
Si Si8 0.000000 0.652442 0.750000
O O1 0.648615 0.266948 0.202923
O O2 0.542387 0.193024 0.137542
O O3 0.500000 0.533285 0.750000
O O4 0.250000 0.500000 0.803287
O O5 0.551445 0.485104 0.834526
O O6 0.433049 0.589240 0.830107
O O7 0.050330 0.501765 0.441756
O O8 0.250972 0.589872 0.445030
O O9 0.025444 0.589174 0.508432
O O10 0.948137 0.604680 0.418711
O O11 0.009433 0.100105 0.396343
O O12 0.238986 0.395869 0.659460
O O13 0.523429 0.386469 0.701438
O O14 0.151565 0.692213 0.738222
#
# Coordination Sequence:
#
# PCOD8282594 Si02
#       8
#     8  16  16  16  16   8  16   8
#     4  11  26  42  66  90 126 176 230 263 318 368
#     4  12  26  39  59  91 133 172 208 266 336 394
#     4  10  21  39  65  93 133 170 210 271 321 397
#     4  10  21  38  64  99 129 168 213 260 338 389
#     4  12  23  40  63 100 132 168 209 268 333 395
#     4  10  24  46  62  88 122 182 230 272 298 382
#     4  12  25  42  64  93 132 173 218 268 322 389
#     4  11  24  42  66  92 134 169 226 264 326 379
#
# _framework density 19.956613999999998
#
# number of rings (size 3 to 8) (size 9 to 14) (size 15 to 20)
#    0.000    0.923    3.846    3.231    6.462    1.231 
#    0.000    0.000    0.000    5.538    0.000    0.000 
#    0.000    0.000    0.000    0.000    0.000    0.000 
#
# Total GULP energy -644821.439549 kJ/mol
# GULP energy per Si atom -12400.412299 kJ/mol
# Density = 1.991119 g / cm^3
# Si number density = 19.956614 Si / 1000 Ang^3
#
#
#
# Elastic Constant Matrix: (Units=GPa)
#
#
# Indices 1 2 3 4 5 6 
#
# 1 84.8191 31.2508 35.4657 0.0000 0.0000 0.0000
# 2 31.2508 87.7546 34.8724 0.0000 0.0000 0.0000
# 3 35.4657 34.8724 153.0321 0.0000 0.0000 0.0000
# 4 0.0000 0.0000 0.0000 23.3011 0.0000 0.0000
# 5 0.0000 0.0000 0.0000 0.0000 3743.2597 0.0000
# 6 0.0000 0.0000 0.0000 0.0000 0.0000 -3.1598
#
#
#
# Elastic Compliance Matrix: (Units=1/GPa)
#
#
# Indices 1 2 3 4 5 6 
#
# 1 0.014312 -0.004155 -0.002370 0.000000 0.000000 0.000000
# 2 -0.004155 0.013736 -0.002167 0.000000 0.000000 0.000000
# 3 -0.002370 -0.002167 0.007578 0.000000 0.000000 0.000000
# 4 0.000000 0.000000 0.000000 0.042916 0.000000 0.000000
# 5 0.000000 0.000000 0.000000 0.000000 0.000267 0.000000
# 6 0.000000 0.000000 0.000000 0.000000 0.000000 -0.316472
#
#
# Mechanical properties :
#
#
# Convention : Reuss Voigt Hill
#
# Bulk Modulus (GPa) = 54.82028 58.75374 56.78701
# Shear Modulus (GPa) = -23.34281 767.61464 372.13592
#
# Velocity S-wave (km/s) = -3.42377 19.63356 13.67031
# Velocity P-wave (km/s) = 3.44961 23.31252 16.66393
#
# Compressibility (1/GPa) = 0.01824142
#
# Stress axis : x y z
#
# Youngs Moduli (GPa) = 69.87363 72.80013 131.96623
#
# Poissons Ratio (x) = 0.30247 0.31276
# Poissons Ratio (y) = 0.29031 0.28601
# Poissons Ratio (z) = 0.16560 0.15778
#
# Static dielectric constant tensor:
#      x y z
#    x 3.685510 0.000000 0.000000 
#    y 0.000000 2.579750 0.000000 
#    z 0.000000 0.000000 3.722970 
# 
# 
# High freq. dielectric constant tensor:
#      x y z
#    x 1.788770 0.000000 0.000000 
#    y 0.000000 1.748300 0.000000 
#    z 0.000000 0.000000 1.787460 
# 
# From -- ./inp_files/54153.got.cif
#   From: 2010.03.12/outbox.cif.g09.slc.cpg/sg68_28_cif.got.tgz:54153.got - 2010.04.10 23:14:56.
