data_PCOD8282739
_publ_section_title
;
Structure prediction by ZEFSAII (Michael W. Deem and Ramdas Pophale) SiO2 
 PCOD8282739
Probable space group: C C C A
;
_chemical_formula_sum "Si O2"
_cell_formula_units_Z 68
_cell_length_a 8.700843
_cell_length_b 21.901714
_cell_length_c 16.149400
_cell_angle_alpha 90.000000
_cell_angle_beta 90.000000
_cell_angle_gamma 90.000000
_cell_volume 3077.484167
_symmetry_space_group_name_H-M "C C C A"
_symmetry_group_IT_number 68
_space_group.IT_coordinate_system_code '2'
_symmetry_cell_setting 'orthorhombic'
loop_
_space_group_symop_operation_xyz
x,y,z
-x,1/2-y,z
x,1/2-y,1/2-z
-x,y,1/2-z
-x,-y,-z
x,1/2+y,-z
-x,1/2+y,1/2+z
x,-y,1/2+z
1/2+x,1/2+y,z
1/2-x,-y,z
1/2+x,-y,1/2-z
1/2-x,1/2+y,1/2-z
1/2-x,1/2-y,-z
1/2+x,y,-z
1/2-x,y,1/2+z
1/2+x,1/2-y,1/2+z
loop_
_atom_site_type_symbol
_atom_site_label
_atom_site_fract_x
_atom_site_fract_y
_atom_site_fract_z
Si Si1 0.602395 0.168456 0.604820
Si Si2 0.908797 0.420273 0.663749
Si Si3 0.938113 0.553947 0.661884
Si Si4 0.948846 0.813832 0.060225
Si Si5 0.500000 0.250000 0.750000
O O1 0.559815 0.097558 0.617321
O O2 0.770294 0.173191 0.567609
O O3 0.481914 0.193274 0.537645
O O4 0.599898 0.205953 0.691010
O O5 0.933192 0.486663 0.619879
O O6 0.725591 0.412688 0.675127
O O7 0.000000 0.409959 0.750000
O O8 0.957449 0.369229 0.598884
O O9 0.000000 0.535566 0.750000
O O10 0.000000 0.750000 0.103480
#
# Coordination Sequence:
#
# PCOD8282739 Si02
#       5
#    16  16  16  16   4
#     4  12  26  46  72 101 140 182 229 285 349 412
#     4  10  23  41  67 102 139 183 235 284 346 410
#     4  10  21  42  68  98 139 184 233 287 339 412
#     4  12  27  44  69 101 142 178 224 292 343 413
#     4  12  28  44  74 100 134 188 224 268 344 416
#
# _framework density 22.095970000000001
#
# number of rings (size 3 to 8) (size 9 to 14) (size 15 to 20)
#    0.000    0.941    2.353    3.529    3.294    4.235 
#    0.000    0.000    0.000    0.000    0.000    0.000 
#    0.000    0.000    0.000    0.000    0.000    0.000 
#
# Total GULP energy -421468.302451 kJ/mol
# GULP energy per Si atom -12396.126543 kJ/mol
# Density = 2.204568 g / cm^3
# Si number density = 22.095970 Si / 1000 Ang^3
#
#
#
# Elastic Constant Matrix: (Units=GPa)
#
#
# Indices 1 2 3 4 5 6 
#
# 1 147.6078 61.7454 49.3357 0.0000 0.0000 0.0000
# 2 61.7454 165.9974 54.6438 0.0000 0.0000 0.0000
# 3 49.3357 54.6438 103.9950 0.0000 0.0000 0.0000
# 4 0.0000 0.0000 0.0000 38.8981 0.0000 0.0000
# 5 0.0000 0.0000 0.0000 0.0000 34.3807 0.0000
# 6 0.0000 0.0000 0.0000 0.0000 0.0000 32.4297
#
#
#
# Elastic Compliance Matrix: (Units=1/GPa)
#
#
# Indices 1 2 3 4 5 6 
#
# 1 0.008707 -0.002272 -0.002937 0.000000 0.000000 0.000000
# 2 -0.002272 0.007877 -0.003061 0.000000 0.000000 0.000000
# 3 -0.002937 -0.003061 0.012617 0.000000 0.000000 0.000000
# 4 0.000000 0.000000 0.000000 0.025708 0.000000 0.000000
# 5 0.000000 0.000000 0.000000 0.000000 0.029086 0.000000
# 6 0.000000 0.000000 0.000000 0.000000 0.000000 0.030836
#
#
# Mechanical properties :
#
#
# Convention : Reuss Voigt Hill
#
# Bulk Modulus (GPa) = 78.97871 83.22778 81.10324
# Shear Modulus (GPa) = 36.87557 37.93338 37.40447
#
# Velocity S-wave (km/s) = 4.08963 4.14787 4.11885
# Velocity P-wave (km/s) = 7.62372 7.79025 7.70744
#
# Compressibility (1/GPa) = 0.01266164
#
# Stress axis : x y z
#
# Youngs Moduli (GPa) = 114.85547 126.95333 79.25503
#
# Poissons Ratio (x) = 0.28842 0.23275
# Poissons Ratio (y) = 0.26093 0.24261
# Poissons Ratio (z) = 0.33730 0.38862
#
# Static dielectric constant tensor:
#      x y z
#    x 3.750890 0.000000 0.000000 
#    y 0.000000 4.386360 0.000000 
#    z 0.000000 0.000000 3.924870 
# 
# 
# High freq. dielectric constant tensor:
#      x y z
#    x 1.873120 0.000000 0.000000 
#    y 0.000000 1.898000 0.000000 
#    z 0.000000 0.000000 1.852740 
# 
# From -- ./inp_files/27984.got.cif
#   From: 2010.03.12/outbox.cif.g09.slc.cpg/sg68_14_cif.got.tgz:27984.got - 2010.04.10 23:14:56.
