data_PCOD8282239
_publ_section_title
;
Structure prediction by ZEFSAII (Michael W. Deem and Ramdas Pophale) SiO2 
 PCOD8282239
Probable space group: C C C A
;
_chemical_formula_sum "Si O2"
_cell_formula_units_Z 72
_cell_length_a 13.941769
_cell_length_b 12.678168
_cell_length_c 20.486351
_cell_angle_alpha 90.000000
_cell_angle_beta 90.000000
_cell_angle_gamma 90.000000
_cell_volume 3621.087293
_symmetry_space_group_name_H-M "C C C A"
_symmetry_group_IT_number 68
_space_group.IT_coordinate_system_code '2'
_symmetry_cell_setting 'orthorhombic'
loop_
_space_group_symop_operation_xyz
x,y,z
-x,1/2-y,z
x,1/2-y,1/2-z
-x,y,1/2-z
-x,-y,-z
x,1/2+y,-z
-x,1/2+y,1/2+z
x,-y,1/2+z
1/2+x,1/2+y,z
1/2-x,-y,z
1/2+x,-y,1/2-z
1/2-x,1/2+y,1/2-z
1/2-x,1/2-y,-z
1/2+x,y,-z
1/2-x,y,1/2+z
1/2+x,1/2-y,1/2+z
loop_
_atom_site_type_symbol
_atom_site_label
_atom_site_fract_x
_atom_site_fract_y
_atom_site_fract_z
Si Si1 0.500000 0.750000 0.044092
Si Si2 0.500000 0.600872 0.250000
Si Si3 0.638250 0.810184 0.350778
Si Si4 0.097858 0.941749 0.992564
Si Si5 0.750000 0.500000 0.098505
Si Si6 0.658215 0.064707 0.652302
O O1 0.564411 0.673313 0.089291
O O2 0.426294 0.682591 0.001334
O O3 0.422002 0.673231 0.285548
O O4 0.564167 0.535083 0.303064
O O5 0.679769 0.691027 0.347814
O O6 0.720952 0.899477 0.356736
O O7 0.164048 0.966302 0.052819
O O8 0.142457 0.971502 0.922384
O O9 0.000000 0.000000 0.000000
O O10 0.750000 0.000000 0.679487
#
# Coordination Sequence:
#
# PCOD8282239 Si02
#       6
#     8   8  16  16   8  16
#     4  10  20  37  60  88 118 167 198 238 316 352
#     4  12  21  44  66  87 124 159 214 254 295 374
#     4  11  22  39  63  91 119 163 206 250 300 365
#     4  11  21  38  58  88 128 154 198 248 303 359
#     4  12  24  38  64  96 124 158 210 252 302 374
#     4  11  23  38  64  94 119 162 204 254 306 357
#
# _framework density 19.88353
#
# number of rings (size 3 to 8) (size 9 to 14) (size 15 to 20)
#    0.000    0.889    7.778    1.333    1.556    5.333 
#    0.000    0.000    0.000    1.333    0.000    0.000 
#    0.000    0.000    0.000    0.000    0.000    0.000 
#
# Total GULP energy -446076.285705 kJ/mol
# GULP energy per Si atom -12391.007936 kJ/mol
# Density = 1.983827 g / cm^3
# Si number density = 19.883530 Si / 1000 Ang^3
#
#
#
# Elastic Constant Matrix: (Units=GPa)
#
#
# Indices 1 2 3 4 5 6 
#
# 1 122.9680 59.3530 45.8723 0.0000 0.0000 0.0000
# 2 59.3530 81.7020 41.0275 0.0000 0.0000 0.0000
# 3 45.8723 41.0275 79.0205 0.0000 0.0000 0.0000
# 4 0.0000 0.0000 0.0000 -14.5223 0.0000 0.0000
# 5 0.0000 0.0000 0.0000 0.0000 35.4561 0.0000
# 6 0.0000 0.0000 0.0000 0.0000 0.0000 41.4187
#
#
#
# Elastic Compliance Matrix: (Units=1/GPa)
#
#
# Indices 1 2 3 4 5 6 
#
# 1 0.013257 -0.007800 -0.003646 0.000000 0.000000 0.000000
# 2 -0.007800 0.021145 -0.006451 0.000000 0.000000 0.000000
# 3 -0.003646 -0.006451 0.018121 0.000000 0.000000 0.000000
# 4 0.000000 0.000000 0.000000 -0.068860 0.000000 0.000000
# 5 0.000000 0.000000 0.000000 0.000000 0.028204 0.000000
# 6 0.000000 0.000000 0.000000 0.000000 0.000000 0.024144
#
#
# Mechanical properties :
#
#
# Convention : Reuss Voigt Hill
#
# Bulk Modulus (GPa) = 59.77421 64.02178 61.89800
# Shear Modulus (GPa) = 64.61564 21.63303 43.12434
#
# Velocity S-wave (km/s) = 5.70680 3.30204 4.66214
# Velocity P-wave (km/s) = 8.57618 6.84151 7.75749
#
# Compressibility (1/GPa) = 0.01672962
#
# Stress axis : x y z
#
# Youngs Moduli (GPa) = 75.43127 47.29241 55.18505
#
# Poissons Ratio (x) = 0.36887 0.20122
# Poissons Ratio (y) = 0.58834 0.35598
# Poissons Ratio (z) = 0.27504 0.30507
#
# Static dielectric constant tensor:
#      x y z
#    x 3.681230 0.000000 0.000000 
#    y 0.000000 3.345030 0.000000 
#    z 0.000000 0.000000 3.593790 
# 
# 
# High freq. dielectric constant tensor:
#      x y z
#    x 1.774260 0.000000 0.000000 
#    y 0.000000 1.759650 0.000000 
#    z 0.000000 0.000000 1.777980 
# 
# From -- ./inp_files/30706.got.cif
#   From: 2010.03.12/outbox.cif.g09.slc.cpg/sg68_16_cif.got.tgz:30706.got - 2010.04.10 23:14:56.
