data_PCOD8282144
_publ_section_title
;
Structure prediction by ZEFSAII (Michael W. Deem and Ramdas Pophale) SiO2 
 PCOD8282144
Probable space group: C C C A
;
_chemical_formula_sum "Si O2"
_cell_formula_units_Z 128
_cell_length_a 17.905531
_cell_length_b 17.905530
_cell_length_c 20.914358
_cell_angle_alpha 90.000000
_cell_angle_beta 90.000000
_cell_angle_gamma 90.000000
_cell_volume 6705.310960
_symmetry_space_group_name_H-M "C C C A"
_symmetry_group_IT_number 68
_space_group.IT_coordinate_system_code '2'
_symmetry_cell_setting 'orthorhombic'
loop_
_space_group_symop_operation_xyz
x,y,z
-x,1/2-y,z
x,1/2-y,1/2-z
-x,y,1/2-z
-x,-y,-z
x,1/2+y,-z
-x,1/2+y,1/2+z
x,-y,1/2+z
1/2+x,1/2+y,z
1/2-x,-y,z
1/2+x,-y,1/2-z
1/2-x,1/2+y,1/2-z
1/2-x,1/2-y,-z
1/2+x,y,-z
1/2-x,y,1/2+z
1/2+x,1/2-y,1/2+z
loop_
_atom_site_type_symbol
_atom_site_label
_atom_site_fract_x
_atom_site_fract_y
_atom_site_fract_z
Si Si1 0.844352 0.216359 0.680359
Si Si2 0.561963 0.311963 0.942427
Si Si3 0.023485 0.529233 0.592809
Si Si4 0.626107 0.999436 0.475603
Si Si5 0.466359 0.094352 0.319641
Si Si6 0.439006 0.689006 0.913270
Si Si7 0.750564 0.876107 0.975603
Si Si8 0.279233 0.226515 0.907191
O O1 0.853812 0.250000 0.750000
O O2 0.888976 0.138976 0.677278
O O3 0.872710 0.274660 0.627024
O O4 0.757632 0.204272 0.661335
O O5 0.500000 0.250000 0.944464
O O6 0.529095 0.381719 0.903555
O O7 0.631719 0.279095 0.903555
O O8 0.586965 0.336965 0.015104
O O9 0.085637 0.499139 0.543873
O O10 0.045728 0.492368 0.661335
O O11 0.938775 0.504851 0.577112
O O12 0.677784 0.072216 0.463220
O O13 0.675051 0.925051 0.472093
O O14 0.500000 0.103812 0.250000
O O15 0.524660 0.122710 0.372976
O O16 0.500000 0.750000 0.927464
O O17 0.754850 0.811225 0.922888
O O18 0.750861 0.835637 0.043873
#
# Coordination Sequence:
#
# PCOD8282144 Si02
#       8
#    16  16  16  16  16  16  16  16
#     4  11  22  37  60  91 126 162 206 258 314 378
#     4  11  22  40  63  95 127 161 205 270 313 377
#     4  11  22  35  60  89 120 165 207 253 312 375
#     4  10  20  35  56  87 126 159 195 252 316 371
#     4  11  22  37  60  91 126 162 206 258 314 378
#     4   9  18  32  58  91 127 157 194 244 318 371
#     4  10  20  35  56  87 126 159 195 252 316 371
#     4  11  22  35  60  89 120 165 207 253 312 375
#
# _framework density 19.089345999999999
#
# number of rings (size 3 to 8) (size 9 to 14) (size 15 to 20)
#    0.000    1.500    2.500    4.500    1.750    2.000 
#    0.000    0.000    5.500    0.000    0.000    0.000 
#    0.000    0.000    0.000    0.000    0.000    0.000 
#
# Total GULP energy -793277.503081 kJ/mol
# GULP energy per Si atom -12394.960986 kJ/mol
# Density = 1.904590 g / cm^3
# Si number density = 19.089346 Si / 1000 Ang^3
#
#
#
# Elastic Constant Matrix: (Units=GPa)
#
#
# Indices 1 2 3 4 5 6 
#
# 1 131.4180 52.5912 48.6540 0.0000 0.0000 0.0000
# 2 52.5912 131.4180 48.6540 0.0000 0.0000 0.0000
# 3 48.6540 48.6540 40.2457 0.0000 0.0000 0.0000
# 4 0.0000 0.0000 0.0000 19.4171 0.0000 0.0000
# 5 0.0000 0.0000 0.0000 0.0000 19.4171 0.0000
# 6 0.0000 0.0000 0.0000 0.0000 0.0000 23.8288
#
#
#
# Elastic Compliance Matrix: (Units=1/GPa)
#
#
# Indices 1 2 3 4 5 6 
#
# 1 0.013876 0.001190 -0.018215 0.000000 0.000000 0.000000
# 2 0.001190 0.013876 -0.018215 0.000000 0.000000 0.000000
# 3 -0.018215 -0.018215 0.068887 0.000000 0.000000 0.000000
# 4 0.000000 0.000000 0.000000 0.051501 0.000000 0.000000
# 5 0.000000 0.000000 0.000000 0.000000 0.051501 0.000000
# 6 0.000000 0.000000 0.000000 0.000000 0.000000 0.041966
#
#
# Mechanical properties :
#
#
# Convention : Reuss Voigt Hill
#
# Bulk Modulus (GPa) = 38.22243 66.98668 52.60456
# Shear Modulus (GPa) = 15.58572 22.74477 19.16525
#
# Velocity S-wave (km/s) = 2.86048 3.45554 3.17200
# Velocity P-wave (km/s) = 5.56562 7.14761 6.40564
#
# Compressibility (1/GPa) = 0.02616265
#
# Stress axis : x y z
#
# Youngs Moduli (GPa) = 72.06472 72.06487 14.51645
#
# Poissons Ratio (x) = -0.08578 0.26441
# Poissons Ratio (y) = -0.08578 0.26441
# Poissons Ratio (z) = 1.31263 1.31263
#
# Static dielectric constant tensor:
#      x y z
#    x 3.621310 0.000000 0.000000 
#    y 0.000000 3.621310 0.000000 
#    z 0.000000 0.000000 3.189470 
# 
# 
# High freq. dielectric constant tensor:
#      x y z
#    x 1.754940 0.000000 0.000000 
#    y 0.000000 1.754940 0.000000 
#    z 0.000000 0.000000 1.700490 
# 
# From -- ./inp_files/39878.got.cif
#   From: 2010.03.12/outbox.cif.g09.slc.cpg/sg68_20_cif.got.tgz:39878.got - 2010.04.10 23:14:56.
