data_PCOD8282360
_publ_section_title
;
Structure prediction by ZEFSAII (Michael W. Deem and Ramdas Pophale) SiO2 
 PCOD8282360
Probable space group: C C C A
;
_chemical_formula_sum "Si O2"
_cell_formula_units_Z 112
_cell_length_a 16.283775
_cell_length_b 23.720847
_cell_length_c 13.598407
_cell_angle_alpha 90.000000
_cell_angle_beta 90.000000
_cell_angle_gamma 90.000000
_cell_volume 5252.587801
_symmetry_space_group_name_H-M "C C C A"
_symmetry_group_IT_number 68
_space_group.IT_coordinate_system_code '2'
_symmetry_cell_setting 'orthorhombic'
loop_
_space_group_symop_operation_xyz
x,y,z
-x,1/2-y,z
x,1/2-y,1/2-z
-x,y,1/2-z
-x,-y,-z
x,1/2+y,-z
-x,1/2+y,1/2+z
x,-y,1/2+z
1/2+x,1/2+y,z
1/2-x,-y,z
1/2+x,-y,1/2-z
1/2-x,1/2+y,1/2-z
1/2-x,1/2-y,-z
1/2+x,y,-z
1/2-x,y,1/2+z
1/2+x,1/2-y,1/2+z
loop_
_atom_site_type_symbol
_atom_site_label
_atom_site_fract_x
_atom_site_fract_y
_atom_site_fract_z
Si Si1 0.823978 0.698799 0.921979
Si Si2 0.920778 0.077064 0.463817
Si Si3 0.936776 0.607491 0.833002
Si Si4 0.197951 0.322276 0.426548
Si Si5 0.420367 0.410653 0.194228
Si Si6 0.155648 0.983341 0.708710
Si Si7 0.802592 0.309209 0.760850
O O1 0.900032 0.663294 0.882205
O O2 0.846695 0.762675 0.954208
O O3 0.757398 0.713401 0.842445
O O4 0.777479 0.663942 0.006366
O O5 0.876880 0.135726 0.441496
O O6 0.929273 0.068295 0.581133
O O7 0.866748 0.029996 0.405550
O O8 0.012631 0.075014 0.418190
O O9 0.866963 0.568083 0.783258
O O10 0.000000 0.628027 0.750000
O O11 0.239714 0.331122 0.321396
O O12 0.500000 0.386235 0.250000
O O13 0.397173 0.463583 0.259983
O O14 0.355718 0.360416 0.199208
O O15 0.250000 0.000000 0.719441
O O16 0.854719 0.250000 0.750000
#
# Coordination Sequence:
#
# PCOD8282360 Si02
#       7
#    16  16  16  16  16  16  16
#     4  10  20  39  65  97 131 174 221 267 325 389
#     4  11  24  44  65  97 134 169 221 274 329 400
#     4  10  22  41  67  97 133 169 218 281 335 397
#     4  10  21  38  66  95 132 176 218 268 321 391
#     4  12  26  43  65  93 132 173 214 267 338 393
#     4  11  25  46  70  95 124 170 222 278 333 401
#     4  10  21  41  66  95 130 171 221 270 323 396
#
# _framework density 21.322823
#
# number of rings (size 3 to 8) (size 9 to 14) (size 15 to 20)
#    0.000    1.429    1.429    4.714    2.000    3.714 
#    0.000    3.571    0.000    0.000    0.000    0.000 
#    0.000    0.000    0.000    0.000    0.000    0.000 
#
# Total GULP energy -693752.823068 kJ/mol
# GULP energy per Si atom -12388.443269 kJ/mol
# Density = 2.127429 g / cm^3
# Si number density = 21.322823 Si / 1000 Ang^3
#
#
#
# Elastic Constant Matrix: (Units=GPa)
#
#
# Indices 1 2 3 4 5 6 
#
# 1 104.5143 32.5793 38.0281 0.0000 0.0000 0.0000
# 2 32.5793 99.8955 17.7039 0.0000 0.0000 0.0000
# 3 38.0281 17.7039 131.1487 0.0000 0.0000 0.0000
# 4 0.0000 0.0000 0.0000 24.7021 0.0000 0.0000
# 5 0.0000 0.0000 0.0000 0.0000 20.7198 0.0000
# 6 0.0000 0.0000 0.0000 0.0000 0.0000 19.1458
#
#
#
# Elastic Compliance Matrix: (Units=1/GPa)
#
#
# Indices 1 2 3 4 5 6 
#
# 1 0.011660 -0.003282 -0.002938 0.000000 0.000000 0.000000
# 2 -0.003282 0.011180 -0.000557 0.000000 0.000000 0.000000
# 3 -0.002938 -0.000557 0.008552 0.000000 0.000000 0.000000
# 4 0.000000 0.000000 0.000000 0.040482 0.000000 0.000000
# 5 0.000000 0.000000 0.000000 0.000000 0.048263 0.000000
# 6 0.000000 0.000000 0.000000 0.000000 0.000000 0.052231
#
#
# Mechanical properties :
#
#
# Convention : Reuss Voigt Hill
#
# Bulk Modulus (GPa) = 56.06366 56.90901 56.48633
# Shear Modulus (GPa) = 26.05947 29.39668 27.72808
#
# Velocity S-wave (km/s) = 3.49970 3.71704 3.61001
# Velocity P-wave (km/s) = 6.53303 6.72079 6.62758
#
# Compressibility (1/GPa) = 0.01783687
#
# Stress axis : x y z
#
# Youngs Moduli (GPa) = 85.76216 89.44820 116.93065
#
# Poissons Ratio (x) = 0.29358 0.34354
# Poissons Ratio (y) = 0.28148 0.06519
# Poissons Ratio (z) = 0.25196 0.04987
#
# Static dielectric constant tensor:
#      x y z
#    x 0.000000 0.000000 0.000000 
#    y 0.000000 0.000000 0.000000 
#    z 0.000000 0.000000 0.000000 
# 
# 
# High freq. dielectric constant tensor:
#      x y z
#    x 1.822970 0.000000 0.000000 
#    y 0.000000 1.842530 0.000000 
#    z 0.000000 0.000000 1.850500 
# 
# From -- ./inp_files/22609.got.cif
#   From: 2010.03.12/outbox.cif.g09.slc.cpg/sg68_12_cif.got.tgz:22609.got - 2010.04.10 23:14:56.
