data_PCOD8282201
_publ_section_title
;
Structure prediction by ZEFSAII (Michael W. Deem and Ramdas Pophale) SiO2 
 PCOD8282201
Probable space group: C C C A
;
_chemical_formula_sum "Si O2"
_cell_formula_units_Z 96
_cell_length_a 24.164476
_cell_length_b 9.177534
_cell_length_c 22.500649
_cell_angle_alpha 90.000000
_cell_angle_beta 90.000000
_cell_angle_gamma 90.000000
_cell_volume 4989.975681
_symmetry_space_group_name_H-M "C C C A"
_symmetry_group_IT_number 68
_space_group.IT_coordinate_system_code '2'
_symmetry_cell_setting 'orthorhombic'
loop_
_space_group_symop_operation_xyz
x,y,z
-x,1/2-y,z
x,1/2-y,1/2-z
-x,y,1/2-z
-x,-y,-z
x,1/2+y,-z
-x,1/2+y,1/2+z
x,-y,1/2+z
1/2+x,1/2+y,z
1/2-x,-y,z
1/2+x,-y,1/2-z
1/2-x,1/2+y,1/2-z
1/2-x,1/2-y,-z
1/2+x,y,-z
1/2-x,y,1/2+z
1/2+x,1/2-y,1/2+z
loop_
_atom_site_type_symbol
_atom_site_label
_atom_site_fract_x
_atom_site_fract_y
_atom_site_fract_z
Si Si1 0.197334 0.104132 0.100456
Si Si2 0.609583 0.497309 0.510096
Si Si3 0.810544 0.448671 0.713074
Si Si4 0.656236 0.149426 0.167525
Si Si5 0.562687 0.765905 0.577189
Si Si6 0.800771 0.075327 0.075599
O O1 0.218012 0.269688 0.100929
O O2 0.250000 0.000000 0.090502
O O3 0.168530 0.065449 0.163984
O O4 0.152233 0.094286 0.049049
O O5 0.576628 0.607203 0.551595
O O6 0.569228 0.387416 0.474559
O O7 0.644695 0.593274 0.463749
O O8 0.750000 0.500000 0.735645
O O9 0.853129 0.431950 0.768493
O O10 0.806624 0.292762 0.679154
O O11 0.599023 0.193881 0.135075
O O12 0.690325 0.037217 0.128781
O O13 0.500000 0.750000 0.598987
O O14 0.750000 0.000000 0.038644
#
# Coordination Sequence:
#
# PCOD8282201 Si02
#       6
#    16  16  16  16  16  16
#     4  11  22  34  57  87 124 167 193 239 299 372
#     4  11  22  38  59  88 119 155 202 251 309 364
#     4  10  20  36  60  84 120 158 193 237 290 365
#     4  10  22  39  58  87 121 155 204 246 295 360
#     4  11  23  42  64  87 116 157 211 263 307 351
#     4  11  22  34  56  88 125 160 192 236 299 372
#
# _framework density 19.238572000000001
#
# number of rings (size 3 to 8) (size 9 to 14) (size 15 to 20)
#    0.000    1.333    3.333    3.500    2.333    4.667 
#    0.000    1.667    0.000    0.000    0.000    0.000 
#   10.000    0.000    0.000    0.000    0.000    0.000 
#
# Total GULP energy -594843.136684 kJ/mol
# GULP energy per Si atom -12392.565348 kJ/mol
# Density = 1.919478 g / cm^3
# Si number density = 19.238572 Si / 1000 Ang^3
#
#
#
# Elastic Constant Matrix: (Units=GPa)
#
#
# Indices 1 2 3 4 5 6 
#
# 1 104.3078 54.3057 41.2007 0.0000 0.0000 0.0000
# 2 54.3057 121.2608 37.3742 0.0000 0.0000 0.0000
# 3 41.2007 37.3742 101.3047 0.0000 0.0000 0.0000
# 4 0.0000 0.0000 0.0000 14.2213 0.0000 0.0000
# 5 0.0000 0.0000 0.0000 0.0000 22.6064 0.0000
# 6 0.0000 0.0000 0.0000 0.0000 0.0000 24.2147
#
#
#
# Elastic Compliance Matrix: (Units=1/GPa)
#
#
# Indices 1 2 3 4 5 6 
#
# 1 0.013638 -0.004963 -0.003716 0.000000 0.000000 0.000000
# 2 -0.004963 0.011110 -0.002081 0.000000 0.000000 0.000000
# 3 -0.003716 -0.002081 0.012150 0.000000 0.000000 0.000000
# 4 0.000000 0.000000 0.000000 0.070317 0.000000 0.000000
# 5 0.000000 0.000000 0.000000 0.000000 0.044235 0.000000
# 6 0.000000 0.000000 0.000000 0.000000 0.000000 0.041297
#
#
# Mechanical properties :
#
#
# Convention : Reuss Voigt Hill
#
# Bulk Modulus (GPa) = 65.01689 65.84829 65.43259
# Shear Modulus (GPa) = 22.79009 25.14133 23.96571
#
# Velocity S-wave (km/s) = 3.44554 3.61892 3.53329
# Velocity P-wave (km/s) = 7.04964 7.19469 7.12254
#
# Compressibility (1/GPa) = 0.01538062
#
# Stress axis : x y z
#
# Youngs Moduli (GPa) = 73.32226 90.00553 82.30390
#
# Poissons Ratio (x) = 0.44666 0.30583
# Poissons Ratio (y) = 0.36387 0.17125
# Poissons Ratio (z) = 0.27246 0.18727
#
# Static dielectric constant tensor:
#      x y z
#    x 3.234420 0.000000 0.000000 
#    y 0.000000 3.615550 0.000000 
#    z 0.000000 0.000000 3.733720 
# 
# 
# High freq. dielectric constant tensor:
#      x y z
#    x 1.709360 0.000000 0.000000 
#    y 0.000000 1.763820 0.000000 
#    z 0.000000 0.000000 1.755660 
# 
# From -- ./inp_files/43408.got.cif
#   From: 2010.03.12/outbox.cif.g09.slc.cpg/sg68_22_cif.got.tgz:43408.got - 2010.04.10 23:14:56.
