data_PCOD8282937
_publ_section_title
;
Structure prediction by ZEFSAII (Michael W. Deem and Ramdas Pophale) SiO2 
 PCOD8282937
Probable space group: C C C A
;
_chemical_formula_sum "Si O2"
_cell_formula_units_Z 72
_cell_length_a 22.084337
_cell_length_b 13.580466
_cell_length_c 10.108263
_cell_angle_alpha 90.000000
_cell_angle_beta 90.000000
_cell_angle_gamma 90.000000
_cell_volume 3031.625639
_symmetry_space_group_name_H-M "C C C A"
_symmetry_group_IT_number 68
_space_group.IT_coordinate_system_code '2'
_symmetry_cell_setting 'orthorhombic'
loop_
_space_group_symop_operation_xyz
x,y,z
-x,1/2-y,z
x,1/2-y,1/2-z
-x,y,1/2-z
-x,-y,-z
x,1/2+y,-z
-x,1/2+y,1/2+z
x,-y,1/2+z
1/2+x,1/2+y,z
1/2-x,-y,z
1/2+x,-y,1/2-z
1/2-x,1/2+y,1/2-z
1/2-x,1/2-y,-z
1/2+x,y,-z
1/2-x,y,1/2+z
1/2+x,1/2-y,1/2+z
loop_
_atom_site_type_symbol
_atom_site_label
_atom_site_fract_x
_atom_site_fract_y
_atom_site_fract_z
Si Si1 0.500000 0.750000 0.522023
Si Si2 0.250000 0.000000 0.228326
Si Si3 0.714759 0.307259 0.613700
Si Si4 0.913179 0.098026 0.418348
Si Si5 0.909244 0.250000 0.750000
Si Si6 0.622993 0.962939 0.687270
O O1 0.474712 0.662648 0.427673
O O2 0.447058 0.783652 0.621179
O O3 0.251800 0.092189 0.130208
O O4 0.309104 0.994887 0.321143
O O5 0.716562 0.250000 0.750000
O O6 0.750000 0.250000 0.500000
O O7 0.644731 0.328897 0.578210
O O8 0.909522 0.025942 0.545974
O O9 0.915865 0.027749 0.290581
O O10 0.870109 0.153102 0.720954
#
# Coordination Sequence:
#
# PCOD8282937 Si02
#       6
#     8   8  16  16   8  16
#     4   9  20  42  69  96 132 183 241 298 356 435
#     4  10  24  40  64 106 140 182 236 288 350 438
#     4  11  25  43  71 103 145 192 232 293 359 429
#     4  10  23  44  70 102 140 183 240 294 357 429
#     4   9  20  40  72  96 134 188 244 289 370 431
#     4  10  22  41  68 103 138 188 234 297 354 433
#
# _framework density 23.749634
#
# number of rings (size 3 to 8) (size 9 to 14) (size 15 to 20)
#    0.000    2.000    0.000    1.333    7.778   12.444 
#    2.000    0.556    0.000    1.333    0.000    0.000 
#    0.000    0.000    0.000    0.000    0.000    0.000 
#
# Total GULP energy -446260.054317 kJ/mol
# GULP energy per Si atom -12396.112620 kJ/mol
# Density = 2.369558 g / cm^3
# Si number density = 23.749634 Si / 1000 Ang^3
#
#
#
# Elastic Constant Matrix: (Units=GPa)
#
#
# Indices 1 2 3 4 5 6 
#
# 1 86.7458 48.0731 49.4696 0.0000 0.0000 0.0000
# 2 48.0731 133.0688 78.6123 0.0000 0.0000 0.0000
# 3 49.4696 78.6123 168.4097 0.0000 0.0000 0.0000
# 4 0.0000 0.0000 0.0000 43.6925 0.0000 0.0000
# 5 0.0000 0.0000 0.0000 0.0000 9.4690 0.0000
# 6 0.0000 0.0000 0.0000 0.0000 0.0000 36.4422
#
#
#
# Elastic Compliance Matrix: (Units=1/GPa)
#
#
# Indices 1 2 3 4 5 6 
#
# 1 0.015212 -0.003943 -0.002628 0.000000 0.000000 0.000000
# 2 -0.003943 0.011398 -0.004162 0.000000 0.000000 0.000000
# 3 -0.002628 -0.004162 0.008653 0.000000 0.000000 0.000000
# 4 0.000000 0.000000 0.000000 0.022887 0.000000 0.000000
# 5 0.000000 0.000000 0.000000 0.000000 0.105608 0.000000
# 6 0.000000 0.000000 0.000000 0.000000 0.000000 0.027441
#
#
# Mechanical properties :
#
#
# Convention : Reuss Voigt Hill
#
# Bulk Modulus (GPa) = 72.48290 82.28161 77.38226
# Shear Modulus (GPa) = 23.01346 32.05868 27.53607
#
# Velocity S-wave (km/s) = 3.11626 3.67803 3.40874
# Velocity P-wave (km/s) = 6.59802 7.26346 6.93872
#
# Compressibility (1/GPa) = 0.01379636
#
# Stress axis : x y z
#
# Youngs Moduli (GPa) = 65.73889 87.73147 115.56959
#
# Poissons Ratio (x) = 0.34593 0.30369
# Poissons Ratio (y) = 0.25921 0.48105
# Poissons Ratio (z) = 0.17275 0.36518
#
# Static dielectric constant tensor:
#      x y z
#    x 4.241590 0.000000 0.000000 
#    y 0.000000 4.372890 0.000000 
#    z 0.000000 0.000000 4.260620 
# 
# 
# High freq. dielectric constant tensor:
#      x y z
#    x 1.933570 0.000000 0.000000 
#    y 0.000000 1.941200 0.000000 
#    z 0.000000 0.000000 1.945220 
# 
# From -- ./inp_files/16187.got.cif
#   From: 2010.03.12/outbox.cif.g09.slc.cpg/sg68_9_cif.got.tgz:16187.got - 2010.04.10 23:14:56.
