data_PCOD8282697
_publ_section_title
;
Structure prediction by ZEFSAII (Michael W. Deem and Ramdas Pophale) SiO2 
 PCOD8282697
Probable space group: C C C A
;
_chemical_formula_sum "Si O2"
_cell_formula_units_Z 120
_cell_length_a 23.476090
_cell_length_b 21.573270
_cell_length_c 11.592620
_cell_angle_alpha 90.000000
_cell_angle_beta 90.000000
_cell_angle_gamma 90.000000
_cell_volume 5871.152281
_symmetry_space_group_name_H-M "C C C A"
_symmetry_group_IT_number 68
_space_group.IT_coordinate_system_code '2'
_symmetry_cell_setting 'orthorhombic'
loop_
_space_group_symop_operation_xyz
x,y,z
-x,1/2-y,z
x,1/2-y,1/2-z
-x,y,1/2-z
-x,-y,-z
x,1/2+y,-z
-x,1/2+y,1/2+z
x,-y,1/2+z
1/2+x,1/2+y,z
1/2-x,-y,z
1/2+x,-y,1/2-z
1/2-x,1/2+y,1/2-z
1/2-x,1/2-y,-z
1/2+x,y,-z
1/2-x,y,1/2+z
1/2+x,1/2-y,1/2+z
loop_
_atom_site_type_symbol
_atom_site_label
_atom_site_fract_x
_atom_site_fract_y
_atom_site_fract_z
Si Si1 0.372816 0.070766 0.726161
Si Si2 0.901243 0.220551 0.507075
Si Si3 0.194155 0.373826 0.472011
Si Si4 0.598255 0.360239 0.942137
Si Si5 0.311711 0.635399 0.874552
Si Si6 0.478934 0.129770 0.628547
Si Si7 0.635149 0.250000 0.250000
Si Si8 0.694075 0.461440 0.314851
O O1 0.322032 0.085315 0.638798
O O2 0.369251 0.123111 0.824573
O O3 0.434175 0.074314 0.659068
O O4 0.360796 0.004686 0.786974
O O5 0.840861 0.189891 0.476269
O O6 0.905844 0.286292 0.445403
O O7 0.951961 0.179689 0.457059
O O8 0.905641 0.226179 0.646497
O O9 0.260068 0.353268 0.464233
O O10 0.178634 0.415525 0.581916
O O11 0.535700 0.393270 0.938978
O O12 0.632378 0.384449 0.053391
O O13 0.323712 0.696006 0.797712
O O14 0.292827 0.578093 0.797792
O O15 0.500000 0.160147 0.750000
O O16 0.750000 0.500000 0.349378
#
# Coordination Sequence:
#
# PCOD8282697 Si02
#       8
#    16  16  16  16  16  16   8  16
#     4  10  23  38  65  95 127 165 226 276 320 393
#     4  10  21  40  67  96 132 173 215 278 332 410
#     4  11  24  40  64  96 125 173 224 270 338 404
#     4  10  22  39  66  96 128 169 211 272 338 390
#     4  11  24  40  63  92 132 176 218 277 333 412
#     4   9  20  41  66  97 126 166 225 273 325 397
#     4  10  22  42  59  94 138 168 215 274 350 404
#     4  12  24  41  64  89 128 176 223 268 326 404
#
# _framework density 20.438918000000001
#
# number of rings (size 3 to 8) (size 9 to 14) (size 15 to 20)
#    0.000    1.600    2.667    1.200    3.733    9.600 
#    0.000    6.000    8.800    0.000    0.000    0.000 
#    0.000    0.000    0.000    0.000    0.000    0.000 
#
# Total GULP energy -743797.937786 kJ/mol
# GULP energy per Si atom -12396.632296 kJ/mol
# Density = 2.039240 g / cm^3
# Si number density = 20.438918 Si / 1000 Ang^3
#
#
#
# Elastic Constant Matrix: (Units=GPa)
#
#
# Indices 1 2 3 4 5 6 
#
# 1 120.6876 41.0250 52.8560 0.0000 0.0000 0.0000
# 2 41.0250 59.1097 29.9531 0.0000 0.0000 0.0000
# 3 52.8560 29.9531 102.4104 0.0000 0.0000 0.0000
# 4 0.0000 0.0000 0.0000 34.3343 0.0000 0.0000
# 5 0.0000 0.0000 0.0000 0.0000 33.0600 0.0000
# 6 0.0000 0.0000 0.0000 0.0000 0.0000 21.7832
#
#
#
# Elastic Compliance Matrix: (Units=1/GPa)
#
#
# Indices 1 2 3 4 5 6 
#
# 1 0.012434 -0.006313 -0.004571 0.000000 0.000000 0.000000
# 2 -0.006313 0.023067 -0.003488 0.000000 0.000000 0.000000
# 3 -0.004571 -0.003488 0.013144 0.000000 0.000000 0.000000
# 4 0.000000 0.000000 0.000000 0.029125 0.000000 0.000000
# 5 0.000000 0.000000 0.000000 0.000000 0.030248 0.000000
# 6 0.000000 0.000000 0.000000 0.000000 0.000000 0.045907
#
#
# Mechanical properties :
#
#
# Convention : Reuss Voigt Hill
#
# Bulk Modulus (GPa) = 50.25122 58.87511 54.56317
# Shear Modulus (GPa) = 26.41263 28.39373 27.40318
#
# Velocity S-wave (km/s) = 3.59872 3.73124 3.66558
# Velocity P-wave (km/s) = 6.47357 6.88700 6.68348
#
# Compressibility (1/GPa) = 0.01990001
#
# Stress axis : x y z
#
# Youngs Moduli (GPa) = 80.42612 43.35166 76.08087
#
# Poissons Ratio (x) = 0.27370 0.34775
# Poissons Ratio (y) = 0.50777 0.26538
# Poissons Ratio (z) = 0.36761 0.15122
#
# Static dielectric constant tensor:
#      x y z
#    x 3.885810 0.000000 0.000000 
#    y 0.000000 3.573530 0.000000 
#    z 0.000000 0.000000 3.898330 
# 
# 
# High freq. dielectric constant tensor:
#      x y z
#    x 1.799640 0.000000 0.000000 
#    y 0.000000 1.780460 0.000000 
#    z 0.000000 0.000000 1.811520 
# 
# From -- ./inp_files/15802.got.cif
#   From: 2010.03.12/outbox.cif.g09.slc.cpg/sg68_8_cif.got.tgz:15802.got - 2010.04.10 23:14:56.
