data_PCOD8282910
_publ_section_title
;
Structure prediction by ZEFSAII (Michael W. Deem and Ramdas Pophale) SiO2 
 PCOD8282910
Probable space group: C C C A
;
_chemical_formula_sum "Si O2"
_cell_formula_units_Z 120
_cell_length_a 24.476945
_cell_length_b 20.925859
_cell_length_c 11.870925
_cell_angle_alpha 90.000000
_cell_angle_beta 90.000000
_cell_angle_gamma 90.000000
_cell_volume 6080.300841
_symmetry_space_group_name_H-M "C C C A"
_symmetry_group_IT_number 68
_space_group.IT_coordinate_system_code '2'
_symmetry_cell_setting 'orthorhombic'
loop_
_space_group_symop_operation_xyz
x,y,z
-x,1/2-y,z
x,1/2-y,1/2-z
-x,y,1/2-z
-x,-y,-z
x,1/2+y,-z
-x,1/2+y,1/2+z
x,-y,1/2+z
1/2+x,1/2+y,z
1/2-x,-y,z
1/2+x,-y,1/2-z
1/2-x,1/2+y,1/2-z
1/2-x,1/2-y,-z
1/2+x,y,-z
1/2-x,y,1/2+z
1/2+x,1/2-y,1/2+z
loop_
_atom_site_type_symbol
_atom_site_label
_atom_site_fract_x
_atom_site_fract_y
_atom_site_fract_z
Si Si1 0.000000 0.878673 0.750000
Si Si2 0.694190 0.564758 0.657183
Si Si3 0.678064 0.923753 0.386244
Si Si4 0.869251 0.585477 0.369986
Si Si5 0.386887 0.868298 0.517409
Si Si6 0.113676 0.323457 0.233721
Si Si7 0.049030 0.976126 0.926460
Si Si8 0.559065 0.176299 0.269786
O O1 0.948128 0.833754 0.781358
O O2 0.978599 0.924276 0.653368
O O3 0.663404 0.498261 0.625325
O O4 0.757241 0.573318 0.630404
O O5 0.682588 0.569552 0.790883
O O6 0.669754 0.622920 0.584052
O O7 0.655620 0.900237 0.507181
O O8 0.652646 0.875549 0.294128
O O9 0.916666 0.531500 0.364743
O O10 0.897156 0.648021 0.317620
O O11 0.380376 0.832502 0.399809
O O12 0.408189 0.940210 0.504415
O O13 0.427737 0.830664 0.598343
O O14 0.132026 0.250000 0.250000
O O15 0.000000 0.000000 0.000000
O O16 0.556101 0.250000 0.250000
O O17 0.500000 0.143848 0.250000
#
# Coordination Sequence:
#
# PCOD8282910 Si02
#       8
#     8  16  16  16  16  16  16  16
#     4  10  23  38  60  92 129 168 206 256 324 388
#     4  10  23  41  66  95 129 161 220 277 338 379
#     4  11  24  40  69  95 127 174 215 272 329 396
#     4  11  23  39  65  97 130 169 218 272 333 391
#     4  10  22  41  61  91 128 164 207 282 319 377
#     4  11  25  44  64  93 133 176 219 258 324 401
#     4  11  21  34  63  96 132 160 206 266 333 389
#     4  10  23  42  63  91 127 175 218 258 320 401
#
# _framework density 19.735866000000001
#
# number of rings (size 3 to 8) (size 9 to 14) (size 15 to 20)
#    0.000    1.467    1.333    3.400    8.400    2.133 
#    4.800    3.333    0.000    0.000    0.000    0.000 
#    0.000    0.000    0.000    0.000    0.000    0.000 
#
# Total GULP energy -743382.092375 kJ/mol
# GULP energy per Si atom -12389.701540 kJ/mol
# Density = 1.969095 g / cm^3
# Si number density = 19.735866 Si / 1000 Ang^3
#
#
#
# Elastic Constant Matrix: (Units=GPa)
#
#
# Indices 1 2 3 4 5 6 
#
# 1 86.6228 44.8617 54.1180 0.0000 0.0000 0.0000
# 2 44.8617 86.3170 40.4225 0.0000 0.0000 0.0000
# 3 54.1180 40.4225 151.6416 0.0000 0.0000 0.0000
# 4 0.0000 0.0000 0.0000 14.6484 0.0000 0.0000
# 5 0.0000 0.0000 0.0000 0.0000 37.0923 0.0000
# 6 0.0000 0.0000 0.0000 0.0000 0.0000 30.5905
#
#
#
# Elastic Compliance Matrix: (Units=1/GPa)
#
#
# Indices 1 2 3 4 5 6 
#
# 1 0.018166 -0.007319 -0.004532 0.000000 0.000000 0.000000
# 2 -0.007319 0.016187 -0.001703 0.000000 0.000000 0.000000
# 3 -0.004532 -0.001703 0.008666 0.000000 0.000000 0.000000
# 4 0.000000 0.000000 0.000000 0.068267 0.000000 0.000000
# 5 0.000000 0.000000 0.000000 0.000000 0.026960 0.000000
# 6 0.000000 0.000000 0.000000 0.000000 0.000000 0.032690
#
#
# Mechanical properties :
#
#
# Convention : Reuss Voigt Hill
#
# Bulk Modulus (GPa) = 62.85115 67.04288 64.94702
# Shear Modulus (GPa) = 24.58846 28.81152 26.69999
#
# Velocity S-wave (km/s) = 3.53353 3.82495 3.68212
# Velocity P-wave (km/s) = 6.96872 7.31784 7.14541
#
# Compressibility (1/GPa) = 0.01591061
#
# Stress axis : x y z
#
# Youngs Moduli (GPa) = 55.04655 61.77939 115.39563
#
# Poissons Ratio (x) = 0.45218 0.52300
# Poissons Ratio (y) = 0.40290 0.19648
# Poissons Ratio (z) = 0.24948 0.10519
#
# Static dielectric constant tensor:
#      x y z
#    x 5.249080 0.000000 0.000000 
#    y 0.000000 3.290170 0.000000 
#    z 0.000000 0.000000 3.486450 
# 
# 
# High freq. dielectric constant tensor:
#      x y z
#    x 1.776020 0.000000 0.000000 
#    y 0.000000 1.763680 0.000000 
#    z 0.000000 0.000000 1.779130 
# 
# From -- ./inp_files/16616.got.cif
#   From: 2010.03.12/outbox.cif.g09.slc.cpg/sg68_9_cif.got.tgz:16616.got - 2010.04.10 23:14:56.
