data_PCOD8282396
_publ_section_title
;
Structure prediction by ZEFSAII (Michael W. Deem and Ramdas Pophale) SiO2 
 PCOD8282396
Probable space group: C C C A
;
_chemical_formula_sum "Si O2"
_cell_formula_units_Z 112
_cell_length_a 26.323939
_cell_length_b 16.061457
_cell_length_c 12.311895
_cell_angle_alpha 90.000000
_cell_angle_beta 90.000000
_cell_angle_gamma 90.000000
_cell_volume 5205.479232
_symmetry_space_group_name_H-M "C C C A"
_symmetry_group_IT_number 68
_space_group.IT_coordinate_system_code '2'
_symmetry_cell_setting 'orthorhombic'
loop_
_space_group_symop_operation_xyz
x,y,z
-x,1/2-y,z
x,1/2-y,1/2-z
-x,y,1/2-z
-x,-y,-z
x,1/2+y,-z
-x,1/2+y,1/2+z
x,-y,1/2+z
1/2+x,1/2+y,z
1/2-x,-y,z
1/2+x,-y,1/2-z
1/2-x,1/2+y,1/2-z
1/2-x,1/2-y,-z
1/2+x,y,-z
1/2-x,y,1/2+z
1/2+x,1/2-y,1/2+z
loop_
_atom_site_type_symbol
_atom_site_label
_atom_site_fract_x
_atom_site_fract_y
_atom_site_fract_z
Si Si1 0.749559 0.096988 0.150851
Si Si2 0.812694 0.103129 0.942489
Si Si3 0.399928 0.948191 0.398864
Si Si4 0.499492 0.842157 0.377305
Si Si5 0.158419 0.223206 0.862204
Si Si6 0.399333 0.885598 0.012038
Si Si7 0.329546 0.943756 0.194701
O O1 0.696763 0.145676 0.160157
O O2 0.789580 0.121288 0.247554
O O3 0.750000 0.000000 0.178648
O O4 0.765891 0.101172 0.025361
O O5 0.810005 0.197013 0.899809
O O6 0.807720 0.035466 0.843672
O O7 0.864014 0.089046 0.008842
O O8 0.451013 0.895398 0.411413
O O9 0.376160 0.950745 0.279047
O O10 0.410320 0.043991 0.423845
O O11 0.500000 0.750000 0.429600
O O12 0.500000 0.835008 0.250000
O O13 0.551147 0.884228 0.414766
O O14 0.131327 0.250000 0.750000
O O15 0.114061 0.198500 0.946232
O O16 0.349782 0.901238 0.085655
#
# Coordination Sequence:
#
# PCOD8282396 Si02
#       7
#    16  16  16  16  16  16  16
#     4  11  23  39  60  88 123 167 216 263 316 380
#     4  10  22  39  62  89 126 163 209 262 322 372
#     4  10  20  40  65  95 124 165 208 255 317 390
#     4  11  22  39  65  97 129 160 207 264 324 383
#     4  12  25  41  60  90 125 168 214 269 324 379
#     4  11  23  41  66  89 128 169 211 264 322 387
#     4  10  21  40  63  92 122 167 217 261 316 387
#
# _framework density 21.515789999999999
#
# number of rings (size 3 to 8) (size 9 to 14) (size 15 to 20)
#    0.000    1.286    1.429    6.000    0.000    5.143 
#    0.000    0.000    0.000    0.857    0.000    0.000 
#    0.000    0.000    0.000    0.000    0.000    0.000 
#
# Total GULP energy -693925.046844 kJ/mol
# GULP energy per Si atom -12391.518694 kJ/mol
# Density = 2.146682 g / cm^3
# Si number density = 21.515790 Si / 1000 Ang^3
#
#
#
# Elastic Constant Matrix: (Units=GPa)
#
#
# Indices 1 2 3 4 5 6 
#
# 1 69.4886 12.2456 17.5517 0.0000 0.0000 0.0000
# 2 12.2456 76.8577 35.0388 0.0000 0.0000 0.0000
# 3 17.5517 35.0388 100.7631 0.0000 0.0000 0.0000
# 4 0.0000 0.0000 0.0000 31.7598 0.0000 0.0000
# 5 0.0000 0.0000 0.0000 0.0000 19.0324 0.0000
# 6 0.0000 0.0000 0.0000 0.0000 0.0000 26.5686
#
#
#
# Elastic Compliance Matrix: (Units=1/GPa)
#
#
# Indices 1 2 3 4 5 6 
#
# 1 0.015187 -0.001442 -0.002144 0.000000 0.000000 0.000000
# 2 -0.001442 0.015599 -0.005173 0.000000 0.000000 0.000000
# 3 -0.002144 -0.005173 0.012097 0.000000 0.000000 0.000000
# 4 0.000000 0.000000 0.000000 0.031486 0.000000 0.000000
# 5 0.000000 0.000000 0.000000 0.000000 0.052542 0.000000
# 6 0.000000 0.000000 0.000000 0.000000 0.000000 0.037638
#
#
# Mechanical properties :
#
#
# Convention : Reuss Voigt Hill
#
# Bulk Modulus (GPa) = 39.42619 41.86462 40.64541
# Shear Modulus (GPa) = 26.24367 27.62372 26.93370
#
# Velocity S-wave (km/s) = 3.49627 3.58702 3.54193
# Velocity P-wave (km/s) = 5.88749 6.05437 5.97152
#
# Compressibility (1/GPa) = 0.02536385
#
# Stress axis : x y z
#
# Youngs Moduli (GPa) = 65.84795 64.10561 82.66804
#
# Poissons Ratio (x) = 0.09246 0.17722
# Poissons Ratio (y) = 0.09497 0.42766
# Poissons Ratio (z) = 0.14116 0.33163
#
# Static dielectric constant tensor:
#      x y z
#    x 3.273370 0.000000 0.000000 
#    y 0.000000 3.954020 0.000000 
#    z 0.000000 0.000000 4.128120 
# 
# 
# High freq. dielectric constant tensor:
#      x y z
#    x 1.830890 0.000000 0.000000 
#    y 0.000000 1.842050 0.000000 
#    z 0.000000 0.000000 1.868390 
# 
# From -- ./inp_files/17785.got.cif
#   From: 2010.03.12/outbox.cif.g09.slc.cpg/sg68_9_cif.got.tgz:17785.got - 2010.04.10 23:14:56.
