data_PCOD8282082
_publ_section_title
;
Structure prediction by ZEFSAII (Michael W. Deem and Ramdas Pophale) SiO2 
 PCOD8282082
Probable space group: C C C A
;
_chemical_formula_sum "Si O2"
_cell_formula_units_Z 92
_cell_length_a 15.247929
_cell_length_b 13.400130
_cell_length_c 21.451249
_cell_angle_alpha 90.000000
_cell_angle_beta 90.000000
_cell_angle_gamma 90.000000
_cell_volume 4383.009952
_symmetry_space_group_name_H-M "C C C A"
_symmetry_group_IT_number 68
_space_group.IT_coordinate_system_code '2'
_symmetry_cell_setting 'orthorhombic'
loop_
_space_group_symop_operation_xyz
x,y,z
-x,1/2-y,z
x,1/2-y,1/2-z
-x,y,1/2-z
-x,-y,-z
x,1/2+y,-z
-x,1/2+y,1/2+z
x,-y,1/2+z
1/2+x,1/2+y,z
1/2-x,-y,z
1/2+x,-y,1/2-z
1/2-x,1/2+y,1/2-z
1/2-x,1/2-y,-z
1/2+x,y,-z
1/2-x,y,1/2+z
1/2+x,1/2-y,1/2+z
loop_
_atom_site_type_symbol
_atom_site_label
_atom_site_fract_x
_atom_site_fract_y
_atom_site_fract_z
Si Si1 0.158891 0.870974 0.584675
Si Si2 0.508207 0.590623 0.160431
Si Si3 0.750000 0.000000 0.017891
Si Si4 0.680551 0.855688 0.115060
Si Si5 0.500000 0.585723 0.750000
Si Si6 0.500000 0.250000 0.750000
Si Si7 0.819885 0.350454 0.778941
Si Si8 0.250000 0.000000 0.186753
O O1 0.192824 0.922651 0.522264
O O2 0.176313 0.752975 0.583284
O O3 0.203551 0.917103 0.645436
O O4 0.055227 0.897505 0.593038
O O5 0.404725 0.616827 0.156029
O O6 0.527321 0.483902 0.191113
O O7 0.554820 0.675097 0.204969
O O8 0.683797 0.935338 0.059370
O O9 0.769291 0.868820 0.156143
O O10 0.574223 0.656529 0.781949
O O11 0.779433 0.250000 0.750000
O O12 0.815599 0.443377 0.732286
#
# Coordination Sequence:
#
# PCOD8282082 Si02
#       8
#    16  16   8  16   8   4  16   8
#     4  11  23  43  67  91 130 175 230 279 321 389
#     4  11  22  37  67  96 134 168 216 281 331 390
#     4  11  27  44  64  90 131 183 228 278 328 393
#     4  12  24  43  66 100 130 176 228 277 339 389
#     4  11  23  39  57 100 144 170 208 258 342 420
#     4  10  20  32  58 104 126 150 206 268 328 396
#     4  12  24  39  67  96 138 173 207 269 340 411
#     4  11  21  40  62  96 127 175 210 264 338 389
#
# _framework density 20.990141000000001
#
# number of rings (size 3 to 8) (size 9 to 14) (size 15 to 20)
#    0.000    0.696    5.217    3.391    3.652    0.696 
#    0.000    0.000    0.000    2.087    0.000    0.000 
#    0.000    0.000    0.000    0.000    0.000    0.000 
#
# Total GULP energy -569980.866624 kJ/mol
# GULP energy per Si atom -12390.888405 kJ/mol
# Density = 2.094237 g / cm^3
# Si number density = 20.990141 Si / 1000 Ang^3
#
#
#
# Elastic Constant Matrix: (Units=GPa)
#
#
# Indices 1 2 3 4 5 6 
#
# 1 116.2811 25.9070 41.0889 0.0000 0.0000 0.0000
# 2 25.9070 104.6166 44.5604 0.0000 0.0000 0.0000
# 3 41.0889 44.5604 101.7260 0.0000 0.0000 0.0000
# 4 0.0000 0.0000 0.0000 37.9217 0.0000 0.0000
# 5 0.0000 0.0000 0.0000 0.0000 22.3885 0.0000
# 6 0.0000 0.0000 0.0000 0.0000 0.0000 26.5071
#
#
#
# Elastic Compliance Matrix: (Units=1/GPa)
#
#
# Indices 1 2 3 4 5 6 
#
# 1 0.010106 -0.000939 -0.003671 0.000000 0.000000 0.000000
# 2 -0.000939 0.011839 -0.004806 0.000000 0.000000 0.000000
# 3 -0.003671 -0.004806 0.013418 0.000000 0.000000 0.000000
# 4 0.000000 0.000000 0.000000 0.026370 0.000000 0.000000
# 5 0.000000 0.000000 0.000000 0.000000 0.044666 0.000000
# 6 0.000000 0.000000 0.000000 0.000000 0.000000 0.037726
#
#
# Mechanical properties :
#
#
# Convention : Reuss Voigt Hill
#
# Bulk Modulus (GPa) = 60.49408 60.63736 60.56572
# Shear Modulus (GPa) = 29.67935 31.43465 30.55700
#
# Velocity S-wave (km/s) = 3.76435 3.87407 3.81961
# Velocity P-wave (km/s) = 6.91206 6.99732 6.95482
#
# Compressibility (1/GPa) = 0.01653054
#
# Stress axis : x y z
#
# Youngs Moduli (GPa) = 98.94969 84.46980 74.52459
#
# Poissons Ratio (x) = 0.07933 0.27355
# Poissons Ratio (y) = 0.09293 0.35820
# Poissons Ratio (z) = 0.36321 0.40600
#
# Static dielectric constant tensor:
#      x y z
#    x 3.980780 0.000000 0.000000 
#    y 0.000000 3.992810 0.000000 
#    z 0.000000 0.000000 3.588250 
# 
# 
# High freq. dielectric constant tensor:
#      x y z
#    x 1.817090 0.000000 0.000000 
#    y 0.000000 1.843790 0.000000 
#    z 0.000000 0.000000 1.800070 
# 
# From -- ./inp_files/38658.got.cif
#   From: 2010.03.12/outbox.cif.g09.slc.cpg/sg68_20_cif.got.tgz:38658.got - 2010.04.10 23:14:56.
