data_PCOD8282482
_publ_section_title
;
Structure prediction by ZEFSAII (Michael W. Deem and Ramdas Pophale) SiO2 
 PCOD8282482
Probable space group: C C C A
;
_chemical_formula_sum "Si O2"
_cell_formula_units_Z 64
_cell_length_a 5.029739
_cell_length_b 18.511997
_cell_length_c 34.899802
_cell_angle_alpha 90.000000
_cell_angle_beta 90.000000
_cell_angle_gamma 90.000000
_cell_volume 3249.538478
_symmetry_space_group_name_H-M "C C C A"
_symmetry_group_IT_number 68
_space_group.IT_coordinate_system_code '2'
_symmetry_cell_setting 'orthorhombic'
loop_
_space_group_symop_operation_xyz
x,y,z
-x,1/2-y,z
x,1/2-y,1/2-z
-x,y,1/2-z
-x,-y,-z
x,1/2+y,-z
-x,1/2+y,1/2+z
x,-y,1/2+z
1/2+x,1/2+y,z
1/2-x,-y,z
1/2+x,-y,1/2-z
1/2-x,1/2+y,1/2-z
1/2-x,1/2-y,-z
1/2+x,y,-z
1/2-x,y,1/2+z
1/2+x,1/2-y,1/2+z
loop_
_atom_site_type_symbol
_atom_site_label
_atom_site_fract_x
_atom_site_fract_y
_atom_site_fract_z
Si Si1 0.510963 0.667234 0.094424
Si Si2 0.285635 0.585334 0.022288
Si Si3 0.001415 0.451984 0.794245
Si Si4 0.016780 0.667332 0.143848
O O1 0.500000 0.750000 0.079852
O O2 0.410348 0.615227 0.061053
O O3 0.806087 0.648492 0.109849
O O4 0.313150 0.653146 0.129412
O O5 0.250000 0.500000 0.026118
O O6 0.489820 0.612169 0.988722
O O7 0.250000 0.500000 0.804862
O O8 0.025399 0.379564 0.818556
O O9 0.000000 0.428389 0.750000
O O10 0.750000 0.500000 0.805483
O O11 0.000000 0.750000 0.156891
#
# Coordination Sequence:
#
# PCOD8282482 Si02
#       4
#    16  16  16  16
#     4  10  21  36  55  80 108 140 181 225 268 321
#     4  10  21  36  53  76 106 139 178 223 270 323
#     4  10  21  37  57  83 113 144 182 225 268 320
#     4  10  21  37  56  81 112 144 182 225 269 322
#
# _framework density 19.695105999999999
#
# number of rings (size 3 to 8) (size 9 to 14) (size 15 to 20)
#    0.000    2.000    0.000    3.000    0.000    4.500 
#    0.000    0.000    0.000    9.000    0.000    0.000 
#    0.000    0.000    0.000    0.000    0.000    0.000 
#
# Total GULP energy -396685.983557 kJ/mol
# GULP energy per Si atom -12396.436986 kJ/mol
# Density = 1.965028 g / cm^3
# Si number density = 19.695106 Si / 1000 Ang^3
#
#
#
# Elastic Constant Matrix: (Units=GPa)
#
#
# Indices 1 2 3 4 5 6 
#
# 1 119.1261 45.1088 25.4260 0.0000 0.0000 0.0000
# 2 45.1088 81.9971 66.8919 0.0000 0.0000 0.0000
# 3 25.4260 66.8919 89.2650 0.0000 0.0000 0.0000
# 4 0.0000 0.0000 0.0000 12.4471 0.0000 0.0000
# 5 0.0000 0.0000 0.0000 0.0000 15.8502 0.0000
# 6 0.0000 0.0000 0.0000 0.0000 0.0000 49.6951
#
#
#
# Elastic Compliance Matrix: (Units=1/GPa)
#
#
# Indices 1 2 3 4 5 6 
#
# 1 0.011040 -0.009025 0.003619 0.000000 0.000000 0.000000
# 2 -0.009025 0.038755 -0.026471 0.000000 0.000000 0.000000
# 3 0.003619 -0.026471 0.030008 0.000000 0.000000 0.000000
# 4 0.000000 0.000000 0.000000 0.080340 0.000000 0.000000
# 5 0.000000 0.000000 0.000000 0.000000 0.063091 0.000000
# 6 0.000000 0.000000 0.000000 0.000000 0.000000 0.020123
#
#
# Mechanical properties :
#
#
# Convention : Reuss Voigt Hill
#
# Bulk Modulus (GPa) = 62.31319 62.80463 62.55891
# Shear Modulus (GPa) = 16.00203 25.79593 20.89898
#
# Velocity S-wave (km/s) = 2.85351 3.62299 3.26103
# Velocity P-wave (km/s) = 6.52413 7.03272 6.78319
#
# Compressibility (1/GPa) = 0.01604797
#
# Stress axis : x y z
#
# Youngs Moduli (GPa) = 90.58257 25.80304 33.32428
#
# Poissons Ratio (x) = 0.23288 -0.12059
# Poissons Ratio (y) = 0.81753 0.88212
# Poissons Ratio (z) = -0.32779 0.68303
#
# Static dielectric constant tensor:
#      x y z
#    x 4.162320 0.000000 0.000000 
#    y 0.000000 3.523730 0.000000 
#    z 0.000000 0.000000 3.325060 
# 
# 
# High freq. dielectric constant tensor:
#      x y z
#    x 1.795850 0.000000 0.000000 
#    y 0.000000 1.758980 0.000000 
#    z 0.000000 0.000000 1.756900 
# 
# From -- ./inp_files/48103.got.cif
#   From: 2010.03.12/outbox.cif.g09.slc.cpg/sg68_25_cif.got.tgz:48103.got - 2010.04.10 23:14:56.
