data_PCOD8282180
_publ_section_title
;
Structure prediction by ZEFSAII (Michael W. Deem and Ramdas Pophale) SiO2 
 PCOD8282180
Probable space group: C C C A
;
_chemical_formula_sum "Si O2"
_cell_formula_units_Z 92
_cell_length_a 21.872747
_cell_length_b 7.514515
_cell_length_c 30.052679
_cell_angle_alpha 90.000000
_cell_angle_beta 90.000000
_cell_angle_gamma 90.000000
_cell_volume 4939.551046
_symmetry_space_group_name_H-M "C C C A"
_symmetry_group_IT_number 68
_space_group.IT_coordinate_system_code '2'
_symmetry_cell_setting 'orthorhombic'
loop_
_space_group_symop_operation_xyz
x,y,z
-x,1/2-y,z
x,1/2-y,1/2-z
-x,y,1/2-z
-x,-y,-z
x,1/2+y,-z
-x,1/2+y,1/2+z
x,-y,1/2+z
1/2+x,1/2+y,z
1/2-x,-y,z
1/2+x,-y,1/2-z
1/2-x,1/2+y,1/2-z
1/2-x,1/2-y,-z
1/2+x,y,-z
1/2-x,y,1/2+z
1/2+x,1/2-y,1/2+z
loop_
_atom_site_type_symbol
_atom_site_label
_atom_site_fract_x
_atom_site_fract_y
_atom_site_fract_z
Si Si1 0.557890 0.652770 0.373236
Si Si2 0.011469 0.953422 0.050657
Si Si3 0.750000 0.000000 0.864271
Si Si4 0.382819 0.005058 0.111209
Si Si5 0.905220 0.686735 0.321698
Si Si6 0.000000 0.750000 0.250000
Si Si7 0.732276 0.697823 0.798597
O O1 0.500000 0.750000 0.348634
O O2 0.532219 0.581677 0.420540
O O3 0.610777 0.799634 0.375148
O O4 0.591657 0.491149 0.349941
O O5 0.000000 0.750000 0.061306
O O6 0.082806 0.979239 0.063869
O O7 0.000000 0.000000 0.000000
O O8 0.810148 0.042276 0.894011
O O9 0.764021 0.830320 0.833411
O O10 0.415813 0.138663 0.146998
O O11 0.955375 0.646264 0.283575
O O12 0.840509 0.715672 0.298683
O O13 0.757393 0.750000 0.750000
O O14 0.750000 0.500000 0.812145
#
# Coordination Sequence:
#
# PCOD8282180 Si02
#       7
#    16  16   8  16  16   4  16
#     4  10  20  36  57  82 114 151 193 240 291 354
#     4  11  20  36  62  92 118 149 188 239 288 355
#     4  10  22  38  62  82 116 156 196 248 294 342
#     4  10  21  39  59  86 115 154 195 237 296 349
#     4  11  22  37  53  80 118 154 193 244 298 339
#     4  12  20  32  54  76 112 154 188 234 306 336
#     4  11  21  37  56  81 110 154 208 247 285 338
#
# _framework density 18.625174999999999
#
# number of rings (size 3 to 8) (size 9 to 14) (size 15 to 20)
#    0.000    1.391    3.478    4.696    0.000    0.000 
#    0.000    3.913    0.000    4.174    0.000    0.000 
#    0.000    0.000    0.000    0.000    0.000    0.000 
#
# Total GULP energy -569929.700965 kJ/mol
# GULP energy per Si atom -12389.776108 kJ/mol
# Density = 1.858278 g / cm^3
# Si number density = 18.625175 Si / 1000 Ang^3
#
#
#
# Elastic Constant Matrix: (Units=GPa)
#
#
# Indices 1 2 3 4 5 6 
#
# 1 84.6133 19.2639 41.2831 0.0000 0.0000 0.0000
# 2 19.2639 141.0022 33.6183 0.0000 0.0000 0.0000
# 3 41.2831 33.6183 87.7383 0.0000 0.0000 0.0000
# 4 0.0000 0.0000 0.0000 10.3201 0.0000 0.0000
# 5 0.0000 0.0000 0.0000 0.0000 18.6090 0.0000
# 6 0.0000 0.0000 0.0000 0.0000 0.0000 27.1758
#
#
#
# Elastic Compliance Matrix: (Units=1/GPa)
#
#
# Indices 1 2 3 4 5 6 
#
# 1 0.015362 -0.000413 -0.007070 0.000000 0.000000 0.000000
# 2 -0.000413 0.007816 -0.002801 0.000000 0.000000 0.000000
# 3 -0.007070 -0.002801 0.015797 0.000000 0.000000 0.000000
# 4 0.000000 0.000000 0.000000 0.096898 0.000000 0.000000
# 5 0.000000 0.000000 0.000000 0.000000 0.053737 0.000000
# 6 0.000000 0.000000 0.000000 0.000000 0.000000 0.036797
#
#
# Mechanical properties :
#
#
# Convention : Reuss Voigt Hill
#
# Bulk Modulus (GPa) = 54.32346 55.74271 55.03309
# Shear Modulus (GPa) = 19.75412 25.83356 22.79384
#
# Velocity S-wave (km/s) = 3.26024 3.72832 3.50211
# Velocity P-wave (km/s) = 6.58804 6.96617 6.77974
#
# Compressibility (1/GPa) = 0.01840825
#
# Stress axis : x y z
#
# Youngs Moduli (GPa) = 65.09590 127.93875 63.30251
#
# Poissons Ratio (x) = 0.05286 0.44754
# Poissons Ratio (y) = 0.02689 0.17728
# Poissons Ratio (z) = 0.46022 0.35830
#
# Static dielectric constant tensor:
#      x y z
#    x 3.769800 0.000000 0.000000 
#    y 0.000000 3.746710 0.000000 
#    z 0.000000 0.000000 3.365250 
# 
# 
# High freq. dielectric constant tensor:
#      x y z
#    x 1.720760 0.000000 0.000000 
#    y 0.000000 1.744250 0.000000 
#    z 0.000000 0.000000 1.694400 
# 
# From -- ./inp_files/51792.got.cif
#   From: 2010.03.12/outbox.cif.g09.slc.cpg/sg68_26_cif.got.tgz:51792.got - 2010.04.10 23:14:56.
