data_PCOD8282461
_publ_section_title
;
Structure prediction by ZEFSAII (Michael W. Deem and Ramdas Pophale) SiO2 
 PCOD8282461
Probable space group: C C C A
;
_chemical_formula_sum "Si O2"
_cell_formula_units_Z 68
_cell_length_a 4.758944
_cell_length_b 28.294974
_cell_length_c 23.142564
_cell_angle_alpha 90.000000
_cell_angle_beta 90.000000
_cell_angle_gamma 90.000000
_cell_volume 3116.243366
_symmetry_space_group_name_H-M "C C C A"
_symmetry_group_IT_number 68
_space_group.IT_coordinate_system_code '2'
_symmetry_cell_setting 'orthorhombic'
loop_
_space_group_symop_operation_xyz
x,y,z
-x,1/2-y,z
x,1/2-y,1/2-z
-x,y,1/2-z
-x,-y,-z
x,1/2+y,-z
-x,1/2+y,1/2+z
x,-y,1/2+z
1/2+x,1/2+y,z
1/2-x,-y,z
1/2+x,-y,1/2-z
1/2-x,1/2+y,1/2-z
1/2-x,1/2-y,-z
1/2+x,y,-z
1/2-x,y,1/2+z
1/2+x,1/2-y,1/2+z
loop_
_atom_site_type_symbol
_atom_site_label
_atom_site_fract_x
_atom_site_fract_y
_atom_site_fract_z
Si Si1 0.312165 0.367618 0.868661
Si Si2 0.563309 0.198163 0.538572
Si Si3 0.221875 0.554610 0.459515
Si Si4 0.000000 0.250000 0.250000
Si Si5 0.803995 0.837471 0.198461
O O1 0.499290 0.337366 0.911313
O O2 0.262012 0.418084 0.898974
O O3 0.522666 0.369596 0.812380
O O4 0.017821 0.341219 0.855840
O O5 0.500000 0.250000 0.563233
O O6 0.884033 0.189895 0.519921
O O7 0.250000 0.500000 0.442344
O O8 0.425427 0.567976 0.512525
O O9 0.799573 0.216459 0.210640
O O10 0.000000 0.857746 0.250000
#
# Coordination Sequence:
#
# PCOD8282461 Si02
#       5
#    16  16  16   4  16
#     4  12  23  38  66  92 122 171 212 266 320 389
#     4  10  21  35  50  79 120 158 198 242 298 377
#     4  10  21  40  68 103 137 168 209 265 324 394
#     4  12  26  48  62  88 126 164 230 288 322 372
#     4  12  26  42  63  90 123 163 221 278 319 372
#
# _framework density 21.821145000000001
#
# number of rings (size 3 to 8) (size 9 to 14) (size 15 to 20)
#    0.000    0.941    2.353    4.588    1.647    0.000 
#    0.000    0.000    0.000    2.824    3.059    0.000 
#    0.000    0.000    0.000    0.000    0.000    0.000 
#
# Total GULP energy -421335.774774 kJ/mol
# GULP energy per Si atom -12392.228670 kJ/mol
# Density = 2.177148 g / cm^3
# Si number density = 21.821145 Si / 1000 Ang^3
#
#
#
# Elastic Constant Matrix: (Units=GPa)
#
#
# Indices 1 2 3 4 5 6 
#
# 1 97.9039 49.6482 26.8846 0.0000 0.0000 0.0000
# 2 49.6482 110.1165 61.6256 0.0000 0.0000 0.0000
# 3 26.8846 61.6256 76.4047 0.0000 0.0000 0.0000
# 4 0.0000 0.0000 0.0000 63.8896 0.0000 0.0000
# 5 0.0000 0.0000 0.0000 0.0000 -76.7693 0.0000
# 6 0.0000 0.0000 0.0000 0.0000 0.0000 26.5838
#
#
#
# Elastic Compliance Matrix: (Units=1/GPa)
#
#
# Indices 1 2 3 4 5 6 
#
# 1 0.013245 -0.006131 0.000285 0.000000 0.000000 0.000000
# 2 -0.006131 0.019391 -0.013483 0.000000 0.000000 0.000000
# 3 0.000285 -0.013483 0.023863 0.000000 0.000000 0.000000
# 4 0.000000 0.000000 0.000000 0.015652 0.000000 0.000000
# 5 0.000000 0.000000 0.000000 0.000000 -0.013026 0.000000
# 6 0.000000 0.000000 0.000000 0.000000 0.000000 0.037617
#
#
# Mechanical properties :
#
#
# Convention : Reuss Voigt Hill
#
# Bulk Modulus (GPa) = 56.05278 62.30466 59.17872
# Shear Modulus (GPa) = 35.37369 12.49194 23.93281
#
# Velocity S-wave (km/s) = 4.03062 2.39523 3.31535
# Velocity P-wave (km/s) = 6.88508 6.02195 6.46793
#
# Compressibility (1/GPa) = 0.01784033
#
# Stress axis : x y z
#
# Youngs Moduli (GPa) = 75.49970 51.56971 41.90582
#
# Poissons Ratio (x) = 0.31618 -0.01192
# Poissons Ratio (y) = 0.46289 0.56502
# Poissons Ratio (z) = -0.02148 0.69531
#
# Static dielectric constant tensor:
#      x y z
#    x 4.535470 0.000000 0.000000 
#    y 0.000000 3.721890 0.000000 
#    z 0.000000 0.000000 4.214890 
# 
# 
# High freq. dielectric constant tensor:
#      x y z
#    x 1.895600 0.000000 0.000000 
#    y 0.000000 1.816370 0.000000 
#    z 0.000000 0.000000 1.854750 
# 
# From -- ./inp_files/35086.got.cif
#   From: 2010.03.12/outbox.cif.g09.slc.cpg/sg68_18_cif.got.tgz:35086.got - 2010.04.10 23:14:56.
