data_PCOD8282245
_publ_section_title
;
Structure prediction by ZEFSAII (Michael W. Deem and Ramdas Pophale) SiO2 
 PCOD8282245
Probable space group: C C C A
;
_chemical_formula_sum "Si O2"
_cell_formula_units_Z 88
_cell_length_a 10.473739
_cell_length_b 15.894543
_cell_length_c 25.862594
_cell_angle_alpha 90.000000
_cell_angle_beta 90.000000
_cell_angle_gamma 90.000000
_cell_volume 4305.482963
_symmetry_space_group_name_H-M "C C C A"
_symmetry_group_IT_number 68
_space_group.IT_coordinate_system_code '2'
_symmetry_cell_setting 'orthorhombic'
loop_
_space_group_symop_operation_xyz
x,y,z
-x,1/2-y,z
x,1/2-y,1/2-z
-x,y,1/2-z
-x,-y,-z
x,1/2+y,-z
-x,1/2+y,1/2+z
x,-y,1/2+z
1/2+x,1/2+y,z
1/2-x,-y,z
1/2+x,-y,1/2-z
1/2-x,1/2+y,1/2-z
1/2-x,1/2-y,-z
1/2+x,y,-z
1/2-x,y,1/2+z
1/2+x,1/2-y,1/2+z
loop_
_atom_site_type_symbol
_atom_site_label
_atom_site_fract_x
_atom_site_fract_y
_atom_site_fract_z
Si Si1 0.500000 0.250000 0.628461
Si Si2 0.939250 0.950811 0.306096
Si Si3 0.194071 0.620748 0.843276
Si Si4 0.421996 0.058147 0.404922
Si Si5 0.670526 0.124376 0.563427
Si Si6 0.193005 0.911559 0.048399
O O1 0.599070 0.300365 0.666076
O O2 0.580013 0.189706 0.591525
O O3 0.831088 0.876903 0.313140
O O4 0.000000 0.952047 0.250000
O O5 0.059886 0.939304 0.343277
O O6 0.875619 0.037828 0.323272
O O7 0.215696 0.620743 0.905482
O O8 0.313015 0.127599 0.413730
O O9 0.550333 0.085701 0.431953
O O10 0.387143 0.967685 0.427542
O O11 0.686444 0.146788 0.502506
O O12 0.250000 0.000000 0.029350
#
# Coordination Sequence:
#
# PCOD8282245 Si02
#       6
#     8  16  16  16  16  16
#     4  12  24  44  57  96 146 166 205 256 344 378
#     4  10  20  41  72  93 113 161 227 268 311 381
#     4  10  22  40  65  97 133 167 199 277 321 377
#     4  10  20  37  60  93 118 168 221 268 305 374
#     4  11  23  32  63  89 131 173 214 258 309 394
#     4  11  18  36  62  91 130 170 220 260 312 362
#
# _framework density 20.439055
#
# number of rings (size 3 to 8) (size 9 to 14) (size 15 to 20)
#    0.000    1.455    7.273    0.545    2.545    3.636 
#    0.000    3.182    0.000    1.091    0.000    0.000 
#    0.000    0.000    0.000    0.000    0.000    0.000 
#
# Total GULP energy -545232.293747 kJ/mol
# GULP energy per Si atom -12391.643040 kJ/mol
# Density = 2.039253 g / cm^3
# Si number density = 20.439055 Si / 1000 Ang^3
#
#
#
# Elastic Constant Matrix: (Units=GPa)
#
#
# Indices 1 2 3 4 5 6 
#
# 1 116.0026 41.0135 65.7174 0.0000 0.0000 0.0000
# 2 41.0135 59.2615 19.8037 0.0000 0.0000 0.0000
# 3 65.7174 19.8037 154.2072 0.0000 0.0000 0.0000
# 4 0.0000 0.0000 0.0000 1.0546 0.0000 0.0000
# 5 0.0000 0.0000 0.0000 0.0000 21.6449 0.0000
# 6 0.0000 0.0000 0.0000 0.0000 0.0000 39.5069
#
#
#
# Elastic Compliance Matrix: (Units=1/GPa)
#
#
# Indices 1 2 3 4 5 6 
#
# 1 0.014432 -0.008289 -0.005086 0.000000 0.000000 0.000000
# 2 -0.008289 0.022391 0.000657 0.000000 0.000000 0.000000
# 3 -0.005086 0.000657 0.008568 0.000000 0.000000 0.000000
# 4 0.000000 0.000000 0.000000 0.948248 0.000000 0.000000
# 5 0.000000 0.000000 0.000000 0.000000 0.046200 0.000000
# 6 0.000000 0.000000 0.000000 0.000000 0.000000 0.025312
#
#
# Mechanical properties :
#
#
# Convention : Reuss Voigt Hill
#
# Bulk Modulus (GPa) = 50.11116 64.72672 57.41894
# Shear Modulus (GPa) = 4.55689 25.97040 15.26365
#
# Velocity S-wave (km/s) = 1.49477 3.56845 2.73571
# Velocity P-wave (km/s) = 5.24878 6.97964 6.17515
#
# Compressibility (1/GPa) = 0.01995564
#
# Stress axis : x y z
#
# Youngs Moduli (GPa) = 69.28871 44.66019 116.71425
#
# Poissons Ratio (x) = 0.37017 0.59362
# Poissons Ratio (y) = 0.57431 -0.07666
# Poissons Ratio (z) = 0.35241 -0.02933
#
# Static dielectric constant tensor:
#      x y z
#    x 4.329320 0.000000 0.000000 
#    y 0.000000 3.238910 0.000000 
#    z 0.000000 0.000000 3.844340 
# 
# 
# High freq. dielectric constant tensor:
#      x y z
#    x 1.827960 0.000000 0.000000 
#    y 0.000000 1.758510 0.000000 
#    z 0.000000 0.000000 1.788880 
# 
# From -- ./inp_files/50170.got.cif
#   From: 2010.03.12/outbox.cif.g09.slc.cpg/sg68_26_cif.got.tgz:50170.got - 2010.04.10 23:14:56.
