data_PCOD8282362
_publ_section_title
;
Structure prediction by ZEFSAII (Michael W. Deem and Ramdas Pophale) SiO2 
 PCOD8282362
Probable space group: C C C A
;
_chemical_formula_sum "Si O2"
_cell_formula_units_Z 80
_cell_length_a 9.029516
_cell_length_b 17.239265
_cell_length_c 25.790168
_cell_angle_alpha 90.000000
_cell_angle_beta 90.000000
_cell_angle_gamma 90.000000
_cell_volume 4014.554783
_symmetry_space_group_name_H-M "C C C A"
_symmetry_group_IT_number 68
_space_group.IT_coordinate_system_code '2'
_symmetry_cell_setting 'orthorhombic'
loop_
_space_group_symop_operation_xyz
x,y,z
-x,1/2-y,z
x,1/2-y,1/2-z
-x,y,1/2-z
-x,-y,-z
x,1/2+y,-z
-x,1/2+y,1/2+z
x,-y,1/2+z
1/2+x,1/2+y,z
1/2-x,-y,z
1/2+x,-y,1/2-z
1/2-x,1/2+y,1/2-z
1/2-x,1/2-y,-z
1/2+x,y,-z
1/2-x,y,1/2+z
1/2+x,1/2-y,1/2+z
loop_
_atom_site_type_symbol
_atom_site_label
_atom_site_fract_x
_atom_site_fract_y
_atom_site_fract_z
Si Si1 0.043267 0.132371 0.352110
Si Si2 0.795199 0.723843 0.691363
Si Si3 0.616556 0.627569 0.939993
Si Si4 0.439356 0.835722 0.466204
Si Si5 0.250000 0.000000 0.872866
Si Si6 0.500000 0.250000 0.359744
O O1 0.892660 0.144819 0.318394
O O2 0.145276 0.208248 0.345768
O O3 0.999985 0.127239 0.412717
O O4 0.142810 0.055970 0.337612
O O5 0.816964 0.750000 0.750000
O O6 0.624106 0.710972 0.677471
O O7 0.762147 0.663568 0.966693
O O8 0.644414 0.547009 0.911353
O O9 0.562254 0.683416 0.895182
O O10 0.495812 0.613858 0.984929
O O11 0.500000 0.750000 0.474816
#
# Coordination Sequence:
#
# PCOD8282362 Si02
#       6
#    16  16  16  16   8   8
#     4  10  20  39  66  89 125 164 202 257 317 374
#     4  11  22  40  70  95 114 161 223 263 310 375
#     4  11  24  34  63  85 133 161 213 247 321 366
#     4  11  19  35  59  93 117 169 211 257 295 382
#     4  10  22  44  58  94 134 168 190 270 318 382
#     4  12  21  40  62  98 120 164 203 278 302 374
#
# _framework density 19.927489999999999
#
# number of rings (size 3 to 8) (size 9 to 14) (size 15 to 20)
#    0.000    1.200    7.000    2.100    2.800    3.200 
#    0.000    1.000    8.800    0.000    0.000    0.000 
#    0.000    0.000    0.000    0.000    0.000    0.000 
#
# Total GULP energy -495790.294645 kJ/mol
# GULP energy per Si atom -12394.757366 kJ/mol
# Density = 1.988213 g / cm^3
# Si number density = 19.927490 Si / 1000 Ang^3
#
#
#
# Elastic Constant Matrix: (Units=GPa)
#
#
# Indices 1 2 3 4 5 6 
#
# 1 147.9360 44.6094 50.6620 0.0000 0.0000 0.0000
# 2 44.6094 98.3490 24.1198 0.0000 0.0000 0.0000
# 3 50.6620 24.1198 104.2767 0.0000 0.0000 0.0000
# 4 0.0000 0.0000 0.0000 13.8612 0.0000 0.0000
# 5 0.0000 0.0000 0.0000 0.0000 27.0623 0.0000
# 6 0.0000 0.0000 0.0000 0.0000 0.0000 38.4660
#
#
#
# Elastic Compliance Matrix: (Units=1/GPa)
#
#
# Indices 1 2 3 4 5 6 
#
# 1 0.008956 -0.003175 -0.003617 0.000000 0.000000 0.000000
# 2 -0.003175 0.011905 -0.001211 0.000000 0.000000 0.000000
# 3 -0.003617 -0.001211 0.011627 0.000000 0.000000 0.000000
# 4 0.000000 0.000000 0.000000 0.072144 0.000000 0.000000
# 5 0.000000 0.000000 0.000000 0.000000 0.036952 0.000000
# 6 0.000000 0.000000 0.000000 0.000000 0.000000 0.025997
#
#
# Mechanical properties :
#
#
# Convention : Reuss Voigt Hill
#
# Bulk Modulus (GPa) = 60.67174 65.48268 63.07721
# Shear Modulus (GPa) = 26.44378 31.28925 28.86651
#
# Velocity S-wave (km/s) = 3.64675 3.96682 3.81015
# Velocity P-wave (km/s) = 6.94580 7.34252 7.14691
#
# Compressibility (1/GPa) = 0.01648214
#
# Stress axis : x y z
#
# Youngs Moduli (GPa) = 111.66099 83.99765 86.00592
#
# Poissons Ratio (x) = 0.26671 0.31105
# Poissons Ratio (y) = 0.35454 0.10416
# Poissons Ratio (z) = 0.40383 0.10173
#
# Static dielectric constant tensor:
#      x y z
#    x 3.918190 0.000000 0.000000 
#    y 0.000000 3.368740 0.000000 
#    z 0.000000 0.000000 3.562830 
# 
# 
# High freq. dielectric constant tensor:
#      x y z
#    x 1.785580 0.000000 0.000000 
#    y 0.000000 1.749670 0.000000 
#    z 0.000000 0.000000 1.774140 
# 
# From -- ./inp_files/49200.got.cif
#   From: 2010.03.12/outbox.cif.g09.slc.cpg/sg68_25_cif.got.tgz:49200.got - 2010.04.10 23:14:56.
