data_PCOD8282413
_publ_section_title
;
Structure prediction by ZEFSAII (Michael W. Deem and Ramdas Pophale) SiO2 
 PCOD8282413
Probable space group: C C C A
;
_chemical_formula_sum "Si O2"
_cell_formula_units_Z 56
_cell_length_a 25.108315
_cell_length_b 7.769544
_cell_length_c 12.609306
_cell_angle_alpha 90.000000
_cell_angle_beta 90.000000
_cell_angle_gamma 90.000000
_cell_volume 2459.825409
_symmetry_space_group_name_H-M "C C C A"
_symmetry_group_IT_number 68
_space_group.IT_coordinate_system_code '2'
_symmetry_cell_setting 'orthorhombic'
loop_
_space_group_symop_operation_xyz
x,y,z
-x,1/2-y,z
x,1/2-y,1/2-z
-x,y,1/2-z
-x,-y,-z
x,1/2+y,-z
-x,1/2+y,1/2+z
x,-y,1/2+z
1/2+x,1/2+y,z
1/2-x,-y,z
1/2+x,-y,1/2-z
1/2-x,1/2+y,1/2-z
1/2-x,1/2-y,-z
1/2+x,y,-z
1/2-x,y,1/2+z
1/2+x,1/2-y,1/2+z
loop_
_atom_site_type_symbol
_atom_site_label
_atom_site_fract_x
_atom_site_fract_y
_atom_site_fract_z
Si Si1 0.944268 0.162597 0.579571
Si Si2 0.361291 0.250000 0.250000
Si Si3 0.696947 0.420633 0.815201
Si Si4 0.089662 0.806173 0.871815
O O1 0.898055 0.255914 0.645740
O O2 0.928225 0.161703 0.454803
O O3 0.000000 0.250000 0.604502
O O4 0.950729 0.964202 0.611928
O O5 0.326518 0.424952 0.258251
O O6 0.713238 0.250000 0.750000
O O7 0.750000 0.500000 0.871363
O O8 0.650585 0.367055 0.897928
O O9 0.086247 0.750000 0.750000
#
# Coordination Sequence:
#
# PCOD8282413 Si02
#       4
#    16   8  16  16
#     4  11  24  45  70  97 141 181 227 279 347 395
#     4  10  23  42  66  98 134 180 229 284 330 418
#     4  10  20  40  68  95 136 177 226 281 346 402
#     4  10  25  44  69 103 137 174 235 279 338 415
#
# _framework density 22.765841999999999
#
# number of rings (size 3 to 8) (size 9 to 14) (size 15 to 20)
#    0.000    1.714    1.429    1.286   12.000    0.571 
#   10.286    7.143    0.000    0.000    0.000    0.000 
#    0.000    0.000    0.000    0.000    0.000    0.000 
#
# Total GULP energy -346983.074047 kJ/mol
# GULP energy per Si atom -12392.252645 kJ/mol
# Density = 2.271403 g / cm^3
# Si number density = 22.765842 Si / 1000 Ang^3
#
#
#
# Elastic Constant Matrix: (Units=GPa)
#
#
# Indices 1 2 3 4 5 6 
#
# 1 128.5677 54.9639 37.2302 0.0000 0.0000 0.0000
# 2 54.9639 127.8916 43.2534 0.0000 0.0000 0.0000
# 3 37.2302 43.2534 119.2776 0.0000 0.0000 0.0000
# 4 0.0000 0.0000 0.0000 26.6689 0.0000 0.0000
# 5 0.0000 0.0000 0.0000 0.0000 21.6996 0.0000
# 6 0.0000 0.0000 0.0000 0.0000 0.0000 40.3967
#
#
#
# Elastic Compliance Matrix: (Units=1/GPa)
#
#
# Indices 1 2 3 4 5 6 
#
# 1 0.009840 -0.003636 -0.001753 0.000000 0.000000 0.000000
# 2 -0.003636 0.010256 -0.002584 0.000000 0.000000 0.000000
# 3 -0.001753 -0.002584 0.009868 0.000000 0.000000 0.000000
# 4 0.000000 0.000000 0.000000 0.037497 0.000000 0.000000
# 5 0.000000 0.000000 0.000000 0.000000 0.046084 0.000000
# 6 0.000000 0.000000 0.000000 0.000000 0.000000 0.024755
#
#
# Mechanical properties :
#
#
# Convention : Reuss Voigt Hill
#
# Bulk Modulus (GPa) = 71.33826 71.84798 71.59312
# Shear Modulus (GPa) = 31.46283 33.77233 32.61758
#
# Velocity S-wave (km/s) = 3.72159 3.85576 3.78926
# Velocity P-wave (km/s) = 7.06191 7.17290 7.11762
#
# Compressibility (1/GPa) = 0.01401772
#
# Stress axis : x y z
#
# Youngs Moduli (GPa) = 101.62534 97.50604 101.33791
#
# Poissons Ratio (x) = 0.35455 0.17763
# Poissons Ratio (y) = 0.36952 0.26187
# Poissons Ratio (z) = 0.17813 0.25196
#
# Static dielectric constant tensor:
#      x y z
#    x 4.453740 0.000000 0.000000 
#    y 0.000000 4.353450 0.000000 
#    z 0.000000 0.000000 3.786100 
# 
# 
# High freq. dielectric constant tensor:
#      x y z
#    x 1.914050 0.000000 0.000000 
#    y 0.000000 1.919640 0.000000 
#    z 0.000000 0.000000 1.854870 
# 
# From -- ./inp_files/10581.got.cif
#   From: 2010.03.12/outbox.cif.g09.slc.cpg/sg68_6_cif.got.tgz:10581.got - 2010.04.10 23:14:56.
