data_PCOD8282725
_publ_section_title
;
Structure prediction by ZEFSAII (Michael W. Deem and Ramdas Pophale) SiO2 
 PCOD8282725
Probable space group: C C C A
;
_chemical_formula_sum "Si O2"
_cell_formula_units_Z 120
_cell_length_a 19.475241
_cell_length_b 21.422078
_cell_length_c 13.020633
_cell_angle_alpha 90.000000
_cell_angle_beta 90.000000
_cell_angle_gamma 90.000000
_cell_volume 5432.209803
_symmetry_space_group_name_H-M "C C C A"
_symmetry_group_IT_number 68
_space_group.IT_coordinate_system_code '2'
_symmetry_cell_setting 'orthorhombic'
loop_
_space_group_symop_operation_xyz
x,y,z
-x,1/2-y,z
x,1/2-y,1/2-z
-x,y,1/2-z
-x,-y,-z
x,1/2+y,-z
-x,1/2+y,1/2+z
x,-y,1/2+z
1/2+x,1/2+y,z
1/2-x,-y,z
1/2+x,-y,1/2-z
1/2-x,1/2+y,1/2-z
1/2-x,1/2-y,-z
1/2+x,y,-z
1/2-x,y,1/2+z
1/2+x,1/2-y,1/2+z
loop_
_atom_site_type_symbol
_atom_site_label
_atom_site_fract_x
_atom_site_fract_y
_atom_site_fract_z
Si Si1 0.849089 0.578402 0.866767
Si Si2 0.080062 0.319029 0.273355
Si Si3 0.608563 0.730053 0.644168
Si Si4 0.219874 0.346923 0.959912
Si Si5 0.731193 0.062985 0.286506
Si Si6 0.000000 0.861085 0.250000
Si Si7 0.630413 0.163203 0.002997
Si Si8 0.606699 0.056722 0.145093
O O1 0.886294 0.632551 0.804286
O O2 0.780423 0.558112 0.810842
O O3 0.898724 0.517586 0.879138
O O4 0.822696 0.602341 0.975833
O O5 0.109665 0.250000 0.250000
O O6 0.095849 0.335378 0.391360
O O7 0.000000 0.321061 0.250000
O O8 0.645968 0.750000 0.750000
O O9 0.663382 0.703986 0.565199
O O10 0.546667 0.684145 0.677695
O O11 0.585727 0.793140 0.582142
O O12 0.247563 0.377825 0.855464
O O13 0.288566 0.316346 0.007766
O O14 0.653939 0.068116 0.245124
O O15 0.750000 0.000000 0.350505
O O16 0.964045 0.909590 0.173114
O O17 0.632289 0.091640 0.042165
#
# Coordination Sequence:
#
# PCOD8282725 Si02
#       8
#    16  16  16  16  16   8  16  16
#     4  11  25  45  73 105 143 184 239 300 351 431
#     4  11  27  50  69  97 144 196 237 288 357 438
#     4  12  26  46  71 103 145 186 241 303 355 425
#     4  12  24  42  72 108 136 185 238 297 366 415
#     4  10  21  41  69  98 144 182 229 290 357 422
#     4  12  25  48  72  98 149 196 232 296 363 422
#     4  12  25  44  73 105 139 192 243 296 365 432
#     4  11  25  44  72 109 141 186 240 292 361 435
#
# _framework density 22.090457000000001
#
# number of rings (size 3 to 8) (size 9 to 14) (size 15 to 20)
#    0.000    0.667    5.333    1.400    2.800    3.733 
#    0.000    1.333    0.000    0.000    0.000    0.000 
#    0.000    0.000    0.000    0.000    0.000    0.000 
#
# Total GULP energy -743565.831910 kJ/mol
# GULP energy per Si atom -12392.763865 kJ/mol
# Density = 2.204018 g / cm^3
# Si number density = 22.090457 Si / 1000 Ang^3
#
#
#
# Elastic Constant Matrix: (Units=GPa)
#
#
# Indices 1 2 3 4 5 6 
#
# 1 93.4976 52.1713 31.3254 0.0000 0.0000 0.0000
# 2 52.1713 152.6654 52.8166 0.0000 0.0000 0.0000
# 3 31.3254 52.8166 104.6281 0.0000 0.0000 0.0000
# 4 0.0000 0.0000 0.0000 33.3267 0.0000 0.0000
# 5 0.0000 0.0000 0.0000 0.0000 29.4262 0.0000
# 6 0.0000 0.0000 0.0000 0.0000 0.0000 20.9485
#
#
#
# Elastic Compliance Matrix: (Units=1/GPa)
#
#
# Indices 1 2 3 4 5 6 
#
# 1 0.013582 -0.003919 -0.002088 0.000000 0.000000 0.000000
# 2 -0.003919 0.009067 -0.003404 0.000000 0.000000 0.000000
# 3 -0.002088 -0.003404 0.011901 0.000000 0.000000 0.000000
# 4 0.000000 0.000000 0.000000 0.030006 0.000000 0.000000
# 5 0.000000 0.000000 0.000000 0.000000 0.033983 0.000000
# 6 0.000000 0.000000 0.000000 0.000000 0.000000 0.047736
#
#
# Mechanical properties :
#
#
# Convention : Reuss Voigt Hill
#
# Bulk Modulus (GPa) = 63.57942 69.26862 66.42402
# Shear Modulus (GPa) = 29.35307 31.03878 30.19592
#
# Velocity S-wave (km/s) = 3.64918 3.75250 3.70120
# Velocity P-wave (km/s) = 6.82636 7.08519 6.95698
#
# Compressibility (1/GPa) = 0.01572836
#
# Stress axis : x y z
#
# Youngs Moduli (GPa) = 73.62776 110.28859 84.02621
#
# Poissons Ratio (x) = 0.43222 0.17545
# Poissons Ratio (y) = 0.28855 0.28601
# Poissons Ratio (z) = 0.15374 0.37540
#
# Static dielectric constant tensor:
#      x y z
#    x 3.964610 0.000000 0.000000 
#    y 0.000000 4.569290 0.000000 
#    z 0.000000 0.000000 3.920600 
# 
# 
# High freq. dielectric constant tensor:
#      x y z
#    x 1.860990 0.000000 0.000000 
#    y 0.000000 1.889120 0.000000 
#    z 0.000000 0.000000 1.869730 
# 
# From -- ./inp_files/15792.got.cif
#   From: 2010.03.12/outbox.cif.g09.slc.cpg/sg68_8_cif.got.tgz:15792.got - 2010.04.10 23:14:56.
