data_PCOD8282774
_publ_section_title
;
Structure prediction by ZEFSAII (Michael W. Deem and Ramdas Pophale) SiO2 
 PCOD8282774
Probable space group: C C C A
;
_chemical_formula_sum "Si O2"
_cell_formula_units_Z 64
_cell_length_a 24.418768
_cell_length_b 5.035168
_cell_length_c 23.160395
_cell_angle_alpha 90.000000
_cell_angle_beta 90.000000
_cell_angle_gamma 90.000000
_cell_volume 2847.630765
_symmetry_space_group_name_H-M "C C C A"
_symmetry_group_IT_number 68
_space_group.IT_coordinate_system_code '2'
_symmetry_cell_setting 'orthorhombic'
loop_
_space_group_symop_operation_xyz
x,y,z
-x,1/2-y,z
x,1/2-y,1/2-z
-x,y,1/2-z
-x,-y,-z
x,1/2+y,-z
-x,1/2+y,1/2+z
x,-y,1/2+z
1/2+x,1/2+y,z
1/2-x,-y,z
1/2+x,-y,1/2-z
1/2-x,1/2+y,1/2-z
1/2-x,1/2-y,-z
1/2+x,y,-z
1/2-x,y,1/2+z
1/2+x,1/2-y,1/2+z
loop_
_atom_site_type_symbol
_atom_site_label
_atom_site_fract_x
_atom_site_fract_y
_atom_site_fract_z
Si Si1 0.937087 0.270624 0.463086
Si Si2 0.975316 0.998865 0.313513
Si Si3 0.694985 0.849573 0.684447
Si Si4 0.365300 0.359160 0.852712
O O1 0.925616 0.568806 0.484118
O O2 0.893217 0.192612 0.414099
O O3 0.000000 0.250000 0.441879
O O4 0.000000 0.750000 0.348820
O O5 0.000000 0.992221 0.250000
O O6 0.909917 0.002341 0.310619
O O7 0.000000 0.250000 0.347527
O O8 0.700153 0.750000 0.750000
O O9 0.683053 0.583702 0.645694
O O10 0.750000 0.000000 0.663752
O O11 0.649600 0.077759 0.676099
#
# Coordination Sequence:
#
# PCOD8282774 Si02
#       4
#    16  16  16  16
#     4  10  22  42  68 100 138 176 223 271 330 414
#     4  10  22  35  53  90 132 165 204 260 315 395
#     4  12  27  46  66  96 132 178 233 279 333 406
#     4  12  24  41  72  95 131 183 223 273 343 389
#
# _framework density 22.474824000000002
#
# number of rings (size 3 to 8) (size 9 to 14) (size 15 to 20)
#    0.000    1.000    0.000    6.750   10.500    3.000 
#    0.000    0.000    0.000   15.000    0.000    0.000 
#    0.000    0.000    0.000    0.000    0.000    0.000 
#
# Total GULP energy -396465.110905 kJ/mol
# GULP energy per Si atom -12389.534716 kJ/mol
# Density = 2.242367 g / cm^3
# Si number density = 22.474824 Si / 1000 Ang^3
#
#
#
# Elastic Constant Matrix: (Units=GPa)
#
#
# Indices 1 2 3 4 5 6 
#
# 1 89.6708 34.8146 38.5732 0.0000 0.0000 0.0000
# 2 34.8146 181.2849 20.0281 0.0000 0.0000 0.0000
# 3 38.5732 20.0281 80.0406 0.0000 0.0000 0.0000
# 4 0.0000 0.0000 0.0000 21.0374 0.0000 0.0000
# 5 0.0000 0.0000 0.0000 0.0000 16.7125 0.0000
# 6 0.0000 0.0000 0.0000 0.0000 0.0000 54.9643
#
#
#
# Elastic Compliance Matrix: (Units=1/GPa)
#
#
# Indices 1 2 3 4 5 6 
#
# 1 0.014817 -0.002115 -0.006611 0.000000 0.000000 0.000000
# 2 -0.002115 0.005975 -0.000476 0.000000 0.000000 0.000000
# 3 -0.006611 -0.000476 0.015799 0.000000 0.000000 0.000000
# 4 0.000000 0.000000 0.000000 0.047534 0.000000 0.000000
# 5 0.000000 0.000000 0.000000 0.000000 0.059835 0.000000
# 6 0.000000 0.000000 0.000000 0.000000 0.000000 0.018194
#
#
# Mechanical properties :
#
#
# Convention : Reuss Voigt Hill
#
# Bulk Modulus (GPa) = 54.98628 59.75867 57.37247
# Shear Modulus (GPa) = 26.79228 35.71488 31.25358
#
# Velocity S-wave (km/s) = 3.45643 3.99068 3.73313
# Velocity P-wave (km/s) = 6.35988 6.91961 6.64564
#
# Compressibility (1/GPa) = 0.01818636
#
# Stress axis : x y z
#
# Youngs Moduli (GPa) = 67.48968 167.36593 63.29568
#
# Poissons Ratio (x) = 0.35400 0.41847
# Poissons Ratio (y) = 0.14275 0.03011
# Poissons Ratio (z) = 0.44620 0.07963
#
# Static dielectric constant tensor:
#      x y z
#    x 4.219460 0.000000 0.000000 
#    y 0.000000 4.538660 0.000000 
#    z 0.000000 0.000000 3.435620 
# 
# 
# High freq. dielectric constant tensor:
#      x y z
#    x 1.875940 0.000000 0.000000 
#    y 0.000000 1.928150 0.000000 
#    z 0.000000 0.000000 1.855960 
# 
# From -- ./inp_files/46330.got.cif
#   From: 2010.03.12/outbox.cif.g09.slc.cpg/sg68_24_cif.got.tgz:46330.got - 2010.04.10 23:14:56.
