data_PCOD8282665
_publ_section_title
;
Structure prediction by ZEFSAII (Michael W. Deem and Ramdas Pophale) SiO2 
 PCOD8282665
Probable space group: C C C A
;
_chemical_formula_sum "Si O2"
_cell_formula_units_Z 116
_cell_length_a 20.493345
_cell_length_b 26.107857
_cell_length_c 8.803747
_cell_angle_alpha 90.000000
_cell_angle_beta 90.000000
_cell_angle_gamma 90.000000
_cell_volume 4710.333207
_symmetry_space_group_name_H-M "C C C A"
_symmetry_group_IT_number 68
_space_group.IT_coordinate_system_code '2'
_symmetry_cell_setting 'orthorhombic'
loop_
_space_group_symop_operation_xyz
x,y,z
-x,1/2-y,z
x,1/2-y,1/2-z
-x,y,1/2-z
-x,-y,-z
x,1/2+y,-z
-x,1/2+y,1/2+z
x,-y,1/2+z
1/2+x,1/2+y,z
1/2-x,-y,z
1/2+x,-y,1/2-z
1/2-x,1/2+y,1/2-z
1/2-x,1/2-y,-z
1/2+x,y,-z
1/2-x,y,1/2+z
1/2+x,1/2-y,1/2+z
loop_
_atom_site_type_symbol
_atom_site_label
_atom_site_fract_x
_atom_site_fract_y
_atom_site_fract_z
Si Si1 0.341048 0.933471 0.080336
Si Si2 0.101349 0.829740 0.684771
Si Si3 0.898174 0.006599 0.694944
Si Si4 0.209072 0.875766 0.045971
Si Si5 0.930076 0.071712 0.962105
Si Si6 0.023927 0.177911 0.490525
Si Si7 0.762287 0.693784 0.767214
Si Si8 0.000000 0.750000 0.250000
O O1 0.388644 0.889666 0.148601
O O2 0.341656 0.978466 0.206270
O O3 0.268013 0.915774 0.047208
O O4 0.366525 0.953699 0.920602
O O5 0.077271 0.819186 0.857003
O O6 0.171643 0.803145 0.662803
O O7 0.047920 0.805528 0.570066
O O8 0.943160 0.965397 0.605947
O O9 0.942387 0.039500 0.809758
O O10 0.143726 0.907162 0.021678
O O11 0.208716 0.846502 0.206752
O O12 0.217612 0.828432 0.929554
O O13 0.980569 0.118553 0.959139
O O14 0.042276 0.213323 0.636451
O O15 0.731100 0.750000 0.750000
#
# Coordination Sequence:
#
# PCOD8282665 Si02
#       8
#    16  16  16  16  16  16  16   4
#     4  10  21  40  62 102 132 184 227 274 345 422
#     4  10  23  45  75  90 140 187 221 288 365 417
#     4  10  22  37  67 100 138 185 236 276 349 424
#     4  11  22  40  63  95 141 183 226 291 351 403
#     4  11  22  43  66 100 144 182 231 293 346 426
#     4  11  25  49  71 102 139 180 235 301 352 426
#     4  11  23  41  66 101 131 182 240 289 354 427
#     4  12  32  46  76 108 124 178 248 288 368 406
#
# _framework density 24.626709999999999
#
# number of rings (size 3 to 8) (size 9 to 14) (size 15 to 20)
#    0.000    1.379    2.759    2.069    3.862    3.862 
#    1.241    4.138    0.000    0.000    0.000    0.000 
#    0.000    0.000    0.000    0.000    0.000    0.000 
#
# Total GULP energy -718808.817437 kJ/mol
# GULP energy per Si atom -12393.255473 kJ/mol
# Density = 2.457066 g / cm^3
# Si number density = 24.626710 Si / 1000 Ang^3
#
#
#
# Elastic Constant Matrix: (Units=GPa)
#
#
# Indices 1 2 3 4 5 6 
#
# 1 35.1234 -9.7506 14.9872 0.0000 0.0000 0.0000
# 2 -9.7506 106.5929 55.1048 0.0000 0.0000 0.0000
# 3 14.9872 55.1048 139.7278 0.0000 0.0000 0.0000
# 4 0.0000 0.0000 0.0000 58.4300 0.0000 0.0000
# 5 0.0000 0.0000 0.0000 0.0000 20.6795 0.0000
# 6 0.0000 0.0000 0.0000 0.0000 0.0000 21.4007
#
#
#
# Elastic Compliance Matrix: (Units=1/GPa)
#
#
# Indices 1 2 3 4 5 6 
#
# 1 0.032652 0.006026 -0.005879 0.000000 0.000000 0.000000
# 2 0.006026 0.012896 -0.005732 0.000000 0.000000 0.000000
# 3 -0.005879 -0.005732 0.010048 0.000000 0.000000 0.000000
# 4 0.000000 0.000000 0.000000 0.017114 0.000000 0.000000
# 5 0.000000 0.000000 0.000000 0.000000 0.048357 0.000000
# 6 0.000000 0.000000 0.000000 0.000000 0.000000 0.046728
#
#
# Mechanical properties :
#
#
# Convention : Reuss Voigt Hill
#
# Bulk Modulus (GPa) = 22.50911 44.68078 33.59494
# Shear Modulus (GPa) = 25.80321 34.84222 30.32271
#
# Velocity S-wave (km/s) = 3.24044 3.76548 3.51279
# Velocity P-wave (km/s) = 4.81255 6.08997 5.48855
#
# Compressibility (1/GPa) = 0.04442646
#
# Stress axis : x y z
#
# Youngs Moduli (GPa) = 30.62561 77.54305 99.52278
#
# Poissons Ratio (x) = -0.46728 0.58507
# Poissons Ratio (y) = -0.18455 0.57048
# Poissons Ratio (z) = 0.18004 0.44449
#
# Static dielectric constant tensor:
#      x y z
#    x 4.038650 0.000000 0.000000 
#    y 0.000000 4.707450 0.000000 
#    z 0.000000 0.000000 4.659320 
# 
# 
# High freq. dielectric constant tensor:
#      x y z
#    x 1.949430 0.000000 0.000000 
#    y 0.000000 1.995810 0.000000 
#    z 0.000000 0.000000 1.989470 
# 
# From -- ./inp_files/8357.got.cif
#   From: 2010.03.12/outbox.cif.g09.slc.cpg/sg68_5_cif.got.tgz:8357.got - 2010.04.10 23:14:56.
