data_PCOD8282766
_publ_section_title
;
Structure prediction by ZEFSAII (Michael W. Deem and Ramdas Pophale) SiO2 
 PCOD8282766
Probable space group: C C C A
;
_chemical_formula_sum "Si O2"
_cell_formula_units_Z 76
_cell_length_a 26.248171
_cell_length_b 9.699577
_cell_length_c 17.525730
_cell_angle_alpha 90.000000
_cell_angle_beta 90.000000
_cell_angle_gamma 90.000000
_cell_volume 4461.983484
_symmetry_space_group_name_H-M "C C C A"
_symmetry_group_IT_number 68
_space_group.IT_coordinate_system_code '2'
_symmetry_cell_setting 'orthorhombic'
loop_
_space_group_symop_operation_xyz
x,y,z
-x,1/2-y,z
x,1/2-y,1/2-z
-x,y,1/2-z
-x,-y,-z
x,1/2+y,-z
-x,1/2+y,1/2+z
x,-y,1/2+z
1/2+x,1/2+y,z
1/2-x,-y,z
1/2+x,-y,1/2-z
1/2-x,1/2+y,1/2-z
1/2-x,1/2-y,-z
1/2+x,y,-z
1/2-x,y,1/2+z
1/2+x,1/2-y,1/2+z
loop_
_atom_site_type_symbol
_atom_site_label
_atom_site_fract_x
_atom_site_fract_y
_atom_site_fract_z
Si Si1 0.902544 0.361883 0.307863
Si Si2 0.673863 0.321990 0.935387
Si Si3 0.190600 0.005099 0.078785
Si Si4 0.000000 0.750000 0.750000
Si Si5 0.250000 0.500000 0.161524
Si Si6 0.842663 0.094058 0.759351
O O1 0.876558 0.250000 0.250000
O O2 0.879680 0.343158 0.392027
O O3 0.964034 0.342713 0.305496
O O4 0.888878 0.513147 0.279400
O O5 0.679142 0.159609 0.949096
O O6 0.722102 0.383483 0.889014
O O7 0.671084 0.398338 0.015680
O O8 0.250000 0.000000 0.094303
O O9 0.161432 0.960456 0.154748
O O10 0.210158 0.577561 0.214657
O O11 0.859793 0.250000 0.750000
#
# Coordination Sequence:
#
# PCOD8282766 Si02
#       6
#    16  16  16   4   8  16
#     4   9  19  39  62  79 100 137 191 234 281 337
#     4  11  23  35  50  82 112 150 188 227 269 335
#     4  12  22  34  49  76 120 157 185 218 269 331
#     4   8  16  40  70  80  92 144 188 240 292 342
#     4  10  22  34  52  76 114 154 202 220 264 316
#     4  11  22  34  56  82 112 151 192 237 268 317
#
# _framework density 17.032783999999999
#
# number of rings (size 3 to 8) (size 9 to 14) (size 15 to 20)
#    0.632    0.842    4.211    1.895    5.895    0.000 
#    0.000    0.526    0.000    5.053    0.000    0.000 
#    0.000    0.000    0.000    0.000    0.000    0.000 
#
# Total GULP energy -471085.084357 kJ/mol
# GULP energy per Si atom -12396.975904 kJ/mol
# Density = 1.699402 g / cm^3
# Si number density = 17.032784 Si / 1000 Ang^3
#
#
#
# Elastic Constant Matrix: (Units=GPa)
#
#
# Indices 1 2 3 4 5 6 
#
# 1 100.6903 29.2764 15.7854 0.0000 0.0000 0.0000
# 2 29.2764 144.9305 27.1248 0.0000 0.0000 0.0000
# 3 15.7854 27.1248 67.4430 0.0000 0.0000 0.0000
# 4 0.0000 0.0000 0.0000 32.3683 0.0000 0.0000
# 5 0.0000 0.0000 0.0000 0.0000 -80.5330 0.0000
# 6 0.0000 0.0000 0.0000 0.0000 0.0000 19.0574
#
#
#
# Elastic Compliance Matrix: (Units=1/GPa)
#
#
# Indices 1 2 3 4 5 6 
#
# 1 0.010744 -0.001838 -0.001775 0.000000 0.000000 0.000000
# 2 -0.001838 0.007776 -0.002697 0.000000 0.000000 0.000000
# 3 -0.001775 -0.002697 0.016328 0.000000 0.000000 0.000000
# 4 0.000000 0.000000 0.000000 0.030894 0.000000 0.000000
# 5 0.000000 0.000000 0.000000 0.000000 -0.012417 0.000000
# 6 0.000000 0.000000 0.000000 0.000000 0.000000 0.052473
#
#
# Mechanical properties :
#
#
# Convention : Reuss Voigt Hill
#
# Bulk Modulus (GPa) = 44.99165 50.82633 47.90899
# Shear Modulus (GPa) = 39.73669 10.23702 24.98686
#
# Velocity S-wave (km/s) = 4.83531 2.45423 3.83428
# Velocity P-wave (km/s) = 7.59247 6.15923 6.91309
#
# Compressibility (1/GPa) = 0.02222635
#
# Stress axis : x y z
#
# Youngs Moduli (GPa) = 93.07330 128.60169 61.24572
#
# Poissons Ratio (x) = 0.23638 0.10874
# Poissons Ratio (y) = 0.17107 0.16519
# Poissons Ratio (z) = 0.16525 0.34686
#
# Static dielectric constant tensor:
#      x y z
#    x 2.876020 0.000000 0.000000 
#    y 0.000000 3.959250 0.000000 
#    z 0.000000 0.000000 3.230370 
# 
# 
# High freq. dielectric constant tensor:
#      x y z
#    x 1.619230 0.000000 0.000000 
#    y 0.000000 1.671080 0.000000 
#    z 0.000000 0.000000 1.660690 
# 
# From -- ./inp_files/28381.got.cif
#   From: 2010.03.12/outbox.cif.g09.slc.cpg/sg68_15_cif.got.tgz:28381.got - 2010.04.10 23:14:56.
