data_PCOD8282832
_publ_section_title
;
Structure prediction by ZEFSAII (Michael W. Deem and Ramdas Pophale) SiO2 
 PCOD8282832
Probable space group: C C C A
;
_chemical_formula_sum "Si O2"
_cell_formula_units_Z 128
_cell_length_a 11.969400
_cell_length_b 22.929897
_cell_length_c 23.654718
_cell_angle_alpha 90.000000
_cell_angle_beta 90.000000
_cell_angle_gamma 90.000000
_cell_volume 6492.205520
_symmetry_space_group_name_H-M "C C C A"
_symmetry_group_IT_number 68
_space_group.IT_coordinate_system_code '2'
_symmetry_cell_setting 'orthorhombic'
loop_
_space_group_symop_operation_xyz
x,y,z
-x,1/2-y,z
x,1/2-y,1/2-z
-x,y,1/2-z
-x,-y,-z
x,1/2+y,-z
-x,1/2+y,1/2+z
x,-y,1/2+z
1/2+x,1/2+y,z
1/2-x,-y,z
1/2+x,-y,1/2-z
1/2-x,1/2+y,1/2-z
1/2-x,1/2-y,-z
1/2+x,y,-z
1/2-x,y,1/2+z
1/2+x,1/2-y,1/2+z
loop_
_atom_site_type_symbol
_atom_site_label
_atom_site_fract_x
_atom_site_fract_y
_atom_site_fract_z
Si Si1 0.869540 0.185000 0.737304
Si Si2 0.296278 0.091040 0.178077
Si Si3 0.640601 0.300946 0.389102
Si Si4 0.067609 0.975132 0.692956
Si Si5 0.195846 0.857984 0.966892
Si Si6 0.099629 0.329504 0.915138
Si Si7 0.342670 0.541805 0.496534
Si Si8 0.948603 0.457998 0.419093
O O1 0.828501 0.250000 0.750000
O O2 0.799301 0.140292 0.774365
O O3 0.841973 0.171371 0.672387
O O4 0.000000 0.177307 0.750000
O O5 0.167927 0.069548 0.177527
O O6 0.336014 0.118279 0.117702
O O7 0.381568 0.039871 0.195079
O O8 0.751187 0.309006 0.426841
O O9 0.534493 0.335844 0.414829
O O10 0.624455 0.231495 0.384076
O O11 0.000000 0.960322 0.750000
O O12 0.970589 0.969934 0.646272
O O13 0.297746 0.894544 0.991753
O O14 0.116734 0.897910 0.928417
O O15 0.131806 0.828181 0.018940
O O16 0.250000 0.500000 0.468120
O O17 0.435626 0.548116 0.450416
O O18 0.381706 0.512735 0.555434
#
# Coordination Sequence:
#
# PCOD8282832 Si02
#       8
#    16  16  16  16  16  16  16  16
#     4  11  19  39  67  97 119 152 214 263 317 360
#     4  11  24  41  67  90 123 169 202 265 315 383
#     4  11  23  38  65  96 127 163 212 274 313 378
#     4  11  27  42  59  92 129 164 207 255 318 383
#     4  11  23  36  61  92 128 169 196 261 322 372
#     4  11  22  41  63  96 125 161 219 260 320 372
#     4   9  20  36  59  87 113 161 209 251 298 369
#     4  10  22  39  58  85 125 164 210 248 305 380
#
# _framework density 19.715949999999999
#
# number of rings (size 3 to 8) (size 9 to 14) (size 15 to 20)
#    0.000    1.375    2.500    3.000   10.500    0.000 
#    4.500    0.000    0.000    1.875    0.000    0.000 
#    0.000    0.000    0.000    0.000    0.000    0.000 
#
# Total GULP energy -793634.754773 kJ/mol
# GULP energy per Si atom -12400.543043 kJ/mol
# Density = 1.967108 g / cm^3
# Si number density = 19.715950 Si / 1000 Ang^3
#
#
#
# Elastic Constant Matrix: (Units=GPa)
#
#
# Indices 1 2 3 4 5 6 
#
# 1 81.8817 23.3134 36.0383 0.0000 0.0000 0.0000
# 2 23.3134 73.5469 19.1355 0.0000 0.0000 0.0000
# 3 36.0383 19.1355 126.0491 0.0000 0.0000 0.0000
# 4 0.0000 0.0000 0.0000 -8.4985 0.0000 0.0000
# 5 0.0000 0.0000 0.0000 0.0000 -6.2955 0.0000
# 6 0.0000 0.0000 0.0000 0.0000 0.0000 26.2301
#
#
#
# Elastic Compliance Matrix: (Units=1/GPa)
#
#
# Indices 1 2 3 4 5 6 
#
# 1 0.014909 -0.003766 -0.003691 0.000000 0.000000 0.000000
# 2 -0.003766 0.015107 -0.001217 0.000000 0.000000 0.000000
# 3 -0.003691 -0.001217 0.009173 0.000000 0.000000 0.000000
# 4 0.000000 0.000000 0.000000 -0.117668 0.000000 0.000000
# 5 0.000000 0.000000 0.000000 0.000000 -0.158843 0.000000
# 6 0.000000 0.000000 0.000000 0.000000 0.000000 0.038124
#
#
# Mechanical properties :
#
#
# Convention : Reuss Voigt Hill
#
# Bulk Modulus (GPa) = 45.78159 48.71690 47.24925
# Shear Modulus (GPa) = -28.64189 15.81993 -6.41098
#
# Velocity S-wave (km/s) = -3.81560 2.83573 -1.80520
# Velocity P-wave (km/s) = 1.96450 5.95691 4.43532
#
# Compressibility (1/GPa) = 0.02184284
#
# Stress axis : x y z
#
# Youngs Moduli (GPa) = 67.07156 66.19433 109.01059
#
# Poissons Ratio (x) = 0.24927 0.40236
# Poissons Ratio (y) = 0.25257 0.13264
# Poissons Ratio (z) = 0.24756 0.08054
#
# Static dielectric constant tensor:
#      x y z
#    x 3.814090 0.000000 0.000000 
#    y 0.000000 3.545360 0.000000 
#    z 0.000000 0.000000 3.777210 
# 
# 
# High freq. dielectric constant tensor:
#      x y z
#    x 1.764410 0.000000 0.000000 
#    y 0.000000 1.766610 0.000000 
#    z 0.000000 0.000000 1.774090 
# 
# From -- ./inp_files/44725.got.cif
#   From: 2010.03.12/outbox.cif.g09.slc.cpg/sg68_23_cif.got.tgz:44725.got - 2010.04.10 23:14:56.
