data_PCOD8282664
_publ_section_title
;
Structure prediction by ZEFSAII (Michael W. Deem and Ramdas Pophale) SiO2 
 PCOD8282664
Probable space group: C C C A
;
_chemical_formula_sum "Si O2"
_cell_formula_units_Z 112
_cell_length_a 23.268639
_cell_length_b 16.915256
_cell_length_c 14.532904
_cell_angle_alpha 90.000000
_cell_angle_beta 90.000000
_cell_angle_gamma 90.000000
_cell_volume 5720.078139
_symmetry_space_group_name_H-M "C C C A"
_symmetry_group_IT_number 68
_space_group.IT_coordinate_system_code '2'
_symmetry_cell_setting 'orthorhombic'
loop_
_space_group_symop_operation_xyz
x,y,z
-x,1/2-y,z
x,1/2-y,1/2-z
-x,y,1/2-z
-x,-y,-z
x,1/2+y,-z
-x,1/2+y,1/2+z
x,-y,1/2+z
1/2+x,1/2+y,z
1/2-x,-y,z
1/2+x,-y,1/2-z
1/2-x,1/2+y,1/2-z
1/2-x,1/2-y,-z
1/2+x,y,-z
1/2-x,y,1/2+z
1/2+x,1/2-y,1/2+z
loop_
_atom_site_type_symbol
_atom_site_label
_atom_site_fract_x
_atom_site_fract_y
_atom_site_fract_z
Si Si1 0.555795 0.523180 0.555784
Si Si2 0.716473 0.922123 0.870727
Si Si3 0.377749 0.979833 0.211272
Si Si4 0.756677 0.910858 0.075208
Si Si5 0.384786 0.938678 0.903620
Si Si6 0.994986 0.158589 0.641073
Si Si7 0.203796 0.839148 0.753699
O O1 0.500000 0.500000 0.500000
O O2 0.564065 0.470686 0.650170
O O3 0.608628 0.501722 0.487535
O O4 0.547071 0.614269 0.587624
O O5 0.651379 0.946465 0.846569
O O6 0.738246 0.849747 0.807250
O O7 0.750000 0.000000 0.838555
O O8 0.728760 0.899527 0.975565
O O9 0.387868 0.007071 0.314024
O O10 0.344944 0.896418 0.212239
O O11 0.824795 0.892255 0.079804
O O12 0.719772 0.855245 0.140786
O O13 0.750000 0.000000 0.111786
O O14 0.433988 0.872586 0.897386
O O15 0.000000 0.250000 0.616252
O O16 0.000000 0.143314 0.750000
O O17 0.180731 0.750000 0.750000
#
# Coordination Sequence:
#
# PCOD8282664 Si02
#       7
#    16  16  16  16  16  16  16
#     4  10  22  38  63  89 115 159 211 256 308 374
#     4   9  19  35  57  79 117 161 200 250 286 357
#     4  11  20  39  61  86 117 165 213 246 306 369
#     4  11  19  37  62  86 119 161 213 250 291 369
#     4  11  20  37  66  90 114 168 208 249 308 374
#     4  10  21  40  61  93 128 149 199 280 331 361
#     4  11  22  36  53  87 132 163 197 253 306 367
#
# _framework density 19.580151999999998
#
# number of rings (size 3 to 8) (size 9 to 14) (size 15 to 20)
#    0.000    1.571    4.286    3.000    0.000    0.571 
#    5.143    4.286    0.000    0.000    0.000    6.000 
#    0.000    0.000    0.000    0.000    0.000    0.000 
#
# Total GULP energy -693936.995713 kJ/mol
# GULP energy per Si atom -12391.732066 kJ/mol
# Density = 1.953559 g / cm^3
# Si number density = 19.580152 Si / 1000 Ang^3
#
#
#
# Elastic Constant Matrix: (Units=GPa)
#
#
# Indices 1 2 3 4 5 6 
#
# 1 62.0390 35.6528 19.0835 0.0000 0.0000 0.0000
# 2 35.6528 123.4267 55.1530 0.0000 0.0000 0.0000
# 3 19.0835 55.1530 128.6772 0.0000 0.0000 0.0000
# 4 0.0000 0.0000 0.0000 24.2611 0.0000 0.0000
# 5 0.0000 0.0000 0.0000 0.0000 33.7653 0.0000
# 6 0.0000 0.0000 0.0000 0.0000 0.0000 23.2907
#
#
#
# Elastic Compliance Matrix: (Units=1/GPa)
#
#
# Indices 1 2 3 4 5 6 
#
# 1 0.019363 -0.005331 -0.000587 0.000000 0.000000 0.000000
# 2 -0.005331 0.011489 -0.004134 0.000000 0.000000 0.000000
# 3 -0.000587 -0.004134 0.009630 0.000000 0.000000 0.000000
# 4 0.000000 0.000000 0.000000 0.041218 0.000000 0.000000
# 5 0.000000 0.000000 0.000000 0.000000 0.029616 0.000000
# 6 0.000000 0.000000 0.000000 0.000000 0.000000 0.042936
#
#
# Mechanical properties :
#
#
# Convention : Reuss Voigt Hill
#
# Bulk Modulus (GPa) = 49.06934 59.32462 54.19698
# Shear Modulus (GPa) = 27.60169 29.88031 28.74100
#
# Velocity S-wave (km/s) = 3.75864 3.91071 3.83543
# Velocity P-wave (km/s) = 6.62960 7.12430 6.88140
#
# Compressibility (1/GPa) = 0.02037932
#
# Stress axis : x y z
#
# Youngs Moduli (GPa) = 51.64487 87.03940 103.84011
#
# Poissons Ratio (x) = 0.46401 0.06092
# Poissons Ratio (y) = 0.27532 0.42925
# Poissons Ratio (z) = 0.03030 0.35980
#
# Static dielectric constant tensor:
#      x y z
#    x 3.830270 0.000000 0.000000 
#    y 0.000000 3.324400 0.000000 
#    z 0.000000 0.000000 3.923650 
# 
# 
# High freq. dielectric constant tensor:
#      x y z
#    x 1.761130 0.000000 0.000000 
#    y 0.000000 1.723180 0.000000 
#    z 0.000000 0.000000 1.785140 
# 
# From -- ./inp_files/25491.got.cif
#   From: 2010.03.12/outbox.cif.g09.slc.cpg/sg68_13_cif.got.tgz:25491.got - 2010.04.10 23:14:56.
