data_PCOD8282261
_publ_section_title
;
Structure prediction by ZEFSAII (Michael W. Deem and Ramdas Pophale) SiO2 
 PCOD8282261
Probable space group: C C C A
;
_chemical_formula_sum "Si O2"
_cell_formula_units_Z 68
_cell_length_a 15.057065
_cell_length_b 23.150357
_cell_length_c 9.489396
_cell_angle_alpha 90.000000
_cell_angle_beta 90.000000
_cell_angle_gamma 90.000000
_cell_volume 3307.779782
_symmetry_space_group_name_H-M "C C C A"
_symmetry_group_IT_number 68
_space_group.IT_coordinate_system_code '2'
_symmetry_cell_setting 'orthorhombic'
loop_
_space_group_symop_operation_xyz
x,y,z
-x,1/2-y,z
x,1/2-y,1/2-z
-x,y,1/2-z
-x,-y,-z
x,1/2+y,-z
-x,1/2+y,1/2+z
x,-y,1/2+z
1/2+x,1/2+y,z
1/2-x,-y,z
1/2+x,-y,1/2-z
1/2-x,1/2+y,1/2-z
1/2-x,1/2-y,-z
1/2+x,y,-z
1/2-x,y,1/2+z
1/2+x,1/2-y,1/2+z
loop_
_atom_site_type_symbol
_atom_site_label
_atom_site_fract_x
_atom_site_fract_y
_atom_site_fract_z
Si Si1 0.000000 0.750000 0.750000
Si Si2 0.011551 0.442284 0.586585
Si Si3 0.153726 0.864792 0.050342
Si Si4 0.318109 0.626124 0.627776
Si Si5 0.406599 0.737813 0.517292
O O1 0.933802 0.715466 0.642428
O O2 0.109547 0.417235 0.562801
O O3 0.000000 0.456568 0.750000
O O4 0.000000 0.500000 0.500000
O O5 0.941521 0.394840 0.530922
O O6 0.191154 0.878145 0.204997
O O7 0.147999 0.797182 0.015205
O O8 0.224254 0.891031 0.940345
O O9 0.346657 0.691513 0.594404
O O10 0.500000 0.750000 0.600389
#
# Coordination Sequence:
#
# PCOD8282261 Si02
#       5
#     4  16  16  16  16
#     4   8  20  32  58  88 124 162 214 232 292 366
#     4  10  23  45  64  89 119 163 207 259 308 360
#     4  11  24  40  65  93 127 162 206 250 309 367
#     4  11  24  40  65  93 127 162 206 250 309 367
#     4  10  20  37  62  91 129 161 201 242 309 362
#
# _framework density 20.557594999999999
#
# number of rings (size 3 to 8) (size 9 to 14) (size 15 to 20)
#    0.706    0.941    2.353    1.412    3.294    3.765 
#    4.235    4.706    0.000    0.000    0.000    0.000 
#    0.000    0.000    0.000    0.000    0.000    0.000 
#
# Total GULP energy -421384.056692 kJ/mol
# GULP energy per Si atom -12393.648726 kJ/mol
# Density = 2.051080 g / cm^3
# Si number density = 20.557595 Si / 1000 Ang^3
#
#
#
# Elastic Constant Matrix: (Units=GPa)
#
#
# Indices 1 2 3 4 5 6 
#
# 1 92.2477 10.3445 33.0785 0.0000 0.0000 0.0000
# 2 10.3445 96.1238 18.6010 0.0000 0.0000 0.0000
# 3 33.0785 18.6010 71.3865 0.0000 0.0000 0.0000
# 4 0.0000 0.0000 0.0000 23.8447 0.0000 0.0000
# 5 0.0000 0.0000 0.0000 0.0000 37.2664 0.0000
# 6 0.0000 0.0000 0.0000 0.0000 0.0000 20.7636
#
#
#
# Elastic Compliance Matrix: (Units=1/GPa)
#
#
# Indices 1 2 3 4 5 6 
#
# 1 0.013006 -0.000246 -0.005963 0.000000 0.000000 0.000000
# 2 -0.000246 0.010960 -0.002742 0.000000 0.000000 0.000000
# 3 -0.005963 -0.002742 0.017486 0.000000 0.000000 0.000000
# 4 0.000000 0.000000 0.000000 0.041938 0.000000 0.000000
# 5 0.000000 0.000000 0.000000 0.000000 0.026834 0.000000
# 6 0.000000 0.000000 0.000000 0.000000 0.000000 0.048161
#
#
# Mechanical properties :
#
#
# Convention : Reuss Voigt Hill
#
# Bulk Modulus (GPa) = 42.46075 42.64510 42.55292
# Shear Modulus (GPa) = 27.15383 29.55721 28.35552
#
# Velocity S-wave (km/s) = 3.63831 3.79592 3.71795
# Velocity P-wave (km/s) = 6.19267 6.32465 6.25901
#
# Compressibility (1/GPa) = 0.02355116
#
# Stress axis : x y z
#
# Youngs Moduli (GPa) = 76.88747 91.23826 57.18987
#
# Poissons Ratio (x) = 0.02243 0.34100
# Poissons Ratio (y) = 0.01890 0.15681
# Poissons Ratio (z) = 0.45845 0.25017
#
# Static dielectric constant tensor:
#      x y z
#    x 3.901990 0.000000 0.000000 
#    y 0.000000 3.426260 0.000000 
#    z 0.000000 0.000000 3.823800 
# 
# 
# High freq. dielectric constant tensor:
#      x y z
#    x 1.814660 0.000000 0.000000 
#    y 0.000000 1.777610 0.000000 
#    z 0.000000 0.000000 1.804270 
# 
# From -- ./inp_files/5931.got.cif
#   From: 2010.03.12/outbox.cif.g09.slc.cpg/sg68_3_cif.got.tgz:5931.got - 2010.04.10 23:14:56.
