data_PCOD8282448
_publ_section_title
;
Structure prediction by ZEFSAII (Michael W. Deem and Ramdas Pophale) SiO2 
 PCOD8282448
Probable space group: C C C A
;
_chemical_formula_sum "Si O2"
_cell_formula_units_Z 80
_cell_length_a 20.669256
_cell_length_b 15.903764
_cell_length_c 12.929289
_cell_angle_alpha 90.000000
_cell_angle_beta 90.000000
_cell_angle_gamma 90.000000
_cell_volume 4250.102556
_symmetry_space_group_name_H-M "C C C A"
_symmetry_group_IT_number 68
_space_group.IT_coordinate_system_code '2'
_symmetry_cell_setting 'orthorhombic'
loop_
_space_group_symop_operation_xyz
x,y,z
-x,1/2-y,z
x,1/2-y,1/2-z
-x,y,1/2-z
-x,-y,-z
x,1/2+y,-z
-x,1/2+y,1/2+z
x,-y,1/2+z
1/2+x,1/2+y,z
1/2-x,-y,z
1/2+x,-y,1/2-z
1/2-x,1/2+y,1/2-z
1/2-x,1/2-y,-z
1/2+x,y,-z
1/2-x,y,1/2+z
1/2+x,1/2-y,1/2+z
loop_
_atom_site_type_symbol
_atom_site_label
_atom_site_fract_x
_atom_site_fract_y
_atom_site_fract_z
Si Si1 0.627305 0.633551 0.256285
Si Si2 0.244962 0.168299 0.643519
Si Si3 0.573902 0.258562 0.586450
Si Si4 0.177637 0.176225 0.939801
Si Si5 0.682354 0.959659 0.720627
O O1 0.698294 0.669501 0.228921
O O2 0.604217 0.673061 0.365101
O O3 0.577561 0.664511 0.168202
O O4 0.629028 0.532169 0.259173
O O5 0.212319 0.259934 0.639746
O O6 0.273810 0.146807 0.530534
O O7 0.193184 0.096130 0.675403
O O8 0.500000 0.250000 0.552973
O O9 0.613982 0.279165 0.483990
O O10 0.155972 0.095904 0.873922
O O11 0.750000 0.000000 0.685308
#
# Coordination Sequence:
#
# PCOD8282448 Si02
#       5
#    16  16  16  16  16
#     4   9  19  35  57  82 109 143 190 232 280 336
#     4   9  20  33  54  85 115 149 175 225 294 349
#     4  10  21  39  61  77 106 157 201 227 270 333
#     4  10  21  33  58  80 116 149 186 229 282 341
#     4  10  21  32  52  87 122 140 177 233 295 343
#
# _framework density 18.823076
#
# number of rings (size 3 to 8) (size 9 to 14) (size 15 to 20)
#    0.000    2.400    0.000    1.800   25.200    4.000 
#    0.000    1.000    4.400    1.200    0.000    0.000 
#    0.000    0.000    0.000    0.000    0.000    0.000 
#
# Total GULP energy -495929.634204 kJ/mol
# GULP energy per Si atom -12398.240855 kJ/mol
# Density = 1.878023 g / cm^3
# Si number density = 18.823076 Si / 1000 Ang^3
#
#
#
# Elastic Constant Matrix: (Units=GPa)
#
#
# Indices 1 2 3 4 5 6 
#
# 1 74.4712 40.1414 36.5202 0.0000 0.0000 0.0000
# 2 40.1414 127.5572 48.9156 0.0000 0.0000 0.0000
# 3 36.5202 48.9156 69.6710 0.0000 0.0000 0.0000
# 4 0.0000 0.0000 0.0000 27.2286 0.0000 0.0000
# 5 0.0000 0.0000 0.0000 0.0000 18.8267 0.0000
# 6 0.0000 0.0000 0.0000 0.0000 0.0000 18.2785
#
#
#
# Elastic Compliance Matrix: (Units=1/GPa)
#
#
# Indices 1 2 3 4 5 6 
#
# 1 0.018842 -0.002931 -0.007819 0.000000 0.000000 0.000000
# 2 -0.002931 0.011184 -0.006316 0.000000 0.000000 0.000000
# 3 -0.007819 -0.006316 0.022886 0.000000 0.000000 0.000000
# 4 0.000000 0.000000 0.000000 0.036726 0.000000 0.000000
# 5 0.000000 0.000000 0.000000 0.000000 0.053116 0.000000
# 6 0.000000 0.000000 0.000000 0.000000 0.000000 0.054709
#
#
# Mechanical properties :
#
#
# Convention : Reuss Voigt Hill
#
# Bulk Modulus (GPa) = 53.24613 58.09486 55.67050
# Shear Modulus (GPa) = 21.02119 22.60822 21.81471
#
# Velocity S-wave (km/s) = 3.34545 3.46944 3.40801
# Velocity P-wave (km/s) = 6.57813 6.85419 6.71758
#
# Compressibility (1/GPa) = 0.01878071
#
# Stress axis : x y z
#
# Youngs Moduli (GPa) = 53.07219 89.41328 43.69497
#
# Poissons Ratio (x) = 0.26209 0.34164
# Poissons Ratio (y) = 0.15556 0.27597
# Poissons Ratio (z) = 0.41496 0.56471
#
# Static dielectric constant tensor:
#      x y z
#    x 3.165000 0.000000 0.000000 
#    y 0.000000 3.695890 0.000000 
#    z 0.000000 0.000000 3.346230 
# 
# 
# High freq. dielectric constant tensor:
#      x y z
#    x 1.690260 0.000000 0.000000 
#    y 0.000000 1.734660 0.000000 
#    z 0.000000 0.000000 1.726090 
# 
# From -- ./inp_files/24302.got.cif
#   From: 2010.03.12/outbox.cif.g09.slc.cpg/sg68_13_cif.got.tgz:24302.got - 2010.04.10 23:14:56.
