data_PCOD8282047
_publ_section_title
;
Structure prediction by ZEFSAII (Michael W. Deem and Ramdas Pophale) SiO2 
 PCOD8282047
Probable space group: C C C A
;
_chemical_formula_sum "Si O2"
_cell_formula_units_Z 80
_cell_length_a 21.447865
_cell_length_b 13.973814
_cell_length_c 13.477497
_cell_angle_alpha 90.000000
_cell_angle_beta 90.000000
_cell_angle_gamma 90.000000
_cell_volume 4039.320089
_symmetry_space_group_name_H-M "C C C A"
_symmetry_group_IT_number 68
_space_group.IT_coordinate_system_code '2'
_symmetry_cell_setting 'orthorhombic'
loop_
_space_group_symop_operation_xyz
x,y,z
-x,1/2-y,z
x,1/2-y,1/2-z
-x,y,1/2-z
-x,-y,-z
x,1/2+y,-z
-x,1/2+y,1/2+z
x,-y,1/2+z
1/2+x,1/2+y,z
1/2-x,-y,z
1/2+x,-y,1/2-z
1/2-x,1/2+y,1/2-z
1/2-x,1/2-y,-z
1/2+x,y,-z
1/2-x,y,1/2+z
1/2+x,1/2-y,1/2+z
loop_
_atom_site_type_symbol
_atom_site_label
_atom_site_fract_x
_atom_site_fract_y
_atom_site_fract_z
Si Si1 0.373029 0.375695 0.517351
Si Si2 0.874731 0.342673 0.029755
Si Si3 0.320583 0.492006 0.350785
Si Si4 0.387256 0.042749 0.346109
Si Si5 0.504957 0.855559 0.572715
O O1 0.353815 0.267268 0.540542
O O2 0.321175 0.421271 0.445259
O O3 0.377082 0.432694 0.620721
O O4 0.438019 0.393975 0.459467
O O5 0.848157 0.403572 0.121389
O O6 0.850766 0.387296 0.924270
O O7 0.950615 0.347271 0.026074
O O8 0.250000 0.500000 0.313232
O O9 0.361000 0.444071 0.263552
O O10 0.461026 0.072720 0.348900
O O11 0.500000 0.750000 0.621568
#
# Coordination Sequence:
#
# PCOD8282047 Si02
#       5
#    16  16  16  16  16
#     4  10  19  39  63  82 118 152 188 247 301 345
#     4   8  20  39  59  88 111 151 196 240 293 356
#     4  11  24  38  55  83 119 159 204 239 285 349
#     4   9  20  35  57  88 119 149 187 241 293 348
#     4   8  16  37  62  88 116 137 186 241 295 360
#
# _framework density 19.805313999999999
#
# number of rings (size 3 to 8) (size 9 to 14) (size 15 to 20)
#    1.200    1.600    0.000    0.600    0.000    6.400 
#    0.000    3.000    0.000    3.600    0.000    0.000 
#    0.000    0.000    0.000    0.000    0.000    0.000 
#
# Total GULP energy -495609.872105 kJ/mol
# GULP energy per Si atom -12390.246803 kJ/mol
# Density = 1.976024 g / cm^3
# Si number density = 19.805314 Si / 1000 Ang^3
#
#
#
# Elastic Constant Matrix: (Units=GPa)
#
#
# Indices 1 2 3 4 5 6 
#
# 1 58.5833 9.7192 13.9821 0.0000 0.0000 0.0000
# 2 9.7192 131.4589 20.0011 0.0000 0.0000 0.0000
# 3 13.9821 20.0011 61.4360 0.0000 0.0000 0.0000
# 4 0.0000 0.0000 0.0000 12.2110 0.0000 0.0000
# 5 0.0000 0.0000 0.0000 0.0000 13.6611 0.0000
# 6 0.0000 0.0000 0.0000 0.0000 0.0000 17.3449
#
#
#
# Elastic Compliance Matrix: (Units=1/GPa)
#
#
# Indices 1 2 3 4 5 6 
#
# 1 0.018120 -0.000749 -0.003880 0.000000 0.000000 0.000000
# 2 -0.000749 0.008034 -0.002445 0.000000 0.000000 0.000000
# 3 -0.003880 -0.002445 0.017956 0.000000 0.000000 0.000000
# 4 0.000000 0.000000 0.000000 0.081894 0.000000 0.000000
# 5 0.000000 0.000000 0.000000 0.000000 0.073200 0.000000
# 6 0.000000 0.000000 0.000000 0.000000 0.000000 0.057654
#
#
# Mechanical properties :
#
#
# Convention : Reuss Voigt Hill
#
# Bulk Modulus (GPa) = 33.37587 37.65363 35.51475
# Shear Modulus (GPa) = 17.79393 22.49511 20.14452
#
# Velocity S-wave (km/s) = 3.00065 3.37384 3.19270
# Velocity P-wave (km/s) = 5.37530 5.85066 5.61801
#
# Compressibility (1/GPa) = 0.02996177
#
# Stress axis : x y z
#
# Youngs Moduli (GPa) = 55.18743 124.46541 55.69121
#
# Poissons Ratio (x) = 0.09327 0.21608
# Poissons Ratio (y) = 0.04135 0.13617
# Poissons Ratio (z) = 0.21412 0.30433
#
# Static dielectric constant tensor:
#      x y z
#    x 3.346510 0.000000 0.000000 
#    y 0.000000 3.614660 0.000000 
#    z 0.000000 0.000000 3.118110 
# 
# 
# High freq. dielectric constant tensor:
#      x y z
#    x 1.751930 0.000000 0.000000 
#    y 0.000000 1.778900 0.000000 
#    z 0.000000 0.000000 1.737250 
# 
# From -- ./inp_files/24304.got.cif
#   From: 2010.03.12/outbox.cif.g09.slc.cpg/sg68_13_cif.got.tgz:24304.got - 2010.04.10 23:14:56.
