data_PCOD8282830
_publ_section_title
;
Structure prediction by ZEFSAII (Michael W. Deem and Ramdas Pophale) SiO2 
 PCOD8282830
Probable space group: C C C A
;
_chemical_formula_sum "Si O2"
_cell_formula_units_Z 80
_cell_length_a 9.383508
_cell_length_b 27.878230
_cell_length_c 13.914582
_cell_angle_alpha 90.000000
_cell_angle_beta 90.000000
_cell_angle_gamma 90.000000
_cell_volume 3639.993347
_symmetry_space_group_name_H-M "C C C A"
_symmetry_group_IT_number 68
_space_group.IT_coordinate_system_code '2'
_symmetry_cell_setting 'orthorhombic'
loop_
_space_group_symop_operation_xyz
x,y,z
-x,1/2-y,z
x,1/2-y,1/2-z
-x,y,1/2-z
-x,-y,-z
x,1/2+y,-z
-x,1/2+y,1/2+z
x,-y,1/2+z
1/2+x,1/2+y,z
1/2-x,-y,z
1/2+x,-y,1/2-z
1/2-x,1/2+y,1/2-z
1/2-x,1/2-y,-z
1/2+x,y,-z
1/2-x,y,1/2+z
1/2+x,1/2-y,1/2+z
loop_
_atom_site_type_symbol
_atom_site_label
_atom_site_fract_x
_atom_site_fract_y
_atom_site_fract_z
Si Si1 0.020434 0.101161 0.979805
Si Si2 0.995283 0.696349 0.589004
Si Si3 0.270552 0.197014 0.746936
Si Si4 0.147485 0.101099 0.785551
Si Si5 0.737568 0.443704 0.612127
O O1 0.148105 0.095812 0.900585
O O2 0.870415 0.080471 0.943553
O O3 0.993918 0.157072 0.004905
O O4 0.084109 0.072760 0.070817
O O5 0.847441 0.689167 0.645063
O O6 0.000000 0.750000 0.543362
O O7 0.121612 0.689970 0.664826
O O8 0.201992 0.250000 0.750000
O O9 0.149961 0.157086 0.756211
O O10 0.266959 0.071606 0.725685
O O11 0.000000 0.078794 0.750000
O O12 0.750000 0.500000 0.601558
#
# Coordination Sequence:
#
# PCOD8282830 Si02
#       5
#    16  16  16  16  16
#     4  11  22  42  65  93 130 164 213 265 318 383
#     4   9  18  35  62  92 122 165 212 252 307 381
#     4   9  17  35  59  86 121 168 214 250 301 376
#     4  10  22  39  57  86 129 161 200 264 322 371
#     4  11  24  43  65  91 124 164 215 267 322 378
#
# _framework density 21.978062999999999
#
# number of rings (size 3 to 8) (size 9 to 14) (size 15 to 20)
#    0.000    2.000    2.000    3.000    0.000    1.200 
#    7.200   11.000    0.000    0.000    0.000    0.000 
#    0.000    0.000    0.000    0.000    0.000    0.000 
#
# Total GULP energy -495715.002036 kJ/mol
# GULP energy per Si atom -12392.875051 kJ/mol
# Density = 2.192804 g / cm^3
# Si number density = 21.978063 Si / 1000 Ang^3
#
#
#
# Elastic Constant Matrix: (Units=GPa)
#
#
# Indices 1 2 3 4 5 6 
#
# 1 31.6692 10.8420 12.6989 0.0000 0.0000 0.0000
# 2 10.8420 144.1389 41.7576 0.0000 0.0000 0.0000
# 3 12.6989 41.7576 97.5335 0.0000 0.0000 0.0000
# 4 0.0000 0.0000 0.0000 28.3139 0.0000 0.0000
# 5 0.0000 0.0000 0.0000 0.0000 19.2800 0.0000
# 6 0.0000 0.0000 0.0000 0.0000 0.0000 23.6555
#
#
#
# Elastic Compliance Matrix: (Units=1/GPa)
#
#
# Indices 1 2 3 4 5 6 
#
# 1 0.033575 -0.001437 -0.003756 0.000000 0.000000 0.000000
# 2 -0.001437 0.007982 -0.003230 0.000000 0.000000 0.000000
# 3 -0.003756 -0.003230 0.012125 0.000000 0.000000 0.000000
# 4 0.000000 0.000000 0.000000 0.035318 0.000000 0.000000
# 5 0.000000 0.000000 0.000000 0.000000 0.051867 0.000000
# 6 0.000000 0.000000 0.000000 0.000000 0.000000 0.042273
#
#
# Mechanical properties :
#
#
# Convention : Reuss Voigt Hill
#
# Bulk Modulus (GPa) = 27.14872 44.88208 36.01540
# Shear Modulus (GPa) = 23.55544 28.11941 25.83742
#
# Velocity S-wave (km/s) = 3.27734 3.58079 3.43242
# Velocity P-wave (km/s) = 5.16728 6.12876 5.66844
#
# Compressibility (1/GPa) = 0.03683415
#
# Stress axis : x y z
#
# Youngs Moduli (GPa) = 29.78441 125.28766 82.47529
#
# Poissons Ratio (x) = 0.18008 0.30978
# Poissons Ratio (y) = 0.04281 0.26640
# Poissons Ratio (z) = 0.11187 0.40469
#
# Static dielectric constant tensor:
#      x y z
#    x 3.683350 0.000000 0.000000 
#    y 0.000000 3.994610 0.000000 
#    z 0.000000 0.000000 4.176570 
# 
# 
# High freq. dielectric constant tensor:
#      x y z
#    x 1.844350 0.000000 0.000000 
#    y 0.000000 1.865580 0.000000 
#    z 0.000000 0.000000 1.863310 
# 
# From -- ./inp_files/11946.got.cif
#   From: 2010.03.12/outbox.cif.g09.slc.cpg/sg68_6_cif.got.tgz:11946.got - 2010.04.10 23:14:56.
