data_PCOD8282336
_publ_section_title
;
Structure prediction by ZEFSAII (Michael W. Deem and Ramdas Pophale) SiO2 
 PCOD8282336
Probable space group: C C C A
;
_chemical_formula_sum "Si O2"
_cell_formula_units_Z 104
_cell_length_a 15.597980
_cell_length_b 17.955973
_cell_length_c 18.439205
_cell_angle_alpha 90.000000
_cell_angle_beta 90.000000
_cell_angle_gamma 90.000000
_cell_volume 5164.395517
_symmetry_space_group_name_H-M "C C C A"
_symmetry_group_IT_number 68
_space_group.IT_coordinate_system_code '2'
_symmetry_cell_setting 'orthorhombic'
loop_
_space_group_symop_operation_xyz
x,y,z
-x,1/2-y,z
x,1/2-y,1/2-z
-x,y,1/2-z
-x,-y,-z
x,1/2+y,-z
-x,1/2+y,1/2+z
x,-y,1/2+z
1/2+x,1/2+y,z
1/2-x,-y,z
1/2+x,-y,1/2-z
1/2-x,1/2+y,1/2-z
1/2-x,1/2-y,-z
1/2+x,y,-z
1/2-x,y,1/2+z
1/2+x,1/2-y,1/2+z
loop_
_atom_site_type_symbol
_atom_site_label
_atom_site_fract_x
_atom_site_fract_y
_atom_site_fract_z
Si Si1 0.209588 0.075550 0.235688
Si Si2 0.059390 0.949268 0.643440
Si Si3 0.265331 0.181715 0.445567
Si Si4 0.500000 0.426211 0.250000
Si Si5 0.149063 0.677920 0.207816
Si Si6 0.662002 0.464231 0.505210
Si Si7 0.625556 0.920758 0.114063
O O1 0.132361 0.101392 0.182298
O O2 0.276005 0.142797 0.242457
O O3 0.175116 0.054562 0.314583
O O4 0.250000 0.000000 0.202650
O O5 0.089099 0.974326 0.564514
O O6 0.972469 0.900977 0.634948
O O7 0.047631 0.023225 0.691105
O O8 0.250000 0.250000 0.500000
O O9 0.316993 0.201480 0.371982
O O10 0.322780 0.122178 0.488112
O O11 0.171537 0.148630 0.425237
O O12 0.431368 0.377871 0.204745
O O13 0.116476 0.750000 0.250000
O O14 0.750000 0.500000 0.533905
O O15 0.628047 0.505086 0.433808
#
# Coordination Sequence:
#
# PCOD8282336 Si02
#       7
#    16  16  16   8  16  16  16
#     4  11  19  37  64  90 124 167 212 262 322 385
#     4  12  21  35  65  98 124 157 213 272 317 386
#     4  10  23  43  65  85 130 178 219 259 326 396
#     4  12  23  40  64  98 137 160 214 278 341 380
#     4  11  25  41  64  93 133 176 213 269 331 399
#     4  10  22  37  62  92 124 163 216 268 321 384
#     4  10  20  39  60  92 124 162 208 275 327 371
#
# _framework density 20.137885000000001
#
# number of rings (size 3 to 8) (size 9 to 14) (size 15 to 20)
#    0.000    1.231    3.077    4.385    2.154    1.231 
#    0.000    2.308    0.000    0.923    0.000    0.000 
#    0.000    0.000    0.000    0.000    0.000    0.000 
#
# Total GULP energy -644823.216040 kJ/mol
# GULP energy per Si atom -12400.446462 kJ/mol
# Density = 2.009205 g / cm^3
# Si number density = 20.137885 Si / 1000 Ang^3
#
#
#
# Elastic Constant Matrix: (Units=GPa)
#
#
# Indices 1 2 3 4 5 6 
#
# 1 108.7297 22.0910 30.0040 0.0000 0.0000 0.0000
# 2 22.0910 80.5317 39.9170 0.0000 0.0000 0.0000
# 3 30.0040 39.9170 94.5006 0.0000 0.0000 0.0000
# 4 0.0000 0.0000 0.0000 22.6349 0.0000 0.0000
# 5 0.0000 0.0000 0.0000 0.0000 41.3207 0.0000
# 6 0.0000 0.0000 0.0000 0.0000 0.0000 21.4318
#
#
#
# Elastic Compliance Matrix: (Units=1/GPa)
#
#
# Indices 1 2 3 4 5 6 
#
# 1 0.010224 -0.001512 -0.002607 0.000000 0.000000 0.000000
# 2 -0.001512 0.015929 -0.006248 0.000000 0.000000 0.000000
# 3 -0.002607 -0.006248 0.014049 0.000000 0.000000 0.000000
# 4 0.000000 0.000000 0.000000 0.044180 0.000000 0.000000
# 5 0.000000 0.000000 0.000000 0.000000 0.024201 0.000000
# 6 0.000000 0.000000 0.000000 0.000000 0.000000 0.046660
#
#
# Mechanical properties :
#
#
# Convention : Reuss Voigt Hill
#
# Bulk Modulus (GPa) = 51.37041 51.97621 51.67331
# Shear Modulus (GPa) = 27.40214 29.86081 28.63147
#
# Velocity S-wave (km/s) = 3.69280 3.85491 3.77473
# Velocity P-wave (km/s) = 6.61416 6.75870 6.68682
#
# Compressibility (1/GPa) = 0.01946646
#
# Stress axis : x y z
#
# Youngs Moduli (GPa) = 97.81052 62.77679 71.17878
#
# Poissons Ratio (x) = 0.09493 0.18559
# Poissons Ratio (y) = 0.14791 0.44476
# Poissons Ratio (z) = 0.25502 0.39226
#
# Static dielectric constant tensor:
#      x y z
#    x 4.027440 0.000000 0.000000 
#    y 0.000000 3.366670 0.000000 
#    z 0.000000 0.000000 3.720110 
# 
# 
# High freq. dielectric constant tensor:
#      x y z
#    x 1.799380 0.000000 0.000000 
#    y 0.000000 1.754730 0.000000 
#    z 0.000000 0.000000 1.797020 
# 
# From -- ./inp_files/32091.got.cif
#   From: 2010.03.12/outbox.cif.g09.slc.cpg/sg68_17_cif.got.tgz:32091.got - 2010.04.10 23:14:56.
