data_PCOD8282130
_publ_section_title
;
Structure prediction by ZEFSAII (Michael W. Deem and Ramdas Pophale) SiO2 
 PCOD8282130
Probable space group: C C C A
;
_chemical_formula_sum "Si O2"
_cell_formula_units_Z 92
_cell_length_a 14.799160
_cell_length_b 15.047078
_cell_length_c 19.010894
_cell_angle_alpha 90.000000
_cell_angle_beta 90.000000
_cell_angle_gamma 90.000000
_cell_volume 4233.424103
_symmetry_space_group_name_H-M "C C C A"
_symmetry_group_IT_number 68
_space_group.IT_coordinate_system_code '2'
_symmetry_cell_setting 'orthorhombic'
loop_
_space_group_symop_operation_xyz
x,y,z
-x,1/2-y,z
x,1/2-y,1/2-z
-x,y,1/2-z
-x,-y,-z
x,1/2+y,-z
-x,1/2+y,1/2+z
x,-y,1/2+z
1/2+x,1/2+y,z
1/2-x,-y,z
1/2+x,-y,1/2-z
1/2-x,1/2+y,1/2-z
1/2-x,1/2-y,-z
1/2+x,y,-z
1/2-x,y,1/2+z
1/2+x,1/2-y,1/2+z
loop_
_atom_site_type_symbol
_atom_site_label
_atom_site_fract_x
_atom_site_fract_y
_atom_site_fract_z
Si Si1 0.722602 0.708379 0.173175
Si Si2 0.518536 0.153187 0.014030
Si Si3 0.500000 0.750000 0.750000
Si Si4 0.094092 0.429855 0.386449
Si Si5 0.223126 0.172916 0.947155
Si Si6 0.096381 0.114712 0.648468
Si Si7 0.750000 0.500000 0.015967
O O1 0.719352 0.750000 0.250000
O O2 0.628045 0.658773 0.154235
O O3 0.743161 0.796658 0.128770
O O4 0.796502 0.632362 0.154729
O O5 0.500000 0.250000 0.984133
O O6 0.616099 0.151576 0.052601
O O7 0.440672 0.129182 0.069560
O O8 0.514791 0.093425 0.942610
O O9 0.558333 0.686193 0.702046
O O10 0.070041 0.511392 0.332588
O O11 0.168397 0.474554 0.435025
O O12 0.276839 0.083449 0.966768
O O13 0.250000 0.250000 0.000000
#
# Coordination Sequence:
#
# PCOD8282130 Si02
#       7
#    16  16   4  16  16  16   8
#     4  12  23  42  68  93 137 182 214 272 338 409
#     4  11  22  37  67  96 128 166 215 278 335 388
#     4  12  24  40  68  92 142 168 212 280 340 396
#     4  11  23  42  64  97 129 174 223 275 337 392
#     4  11  20  41  64  95 130 168 229 276 329 395
#     4  12  22  42  62  98 131 174 218 267 338 403
#     4  10  20  34  66  90 124 162 218 288 314 376
#
# _framework density 21.731816999999999
#
# number of rings (size 3 to 8) (size 9 to 14) (size 15 to 20)
#    0.000    0.696    8.696    0.522    0.000    0.000 
#    3.130    1.739    0.000    0.000    0.000    0.000 
#    0.000    0.000    0.000    0.000    0.000    0.000 
#
# Total GULP energy -569909.063594 kJ/mol
# GULP energy per Si atom -12389.327469 kJ/mol
# Density = 2.168235 g / cm^3
# Si number density = 21.731817 Si / 1000 Ang^3
#
#
#
# Elastic Constant Matrix: (Units=GPa)
#
#
# Indices 1 2 3 4 5 6 
#
# 1 31.5137 8.6539 26.9840 0.0000 0.0000 0.0000
# 2 8.6539 152.6008 61.6470 0.0000 0.0000 0.0000
# 3 26.9840 61.6470 130.1547 0.0000 0.0000 0.0000
# 4 0.0000 0.0000 0.0000 1.3973 0.0000 0.0000
# 5 0.0000 0.0000 0.0000 0.0000 -33.0077 0.0000
# 6 0.0000 0.0000 0.0000 0.0000 0.0000 25.8234
#
#
#
# Elastic Compliance Matrix: (Units=1/GPa)
#
#
# Indices 1 2 3 4 5 6 
#
# 1 0.038788 0.001297 -0.008656 0.000000 0.000000 0.000000
# 2 0.001297 0.008147 -0.004128 0.000000 0.000000 0.000000
# 3 -0.008656 -0.004128 0.011433 0.000000 0.000000 0.000000
# 4 0.000000 0.000000 0.000000 0.715690 0.000000 0.000000
# 5 0.000000 0.000000 0.000000 0.000000 -0.030296 0.000000
# 6 0.000000 0.000000 0.000000 0.000000 0.000000 0.038725
#
#
# Mechanical properties :
#
#
# Convention : Reuss Voigt Hill
#
# Bulk Modulus (GPa) = 28.25295 56.53767 42.39531
# Shear Modulus (GPa) = 6.11802 13.30822 9.71312
#
# Velocity S-wave (km/s) = 1.67969 2.47732 2.11642
# Velocity P-wave (km/s) = 4.09765 5.85281 5.05204
#
# Compressibility (1/GPa) = 0.03539454
#
# Stress axis : x y z
#
# Youngs Moduli (GPa) = 25.78132 122.74504 87.46768
#
# Poissons Ratio (x) = -0.15922 0.75712
# Poissons Ratio (y) = -0.03344 0.36104
# Poissons Ratio (z) = 0.22316 0.50665
#
# Static dielectric constant tensor:
#      x y z
#    x 4.054370 0.000000 0.000000 
#    y 0.000000 4.963720 0.000000 
#    z 0.000000 0.000000 4.201110 
# 
# 
# High freq. dielectric constant tensor:
#      x y z
#    x 1.837850 0.000000 0.000000 
#    y 0.000000 1.878420 0.000000 
#    z 0.000000 0.000000 1.831310 
# 
# From -- ./inp_files/38608.got.cif
#   From: 2010.03.12/outbox.cif.g09.slc.cpg/sg68_20_cif.got.tgz:38608.got - 2010.04.10 23:14:56.
