data_PCOD8282488
_publ_section_title
;
Structure prediction by ZEFSAII (Michael W. Deem and Ramdas Pophale) SiO2 
 PCOD8282488
Probable space group: C C C A
;
_chemical_formula_sum "Si O2"
_cell_formula_units_Z 64
_cell_length_a 8.192562
_cell_length_b 22.748540
_cell_length_c 15.847195
_cell_angle_alpha 90.000000
_cell_angle_beta 90.000000
_cell_angle_gamma 90.000000
_cell_volume 2953.423102
_symmetry_space_group_name_H-M "C C C A"
_symmetry_group_IT_number 68
_space_group.IT_coordinate_system_code '2'
_symmetry_cell_setting 'orthorhombic'
loop_
_space_group_symop_operation_xyz
x,y,z
-x,1/2-y,z
x,1/2-y,1/2-z
-x,y,1/2-z
-x,-y,-z
x,1/2+y,-z
-x,1/2+y,1/2+z
x,-y,1/2+z
1/2+x,1/2+y,z
1/2-x,-y,z
1/2+x,-y,1/2-z
1/2-x,1/2+y,1/2-z
1/2-x,1/2-y,-z
1/2+x,y,-z
1/2-x,y,1/2+z
1/2+x,1/2-y,1/2+z
loop_
_atom_site_type_symbol
_atom_site_label
_atom_site_fract_x
_atom_site_fract_y
_atom_site_fract_z
Si Si1 0.344115 0.878877 0.306709
Si Si2 0.470092 0.468337 0.911673
Si Si3 0.947877 0.811318 0.154137
Si Si4 0.847158 0.080424 0.849548
O O1 0.500000 0.858782 0.250000
O O2 0.387079 0.925065 0.380507
O O3 0.249028 0.823612 0.350036
O O4 0.210894 0.908362 0.245711
O O5 0.303438 0.430047 0.914096
O O6 0.454009 0.521030 0.844003
O O7 0.500000 0.500000 0.000000
O O8 0.000000 0.750000 0.108020
O O9 0.000000 0.805307 0.250000
O O10 0.047670 0.865470 0.112477
#
# Coordination Sequence:
#
# PCOD8282488 Si02
#       4
#    16  16  16  16
#     4   9  19  35  57  85 115 151 192 238 293 355
#     4  10  21  36  55  83 117 148 188 241 294 353
#     4   9  18  34  55  81 113 149 194 246 291 338
#     4   9  20  35  53  80 113 148 191 236 294 353
#
# _framework density 21.66977
#
# number of rings (size 3 to 8) (size 9 to 14) (size 15 to 20)
#    0.000    2.750    0.000    0.000    0.000   22.000 
#    0.000   21.250    0.000    6.000    0.000    0.000 
#    0.000    0.000    0.000    0.000    0.000    2.000 
#
# Total GULP energy -396432.254711 kJ/mol
# GULP energy per Si atom -12388.507960 kJ/mol
# Density = 2.162045 g / cm^3
# Si number density = 21.669770 Si / 1000 Ang^3
#
#
#
# Elastic Constant Matrix: (Units=GPa)
#
#
# Indices 1 2 3 4 5 6 
#
# 1 124.8497 98.6766 31.9361 0.0000 0.0000 0.0000
# 2 98.6766 164.6512 21.2069 0.0000 0.0000 0.0000
# 3 31.9361 21.2069 56.2747 0.0000 0.0000 0.0000
# 4 0.0000 0.0000 0.0000 6.7789 0.0000 0.0000
# 5 0.0000 0.0000 0.0000 0.0000 17.5401 0.0000
# 6 0.0000 0.0000 0.0000 0.0000 0.0000 42.3672
#
#
#
# Elastic Compliance Matrix: (Units=1/GPa)
#
#
# Indices 1 2 3 4 5 6 
#
# 1 0.017004 -0.009404 -0.006106 0.000000 0.000000 0.000000
# 2 -0.009404 0.011584 0.000971 0.000000 0.000000 0.000000
# 3 -0.006106 0.000971 0.020869 0.000000 0.000000 0.000000
# 4 0.000000 0.000000 0.000000 0.147517 0.000000 0.000000
# 5 0.000000 0.000000 0.000000 0.000000 0.057012 0.000000
# 6 0.000000 0.000000 0.000000 0.000000 0.000000 0.023603
#
#
# Mechanical properties :
#
#
# Convention : Reuss Voigt Hill
#
# Bulk Modulus (GPa) = 49.06776 72.15720 60.61248
# Shear Modulus (GPa) = 15.95093 26.26765 21.10929
#
# Velocity S-wave (km/s) = 2.71604 3.48541 3.12450
# Velocity P-wave (km/s) = 5.70337 7.04048 6.40690
#
# Compressibility (1/GPa) = 0.02037998
#
# Stress axis : x y z
#
# Youngs Moduli (GPa) = 58.80811 86.32251 47.91780
#
# Poissons Ratio (x) = 0.81181 0.29259
# Poissons Ratio (y) = 0.55306 -0.04655
# Poissons Ratio (z) = 0.35909 -0.08386
#
# Static dielectric constant tensor:
#      x y z
#    x 4.513690 0.000000 0.000000 
#    y 0.000000 4.844890 0.000000 
#    z 0.000000 0.000000 3.371200 
# 
# 
# High freq. dielectric constant tensor:
#      x y z
#    x 1.864740 0.000000 0.000000 
#    y 0.000000 1.843370 0.000000 
#    z 0.000000 0.000000 1.799350 
# 
# From -- ./inp_files/19211.got.cif
#   From: 2010.03.12/outbox.cif.g09.slc.cpg/sg68_10_cif.got.tgz:19211.got - 2010.04.10 23:14:56.
