data_PCOD8282608
_publ_section_title
;
Structure prediction by ZEFSAII (Michael W. Deem and Ramdas Pophale) SiO2 
 PCOD8282608
Probable space group: C C C A
;
_chemical_formula_sum "Si O2"
_cell_formula_units_Z 64
_cell_length_a 8.985373
_cell_length_b 17.536841
_cell_length_c 16.954729
_cell_angle_alpha 90.000000
_cell_angle_beta 90.000000
_cell_angle_gamma 90.000000
_cell_volume 2671.642399
_symmetry_space_group_name_H-M "C C C A"
_symmetry_group_IT_number 68
_space_group.IT_coordinate_system_code '2'
_symmetry_cell_setting 'orthorhombic'
loop_
_space_group_symop_operation_xyz
x,y,z
-x,1/2-y,z
x,1/2-y,1/2-z
-x,y,1/2-z
-x,-y,-z
x,1/2+y,-z
-x,1/2+y,1/2+z
x,-y,1/2+z
1/2+x,1/2+y,z
1/2-x,-y,z
1/2+x,-y,1/2-z
1/2-x,1/2+y,1/2-z
1/2-x,1/2-y,-z
1/2+x,y,-z
1/2-x,y,1/2+z
1/2+x,1/2-y,1/2+z
loop_
_atom_site_type_symbol
_atom_site_label
_atom_site_fract_x
_atom_site_fract_y
_atom_site_fract_z
Si Si1 0.501542 0.854478 0.493310
Si Si2 0.830344 0.927994 0.273460
Si Si3 0.766650 0.294517 0.605097
Si Si4 0.245518 0.880671 0.390823
O O1 0.606926 0.815597 0.429368
O O2 0.390761 0.793934 0.535952
O O3 0.387649 0.907294 0.443016
O O4 0.595500 0.901043 0.559044
O O5 0.814856 0.852138 0.325721
O O6 0.741410 0.923407 0.191230
O O7 0.000000 0.942393 0.250000
O O8 0.750000 0.000000 0.317339
O O9 0.757378 0.208359 0.634518
#
# Coordination Sequence:
#
# PCOD8282608 Si02
#       4
#    16  16  16  16
#     4  10  21  38  69 106 131 156 205 272 325 374
#     4  12  29  47  62  88 132 177 216 261 313 379
#     4  11  21  41  71 100 128 163 211 265 321 376
#     4  11  21  41  71 100 128 163 211 265 321 376
#
# _framework density 23.955300999999999
#
# number of rings (size 3 to 8) (size 9 to 14) (size 15 to 20)
#    0.000    1.000    2.500    6.750    3.500    1.000 
#    0.000   10.000    0.000    0.000    0.000    0.000 
#    0.000    0.000    0.000    0.000    0.000    0.000 
#
# Total GULP energy -396607.275181 kJ/mol
# GULP energy per Si atom -12393.977349 kJ/mol
# Density = 2.390078 g / cm^3
# Si number density = 23.955301 Si / 1000 Ang^3
#
#
#
# Elastic Constant Matrix: (Units=GPa)
#
#
# Indices 1 2 3 4 5 6 
#
# 1 158.3971 16.1272 35.4388 0.0000 0.0000 0.0000
# 2 16.1272 76.3205 24.6950 0.0000 0.0000 0.0000
# 3 35.4388 24.6950 89.7640 0.0000 0.0000 0.0000
# 4 0.0000 0.0000 0.0000 15.0335 0.0000 0.0000
# 5 0.0000 0.0000 0.0000 0.0000 24.8396 0.0000
# 6 0.0000 0.0000 0.0000 0.0000 0.0000 18.4767
#
#
#
# Elastic Compliance Matrix: (Units=1/GPa)
#
#
# Indices 1 2 3 4 5 6 
#
# 1 0.006953 -0.000638 -0.002570 0.000000 0.000000 0.000000
# 2 -0.000638 0.014441 -0.003721 0.000000 0.000000 0.000000
# 3 -0.002570 -0.003721 0.013179 0.000000 0.000000 0.000000
# 4 0.000000 0.000000 0.000000 0.066518 0.000000 0.000000
# 5 0.000000 0.000000 0.000000 0.000000 0.040258 0.000000
# 6 0.000000 0.000000 0.000000 0.000000 0.000000 0.054122
#
#
# Mechanical properties :
#
#
# Convention : Reuss Voigt Hill
#
# Bulk Modulus (GPa) = 48.27210 53.00040 50.63625
# Shear Modulus (GPa) = 23.12305 28.21799 25.67052
#
# Velocity S-wave (km/s) = 3.11023 3.43584 3.27708
# Velocity P-wave (km/s) = 5.75263 6.15733 5.95842
#
# Compressibility (1/GPa) = 0.02071590
#
# Stress axis : x y z
#
# Youngs Moduli (GPa) = 143.82080 69.24502 75.88093
#
# Poissons Ratio (x) = 0.04416 0.19499
# Poissons Ratio (y) = 0.09173 0.28237
# Poissons Ratio (z) = 0.36956 0.25767
#
# Static dielectric constant tensor:
#      x y z
#    x 4.688720 0.000000 0.000000 
#    y 0.000000 3.843160 0.000000 
#    z 0.000000 0.000000 4.435180 
# 
# 
# High freq. dielectric constant tensor:
#      x y z
#    x 1.974410 0.000000 0.000000 
#    y 0.000000 1.920520 0.000000 
#    z 0.000000 0.000000 1.950190 
# 
# From -- ./inp_files/5808.got.cif
#   From: 2010.03.12/outbox.cif.g09.slc.cpg/sg68_3_cif.got.tgz:5808.got - 2010.04.10 23:14:56.
