data_PCOD8282955
_publ_section_title
;
Structure prediction by ZEFSAII (Michael W. Deem and Ramdas Pophale) SiO2 
 PCOD8282955
Probable space group: C C C A
;
_chemical_formula_sum "Si O2"
_cell_formula_units_Z 104
_cell_length_a 14.721022
_cell_length_b 18.912991
_cell_length_c 18.073226
_cell_angle_alpha 90.000000
_cell_angle_beta 90.000000
_cell_angle_gamma 90.000000
_cell_volume 5031.921496
_symmetry_space_group_name_H-M "C C C A"
_symmetry_group_IT_number 68
_space_group.IT_coordinate_system_code '2'
_symmetry_cell_setting 'orthorhombic'
loop_
_space_group_symop_operation_xyz
x,y,z
-x,1/2-y,z
x,1/2-y,1/2-z
-x,y,1/2-z
-x,-y,-z
x,1/2+y,-z
-x,1/2+y,1/2+z
x,-y,1/2+z
1/2+x,1/2+y,z
1/2-x,-y,z
1/2+x,-y,1/2-z
1/2-x,1/2+y,1/2-z
1/2-x,1/2-y,-z
1/2+x,y,-z
1/2-x,y,1/2+z
1/2+x,1/2-y,1/2+z
loop_
_atom_site_type_symbol
_atom_site_label
_atom_site_fract_x
_atom_site_fract_y
_atom_site_fract_z
Si Si1 0.540262 0.671569 0.988741
Si Si2 0.619966 0.588468 0.564595
Si Si3 0.258900 0.579516 0.807117
Si Si4 0.323481 0.179695 0.797089
Si Si5 0.251396 0.324006 0.039712
Si Si6 0.500000 0.401729 0.750000
Si Si7 0.586521 0.435940 0.606168
O O1 0.500000 0.750000 0.003349
O O2 0.470444 0.634444 0.933899
O O3 0.640608 0.660776 0.953343
O O4 0.535031 0.627860 0.065155
O O5 0.648777 0.595376 0.650040
O O6 0.695295 0.615563 0.504946
O O7 0.597434 0.504746 0.552982
O O8 0.250000 0.500000 0.778189
O O9 0.252676 0.627296 0.735071
O O10 0.183942 0.594912 0.870595
O O11 0.315101 0.250000 0.750000
O O12 0.299173 0.188907 0.882702
O O13 0.422705 0.148095 0.784201
O O14 0.250000 0.250000 0.000000
O O15 0.533846 0.452164 0.683311
#
# Coordination Sequence:
#
# PCOD8282955 Si02
#       7
#    16  16  16  16  16   8  16
#     4  12  25  39  67  99 133 176 229 283 342 407
#     4  11  22  44  69  92 137 176 219 279 340 410
#     4   9  20  42  65  89 131 174 207 268 341 390
#     4  11  24  41  67  97 131 172 228 283 334 408
#     4  12  25  44  68 100 136 177 229 287 344 407
#     4  10  23  40  68 106 129 172 232 284 351 410
#     4  10  22  42  66 100 135 173 220 286 347 398
#
# _framework density 20.668049
#
# number of rings (size 3 to 8) (size 9 to 14) (size 15 to 20)
#    0.000    1.231    3.077    2.538    2.154    0.000 
#   11.077    0.000    0.000    0.000    0.000    0.000 
#    0.000    0.000    0.000    0.000    0.000    0.000 
#
# Total GULP energy -644322.628190 kJ/mol
# GULP energy per Si atom -12390.819773 kJ/mol
# Density = 2.062101 g / cm^3
# Si number density = 20.668049 Si / 1000 Ang^3
#
#
#
# Elastic Constant Matrix: (Units=GPa)
#
#
# Indices 1 2 3 4 5 6 
#
# 1 123.1366 49.9486 38.7816 0.0000 0.0000 0.0000
# 2 49.9486 137.9553 72.5446 0.0000 0.0000 0.0000
# 3 38.7816 72.5446 108.1219 0.0000 0.0000 0.0000
# 4 0.0000 0.0000 0.0000 25.9802 0.0000 0.0000
# 5 0.0000 0.0000 0.0000 0.0000 47.3775 0.0000
# 6 0.0000 0.0000 0.0000 0.0000 0.0000 31.7908
#
#
#
# Elastic Compliance Matrix: (Units=1/GPa)
#
#
# Indices 1 2 3 4 5 6 
#
# 1 0.009726 -0.002607 -0.001740 0.000000 0.000000 0.000000
# 2 -0.002607 0.011899 -0.007049 0.000000 0.000000 0.000000
# 3 -0.001740 -0.007049 0.014602 0.000000 0.000000 0.000000
# 4 0.000000 0.000000 0.000000 0.038491 0.000000 0.000000
# 5 0.000000 0.000000 0.000000 0.000000 0.021107 0.000000
# 6 0.000000 0.000000 0.000000 0.000000 0.000000 0.031456
#
#
# Mechanical properties :
#
#
# Convention : Reuss Voigt Hill
#
# Bulk Modulus (GPa) = 74.41958 76.86262 75.64110
# Shear Modulus (GPa) = 32.35183 34.89232 33.62207
#
# Velocity S-wave (km/s) = 3.96069 4.11326 4.03769
# Velocity P-wave (km/s) = 7.54992 7.73488 7.64296
#
# Compressibility (1/GPa) = 0.01343732
#
# Stress axis : x y z
#
# Youngs Moduli (GPa) = 102.81344 84.03947 68.48272
#
# Poissons Ratio (x) = 0.21907 0.11914
# Poissons Ratio (y) = 0.26801 0.48272
# Poissons Ratio (z) = 0.17886 0.59238
#
# Static dielectric constant tensor:
#      x y z
#    x 3.226950 0.000000 0.000000 
#    y 0.000000 3.845720 0.000000 
#    z 0.000000 0.000000 3.636570 
# 
# 
# High freq. dielectric constant tensor:
#      x y z
#    x 1.820860 0.000000 0.000000 
#    y 0.000000 1.812300 0.000000 
#    z 0.000000 0.000000 1.797120 
# 
# From -- ./inp_files/31094.got.cif
#   From: 2010.03.12/outbox.cif.g09.slc.cpg/sg68_16_cif.got.tgz:31094.got - 2010.04.10 23:14:56.
