data_PCOD8282941
_publ_section_title
;
Structure prediction by ZEFSAII (Michael W. Deem and Ramdas Pophale) SiO2 
 PCOD8282941
Probable space group: C C C A
;
_chemical_formula_sum "Si O2"
_cell_formula_units_Z 68
_cell_length_a 9.743546
_cell_length_b 21.135868
_cell_length_c 16.118323
_cell_angle_alpha 90.000000
_cell_angle_beta 90.000000
_cell_angle_gamma 90.000000
_cell_volume 3319.380071
_symmetry_space_group_name_H-M "C C C A"
_symmetry_group_IT_number 68
_space_group.IT_coordinate_system_code '2'
_symmetry_cell_setting 'orthorhombic'
loop_
_space_group_symop_operation_xyz
x,y,z
-x,1/2-y,z
x,1/2-y,1/2-z
-x,y,1/2-z
-x,-y,-z
x,1/2+y,-z
-x,1/2+y,1/2+z
x,-y,1/2+z
1/2+x,1/2+y,z
1/2-x,-y,z
1/2+x,-y,1/2-z
1/2-x,1/2+y,1/2-z
1/2-x,1/2-y,-z
1/2+x,y,-z
1/2-x,y,1/2+z
1/2+x,1/2-y,1/2+z
loop_
_atom_site_type_symbol
_atom_site_label
_atom_site_fract_x
_atom_site_fract_y
_atom_site_fract_z
Si Si1 0.204612 0.287509 0.381427
Si Si2 0.000000 0.750000 0.750000
Si Si3 0.766676 0.343679 0.949732
Si Si4 0.034122 0.138495 0.656344
Si Si5 0.624988 0.544232 0.525698
O O1 0.171803 0.334745 0.457308
O O2 0.182560 0.216885 0.417703
O O3 0.360195 0.301912 0.349478
O O4 0.096950 0.295536 0.306040
O O5 0.891996 0.349087 0.888405
O O6 0.664555 0.404321 0.953540
O O7 0.098568 0.077380 0.613460
O O8 0.000000 0.121919 0.750000
O O9 0.500000 0.500000 0.500000
O O10 0.750000 0.500000 0.543929
#
# Coordination Sequence:
#
# PCOD8282941 Si02
#       5
#    16   4  16  16  16
#     4  10  24  37  64 101 138 172 221 274 351 420
#     4  12  24  36  58 104 142 168 216 290 332 422
#     4  10  22  41  69  92 133 184 221 274 345 419
#     4  11  23  43  68 100 131 176 223 284 348 410
#     4  11  23  44  69  95 130 181 237 282 336 411
#
# _framework density 20.485754
#
# number of rings (size 3 to 8) (size 9 to 14) (size 15 to 20)
#    0.000    1.412    2.353    2.118    9.882    0.941 
#    4.235    0.000    2.588    0.000    0.000    0.000 
#    0.000    0.000    0.000    0.000    0.000    0.000 
#
# Total GULP energy -421450.083047 kJ/mol
# GULP energy per Si atom -12395.590678 kJ/mol
# Density = 2.043913 g / cm^3
# Si number density = 20.485754 Si / 1000 Ang^3
#
#
#
# Elastic Constant Matrix: (Units=GPa)
#
#
# Indices 1 2 3 4 5 6 
#
# 1 117.2291 41.7096 62.1321 0.0000 0.0000 0.0000
# 2 41.7096 109.6507 33.6559 0.0000 0.0000 0.0000
# 3 62.1321 33.6559 141.8987 0.0000 0.0000 0.0000
# 4 0.0000 0.0000 0.0000 20.0591 0.0000 0.0000
# 5 0.0000 0.0000 0.0000 0.0000 49.5512 0.0000
# 6 0.0000 0.0000 0.0000 0.0000 0.0000 25.3823
#
#
#
# Elastic Compliance Matrix: (Units=1/GPa)
#
#
# Indices 1 2 3 4 5 6 
#
# 1 0.012067 -0.003202 -0.004525 0.000000 0.000000 0.000000
# 2 -0.003202 0.010685 -0.001133 0.000000 0.000000 0.000000
# 3 -0.004525 -0.001133 0.009297 0.000000 0.000000 0.000000
# 4 0.000000 0.000000 0.000000 0.049853 0.000000 0.000000
# 5 0.000000 0.000000 0.000000 0.000000 0.020181 0.000000
# 6 0.000000 0.000000 0.000000 0.000000 0.000000 0.039398
#
#
# Mechanical properties :
#
#
# Convention : Reuss Voigt Hill
#
# Bulk Modulus (GPa) = 69.77120 71.53040 70.65080
# Shear Modulus (GPa) = 30.49232 34.41725 32.45478
#
# Velocity S-wave (km/s) = 3.86225 4.10330 3.98460
# Velocity P-wave (km/s) = 7.34994 7.57907 7.46539
#
# Compressibility (1/GPa) = 0.01433256
#
# Stress axis : x y z
#
# Youngs Moduli (GPa) = 82.86777 93.58653 107.56136
#
# Poissons Ratio (x) = 0.29962 0.48666
# Poissons Ratio (y) = 0.26530 0.12182
# Poissons Ratio (z) = 0.37494 0.10599
#
# Static dielectric constant tensor:
#      x y z
#    x 3.753370 0.000000 0.000000 
#    y 0.000000 4.099200 0.000000 
#    z 0.000000 0.000000 3.726290 
# 
# 
# High freq. dielectric constant tensor:
#      x y z
#    x 1.814420 0.000000 0.000000 
#    y 0.000000 1.791810 0.000000 
#    z 0.000000 0.000000 1.797140 
# 
# From -- ./inp_files/20688.got.cif
#   From: 2010.03.12/outbox.cif.g09.slc.cpg/sg68_11_cif.got.tgz:20688.got - 2010.04.10 23:14:56.
