data_PCOD8282946
_publ_section_title
;
Structure prediction by ZEFSAII (Michael W. Deem and Ramdas Pophale) SiO2 
 PCOD8282946
Probable space group: C C C A
;
_chemical_formula_sum "Si O2"
_cell_formula_units_Z 88
_cell_length_a 30.135145
_cell_length_b 25.325262
_cell_length_c 5.019295
_cell_angle_alpha 90.000000
_cell_angle_beta 90.000000
_cell_angle_gamma 90.000000
_cell_volume 3830.627779
_symmetry_space_group_name_H-M "C C C A"
_symmetry_group_IT_number 68
_space_group.IT_coordinate_system_code '2'
_symmetry_cell_setting 'orthorhombic'
loop_
_space_group_symop_operation_xyz
x,y,z
-x,1/2-y,z
x,1/2-y,1/2-z
-x,y,1/2-z
-x,-y,-z
x,1/2+y,-z
-x,1/2+y,1/2+z
x,-y,1/2+z
1/2+x,1/2+y,z
1/2-x,-y,z
1/2+x,-y,1/2-z
1/2-x,1/2+y,1/2-z
1/2-x,1/2-y,-z
1/2+x,y,-z
1/2-x,y,1/2+z
1/2+x,1/2-y,1/2+z
loop_
_atom_site_type_symbol
_atom_site_label
_atom_site_fract_x
_atom_site_fract_y
_atom_site_fract_z
Si Si1 0.351812 0.784915 0.006439
Si Si2 0.549198 0.713430 0.010509
Si Si3 0.500000 0.376494 0.250000
Si Si4 0.069901 0.464873 0.771502
Si Si5 0.171610 0.532633 0.273210
Si Si6 0.278142 0.135138 0.338320
O O1 0.356084 0.750000 0.750000
O O2 0.400843 0.806858 0.074108
O O3 0.319937 0.832452 0.937043
O O4 0.332684 0.750000 0.250000
O O5 0.546333 0.750000 0.750000
O O6 0.518004 0.661620 0.985698
O O7 0.532219 0.750000 0.250000
O O8 0.540618 0.413592 0.157014
O O9 0.058719 0.489616 0.484926
O O10 0.121091 0.446408 0.763603
O O11 0.179838 0.517456 0.580547
O O12 0.206530 0.574869 0.166278
O O13 0.237840 0.147990 0.539602
#
# Coordination Sequence:
#
# PCOD8282946 Si02
#       6
#    16  16   8  16  16  16
#     4  10  22  43  64  85 122 165 204 252 309 370
#     4  10  24  42  62  90 122 164 213 251 305 384
#     4  12  23  40  68  92 130 164 199 270 324 350
#     4  10  23  41  63  94 125 163 213 253 307 384
#     4  10  22  42  63  86 125 167 202 248 305 369
#     4  12  25  38  61  96 123 154 208 258 309 374
#
# _framework density 22.972733999999999
#
# number of rings (size 3 to 8) (size 9 to 14) (size 15 to 20)
#    0.000    1.455    0.000    4.091    0.000    8.727 
#    0.000   10.909    0.000    0.000    0.000    0.000 
#    0.000    0.000    0.000    0.000    0.000    0.000 
#
# Total GULP energy -545477.489274 kJ/mol
# GULP energy per Si atom -12397.215665 kJ/mol
# Density = 2.292045 g / cm^3
# Si number density = 22.972734 Si / 1000 Ang^3
#
#
#
# Elastic Constant Matrix: (Units=GPa)
#
#
# Indices 1 2 3 4 5 6 
#
# 1 103.1047 46.6441 23.2471 0.0000 0.0000 0.0000
# 2 46.6441 91.3307 25.9735 0.0000 0.0000 0.0000
# 3 23.2471 25.9735 121.0480 0.0000 0.0000 0.0000
# 4 0.0000 0.0000 0.0000 35.4369 0.0000 0.0000
# 5 0.0000 0.0000 0.0000 0.0000 35.3539 0.0000
# 6 0.0000 0.0000 0.0000 0.0000 0.0000 34.3962
#
#
#
# Elastic Compliance Matrix: (Units=1/GPa)
#
#
# Indices 1 2 3 4 5 6 
#
# 1 0.012754 -0.006195 -0.001120 0.000000 0.000000 0.000000
# 2 -0.006195 0.014670 -0.001958 0.000000 0.000000 0.000000
# 3 -0.001120 -0.001958 0.008896 0.000000 0.000000 0.000000
# 4 0.000000 0.000000 0.000000 0.028219 0.000000 0.000000
# 5 0.000000 0.000000 0.000000 0.000000 0.028285 0.000000
# 6 0.000000 0.000000 0.000000 0.000000 0.000000 0.029073
#
#
# Mechanical properties :
#
#
# Convention : Reuss Voigt Hill
#
# Bulk Modulus (GPa) = 56.26191 56.35695 56.30943
# Shear Modulus (GPa) = 34.16014 35.67864 34.91939
#
# Velocity S-wave (km/s) = 3.86033 3.94520 3.90299
# Velocity P-wave (km/s) = 6.66434 6.73336 6.69894
#
# Compressibility (1/GPa) = 0.01777401
#
# Stress axis : x y z
#
# Youngs Moduli (GPa) = 78.40614 68.16612 112.40466
#
# Poissons Ratio (x) = 0.42230 0.12590
# Poissons Ratio (y) = 0.48574 0.22009
# Poissons Ratio (z) = 0.08782 0.13347
#
# Static dielectric constant tensor:
#      x y z
#    x 4.785680 0.000000 0.000000 
#    y 0.000000 3.886770 0.000000 
#    z 0.000000 0.000000 4.756080 
# 
# 
# High freq. dielectric constant tensor:
#      x y z
#    x 1.928710 0.000000 0.000000 
#    y 0.000000 1.891900 0.000000 
#    z 0.000000 0.000000 1.914460 
# 
# From -- ./inp_files/2776.got.cif
#   From: 2010.03.12/outbox.cif.g09.slc.cpg/sg68_2_cif.got.tgz:2776.got - 2010.04.10 23:14:56.
