data_PCOD8282695
_publ_section_title
;
Structure prediction by ZEFSAII (Michael W. Deem and Ramdas Pophale) SiO2 
 PCOD8282695
Probable space group: C C C A
;
_chemical_formula_sum "Si O2"
_cell_formula_units_Z 88
_cell_length_a 20.381915
_cell_length_b 11.936683
_cell_length_c 16.698005
_cell_angle_alpha 90.000000
_cell_angle_beta 90.000000
_cell_angle_gamma 90.000000
_cell_volume 4062.498685
_symmetry_space_group_name_H-M "C C C A"
_symmetry_group_IT_number 68
_space_group.IT_coordinate_system_code '2'
_symmetry_cell_setting 'orthorhombic'
loop_
_space_group_symop_operation_xyz
x,y,z
-x,1/2-y,z
x,1/2-y,1/2-z
-x,y,1/2-z
-x,-y,-z
x,1/2+y,-z
-x,1/2+y,1/2+z
x,-y,1/2+z
1/2+x,1/2+y,z
1/2-x,-y,z
1/2+x,-y,1/2-z
1/2-x,1/2+y,1/2-z
1/2-x,1/2-y,-z
1/2+x,y,-z
1/2-x,y,1/2+z
1/2+x,1/2-y,1/2+z
loop_
_atom_site_type_symbol
_atom_site_label
_atom_site_fract_x
_atom_site_fract_y
_atom_site_fract_z
Si Si1 0.305434 0.709303 0.093778
Si Si2 0.333983 0.291174 0.160254
Si Si3 0.173790 0.475365 0.217520
Si Si4 0.393108 0.638199 0.961693
Si Si5 0.000000 0.250000 0.072504
Si Si6 0.893694 0.410870 0.123629
O O1 0.227874 0.719322 0.101159
O O2 0.333351 0.639282 0.169058
O O3 0.334256 0.833999 0.093579
O O4 0.325234 0.646689 0.011837
O O5 0.317309 0.250000 0.250000
O O6 0.354291 0.421571 0.164655
O O7 0.389977 0.215983 0.118502
O O8 0.250000 0.500000 0.241465
O O9 0.126200 0.466196 0.292898
O O10 0.405298 0.509684 0.939673
O O11 0.452025 0.679252 0.016709
O O12 0.959698 0.335881 0.128942
#
# Coordination Sequence:
#
# PCOD8282695 Si02
#       6
#    16  16  16  16   8  16
#     4  10  23  38  66 102 139 165 212 281 341 423
#     4  11  21  41  66 101 137 178 212 273 348 418
#     4  10  21  40  67 101 141 170 210 276 342 417
#     4  11  24  42  68  93 132 183 231 276 343 392
#     4  10  26  46  66  90 138 178 240 298 309 394
#     4  11  22  43  69  95 132 180 226 273 345 393
#
# _framework density 21.661546000000001
#
# number of rings (size 3 to 8) (size 9 to 14) (size 15 to 20)
#    0.000    1.455    1.818    3.818    5.091    0.000 
#    3.273    7.727    0.000    0.000    0.000    0.000 
#    0.000    0.000    0.000    0.000    0.000    0.000 
#
# Total GULP energy -545585.991835 kJ/mol
# GULP energy per Si atom -12399.681633 kJ/mol
# Density = 2.161224 g / cm^3
# Si number density = 21.661546 Si / 1000 Ang^3
#
#
#
# Elastic Constant Matrix: (Units=GPa)
#
#
# Indices 1 2 3 4 5 6 
#
# 1 77.4486 50.6757 49.2082 0.0000 0.0000 0.0000
# 2 50.6757 137.0834 31.6313 0.0000 0.0000 0.0000
# 3 49.2082 31.6313 85.5333 0.0000 0.0000 0.0000
# 4 0.0000 0.0000 0.0000 29.3240 0.0000 0.0000
# 5 0.0000 0.0000 0.0000 0.0000 31.6027 0.0000
# 6 0.0000 0.0000 0.0000 0.0000 0.0000 28.4114
#
#
#
# Elastic Compliance Matrix: (Units=1/GPa)
#
#
# Indices 1 2 3 4 5 6 
#
# 1 0.024554 -0.006360 -0.011774 0.000000 0.000000 0.000000
# 2 -0.006360 0.009623 0.000100 0.000000 0.000000 0.000000
# 3 -0.011774 0.000100 0.018428 0.000000 0.000000 0.000000
# 4 0.000000 0.000000 0.000000 0.034102 0.000000 0.000000
# 5 0.000000 0.000000 0.000000 0.000000 0.031643 0.000000
# 6 0.000000 0.000000 0.000000 0.000000 0.000000 0.035197
#
#
# Mechanical properties :
#
#
# Convention : Reuss Voigt Hill
#
# Bulk Modulus (GPa) = 60.46980 62.56619 61.51800
# Shear Modulus (GPa) = 25.62429 29.10430 27.36430
#
# Velocity S-wave (km/s) = 3.44312 3.66948 3.55810
# Velocity P-wave (km/s) = 6.61688 6.84834 6.73360
#
# Compressibility (1/GPa) = 0.01653718
#
# Stress axis : x y z
#
# Youngs Moduli (GPa) = 40.72610 103.91977 54.26494
#
# Poissons Ratio (x) = 0.66094 0.63893
# Poissons Ratio (y) = 0.25902 -0.00545
# Poissons Ratio (z) = 0.47952 -0.01043
#
# Static dielectric constant tensor:
#      x y z
#    x 3.756470 0.000000 0.000000 
#    y 0.000000 4.239170 0.000000 
#    z 0.000000 0.000000 3.890700 
# 
# 
# High freq. dielectric constant tensor:
#      x y z
#    x 1.823600 0.000000 0.000000 
#    y 0.000000 1.872610 0.000000 
#    z 0.000000 0.000000 1.851770 
# 
# From -- ./inp_files/29659.got.cif
#   From: 2010.03.12/outbox.cif.g09.slc.cpg/sg68_15_cif.got.tgz:29659.got - 2010.04.10 23:14:56.
