data_PCOD8282844
_publ_section_title
;
Structure prediction by ZEFSAII (Michael W. Deem and Ramdas Pophale) SiO2 
 PCOD8282844
Probable space group: C C C A
;
_chemical_formula_sum "Si O2"
_cell_formula_units_Z 84
_cell_length_a 20.867647
_cell_length_b 19.926688
_cell_length_c 9.611194
_cell_angle_alpha 90.000000
_cell_angle_beta 90.000000
_cell_angle_gamma 90.000000
_cell_volume 3996.556398
_symmetry_space_group_name_H-M "C C C A"
_symmetry_group_IT_number 68
_space_group.IT_coordinate_system_code '2'
_symmetry_cell_setting 'orthorhombic'
loop_
_space_group_symop_operation_xyz
x,y,z
-x,1/2-y,z
x,1/2-y,1/2-z
-x,y,1/2-z
-x,-y,-z
x,1/2+y,-z
-x,1/2+y,1/2+z
x,-y,1/2+z
1/2+x,1/2+y,z
1/2-x,-y,z
1/2+x,-y,1/2-z
1/2-x,1/2+y,1/2-z
1/2-x,1/2-y,-z
1/2+x,y,-z
1/2-x,y,1/2+z
1/2+x,1/2-y,1/2+z
loop_
_atom_site_type_symbol
_atom_site_label
_atom_site_fract_x
_atom_site_fract_y
_atom_site_fract_z
Si Si1 0.229128 0.326194 0.766660
Si Si2 0.669677 0.656446 0.013900
Si Si3 0.429286 0.927927 0.410527
Si Si4 0.109352 0.299807 0.943539
Si Si5 0.500000 0.250000 0.250000
Si Si6 0.921475 0.546938 0.603294
O O1 0.249278 0.250000 0.750000
O O2 0.288874 0.358169 0.847616
O O3 0.218537 0.357104 0.613814
O O4 0.162858 0.334015 0.848576
O O5 0.614144 0.602242 0.011048
O O6 0.636377 0.729908 0.005107
O O7 0.407128 0.850927 0.431845
O O8 0.505240 0.932245 0.406667
O O9 0.399816 0.953499 0.264482
O O10 0.405199 0.974604 0.537279
O O11 0.045726 0.293795 0.849289
#
# Coordination Sequence:
#
# PCOD8282844 Si02
#       6
#    16  16  16  16   4  16
#     4  10  22  39  63  93 126 173 211 264 329 378
#     4  11  23  42  67  96 128 171 225 268 325 391
#     4  10  24  42  66  96 130 170 208 272 335 403
#     4  11  22  37  66  97 132 166 218 272 331 386
#     4  12  20  36  64 110 132 168 224 278 328 408
#     4  10  24  43  66  93 130 172 214 265 340 393
#
# _framework density 21.018094000000001
#
# number of rings (size 3 to 8) (size 9 to 14) (size 15 to 20)
#    0.000    1.524    2.857    3.429    8.000    1.524 
#    0.000    2.857    0.000    0.000    0.000    0.000 
#    0.000    0.000    0.000    0.000    0.000    0.000 
#
# Total GULP energy -520690.682399 kJ/mol
# GULP energy per Si atom -12397.397200 kJ/mol
# Density = 2.097026 g / cm^3
# Si number density = 21.018094 Si / 1000 Ang^3
#
#
#
# Elastic Constant Matrix: (Units=GPa)
#
#
# Indices 1 2 3 4 5 6 
#
# 1 66.5914 35.9267 37.3500 0.0000 0.0000 0.0000
# 2 35.9267 90.0089 53.6697 0.0000 0.0000 0.0000
# 3 37.3500 53.6697 137.7525 0.0000 0.0000 0.0000
# 4 0.0000 0.0000 0.0000 30.2639 0.0000 0.0000
# 5 0.0000 0.0000 0.0000 0.0000 22.5583 0.0000
# 6 0.0000 0.0000 0.0000 0.0000 0.0000 13.4949
#
#
#
# Elastic Compliance Matrix: (Units=1/GPa)
#
#
# Indices 1 2 3 4 5 6 
#
# 1 0.020059 -0.006205 -0.003021 0.000000 0.000000 0.000000
# 2 -0.006205 0.016392 -0.004704 0.000000 0.000000 0.000000
# 3 -0.003021 -0.004704 0.009911 0.000000 0.000000 0.000000
# 4 0.000000 0.000000 0.000000 0.033043 0.000000 0.000000
# 5 0.000000 0.000000 0.000000 0.000000 0.044330 0.000000
# 6 0.000000 0.000000 0.000000 0.000000 0.000000 0.074102
#
#
# Mechanical properties :
#
#
# Convention : Reuss Voigt Hill
#
# Bulk Modulus (GPa) = 54.04942 60.91620 57.48281
# Shear Modulus (GPa) = 21.56436 24.42385 22.99410
#
# Velocity S-wave (km/s) = 3.20658 3.41257 3.31118
# Velocity P-wave (km/s) = 6.28340 6.67631 6.48283
#
# Compressibility (1/GPa) = 0.01850158
#
# Stress axis : x y z
#
# Youngs Moduli (GPa) = 49.85235 61.00716 100.89542
#
# Poissons Ratio (x) = 0.37855 0.30483
# Poissons Ratio (y) = 0.30934 0.47460
# Poissons Ratio (z) = 0.15062 0.28697
#
# Static dielectric constant tensor:
#      x y z
#    x 3.786080 0.000000 0.000000 
#    y 0.000000 3.516520 0.000000 
#    z 0.000000 0.000000 4.161430 
# 
# 
# High freq. dielectric constant tensor:
#      x y z
#    x 1.826880 0.000000 0.000000 
#    y 0.000000 1.795930 0.000000 
#    z 0.000000 0.000000 1.835210 
# 
# From -- ./inp_files/7960.got.cif
#   From: 2010.03.12/outbox.cif.g09.slc.cpg/sg68_4_cif.got.tgz:7960.got - 2010.04.10 23:14:56.
