data_PCOD8282031
_publ_section_title
;
Structure prediction by ZEFSAII (Michael W. Deem and Ramdas Pophale) SiO2 
 PCOD8282031
Probable space group: C C C A
;
_chemical_formula_sum "Si O2"
_cell_formula_units_Z 88
_cell_length_a 13.529739
_cell_length_b 18.554399
_cell_length_c 18.438158
_cell_angle_alpha 90.000000
_cell_angle_beta 90.000000
_cell_angle_gamma 90.000000
_cell_volume 4628.644673
_symmetry_space_group_name_H-M "C C C A"
_symmetry_group_IT_number 68
_space_group.IT_coordinate_system_code '2'
_symmetry_cell_setting 'orthorhombic'
loop_
_space_group_symop_operation_xyz
x,y,z
-x,1/2-y,z
x,1/2-y,1/2-z
-x,y,1/2-z
-x,-y,-z
x,1/2+y,-z
-x,1/2+y,1/2+z
x,-y,1/2+z
1/2+x,1/2+y,z
1/2-x,-y,z
1/2+x,-y,1/2-z
1/2-x,1/2+y,1/2-z
1/2-x,1/2-y,-z
1/2+x,y,-z
1/2-x,y,1/2+z
1/2+x,1/2-y,1/2+z
loop_
_atom_site_type_symbol
_atom_site_label
_atom_site_fract_x
_atom_site_fract_y
_atom_site_fract_z
Si Si1 0.556680 0.995086 0.597586
Si Si2 0.848433 0.545731 0.610215
Si Si3 0.000000 0.750000 0.965110
Si Si4 0.648039 0.141428 0.021295
Si Si5 0.155120 0.050132 0.273302
Si Si6 0.349679 0.360434 0.595090
O O1 0.603571 0.921733 0.570289
O O2 0.440181 0.998678 0.579012
O O3 0.570961 0.002998 0.685045
O O4 0.613723 0.063181 0.560061
O O5 0.750000 0.500000 0.606851
O O6 0.834396 0.616281 0.561397
O O7 0.874678 0.571568 0.691708
O O8 0.072207 0.707466 0.019673
O O9 0.063268 0.802272 0.913197
O O10 0.751524 0.167567 0.054991
O O11 0.172851 0.124251 0.319317
O O12 0.250000 0.000000 0.271837
#
# Coordination Sequence:
#
# PCOD8282031 Si02
#       6
#    16  16   8  16  16  16
#     4  10  19  38  64  83 121 150 191 243 305 328
#     4  11  22  32  62  97 117 141 200 245 292 353
#     4  12  26  36  59  86 121 158 204 226 294 366
#     4  12  22  40  59  89 118 157 191 251 290 350
#     4   9  18  38  61  91 115 147 189 247 297 344
#     4  10  21  41  60  84 119 156 190 247 293 346
#
# _framework density 19.012045000000001
#
# number of rings (size 3 to 8) (size 9 to 14) (size 15 to 20)
#    1.091    0.364    3.636    3.273    2.545    0.000 
#    0.000    1.818    0.000    0.000    0.000    3.818 
#    0.000    0.000    0.000    0.000    0.000    0.000 
#
# Total GULP energy -545287.257345 kJ/mol
# GULP energy per Si atom -12392.892212 kJ/mol
# Density = 1.896877 g / cm^3
# Si number density = 19.012045 Si / 1000 Ang^3
#
#
#
# Elastic Constant Matrix: (Units=GPa)
#
#
# Indices 1 2 3 4 5 6 
#
# 1 118.6298 35.6117 21.6653 0.0000 0.0000 0.0000
# 2 35.6117 82.8550 30.3882 0.0000 0.0000 0.0000
# 3 21.6653 30.3882 94.1947 0.0000 0.0000 0.0000
# 4 0.0000 0.0000 0.0000 6.2143 0.0000 0.0000
# 5 0.0000 0.0000 0.0000 0.0000 25.2602 0.0000
# 6 0.0000 0.0000 0.0000 0.0000 0.0000 35.3126
#
#
#
# Elastic Compliance Matrix: (Units=1/GPa)
#
#
# Indices 1 2 3 4 5 6 
#
# 1 0.009763 -0.003825 -0.001011 0.000000 0.000000 0.000000
# 2 -0.003825 0.015188 -0.004020 0.000000 0.000000 0.000000
# 3 -0.001011 -0.004020 0.012146 0.000000 0.000000 0.000000
# 4 0.000000 0.000000 0.000000 0.160918 0.000000 0.000000
# 5 0.000000 0.000000 0.000000 0.000000 0.039588 0.000000
# 6 0.000000 0.000000 0.000000 0.000000 0.000000 0.028318
#
#
# Mechanical properties :
#
#
# Convention : Reuss Voigt Hill
#
# Bulk Modulus (GPa) = 51.59101 52.33440 51.96271
# Shear Modulus (GPa) = 17.23577 27.22506 22.23042
#
# Velocity S-wave (km/s) = 3.01420 3.78827 3.42318
# Velocity P-wave (km/s) = 6.26967 6.83530 6.55859
#
# Compressibility (1/GPa) = 0.01938322
#
# Stress axis : x y z
#
# Youngs Moduli (GPa) = 102.43219 65.84285 82.33291
#
# Poissons Ratio (x) = 0.25185 0.08327
# Poissons Ratio (y) = 0.39181 0.33097
# Poissons Ratio (z) = 0.10360 0.26468
#
# Static dielectric constant tensor:
#      x y z
#    x 3.632960 0.000000 0.000000 
#    y 0.000000 3.198680 0.000000 
#    z 0.000000 0.000000 3.613290 
# 
# 
# High freq. dielectric constant tensor:
#      x y z
#    x 1.758530 0.000000 0.000000 
#    y 0.000000 1.705110 0.000000 
#    z 0.000000 0.000000 1.733580 
# 
# From -- ./inp_files/31045.got.cif
#   From: 2010.03.12/outbox.cif.g09.slc.cpg/sg68_16_cif.got.tgz:31045.got - 2010.04.10 23:14:56.
