data_PCOD8282750
_publ_section_title
;
Structure prediction by ZEFSAII (Michael W. Deem and Ramdas Pophale) SiO2 
 PCOD8282750
Probable space group: C C C A
;
_chemical_formula_sum "Si O2"
_cell_formula_units_Z 64
_cell_length_a 16.574412
_cell_length_b 9.083337
_cell_length_c 18.139988
_cell_angle_alpha 90.000000
_cell_angle_beta 90.000000
_cell_angle_gamma 90.000000
_cell_volume 2730.992785
_symmetry_space_group_name_H-M "C C C A"
_symmetry_group_IT_number 68
_space_group.IT_coordinate_system_code '2'
_symmetry_cell_setting 'orthorhombic'
loop_
_space_group_symop_operation_xyz
x,y,z
-x,1/2-y,z
x,1/2-y,1/2-z
-x,y,1/2-z
-x,-y,-z
x,1/2+y,-z
-x,1/2+y,1/2+z
x,-y,1/2+z
1/2+x,1/2+y,z
1/2-x,-y,z
1/2+x,-y,1/2-z
1/2-x,1/2+y,1/2-z
1/2-x,1/2-y,-z
1/2+x,y,-z
1/2-x,y,1/2+z
1/2+x,1/2-y,1/2+z
loop_
_atom_site_type_symbol
_atom_site_label
_atom_site_fract_x
_atom_site_fract_y
_atom_site_fract_z
Si Si1 0.588194 0.674057 0.319533
Si Si2 0.339287 0.554731 0.923376
Si Si3 0.092537 0.222949 0.023508
Si Si4 0.835739 0.925466 0.255355
O O1 0.500000 0.750000 0.321018
O O2 0.636076 0.750000 0.250000
O O3 0.626061 0.705003 0.399652
O O4 0.596858 0.498686 0.300114
O O5 0.250000 0.500000 0.937195
O O6 0.398313 0.451998 0.971384
O O7 0.363348 0.539810 0.838408
O O8 0.353017 0.717623 0.955954
O O9 0.000000 0.250000 0.006303
O O10 0.832092 0.750000 0.250000
O O11 0.750000 0.000000 0.235669
#
# Coordination Sequence:
#
# PCOD8282750 Si02
#       4
#    16  16  16  16
#     4  10  21  43  70  92 132 184 222 276 344 401
#     4  11  25  43  66 103 135 176 230 280 343 412
#     4  11  24  44  70  95 138 182 223 279 347 408
#     4  11  25  43  70 103 138 180 236 286 344 411
#
# _framework density 23.434702000000001
#
# number of rings (size 3 to 8) (size 9 to 14) (size 15 to 20)
#    0.000    1.250    2.500    2.250    7.000    1.000 
#    0.000    2.500    0.000    0.000    0.000    0.000 
#    0.000    0.000    0.000    0.000    0.000    0.000 
#
# Total GULP energy -396543.766499 kJ/mol
# GULP energy per Si atom -12391.992703 kJ/mol
# Density = 2.338136 g / cm^3
# Si number density = 23.434702 Si / 1000 Ang^3
#
#
#
# Elastic Constant Matrix: (Units=GPa)
#
#
# Indices 1 2 3 4 5 6 
#
# 1 77.1070 37.8250 17.5275 0.0000 0.0000 0.0000
# 2 37.8250 134.1041 -4.4890 0.0000 0.0000 0.0000
# 3 17.5275 -4.4890 69.1968 0.0000 0.0000 0.0000
# 4 0.0000 0.0000 0.0000 41.0177 0.0000 0.0000
# 5 0.0000 0.0000 0.0000 0.0000 29.5314 0.0000
# 6 0.0000 0.0000 0.0000 0.0000 0.0000 38.8378
#
#
#
# Elastic Compliance Matrix: (Units=1/GPa)
#
#
# Indices 1 2 3 4 5 6 
#
# 1 0.016307 -0.004748 -0.004439 0.000000 0.000000 0.000000
# 2 -0.004748 0.008856 0.001777 0.000000 0.000000 0.000000
# 3 -0.004439 0.001777 0.015691 0.000000 0.000000 0.000000
# 4 0.000000 0.000000 0.000000 0.024380 0.000000 0.000000
# 5 0.000000 0.000000 0.000000 0.000000 0.033862 0.000000
# 6 0.000000 0.000000 0.000000 0.000000 0.000000 0.025748
#
#
# Mechanical properties :
#
#
# Convention : Reuss Voigt Hill
#
# Bulk Modulus (GPa) = 38.41016 42.45946 40.43481
# Shear Modulus (GPa) = 33.70603 37.18033 35.44318
#
# Velocity S-wave (km/s) = 3.79660 3.98747 3.89321
# Velocity P-wave (km/s) = 5.97032 6.27355 6.12382
#
# Compressibility (1/GPa) = 0.02603478
#
# Stress axis : x y z
#
# Youngs Moduli (GPa) = 61.32280 112.92259 63.73031
#
# Poissons Ratio (x) = 0.53617 0.28287
# Poissons Ratio (y) = 0.29117 -0.11326
# Poissons Ratio (z) = 0.27219 -0.20068
#
# Static dielectric constant tensor:
#      x y z
#    x 3.839650 0.000000 0.000000 
#    y 0.000000 4.511500 0.000000 
#    z 0.000000 0.000000 4.687060 
# 
# 
# High freq. dielectric constant tensor:
#      x y z
#    x 1.904040 0.000000 0.000000 
#    y 0.000000 1.933730 0.000000 
#    z 0.000000 0.000000 1.935200 
# 
# From -- ./inp_files/32498.got.cif
#   From: 2010.03.12/outbox.cif.g09.slc.cpg/sg68_17_cif.got.tgz:32498.got - 2010.04.10 23:14:56.
