data_PCOD8282339
_publ_section_title
;
Structure prediction by ZEFSAII (Michael W. Deem and Ramdas Pophale) SiO2 
 PCOD8282339
Probable space group: C C C A
;
_chemical_formula_sum "Si O2"
_cell_formula_units_Z 84
_cell_length_a 8.795309
_cell_length_b 17.701334
_cell_length_c 24.357653
_cell_angle_alpha 90.000000
_cell_angle_beta 90.000000
_cell_angle_gamma 90.000000
_cell_volume 3792.211385
_symmetry_space_group_name_H-M "C C C A"
_symmetry_group_IT_number 68
_space_group.IT_coordinate_system_code '2'
_symmetry_cell_setting 'orthorhombic'
loop_
_space_group_symop_operation_xyz
x,y,z
-x,1/2-y,z
x,1/2-y,1/2-z
-x,y,1/2-z
-x,-y,-z
x,1/2+y,-z
-x,1/2+y,1/2+z
x,-y,1/2+z
1/2+x,1/2+y,z
1/2-x,-y,z
1/2+x,-y,1/2-z
1/2-x,1/2+y,1/2-z
1/2-x,1/2-y,-z
1/2+x,y,-z
1/2-x,y,1/2+z
1/2+x,1/2-y,1/2+z
loop_
_atom_site_type_symbol
_atom_site_label
_atom_site_fract_x
_atom_site_fract_y
_atom_site_fract_z
Si Si1 0.750000 0.500000 0.816861
Si Si2 0.059535 0.327859 0.540528
Si Si3 0.425557 0.355606 0.159131
Si Si4 0.765705 0.412343 0.163662
Si Si5 0.000000 0.250000 0.750000
Si Si6 0.261166 0.085413 0.040815
Si Si7 0.000000 0.920797 0.750000
O O1 0.685383 0.572301 0.849576
O O2 0.606740 0.476433 0.782457
O O3 0.108759 0.309611 0.603192
O O4 0.194986 0.356132 0.502695
O O5 0.000000 0.250000 0.513988
O O6 0.938140 0.395219 0.545067
O O7 0.602994 0.373458 0.169932
O O8 0.388035 0.301425 0.211171
O O9 0.750000 0.500000 0.179716
O O10 0.821217 0.405621 0.100156
O O11 0.893141 0.375259 0.205422
O O12 0.250000 0.000000 0.019110
#
# Coordination Sequence:
#
# PCOD8282339 Si02
#       7
#     8  16  16  16   4  16   8
#     4  12  22  36  64  98 122 174 218 274 308 402
#     4  11  23  44  65  98 130 178 214 269 338 403
#     4  11  24  40  67  94 132 172 222 266 326 396
#     4  10  20  39  61  95 131 166 211 277 323 379
#     4  12  22  44  60  94 134 170 208 268 330 392
#     4  10  23  40  69  94 134 165 226 280 323 380
#     4  12  19  34  60  92 131 156 216 260 339 370
#
# _framework density 22.150663999999999
#
# number of rings (size 3 to 8) (size 9 to 14) (size 15 to 20)
#    0.000    1.143    3.810    2.857    1.333    1.524 
#    0.000    0.000    0.000    5.143    0.000    0.000 
#    0.000    0.000    0.000    0.000    0.000    0.000 
#
# Total GULP energy -520383.438122 kJ/mol
# GULP energy per Si atom -12390.081860 kJ/mol
# Density = 2.210025 g / cm^3
# Si number density = 22.150664 Si / 1000 Ang^3
#
#
#
# Elastic Constant Matrix: (Units=GPa)
#
#
# Indices 1 2 3 4 5 6 
#
# 1 83.4582 11.0564 33.6511 0.0000 0.0000 0.0000
# 2 11.0564 93.7286 25.2542 0.0000 0.0000 0.0000
# 3 33.6511 25.2542 128.0404 0.0000 0.0000 0.0000
# 4 0.0000 0.0000 0.0000 -221.0449 0.0000 0.0000
# 5 0.0000 0.0000 0.0000 0.0000 28.6097 0.0000
# 6 0.0000 0.0000 0.0000 0.0000 0.0000 28.8322
#
#
#
# Elastic Compliance Matrix: (Units=1/GPa)
#
#
# Indices 1 2 3 4 5 6 
#
# 1 0.013442 -0.000669 -0.003401 0.000000 0.000000 0.000000
# 2 -0.000669 0.011301 -0.002053 0.000000 0.000000 0.000000
# 3 -0.003401 -0.002053 0.009109 0.000000 0.000000 0.000000
# 4 0.000000 0.000000 0.000000 -0.004524 0.000000 0.000000
# 5 0.000000 0.000000 0.000000 0.000000 0.034953 0.000000
# 6 0.000000 0.000000 0.000000 0.000000 0.000000 0.034683
#
#
# Mechanical properties :
#
#
# Convention : Reuss Voigt Hill
#
# Bulk Modulus (GPa) = 46.28438 49.46118 47.87278
# Shear Modulus (GPa) = 42.22519 -17.03622 12.59448
#
# Velocity S-wave (km/s) = 4.37082 -2.77629 2.38708
# Velocity P-wave (km/s) = 6.81269 3.47863 5.40896
#
# Compressibility (1/GPa) = 0.02160556
#
# Stress axis : x y z
#
# Youngs Moduli (GPa) = 74.39412 88.48587 109.78452
#
# Poissons Ratio (x) = 0.05923 0.37335
# Poissons Ratio (y) = 0.04979 0.22540
# Poissons Ratio (z) = 0.25300 0.18167
#
# Static dielectric constant tensor:
#      x y z
#    x 3.663800 0.000000 0.000000 
#    y 0.000000 3.904530 0.000000 
#    z 0.000000 0.000000 4.320000 
# 
# 
# High freq. dielectric constant tensor:
#      x y z
#    x 1.851270 0.000000 0.000000 
#    y 0.000000 1.856810 0.000000 
#    z 0.000000 0.000000 1.884210 
# 
# From -- ./inp_files/43086.got.cif
#   From: 2010.03.12/outbox.cif.g09.slc.cpg/sg68_22_cif.got.tgz:43086.got - 2010.04.10 23:14:56.
