data_PCOD8282986
_publ_section_title
;
Structure prediction by ZEFSAII (Michael W. Deem and Ramdas Pophale) SiO2 
 PCOD8282986
Probable space group: C C C A
;
_chemical_formula_sum "Si O2"
_cell_formula_units_Z 60
_cell_length_a 14.564474
_cell_length_b 17.375282
_cell_length_c 10.817792
_cell_angle_alpha 90.000000
_cell_angle_beta 90.000000
_cell_angle_gamma 90.000000
_cell_volume 2737.570380
_symmetry_space_group_name_H-M "C C C A"
_symmetry_group_IT_number 68
_space_group.IT_coordinate_system_code '2'
_symmetry_cell_setting 'orthorhombic'
loop_
_space_group_symop_operation_xyz
x,y,z
-x,1/2-y,z
x,1/2-y,1/2-z
-x,y,1/2-z
-x,-y,-z
x,1/2+y,-z
-x,1/2+y,1/2+z
x,-y,1/2+z
1/2+x,1/2+y,z
1/2-x,-y,z
1/2+x,-y,1/2-z
1/2-x,1/2+y,1/2-z
1/2-x,1/2-y,-z
1/2+x,y,-z
1/2-x,y,1/2+z
1/2+x,1/2-y,1/2+z
loop_
_atom_site_type_symbol
_atom_site_label
_atom_site_fract_x
_atom_site_fract_y
_atom_site_fract_z
Si Si1 0.383361 0.205708 0.038304
Si Si2 0.250000 0.500000 0.571312
Si Si3 0.095920 0.098448 0.309842
Si Si4 0.316223 0.852512 0.068703
Si Si5 0.500000 0.250000 0.250000
O O1 0.281211 0.186831 0.074666
O O2 0.441528 0.193178 0.162391
O O3 0.423335 0.152574 0.928173
O O4 0.386857 0.297129 0.005484
O O5 0.166382 0.530788 0.654621
O O6 0.302747 0.563085 0.488719
O O7 0.147385 0.147687 0.207398
O O8 0.000000 0.066926 0.250000
#
# Coordination Sequence:
#
# PCOD8282986 Si02
#       5
#    16   8  16  16   4
#     4  10  24  39  67 101 132 178 227 289 340 392
#     4  10  24  42  66 104 138 184 218 278 352 408
#     4  11  23  44  71  99 134 182 226 280 342 418
#     4  10  22  43  66  95 138 178 229 279 340 408
#     4  12  24  40  62 108 130 164 224 296 336 408
#
# _framework density 21.917245999999999
#
# number of rings (size 3 to 8) (size 9 to 14) (size 15 to 20)
#    0.000    1.600    0.000    3.200   11.200    2.133 
#    2.400    0.000    0.000    0.000    0.000    0.000 
#    0.000    0.000    0.000    0.000    0.000    0.000 
#
# Total GULP energy -371799.368254 kJ/mol
# GULP energy per Si atom -12393.312275 kJ/mol
# Density = 2.186736 g / cm^3
# Si number density = 21.917246 Si / 1000 Ang^3
#
#
#
# Elastic Constant Matrix: (Units=GPa)
#
#
# Indices 1 2 3 4 5 6 
#
# 1 104.1773 42.0043 74.7351 0.0000 0.0000 0.0000
# 2 42.0043 122.6709 56.4304 0.0000 0.0000 0.0000
# 3 74.7351 56.4304 170.9584 0.0000 0.0000 0.0000
# 4 0.0000 0.0000 0.0000 20.2898 0.0000 0.0000
# 5 0.0000 0.0000 0.0000 0.0000 56.0166 0.0000
# 6 0.0000 0.0000 0.0000 0.0000 0.0000 20.7825
#
#
#
# Elastic Compliance Matrix: (Units=1/GPa)
#
#
# Indices 1 2 3 4 5 6 
#
# 1 0.014573 -0.002428 -0.005569 0.000000 0.000000 0.000000
# 2 -0.002428 0.010016 -0.002245 0.000000 0.000000 0.000000
# 3 -0.005569 -0.002245 0.009025 0.000000 0.000000 0.000000
# 4 0.000000 0.000000 0.000000 0.049286 0.000000 0.000000
# 5 0.000000 0.000000 0.000000 0.000000 0.017852 0.000000
# 6 0.000000 0.000000 0.000000 0.000000 0.000000 0.048117
#
#
# Mechanical properties :
#
#
# Convention : Reuss Voigt Hill
#
# Bulk Modulus (GPa) = 76.16118 82.68291 79.42204
# Shear Modulus (GPa) = 28.78024 34.39355 31.58689
#
# Velocity S-wave (km/s) = 3.62765 3.96567 3.80042
# Velocity P-wave (km/s) = 7.23680 7.66653 7.45476
#
# Compressibility (1/GPa) = 0.01313005
#
# Stress axis : x y z
#
# Youngs Moduli (GPa) = 68.61809 99.84146 110.80419
#
# Poissons Ratio (x) = 0.24243 0.61710
# Poissons Ratio (y) = 0.16662 0.24871
# Poissons Ratio (z) = 0.38216 0.22410
#
# Static dielectric constant tensor:
#      x y z
#    x 4.182130 0.000000 0.000000 
#    y 0.000000 4.117860 0.000000 
#    z 0.000000 0.000000 4.049460 
# 
# 
# High freq. dielectric constant tensor:
#      x y z
#    x 1.881670 0.000000 0.000000 
#    y 0.000000 1.845910 0.000000 
#    z 0.000000 0.000000 1.873480 
# 
# From -- ./inp_files/5659.got.cif
#   From: 2010.03.12/outbox.cif.g09.slc.cpg/sg68_3_cif.got.tgz:5659.got - 2010.04.10 23:14:56.
