data_PCOD8282000
_publ_section_title
;
Structure prediction by ZEFSAII (Michael W. Deem and Ramdas Pophale) SiO2 
 PCOD8282000
Probable space group: C C C A
;
_chemical_formula_sum "Si O2"
_cell_formula_units_Z 112
_cell_length_a 15.628734
_cell_length_b 27.143587
_cell_length_c 12.862275
_cell_angle_alpha 90.000000
_cell_angle_beta 90.000000
_cell_angle_gamma 90.000000
_cell_volume 5456.433028
_symmetry_space_group_name_H-M "C C C A"
_symmetry_group_IT_number 68
_space_group.IT_coordinate_system_code '2'
_symmetry_cell_setting 'orthorhombic'
loop_
_space_group_symop_operation_xyz
x,y,z
-x,1/2-y,z
x,1/2-y,1/2-z
-x,y,1/2-z
-x,-y,-z
x,1/2+y,-z
-x,1/2+y,1/2+z
x,-y,1/2+z
1/2+x,1/2+y,z
1/2-x,-y,z
1/2+x,-y,1/2-z
1/2-x,1/2+y,1/2-z
1/2-x,1/2-y,-z
1/2+x,y,-z
1/2-x,y,1/2+z
1/2+x,1/2-y,1/2+z
loop_
_atom_site_type_symbol
_atom_site_label
_atom_site_fract_x
_atom_site_fract_y
_atom_site_fract_z
Si Si1 0.296425 0.885289 0.309777
Si Si2 0.998207 0.192645 0.911561
Si Si3 0.599995 0.447542 0.650847
Si Si4 0.872690 0.152212 0.755948
Si Si5 0.230682 0.947364 0.487305
Si Si6 0.960042 0.384164 0.432369
Si Si7 0.609063 0.558454 0.625087
O O1 0.331208 0.927236 0.232960
O O2 0.231971 0.845141 0.255759
O O3 0.234966 0.907938 0.397013
O O4 0.376699 0.862809 0.372392
O O5 0.078080 0.175060 0.841979
O O6 0.000000 0.250000 0.935129
O O7 0.905870 0.181851 0.857565
O O8 0.006035 0.164073 0.020995
O O9 0.635913 0.443233 0.533569
O O10 0.515539 0.413479 0.653460
O O11 0.578854 0.505269 0.668970
O O12 0.899050 0.095153 0.776308
O O13 0.293114 0.941393 0.586644
O O14 0.250000 0.000000 0.434910
O O15 0.943853 0.423096 0.525057
#
# Coordination Sequence:
#
# PCOD8282000 Si02
#       7
#    16  16  16  16  16  16  16
#     4  11  22  34  58  87 129 165 197 254 303 364
#     4  10  22  44  71  89 115 153 208 272 324 365
#     4  11  20  36  57  83 129 176 209 239 302 363
#     4  10  19  36  63  94 118 152 204 261 309 360
#     4   9  19  31  49  79 117 166 217 245 279 346
#     4  10  22  40  55  89 123 164 208 256 306 375
#     4   9  19  35  54  84 124 165 212 257 287 356
#
# _framework density 20.526230000000002
#
# number of rings (size 3 to 8) (size 9 to 14) (size 15 to 20)
#    0.000    2.000    1.429    2.571    2.000    0.000 
#   12.857    0.714    3.143    0.857    0.000    0.000 
#    0.000    0.000    0.000    0.000    0.000    0.000 
#
# Total GULP energy -693886.547897 kJ/mol
# GULP energy per Si atom -12390.831212 kJ/mol
# Density = 2.047951 g / cm^3
# Si number density = 20.526230 Si / 1000 Ang^3
#
#
#
# Elastic Constant Matrix: (Units=GPa)
#
#
# Indices 1 2 3 4 5 6 
#
# 1 83.1369 33.2756 12.8752 0.0000 0.0000 0.0000
# 2 33.2756 125.2381 26.6654 0.0000 0.0000 0.0000
# 3 12.8752 26.6654 50.9717 0.0000 0.0000 0.0000
# 4 0.0000 0.0000 0.0000 15.1655 0.0000 0.0000
# 5 0.0000 0.0000 0.0000 0.0000 16.9830 0.0000
# 6 0.0000 0.0000 0.0000 0.0000 0.0000 22.8709
#
#
#
# Elastic Compliance Matrix: (Units=1/GPa)
#
#
# Indices 1 2 3 4 5 6 
#
# 1 0.013595 -0.003242 -0.001738 0.000000 0.000000 0.000000
# 2 -0.003242 0.009759 -0.004286 0.000000 0.000000 0.000000
# 3 -0.001738 -0.004286 0.022300 0.000000 0.000000 0.000000
# 4 0.000000 0.000000 0.000000 0.065939 0.000000 0.000000
# 5 0.000000 0.000000 0.000000 0.000000 0.058882 0.000000
# 6 0.000000 0.000000 0.000000 0.000000 0.000000 0.043724
#
#
# Mechanical properties :
#
#
# Convention : Reuss Voigt Hill
#
# Bulk Modulus (GPa) = 36.87149 44.99767 40.93458
# Shear Modulus (GPa) = 20.68059 23.43925 22.05992
#
# Velocity S-wave (km/s) = 3.17759 3.38289 3.28185
# Velocity P-wave (km/s) = 5.60936 6.10149 5.86059
#
# Compressibility (1/GPa) = 0.02712122
#
# Stress axis : x y z
#
# Youngs Moduli (GPa) = 73.55540 102.47094 44.84292
#
# Poissons Ratio (x) = 0.33223 0.07794
# Poissons Ratio (y) = 0.23848 0.19221
# Poissons Ratio (z) = 0.12784 0.43922
#
# Static dielectric constant tensor:
#      x y z
#    x 3.881880 0.000000 0.000000 
#    y 0.000000 3.475300 0.000000 
#    z 0.000000 0.000000 3.613570 
# 
# 
# High freq. dielectric constant tensor:
#      x y z
#    x 1.802880 0.000000 0.000000 
#    y 0.000000 1.761480 0.000000 
#    z 0.000000 0.000000 1.802840 
# 
# From -- ./inp_files/22754.got.cif
#   From: 2010.03.12/outbox.cif.g09.slc.cpg/sg68_12_cif.got.tgz:22754.got - 2010.04.10 23:14:56.
