data_PCOD8282715
_publ_section_title
;
Structure prediction by ZEFSAII (Michael W. Deem and Ramdas Pophale) SiO2 
 PCOD8282715
Probable space group: C C C A
;
_chemical_formula_sum "Si O2"
_cell_formula_units_Z 116
_cell_length_a 24.756417
_cell_length_b 25.148967
_cell_length_c 8.975269
_cell_angle_alpha 90.000000
_cell_angle_beta 90.000000
_cell_angle_gamma 90.000000
_cell_volume 5587.987349
_symmetry_space_group_name_H-M "C C C A"
_symmetry_group_IT_number 68
_space_group.IT_coordinate_system_code '2'
_symmetry_cell_setting 'orthorhombic'
loop_
_space_group_symop_operation_xyz
x,y,z
-x,1/2-y,z
x,1/2-y,1/2-z
-x,y,1/2-z
-x,-y,-z
x,1/2+y,-z
-x,1/2+y,1/2+z
x,-y,1/2+z
1/2+x,1/2+y,z
1/2-x,-y,z
1/2+x,-y,1/2-z
1/2-x,1/2+y,1/2-z
1/2-x,1/2-y,-z
1/2+x,y,-z
1/2-x,y,1/2+z
1/2+x,1/2-y,1/2+z
loop_
_atom_site_type_symbol
_atom_site_label
_atom_site_fract_x
_atom_site_fract_y
_atom_site_fract_z
Si Si1 0.598987 0.540649 0.444901
Si Si2 0.214199 0.447790 0.903204
Si Si3 0.700782 0.898953 0.587137
Si Si4 0.957262 0.370910 0.628470
Si Si5 0.952036 0.673140 0.539556
Si Si6 0.598575 0.436277 0.596910
Si Si7 0.500000 0.250000 0.750000
Si Si8 0.867371 0.691446 0.305376
O O1 0.656843 0.544591 0.521700
O O2 0.558909 0.585029 0.508355
O O3 0.574641 0.483493 0.493828
O O4 0.605323 0.544513 0.267119
O O5 0.250000 0.500000 0.927594
O O6 0.206583 0.437981 0.728064
O O7 0.244072 0.399069 0.990260
O O8 0.655192 0.918606 0.473015
O O9 0.687353 0.840143 0.651275
O O10 0.902499 0.345320 0.693344
O O11 0.000000 0.395089 0.750000
O O12 0.991107 0.324103 0.549034
O O13 0.942705 0.612594 0.590973
O O14 0.903115 0.698770 0.450401
O O15 0.956744 0.712547 0.673860
O O16 0.851129 0.750000 0.250000
#
# Coordination Sequence:
#
# PCOD8282715 Si02
#       8
#    16  16  16  16  16  16   4  16
#     4  12  24  41  65  92 140 178 211 264 339 394
#     4  12  23  38  68  96 125 169 215 270 324 394
#     4  11  23  41  62  99 127 166 223 273 323 399
#     4  10  22  41  65  96 130 176 221 267 332 402
#     4  10  23  39  64  94 131 167 233 273 326 396
#     4  11  25  40  61  98 134 175 215 268 327 407
#     4  12  20  40  62  92 124 176 220 294 318 380
#     4  10  21  41  66  93 129 170 219 281 335 390
#
# _framework density 20.758814999999998
#
# number of rings (size 3 to 8) (size 9 to 14) (size 15 to 20)
#    0.000    1.103    2.759    3.724    3.862    2.483 
#    1.241    0.690    0.000    0.000    0.000    0.000 
#    0.000    0.000    0.000    0.000    0.000    0.000 
#
# Total GULP energy -718952.889612 kJ/mol
# GULP energy per Si atom -12395.739476 kJ/mol
# Density = 2.071157 g / cm^3
# Si number density = 20.758815 Si / 1000 Ang^3
#
#
#
# Elastic Constant Matrix: (Units=GPa)
#
#
# Indices 1 2 3 4 5 6 
#
# 1 67.6452 35.1332 27.6579 0.0000 0.0000 0.0000
# 2 35.1332 123.1582 51.7774 0.0000 0.0000 0.0000
# 3 27.6579 51.7774 145.0796 0.0000 0.0000 0.0000
# 4 0.0000 0.0000 0.0000 59.7365 0.0000 0.0000
# 5 0.0000 0.0000 0.0000 0.0000 22.3224 0.0000
# 6 0.0000 0.0000 0.0000 0.0000 0.0000 22.4828
#
#
#
# Elastic Compliance Matrix: (Units=1/GPa)
#
#
# Indices 1 2 3 4 5 6 
#
# 1 0.017770 -0.004288 -0.001857 0.000000 0.000000 0.000000
# 2 -0.004288 0.010588 -0.002961 0.000000 0.000000 0.000000
# 3 -0.001857 -0.002961 0.008304 0.000000 0.000000 0.000000
# 4 0.000000 0.000000 0.000000 0.016740 0.000000 0.000000
# 5 0.000000 0.000000 0.000000 0.000000 0.044798 0.000000
# 6 0.000000 0.000000 0.000000 0.000000 0.000000 0.044478
#
#
# Mechanical properties :
#
#
# Convention : Reuss Voigt Hill
#
# Bulk Modulus (GPa) = 54.20701 62.78002 58.49351
# Shear Modulus (GPa) = 29.93290 35.66265 32.79777
#
# Velocity S-wave (km/s) = 3.80140 4.14931 3.97916
# Velocity P-wave (km/s) = 6.74070 7.29822 7.02499
#
# Compressibility (1/GPa) = 0.01844780
#
# Stress axis : x y z
#
# Youngs Moduli (GPa) = 56.27595 94.44751 120.42936
#
# Poissons Ratio (x) = 0.40502 0.22365
# Poissons Ratio (y) = 0.24133 0.35661
# Poissons Ratio (z) = 0.10451 0.27968
#
# Static dielectric constant tensor:
#      x y z
#    x 3.319240 0.000000 0.000000 
#    y 0.000000 3.792510 0.000000 
#    z 0.000000 0.000000 4.015560 
# 
# 
# High freq. dielectric constant tensor:
#      x y z
#    x 1.806140 0.000000 0.000000 
#    y 0.000000 1.803670 0.000000 
#    z 0.000000 0.000000 1.827150 
# 
# From -- ./inp_files/9165.got.cif
#   From: 2010.03.12/outbox.cif.g09.slc.cpg/sg68_5_cif.got.tgz:9165.got - 2010.04.10 23:14:56.
