data_PCOD8282569
_publ_section_title
;
Structure prediction by ZEFSAII (Michael W. Deem and Ramdas Pophale) SiO2 
 PCOD8282569
Probable space group: C C C A
;
_chemical_formula_sum "Si O2"
_cell_formula_units_Z 80
_cell_length_a 13.146291
_cell_length_b 24.903867
_cell_length_c 11.592914
_cell_angle_alpha 90.000000
_cell_angle_beta 90.000000
_cell_angle_gamma 90.000000
_cell_volume 3795.444488
_symmetry_space_group_name_H-M "C C C A"
_symmetry_group_IT_number 68
_space_group.IT_coordinate_system_code '2'
_symmetry_cell_setting 'orthorhombic'
loop_
_space_group_symop_operation_xyz
x,y,z
-x,1/2-y,z
x,1/2-y,1/2-z
-x,y,1/2-z
-x,-y,-z
x,1/2+y,-z
-x,1/2+y,1/2+z
x,-y,1/2+z
1/2+x,1/2+y,z
1/2-x,-y,z
1/2+x,-y,1/2-z
1/2-x,1/2+y,1/2-z
1/2-x,1/2-y,-z
1/2+x,y,-z
1/2-x,y,1/2+z
1/2+x,1/2-y,1/2+z
loop_
_atom_site_type_symbol
_atom_site_label
_atom_site_fract_x
_atom_site_fract_y
_atom_site_fract_z
Si Si1 0.573692 0.611828 0.157260
Si Si2 0.253456 0.062491 0.038727
Si Si3 0.603913 0.628169 0.701003
Si Si4 0.782063 0.352396 0.347384
Si Si5 0.941314 0.194595 0.013137
O O1 0.500000 0.581280 0.250000
O O2 0.636196 0.573075 0.073820
O O3 0.654660 0.646222 0.229285
O O4 0.505835 0.649915 0.078886
O O5 0.331058 0.080513 0.140617
O O6 0.250000 0.000000 0.013193
O O7 0.287152 0.092728 0.922440
O O8 0.500000 0.602297 0.750000
O O9 0.665385 0.655486 0.808154
O O10 0.575734 0.677499 0.617986
O O11 0.829182 0.303792 0.424677
O O12 0.000000 0.250000 0.021063
#
# Coordination Sequence:
#
# PCOD8282569 Si02
#       5
#    16  16  16  16  16
#     4   9  19  37  58  84 117 150 193 244 293 350
#     4  10  21  38  60  86 118 158 202 246 295 353
#     4  10  21  40  60  87 126 158 194 247 297 354
#     4   9  20  38  59  87 121 152 192 245 293 347
#     4  10  21  40  64  89 117 155 199 244 295 354
#
# _framework density 21.077901000000001
#
# number of rings (size 3 to 8) (size 9 to 14) (size 15 to 20)
#    0.000    2.400    0.000    1.200    0.000    8.000 
#    0.000   36.000    0.000    0.000    0.000    0.000 
#    0.000    0.000    0.000    0.000    0.000    0.000 
#
# Total GULP energy -495607.453115 kJ/mol
# GULP energy per Si atom -12390.186328 kJ/mol
# Density = 2.102993 g / cm^3
# Si number density = 21.077901 Si / 1000 Ang^3
#
#
#
# Elastic Constant Matrix: (Units=GPa)
#
#
# Indices 1 2 3 4 5 6 
#
# 1 136.0407 42.7666 49.8155 0.0000 0.0000 0.0000
# 2 42.7666 107.7210 42.8266 0.0000 0.0000 0.0000
# 3 49.8155 42.8266 97.3359 0.0000 0.0000 0.0000
# 4 0.0000 0.0000 0.0000 12.8361 0.0000 0.0000
# 5 0.0000 0.0000 0.0000 0.0000 -149.3639 0.0000
# 6 0.0000 0.0000 0.0000 0.0000 0.0000 26.6267
#
#
#
# Elastic Compliance Matrix: (Units=1/GPa)
#
#
# Indices 1 2 3 4 5 6 
#
# 1 0.009465 -0.002220 -0.003867 0.000000 0.000000 0.000000
# 2 -0.002220 0.011772 -0.004043 0.000000 0.000000 0.000000
# 3 -0.003867 -0.004043 0.014032 0.000000 0.000000 0.000000
# 4 0.000000 0.000000 0.000000 0.077905 0.000000 0.000000
# 5 0.000000 0.000000 0.000000 0.000000 -0.006695 0.000000
# 6 0.000000 0.000000 0.000000 0.000000 0.000000 0.037556
#
#
# Mechanical properties :
#
#
# Convention : Reuss Voigt Hill
#
# Bulk Modulus (GPa) = 66.63322 67.99056 67.31189
# Shear Modulus (GPa) = 29.53357 -8.26762 10.63298
#
# Velocity S-wave (km/s) = 3.74727 -1.98266 2.24846
# Velocity P-wave (km/s) = 7.09959 5.20438 6.22454
#
# Compressibility (1/GPa) = 0.01500753
#
# Stress axis : x y z
#
# Youngs Moduli (GPa) = 105.65508 84.94597 71.26633
#
# Poissons Ratio (x) = 0.18860 0.27560
# Poissons Ratio (y) = 0.23457 0.28815
# Poissons Ratio (z) = 0.40858 0.34347
#
# Static dielectric constant tensor:
#      x y z
#    x 4.479850 0.000000 0.000000 
#    y 0.000000 3.224790 0.000000 
#    z 0.000000 0.000000 4.103800 
# 
# 
# High freq. dielectric constant tensor:
#      x y z
#    x 1.852490 0.000000 0.000000 
#    y 0.000000 1.764230 0.000000 
#    z 0.000000 0.000000 1.846200 
# 
# From -- ./inp_files/13204.got.cif
#   From: 2010.03.12/outbox.cif.g09.slc.cpg/sg68_7_cif.got.tgz:13204.got - 2010.04.10 23:14:56.
