data_PCOD8282416
_publ_section_title
;
Structure prediction by ZEFSAII (Michael W. Deem and Ramdas Pophale) SiO2 
 PCOD8282416
Probable space group: C C C A
;
_chemical_formula_sum "Si O2"
_cell_formula_units_Z 104
_cell_length_a 19.272753
_cell_length_b 24.581633
_cell_length_c 10.004140
_cell_angle_alpha 90.000000
_cell_angle_beta 90.000000
_cell_angle_gamma 90.000000
_cell_volume 4739.518760
_symmetry_space_group_name_H-M "C C C A"
_symmetry_group_IT_number 68
_space_group.IT_coordinate_system_code '2'
_symmetry_cell_setting 'orthorhombic'
loop_
_space_group_symop_operation_xyz
x,y,z
-x,1/2-y,z
x,1/2-y,1/2-z
-x,y,1/2-z
-x,-y,-z
x,1/2+y,-z
-x,1/2+y,1/2+z
x,-y,1/2+z
1/2+x,1/2+y,z
1/2-x,-y,z
1/2+x,-y,1/2-z
1/2-x,1/2+y,1/2-z
1/2-x,1/2-y,-z
1/2+x,y,-z
1/2-x,y,1/2+z
1/2+x,1/2-y,1/2+z
loop_
_atom_site_type_symbol
_atom_site_label
_atom_site_fract_x
_atom_site_fract_y
_atom_site_fract_z
Si Si1 0.863983 0.211996 0.626204
Si Si2 0.931816 0.336985 0.318964
Si Si3 0.000000 0.250000 0.990699
Si Si4 0.692765 0.704531 0.151431
Si Si5 0.829774 0.986350 0.379892
Si Si6 0.712179 0.884761 0.741393
Si Si7 0.846698 0.439068 0.352478
O O1 0.843503 0.250000 0.750000
O O2 0.946710 0.215327 0.600180
O O3 0.818001 0.229500 0.496712
O O4 0.841674 0.149966 0.653439
O O5 0.951463 0.290157 0.423793
O O6 0.883206 0.312300 0.204038
O O7 0.895120 0.388078 0.388326
O O8 0.000000 0.360193 0.250000
O O9 0.724715 0.750000 0.250000
O O10 0.744511 0.653055 0.154743
O O11 0.837516 0.925675 0.321082
O O12 0.857851 0.984441 0.531683
O O13 0.750000 0.000000 0.380792
O O14 0.867861 0.031885 0.288201
O O15 0.766732 0.918089 0.648803
#
# Coordination Sequence:
#
# PCOD8282416 Si02
#       7
#    16  16   8  16  16  16  16
#     4  12  26  40  62  97 139 173 221 277 333 394
#     4  11  21  42  71  91 122 180 236 261 316 421
#     4  12  24  46  66  92 134 188 220 270 330 396
#     4  11  21  39  64  92 128 176 223 269 325 399
#     4  10  20  41  64  93 130 164 210 270 341 401
#     4  10  23  37  64  99 129 168 214 276 338 395
#     4  10  23  40  70  96 125 165 219 273 341 394
#
# _framework density 21.943155000000001
#
# number of rings (size 3 to 8) (size 9 to 14) (size 15 to 20)
#    0.000    1.231    3.077    3.231    2.154    4.923 
#    0.000    0.769    0.000    0.000    0.000    0.000 
#    0.000    0.000    0.000    0.000    0.000    0.000 
#
# Total GULP energy -644678.749202 kJ/mol
# GULP energy per Si atom -12397.668254 kJ/mol
# Density = 2.189321 g / cm^3
# Si number density = 21.943155 Si / 1000 Ang^3
#
#
#
# Elastic Constant Matrix: (Units=GPa)
#
#
# Indices 1 2 3 4 5 6 
#
# 1 80.1572 23.3502 23.3690 0.0000 0.0000 0.0000
# 2 23.3502 107.5511 51.5113 0.0000 0.0000 0.0000
# 3 23.3690 51.5113 134.2524 0.0000 0.0000 0.0000
# 4 0.0000 0.0000 0.0000 39.7063 0.0000 0.0000
# 5 0.0000 0.0000 0.0000 0.0000 10.0574 0.0000
# 6 0.0000 0.0000 0.0000 0.0000 0.0000 21.0603
#
#
#
# Elastic Compliance Matrix: (Units=1/GPa)
#
#
# Indices 1 2 3 4 5 6 
#
# 1 0.013563 -0.002222 -0.001508 0.000000 0.000000 0.000000
# 2 -0.002222 0.011755 -0.004124 0.000000 0.000000 0.000000
# 3 -0.001508 -0.004124 0.009293 0.000000 0.000000 0.000000
# 4 0.000000 0.000000 0.000000 0.025185 0.000000 0.000000
# 5 0.000000 0.000000 0.000000 0.000000 0.099430 0.000000
# 6 0.000000 0.000000 0.000000 0.000000 0.000000 0.047483
#
#
# Mechanical properties :
#
#
# Convention : Reuss Voigt Hill
#
# Bulk Modulus (GPa) = 52.90080 57.60242 55.25161
# Shear Modulus (GPa) = 21.86101 29.08014 25.47058
#
# Velocity S-wave (km/s) = 3.15978 3.64435 3.41068
# Velocity P-wave (km/s) = 6.12150 6.63446 6.38313
#
# Compressibility (1/GPa) = 0.01890331
#
# Stress axis : x y z
#
# Youngs Moduli (GPa) = 73.73266 85.06765 107.60377
#
# Poissons Ratio (x) = 0.18904 0.16228
# Poissons Ratio (y) = 0.16385 0.44371
# Poissons Ratio (z) = 0.11120 0.35078
#
# Static dielectric constant tensor:
#      x y z
#    x 3.786960 0.000000 0.000000 
#    y 0.000000 4.157790 0.000000 
#    z 0.000000 0.000000 4.076630 
# 
# 
# High freq. dielectric constant tensor:
#      x y z
#    x 1.839010 0.000000 0.000000 
#    y 0.000000 1.863770 0.000000 
#    z 0.000000 0.000000 1.861970 
# 
# From -- ./inp_files/7391.got.cif
#   From: 2010.03.12/outbox.cif.g09.slc.cpg/sg68_4_cif.got.tgz:7391.got - 2010.04.10 23:14:56.
