data_PCOD8282843
_publ_section_title
;
Structure prediction by ZEFSAII (Michael W. Deem and Ramdas Pophale) SiO2 
 PCOD8282843
Probable space group: C C C A
;
_chemical_formula_sum "Si O2"
_cell_formula_units_Z 56
_cell_length_a 16.199743
_cell_length_b 14.036854
_cell_length_c 10.918155
_cell_angle_alpha 90.000000
_cell_angle_beta 90.000000
_cell_angle_gamma 90.000000
_cell_volume 2482.716686
_symmetry_space_group_name_H-M "C C C A"
_symmetry_group_IT_number 68
_space_group.IT_coordinate_system_code '2'
_symmetry_cell_setting 'orthorhombic'
loop_
_space_group_symop_operation_xyz
x,y,z
-x,1/2-y,z
x,1/2-y,1/2-z
-x,y,1/2-z
-x,-y,-z
x,1/2+y,-z
-x,1/2+y,1/2+z
x,-y,1/2+z
1/2+x,1/2+y,z
1/2-x,-y,z
1/2+x,-y,1/2-z
1/2-x,1/2+y,1/2-z
1/2-x,1/2-y,-z
1/2+x,y,-z
1/2-x,y,1/2+z
1/2+x,1/2-y,1/2+z
loop_
_atom_site_type_symbol
_atom_site_label
_atom_site_fract_x
_atom_site_fract_y
_atom_site_fract_z
Si Si1 0.000000 0.250000 0.544065
Si Si2 0.152667 0.262837 0.384956
Si Si3 0.289471 0.593541 0.961479
Si Si4 0.037837 0.950533 0.122634
O O1 0.925039 0.205738 0.465047
O O2 0.976635 0.337677 0.628394
O O3 0.118987 0.250000 0.250000
O O4 0.225634 0.341125 0.384540
O O5 0.179937 0.158119 0.427717
O O6 0.250000 0.500000 0.022189
O O7 0.362347 0.547545 0.877423
O O8 0.000000 0.994579 0.250000
O O9 0.000000 0.000000 0.000000
#
# Coordination Sequence:
#
# PCOD8282843 Si02
#       4
#     8  16  16  16
#     4  10  22  42  64  90 127 164 207 256 317 382
#     4  10  22  39  63  93 125 165 211 260 313 375
#     4  10  23  40  60  90 126 164 208 260 318 379
#     4  11  25  43  66  93 125 168 213 261 318 378
#
# _framework density 22.555935000000002
#
# number of rings (size 3 to 8) (size 9 to 14) (size 15 to 20)
#    0.000    1.714    0.000    2.571    0.000   19.429 
#    0.000    0.000    0.000    0.000    0.000    0.000 
#    0.000    0.000    0.000    0.000    0.000    0.000 
#
# Total GULP energy -346871.443276 kJ/mol
# GULP energy per Si atom -12388.265831 kJ/mol
# Density = 2.250460 g / cm^3
# Si number density = 22.555935 Si / 1000 Ang^3
#
#
#
# Elastic Constant Matrix: (Units=GPa)
#
#
# Indices 1 2 3 4 5 6 
#
# 1 142.6005 24.8543 27.6213 0.0000 0.0000 0.0000
# 2 24.8543 93.1124 13.1672 0.0000 0.0000 0.0000
# 3 27.6213 13.1672 114.8665 0.0000 0.0000 0.0000
# 4 0.0000 0.0000 0.0000 4.5546 0.0000 0.0000
# 5 0.0000 0.0000 0.0000 0.0000 11.1178 0.0000
# 6 0.0000 0.0000 0.0000 0.0000 0.0000 25.0926
#
#
#
# Elastic Compliance Matrix: (Units=1/GPa)
#
#
# Indices 1 2 3 4 5 6 
#
# 1 0.007644 -0.001810 -0.001631 0.000000 0.000000 0.000000
# 2 -0.001810 0.011345 -0.000865 0.000000 0.000000 0.000000
# 3 -0.001631 -0.000865 0.009197 0.000000 0.000000 0.000000
# 4 0.000000 0.000000 0.000000 0.219558 0.000000 0.000000
# 5 0.000000 0.000000 0.000000 0.000000 0.089946 0.000000
# 6 0.000000 0.000000 0.000000 0.000000 0.000000 0.039852
#
#
# Mechanical properties :
#
#
# Convention : Reuss Voigt Hill
#
# Bulk Modulus (GPa) = 51.08645 53.54055 52.31350
# Shear Modulus (GPa) = 12.73304 27.14877 19.94091
#
# Velocity S-wave (km/s) = 2.37852 3.47309 2.97655
# Velocity P-wave (km/s) = 5.49919 6.31438 5.92083
#
# Compressibility (1/GPa) = 0.01957466
#
# Stress axis : x y z
#
# Youngs Moduli (GPa) = 130.82374 88.14336 108.73049
#
# Poissons Ratio (x) = 0.15952 0.17730
# Poissons Ratio (y) = 0.23676 0.09409
# Poissons Ratio (z) = 0.21332 0.07627
#
# Static dielectric constant tensor:
#      x y z
#    x 4.453540 0.000000 0.000000 
#    y 0.000000 4.150670 0.000000 
#    z 0.000000 0.000000 3.648160 
# 
# 
# High freq. dielectric constant tensor:
#      x y z
#    x 1.905060 0.000000 0.000000 
#    y 0.000000 1.905480 0.000000 
#    z 0.000000 0.000000 1.860510 
# 
# From -- ./inp_files/12493.got.cif
#   From: 2010.03.12/outbox.cif.g09.slc.cpg/sg68_7_cif.got.tgz:12493.got - 2010.04.10 23:14:56.
