data_PCOD8282691
_publ_section_title
;
Structure prediction by ZEFSAII (Michael W. Deem and Ramdas Pophale) SiO2 
 PCOD8282691
Probable space group: C C C A
;
_chemical_formula_sum "Si O2"
_cell_formula_units_Z 88
_cell_length_a 22.608823
_cell_length_b 14.189410
_cell_length_c 12.682127
_cell_angle_alpha 90.000000
_cell_angle_beta 90.000000
_cell_angle_gamma 90.000000
_cell_volume 4068.500648
_symmetry_space_group_name_H-M "C C C A"
_symmetry_group_IT_number 68
_space_group.IT_coordinate_system_code '2'
_symmetry_cell_setting 'orthorhombic'
loop_
_space_group_symop_operation_xyz
x,y,z
-x,1/2-y,z
x,1/2-y,1/2-z
-x,y,1/2-z
-x,-y,-z
x,1/2+y,-z
-x,1/2+y,1/2+z
x,-y,1/2+z
1/2+x,1/2+y,z
1/2-x,-y,z
1/2+x,-y,1/2-z
1/2-x,1/2+y,1/2-z
1/2-x,1/2-y,-z
1/2+x,y,-z
1/2-x,y,1/2+z
1/2+x,1/2-y,1/2+z
loop_
_atom_site_type_symbol
_atom_site_label
_atom_site_fract_x
_atom_site_fract_y
_atom_site_fract_z
Si Si1 0.500000 0.114486 0.250000
Si Si2 0.860103 0.665573 0.575174
Si Si3 0.643479 0.341812 0.044500
Si Si4 0.258341 0.108932 0.425898
Si Si5 0.402433 0.750000 0.750000
Si Si6 0.782912 0.250000 0.250000
Si Si7 0.943299 0.499717 0.571463
O O1 0.551296 0.177359 0.192572
O O2 0.537727 0.047850 0.322164
O O3 0.883752 0.766665 0.536807
O O4 0.821889 0.620749 0.479688
O O5 0.823170 0.678229 0.682357
O O6 0.917660 0.602546 0.596340
O O7 0.638420 0.303101 0.164503
O O8 0.608888 0.437624 0.021312
O O9 0.711932 0.359981 0.016665
O O10 0.255259 0.180361 0.325863
O O11 0.250000 0.000000 0.389799
O O12 0.000000 0.500000 0.500000
#
# Coordination Sequence:
#
# PCOD8282691 Si02
#       7
#     8  16  16  16   8   8  16
#     4   9  20  36  58  93 130 160 226 259 314 383
#     4  11  24  43  66  96 131 171 216 265 327 389
#     4  10  21  40  66  92 130 165 217 268 322 386
#     4  11  23  45  68 100 130 170 217 265 329 397
#     4   9  18  37  62  93 124 173 210 270 316 376
#     4  10  24  43  64 100 138 168 214 271 328 394
#     4  11  23  41  64  93 128 173 219 268 315 381
#
# _framework density 21.62959
#
# number of rings (size 3 to 8) (size 9 to 14) (size 15 to 20)
#    0.000    1.636    1.818    3.273    0.000    8.727 
#    9.818    0.000    0.000    0.000    0.000    0.000 
#    0.000    0.000    0.000    0.000    0.000    0.000 
#
# Total GULP energy -545346.093779 kJ/mol
# GULP energy per Si atom -12394.229404 kJ/mol
# Density = 2.158036 g / cm^3
# Si number density = 21.629590 Si / 1000 Ang^3
#
#
#
# Elastic Constant Matrix: (Units=GPa)
#
#
# Indices 1 2 3 4 5 6 
#
# 1 71.2129 28.6171 28.1939 0.0000 0.0000 0.0000
# 2 28.6171 116.4207 27.9349 0.0000 0.0000 0.0000
# 3 28.1939 27.9349 83.6630 0.0000 0.0000 0.0000
# 4 0.0000 0.0000 0.0000 4.8247 0.0000 0.0000
# 5 0.0000 0.0000 0.0000 0.0000 23.5730 0.0000
# 6 0.0000 0.0000 0.0000 0.0000 0.0000 -78.0055
#
#
#
# Elastic Compliance Matrix: (Units=1/GPa)
#
#
# Indices 1 2 3 4 5 6 
#
# 1 0.017162 -0.003077 -0.004756 0.000000 0.000000 0.000000
# 2 -0.003077 0.009889 -0.002265 0.000000 0.000000 0.000000
# 3 -0.004756 -0.002265 0.014312 0.000000 0.000000 0.000000
# 4 0.000000 0.000000 0.000000 0.207265 0.000000 0.000000
# 5 0.000000 0.000000 0.000000 0.000000 0.042421 0.000000
# 6 0.000000 0.000000 0.000000 0.000000 0.000000 -0.012820
#
#
# Mechanical properties :
#
#
# Convention : Reuss Voigt Hill
#
# Bulk Modulus (GPa) = 47.24450 48.97651 48.11051
# Shear Modulus (GPa) = 16.36758 2.51518 9.44138
#
# Velocity S-wave (km/s) = 2.75384 1.07952 2.09153
# Velocity P-wave (km/s) = 5.65698 4.92405 5.30319
#
# Compressibility (1/GPa) = 0.02116649
#
# Stress axis : x y z
#
# Youngs Moduli (GPa) = 58.26835 101.11772 69.87272
#
# Poissons Ratio (x) = 0.31118 0.33231
# Poissons Ratio (y) = 0.17931 0.15826
# Poissons Ratio (z) = 0.27712 0.22903
#
# Static dielectric constant tensor:
#      x y z
#    x 2.984730 0.000000 0.000000 
#    y 0.000000 4.059780 0.000000 
#    z 0.000000 0.000000 3.663690 
# 
# 
# High freq. dielectric constant tensor:
#      x y z
#    x 1.851300 0.000000 0.000000 
#    y 0.000000 1.866110 0.000000 
#    z 0.000000 0.000000 1.832030 
# 
# From -- ./inp_files/13351.got.cif
#   From: 2010.03.12/outbox.cif.g09.slc.cpg/sg68_7_cif.got.tgz:13351.got - 2010.04.10 23:14:56.
