data_PCOD8282865
_publ_section_title
;
Structure prediction by ZEFSAII (Michael W. Deem and Ramdas Pophale) SiO2 
 PCOD8282865
Probable space group: C C C A
;
_chemical_formula_sum "Si O2"
_cell_formula_units_Z 104
_cell_length_a 21.098089
_cell_length_b 24.077301
_cell_length_c 9.844624
_cell_angle_alpha 90.000000
_cell_angle_beta 90.000000
_cell_angle_gamma 90.000000
_cell_volume 5000.921710
_symmetry_space_group_name_H-M "C C C A"
_symmetry_group_IT_number 68
_space_group.IT_coordinate_system_code '2'
_symmetry_cell_setting 'orthorhombic'
loop_
_space_group_symop_operation_xyz
x,y,z
-x,1/2-y,z
x,1/2-y,1/2-z
-x,y,1/2-z
-x,-y,-z
x,1/2+y,-z
-x,1/2+y,1/2+z
x,-y,1/2+z
1/2+x,1/2+y,z
1/2-x,-y,z
1/2+x,-y,1/2-z
1/2-x,1/2+y,1/2-z
1/2-x,1/2-y,-z
1/2+x,y,-z
1/2-x,y,1/2+z
1/2+x,1/2-y,1/2+z
loop_
_atom_site_type_symbol
_atom_site_label
_atom_site_fract_x
_atom_site_fract_y
_atom_site_fract_z
Si Si1 0.399242 0.836060 0.540887
Si Si2 0.167244 0.187723 0.800947
Si Si3 0.500000 0.750000 0.462060
Si Si4 0.101166 0.665448 0.921683
Si Si5 0.308374 0.188763 0.806642
Si Si6 0.571861 0.955776 0.391253
Si Si7 0.073396 0.953876 0.908929
O O1 0.373060 0.848112 0.692249
O O2 0.457368 0.792164 0.552059
O O3 0.341451 0.810394 0.453400
O O4 0.421705 0.892976 0.473122
O O5 0.171021 0.250000 0.750000
O O6 0.238059 0.162490 0.817874
O O7 0.133674 0.189562 0.945238
O O8 0.453449 0.709747 0.373600
O O9 0.149523 0.654340 0.799140
O O10 0.073906 0.605282 0.957528
O O11 0.303280 0.250000 0.750000
O O12 0.604773 0.956580 0.241589
O O13 0.498549 0.971582 0.383054
O O14 0.605893 0.000806 0.490367
#
# Coordination Sequence:
#
# PCOD8282865 Si02
#       7
#    16  16   8  16  16  16  16
#     4  12  23  39  63  92 131 159 200 261 303 370
#     4  11  24  40  59  90 127 173 210 241 300 368
#     4  12  24  38  60 102 130 164 188 250 328 366
#     4  12  23  39  63  92 131 159 200 261 303 370
#     4  11  22  40  63  88 121 169 214 249 296 362
#     4  10  22  40  61  90 123 164 206 247 307 375
#     4  10  22  40  61  90 123 164 206 247 307 375
#
# _framework density 20.796167000000001
#
# number of rings (size 3 to 8) (size 9 to 14) (size 15 to 20)
#    0.000    0.923    6.154    0.923    2.154    4.923 
#    0.000    0.000    0.000    5.538    0.000    0.000 
#    0.000    0.000    0.000    0.000    0.000    0.000 
#
# Total GULP energy -644572.456992 kJ/mol
# GULP energy per Si atom -12395.624173 kJ/mol
# Density = 2.074883 g / cm^3
# Si number density = 20.796167 Si / 1000 Ang^3
#
#
#
# Elastic Constant Matrix: (Units=GPa)
#
#
# Indices 1 2 3 4 5 6 
#
# 1 83.8853 31.2717 45.9665 0.0000 0.0000 0.0000
# 2 31.2717 122.3444 32.2348 0.0000 0.0000 0.0000
# 3 45.9665 32.2348 107.6112 0.0000 0.0000 0.0000
# 4 0.0000 0.0000 0.0000 34.0550 0.0000 0.0000
# 5 0.0000 0.0000 0.0000 0.0000 21.1575 0.0000
# 6 0.0000 0.0000 0.0000 0.0000 0.0000 12.8207
#
#
#
# Elastic Compliance Matrix: (Units=1/GPa)
#
#
# Indices 1 2 3 4 5 6 
#
# 1 0.016252 -0.002524 -0.006186 0.000000 0.000000 0.000000
# 2 -0.002524 0.009266 -0.001697 0.000000 0.000000 0.000000
# 3 -0.006186 -0.001697 0.012443 0.000000 0.000000 0.000000
# 4 0.000000 0.000000 0.000000 0.029364 0.000000 0.000000
# 5 0.000000 0.000000 0.000000 0.000000 0.047265 0.000000
# 6 0.000000 0.000000 0.000000 0.000000 0.000000 0.077999
#
#
# Mechanical properties :
#
#
# Convention : Reuss Voigt Hill
#
# Bulk Modulus (GPa) = 58.32153 59.19855 58.76004
# Shear Modulus (GPa) = 22.81866 27.23119 25.02492
#
# Velocity S-wave (km/s) = 3.31607 3.62253 3.47269
# Velocity P-wave (km/s) = 6.53965 6.78417 6.66303
#
# Compressibility (1/GPa) = 0.01714633
#
# Stress axis : x y z
#
# Youngs Moduli (GPa) = 61.53211 107.92065 80.36333
#
# Poissons Ratio (x) = 0.27241 0.49712
# Poissons Ratio (y) = 0.15532 0.13641
# Poissons Ratio (z) = 0.38063 0.18319
#
# Static dielectric constant tensor:
#      x y z
#    x 3.963830 0.000000 0.000000 
#    y 0.000000 3.627330 0.000000 
#    z 0.000000 0.000000 4.229950 
# 
# 
# High freq. dielectric constant tensor:
#      x y z
#    x 1.792830 0.000000 0.000000 
#    y 0.000000 1.801020 0.000000 
#    z 0.000000 0.000000 1.819110 
# 
# From -- ./inp_files/7373.got.cif
#   From: 2010.03.12/outbox.cif.g09.slc.cpg/sg68_4_cif.got.tgz:7373.got - 2010.04.10 23:14:56.
