data_PCOD8282275
_publ_section_title
;
Structure prediction by ZEFSAII (Michael W. Deem and Ramdas Pophale) SiO2 
 PCOD8282275
Probable space group: C C C A
;
_chemical_formula_sum "Si O2"
_cell_formula_units_Z 88
_cell_length_a 21.118927
_cell_length_b 16.975495
_cell_length_c 12.503912
_cell_angle_alpha 90.000000
_cell_angle_beta 90.000000
_cell_angle_gamma 90.000000
_cell_volume 4482.705465
_symmetry_space_group_name_H-M "C C C A"
_symmetry_group_IT_number 68
_space_group.IT_coordinate_system_code '2'
_symmetry_cell_setting 'orthorhombic'
loop_
_space_group_symop_operation_xyz
x,y,z
-x,1/2-y,z
x,1/2-y,1/2-z
-x,y,1/2-z
-x,-y,-z
x,1/2+y,-z
-x,1/2+y,1/2+z
x,-y,1/2+z
1/2+x,1/2+y,z
1/2-x,-y,z
1/2+x,-y,1/2-z
1/2-x,1/2+y,1/2-z
1/2-x,1/2-y,-z
1/2+x,y,-z
1/2-x,y,1/2+z
1/2+x,1/2-y,1/2+z
loop_
_atom_site_type_symbol
_atom_site_label
_atom_site_fract_x
_atom_site_fract_y
_atom_site_fract_z
Si Si1 0.250000 0.500000 0.006722
Si Si2 0.150536 0.597719 0.635242
Si Si3 0.346045 0.914820 0.116391
Si Si4 0.939284 0.952683 0.466129
Si Si5 0.324629 0.749968 0.473629
Si Si6 0.563624 0.711673 0.631571
O O1 0.275757 0.433154 0.926624
O O2 0.198333 0.463816 0.083880
O O3 0.145755 0.579485 0.758394
O O4 0.083418 0.588391 0.575961
O O5 0.172408 0.687030 0.621224
O O6 0.391097 0.981604 0.071886
O O7 0.358069 0.828059 0.071841
O O8 0.947472 0.883883 0.375230
O O9 0.000000 0.000000 0.500000
O O10 0.250000 0.750000 0.500000
O O11 0.369045 0.771799 0.574585
O O12 0.500000 0.750000 0.578159
O O13 0.569465 0.750000 0.750000
#
# Coordination Sequence:
#
# PCOD8282275 Si02
#       6
#     8  16  16  16  16  16
#     4  10  20  38  54  86 120 154 200 258 302 378
#     4  10  22  38  58  88 119 160 208 254 319 390
#     4  11  22  37  62  85 122 163 205 257 321 382
#     4  10  23  42  63  92 128 164 214 273 328 389
#     4  11  22  41  60  90 129 169 214 267 327 393
#     4  10  23  42  66  95 128 171 223 269 330 405
#
# _framework density 19.631001999999999
#
# number of rings (size 3 to 8) (size 9 to 14) (size 15 to 20)
#    0.000    1.636    1.818    2.182    0.000    8.000 
#    0.000    0.000    0.000    3.273    0.000    0.000 
#    0.000    0.000    0.000    0.000    0.000    0.000 
#
# Total GULP energy -545076.202096 kJ/mol
# GULP energy per Si atom -12388.095502 kJ/mol
# Density = 1.958632 g / cm^3
# Si number density = 19.631002 Si / 1000 Ang^3
#
#
#
# Elastic Constant Matrix: (Units=GPa)
#
#
# Indices 1 2 3 4 5 6 
#
# 1 109.2102 35.5157 32.0998 0.0000 0.0000 0.0000
# 2 35.5157 144.5412 46.1575 0.0000 0.0000 0.0000
# 3 32.0998 46.1575 114.7175 0.0000 0.0000 0.0000
# 4 0.0000 0.0000 0.0000 30.3223 0.0000 0.0000
# 5 0.0000 0.0000 0.0000 0.0000 16.0227 0.0000
# 6 0.0000 0.0000 0.0000 0.0000 0.0000 41.3838
#
#
#
# Elastic Compliance Matrix: (Units=1/GPa)
#
#
# Indices 1 2 3 4 5 6 
#
# 1 0.010398 -0.001865 -0.002159 0.000000 0.000000 0.000000
# 2 -0.001865 0.008273 -0.002807 0.000000 0.000000 0.000000
# 3 -0.002159 -0.002807 0.010450 0.000000 0.000000 0.000000
# 4 0.000000 0.000000 0.000000 0.032979 0.000000 0.000000
# 5 0.000000 0.000000 0.000000 0.000000 0.062411 0.000000
# 6 0.000000 0.000000 0.000000 0.000000 0.000000 0.024164
#
#
# Mechanical properties :
#
#
# Convention : Reuss Voigt Hill
#
# Bulk Modulus (GPa) = 64.68645 66.22390 65.45518
# Shear Modulus (GPa) = 29.85229 34.52549 32.18889
#
# Velocity S-wave (km/s) = 3.90381 4.19826 4.05371
# Velocity P-wave (km/s) = 7.30358 7.57021 7.43809
#
# Compressibility (1/GPa) = 0.01545919
#
# Stress axis : x y z
#
# Youngs Moduli (GPa) = 96.17351 120.87327 95.68935
#
# Poissons Ratio (x) = 0.22549 0.20658
# Poissons Ratio (y) = 0.17941 0.26858
# Poissons Ratio (z) = 0.20763 0.33926
#
# Static dielectric constant tensor:
#      x y z
#    x 3.830960 0.000000 0.000000 
#    y 0.000000 3.927700 0.000000 
#    z 0.000000 0.000000 3.453930 
# 
# 
# High freq. dielectric constant tensor:
#      x y z
#    x 1.772390 0.000000 0.000000 
#    y 0.000000 1.788880 0.000000 
#    z 0.000000 0.000000 1.753030 
# 
# From -- ./inp_files/14467.got.cif
#   From: 2010.03.12/outbox.cif.g09.slc.cpg/sg68_8_cif.got.tgz:14467.got - 2010.04.10 23:14:56.
