data_PCOD8282044
_publ_section_title
;
Structure prediction by ZEFSAII (Michael W. Deem and Ramdas Pophale) SiO2 
 PCOD8282044
Probable space group: C C C A
;
_chemical_formula_sum "Si O2"
_cell_formula_units_Z 88
_cell_length_a 14.790055
_cell_length_b 15.483764
_cell_length_c 18.172458
_cell_angle_alpha 90.000000
_cell_angle_beta 90.000000
_cell_angle_gamma 90.000000
_cell_volume 4161.596850
_symmetry_space_group_name_H-M "C C C A"
_symmetry_group_IT_number 68
_space_group.IT_coordinate_system_code '2'
_symmetry_cell_setting 'orthorhombic'
loop_
_space_group_symop_operation_xyz
x,y,z
-x,1/2-y,z
x,1/2-y,1/2-z
-x,y,1/2-z
-x,-y,-z
x,1/2+y,-z
-x,1/2+y,1/2+z
x,-y,1/2+z
1/2+x,1/2+y,z
1/2-x,-y,z
1/2+x,-y,1/2-z
1/2-x,1/2+y,1/2-z
1/2-x,1/2-y,-z
1/2+x,y,-z
1/2-x,y,1/2+z
1/2+x,1/2-y,1/2+z
loop_
_atom_site_type_symbol
_atom_site_label
_atom_site_fract_x
_atom_site_fract_y
_atom_site_fract_z
Si Si1 0.979318 0.656649 0.834963
Si Si2 0.671161 0.634565 0.025279
Si Si3 0.056863 0.019298 0.674924
Si Si4 0.487413 0.849095 0.550489
Si Si5 0.750000 0.000000 0.362024
Si Si6 0.168072 0.670949 0.562968
O O1 0.874453 0.639522 0.858366
O O2 0.000000 0.750000 0.875122
O O3 0.000000 0.669110 0.750000
O O4 0.040185 0.576029 0.862053
O O5 0.705378 0.570632 0.086725
O O6 0.680971 0.726818 0.063794
O O7 0.569915 0.615955 0.998756
O O8 0.735139 0.627304 0.952412
O O9 0.165219 0.032893 0.688074
O O10 0.000000 0.023211 0.750000
O O11 0.019596 0.094064 0.623288
O O12 0.500000 0.750000 0.575254
O O13 0.397736 0.860125 0.502571
#
# Coordination Sequence:
#
# PCOD8282044 Si02
#       6
#    16  16  16  16   8  16
#     4  10  21  39  61  86 124 167 206 259 315 364
#     4  10  22  34  65  97 121 160 207 266 322 369
#     4  11  25  43  63  89 129 170 213 257 315 382
#     4  10  21  41  65  92 126 164 207 263 313 369
#     4  12  22  40  64  94 124 164 212 262 322 376
#     4  10  19  39  61  93 127 156 213 262 304 384
#
# _framework density 21.145728999999999
#
# number of rings (size 3 to 8) (size 9 to 14) (size 15 to 20)
#    0.000    1.636    1.818    3.818    2.545    1.818 
#    6.545    0.000    0.000    0.000    0.000    0.000 
#    0.000    0.000    0.000    0.000    0.000    0.000 
#
# Total GULP energy -545163.656513 kJ/mol
# GULP energy per Si atom -12390.083103 kJ/mol
# Density = 2.109760 g / cm^3
# Si number density = 21.145729 Si / 1000 Ang^3
#
#
#
# Elastic Constant Matrix: (Units=GPa)
#
#
# Indices 1 2 3 4 5 6 
#
# 1 120.9149 47.6666 35.2011 0.0000 0.0000 0.0000
# 2 47.6666 91.2043 44.7741 0.0000 0.0000 0.0000
# 3 35.2011 44.7741 85.0792 0.0000 0.0000 0.0000
# 4 0.0000 0.0000 0.0000 42.9849 0.0000 0.0000
# 5 0.0000 0.0000 0.0000 0.0000 40.3739 0.0000
# 6 0.0000 0.0000 0.0000 0.0000 0.0000 26.1509
#
#
#
# Elastic Compliance Matrix: (Units=1/GPa)
#
#
# Indices 1 2 3 4 5 6 
#
# 1 0.010661 -0.004593 -0.001994 0.000000 0.000000 0.000000
# 2 -0.004593 0.016763 -0.006921 0.000000 0.000000 0.000000
# 3 -0.001994 -0.006921 0.016221 0.000000 0.000000 0.000000
# 4 0.000000 0.000000 0.000000 0.023264 0.000000 0.000000
# 5 0.000000 0.000000 0.000000 0.000000 0.024768 0.000000
# 6 0.000000 0.000000 0.000000 0.000000 0.000000 0.038240
#
#
# Mechanical properties :
#
#
# Convention : Reuss Voigt Hill
#
# Bulk Modulus (GPa) = 60.13704 61.38690 60.76197
# Shear Modulus (GPa) = 30.77361 33.20572 31.98966
#
# Velocity S-wave (km/s) = 3.81899 3.96703 3.89372
# Velocity P-wave (km/s) = 6.92440 7.07648 7.00085
#
# Compressibility (1/GPa) = 0.01662869
#
# Stress axis : x y z
#
# Youngs Moduli (GPa) = 93.79568 59.65612 61.64813
#
# Poissons Ratio (x) = 0.27401 0.12292
# Poissons Ratio (y) = 0.43082 0.42668
# Poissons Ratio (z) = 0.18702 0.41289
#
# Static dielectric constant tensor:
#      x y z
#    x 4.461890 0.000000 0.000000 
#    y 0.000000 4.215240 0.000000 
#    z 0.000000 0.000000 3.536650 
# 
# 
# High freq. dielectric constant tensor:
#      x y z
#    x 1.843220 0.000000 0.000000 
#    y 0.000000 1.834710 0.000000 
#    z 0.000000 0.000000 1.803530 
# 
# From -- ./inp_files/38452.got.cif
#   From: 2010.03.12/outbox.cif.g09.slc.cpg/sg68_20_cif.got.tgz:38452.got - 2010.04.10 23:14:56.
