data_PCOD8282768
_publ_section_title
;
Structure prediction by ZEFSAII (Michael W. Deem and Ramdas Pophale) SiO2 
 PCOD8282768
Probable space group: C C C A
;
_chemical_formula_sum "Si O2"
_cell_formula_units_Z 88
_cell_length_a 14.411183
_cell_length_b 23.290184
_cell_length_c 12.550223
_cell_angle_alpha 90.000000
_cell_angle_beta 90.000000
_cell_angle_gamma 90.000000
_cell_volume 4212.345599
_symmetry_space_group_name_H-M "C C C A"
_symmetry_group_IT_number 68
_space_group.IT_coordinate_system_code '2'
_symmetry_cell_setting 'orthorhombic'
loop_
_space_group_symop_operation_xyz
x,y,z
-x,1/2-y,z
x,1/2-y,1/2-z
-x,y,1/2-z
-x,-y,-z
x,1/2+y,-z
-x,1/2+y,1/2+z
x,-y,1/2+z
1/2+x,1/2+y,z
1/2-x,-y,z
1/2+x,-y,1/2-z
1/2-x,1/2+y,1/2-z
1/2-x,1/2-y,-z
1/2+x,y,-z
1/2-x,y,1/2+z
1/2+x,1/2-y,1/2+z
loop_
_atom_site_type_symbol
_atom_site_label
_atom_site_fract_x
_atom_site_fract_y
_atom_site_fract_z
Si Si1 0.250000 0.000000 0.349832
Si Si2 0.399192 0.369114 0.007173
Si Si3 0.402029 0.815104 0.212631
Si Si4 0.393964 0.004298 0.524659
Si Si5 0.219526 0.875057 0.289712
Si Si6 0.434919 0.902232 0.653263
O O1 0.337501 0.983587 0.422516
O O2 0.271216 0.056074 0.280460
O O3 0.396562 0.320369 0.916175
O O4 0.370827 0.429148 0.948702
O O5 0.321385 0.355084 0.095893
O O6 0.502233 0.373302 0.060578
O O7 0.398032 0.750000 0.250000
O O8 0.500000 0.842811 0.250000
O O9 0.317530 0.845941 0.271248
O O10 0.500000 0.000000 0.500000
O O11 0.377003 0.959090 0.618860
O O12 0.143718 0.858087 0.197847
O O13 0.500000 0.922174 0.750000
#
# Coordination Sequence:
#
# PCOD8282768 Si02
#       6
#     8  16  16  16  16  16
#     4  10  22  34  54  98 128 170 216 258 326 400
#     4   9  21  41  62  91 130 167 211 272 316 384
#     4  11  27  45  64  92 121 169 233 273 332 382
#     4   9  19  33  54  87 131 170 203 246 322 381
#     4  10  23  39  64  95 130 171 218 263 330 395
#     4   9  19  36  60  95 130 166 209 251 322 401
#
# _framework density 20.890974
#
# number of rings (size 3 to 8) (size 9 to 14) (size 15 to 20)
#    0.000    2.364    0.000    1.091   12.727    1.455 
#    0.000    1.818    0.000    3.818    0.000    0.000 
#    0.000    0.000    0.000    0.000    0.000    0.000 
#
# Total GULP energy -545211.441962 kJ/mol
# GULP energy per Si atom -12391.169136 kJ/mol
# Density = 2.084342 g / cm^3
# Si number density = 20.890974 Si / 1000 Ang^3
#
#
#
# Elastic Constant Matrix: (Units=GPa)
#
#
# Indices 1 2 3 4 5 6 
#
# 1 164.7214 41.9748 66.4178 0.0000 0.0000 0.0000
# 2 41.9748 70.3896 60.0731 0.0000 0.0000 0.0000
# 3 66.4178 60.0731 130.1694 0.0000 0.0000 0.0000
# 4 0.0000 0.0000 0.0000 30.1218 0.0000 0.0000
# 5 0.0000 0.0000 0.0000 0.0000 31.3854 0.0000
# 6 0.0000 0.0000 0.0000 0.0000 0.0000 25.0703
#
#
#
# Elastic Compliance Matrix: (Units=1/GPa)
#
#
# Indices 1 2 3 4 5 6 
#
# 1 0.007823 -0.002076 -0.003034 0.000000 0.000000 0.000000
# 2 -0.002076 0.023989 -0.010012 0.000000 0.000000 0.000000
# 3 -0.003034 -0.010012 0.013850 0.000000 0.000000 0.000000
# 4 0.000000 0.000000 0.000000 0.033198 0.000000 0.000000
# 5 0.000000 0.000000 0.000000 0.000000 0.031862 0.000000
# 6 0.000000 0.000000 0.000000 0.000000 0.000000 0.039888
#
#
# Mechanical properties :
#
#
# Convention : Reuss Voigt Hill
#
# Bulk Modulus (GPa) = 64.85070 78.02353 71.43712
# Shear Modulus (GPa) = 26.88270 30.43647 28.65959
#
# Velocity S-wave (km/s) = 3.59110 3.82110 3.70789
# Velocity P-wave (km/s) = 6.95015 7.54300 7.25263
#
# Compressibility (1/GPa) = 0.01542003
#
# Stress axis : x y z
#
# Youngs Moduli (GPa) = 127.82731 41.68585 72.19982
#
# Poissons Ratio (x) = 0.08655 0.21902
# Poissons Ratio (y) = 0.26539 0.72283
# Poissons Ratio (z) = 0.38776 0.41734
#
# Static dielectric constant tensor:
#      x y z
#    x 4.209110 0.000000 0.000000 
#    y 0.000000 3.636220 0.000000 
#    z 0.000000 0.000000 3.714610 
# 
# 
# High freq. dielectric constant tensor:
#      x y z
#    x 1.842230 0.000000 0.000000 
#    y 0.000000 1.769860 0.000000 
#    z 0.000000 0.000000 1.820390 
# 
# From -- ./inp_files/13311.got.cif
#   From: 2010.03.12/outbox.cif.g09.slc.cpg/sg68_7_cif.got.tgz:13311.got - 2010.04.10 23:14:56.
