data_PCOD8282249
_publ_section_title
;
Structure prediction by ZEFSAII (Michael W. Deem and Ramdas Pophale) SiO2 
 PCOD8282249
Probable space group: C C C A
;
_chemical_formula_sum "Si O2"
_cell_formula_units_Z 112
_cell_length_a 28.119839
_cell_length_b 13.644788
_cell_length_c 13.586583
_cell_angle_alpha 90.000000
_cell_angle_beta 90.000000
_cell_angle_gamma 90.000000
_cell_volume 5213.025729
_symmetry_space_group_name_H-M "C C C A"
_symmetry_group_IT_number 68
_space_group.IT_coordinate_system_code '2'
_symmetry_cell_setting 'orthorhombic'
loop_
_space_group_symop_operation_xyz
x,y,z
-x,1/2-y,z
x,1/2-y,1/2-z
-x,y,1/2-z
-x,-y,-z
x,1/2+y,-z
-x,1/2+y,1/2+z
x,-y,1/2+z
1/2+x,1/2+y,z
1/2-x,-y,z
1/2+x,-y,1/2-z
1/2-x,1/2+y,1/2-z
1/2-x,1/2-y,-z
1/2+x,y,-z
1/2-x,y,1/2+z
1/2+x,1/2-y,1/2+z
loop_
_atom_site_type_symbol
_atom_site_label
_atom_site_fract_x
_atom_site_fract_y
_atom_site_fract_z
Si Si1 0.562118 0.903498 0.512315
Si Si2 0.133217 0.328983 0.872737
Si Si3 0.589038 0.759736 0.138389
Si Si4 0.313388 0.217328 0.941160
Si Si5 0.226050 0.402609 0.542327
Si Si6 0.042869 0.122665 0.519838
Si Si7 0.641238 0.891096 0.669136
O O1 0.586534 0.838671 0.427622
O O2 0.512134 0.852536 0.543295
O O3 0.594427 0.921101 0.608429
O O4 0.551841 0.007962 0.463973
O O5 0.078072 0.319658 0.906770
O O6 0.137383 0.412482 0.787049
O O7 0.148776 0.224236 0.834554
O O8 0.167936 0.347840 0.965160
O O9 0.571153 0.750000 0.250000
O O10 0.644961 0.788389 0.139819
O O11 0.555699 0.843935 0.091521
O O12 0.266227 0.163202 0.902875
O O13 0.301002 0.331882 0.964492
O O14 0.250000 0.500000 0.494125
O O15 0.188096 0.441780 0.623274
#
# Coordination Sequence:
#
# PCOD8282249 Si02
#       7
#    16  16  16  16  16  16  16
#     4  11  22  40  61  91 126 160 207 254 312 372
#     4   9  19  38  61  84 118 158 197 249 307 354
#     4  11  23  42  66  93 126 167 211 260 310 371
#     4   9  20  40  59  88 121 163 201 253 306 370
#     4  10  20  37  61  86 120 160 200 250 305 365
#     4  10  23  39  63  89 124 167 200 254 314 374
#     4  10  20  37  61  88 118 156 200 256 296 366
#
# _framework density 21.484643999999999
#
# number of rings (size 3 to 8) (size 9 to 14) (size 15 to 20)
#    0.000    2.000    4.286    0.429    4.000    2.857 
#    7.714    5.000    0.000    0.000    0.000    0.000 
#    0.000    0.000    0.000    0.000    0.000    0.000 
#
# Total GULP energy -693893.595488 kJ/mol
# GULP energy per Si atom -12390.957062 kJ/mol
# Density = 2.143574 g / cm^3
# Si number density = 21.484644 Si / 1000 Ang^3
#
#
#
# Elastic Constant Matrix: (Units=GPa)
#
#
# Indices 1 2 3 4 5 6 
#
# 1 148.3436 15.7747 31.1420 0.0000 0.0000 0.0000
# 2 15.7747 47.6363 11.4549 0.0000 0.0000 0.0000
# 3 31.1420 11.4549 92.3738 0.0000 0.0000 0.0000
# 4 0.0000 0.0000 0.0000 14.8353 0.0000 0.0000
# 5 0.0000 0.0000 0.0000 0.0000 10.9263 0.0000
# 6 0.0000 0.0000 0.0000 0.0000 0.0000 29.4408
#
#
#
# Elastic Compliance Matrix: (Units=1/GPa)
#
#
# Indices 1 2 3 4 5 6 
#
# 1 0.007420 -0.001913 -0.002264 0.000000 0.000000 0.000000
# 2 -0.001913 0.022131 -0.002100 0.000000 0.000000 0.000000
# 3 -0.002264 -0.002100 0.011849 0.000000 0.000000 0.000000
# 4 0.000000 0.000000 0.000000 0.067407 0.000000 0.000000
# 5 0.000000 0.000000 0.000000 0.000000 0.091522 0.000000
# 6 0.000000 0.000000 0.000000 0.000000 0.000000 0.033966
#
#
# Mechanical properties :
#
#
# Convention : Reuss Voigt Hill
#
# Bulk Modulus (GPa) = 34.66573 45.01077 39.83825
# Shear Modulus (GPa) = 19.49597 26.37263 22.93430
#
# Velocity S-wave (km/s) = 3.01564 3.50739 3.27077
# Velocity P-wave (km/s) = 5.31936 6.11539 5.73121
#
# Compressibility (1/GPa) = 0.02884693
#
# Stress axis : x y z
#
# Youngs Moduli (GPa) = 134.77393 45.18625 84.39326
#
# Poissons Ratio (x) = 0.08642 0.19109
# Poissons Ratio (y) = 0.25777 0.17719
# Poissons Ratio (z) = 0.30517 0.09487
#
# Static dielectric constant tensor:
#      x y z
#    x 4.178360 0.000000 0.000000 
#    y 0.000000 3.781550 0.000000 
#    z 0.000000 0.000000 4.079780 
# 
# 
# High freq. dielectric constant tensor:
#      x y z
#    x 1.861770 0.000000 0.000000 
#    y 0.000000 1.832260 0.000000 
#    z 0.000000 0.000000 1.802400 
# 
# From -- ./inp_files/26060.got.cif
#   From: 2010.03.12/outbox.cif.g09.slc.cpg/sg68_14_cif.got.tgz:26060.got - 2010.04.10 23:14:56.
