data_PCOD8282406
_publ_section_title
;
Structure prediction by ZEFSAII (Michael W. Deem and Ramdas Pophale) SiO2 
 PCOD8282406
Probable space group: C C C A
;
_chemical_formula_sum "Si O2"
_cell_formula_units_Z 96
_cell_length_a 11.504539
_cell_length_b 28.704623
_cell_length_c 13.719669
_cell_angle_alpha 90.000000
_cell_angle_beta 90.000000
_cell_angle_gamma 90.000000
_cell_volume 4530.693692
_symmetry_space_group_name_H-M "C C C A"
_symmetry_group_IT_number 68
_space_group.IT_coordinate_system_code '2'
_symmetry_cell_setting 'orthorhombic'
loop_
_space_group_symop_operation_xyz
x,y,z
-x,1/2-y,z
x,1/2-y,1/2-z
-x,y,1/2-z
-x,-y,-z
x,1/2+y,-z
-x,1/2+y,1/2+z
x,-y,1/2+z
1/2+x,1/2+y,z
1/2-x,-y,z
1/2+x,-y,1/2-z
1/2-x,1/2+y,1/2-z
1/2-x,1/2-y,-z
1/2+x,y,-z
1/2-x,y,1/2+z
1/2+x,1/2-y,1/2+z
loop_
_atom_site_type_symbol
_atom_site_label
_atom_site_fract_x
_atom_site_fract_y
_atom_site_fract_z
Si Si1 0.570223 0.123035 0.472756
Si Si2 0.283340 0.155115 0.848954
Si Si3 0.500000 0.150267 0.750000
Si Si4 0.500000 0.008822 0.250000
Si Si5 0.801985 0.421578 0.700734
Si Si6 0.955347 0.698076 0.354592
Si Si7 0.561792 0.431939 0.613633
O O1 0.674128 0.136316 0.546334
O O2 0.621736 0.109635 0.369294
O O3 0.495904 0.168728 0.447880
O O4 0.484827 0.079601 0.504528
O O5 0.389344 0.179813 0.788133
O O6 0.243180 0.109011 0.790773
O O7 0.184894 0.194431 0.856732
O O8 0.466576 0.117980 0.659807
O O9 0.487032 0.974844 0.343987
O O10 0.618570 0.037883 0.253975
O O11 0.697406 0.442976 0.634175
O O12 0.000000 0.750000 0.371030
O O13 0.000000 0.679128 0.250000
#
# Coordination Sequence:
#
# PCOD8282406 Si02
#       7
#    16  16   8   8  16  16  16
#     4  11  22  40  67  93 122 181 222 256 333 396
#     4  10  20  40  66  95 130 174 223 267 318 405
#     4   7  16  34  62  85 119 168 209 260 313 366
#     4  11  22  38  60  88 133 172 215 278 334 372
#     4  11  21  38  64  91 131 173 214 275 327 379
#     4  11  23  41  66  99 134 168 211 272 332 394
#     4   9  20  37  56  91 124 165 221 266 312 384
#
# _framework density 21.188807000000001
#
# number of rings (size 3 to 8) (size 9 to 14) (size 15 to 20)
#    0.000    1.833    1.667    3.500    0.000    1.333 
#    0.000    1.667    0.000    0.000    0.000    0.000 
#    0.000    0.000    0.000    0.000    0.000    0.000 
#
# Total GULP energy -594747.217905 kJ/mol
# GULP energy per Si atom -12390.567040 kJ/mol
# Density = 2.114058 g / cm^3
# Si number density = 21.188807 Si / 1000 Ang^3
#
#
#
# Elastic Constant Matrix: (Units=GPa)
#
#
# Indices 1 2 3 4 5 6 
#
# 1 166.9885 69.9309 44.9264 0.0000 0.0000 0.0000
# 2 69.9309 95.5023 49.1046 0.0000 0.0000 0.0000
# 3 44.9264 49.1046 91.0187 0.0000 0.0000 0.0000
# 4 0.0000 0.0000 0.0000 26.2897 0.0000 0.0000
# 5 0.0000 0.0000 0.0000 0.0000 34.4219 0.0000
# 6 0.0000 0.0000 0.0000 0.0000 0.0000 28.0803
#
#
#
# Elastic Compliance Matrix: (Units=1/GPa)
#
#
# Indices 1 2 3 4 5 6 
#
# 1 0.008729 -0.005780 -0.001190 0.000000 0.000000 0.000000
# 2 -0.005780 0.018317 -0.007029 0.000000 0.000000 0.000000
# 3 -0.001190 -0.007029 0.015367 0.000000 0.000000 0.000000
# 4 0.000000 0.000000 0.000000 0.038038 0.000000 0.000000
# 5 0.000000 0.000000 0.000000 0.000000 0.029051 0.000000
# 6 0.000000 0.000000 0.000000 0.000000 0.000000 0.035612
#
#
# Mechanical properties :
#
#
# Convention : Reuss Voigt Hill
#
# Bulk Modulus (GPa) = 69.37677 75.71482 72.54580
# Shear Modulus (GPa) = 28.10276 30.39489 29.24882
#
# Velocity S-wave (km/s) = 3.64579 3.79156 3.71939
# Velocity P-wave (km/s) = 7.10885 7.41477 7.26342
#
# Compressibility (1/GPa) = 0.01441405
#
# Stress axis : x y z
#
# Youngs Moduli (GPa) = 114.55870 54.59275 65.07563
#
# Poissons Ratio (x) = 0.31553 0.07747
# Poissons Ratio (y) = 0.66212 0.45744
# Poissons Ratio (z) = 0.13638 0.38375
#
# Static dielectric constant tensor:
#      x y z
#    x 4.336190 0.000000 0.000000 
#    y 0.000000 3.405780 0.000000 
#    z 0.000000 0.000000 3.907990 
# 
# 
# High freq. dielectric constant tensor:
#      x y z
#    x 1.848390 0.000000 0.000000 
#    y 0.000000 1.795420 0.000000 
#    z 0.000000 0.000000 1.830500 
# 
# From -- ./inp_files/21214.got.cif
#   From: 2010.03.12/outbox.cif.g09.slc.cpg/sg68_11_cif.got.tgz:21214.got - 2010.04.10 23:14:56.
