data_PCOD8282312
_publ_section_title
;
Structure prediction by ZEFSAII (Michael W. Deem and Ramdas Pophale) SiO2 
 PCOD8282312
Probable space group: C C C A
;
_chemical_formula_sum "Si O2"
_cell_formula_units_Z 112
_cell_length_a 14.162837
_cell_length_b 15.043496
_cell_length_c 22.507938
_cell_angle_alpha 90.000000
_cell_angle_beta 90.000000
_cell_angle_gamma 90.000000
_cell_volume 4795.509349
_symmetry_space_group_name_H-M "C C C A"
_symmetry_group_IT_number 68
_space_group.IT_coordinate_system_code '2'
_symmetry_cell_setting 'orthorhombic'
loop_
_space_group_symop_operation_xyz
x,y,z
-x,1/2-y,z
x,1/2-y,1/2-z
-x,y,1/2-z
-x,-y,-z
x,1/2+y,-z
-x,1/2+y,1/2+z
x,-y,1/2+z
1/2+x,1/2+y,z
1/2-x,-y,z
1/2+x,-y,1/2-z
1/2-x,1/2+y,1/2-z
1/2-x,1/2-y,-z
1/2+x,y,-z
1/2-x,y,1/2+z
1/2+x,1/2-y,1/2+z
loop_
_atom_site_type_symbol
_atom_site_label
_atom_site_fract_x
_atom_site_fract_y
_atom_site_fract_z
Si Si1 0.894013 0.780203 0.908788
Si Si2 0.222402 0.657221 0.223774
Si Si3 0.288230 0.825157 0.912259
Si Si4 0.919896 0.442373 0.706244
Si Si5 0.567787 0.819537 0.902169
Si Si6 0.938357 0.408878 0.991787
Si Si7 0.589334 0.144019 0.783509
O O1 0.820982 0.700722 0.929148
O O2 0.871682 0.801700 0.840130
O O3 0.000000 0.750000 0.914729
O O4 0.892780 0.870810 0.947617
O O5 0.181508 0.750000 0.250000
O O6 0.199801 0.643170 0.155113
O O7 0.178582 0.576680 0.261504
O O8 0.333752 0.649888 0.232033
O O9 0.335351 0.727857 0.920792
O O10 0.342843 0.904026 0.949111
O O11 0.918087 0.403008 0.640184
O O12 0.935877 0.545712 0.695113
O O13 0.000000 0.402701 0.750000
O O14 0.500000 0.750000 0.867345
O O15 0.515354 0.843887 0.963353
O O16 0.000000 0.500000 0.000000
O O17 0.500000 0.186798 0.750000
#
# Coordination Sequence:
#
# PCOD8282312 Si02
#       7
#    16  16  16  16  16  16  16
#     4  12  24  43  69  96 132 182 240 286 341 427
#     4  12  22  39  66  99 132 174 231 281 341 420
#     4  11  23  42  69  98 131 179 234 289 346 423
#     4  11  22  36  60  97 133 169 215 281 357 415
#     4  10  20  38  65  92 127 170 224 284 338 412
#     4  11  25  45  67  97 137 176 228 293 361 420
#     4  11  25  41  63  95 139 183 224 284 354 417
#
# _framework density 23.355184000000001
#
# number of rings (size 3 to 8) (size 9 to 14) (size 15 to 20)
#    0.000    0.857    2.857    5.571    0.000    1.143 
#    0.000    5.714    0.000    0.000    0.000    0.000 
#    0.000    0.000    0.000    0.000    0.000    0.000 
#
# Total GULP energy -693760.455322 kJ/mol
# GULP energy per Si atom -12388.579559 kJ/mol
# Density = 2.330203 g / cm^3
# Si number density = 23.355184 Si / 1000 Ang^3
#
#
#
# Elastic Constant Matrix: (Units=GPa)
#
#
# Indices 1 2 3 4 5 6 
#
# 1 136.8609 28.5104 33.4999 0.0000 0.0000 0.0000
# 2 28.5104 95.7360 31.7300 0.0000 0.0000 0.0000
# 3 33.4999 31.7300 116.8121 0.0000 0.0000 0.0000
# 4 0.0000 0.0000 0.0000 26.5100 0.0000 0.0000
# 5 0.0000 0.0000 0.0000 0.0000 35.6031 0.0000
# 6 0.0000 0.0000 0.0000 0.0000 0.0000 57.9685
#
#
#
# Elastic Compliance Matrix: (Units=1/GPa)
#
#
# Indices 1 2 3 4 5 6 
#
# 1 0.008135 -0.001813 -0.001841 0.000000 0.000000 0.000000
# 2 -0.001813 0.011883 -0.002708 0.000000 0.000000 0.000000
# 3 -0.001841 -0.002708 0.009824 0.000000 0.000000 0.000000
# 4 0.000000 0.000000 0.000000 0.037722 0.000000 0.000000
# 5 0.000000 0.000000 0.000000 0.000000 0.028087 0.000000
# 6 0.000000 0.000000 0.000000 0.000000 0.000000 0.017251
#
#
# Mechanical properties :
#
#
# Convention : Reuss Voigt Hill
#
# Bulk Modulus (GPa) = 58.41273 59.65440 59.03357
# Shear Modulus (GPa) = 38.07205 41.06091 39.56648
#
# Velocity S-wave (km/s) = 4.04187 4.19753 4.12043
# Velocity P-wave (km/s) = 6.84450 7.00643 6.92594
#
# Compressibility (1/GPa) = 0.01711955
#
# Stress axis : x y z
#
# Youngs Moduli (GPa) = 122.92869 84.15623 101.78978
#
# Poissons Ratio (x) = 0.15254 0.18735
# Poissons Ratio (y) = 0.22281 0.27564
# Poissons Ratio (z) = 0.22626 0.22789
#
# Static dielectric constant tensor:
#      x y z
#    x 4.372140 0.000000 0.000000 
#    y 0.000000 4.244780 0.000000 
#    z 0.000000 0.000000 4.143340 
# 
# 
# High freq. dielectric constant tensor:
#      x y z
#    x 1.935020 0.000000 0.000000 
#    y 0.000000 1.909560 0.000000 
#    z 0.000000 0.000000 1.928550 
# 
# From -- ./inp_files/45553.got.cif
#   From: 2010.03.12/outbox.cif.g09.slc.cpg/sg68_23_cif.got.tgz:45553.got - 2010.04.10 23:14:56.
