data_PCOD8282028
_publ_section_title
;
Structure prediction by ZEFSAII (Michael W. Deem and Ramdas Pophale) SiO2 
 PCOD8282028
Probable space group: C C C A
;
_chemical_formula_sum "Si O2"
_cell_formula_units_Z 88
_cell_length_a 10.465979
_cell_length_b 14.586596
_cell_length_c 28.340221
_cell_angle_alpha 90.000000
_cell_angle_beta 90.000000
_cell_angle_gamma 90.000000
_cell_volume 4326.503369
_symmetry_space_group_name_H-M "C C C A"
_symmetry_group_IT_number 68
_space_group.IT_coordinate_system_code '2'
_symmetry_cell_setting 'orthorhombic'
loop_
_space_group_symop_operation_xyz
x,y,z
-x,1/2-y,z
x,1/2-y,1/2-z
-x,y,1/2-z
-x,-y,-z
x,1/2+y,-z
-x,1/2+y,1/2+z
x,-y,1/2+z
1/2+x,1/2+y,z
1/2-x,-y,z
1/2+x,-y,1/2-z
1/2-x,1/2+y,1/2-z
1/2-x,1/2-y,-z
1/2+x,y,-z
1/2-x,y,1/2+z
1/2+x,1/2-y,1/2+z
loop_
_atom_site_type_symbol
_atom_site_label
_atom_site_fract_x
_atom_site_fract_y
_atom_site_fract_z
Si Si1 0.197962 0.600312 0.637567
Si Si2 0.750000 0.500000 0.686991
Si Si3 0.912710 0.837904 0.075757
Si Si4 0.872045 0.944553 0.990263
Si Si5 0.146853 0.142680 0.256507
Si Si6 0.050730 0.521880 0.892491
O O1 0.250000 0.500000 0.627760
O O2 0.285612 0.671992 0.608199
O O3 0.203037 0.622229 0.692403
O O4 0.052099 0.601111 0.619567
O O5 0.762192 0.590277 0.719463
O O6 0.873897 0.494359 0.654329
O O7 0.000000 0.750000 0.083113
O O8 0.990402 0.927805 0.089859
O O9 0.874518 0.849625 0.020204
O O10 0.750000 0.000000 0.009422
O O11 0.861178 0.931386 0.933451
O O12 0.000000 0.000000 0.000000
O O13 0.159065 0.250000 0.250000
O O14 0.000000 0.109827 0.250000
#
# Coordination Sequence:
#
# PCOD8282028 Si02
#       6
#    16   8  16  16  16  16
#     4  10  20  41  63  86 123 171 207 262 333 384
#     4  12  22  40  68  90 124 168 216 264 320 394
#     4  10  22  38  61  91 126 159 211 267 319 382
#     4  10  19  38  61  88 122 167 209 256 316 388
#     4  11  24  40  62  93 130 166 217 269 326 390
#     4  10  21  38  64  89 120 168 214 254 321 398
#
# _framework density 20.339752000000001
#
# number of rings (size 3 to 8) (size 9 to 14) (size 15 to 20)
#    0.000    1.636    3.636    2.727    2.545    0.000 
#    0.000   10.000    0.000    0.000    0.000    0.000 
#    0.000    0.000    0.000    0.000    0.000    0.000 
#
# Total GULP energy -545400.910389 kJ/mol
# GULP energy per Si atom -12395.475236 kJ/mol
# Density = 2.029346 g / cm^3
# Si number density = 20.339752 Si / 1000 Ang^3
#
#
#
# Elastic Constant Matrix: (Units=GPa)
#
#
# Indices 1 2 3 4 5 6 
#
# 1 126.0129 44.1473 59.6448 0.0000 0.0000 0.0000
# 2 44.1473 65.1522 47.2977 0.0000 0.0000 0.0000
# 3 59.6448 47.2977 166.7466 0.0000 0.0000 0.0000
# 4 0.0000 0.0000 0.0000 13.2600 0.0000 0.0000
# 5 0.0000 0.0000 0.0000 0.0000 45.0953 0.0000
# 6 0.0000 0.0000 0.0000 0.0000 0.0000 163.2240
#
#
#
# Elastic Compliance Matrix: (Units=1/GPa)
#
#
# Indices 1 2 3 4 5 6 
#
# 1 0.011068 -0.005825 -0.002307 0.000000 0.000000 0.000000
# 2 -0.005825 0.022395 -0.004269 0.000000 0.000000 0.000000
# 3 -0.002307 -0.004269 0.008033 0.000000 0.000000 0.000000
# 4 0.000000 0.000000 0.000000 0.075415 0.000000 0.000000
# 5 0.000000 0.000000 0.000000 0.000000 0.022175 0.000000
# 6 0.000000 0.000000 0.000000 0.000000 0.000000 0.006127
#
#
# Mechanical properties :
#
#
# Convention : Reuss Voigt Hill
#
# Bulk Modulus (GPa) = 59.89894 73.34349 66.62121
# Shear Modulus (GPa) = 28.47721 58.10398 43.29059
#
# Velocity S-wave (km/s) = 3.74582 5.35058 4.61843
# Velocity P-wave (km/s) = 6.94416 8.62027 7.82721
#
# Compressibility (1/GPa) = 0.01669479
#
# Stress axis : x y z
#
# Youngs Moduli (GPa) = 90.34735 44.65335 124.48608
#
# Poissons Ratio (x) = 0.26012 0.28716
# Poissons Ratio (y) = 0.52631 0.53138
# Poissons Ratio (z) = 0.20841 0.19061
#
# Static dielectric constant tensor:
#      x y z
#    x 3.943890 0.000000 0.000000 
#    y 0.000000 3.263870 0.000000 
#    z 0.000000 0.000000 4.334100 
# 
# 
# High freq. dielectric constant tensor:
#      x y z
#    x 1.801860 0.000000 0.000000 
#    y 0.000000 1.756980 0.000000 
#    z 0.000000 0.000000 1.819530 
# 
# From -- ./inp_files/44259.got.cif
#   From: 2010.03.12/outbox.cif.g09.slc.cpg/sg68_23_cif.got.tgz:44259.got - 2010.04.10 23:14:56.
