data_PCOD8282767
_publ_section_title
;
Structure prediction by ZEFSAII (Michael W. Deem and Ramdas Pophale) SiO2 
 PCOD8282767
Probable space group: C C C A
;
_chemical_formula_sum "Si O2"
_cell_formula_units_Z 112
_cell_length_a 25.651290
_cell_length_b 14.662510
_cell_length_c 14.271724
_cell_angle_alpha 90.000000
_cell_angle_beta 90.000000
_cell_angle_gamma 90.000000
_cell_volume 5367.770883
_symmetry_space_group_name_H-M "C C C A"
_symmetry_group_IT_number 68
_space_group.IT_coordinate_system_code '2'
_symmetry_cell_setting 'orthorhombic'
loop_
_space_group_symop_operation_xyz
x,y,z
-x,1/2-y,z
x,1/2-y,1/2-z
-x,y,1/2-z
-x,-y,-z
x,1/2+y,-z
-x,1/2+y,1/2+z
x,-y,1/2+z
1/2+x,1/2+y,z
1/2-x,-y,z
1/2+x,-y,1/2-z
1/2-x,1/2+y,1/2-z
1/2-x,1/2-y,-z
1/2+x,y,-z
1/2-x,y,1/2+z
1/2+x,1/2-y,1/2+z
loop_
_atom_site_type_symbol
_atom_site_label
_atom_site_fract_x
_atom_site_fract_y
_atom_site_fract_z
Si Si1 0.791001 0.291992 0.070711
Si Si2 0.626975 0.598027 0.949572
Si Si3 0.892164 0.900426 0.493639
Si Si4 0.211828 0.575171 0.405253
Si Si5 0.938482 0.244828 0.858399
Si Si6 0.366804 0.823165 0.321916
Si Si7 0.688107 0.495162 0.284923
O O1 0.753442 0.353280 0.135165
O O2 0.814058 0.219533 0.139831
O O3 0.750000 0.250000 0.000000
O O4 0.837187 0.350829 0.024159
O O5 0.583671 0.668610 0.914093
O O6 0.663095 0.567295 0.864245
O O7 0.597945 0.509961 0.997909
O O8 0.829074 0.887624 0.482382
O O9 0.921386 0.851077 0.407398
O O10 0.906041 0.849321 0.592068
O O11 0.250000 0.500000 0.453226
O O12 0.177418 0.545688 0.317283
O O13 0.919586 0.250000 0.750000
O O14 0.000000 0.250000 0.863851
O O15 0.393765 0.750000 0.250000
O O16 0.345405 0.913009 0.272688
O O17 0.750000 0.500000 0.304341
#
# Coordination Sequence:
#
# PCOD8282767 Si02
#       7
#    16  16  16  16  16  16  16
#     4  12  21  33  57  85 129 175 219 262 308 376
#     4  11  23  39  65  94 129 175 215 271 325 391
#     4  11  23  40  66  94 132 171 214 271 330 396
#     4  11  20  35  55  85 128 175 210 254 305 370
#     4  11  25  48  74 100 127 163 223 291 348 404
#     4  11  22  36  53  85 124 171 215 257 311 375
#     4  10  22  34  54  85 128 175 218 254 302 377
#
# _framework density 20.865272000000001
#
# number of rings (size 3 to 8) (size 9 to 14) (size 15 to 20)
#    0.000    1.000    4.286    3.429    2.000    0.571 
#    0.000    4.286    0.000    0.429    0.000    0.000 
#    0.000    0.000    0.000    0.000    0.000    0.000 
#
# Total GULP energy -693734.745906 kJ/mol
# GULP energy per Si atom -12388.120463 kJ/mol
# Density = 2.081778 g / cm^3
# Si number density = 20.865272 Si / 1000 Ang^3
#
#
#
# Elastic Constant Matrix: (Units=GPa)
#
#
# Indices 1 2 3 4 5 6 
#
# 1 56.8967 33.1660 26.9103 0.0000 0.0000 0.0000
# 2 33.1660 102.4513 49.6183 0.0000 0.0000 0.0000
# 3 26.9103 49.6183 107.2393 0.0000 0.0000 0.0000
# 4 0.0000 0.0000 0.0000 34.3122 0.0000 0.0000
# 5 0.0000 0.0000 0.0000 0.0000 16.9139 0.0000
# 6 0.0000 0.0000 0.0000 0.0000 0.0000 25.8108
#
#
#
# Elastic Compliance Matrix: (Units=1/GPa)
#
#
# Indices 1 2 3 4 5 6 
#
# 1 0.022348 -0.005824 -0.002914 0.000000 0.000000 0.000000
# 2 -0.005824 0.014097 -0.005061 0.000000 0.000000 0.000000
# 3 -0.002914 -0.005061 0.012398 0.000000 0.000000 0.000000
# 4 0.000000 0.000000 0.000000 0.029144 0.000000 0.000000
# 5 0.000000 0.000000 0.000000 0.000000 0.059123 0.000000
# 6 0.000000 0.000000 0.000000 0.000000 0.000000 0.038743
#
#
# Mechanical properties :
#
#
# Convention : Reuss Voigt Hill
#
# Bulk Modulus (GPa) = 47.06630 53.99739 50.53185
# Shear Modulus (GPa) = 23.74923 25.86688 24.80806
#
# Velocity S-wave (km/s) = 3.37741 3.52477 3.45188
# Velocity P-wave (km/s) = 6.14942 6.51925 6.33703
#
# Compressibility (1/GPa) = 0.02124662
#
# Stress axis : x y z
#
# Youngs Moduli (GPa) = 44.74586 70.93598 80.65930
#
# Poissons Ratio (x) = 0.41311 0.23500
# Poissons Ratio (y) = 0.26059 0.40824
# Poissons Ratio (z) = 0.13037 0.35902
#
# Static dielectric constant tensor:
#      x y z
#    x 2.987830 0.000000 0.000000 
#    y 0.000000 4.163980 0.000000 
#    z 0.000000 0.000000 4.121370 
# 
# 
# High freq. dielectric constant tensor:
#      x y z
#    x 1.765830 0.000000 0.000000 
#    y 0.000000 1.840670 0.000000 
#    z 0.000000 0.000000 1.829000 
# 
# From -- ./inp_files/25442.got.cif
#   From: 2010.03.12/outbox.cif.g09.slc.cpg/sg68_13_cif.got.tgz:25442.got - 2010.04.10 23:14:56.
