data_PCOD8282544
_publ_section_title
;
Structure prediction by ZEFSAII (Michael W. Deem and Ramdas Pophale) SiO2 
 PCOD8282544
Probable space group: C C C A
;
_chemical_formula_sum "Si O2"
_cell_formula_units_Z 104
_cell_length_a 18.360912
_cell_length_b 21.642340
_cell_length_c 12.857833
_cell_angle_alpha 90.000000
_cell_angle_beta 90.000000
_cell_angle_gamma 90.000000
_cell_volume 5109.356961
_symmetry_space_group_name_H-M "C C C A"
_symmetry_group_IT_number 68
_space_group.IT_coordinate_system_code '2'
_symmetry_cell_setting 'orthorhombic'
loop_
_space_group_symop_operation_xyz
x,y,z
-x,1/2-y,z
x,1/2-y,1/2-z
-x,y,1/2-z
-x,-y,-z
x,1/2+y,-z
-x,1/2+y,1/2+z
x,-y,1/2+z
1/2+x,1/2+y,z
1/2-x,-y,z
1/2+x,-y,1/2-z
1/2-x,1/2+y,1/2-z
1/2-x,1/2-y,-z
1/2+x,y,-z
1/2-x,y,1/2+z
1/2+x,1/2-y,1/2+z
loop_
_atom_site_type_symbol
_atom_site_label
_atom_site_fract_x
_atom_site_fract_y
_atom_site_fract_z
Si Si1 0.000000 0.651607 0.250000
Si Si2 0.208209 0.437030 0.444991
Si Si3 0.323427 0.036175 0.785496
Si Si4 0.178908 0.357858 0.050104
Si Si5 0.699505 0.297471 0.341578
Si Si6 0.880254 0.083070 0.644174
Si Si7 0.925805 0.779545 0.426202
O O1 0.960433 0.611593 0.339441
O O2 0.941100 0.693667 0.189717
O O3 0.250000 0.500000 0.468784
O O4 0.177099 0.434425 0.328769
O O5 0.268058 0.383306 0.459254
O O6 0.139725 0.428902 0.523248
O O7 0.341729 0.089468 0.867236
O O8 0.250000 0.000000 0.817130
O O9 0.382602 0.981143 0.791787
O O10 0.222318 0.300719 0.101886
O O11 0.103610 0.333282 0.001528
O O12 0.710965 0.250000 0.250000
O O13 0.679618 0.368384 0.308553
O O14 0.634911 0.273908 0.417142
O O15 0.000000 0.750000 0.472671
#
# Coordination Sequence:
#
# PCOD8282544 Si02
#       7
#     8  16  16  16  16  16  16
#     4  12  25  40  70  92 132 182 219 274 320 400
#     4  10  21  37  66 100 133 167 211 284 335 395
#     4  11  21  40  65 100 136 168 218 275 345 399
#     4  11  24  40  67 102 129 170 229 279 340 391
#     4  11  21  39  66 100 129 163 223 283 334 393
#     4  11  21  41  63  98 132 172 222 270 333 391
#     4  12  24  43  63  96 132 176 225 277 329 396
#
# _framework density 20.354811999999999
#
# number of rings (size 3 to 8) (size 9 to 14) (size 15 to 20)
#    0.000    0.923    7.692    0.692    6.462    0.000 
#    0.000    3.077    0.000    2.308    0.000    0.000 
#    0.000    0.000    0.000    0.000    0.000    0.000 
#
# Total GULP energy -644653.285418 kJ/mol
# GULP energy per Si atom -12397.178566 kJ/mol
# Density = 2.030848 g / cm^3
# Si number density = 20.354812 Si / 1000 Ang^3
#
#
#
# Elastic Constant Matrix: (Units=GPa)
#
#
# Indices 1 2 3 4 5 6 
#
# 1 87.0121 44.5010 42.9559 0.0000 0.0000 0.0000
# 2 44.5010 122.0188 71.6647 0.0000 0.0000 0.0000
# 3 42.9559 71.6647 127.9546 0.0000 0.0000 0.0000
# 4 0.0000 0.0000 0.0000 37.3388 0.0000 0.0000
# 5 0.0000 0.0000 0.0000 0.0000 34.3805 0.0000
# 6 0.0000 0.0000 0.0000 0.0000 0.0000 34.1851
#
#
#
# Elastic Compliance Matrix: (Units=1/GPa)
#
#
# Indices 1 2 3 4 5 6 
#
# 1 0.014818 -0.003699 -0.002903 0.000000 0.000000 0.000000
# 2 -0.003699 0.013136 -0.006116 0.000000 0.000000 0.000000
# 3 -0.002903 -0.006116 0.012215 0.000000 0.000000 0.000000
# 4 0.000000 0.000000 0.000000 0.026782 0.000000 0.000000
# 5 0.000000 0.000000 0.000000 0.000000 0.029086 0.000000
# 6 0.000000 0.000000 0.000000 0.000000 0.000000 0.029252
#
#
# Mechanical properties :
#
#
# Convention : Reuss Voigt Hill
#
# Bulk Modulus (GPa) = 67.86982 72.80317 70.33650
# Shear Modulus (GPa) = 32.12637 33.03848 32.58242
#
# Velocity S-wave (km/s) = 3.97711 4.03318 4.00524
# Velocity P-wave (km/s) = 7.38280 7.58508 7.48462
#
# Compressibility (1/GPa) = 0.01473409
#
# Stress axis : x y z
#
# Youngs Moduli (GPa) = 67.48767 76.12425 81.86752
#
# Poissons Ratio (x) = 0.28161 0.23762
# Poissons Ratio (y) = 0.24966 0.50066
# Poissons Ratio (z) = 0.19588 0.46554
#
# Static dielectric constant tensor:
#      x y z
#    x 3.573720 0.000000 0.000000 
#    y 0.000000 4.027020 0.000000 
#    z 0.000000 0.000000 3.538900 
# 
# 
# High freq. dielectric constant tensor:
#      x y z
#    x 1.766860 0.000000 0.000000 
#    y 0.000000 1.813240 0.000000 
#    z 0.000000 0.000000 1.779980 
# 
# From -- ./inp_files/23804.got.cif
#   From: 2010.03.12/outbox.cif.g09.slc.cpg/sg68_12_cif.got.tgz:23804.got - 2010.04.10 23:14:56.
