data_PCOD8282424
_publ_section_title
;
Structure prediction by ZEFSAII (Michael W. Deem and Ramdas Pophale) SiO2 
 PCOD8282424
Probable space group: C C C A
;
_chemical_formula_sum "Si O2"
_cell_formula_units_Z 36
_cell_length_a 12.358546
_cell_length_b 7.004539
_cell_length_c 16.037191
_cell_angle_alpha 90.000000
_cell_angle_beta 90.000000
_cell_angle_gamma 90.000000
_cell_volume 1388.274152
_symmetry_space_group_name_H-M "C C C A"
_symmetry_group_IT_number 68
_space_group.IT_coordinate_system_code '2'
_symmetry_cell_setting 'orthorhombic'
loop_
_space_group_symop_operation_xyz
x,y,z
-x,1/2-y,z
x,1/2-y,1/2-z
-x,y,1/2-z
-x,-y,-z
x,1/2+y,-z
-x,1/2+y,1/2+z
x,-y,1/2+z
1/2+x,1/2+y,z
1/2-x,-y,z
1/2+x,-y,1/2-z
1/2-x,1/2+y,1/2-z
1/2-x,1/2-y,-z
1/2+x,y,-z
1/2-x,y,1/2+z
1/2+x,1/2-y,1/2+z
loop_
_atom_site_type_symbol
_atom_site_label
_atom_site_fract_x
_atom_site_fract_y
_atom_site_fract_z
Si Si1 0.415543 0.024403 0.105952
Si Si2 0.000000 0.250000 0.750000
Si Si3 0.853385 0.113104 0.066756
O O1 0.362542 0.815063 0.113747
O O2 0.542228 0.017985 0.082294
O O3 0.415199 0.124983 0.195651
O O4 0.349830 0.144910 0.034689
O O5 0.750000 0.000000 0.100801
#
# Coordination Sequence:
#
# PCOD8282424 Si02
#       3
#    16   4  16
#     4  10  22  38  64  96 132 181 228 284 352 413
#     4  12  24  42  56  92 156 190 220 282 356 424
#     4  10  20  41  70  96 123 176 246 292 333 409
#
# _framework density 25.931477000000001
#
# number of rings (size 3 to 8) (size 9 to 14) (size 15 to 20)
#    0.000    1.778    0.000    6.667    0.000    3.556 
#    0.000    6.667    0.000    0.000    0.000    0.000 
#    0.000    0.000    0.000    8.000    0.000    0.000 
#
# Total GULP energy -223203.822484 kJ/mol
# GULP energy per Si atom -12400.212360 kJ/mol
# Density = 2.587246 g / cm^3
# Si number density = 25.931477 Si / 1000 Ang^3
#
#
#
# Elastic Constant Matrix: (Units=GPa)
#
#
# Indices 1 2 3 4 5 6 
#
# 1 123.7792 66.1613 26.1063 0.0000 0.0000 0.0000
# 2 66.1613 142.9283 73.4488 0.0000 0.0000 0.0000
# 3 26.1063 73.4488 138.3645 0.0000 0.0000 0.0000
# 4 0.0000 0.0000 0.0000 50.7638 0.0000 0.0000
# 5 0.0000 0.0000 0.0000 0.0000 22.8038 0.0000
# 6 0.0000 0.0000 0.0000 0.0000 0.0000 42.7822
#
#
#
# Elastic Compliance Matrix: (Units=1/GPa)
#
#
# Indices 1 2 3 4 5 6 
#
# 1 0.010807 -0.005438 0.000848 0.000000 0.000000 0.000000
# 2 -0.005438 0.012358 -0.005534 0.000000 0.000000 0.000000
# 3 0.000848 -0.005534 0.010005 0.000000 0.000000 0.000000
# 4 0.000000 0.000000 0.000000 0.019699 0.000000 0.000000
# 5 0.000000 0.000000 0.000000 0.000000 0.043852 0.000000
# 6 0.000000 0.000000 0.000000 0.000000 0.000000 0.023374
#
#
# Mechanical properties :
#
#
# Convention : Reuss Voigt Hill
#
# Bulk Modulus (GPa) = 77.39377 81.83389 79.61383
# Shear Modulus (GPa) = 34.56616 39.22699 36.89658
#
# Velocity S-wave (km/s) = 3.65496 3.89359 3.77616
# Velocity P-wave (km/s) = 6.90811 7.19997 7.05555
#
# Compressibility (1/GPa) = 0.01292094
#
# Stress axis : x y z
#
# Youngs Moduli (GPa) = 92.53401 80.92230 99.95146
#
# Poissons Ratio (x) = 0.44006 -0.08473
# Poissons Ratio (y) = 0.50321 0.55311
# Poissons Ratio (z) = -0.07844 0.44781
#
# Static dielectric constant tensor:
#      x y z
#    x 4.702120 0.000000 0.000000 
#    y 0.000000 4.626670 0.000000 
#    z 0.000000 0.000000 4.569630 
# 
# 
# High freq. dielectric constant tensor:
#      x y z
#    x 2.041540 0.000000 0.000000 
#    y 0.000000 2.058610 0.000000 
#    z 0.000000 0.000000 1.993230 
# 
# From -- ./inp_files/21355.got.cif
#   From: 2010.03.12/outbox.cif.g09.slc.cpg/sg68_11_cif.got.tgz:21355.got - 2010.04.10 23:14:56.
