data_PCOD8282575
_publ_section_title
;
Structure prediction by ZEFSAII (Michael W. Deem and Ramdas Pophale) SiO2 
 PCOD8282575
Probable space group: C C C A
;
_chemical_formula_sum "Si O2"
_cell_formula_units_Z 80
_cell_length_a 10.942349
_cell_length_b 13.702469
_cell_length_c 26.624967
_cell_angle_alpha 90.000000
_cell_angle_beta 90.000000
_cell_angle_gamma 90.000000
_cell_volume 3992.072948
_symmetry_space_group_name_H-M "C C C A"
_symmetry_group_IT_number 68
_space_group.IT_coordinate_system_code '2'
_symmetry_cell_setting 'orthorhombic'
loop_
_space_group_symop_operation_xyz
x,y,z
-x,1/2-y,z
x,1/2-y,1/2-z
-x,y,1/2-z
-x,-y,-z
x,1/2+y,-z
-x,1/2+y,1/2+z
x,-y,1/2+z
1/2+x,1/2+y,z
1/2-x,-y,z
1/2+x,-y,1/2-z
1/2-x,1/2+y,1/2-z
1/2-x,1/2-y,-z
1/2+x,y,-z
1/2-x,y,1/2+z
1/2+x,1/2-y,1/2+z
loop_
_atom_site_type_symbol
_atom_site_label
_atom_site_fract_x
_atom_site_fract_y
_atom_site_fract_z
Si Si1 0.040483 0.855989 0.646868
Si Si2 0.047250 0.145049 0.528410
Si Si3 0.613259 0.520441 0.716588
Si Si4 0.883022 0.029619 0.064578
Si Si5 0.707697 0.393916 0.117207
O O1 0.170093 0.831522 0.621652
O O2 0.000000 0.750000 0.663793
O O3 0.954558 0.917554 0.609535
O O4 0.060433 0.918012 0.697104
O O5 0.125942 0.102991 0.482386
O O6 0.130015 0.163938 0.576876
O O7 0.000000 0.250000 0.510536
O O8 0.943351 0.070165 0.545383
O O9 0.500000 0.563696 0.750000
O O10 0.750000 0.500000 0.741872
O O11 0.634669 0.594106 0.669872
O O12 0.750000 0.000000 0.084644
O O13 0.750000 0.500000 0.097101
#
# Coordination Sequence:
#
# PCOD8282575 Si02
#       5
#    16  16  16  16  16
#     4  10  21  38  61  88 117 152 197 244 292 348
#     4  11  23  38  58  82 118 159 198 243 292 346
#     4   9  19  38  63  89 116 156 192 238 304 356
#     4  11  24  37  55  88 118 156 204 242 292 344
#     4   9  18  40  60  79 115 158 189 234 301 347
#
# _framework density 20.039714
#
# number of rings (size 3 to 8) (size 9 to 14) (size 15 to 20)
#    0.000    2.400    4.000    1.200    5.600    2.000 
#    0.000    0.000    0.000    5.400    0.000    0.000 
#    0.000    0.000    0.000    0.000    0.000    0.000 
#
# Total GULP energy -495538.662059 kJ/mol
# GULP energy per Si atom -12388.466551 kJ/mol
# Density = 1.999410 g / cm^3
# Si number density = 20.039714 Si / 1000 Ang^3
#
#
#
# Elastic Constant Matrix: (Units=GPa)
#
#
# Indices 1 2 3 4 5 6 
#
# 1 144.8944 35.0980 57.5177 0.0000 0.0000 0.0000
# 2 35.0980 96.8035 22.4226 0.0000 0.0000 0.0000
# 3 57.5177 22.4226 65.6602 0.0000 0.0000 0.0000
# 4 0.0000 0.0000 0.0000 11.9172 0.0000 0.0000
# 5 0.0000 0.0000 0.0000 0.0000 32.9330 0.0000
# 6 0.0000 0.0000 0.0000 0.0000 0.0000 22.2317
#
#
#
# Elastic Compliance Matrix: (Units=1/GPa)
#
#
# Indices 1 2 3 4 5 6 
#
# 1 0.010890 -0.001888 -0.008895 0.000000 0.000000 0.000000
# 2 -0.001888 0.011545 -0.002289 0.000000 0.000000 0.000000
# 3 -0.008895 -0.002289 0.023803 0.000000 0.000000 0.000000
# 4 0.000000 0.000000 0.000000 0.083913 0.000000 0.000000
# 5 0.000000 0.000000 0.000000 0.000000 0.030365 0.000000
# 6 0.000000 0.000000 0.000000 0.000000 0.000000 0.044981
#
#
# Mechanical properties :
#
#
# Convention : Reuss Voigt Hill
#
# Bulk Modulus (GPa) = 49.76306 59.71496 54.73901
# Shear Modulus (GPa) = 20.97874 26.23768 23.60821
#
# Velocity S-wave (km/s) = 3.23903 3.62233 3.43603
# Velocity P-wave (km/s) = 6.23495 6.88172 6.56630
#
# Compressibility (1/GPa) = 0.02009523
#
# Stress axis : x y z
#
# Youngs Moduli (GPa) = 91.82973 86.61866 42.01155
#
# Poissons Ratio (x) = 0.16354 0.37367
# Poissons Ratio (y) = 0.17338 0.09615
# Poissons Ratio (z) = 0.81678 0.19823
#
# Static dielectric constant tensor:
#      x y z
#    x 3.219020 0.000000 0.000000 
#    y 0.000000 3.295020 0.000000 
#    z 0.000000 0.000000 3.457110 
# 
# 
# High freq. dielectric constant tensor:
#      x y z
#    x 1.795170 0.000000 0.000000 
#    y 0.000000 1.762950 0.000000 
#    z 0.000000 0.000000 1.766400 
# 
# From -- ./inp_files/50118.got.cif
#   From: 2010.03.12/outbox.cif.g09.slc.cpg/sg68_26_cif.got.tgz:50118.got - 2010.04.10 23:14:56.
