data_PCOD8282259
_publ_section_title
;
Structure prediction by ZEFSAII (Michael W. Deem and Ramdas Pophale) SiO2 
 PCOD8282259
Probable space group: C C C A
;
_chemical_formula_sum "Si O2"
_cell_formula_units_Z 96
_cell_length_a 21.425443
_cell_length_b 10.832298
_cell_length_c 18.534993
_cell_angle_alpha 90.000000
_cell_angle_beta 90.000000
_cell_angle_gamma 90.000000
_cell_volume 4301.726905
_symmetry_space_group_name_H-M "C C C A"
_symmetry_group_IT_number 68
_space_group.IT_coordinate_system_code '2'
_symmetry_cell_setting 'orthorhombic'
loop_
_space_group_symop_operation_xyz
x,y,z
-x,1/2-y,z
x,1/2-y,1/2-z
-x,y,1/2-z
-x,-y,-z
x,1/2+y,-z
-x,1/2+y,1/2+z
x,-y,1/2+z
1/2+x,1/2+y,z
1/2-x,-y,z
1/2+x,-y,1/2-z
1/2-x,1/2+y,1/2-z
1/2-x,1/2-y,-z
1/2+x,y,-z
1/2-x,y,1/2+z
1/2+x,1/2-y,1/2+z
loop_
_atom_site_type_symbol
_atom_site_label
_atom_site_fract_x
_atom_site_fract_y
_atom_site_fract_z
Si Si1 0.593269 0.051017 0.026305
Si Si2 0.743134 0.250000 0.750000
Si Si3 0.000000 0.750000 0.426262
Si Si4 0.928755 0.540562 0.128065
Si Si5 0.195541 0.097097 0.869064
Si Si6 0.135867 0.566477 0.742004
Si Si7 0.539778 0.370350 0.865336
O O1 0.532277 0.140207 0.027960
O O2 0.655556 0.121487 0.057343
O O3 0.580622 0.919424 0.066630
O O4 0.602403 0.018757 0.943016
O O5 0.781251 0.281017 0.824355
O O6 0.699204 0.133524 0.765575
O O7 0.055219 0.686089 0.379458
O O8 0.879645 0.516152 0.189749
O O9 0.992477 0.478105 0.155022
O O10 0.250000 0.000000 0.888024
O O11 0.144855 0.034379 0.818889
O O12 0.083571 0.657232 0.705507
O O13 0.500000 0.250000 0.886815
#
# Coordination Sequence:
#
# PCOD8282259 Si02
#       7
#    16   8   8  16  16  16  16
#     4  10  23  39  61  91 125 171 204 252 323 379
#     4  10  20  40  65  83 118 164 212 272 318 346
#     4  10  22  40  57  90 127 168 194 236 328 384
#     4  11  23  36  61  94 129 163 202 251 315 384
#     4   9  21  42  63  84 119 161 213 261 313 371
#     4  10  21  38  58  96 119 159 208 259 311 372
#     4  10  20  37  62  89 129 162 205 250 307 378
#
# _framework density 22.31662
#
# number of rings (size 3 to 8) (size 9 to 14) (size 15 to 20)
#    0.000    2.000    0.000    3.500    7.000    0.667 
#    0.000   10.833    0.000    0.000    0.000    0.000 
#    0.000    0.000    0.000    0.000    0.000    0.000 
#
# Total GULP energy -594693.605070 kJ/mol
# GULP energy per Si atom -12389.450106 kJ/mol
# Density = 2.226583 g / cm^3
# Si number density = 22.316620 Si / 1000 Ang^3
#
#
#
# Elastic Constant Matrix: (Units=GPa)
#
#
# Indices 1 2 3 4 5 6 
#
# 1 89.1180 16.1816 53.3306 0.0000 0.0000 0.0000
# 2 16.1816 67.8605 24.0503 0.0000 0.0000 0.0000
# 3 53.3306 24.0503 116.7202 0.0000 0.0000 0.0000
# 4 0.0000 0.0000 0.0000 10.4597 0.0000 0.0000
# 5 0.0000 0.0000 0.0000 0.0000 22.8096 0.0000
# 6 0.0000 0.0000 0.0000 0.0000 0.0000 33.1747
#
#
#
# Elastic Compliance Matrix: (Units=1/GPa)
#
#
# Indices 1 2 3 4 5 6 
#
# 1 0.015547 -0.001283 -0.006839 0.000000 0.000000 0.000000
# 2 -0.001283 0.016003 -0.002711 0.000000 0.000000 0.000000
# 3 -0.006839 -0.002711 0.012251 0.000000 0.000000 0.000000
# 4 0.000000 0.000000 0.000000 0.095605 0.000000 0.000000
# 5 0.000000 0.000000 0.000000 0.000000 0.043841 0.000000
# 6 0.000000 0.000000 0.000000 0.000000 0.000000 0.030143
#
#
# Mechanical properties :
#
#
# Convention : Reuss Voigt Hill
#
# Bulk Modulus (GPa) = 45.17983 51.20262 48.19122
# Shear Modulus (GPa) = 20.62409 25.29788 22.96098
#
# Velocity S-wave (km/s) = 3.04330 3.37053 3.21109
# Velocity P-wave (km/s) = 5.71294 6.17583 5.94889
#
# Compressibility (1/GPa) = 0.02213377
#
# Stress axis : x y z
#
# Youngs Moduli (GPa) = 64.32213 62.48846 81.62656
#
# Poissons Ratio (x) = 0.08020 0.55825
# Poissons Ratio (y) = 0.08255 0.22129
# Poissons Ratio (z) = 0.43990 0.16941
#
# Static dielectric constant tensor:
#      x y z
#    x 4.126970 0.000000 0.000000 
#    y 0.000000 4.129640 0.000000 
#    z 0.000000 0.000000 3.970300 
# 
# 
# High freq. dielectric constant tensor:
#      x y z
#    x 1.874280 0.000000 0.000000 
#    y 0.000000 1.869530 0.000000 
#    z 0.000000 0.000000 1.868740 
# 
# From -- ./inp_files/33593.got.cif
#   From: 2010.03.12/outbox.cif.g09.slc.cpg/sg68_17_cif.got.tgz:33593.got - 2010.04.10 23:14:56.
