data_PCOD8282361
_publ_section_title
;
Structure prediction by ZEFSAII (Michael W. Deem and Ramdas Pophale) SiO2 
 PCOD8282361
Probable space group: C C C A
;
_chemical_formula_sum "Si O2"
_cell_formula_units_Z 68
_cell_length_a 17.892157
_cell_length_b 9.525886
_cell_length_c 17.935091
_cell_angle_alpha 90.000000
_cell_angle_beta 90.000000
_cell_angle_gamma 90.000000
_cell_volume 3056.832660
_symmetry_space_group_name_H-M "C C C A"
_symmetry_group_IT_number 68
_space_group.IT_coordinate_system_code '2'
_symmetry_cell_setting 'orthorhombic'
loop_
_space_group_symop_operation_xyz
x,y,z
-x,1/2-y,z
x,1/2-y,1/2-z
-x,y,1/2-z
-x,-y,-z
x,1/2+y,-z
-x,1/2+y,1/2+z
x,-y,1/2+z
1/2+x,1/2+y,z
1/2-x,-y,z
1/2+x,-y,1/2-z
1/2-x,1/2+y,1/2-z
1/2-x,1/2-y,-z
1/2+x,y,-z
1/2-x,y,1/2+z
1/2+x,1/2-y,1/2+z
loop_
_atom_site_type_symbol
_atom_site_label
_atom_site_fract_x
_atom_site_fract_y
_atom_site_fract_z
Si Si1 0.504650 0.592996 0.072360
Si Si2 0.000000 0.250000 0.750000
Si Si3 0.780449 0.775555 0.163430
Si Si4 0.358564 0.942933 0.333354
Si Si5 0.115253 0.954270 0.173133
O O1 0.500000 0.750000 0.042600
O O2 0.440077 0.571560 0.133357
O O3 0.582891 0.562159 0.112811
O O4 0.500000 0.500000 0.000000
O O5 0.948784 0.155858 0.803335
O O6 0.796719 0.750000 0.250000
O O7 0.693253 0.807261 0.145591
O O8 0.816195 0.630712 0.131133
O O9 0.825177 0.912049 0.134739
O O10 0.358385 0.951920 0.243226
#
# Coordination Sequence:
#
# PCOD8282361 Si02
#       5
#    16   4  16  16  16
#     4  12  29  44  65  92 135 183 231 285 330 404
#     4  12  16  36  70 100 128 176 214 276 332 424
#     4   9  19  35  68  99 132 167 206 276 338 412
#     4  10  20  39  66 101 132 163 220 277 340 394
#     4  11  20  39  69 100 132 177 224 279 347 413
#
# _framework density 22.245246999999999
#
# number of rings (size 3 to 8) (size 9 to 14) (size 15 to 20)
#    0.000    1.412    5.882    0.000    8.235    0.941 
#    0.000    1.176    0.000    0.000    0.000    0.000 
#    0.000    0.000    0.000    0.000    0.000    0.000 
#
# Total GULP energy -421332.929759 kJ/mol
# GULP energy per Si atom -12392.144993 kJ/mol
# Density = 2.219462 g / cm^3
# Si number density = 22.245247 Si / 1000 Ang^3
#
#
#
# Elastic Constant Matrix: (Units=GPa)
#
#
# Indices 1 2 3 4 5 6 
#
# 1 115.2108 64.3712 27.7787 0.0000 0.0000 0.0000
# 2 64.3712 129.9015 46.3316 0.0000 0.0000 0.0000
# 3 27.7787 46.3316 65.1542 0.0000 0.0000 0.0000
# 4 0.0000 0.0000 0.0000 30.6684 0.0000 0.0000
# 5 0.0000 0.0000 0.0000 0.0000 7.1693 0.0000
# 6 0.0000 0.0000 0.0000 0.0000 0.0000 58.3489
#
#
#
# Elastic Compliance Matrix: (Units=1/GPa)
#
#
# Indices 1 2 3 4 5 6 
#
# 1 0.012072 -0.005556 -0.001196 0.000000 0.000000 0.000000
# 2 -0.005556 0.012871 -0.006784 0.000000 0.000000 0.000000
# 3 -0.001196 -0.006784 0.020682 0.000000 0.000000 0.000000
# 4 0.000000 0.000000 0.000000 0.032607 0.000000 0.000000
# 5 0.000000 0.000000 0.000000 0.000000 0.139484 0.000000
# 6 0.000000 0.000000 0.000000 0.000000 0.000000 0.017138
#
#
# Mechanical properties :
#
#
# Convention : Reuss Voigt Hill
#
# Bulk Modulus (GPa) = 53.89775 65.24771 59.57273
# Shear Modulus (GPa) = 18.64900 30.68964 24.66932
#
# Velocity S-wave (km/s) = 2.89855 3.71833 3.33373
# Velocity P-wave (km/s) = 5.95681 6.91588 6.45418
#
# Compressibility (1/GPa) = 0.01855365
#
# Stress axis : x y z
#
# Youngs Moduli (GPa) = 82.83471 77.69600 48.35047
#
# Poissons Ratio (x) = 0.43164 0.05785
# Poissons Ratio (y) = 0.46019 0.32800
# Poissons Ratio (z) = 0.09911 0.52708
#
# Static dielectric constant tensor:
#      x y z
#    x 4.200610 0.000000 0.000000 
#    y 0.000000 4.481160 0.000000 
#    z 0.000000 0.000000 3.393220 
# 
# 
# High freq. dielectric constant tensor:
#      x y z
#    x 1.891040 0.000000 0.000000 
#    y 0.000000 1.892990 0.000000 
#    z 0.000000 0.000000 1.806400 
# 
# From -- ./inp_files/32575.got.cif
#   From: 2010.03.12/outbox.cif.g09.slc.cpg/sg68_17_cif.got.tgz:32575.got - 2010.04.10 23:14:56.
