data_PCOD8282568
_publ_section_title
;
Structure prediction by ZEFSAII (Michael W. Deem and Ramdas Pophale) SiO2 
 PCOD8282568
Probable space group: C C C A
;
_chemical_formula_sum "Si O2"
_cell_formula_units_Z 88
_cell_length_a 25.886963
_cell_length_b 19.378008
_cell_length_c 8.659758
_cell_angle_alpha 90.000000
_cell_angle_beta 90.000000
_cell_angle_gamma 90.000000
_cell_volume 4344.061745
_symmetry_space_group_name_H-M "C C C A"
_symmetry_group_IT_number 68
_space_group.IT_coordinate_system_code '2'
_symmetry_cell_setting 'orthorhombic'
loop_
_space_group_symop_operation_xyz
x,y,z
-x,1/2-y,z
x,1/2-y,1/2-z
-x,y,1/2-z
-x,-y,-z
x,1/2+y,-z
-x,1/2+y,1/2+z
x,-y,1/2+z
1/2+x,1/2+y,z
1/2-x,-y,z
1/2+x,-y,1/2-z
1/2-x,1/2+y,1/2-z
1/2-x,1/2-y,-z
1/2+x,y,-z
1/2-x,y,1/2+z
1/2+x,1/2-y,1/2+z
loop_
_atom_site_type_symbol
_atom_site_label
_atom_site_fract_x
_atom_site_fract_y
_atom_site_fract_z
Si Si1 0.354106 0.750000 0.750000
Si Si2 0.305547 0.112939 0.798089
Si Si3 0.697884 0.861018 0.547276
Si Si4 0.138277 0.026953 0.786533
Si Si5 0.534567 0.454013 0.890105
Si Si6 0.387375 0.865997 0.539309
O O1 0.317364 0.709990 0.630994
O O2 0.391378 0.801469 0.655010
O O3 0.299275 0.152524 0.635650
O O4 0.252802 0.113858 0.891933
O O5 0.320435 0.033683 0.767012
O O6 0.349897 0.151648 0.896187
O O7 0.655501 0.920005 0.580149
O O8 0.136785 0.066783 0.623295
O O9 0.081755 0.999574 0.827662
O O10 0.500000 0.426444 0.750000
O O11 0.500000 0.500000 0.000000
O O12 0.555549 0.386078 0.979111
#
# Coordination Sequence:
#
# PCOD8282568 Si02
#       6
#     8  16  16  16  16  16
#     4  10  24  44  60  85 124 168 217 240 306 368
#     4  11  22  36  60  92 122 161 207 256 308 359
#     4  11  23  37  60  86 128 168 203 254 298 375
#     4  10  21  38  59  95 126 156 199 256 324 361
#     4  11  21  37  66  99 122 153 199 261 323 377
#     4  10  22  40  62  91 124 165 207 256 306 377
#
# _framework density 20.257539999999999
#
# number of rings (size 3 to 8) (size 9 to 14) (size 15 to 20)
#    0.000    1.455    1.818    4.909    2.545    5.091 
#    0.000    0.000    0.000    8.727    9.455    0.000 
#    0.000    0.000    0.000    0.000    0.000    0.000 
#
# Total GULP energy -545758.649827 kJ/mol
# GULP energy per Si atom -12403.605678 kJ/mol
# Density = 2.021143 g / cm^3
# Si number density = 20.257540 Si / 1000 Ang^3
#
#
#
# Elastic Constant Matrix: (Units=GPa)
#
#
# Indices 1 2 3 4 5 6 
#
# 1 132.4075 51.0915 63.4855 0.0000 0.0000 0.0000
# 2 51.0915 109.7049 54.3185 0.0000 0.0000 0.0000
# 3 63.4855 54.3185 158.2074 0.0000 0.0000 0.0000
# 4 0.0000 0.0000 0.0000 30.4329 0.0000 0.0000
# 5 0.0000 0.0000 0.0000 0.0000 39.7941 0.0000
# 6 0.0000 0.0000 0.0000 0.0000 0.0000 15.4791
#
#
#
# Elastic Compliance Matrix: (Units=1/GPa)
#
#
# Indices 1 2 3 4 5 6 
#
# 1 0.010256 -0.003299 -0.002983 0.000000 0.000000 0.000000
# 2 -0.003299 0.012044 -0.002811 0.000000 0.000000 0.000000
# 3 -0.002983 -0.002811 0.008483 0.000000 0.000000 0.000000
# 4 0.000000 0.000000 0.000000 0.032859 0.000000 0.000000
# 5 0.000000 0.000000 0.000000 0.000000 0.025129 0.000000
# 6 0.000000 0.000000 0.000000 0.000000 0.000000 0.064603
#
#
# Mechanical properties :
#
#
# Convention : Reuss Voigt Hill
#
# Bulk Modulus (GPa) = 79.38986 82.01231 80.70109
# Shear Modulus (GPa) = 28.44801 32.56949 30.50875
#
# Velocity S-wave (km/s) = 3.75149 4.01405 3.88499
# Velocity P-wave (km/s) = 7.61841 7.87758 7.74908
#
# Compressibility (1/GPa) = 0.01259607
#
# Stress axis : x y z
#
# Youngs Moduli (GPa) = 97.50728 83.02986 117.88544
#
# Poissons Ratio (x) = 0.27396 0.35160
# Poissons Ratio (y) = 0.32172 0.33139
# Poissons Ratio (z) = 0.29082 0.23340
#
# Static dielectric constant tensor:
#      x y z
#    x 3.779480 0.000000 0.000000 
#    y 0.000000 3.562610 0.000000 
#    z 0.000000 0.000000 3.975700 
# 
# 
# High freq. dielectric constant tensor:
#      x y z
#    x 1.782860 0.000000 0.000000 
#    y 0.000000 1.773780 0.000000 
#    z 0.000000 0.000000 1.813930 
# 
# From -- ./inp_files/7991.got.cif
#   From: 2010.03.12/outbox.cif.g09.slc.cpg/sg68_4_cif.got.tgz:7991.got - 2010.04.10 23:14:56.
