data_PCOD8282502
_publ_section_title
;
Structure prediction by ZEFSAII (Michael W. Deem and Ramdas Pophale) SiO2 
 PCOD8282502
Probable space group: C C C A
;
_chemical_formula_sum "Si O2"
_cell_formula_units_Z 96
_cell_length_a 14.915353
_cell_length_b 15.247446
_cell_length_c 19.565343
_cell_angle_alpha 90.000000
_cell_angle_beta 90.000000
_cell_angle_gamma 90.000000
_cell_volume 4449.570642
_symmetry_space_group_name_H-M "C C C A"
_symmetry_group_IT_number 68
_space_group.IT_coordinate_system_code '2'
_symmetry_cell_setting 'orthorhombic'
loop_
_space_group_symop_operation_xyz
x,y,z
-x,1/2-y,z
x,1/2-y,1/2-z
-x,y,1/2-z
-x,-y,-z
x,1/2+y,-z
-x,1/2+y,1/2+z
x,-y,1/2+z
1/2+x,1/2+y,z
1/2-x,-y,z
1/2+x,-y,1/2-z
1/2-x,1/2+y,1/2-z
1/2-x,1/2-y,-z
1/2+x,y,-z
1/2-x,y,1/2+z
1/2+x,1/2-y,1/2+z
loop_
_atom_site_type_symbol
_atom_site_label
_atom_site_fract_x
_atom_site_fract_y
_atom_site_fract_z
Si Si1 0.628559 0.585096 0.014717
Si Si2 0.750000 0.500000 0.736157
Si Si3 0.921007 0.572055 0.794246
Si Si4 0.103719 0.260951 0.953109
Si Si5 0.150369 0.750000 0.750000
Si Si6 0.748661 0.154397 0.862963
Si Si7 0.577101 0.086421 0.546636
O O1 0.679006 0.605243 0.085688
O O2 0.521722 0.581338 0.016802
O O3 0.651300 0.666702 0.964675
O O4 0.647662 0.487862 0.982762
O O5 0.831984 0.516192 0.786368
O O6 0.778012 0.417701 0.691136
O O7 0.912073 0.667161 0.760856
O O8 0.939768 0.578291 0.873623
O O9 0.000000 0.526138 0.750000
O O10 0.159718 0.312283 0.896338
O O11 0.000000 0.250000 0.929793
O O12 0.113453 0.317870 0.023457
O O13 0.206728 0.735153 0.820103
#
# Coordination Sequence:
#
# PCOD8282502 Si02
#       7
#    16   8  16  16   8  16  16
#     4  10  21  36  61  88 116 156 202 252 307 367
#     4  10  24  38  58  90 116 158 208 236 298 390
#     4  11  23  40  62  87 122 161 201 258 311 362
#     4  10  22  37  59  89 119 155 202 253 308 372
#     4  10  23  38  61  90 116 158 213 248 300 388
#     4  11  21  40  59  84 125 161 198 256 311 363
#     4  10  21  38  59  89 120 155 205 255 308 372
#
# _framework density 21.575115
#
# number of rings (size 3 to 8) (size 9 to 14) (size 15 to 20)
#    0.000    1.667    0.000    4.750    0.000    9.333 
#    0.000    0.417    0.000    0.000    0.000    0.000 
#    0.000    0.000    0.000    0.000    0.000    0.000 
#
# Total GULP energy -594850.740518 kJ/mol
# GULP energy per Si atom -12392.723761 kJ/mol
# Density = 2.152601 g / cm^3
# Si number density = 21.575115 Si / 1000 Ang^3
#
#
#
# Elastic Constant Matrix: (Units=GPa)
#
#
# Indices 1 2 3 4 5 6 
#
# 1 68.3366 22.6174 20.1037 0.0000 0.0000 0.0000
# 2 22.6174 76.4211 -2.6272 0.0000 0.0000 0.0000
# 3 20.1037 -2.6272 86.1816 0.0000 0.0000 0.0000
# 4 0.0000 0.0000 0.0000 7.2249 0.0000 0.0000
# 5 0.0000 0.0000 0.0000 0.0000 13.0591 0.0000
# 6 0.0000 0.0000 0.0000 0.0000 0.0000 11.2534
#
#
#
# Elastic Compliance Matrix: (Units=1/GPa)
#
#
# Indices 1 2 3 4 5 6 
#
# 1 0.017675 -0.005378 -0.004287 0.000000 0.000000 0.000000
# 2 -0.005378 0.014736 0.001704 0.000000 0.000000 0.000000
# 3 -0.004287 0.001704 0.012655 0.000000 0.000000 0.000000
# 4 0.000000 0.000000 0.000000 0.138410 0.000000 0.000000
# 5 0.000000 0.000000 0.000000 0.000000 0.076575 0.000000
# 6 0.000000 0.000000 0.000000 0.000000 0.000000 0.088862
#
#
# Mechanical properties :
#
#
# Convention : Reuss Voigt Hill
#
# Bulk Modulus (GPa) = 34.31374 34.56968 34.44171
# Shear Modulus (GPa) = 13.34933 19.03050 16.18991
#
# Velocity S-wave (km/s) = 2.49014 2.97317 2.74231
# Velocity P-wave (km/s) = 4.92002 5.27674 5.10150
#
# Compressibility (1/GPa) = 0.02914284
#
# Stress axis : x y z
#
# Youngs Moduli (GPa) = 56.57808 67.86231 79.01786
#
# Poissons Ratio (x) = 0.36499 0.33875
# Poissons Ratio (y) = 0.30430 -0.13463
# Poissons Ratio (z) = 0.24255 -0.11563
#
# Static dielectric constant tensor:
#      x y z
#    x 3.838020 0.000000 0.000000 
#    y 0.000000 4.311090 0.000000 
#    z 0.000000 0.000000 3.776800 
# 
# 
# High freq. dielectric constant tensor:
#      x y z
#    x 1.847870 0.000000 0.000000 
#    y 0.000000 1.858070 0.000000 
#    z 0.000000 0.000000 1.837760 
# 
# From -- ./inp_files/38618.got.cif
#   From: 2010.03.12/outbox.cif.g09.slc.cpg/sg68_20_cif.got.tgz:38618.got - 2010.04.10 23:14:56.
