data_PCOD8282761
_publ_section_title
;
Structure prediction by ZEFSAII (Michael W. Deem and Ramdas Pophale) SiO2 
 PCOD8282761
Probable space group: C C C A
;
_chemical_formula_sum "Si O2"
_cell_formula_units_Z 72
_cell_length_a 8.830541
_cell_length_b 22.929995
_cell_length_c 17.976720
_cell_angle_alpha 90.000000
_cell_angle_beta 90.000000
_cell_angle_gamma 90.000000
_cell_volume 3640.002864
_symmetry_space_group_name_H-M "C C C A"
_symmetry_group_IT_number 68
_space_group.IT_coordinate_system_code '2'
_symmetry_cell_setting 'orthorhombic'
loop_
_space_group_symop_operation_xyz
x,y,z
-x,1/2-y,z
x,1/2-y,1/2-z
-x,y,1/2-z
-x,-y,-z
x,1/2+y,-z
-x,1/2+y,1/2+z
x,-y,1/2+z
1/2+x,1/2+y,z
1/2-x,-y,z
1/2+x,-y,1/2-z
1/2-x,1/2+y,1/2-z
1/2-x,1/2-y,-z
1/2+x,y,-z
1/2-x,y,1/2+z
1/2+x,1/2-y,1/2+z
loop_
_atom_site_type_symbol
_atom_site_label
_atom_site_fract_x
_atom_site_fract_y
_atom_site_fract_z
Si Si1 0.632570 0.922843 0.546419
Si Si2 0.737350 0.686278 0.742506
Si Si3 0.962555 0.045659 0.092930
Si Si4 0.499249 0.685590 0.873930
Si Si5 0.500000 0.902711 0.250000
O O1 0.811593 0.920647 0.564022
O O2 0.602711 0.934308 0.458933
O O3 0.548501 0.862740 0.566761
O O4 0.558555 0.976120 0.591691
O O5 0.815364 0.750000 0.750000
O O6 0.609664 0.684169 0.804407
O O7 0.668280 0.674651 0.660113
O O8 0.854063 0.636347 0.760182
O O9 0.009224 0.057774 0.177213
O O10 0.500000 0.750000 0.912185
#
# Coordination Sequence:
#
# PCOD8282761 Si02
#       5
#    16  16  16  16   8
#     4  10  21  45  57  87 119 162 193 253 294 369
#     4   9  19  34  57  87 124 157 188 249 306 348
#     4  10  24  39  64  84 126 155 200 242 314 340
#     4   9  18  37  61  83 116 161 201 238 298 362
#     4  12  21  38  58  98 111 154 206 250 282 368
#
# _framework density 19.780203
#
# number of rings (size 3 to 8) (size 9 to 14) (size 15 to 20)
#    0.000    2.222    2.222    1.667    3.111    1.778 
#    0.000    3.333    0.000    0.000    0.000    0.000 
#    0.000    0.000    0.000    0.000    0.000    0.000 
#
# Total GULP energy -446257.539023 kJ/mol
# GULP energy per Si atom -12396.042751 kJ/mol
# Density = 1.973518 g / cm^3
# Si number density = 19.780203 Si / 1000 Ang^3
#
#
#
# Elastic Constant Matrix: (Units=GPa)
#
#
# Indices 1 2 3 4 5 6 
#
# 1 42.5357 21.6906 18.7802 0.0000 0.0000 0.0000
# 2 21.6906 122.5909 44.3622 0.0000 0.0000 0.0000
# 3 18.7802 44.3622 110.4520 0.0000 0.0000 0.0000
# 4 0.0000 0.0000 0.0000 37.9957 0.0000 0.0000
# 5 0.0000 0.0000 0.0000 0.0000 17.5969 0.0000
# 6 0.0000 0.0000 0.0000 0.0000 0.0000 28.2008
#
#
#
# Elastic Compliance Matrix: (Units=1/GPa)
#
#
# Indices 1 2 3 4 5 6 
#
# 1 0.026715 -0.003607 -0.003094 0.000000 0.000000 0.000000
# 2 -0.003607 0.010032 -0.003416 0.000000 0.000000 0.000000
# 3 -0.003094 -0.003416 0.010952 0.000000 0.000000 0.000000
# 4 0.000000 0.000000 0.000000 0.026319 0.000000 0.000000
# 5 0.000000 0.000000 0.000000 0.000000 0.056828 0.000000
# 6 0.000000 0.000000 0.000000 0.000000 0.000000 0.035460
#
#
# Mechanical properties :
#
#
# Convention : Reuss Voigt Hill
#
# Bulk Modulus (GPa) = 36.41001 49.47160 42.94081
# Shear Modulus (GPa) = 25.55017 29.47505 27.51261
#
# Velocity S-wave (km/s) = 3.59793 3.86441 3.73355
# Velocity P-wave (km/s) = 5.97556 6.70645 6.35153
#
# Compressibility (1/GPa) = 0.02746497
#
# Stress axis : x y z
#
# Youngs Moduli (GPa) = 37.43213 99.68562 91.31089
#
# Poissons Ratio (x) = 0.35960 0.28247
# Poissons Ratio (y) = 0.13503 0.31189
# Poissons Ratio (z) = 0.11580 0.34050
#
# Static dielectric constant tensor:
#      x y z
#    x 2.823790 0.000000 0.000000 
#    y 0.000000 4.036720 0.000000 
#    z 0.000000 0.000000 3.218520 
# 
# 
# High freq. dielectric constant tensor:
#      x y z
#    x 1.766780 0.000000 0.000000 
#    y 0.000000 1.776640 0.000000 
#    z 0.000000 0.000000 1.753180 
# 
# From -- ./inp_files/25854.got.cif
#   From: 2010.03.12/outbox.cif.g09.slc.cpg/sg68_13_cif.got.tgz:25854.got - 2010.04.10 23:14:56.
