data_PCOD8282525
_publ_section_title
;
Structure prediction by ZEFSAII (Michael W. Deem and Ramdas Pophale) SiO2 
 PCOD8282525
Probable space group: C C C A
;
_chemical_formula_sum "Si O2"
_cell_formula_units_Z 96
_cell_length_a 14.404553
_cell_length_b 15.311043
_cell_length_c 20.099210
_cell_angle_alpha 90.000000
_cell_angle_beta 90.000000
_cell_angle_gamma 90.000000
_cell_volume 4432.855247
_symmetry_space_group_name_H-M "C C C A"
_symmetry_group_IT_number 68
_space_group.IT_coordinate_system_code '2'
_symmetry_cell_setting 'orthorhombic'
loop_
_space_group_symop_operation_xyz
x,y,z
-x,1/2-y,z
x,1/2-y,1/2-z
-x,y,1/2-z
-x,-y,-z
x,1/2+y,-z
-x,1/2+y,1/2+z
x,-y,1/2+z
1/2+x,1/2+y,z
1/2-x,-y,z
1/2+x,-y,1/2-z
1/2-x,1/2+y,1/2-z
1/2-x,1/2-y,-z
1/2+x,y,-z
1/2-x,y,1/2+z
1/2+x,1/2-y,1/2+z
loop_
_atom_site_type_symbol
_atom_site_label
_atom_site_fract_x
_atom_site_fract_y
_atom_site_fract_z
Si Si1 0.761619 0.789417 0.680757
Si Si2 0.226675 0.180462 0.553980
Si Si3 0.067050 0.886387 0.311081
Si Si4 0.467388 0.384144 0.439400
Si Si5 0.126552 0.041578 0.013253
Si Si6 0.155246 0.541688 0.629668
O O1 0.800448 0.750000 0.750000
O O2 0.750297 0.710248 0.628661
O O3 0.664133 0.836335 0.696935
O O4 0.837907 0.855663 0.648281
O O5 0.250000 0.250000 0.500000
O O6 0.116703 0.178190 0.542115
O O7 0.278871 0.088145 0.538328
O O8 0.000000 0.870737 0.250000
O O9 0.012275 0.846230 0.372980
O O10 0.078753 0.990308 0.326428
O O11 0.419591 0.480864 0.430037
O O12 0.549119 0.385493 0.494887
O O13 0.142162 0.978041 0.948953
O O14 0.250000 0.500000 0.653970
#
# Coordination Sequence:
#
# PCOD8282525 Si02
#       6
#    16  16  16  16  16  16
#     4  11  24  39  60  91 128 163 198 254 324 376
#     4  12  23  36  61  93 125 162 203 257 315 367
#     4  10  21  38  61  83 113 161 209 250 295 365
#     4  10  21  37  58  85 115 154 204 254 303 356
#     4  10  21  38  61  87 117 156 209 260 299 359
#     4   9  18  38  60  80 114 159 203 247 300 361
#
# _framework density 21.656469999999999
#
# number of rings (size 3 to 8) (size 9 to 14) (size 15 to 20)
#    0.000    1.667    0.000    6.500    0.000    7.000 
#    0.000    3.333    0.000    6.500    0.000    0.000 
#    0.000    0.000    0.000    0.000    0.000    0.000 
#
# Total GULP energy -594695.043151 kJ/mol
# GULP energy per Si atom -12389.480066 kJ/mol
# Density = 2.160718 g / cm^3
# Si number density = 21.656470 Si / 1000 Ang^3
#
#
#
# Elastic Constant Matrix: (Units=GPa)
#
#
# Indices 1 2 3 4 5 6 
#
# 1 77.4718 13.6679 5.2347 0.0000 0.0000 0.0000
# 2 13.6679 87.2340 37.4320 0.0000 0.0000 0.0000
# 3 5.2347 37.4320 91.9517 0.0000 0.0000 0.0000
# 4 0.0000 0.0000 0.0000 -11.4447 0.0000 0.0000
# 5 0.0000 0.0000 0.0000 0.0000 29.7400 0.0000
# 6 0.0000 0.0000 0.0000 0.0000 0.0000 34.1092
#
#
#
# Elastic Compliance Matrix: (Units=1/GPa)
#
#
# Indices 1 2 3 4 5 6 
#
# 1 0.013276 -0.002127 0.000110 0.000000 0.000000 0.000000
# 2 -0.002127 0.014231 -0.005672 0.000000 0.000000 0.000000
# 3 0.000110 -0.005672 0.013178 0.000000 0.000000 0.000000
# 4 0.000000 0.000000 0.000000 -0.087377 0.000000 0.000000
# 5 0.000000 0.000000 0.000000 0.000000 0.033625 0.000000
# 6 0.000000 0.000000 0.000000 0.000000 0.000000 0.029318
#
#
# Mechanical properties :
#
#
# Convention : Reuss Voigt Hill
#
# Bulk Modulus (GPa) = 39.51599 41.03630 40.27615
# Shear Modulus (GPa) = 124.80209 23.83575 74.31892
#
# Velocity S-wave (km/s) = 7.59955 3.32117 5.86444
# Velocity P-wave (km/s) = 9.76169 5.80489 8.03080
#
# Compressibility (1/GPa) = 0.02530621
#
# Stress axis : x y z
#
# Youngs Moduli (GPa) = 75.32503 70.27133 75.88438
#
# Poissons Ratio (x) = 0.14949 -0.00837
# Poissons Ratio (y) = 0.16024 0.43041
# Poissons Ratio (z) = -0.00830 0.39857
#
# Static dielectric constant tensor:
#      x y z
#    x 4.372810 0.000000 0.000000 
#    y 0.000000 4.433330 0.000000 
#    z 0.000000 0.000000 3.793460 
# 
# 
# High freq. dielectric constant tensor:
#      x y z
#    x 1.858110 0.000000 0.000000 
#    y 0.000000 1.846910 0.000000 
#    z 0.000000 0.000000 1.829750 
# 
# From -- ./inp_files/38545.got.cif
#   From: 2010.03.12/outbox.cif.g09.slc.cpg/sg68_20_cif.got.tgz:38545.got - 2010.04.10 23:14:56.
