data_PCOD8282453
_publ_section_title
;
Structure prediction by ZEFSAII (Michael W. Deem and Ramdas Pophale) SiO2 
 PCOD8282453
Probable space group: C C C A
;
_chemical_formula_sum "Si O2"
_cell_formula_units_Z 56
_cell_length_a 5.100588
_cell_length_b 14.235521
_cell_length_c 32.600688
_cell_angle_alpha 90.000000
_cell_angle_beta 90.000000
_cell_angle_gamma 90.000000
_cell_volume 2367.120555
_symmetry_space_group_name_H-M "C C C A"
_symmetry_group_IT_number 68
_space_group.IT_coordinate_system_code '2'
_symmetry_cell_setting 'orthorhombic'
loop_
_space_group_symop_operation_xyz
x,y,z
-x,1/2-y,z
x,1/2-y,1/2-z
-x,y,1/2-z
-x,-y,-z
x,1/2+y,-z
-x,1/2+y,1/2+z
x,-y,1/2+z
1/2+x,1/2+y,z
1/2-x,-y,z
1/2+x,-y,1/2-z
1/2-x,1/2+y,1/2-z
1/2-x,1/2-y,-z
1/2+x,y,-z
1/2-x,y,1/2+z
1/2+x,1/2-y,1/2+z
loop_
_atom_site_type_symbol
_atom_site_label
_atom_site_fract_x
_atom_site_fract_y
_atom_site_fract_z
Si Si1 0.007713 0.360229 0.110354
Si Si2 0.750000 0.000000 0.774875
Si Si3 0.987846 0.639168 0.160530
Si Si4 0.971814 0.896810 0.518258
O O1 0.721381 0.389940 0.125789
O O2 0.068128 0.406495 0.066819
O O3 0.000000 0.250000 0.103749
O O4 0.226891 0.392533 0.143653
O O5 0.500000 0.043584 0.750000
O O6 0.894272 0.083828 0.799379
O O7 0.000000 0.750000 0.170648
O O8 0.234041 0.842109 0.504375
O O9 0.000000 0.000000 0.500000
#
# Coordination Sequence:
#
# PCOD8282453 Si02
#       4
#    16   8  16  16
#     4  10  21  39  62  87 122 170 221 269 320 386
#     4  12  26  44  70 106 138 168 212 270 338 416
#     4  10  23  44  68  95 128 171 217 266 326 394
#     4  10  21  34  51  82 119 158 208 261 320 371
#
# _framework density 23.657432
#
# number of rings (size 3 to 8) (size 9 to 14) (size 15 to 20)
#    0.000    1.714    0.000    3.429    0.000    8.571 
#    0.000    1.429    0.000    0.000    0.000    0.000 
#    0.000    0.000    0.000    0.000    0.000    0.000 
#
# Total GULP energy -346953.685294 kJ/mol
# GULP energy per Si atom -12391.203046 kJ/mol
# Density = 2.360359 g / cm^3
# Si number density = 23.657432 Si / 1000 Ang^3
#
#
#
# Elastic Constant Matrix: (Units=GPa)
#
#
# Indices 1 2 3 4 5 6 
#
# 1 203.0229 25.7560 58.5236 0.0000 0.0000 0.0000
# 2 25.7560 65.1936 46.9421 0.0000 0.0000 0.0000
# 3 58.5236 46.9421 146.0488 0.0000 0.0000 0.0000
# 4 0.0000 0.0000 0.0000 8.0123 0.0000 0.0000
# 5 0.0000 0.0000 0.0000 0.0000 42.4604 0.0000
# 6 0.0000 0.0000 0.0000 0.0000 0.0000 14.2056
#
#
#
# Elastic Compliance Matrix: (Units=1/GPa)
#
#
# Indices 1 2 3 4 5 6 
#
# 1 0.005599 -0.000776 -0.001994 0.000000 0.000000 0.000000
# 2 -0.000776 0.020065 -0.006138 0.000000 0.000000 0.000000
# 3 -0.001994 -0.006138 0.009619 0.000000 0.000000 0.000000
# 4 0.000000 0.000000 0.000000 0.124808 0.000000 0.000000
# 5 0.000000 0.000000 0.000000 0.000000 0.023551 0.000000
# 6 0.000000 0.000000 0.000000 0.000000 0.000000 0.070395
#
#
# Mechanical properties :
#
#
# Convention : Reuss Voigt Hill
#
# Bulk Modulus (GPa) = 57.25324 75.18987 66.22155
# Shear Modulus (GPa) = 18.00662 31.80525 24.90593
#
# Velocity S-wave (km/s) = 2.76187 3.67060 3.24817
# Velocity P-wave (km/s) = 5.86720 7.05805 6.49000
#
# Compressibility (1/GPa) = 0.01746626
#
# Stress axis : x y z
#
# Youngs Moduli (GPa) = 178.60890 49.83712 103.96089
#
# Poissons Ratio (x) = 0.03868 0.20731
# Poissons Ratio (y) = 0.13862 0.63814
# Poissons Ratio (z) = 0.35616 0.30591
#
# Static dielectric constant tensor:
#      x y z
#    x -8.035800 0.000000 0.000000 
#    y 0.000000 4.070850 0.000000 
#    z 0.000000 0.000000 4.170940 
# 
# 
# High freq. dielectric constant tensor:
#      x y z
#    x 1.973410 0.000000 0.000000 
#    y 0.000000 1.925040 0.000000 
#    z 0.000000 0.000000 1.929800 
# 
# From -- ./inp_files/52741.got.cif
#   From: 2010.03.12/outbox.cif.g09.slc.cpg/sg68_27_cif.got.tgz:52741.got - 2010.04.10 23:14:56.
