data_PCOD8282713
_publ_section_title
;
Structure prediction by ZEFSAII (Michael W. Deem and Ramdas Pophale) SiO2 
 PCOD8282713
Probable space group: C C C A
;
_chemical_formula_sum "Si O2"
_cell_formula_units_Z 56
_cell_length_a 11.529328
_cell_length_b 20.993858
_cell_length_c 11.877016
_cell_angle_alpha 90.000000
_cell_angle_beta 90.000000
_cell_angle_gamma 90.000000
_cell_volume 2874.773227
_symmetry_space_group_name_H-M "C C C A"
_symmetry_group_IT_number 68
_space_group.IT_coordinate_system_code '2'
_symmetry_cell_setting 'orthorhombic'
loop_
_space_group_symop_operation_xyz
x,y,z
-x,1/2-y,z
x,1/2-y,1/2-z
-x,y,1/2-z
-x,-y,-z
x,1/2+y,-z
-x,1/2+y,1/2+z
x,-y,1/2+z
1/2+x,1/2+y,z
1/2-x,-y,z
1/2+x,-y,1/2-z
1/2-x,1/2+y,1/2-z
1/2-x,1/2-y,-z
1/2+x,y,-z
1/2-x,y,1/2+z
1/2+x,1/2-y,1/2+z
loop_
_atom_site_type_symbol
_atom_site_label
_atom_site_fract_x
_atom_site_fract_y
_atom_site_fract_z
Si Si1 0.657271 0.380925 0.230108
Si Si2 0.028248 0.676883 0.078337
Si Si3 0.500000 0.493690 0.250000
Si Si4 0.079803 0.385387 0.344115
O O1 0.585988 0.361421 0.118047
O O2 0.630305 0.329447 0.328415
O O3 0.611335 0.449312 0.276344
O O4 0.790719 0.384113 0.203052
O O5 0.000000 0.750000 0.059780
O O6 0.074114 0.648751 0.962347
O O7 0.465935 0.541012 0.354217
O O8 0.000000 0.349732 0.250000
#
# Coordination Sequence:
#
# PCOD8282713 Si02
#       4
#    16  16   8  16
#     4  10  21  41  66  88 124 163 202 254 308 364
#     4  10  23  43  62  88 124 165 207 249 307 358
#     4   8  20  40  60  92 122 156 202 248 310 360
#     4  10  23  38  62  97 120 157 207 250 305 364
#
# _framework density 19.479797000000001
#
# number of rings (size 3 to 8) (size 9 to 14) (size 15 to 20)
#    0.857    1.714    0.000    2.571    4.000    6.286 
#    5.143    5.714    0.000    0.000    0.000    0.000 
#    0.000    0.000    0.000    0.000    0.000    0.000 
#
# Total GULP energy -346912.312594 kJ/mol
# GULP energy per Si atom -12389.725450 kJ/mol
# Density = 1.943546 g / cm^3
# Si number density = 19.479797 Si / 1000 Ang^3
#
#
#
# Elastic Constant Matrix: (Units=GPa)
#
#
# Indices 1 2 3 4 5 6 
#
# 1 177.8818 56.1357 74.4432 0.0000 0.0000 0.0000
# 2 56.1357 127.6789 44.3619 0.0000 0.0000 0.0000
# 3 74.4432 44.3619 108.5133 0.0000 0.0000 0.0000
# 4 0.0000 0.0000 0.0000 12.3644 0.0000 0.0000
# 5 0.0000 0.0000 0.0000 0.0000 21.5668 0.0000
# 6 0.0000 0.0000 0.0000 0.0000 0.0000 4.7223
#
#
#
# Elastic Compliance Matrix: (Units=1/GPa)
#
#
# Indices 1 2 3 4 5 6 
#
# 1 0.008279 -0.001943 -0.004886 0.000000 0.000000 0.000000
# 2 -0.001943 0.009585 -0.002586 0.000000 0.000000 0.000000
# 3 -0.004886 -0.002586 0.013624 0.000000 0.000000 0.000000
# 4 0.000000 0.000000 0.000000 0.080877 0.000000 0.000000
# 5 0.000000 0.000000 0.000000 0.000000 0.046368 0.000000
# 6 0.000000 0.000000 0.000000 0.000000 0.000000 0.211762
#
#
# Mechanical properties :
#
#
# Convention : Reuss Voigt Hill
#
# Bulk Modulus (GPa) = 78.98712 84.88397 81.93554
# Shear Modulus (GPa) = 12.70509 23.67293 18.18901
#
# Velocity S-wave (km/s) = 2.55663 3.48983 3.05903
# Velocity P-wave (km/s) = 7.02505 7.74006 7.39121
#
# Compressibility (1/GPa) = 0.01266029
#
# Stress axis : x y z
#
# Youngs Moduli (GPa) = 120.78120 104.33377 73.39834
#
# Poissons Ratio (x) = 0.20268 0.35861
# Poissons Ratio (y) = 0.23463 0.18978
# Poissons Ratio (z) = 0.59011 0.26977
#
# Static dielectric constant tensor:
#      x y z
#    x 3.493490 0.000000 0.000000 
#    y 0.000000 3.613240 0.000000 
#    z 0.000000 0.000000 3.379780 
# 
# 
# High freq. dielectric constant tensor:
#      x y z
#    x 1.757380 0.000000 0.000000 
#    y 0.000000 1.760580 0.000000 
#    z 0.000000 0.000000 1.743330 
# 
# From -- ./inp_files/11623.got.cif
#   From: 2010.03.12/outbox.cif.g09.slc.cpg/sg68_6_cif.got.tgz:11623.got - 2010.04.10 23:14:56.
