data_PCOD8282282
_publ_section_title
;
Structure prediction by ZEFSAII (Michael W. Deem and Ramdas Pophale) SiO2 
 PCOD8282282
Probable space group: C C C A
;
_chemical_formula_sum "Si O2"
_cell_formula_units_Z 112
_cell_length_a 14.028205
_cell_length_b 12.791555
_cell_length_c 30.028571
_cell_angle_alpha 90.000000
_cell_angle_beta 90.000000
_cell_angle_gamma 90.000000
_cell_volume 5388.403528
_symmetry_space_group_name_H-M "C C C A"
_symmetry_group_IT_number 68
_space_group.IT_coordinate_system_code '2'
_symmetry_cell_setting 'orthorhombic'
loop_
_space_group_symop_operation_xyz
x,y,z
-x,1/2-y,z
x,1/2-y,1/2-z
-x,y,1/2-z
-x,-y,-z
x,1/2+y,-z
-x,1/2+y,1/2+z
x,-y,1/2+z
1/2+x,1/2+y,z
1/2-x,-y,z
1/2+x,-y,1/2-z
1/2-x,1/2+y,1/2-z
1/2-x,1/2-y,-z
1/2+x,y,-z
1/2-x,y,1/2+z
1/2+x,1/2-y,1/2+z
loop_
_atom_site_type_symbol
_atom_site_label
_atom_site_fract_x
_atom_site_fract_y
_atom_site_fract_z
Si Si1 0.184619 0.903634 0.972040
Si Si2 0.318869 0.653781 0.606499
Si Si3 0.703183 0.665545 0.309166
Si Si4 0.523211 0.006277 0.579919
Si Si5 0.311438 0.900368 0.210393
Si Si6 0.999982 0.126306 0.166069
Si Si7 0.909758 0.817999 0.448928
O O1 0.231348 0.855465 0.927903
O O2 0.074969 0.933473 0.960328
O O3 0.250000 0.000000 0.988780
O O4 0.171213 0.820544 0.012306
O O5 0.285310 0.634274 0.656653
O O6 0.396398 0.565047 0.601668
O O7 0.366928 0.765890 0.595986
O O8 0.726166 0.626191 0.259721
O O9 0.701116 0.791423 0.316153
O O10 0.607428 0.600428 0.319648
O O11 0.478160 0.082653 0.616868
O O12 0.436688 0.937399 0.561315
O O13 0.424647 0.922446 0.202150
O O14 0.250000 0.000000 0.192621
O O15 0.000000 0.250000 0.165467
O O16 0.000000 0.750000 0.465626
#
# Coordination Sequence:
#
# PCOD8282282 Si02
#       7
#    16  16  16  16  16  16  16
#     4  10  20  38  58  88 119 161 211 247 296 367
#     4  10  21  38  63  85 118 162 206 242 304 369
#     4  10  21  41  61  89 120 158 201 244 306 370
#     4  10  21  37  61  86 119 160 201 251 300 369
#     4  10  23  38  63  91 124 152 195 257 308 362
#     4  10  21  39  59  89 119 154 201 249 299 367
#     4  10  22  39  57  86 126 163 197 256 309 350
#
# _framework density 20.785375999999999
#
# number of rings (size 3 to 8) (size 9 to 14) (size 15 to 20)
#    0.000    2.000    1.429    1.286    4.000    2.286 
#    5.143    0.000    0.000    0.000    0.000    0.000 
#    0.000    0.000    0.000    0.000    0.000    0.000 
#
# Total GULP energy -693854.533338 kJ/mol
# GULP energy per Si atom -12390.259524 kJ/mol
# Density = 2.073807 g / cm^3
# Si number density = 20.785376 Si / 1000 Ang^3
#
#
#
# Elastic Constant Matrix: (Units=GPa)
#
#
# Indices 1 2 3 4 5 6 
#
# 1 80.4150 23.3781 34.4716 0.0000 0.0000 0.0000
# 2 23.3781 53.6600 7.4381 0.0000 0.0000 0.0000
# 3 34.4716 7.4381 90.5007 0.0000 0.0000 0.0000
# 4 0.0000 0.0000 0.0000 26.2065 0.0000 0.0000
# 5 0.0000 0.0000 0.0000 0.0000 30.4523 0.0000
# 6 0.0000 0.0000 0.0000 0.0000 0.0000 29.1707
#
#
#
# Elastic Compliance Matrix: (Units=1/GPa)
#
#
# Indices 1 2 3 4 5 6 
#
# 1 0.016855 -0.006528 -0.005884 0.000000 0.000000 0.000000
# 2 -0.006528 0.021379 0.000729 0.000000 0.000000 0.000000
# 3 -0.005884 0.000729 0.013231 0.000000 0.000000 0.000000
# 4 0.000000 0.000000 0.000000 0.038159 0.000000 0.000000
# 5 0.000000 0.000000 0.000000 0.000000 0.032838 0.000000
# 6 0.000000 0.000000 0.000000 0.000000 0.000000 0.034281
#
#
# Mechanical properties :
#
#
# Convention : Reuss Voigt Hill
#
# Bulk Modulus (GPa) = 35.58641 39.46125 37.52383
# Shear Modulus (GPa) = 26.38885 27.78508 27.08696
#
# Velocity S-wave (km/s) = 3.56699 3.66014 3.61387
# Velocity P-wave (km/s) = 5.84146 6.07359 5.95865
#
# Compressibility (1/GPa) = 0.02810061
#
# Stress axis : x y z
#
# Youngs Moduli (GPa) = 59.32810 46.77542 75.58132
#
# Poissons Ratio (x) = 0.30534 0.44470
# Poissons Ratio (y) = 0.38728 -0.05513
# Poissons Ratio (z) = 0.34907 -0.03412
#
# Static dielectric constant tensor:
#      x y z
#    x 3.923670 0.000000 0.000000 
#    y 0.000000 3.824670 0.000000 
#    z 0.000000 0.000000 3.565980 
# 
# 
# High freq. dielectric constant tensor:
#      x y z
#    x 1.808860 0.000000 0.000000 
#    y 0.000000 1.810720 0.000000 
#    z 0.000000 0.000000 1.801830 
# 
# From -- ./inp_files/55244.got.cif
#   From: 2010.03.12/outbox.cif.g09.slc.cpg/sg68_28_cif.got.tgz:55244.got - 2010.04.10 23:14:56.
