data_PCOD8282888
_publ_section_title
;
Structure prediction by ZEFSAII (Michael W. Deem and Ramdas Pophale) SiO2 
 PCOD8282888
Probable space group: C C C A
;
_chemical_formula_sum "Si O2"
_cell_formula_units_Z 92
_cell_length_a 8.217687
_cell_length_b 20.877334
_cell_length_c 25.024964
_cell_angle_alpha 90.000000
_cell_angle_beta 90.000000
_cell_angle_gamma 90.000000
_cell_volume 4293.367814
_symmetry_space_group_name_H-M "C C C A"
_symmetry_group_IT_number 68
_space_group.IT_coordinate_system_code '2'
_symmetry_cell_setting 'orthorhombic'
loop_
_space_group_symop_operation_xyz
x,y,z
-x,1/2-y,z
x,1/2-y,1/2-z
-x,y,1/2-z
-x,-y,-z
x,1/2+y,-z
-x,1/2+y,1/2+z
x,-y,1/2+z
1/2+x,1/2+y,z
1/2-x,-y,z
1/2+x,-y,1/2-z
1/2-x,1/2+y,1/2-z
1/2-x,1/2-y,-z
1/2+x,y,-z
1/2-x,y,1/2+z
1/2+x,1/2-y,1/2+z
loop_
_atom_site_type_symbol
_atom_site_label
_atom_site_fract_x
_atom_site_fract_y
_atom_site_fract_z
Si Si1 0.119714 0.045326 0.206127
Si Si2 0.696848 0.675216 0.161631
Si Si3 0.557093 0.007481 0.107900
Si Si4 0.000000 0.250000 0.250000
Si Si5 0.987006 0.123144 0.436743
Si Si6 0.368720 0.634939 0.554471
Si Si7 0.000000 0.250000 0.880081
O O1 0.220987 0.100931 0.176759
O O2 0.000000 0.075691 0.250000
O O3 0.250000 0.000000 0.235365
O O4 0.017568 0.999031 0.166689
O O5 0.607036 0.706838 0.211251
O O6 0.589673 0.671867 0.107167
O O7 0.866350 0.713091 0.155650
O O8 0.526401 0.076722 0.080581
O O9 0.750000 0.000000 0.110629
O O10 0.462780 0.952708 0.074000
O O11 0.903373 0.140363 0.492033
O O12 0.178638 0.131261 0.436425
O O13 0.415572 0.700133 0.581830
#
# Coordination Sequence:
#
# PCOD8282888 Si02
#       7
#    16  16  16   4  16  16   8
#     4  11  22  41  65  95 127 166 217 273 330 385
#     4  11  25  45  65  94 126 176 219 274 326 395
#     4   9  20  39  64  94 130 170 216 272 331 388
#     4  12  24  48  72  84 132 172 224 262 342 390
#     4  10  22  40  67  93 132 171 223 275 334 383
#     4  11  22  39  63  99 133 177 214 270 326 398
#     4  12  26  42  64  94 134 166 226 264 322 402
#
# _framework density 21.428398999999999
#
# number of rings (size 3 to 8) (size 9 to 14) (size 15 to 20)
#    0.000    1.391    0.870    4.174    0.000    5.217 
#    6.261    0.870    0.000    0.000    0.000    0.000 
#    0.000    0.000    0.000    0.000    0.000    0.000 
#
# Total GULP energy -570128.916685 kJ/mol
# GULP energy per Si atom -12394.106884 kJ/mol
# Density = 2.137963 g / cm^3
# Si number density = 21.428399 Si / 1000 Ang^3
#
#
#
# Elastic Constant Matrix: (Units=GPa)
#
#
# Indices 1 2 3 4 5 6 
#
# 1 89.4371 46.5504 49.6693 0.0000 0.0000 0.0000
# 2 46.5504 108.8689 54.8926 0.0000 0.0000 0.0000
# 3 49.6693 54.8926 133.7991 0.0000 0.0000 0.0000
# 4 0.0000 0.0000 0.0000 24.8620 0.0000 0.0000
# 5 0.0000 0.0000 0.0000 0.0000 35.1145 0.0000
# 6 0.0000 0.0000 0.0000 0.0000 0.0000 22.5058
#
#
#
# Elastic Compliance Matrix: (Units=1/GPa)
#
#
# Indices 1 2 3 4 5 6 
#
# 1 0.015857 -0.004806 -0.003914 0.000000 0.000000 0.000000
# 2 -0.004806 0.013038 -0.003565 0.000000 0.000000 0.000000
# 3 -0.003914 -0.003565 0.010390 0.000000 0.000000 0.000000
# 4 0.000000 0.000000 0.000000 0.040222 0.000000 0.000000
# 5 0.000000 0.000000 0.000000 0.000000 0.028478 0.000000
# 6 0.000000 0.000000 0.000000 0.000000 0.000000 0.044433
#
#
# Mechanical properties :
#
#
# Convention : Reuss Voigt Hill
#
# Bulk Modulus (GPa) = 67.96745 70.48106 69.22426
# Shear Modulus (GPa) = 27.48879 28.56264 28.02572
#
# Velocity S-wave (km/s) = 3.58553 3.65490 3.62038
# Velocity P-wave (km/s) = 6.99490 7.12558 7.06054
#
# Compressibility (1/GPa) = 0.01471292
#
# Stress axis : x y z
#
# Youngs Moduli (GPa) = 63.06551 76.70020 96.25101
#
# Poissons Ratio (x) = 0.36864 0.37677
# Poissons Ratio (y) = 0.30311 0.34311
# Poissons Ratio (z) = 0.24687 0.27341
#
# Static dielectric constant tensor:
#      x y z
#    x 3.905510 0.000000 0.000000 
#    y 0.000000 4.119240 0.000000 
#    z 0.000000 0.000000 3.794060 
# 
# 
# High freq. dielectric constant tensor:
#      x y z
#    x 1.843970 0.000000 0.000000 
#    y 0.000000 1.852960 0.000000 
#    z 0.000000 0.000000 1.842970 
# 
# From -- ./inp_files/43168.got.cif
#   From: 2010.03.12/outbox.cif.g09.slc.cpg/sg68_22_cif.got.tgz:43168.got - 2010.04.10 23:14:56.
