data_PCOD8282375
_publ_section_title
;
Structure prediction by ZEFSAII (Michael W. Deem and Ramdas Pophale) SiO2 
 PCOD8282375
Probable space group: C C C A
;
_chemical_formula_sum "Si O2"
_cell_formula_units_Z 52
_cell_length_a 8.141402
_cell_length_b 22.007386
_cell_length_c 14.763022
_cell_angle_alpha 90.000000
_cell_angle_beta 90.000000
_cell_angle_gamma 90.000000
_cell_volume 2645.105066
_symmetry_space_group_name_H-M "C C C A"
_symmetry_group_IT_number 68
_space_group.IT_coordinate_system_code '2'
_symmetry_cell_setting 'orthorhombic'
loop_
_space_group_symop_operation_xyz
x,y,z
-x,1/2-y,z
x,1/2-y,1/2-z
-x,y,1/2-z
-x,-y,-z
x,1/2+y,-z
-x,1/2+y,1/2+z
x,-y,1/2+z
1/2+x,1/2+y,z
1/2-x,-y,z
1/2+x,-y,1/2-z
1/2-x,1/2+y,1/2-z
1/2-x,1/2-y,-z
1/2+x,y,-z
1/2-x,y,1/2+z
1/2+x,1/2-y,1/2+z
loop_
_atom_site_type_symbol
_atom_site_label
_atom_site_fract_x
_atom_site_fract_y
_atom_site_fract_z
Si Si1 0.801518 0.066070 0.370135
Si Si2 0.334292 0.633443 0.711926
Si Si3 0.668679 0.435065 0.942547
Si Si4 0.000000 0.750000 0.250000
O O1 0.798477 0.116650 0.290494
O O2 0.678100 0.084523 0.451978
O O3 0.982275 0.063041 0.411558
O O4 0.750000 0.000000 0.330408
O O5 0.500000 0.600227 0.750000
O O6 0.273898 0.612203 0.615197
O O7 0.374831 0.705255 0.696109
O O8 0.750000 0.500000 0.928927
#
# Coordination Sequence:
#
# PCOD8282375 Si02
#       4
#    16  16  16   4
#     4  11  21  35  59  93 123 151 186 237 296 352
#     4  10  20  40  60  80 115 156 198 235 290 331
#     4  11  21  35  59  93 123 151 186 237 296 352
#     4   8  24  40  66  72 116 158 202 246 280 328
#
# _framework density 19.658954000000001
#
# number of rings (size 3 to 8) (size 9 to 14) (size 15 to 20)
#    0.923    0.615    0.000    9.231    0.000    0.000 
#    0.000    4.615    0.000    0.000    0.000    0.000 
#    0.000    0.000    0.000    0.000    0.000    0.000 
#
# Total GULP energy -322104.020680 kJ/mol
# GULP energy per Si atom -12388.616180 kJ/mol
# Density = 1.961421 g / cm^3
# Si number density = 19.658954 Si / 1000 Ang^3
#
#
#
# Elastic Constant Matrix: (Units=GPa)
#
#
# Indices 1 2 3 4 5 6 
#
# 1 61.8496 10.9186 -4.1656 0.0000 0.0000 0.0000
# 2 10.9186 109.9584 47.8912 0.0000 0.0000 0.0000
# 3 -4.1656 47.8912 83.5582 0.0000 0.0000 0.0000
# 4 0.0000 0.0000 0.0000 11.2905 0.0000 0.0000
# 5 0.0000 0.0000 0.0000 0.0000 30.8418 0.0000
# 6 0.0000 0.0000 0.0000 0.0000 0.0000 34.7199
#
#
#
# Elastic Compliance Matrix: (Units=1/GPa)
#
#
# Indices 1 2 3 4 5 6 
#
# 1 0.016808 -0.002711 0.002391 0.000000 0.000000 0.000000
# 2 -0.002711 0.012557 -0.007332 0.000000 0.000000 0.000000
# 3 0.002391 -0.007332 0.016289 0.000000 0.000000 0.000000
# 4 0.000000 0.000000 0.000000 0.088570 0.000000 0.000000
# 5 0.000000 0.000000 0.000000 0.000000 0.032424 0.000000
# 6 0.000000 0.000000 0.000000 0.000000 0.000000 0.028802
#
#
# Mechanical properties :
#
#
# Convention : Reuss Voigt Hill
#
# Bulk Modulus (GPa) = 32.94709 40.51716 36.73213
# Shear Modulus (GPa) = 22.63787 28.75191 25.69489
#
# Velocity S-wave (km/s) = 3.39710 3.82846 3.61921
# Velocity P-wave (km/s) = 5.67299 6.34016 6.01583
#
# Compressibility (1/GPa) = 0.03035169
#
# Stress axis : x y z
#
# Youngs Moduli (GPa) = 59.49604 79.63738 61.38993
#
# Poissons Ratio (x) = 0.21586 -0.14681
# Poissons Ratio (y) = 0.16127 0.45012
# Poissons Ratio (z) = -0.14228 0.58391
#
# Static dielectric constant tensor:
#      x y z
#    x 3.733760 0.000000 0.000000 
#    y 0.000000 3.280190 0.000000 
#    z 0.000000 0.000000 3.758220 
# 
# 
# High freq. dielectric constant tensor:
#      x y z
#    x 1.782300 0.000000 0.000000 
#    y 0.000000 1.726310 0.000000 
#    z 0.000000 0.000000 1.765240 
# 
# From -- ./inp_files/4669.got.cif
#   From: 2010.03.12/outbox.cif.g09.slc.cpg/sg68_3_cif.got.tgz:4669.got - 2010.04.10 23:14:56.
