data_PCOD8282876
_publ_section_title
;
Structure prediction by ZEFSAII (Michael W. Deem and Ramdas Pophale) SiO2 
 PCOD8282876
Probable space group: C C C A
;
_chemical_formula_sum "Si O2"
_cell_formula_units_Z 96
_cell_length_a 8.253676
_cell_length_b 25.047908
_cell_length_c 21.765665
_cell_angle_alpha 90.000000
_cell_angle_beta 90.000000
_cell_angle_gamma 90.000000
_cell_volume 4499.775187
_symmetry_space_group_name_H-M "C C C A"
_symmetry_group_IT_number 68
_space_group.IT_coordinate_system_code '2'
_symmetry_cell_setting 'orthorhombic'
loop_
_space_group_symop_operation_xyz
x,y,z
-x,1/2-y,z
x,1/2-y,1/2-z
-x,y,1/2-z
-x,-y,-z
x,1/2+y,-z
-x,1/2+y,1/2+z
x,-y,1/2+z
1/2+x,1/2+y,z
1/2-x,-y,z
1/2+x,-y,1/2-z
1/2-x,1/2+y,1/2-z
1/2-x,1/2-y,-z
1/2+x,y,-z
1/2-x,y,1/2+z
1/2+x,1/2-y,1/2+z
loop_
_atom_site_type_symbol
_atom_site_label
_atom_site_fract_x
_atom_site_fract_y
_atom_site_fract_z
Si Si1 0.668056 0.224752 0.623689
Si Si2 0.161897 0.326211 0.923300
Si Si3 0.503590 0.639124 0.457444
Si Si4 0.586686 0.531557 0.814350
Si Si5 0.570719 0.654386 0.815585
Si Si6 0.930615 0.481083 0.435998
O O1 0.500000 0.250000 0.652281
O O2 0.773891 0.265364 0.581832
O O3 0.615633 0.179678 0.577709
O O4 0.783657 0.196901 0.673988
O O5 0.315712 0.362832 0.939041
O O6 0.085453 0.339549 0.858343
O O7 0.021783 0.341109 0.972172
O O8 0.570294 0.582214 0.437879
O O9 0.500000 0.521232 0.750000
O O10 0.750000 0.500000 0.808727
O O11 0.631414 0.593775 0.822322
O O12 0.487037 0.507664 0.874285
O O13 0.500000 0.668197 0.750000
O O14 0.750000 0.500000 0.432243
O O15 0.000000 0.500000 0.500000
#
# Coordination Sequence:
#
# PCOD8282876 Si02
#       6
#    16  16  16  16  16  16
#     4  10  22  40  64  91 123 167 215 265 318 378
#     4  11  23  39  63  92 125 167 211 262 323 386
#     4  11  22  39  62  94 129 163 213 269 326 384
#     4  10  23  42  66  93 125 166 211 259 316 380
#     4  11  24  44  65  91 129 170 212 261 318 379
#     4  11  22  37  60  90 126 165 209 264 321 381
#
# _framework density 21.334399000000001
#
# number of rings (size 3 to 8) (size 9 to 14) (size 15 to 20)
#    0.000    1.333    0.000    6.000    0.000    7.333 
#    0.000    5.833    0.000    0.000    0.000    0.000 
#    0.000    0.000    0.000    0.000    0.000    0.000 
#
# Total GULP energy -594768.719068 kJ/mol
# GULP energy per Si atom -12391.014981 kJ/mol
# Density = 2.128584 g / cm^3
# Si number density = 21.334399 Si / 1000 Ang^3
#
#
#
# Elastic Constant Matrix: (Units=GPa)
#
#
# Indices 1 2 3 4 5 6 
#
# 1 121.6021 60.8425 68.5342 0.0000 0.0000 0.0000
# 2 60.8425 147.7109 68.1765 0.0000 0.0000 0.0000
# 3 68.5342 68.1765 178.9417 0.0000 0.0000 0.0000
# 4 0.0000 0.0000 0.0000 32.4863 0.0000 0.0000
# 5 0.0000 0.0000 0.0000 0.0000 24.4984 0.0000
# 6 0.0000 0.0000 0.0000 0.0000 0.0000 32.1264
#
#
#
# Elastic Compliance Matrix: (Units=1/GPa)
#
#
# Indices 1 2 3 4 5 6 
#
# 1 0.011703 -0.003339 -0.003210 0.000000 0.000000 0.000000
# 2 -0.003339 0.009167 -0.002214 0.000000 0.000000 0.000000
# 3 -0.003210 -0.002214 0.007661 0.000000 0.000000 0.000000
# 4 0.000000 0.000000 0.000000 0.030782 0.000000 0.000000
# 5 0.000000 0.000000 0.000000 0.000000 0.040819 0.000000
# 6 0.000000 0.000000 0.000000 0.000000 0.000000 0.031127
#
#
# Mechanical properties :
#
#
# Convention : Reuss Voigt Hill
#
# Bulk Modulus (GPa) = 90.86084 93.70678 92.28381
# Shear Modulus (GPa) = 32.79657 34.53564 33.66610
#
# Velocity S-wave (km/s) = 3.92505 4.02777 3.97674
# Velocity P-wave (km/s) = 7.95127 8.10239 8.02719
#
# Compressibility (1/GPa) = 0.01100584
#
# Stress axis : x y z
#
# Youngs Moduli (GPa) = 85.44491 109.08550 130.52450
#
# Poissons Ratio (x) = 0.36423 0.41902
# Poissons Ratio (y) = 0.28530 0.28896
# Poissons Ratio (z) = 0.27430 0.24150
#
# Static dielectric constant tensor:
#      x y z
#    x 3.982130 0.000000 0.000000 
#    y 0.000000 5.667410 0.000000 
#    z 0.000000 0.000000 3.750090 
# 
# 
# High freq. dielectric constant tensor:
#      x y z
#    x 1.837000 0.000000 0.000000 
#    y 0.000000 1.855740 0.000000 
#    z 0.000000 0.000000 1.842390 
# 
# From -- ./inp_files/36498.got.cif
#   From: 2010.03.12/outbox.cif.g09.slc.cpg/sg68_19_cif.got.tgz:36498.got - 2010.04.10 23:14:56.
