data_PCOD8282452
_publ_section_title
;
Structure prediction by ZEFSAII (Michael W. Deem and Ramdas Pophale) SiO2 
 PCOD8282452
Probable space group: C C C A
;
_chemical_formula_sum "Si O2"
_cell_formula_units_Z 60
_cell_length_a 12.535036
_cell_length_b 21.260684
_cell_length_c 12.543547
_cell_angle_alpha 90.000000
_cell_angle_beta 90.000000
_cell_angle_gamma 90.000000
_cell_volume 3342.898417
_symmetry_space_group_name_H-M "C C C A"
_symmetry_group_IT_number 68
_space_group.IT_coordinate_system_code '2'
_symmetry_cell_setting 'orthorhombic'
loop_
_space_group_symop_operation_xyz
x,y,z
-x,1/2-y,z
x,1/2-y,1/2-z
-x,y,1/2-z
-x,-y,-z
x,1/2+y,-z
-x,1/2+y,1/2+z
x,-y,1/2+z
1/2+x,1/2+y,z
1/2-x,-y,z
1/2+x,-y,1/2-z
1/2-x,1/2+y,1/2-z
1/2-x,1/2-y,-z
1/2+x,y,-z
1/2-x,y,1/2+z
1/2+x,1/2-y,1/2+z
loop_
_atom_site_type_symbol
_atom_site_label
_atom_site_fract_x
_atom_site_fract_y
_atom_site_fract_z
Si Si1 0.000000 0.541126 0.250000
Si Si2 0.621257 0.362835 0.668895
Si Si3 0.000000 0.750000 0.750000
Si Si4 0.079377 0.431247 0.120088
Si Si5 0.687890 0.434429 0.104667
O O1 0.932726 0.501236 0.335305
O O2 0.911671 0.579830 0.183470
O O3 0.577864 0.291376 0.673894
O O4 0.632019 0.386900 0.790660
O O5 0.539453 0.404601 0.598476
O O6 0.736104 0.373131 0.615512
O O7 0.150415 0.434908 0.016305
O O8 0.750000 0.500000 0.132460
#
# Coordination Sequence:
#
# PCOD8282452 Si02
#       5
#     8  16   4  16  16
#     4  10  21  34  44  82 122 147 174 214 266 364
#     4   9  20  38  55  79 102 152 189 231 277 319
#     4   8  18  44  64  66 112 144 208 230 256 342
#     4   9  19  33  48  79 113 142 181 215 270 348
#     4  12  21  30  56  82 119 146 177 228 289 333
#
# _framework density 17.948495999999999
#
# number of rings (size 3 to 8) (size 9 to 14) (size 15 to 20)
#    0.000    2.667    5.333    0.800    3.733    0.000 
#    0.000    5.333    0.000    0.800    0.000    0.000 
#    0.000    0.000    0.000    0.000    0.000    0.000 
#
# Total GULP energy -371680.133875 kJ/mol
# GULP energy per Si atom -12389.337796 kJ/mol
# Density = 1.790764 g / cm^3
# Si number density = 17.948496 Si / 1000 Ang^3
#
#
#
# Elastic Constant Matrix: (Units=GPa)
#
#
# Indices 1 2 3 4 5 6 
#
# 1 105.9210 33.5364 74.1464 0.0000 0.0000 0.0000
# 2 33.5364 65.4884 24.2176 0.0000 0.0000 0.0000
# 3 74.1464 24.2176 73.8137 0.0000 0.0000 0.0000
# 4 0.0000 0.0000 0.0000 7.1940 0.0000 0.0000
# 5 0.0000 0.0000 0.0000 0.0000 42.3431 0.0000
# 6 0.0000 0.0000 0.0000 0.0000 0.0000 23.0445
#
#
#
# Elastic Compliance Matrix: (Units=1/GPa)
#
#
# Indices 1 2 3 4 5 6 
#
# 1 0.033371 -0.005341 -0.031769 0.000000 0.000000 0.000000
# 2 -0.005341 0.018233 -0.000617 0.000000 0.000000 0.000000
# 3 -0.031769 -0.000617 0.045662 0.000000 0.000000 0.000000
# 4 0.000000 0.000000 0.000000 0.139005 0.000000 0.000000
# 5 0.000000 0.000000 0.000000 0.000000 0.023617 0.000000
# 6 0.000000 0.000000 0.000000 0.000000 0.000000 0.043394
#
#
# Mechanical properties :
#
#
# Convention : Reuss Voigt Hill
#
# Bulk Modulus (GPa) = 45.84581 56.55820 51.20201
# Shear Modulus (GPa) = 12.95313 22.07116 17.51215
#
# Velocity S-wave (km/s) = 2.68933 3.51050 3.12699
# Velocity P-wave (km/s) = 5.93648 6.92902 6.45186
#
# Compressibility (1/GPa) = 0.02181225
#
# Stress axis : x y z
#
# Youngs Moduli (GPa) = 29.96635 54.84511 21.89996
#
# Poissons Ratio (x) = 0.29293 0.69574
# Poissons Ratio (y) = 0.16005 0.01351
# Poissons Ratio (z) = 0.95200 0.03385
#
# Static dielectric constant tensor:
#      x y z
#    x 3.492210 0.000000 0.000000 
#    y 0.000000 3.061870 0.000000 
#    z 0.000000 0.000000 3.148080 
# 
# 
# High freq. dielectric constant tensor:
#      x y z
#    x 1.702550 0.000000 0.000000 
#    y 0.000000 1.646160 0.000000 
#    z 0.000000 0.000000 1.684490 
# 
# From -- ./inp_files/11560.got.cif
#   From: 2010.03.12/outbox.cif.g09.slc.cpg/sg68_6_cif.got.tgz:11560.got - 2010.04.10 23:14:56.
