data_PCOD8282189
_publ_section_title
;
Structure prediction by ZEFSAII (Michael W. Deem and Ramdas Pophale) SiO2 
 PCOD8282189
Probable space group: C C C A
;
_chemical_formula_sum "Si O2"
_cell_formula_units_Z 48
_cell_length_a 15.324346
_cell_length_b 8.680663
_cell_length_c 19.003959
_cell_angle_alpha 90.000000
_cell_angle_beta 90.000000
_cell_angle_gamma 90.000000
_cell_volume 2528.010831
_symmetry_space_group_name_H-M "C C C A"
_symmetry_group_IT_number 68
_space_group.IT_coordinate_system_code '2'
_symmetry_cell_setting 'orthorhombic'
loop_
_space_group_symop_operation_xyz
x,y,z
-x,1/2-y,z
x,1/2-y,1/2-z
-x,y,1/2-z
-x,-y,-z
x,1/2+y,-z
-x,1/2+y,1/2+z
x,-y,1/2+z
1/2+x,1/2+y,z
1/2-x,-y,z
1/2+x,-y,1/2-z
1/2-x,1/2+y,1/2-z
1/2-x,1/2-y,-z
1/2+x,y,-z
1/2-x,y,1/2+z
1/2+x,1/2-y,1/2+z
loop_
_atom_site_type_symbol
_atom_site_label
_atom_site_fract_x
_atom_site_fract_y
_atom_site_fract_z
Si Si1 0.845633 0.433688 0.827490
Si Si2 0.917912 0.131969 0.820172
Si Si3 0.510570 0.568935 0.423403
O O1 0.750000 0.500000 0.821249
O O2 0.839174 0.248435 0.842564
O O3 0.897544 0.453994 0.753396
O O4 0.896677 0.523650 0.889152
O O5 0.000000 0.250000 0.815894
O O6 0.931540 0.000271 0.877384
O O7 0.500000 0.750000 0.426846
O O8 0.500000 0.500000 0.500000
#
# Coordination Sequence:
#
# PCOD8282189 Si02
#       3
#    16  16  16
#     4  10  20  36  58  86 114 143 182 233 279 322
#     4   9  19  38  59  79 114 153 184 224 278 338
#     4  11  22  38  59  80 109 151 191 225 276 344
#
# _framework density 18.987261
#
# number of rings (size 3 to 8) (size 9 to 14) (size 15 to 20)
#    0.000    2.000    0.000   10.000    0.000    8.000 
#    0.000    8.333    0.000    0.000    0.000    0.000 
#    0.000    0.000    0.000    0.000    0.000    0.000 
#
# Total GULP energy -297313.309214 kJ/mol
# GULP energy per Si atom -12388.054551 kJ/mol
# Density = 1.894405 g / cm^3
# Si number density = 18.987261 Si / 1000 Ang^3
#
#
#
# Elastic Constant Matrix: (Units=GPa)
#
#
# Indices 1 2 3 4 5 6 
#
# 1 98.5806 49.8439 57.3832 0.0000 0.0000 0.0000
# 2 49.8439 157.4329 91.4536 0.0000 0.0000 0.0000
# 3 57.3832 91.4536 166.6426 0.0000 0.0000 0.0000
# 4 0.0000 0.0000 0.0000 37.5075 0.0000 0.0000
# 5 0.0000 0.0000 0.0000 0.0000 7.8308 0.0000
# 6 0.0000 0.0000 0.0000 0.0000 0.0000 37.5156
#
#
#
# Elastic Compliance Matrix: (Units=1/GPa)
#
#
# Indices 1 2 3 4 5 6 
#
# 1 0.013213 -0.002261 -0.003309 0.000000 0.000000 0.000000
# 2 -0.002261 0.009712 -0.004551 0.000000 0.000000 0.000000
# 3 -0.003309 -0.004551 0.009638 0.000000 0.000000 0.000000
# 4 0.000000 0.000000 0.000000 0.026661 0.000000 0.000000
# 5 0.000000 0.000000 0.000000 0.000000 0.127701 0.000000
# 6 0.000000 0.000000 0.000000 0.000000 0.000000 0.026656
#
#
# Mechanical properties :
#
#
# Convention : Reuss Voigt Hill
#
# Bulk Modulus (GPa) = 81.16681 91.11306 86.13993
# Shear Modulus (GPa) = 21.01454 31.50247 26.25851
#
# Velocity S-wave (km/s) = 3.33043 4.07767 3.72284
# Velocity P-wave (km/s) = 7.59143 8.38215 7.99657
#
# Compressibility (1/GPa) = 0.01232031
#
# Stress axis : x y z
#
# Youngs Moduli (GPa) = 75.68024 102.97014 103.75601
#
# Poissons Ratio (x) = 0.23283 0.34334
# Poissons Ratio (y) = 0.17113 0.47220
# Poissons Ratio (z) = 0.25044 0.46863
#
# Static dielectric constant tensor:
#      x y z
#    x 3.693350 0.000000 0.000000 
#    y 0.000000 4.183810 0.000000 
#    z 0.000000 0.000000 3.563300 
# 
# 
# High freq. dielectric constant tensor:
#      x y z
#    x 1.715370 0.000000 0.000000 
#    y 0.000000 1.744560 0.000000 
#    z 0.000000 0.000000 1.742180 
# 
# From -- ./inp_files/27393.got.cif
#   From: 2010.03.12/outbox.cif.g09.slc.cpg/sg68_14_cif.got.tgz:27393.got - 2010.04.10 23:14:56.
