data_PCOD8282908
_publ_section_title
;
Structure prediction by ZEFSAII (Michael W. Deem and Ramdas Pophale) SiO2 
 PCOD8282908
Probable space group: C C C A
;
_chemical_formula_sum "Si O2"
_cell_formula_units_Z 48
_cell_length_a 27.960167
_cell_length_b 15.084738
_cell_length_c 4.918676
_cell_angle_alpha 90.000000
_cell_angle_beta 90.000000
_cell_angle_gamma 90.000000
_cell_volume 2074.558799
_symmetry_space_group_name_H-M "C C C A"
_symmetry_group_IT_number 68
_space_group.IT_coordinate_system_code '2'
_symmetry_cell_setting 'orthorhombic'
loop_
_space_group_symop_operation_xyz
x,y,z
-x,1/2-y,z
x,1/2-y,1/2-z
-x,y,1/2-z
-x,-y,-z
x,1/2+y,-z
-x,1/2+y,1/2+z
x,-y,1/2+z
1/2+x,1/2+y,z
1/2-x,-y,z
1/2+x,-y,1/2-z
1/2-x,1/2+y,1/2-z
1/2-x,1/2-y,-z
1/2+x,y,-z
1/2-x,y,1/2+z
1/2+x,1/2-y,1/2+z
loop_
_atom_site_type_symbol
_atom_site_label
_atom_site_fract_x
_atom_site_fract_y
_atom_site_fract_z
Si Si1 0.627864 0.191361 0.504028
Si Si2 0.055466 0.443620 0.247313
Si Si3 0.276875 0.355194 0.288776
O O1 0.650604 0.250000 0.750000
O O2 0.584104 0.141101 0.644506
O O3 0.669157 0.124422 0.392262
O O4 0.608788 0.250000 0.250000
O O5 0.068313 0.472645 0.553416
O O6 0.000000 0.417439 0.250000
O O7 0.273548 0.250000 0.250000
O O8 0.237624 0.395895 0.498381
#
# Coordination Sequence:
#
# PCOD8282908 Si02
#       3
#    16  16  16
#     4  11  21  34  58  89 113 140 188 242 280 319
#     4  10  22  41  60  78 109 153 189 222 282 353
#     4   9  16  28  48  77 112 145 177 219 274 333
#
# _framework density 23.137452
#
# number of rings (size 3 to 8) (size 9 to 14) (size 15 to 20)
#    0.000    2.000    0.000    7.000    0.000    0.667 
#    0.000    1.667    0.000    6.000    0.000    0.000 
#    0.000    0.000    0.000    0.000    0.000    0.000 
#
# Total GULP energy -297377.148537 kJ/mol
# GULP energy per Si atom -12390.714522 kJ/mol
# Density = 2.308479 g / cm^3
# Si number density = 23.137452 Si / 1000 Ang^3
#
#
#
# Elastic Constant Matrix: (Units=GPa)
#
#
# Indices 1 2 3 4 5 6 
#
# 1 122.9988 31.3811 38.4837 0.0000 0.0000 0.0000
# 2 31.3811 25.6712 3.6904 0.0000 0.0000 0.0000
# 3 38.4837 3.6904 112.7537 0.0000 0.0000 0.0000
# 4 0.0000 0.0000 0.0000 30.9909 0.0000 0.0000
# 5 0.0000 0.0000 0.0000 0.0000 45.3739 0.0000
# 6 0.0000 0.0000 0.0000 0.0000 0.0000 9.2786
#
#
#
# Elastic Compliance Matrix: (Units=1/GPa)
#
#
# Indices 1 2 3 4 5 6 
#
# 1 0.013449 -0.015855 -0.004071 0.000000 0.000000 0.000000
# 2 -0.015855 0.057830 0.003519 0.000000 0.000000 0.000000
# 3 -0.004071 0.003519 0.010143 0.000000 0.000000 0.000000
# 4 0.000000 0.000000 0.000000 0.032268 0.000000 0.000000
# 5 0.000000 0.000000 0.000000 0.000000 0.022039 0.000000
# 6 0.000000 0.000000 0.000000 0.000000 0.000000 0.107775
#
#
# Mechanical properties :
#
#
# Convention : Reuss Voigt Hill
#
# Bulk Modulus (GPa) = 20.57325 45.39268 32.98296
# Shear Modulus (GPa) = 17.09267 29.65323 23.37295
#
# Velocity S-wave (km/s) = 2.72093 3.58384 3.18178
# Velocity P-wave (km/s) = 4.33386 6.06519 5.27110
#
# Compressibility (1/GPa) = 0.04860682
#
# Stress axis : x y z
#
# Youngs Moduli (GPa) = 74.35363 17.29199 98.58714
#
# Poissons Ratio (x) = 0.27417 0.40139
# Poissons Ratio (y) = 1.17890 -0.34690
# Poissons Ratio (z) = 0.30272 -0.06085
#
# Static dielectric constant tensor:
#      x y z
#    x 4.148790 0.000000 0.000000 
#    y 0.000000 3.416920 0.000000 
#    z 0.000000 0.000000 4.894090 
# 
# 
# High freq. dielectric constant tensor:
#      x y z
#    x 1.911150 0.000000 0.000000 
#    y 0.000000 1.849100 0.000000 
#    z 0.000000 0.000000 1.950810 
# 
# From -- ./inp_files/645.got.cif
#   From: 2010.03.12/outbox.cif.g09.slc.cpg/sg68_1_cif.got.tgz:645.got - 2010.04.10 23:14:56.
