data_PCOD8282098
_publ_section_title
;
Structure prediction by ZEFSAII (Michael W. Deem and Ramdas Pophale) SiO2 
 PCOD8282098
Probable space group: C C C A
;
_chemical_formula_sum "Si O2"
_cell_formula_units_Z 112
_cell_length_a 20.010669
_cell_length_b 22.817726
_cell_length_c 12.010504
_cell_angle_alpha 90.000000
_cell_angle_beta 90.000000
_cell_angle_gamma 90.000000
_cell_volume 5483.971653
_symmetry_space_group_name_H-M "C C C A"
_symmetry_group_IT_number 68
_space_group.IT_coordinate_system_code '2'
_symmetry_cell_setting 'orthorhombic'
loop_
_space_group_symop_operation_xyz
x,y,z
-x,1/2-y,z
x,1/2-y,1/2-z
-x,y,1/2-z
-x,-y,-z
x,1/2+y,-z
-x,1/2+y,1/2+z
x,-y,1/2+z
1/2+x,1/2+y,z
1/2-x,-y,z
1/2+x,-y,1/2-z
1/2-x,1/2+y,1/2-z
1/2-x,1/2-y,-z
1/2+x,y,-z
1/2-x,y,1/2+z
1/2+x,1/2-y,1/2+z
loop_
_atom_site_type_symbol
_atom_site_label
_atom_site_fract_x
_atom_site_fract_y
_atom_site_fract_z
Si Si1 0.329182 0.490263 0.850130
Si Si2 0.926083 0.585798 0.241772
Si Si3 0.298790 0.395427 0.689131
Si Si4 0.283709 0.816029 0.105692
Si Si5 0.658740 0.202655 0.540861
Si Si6 0.931212 0.715506 0.152280
Si Si7 0.167492 0.588201 0.055188
O O1 0.250000 0.500000 0.846212
O O2 0.374458 0.547304 0.831841
O O3 0.343921 0.445063 0.748349
O O4 0.346647 0.465706 0.971948
O O5 0.937019 0.647396 0.181833
O O6 0.895929 0.594121 0.364736
O O7 0.000000 0.556016 0.250000
O O8 0.270484 0.350845 0.781340
O O9 0.346688 0.358869 0.606319
O O10 0.235632 0.423352 0.624769
O O11 0.322562 0.754925 0.126229
O O12 0.211435 0.802263 0.058692
O O13 0.326236 0.852694 0.015794
O O14 0.592492 0.219528 0.475007
O O15 0.888543 0.750000 0.250000
O O16 0.000000 0.750000 0.149088
#
# Coordination Sequence:
#
# PCOD8282098 Si02
#       7
#    16  16  16  16  16  16  16
#     4  11  25  41  67  99 138 182 231 284 344 404
#     4  12  25  43  69  97 130 181 230 285 339 413
#     4  10  20  39  61  98 134 173 217 275 338 408
#     4   9  19  34  58  99 131 167 209 277 338 403
#     4  10  20  33  64  94 129 171 214 275 340 395
#     4  11  23  43  65  95 130 173 226 278 338 412
#     4  10  22  38  64  95 138 171 227 277 343 397
#
# _framework density 20.423155000000001
#
# number of rings (size 3 to 8) (size 9 to 14) (size 15 to 20)
#    0.000    1.571    2.857    2.143    6.000    2.857 
#    0.000    0.000    0.000    0.857    0.000    0.000 
#    0.000    0.000    0.000    0.000    0.000    0.000 
#
# Total GULP energy -694121.632910 kJ/mol
# GULP energy per Si atom -12395.029159 kJ/mol
# Density = 2.037667 g / cm^3
# Si number density = 20.423155 Si / 1000 Ang^3
#
#
#
# Elastic Constant Matrix: (Units=GPa)
#
#
# Indices 1 2 3 4 5 6 
#
# 1 87.3564 47.9321 36.9775 0.0000 0.0000 0.0000
# 2 47.9321 118.8430 40.4607 0.0000 0.0000 0.0000
# 3 36.9775 40.4607 102.6819 0.0000 0.0000 0.0000
# 4 0.0000 0.0000 0.0000 27.7982 0.0000 0.0000
# 5 0.0000 0.0000 0.0000 0.0000 18.8203 0.0000
# 6 0.0000 0.0000 0.0000 0.0000 0.0000 31.4276
#
#
#
# Elastic Compliance Matrix: (Units=1/GPa)
#
#
# Indices 1 2 3 4 5 6 
#
# 1 0.015817 -0.005128 -0.003675 0.000000 0.000000 0.000000
# 2 -0.005128 0.011381 -0.002638 0.000000 0.000000 0.000000
# 3 -0.003675 -0.002638 0.012102 0.000000 0.000000 0.000000
# 4 0.000000 0.000000 0.000000 0.035974 0.000000 0.000000
# 5 0.000000 0.000000 0.000000 0.000000 0.053134 0.000000
# 6 0.000000 0.000000 0.000000 0.000000 0.000000 0.031819
#
#
# Mechanical properties :
#
#
# Convention : Reuss Voigt Hill
#
# Bulk Modulus (GPa) = 60.91183 62.18021 61.54602
# Shear Modulus (GPa) = 26.51384 27.84327 27.17855
#
# Velocity S-wave (km/s) = 3.60700 3.69632 3.65193
# Velocity P-wave (km/s) = 6.87291 6.98062 6.92697
#
# Compressibility (1/GPa) = 0.01641717
#
# Stress axis : x y z
#
# Youngs Moduli (GPa) = 63.22394 87.86766 82.63284
#
# Poissons Ratio (x) = 0.45059 0.30370
# Poissons Ratio (y) = 0.32421 0.21797
# Poissons Ratio (z) = 0.23236 0.23178
#
# Static dielectric constant tensor:
#      x y z
#    x 3.505140 0.000000 0.000000 
#    y 0.000000 4.018290 0.000000 
#    z 0.000000 0.000000 4.100670 
# 
# 
# High freq. dielectric constant tensor:
#      x y z
#    x 1.755020 0.000000 0.000000 
#    y 0.000000 1.813070 0.000000 
#    z 0.000000 0.000000 1.810800 
# 
# From -- ./inp_files/15744.got.cif
#   From: 2010.03.12/outbox.cif.g09.slc.cpg/sg68_8_cif.got.tgz:15744.got - 2010.04.10 23:14:56.
