data_PCOD8282815
_publ_section_title
;
Structure prediction by ZEFSAII (Michael W. Deem and Ramdas Pophale) SiO2 
 PCOD8282815
Probable space group: C C C A
;
_chemical_formula_sum "Si O2"
_cell_formula_units_Z 80
_cell_length_a 10.777442
_cell_length_b 16.035829
_cell_length_c 22.433625
_cell_angle_alpha 90.000000
_cell_angle_beta 90.000000
_cell_angle_gamma 90.000000
_cell_volume 3877.096108
_symmetry_space_group_name_H-M "C C C A"
_symmetry_group_IT_number 68
_space_group.IT_coordinate_system_code '2'
_symmetry_cell_setting 'orthorhombic'
loop_
_space_group_symop_operation_xyz
x,y,z
-x,1/2-y,z
x,1/2-y,1/2-z
-x,y,1/2-z
-x,-y,-z
x,1/2+y,-z
-x,1/2+y,1/2+z
x,-y,1/2+z
1/2+x,1/2+y,z
1/2-x,-y,z
1/2+x,-y,1/2-z
1/2-x,1/2+y,1/2-z
1/2-x,1/2-y,-z
1/2+x,y,-z
1/2-x,y,1/2+z
1/2+x,1/2-y,1/2+z
loop_
_atom_site_type_symbol
_atom_site_label
_atom_site_fract_x
_atom_site_fract_y
_atom_site_fract_z
Si Si1 0.000000 0.250000 0.458040
Si Si2 0.346782 0.613625 0.106530
Si Si3 0.561795 0.006068 0.417350
Si Si4 0.853126 0.153054 0.239890
Si Si5 0.118195 0.610150 0.019438
Si Si6 0.250000 0.000000 0.683366
O O1 0.929261 0.310162 0.413985
O O2 0.896657 0.205275 0.498766
O O3 0.429512 0.531692 0.101914
O O4 0.307997 0.629547 0.174158
O O5 0.226502 0.600707 0.066521
O O6 0.643653 0.946727 0.460719
O O7 0.635898 0.028456 0.358029
O O8 0.518900 0.087726 0.453975
O O9 0.812675 0.250000 0.250000
O O10 0.000000 0.143280 0.250000
O O11 0.783911 0.084235 0.280800
#
# Coordination Sequence:
#
# PCOD8282815 Si02
#       6
#     8  16  16  16  16   8
#     4  10  22  38  63 104 131 170 214 276 348 392
#     4  11  22  42  66  93 132 174 224 274 327 410
#     4  10  24  40  63  99 130 171 219 275 342 400
#     4  11  25  45  68  99 131 183 237 275 332 404
#     4  10  23  39  66  97 134 170 215 269 345 410
#     4  12  26  42  70  98 140 176 230 294 328 394
#
# _framework density 20.634
#
# number of rings (size 3 to 8) (size 9 to 14) (size 15 to 20)
#    0.000    1.400    2.000    2.400   14.000    1.600 
#    0.000    0.000    0.000    1.800    0.000    0.000 
#    0.000    0.000    0.000    0.000    0.000    0.000 
#
# Total GULP energy -495861.462393 kJ/mol
# GULP energy per Si atom -12396.536560 kJ/mol
# Density = 2.058704 g / cm^3
# Si number density = 20.634000 Si / 1000 Ang^3
#
#
#
# Elastic Constant Matrix: (Units=GPa)
#
#
# Indices 1 2 3 4 5 6 
#
# 1 85.0937 26.7040 49.3566 0.0000 0.0000 0.0000
# 2 26.7040 85.6839 35.1882 0.0000 0.0000 0.0000
# 3 49.3566 35.1882 144.8075 0.0000 0.0000 0.0000
# 4 0.0000 0.0000 0.0000 13.3185 0.0000 0.0000
# 5 0.0000 0.0000 0.0000 0.0000 26.2508 0.0000
# 6 0.0000 0.0000 0.0000 0.0000 0.0000 24.6553
#
#
#
# Elastic Compliance Matrix: (Units=1/GPa)
#
#
# Indices 1 2 3 4 5 6 
#
# 1 0.015275 -0.002913 -0.004499 0.000000 0.000000 0.000000
# 2 -0.002913 0.013520 -0.002292 0.000000 0.000000 0.000000
# 3 -0.004499 -0.002292 0.008996 0.000000 0.000000 0.000000
# 4 0.000000 0.000000 0.000000 0.075084 0.000000 0.000000
# 5 0.000000 0.000000 0.000000 0.000000 0.038094 0.000000
# 6 0.000000 0.000000 0.000000 0.000000 0.000000 0.040559
#
#
# Mechanical properties :
#
#
# Convention : Reuss Voigt Hill
#
# Bulk Modulus (GPa) = 54.39782 59.78696 57.09239
# Shear Modulus (GPa) = 23.03459 26.46732 24.75096
#
# Velocity S-wave (km/s) = 3.34479 3.58537 3.46717
# Velocity P-wave (km/s) = 6.42941 6.79542 6.61495
#
# Compressibility (1/GPa) = 0.01838309
#
# Stress axis : x y z
#
# Youngs Moduli (GPa) = 65.46540 73.96355 111.15949
#
# Poissons Ratio (x) = 0.21547 0.50006
# Poissons Ratio (y) = 0.19071 0.25483
# Poissons Ratio (z) = 0.29450 0.16956
#
# Static dielectric constant tensor:
#      x y z
#    x 3.645890 0.000000 0.000000 
#    y 0.000000 4.036780 0.000000 
#    z 0.000000 0.000000 3.903360 
# 
# 
# High freq. dielectric constant tensor:
#      x y z
#    x 1.800480 0.000000 0.000000 
#    y 0.000000 1.812920 0.000000 
#    z 0.000000 0.000000 1.818240 
# 
# From -- ./inp_files/37384.got.cif
#   From: 2010.03.12/outbox.cif.g09.slc.cpg/sg68_19_cif.got.tgz:37384.got - 2010.04.10 23:14:56.
