data_PCOD8282159
_publ_section_title
;
Structure prediction by ZEFSAII (Michael W. Deem and Ramdas Pophale) SiO2 
 PCOD8282159
Probable space group: C C C A
;
_chemical_formula_sum "Si O2"
_cell_formula_units_Z 48
_cell_length_a 16.653621
_cell_length_b 13.012614
_cell_length_c 9.046366
_cell_angle_alpha 90.000000
_cell_angle_beta 90.000000
_cell_angle_gamma 90.000000
_cell_volume 1960.412119
_symmetry_space_group_name_H-M "C C C A"
_symmetry_group_IT_number 68
_space_group.IT_coordinate_system_code '2'
_symmetry_cell_setting 'orthorhombic'
loop_
_space_group_symop_operation_xyz
x,y,z
-x,1/2-y,z
x,1/2-y,1/2-z
-x,y,1/2-z
-x,-y,-z
x,1/2+y,-z
-x,1/2+y,1/2+z
x,-y,1/2+z
1/2+x,1/2+y,z
1/2-x,-y,z
1/2+x,-y,1/2-z
1/2-x,1/2+y,1/2-z
1/2-x,1/2-y,-z
1/2+x,y,-z
1/2-x,y,1/2+z
1/2+x,1/2-y,1/2+z
loop_
_atom_site_type_symbol
_atom_site_label
_atom_site_fract_x
_atom_site_fract_y
_atom_site_fract_z
Si Si1 0.582381 0.636439 0.311222
Si Si2 0.289645 0.396474 0.902623
Si Si3 0.135556 0.732633 0.406233
O O1 0.590293 0.750000 0.250000
O O2 0.500000 0.585127 0.250000
O O3 0.659416 0.575065 0.246585
O O4 0.586445 0.651149 0.489851
O O5 0.250000 0.500000 0.967077
O O6 0.221788 0.314245 0.863805
O O7 0.351592 0.344761 0.019085
O O8 0.089178 0.750000 0.250000
#
# Coordination Sequence:
#
# PCOD8282159 Si02
#       3
#    16  16  16
#     4   9  19  38  60  84 121 162 196 245 311 362
#     4  10  20  36  60  87 120 163 203 244 297 361
#     4  10  20  35  59  91 119 152 205 255 298 358
#
# _framework density 24.484649000000001
#
# number of rings (size 3 to 8) (size 9 to 14) (size 15 to 20)
#    0.000    2.333    0.000    5.000    0.000    5.333 
#    0.000   15.000    0.000   12.000    0.000    7.000 
#    0.000    0.000    0.000    0.000    0.000    0.000 
#
# Total GULP energy -297350.988504 kJ/mol
# GULP energy per Si atom -12389.624521 kJ/mol
# Density = 2.442892 g / cm^3
# Si number density = 24.484649 Si / 1000 Ang^3
#
#
#
# Elastic Constant Matrix: (Units=GPa)
#
#
# Indices 1 2 3 4 5 6 
#
# 1 115.1449 12.6689 57.2005 0.0000 0.0000 0.0000
# 2 12.6689 73.3346 22.1264 0.0000 0.0000 0.0000
# 3 57.2005 22.1264 207.9641 0.0000 0.0000 0.0000
# 4 0.0000 0.0000 0.0000 16.2930 0.0000 0.0000
# 5 0.0000 0.0000 0.0000 0.0000 19.3213 0.0000
# 6 0.0000 0.0000 0.0000 0.0000 0.0000 12.3860
#
#
#
# Elastic Compliance Matrix: (Units=1/GPa)
#
#
# Indices 1 2 3 4 5 6 
#
# 1 0.010121 -0.000939 -0.002684 0.000000 0.000000 0.000000
# 2 -0.000939 0.014175 -0.001250 0.000000 0.000000 0.000000
# 3 -0.002684 -0.001250 0.005680 0.000000 0.000000 0.000000
# 4 0.000000 0.000000 0.000000 0.061376 0.000000 0.000000
# 5 0.000000 0.000000 0.000000 0.000000 0.051756 0.000000
# 6 0.000000 0.000000 0.000000 0.000000 0.000000 0.080736
#
#
# Mechanical properties :
#
#
# Convention : Reuss Voigt Hill
#
# Bulk Modulus (GPa) = 49.42882 64.49278 56.96080
# Shear Modulus (GPa) = 20.80436 29.89660 25.35048
#
# Velocity S-wave (km/s) = 2.91811 3.49812 3.22120
# Velocity P-wave (km/s) = 5.62008 6.53552 6.09501
#
# Compressibility (1/GPa) = 0.02023111
#
# Stress axis : x y z
#
# Youngs Moduli (GPa) = 98.80141 70.54458 176.06412
#
# Poissons Ratio (x) = 0.06622 0.47255
# Poissons Ratio (y) = 0.09274 0.22008
# Poissons Ratio (z) = 0.26518 0.08818
#
# Static dielectric constant tensor:
#      x y z
#    x 4.690290 0.000000 0.000000 
#    y 0.000000 3.873570 0.000000 
#    z 0.000000 0.000000 4.893890 
# 
# 
# High freq. dielectric constant tensor:
#      x y z
#    x 1.950240 0.000000 0.000000 
#    y 0.000000 1.925350 0.000000 
#    z 0.000000 0.000000 1.977670 
# 
# From -- ./inp_files/4425.got.cif
#   From: 2010.03.12/outbox.cif.g09.slc.cpg/sg68_3_cif.got.tgz:4425.got - 2010.04.10 23:14:56.
