data_PCOD8282709
_publ_section_title
;
Structure prediction by ZEFSAII (Michael W. Deem and Ramdas Pophale) SiO2 
 PCOD8282709
Probable space group: C C C A
;
_chemical_formula_sum "Si O2"
_cell_formula_units_Z 64
_cell_length_a 9.047661
_cell_length_b 25.609313
_cell_length_c 12.870783
_cell_angle_alpha 90.000000
_cell_angle_beta 90.000000
_cell_angle_gamma 90.000000
_cell_volume 2982.216827
_symmetry_space_group_name_H-M "C C C A"
_symmetry_group_IT_number 68
_space_group.IT_coordinate_system_code '2'
_symmetry_cell_setting 'orthorhombic'
loop_
_space_group_symop_operation_xyz
x,y,z
-x,1/2-y,z
x,1/2-y,1/2-z
-x,y,1/2-z
-x,-y,-z
x,1/2+y,-z
-x,1/2+y,1/2+z
x,-y,1/2+z
1/2+x,1/2+y,z
1/2-x,-y,z
1/2+x,-y,1/2-z
1/2-x,1/2+y,1/2-z
1/2-x,1/2-y,-z
1/2+x,y,-z
1/2-x,y,1/2+z
1/2+x,1/2-y,1/2+z
loop_
_atom_site_type_symbol
_atom_site_label
_atom_site_fract_x
_atom_site_fract_y
_atom_site_fract_z
Si Si1 0.253141 0.061500 0.594266
Si Si2 0.298012 0.637636 0.740329
Si Si3 0.067930 0.115568 0.422830
Si Si4 0.460612 0.810105 0.600942
O O1 0.168057 0.083918 0.695955
O O2 0.175372 0.077239 0.486686
O O3 0.417189 0.085246 0.596782
O O4 0.250000 0.000000 0.603355
O O5 0.138472 0.632283 0.687316
O O6 0.418790 0.651543 0.653571
O O7 0.308493 0.682280 0.831988
O O8 0.051278 0.170535 0.483367
O O9 0.500000 0.750000 0.603139
#
# Coordination Sequence:
#
# PCOD8282709 Si02
#       4
#    16  16  16  16
#     4  11  24  42  66  95 133 177 219 274 336 395
#     4  10  21  41  64  93 136 167 223 277 327 399
#     4  11  22  44  66  99 132 170 229 277 325 413
#     4  10  22  44  69  95 136 179 215 282 352 390
#
# _framework density 21.460545
#
# number of rings (size 3 to 8) (size 9 to 14) (size 15 to 20)
#    0.000    1.500    2.500    3.000    0.000    2.000 
#   22.500    0.000    0.000    0.000    0.000    0.000 
#    0.000    0.000    0.000    0.000    0.000    0.000 
#
# Total GULP energy -396455.335932 kJ/mol
# GULP energy per Si atom -12389.229248 kJ/mol
# Density = 2.141170 g / cm^3
# Si number density = 21.460545 Si / 1000 Ang^3
#
#
#
# Elastic Constant Matrix: (Units=GPa)
#
#
# Indices 1 2 3 4 5 6 
#
# 1 105.0142 60.8149 31.1109 0.0000 0.0000 0.0000
# 2 60.8149 198.2609 63.7806 0.0000 0.0000 0.0000
# 3 31.1109 63.7806 85.0505 0.0000 0.0000 0.0000
# 4 0.0000 0.0000 0.0000 3.8354 0.0000 0.0000
# 5 0.0000 0.0000 0.0000 0.0000 36.5685 0.0000
# 6 0.0000 0.0000 0.0000 0.0000 0.0000 26.5567
#
#
#
# Elastic Compliance Matrix: (Units=1/GPa)
#
#
# Indices 1 2 3 4 5 6 
#
# 1 0.011863 -0.002956 -0.002123 0.000000 0.000000 0.000000
# 2 -0.002956 0.007384 -0.004456 0.000000 0.000000 0.000000
# 3 -0.002123 -0.004456 0.015876 0.000000 0.000000 0.000000
# 4 0.000000 0.000000 0.000000 0.260728 0.000000 0.000000
# 5 0.000000 0.000000 0.000000 0.000000 0.027346 0.000000
# 6 0.000000 0.000000 0.000000 0.000000 0.000000 0.037655
#
#
# Mechanical properties :
#
#
# Convention : Reuss Voigt Hill
#
# Bulk Modulus (GPa) = 62.29183 77.74871 70.02027
# Shear Modulus (GPa) = 12.97780 28.90007 20.93893
#
# Velocity S-wave (km/s) = 2.46179 3.67367 3.12700
# Velocity P-wave (km/s) = 6.09670 7.36897 6.76282
#
# Compressibility (1/GPa) = 0.01605347
#
# Stress axis : x y z
#
# Youngs Moduli (GPa) = 84.29366 135.42481 62.98840
#
# Poissons Ratio (x) = 0.40033 0.13370
# Poissons Ratio (y) = 0.24918 0.28069
# Poissons Ratio (z) = 0.17893 0.60348
#
# Static dielectric constant tensor:
#      x y z
#    x 4.040110 0.000000 0.000000 
#    y 0.000000 3.740610 0.000000 
#    z 0.000000 0.000000 4.214020 
# 
# 
# High freq. dielectric constant tensor:
#      x y z
#    x 1.839370 0.000000 0.000000 
#    y 0.000000 1.826590 0.000000 
#    z 0.000000 0.000000 1.861880 
# 
# From -- ./inp_files/19201.got.cif
#   From: 2010.03.12/outbox.cif.g09.slc.cpg/sg68_10_cif.got.tgz:19201.got - 2010.04.10 23:14:56.
