data_PCOD8282975
_publ_section_title
;
Structure prediction by ZEFSAII (Michael W. Deem and Ramdas Pophale) SiO2 
 PCOD8282975
Probable space group: C C C A
;
_chemical_formula_sum "Si O2"
_cell_formula_units_Z 56
_cell_length_a 5.120567
_cell_length_b 13.961859
_cell_length_c 33.152826
_cell_angle_alpha 90.000000
_cell_angle_beta 90.000000
_cell_angle_gamma 90.000000
_cell_volume 2370.182870
_symmetry_space_group_name_H-M "C C C A"
_symmetry_group_IT_number 68
_space_group.IT_coordinate_system_code '2'
_symmetry_cell_setting 'orthorhombic'
loop_
_space_group_symop_operation_xyz
x,y,z
-x,1/2-y,z
x,1/2-y,1/2-z
-x,y,1/2-z
-x,-y,-z
x,1/2+y,-z
-x,1/2+y,1/2+z
x,-y,1/2+z
1/2+x,1/2+y,z
1/2-x,-y,z
1/2+x,-y,1/2-z
1/2-x,1/2+y,1/2-z
1/2-x,1/2-y,-z
1/2+x,y,-z
1/2-x,y,1/2+z
1/2+x,1/2-y,1/2+z
loop_
_atom_site_type_symbol
_atom_site_label
_atom_site_fract_x
_atom_site_fract_y
_atom_site_fract_z
Si Si1 0.750000 0.000000 0.472202
Si Si2 0.890830 0.903281 0.668363
Si Si3 0.500000 0.250000 0.346867
Si Si4 0.638105 0.346045 0.592238
Si Si5 0.750000 0.500000 0.723587
O O1 0.752529 0.094941 0.445174
O O2 0.500000 0.000000 0.500000
O O3 0.719843 0.807839 0.679095
O O4 0.934944 0.905317 0.619944
O O5 0.158907 0.908725 0.695275
O O6 0.750000 0.000000 0.681465
O O7 0.631582 0.173273 0.376394
O O8 0.500000 0.250000 0.575362
O O9 0.500000 0.533869 0.750000
#
# Coordination Sequence:
#
# PCOD8282975 Si02
#       5
#     8  16   8  16   8
#     4  12  29  44  67 102 148 190 230 288 369 442
#     4  11  22  43  76 108 138 190 250 304 358 434
#     4  10  22  42  76 107 138 180 254 312 350 416
#     4  10  24  43  71 101 137 183 246 301 351 422
#     4  12  25  42  71 110 148 192 236 292 375 454
#
# _framework density 23.626867000000001
#
# number of rings (size 3 to 8) (size 9 to 14) (size 15 to 20)
#    0.000    1.143    1.429    4.286   10.000    1.143 
#    0.000    0.000    0.000   35.143    0.000    0.000 
#    0.000    0.000    0.000    0.000    0.000    0.000 
#
# Total GULP energy -346949.229272 kJ/mol
# GULP energy per Si atom -12391.043903 kJ/mol
# Density = 2.357309 g / cm^3
# Si number density = 23.626867 Si / 1000 Ang^3
#
#
#
# Elastic Constant Matrix: (Units=GPa)
#
#
# Indices 1 2 3 4 5 6 
#
# 1 161.9827 73.2612 67.0054 0.0000 0.0000 0.0000
# 2 73.2612 134.9943 83.0620 0.0000 0.0000 0.0000
# 3 67.0054 83.0620 133.8938 0.0000 0.0000 0.0000
# 4 0.0000 0.0000 0.0000 -13.5583 0.0000 0.0000
# 5 0.0000 0.0000 0.0000 0.0000 -5.2332 0.0000
# 6 0.0000 0.0000 0.0000 0.0000 0.0000 43.4490
#
#
#
# Elastic Compliance Matrix: (Units=1/GPa)
#
#
# Indices 1 2 3 4 5 6 
#
# 1 0.008590 -0.003262 -0.002275 0.000000 0.000000 0.000000
# 2 -0.003262 0.013219 -0.006568 0.000000 0.000000 0.000000
# 3 -0.002275 -0.006568 0.012682 0.000000 0.000000 0.000000
# 4 0.000000 0.000000 0.000000 -0.073756 0.000000 0.000000
# 5 0.000000 0.000000 0.000000 0.000000 -0.191086 0.000000
# 6 0.000000 0.000000 0.000000 0.000000 0.000000 0.023015
#
#
# Mechanical properties :
#
#
# Convention : Reuss Voigt Hill
#
# Bulk Modulus (GPa) = 97.27243 97.50312 97.38778
# Shear Modulus (GPa) = -27.82461 18.76764 -4.52848
#
# Velocity S-wave (km/s) = -3.43544 2.82145 -1.38594
# Velocity P-wave (km/s) = 5.05206 7.20913 6.22475
#
# Compressibility (1/GPa) = 0.01028041
#
# Stress axis : x y z
#
# Youngs Moduli (GPa) = 116.41593 75.64603 78.85171
#
# Poissons Ratio (x) = 0.24674 0.17941
# Poissons Ratio (y) = 0.37972 0.51794
# Poissons Ratio (z) = 0.26487 0.49688
#
# Static dielectric constant tensor:
#      x y z
#    x 4.299090 0.000000 0.000000 
#    y 0.000000 4.021200 0.000000 
#    z 0.000000 0.000000 4.242210 
# 
# 
# High freq. dielectric constant tensor:
#      x y z
#    x 1.962490 0.000000 0.000000 
#    y 0.000000 1.926230 0.000000 
#    z 0.000000 0.000000 1.917130 
# 
# From -- ./inp_files/52810.got.cif
#   From: 2010.03.12/outbox.cif.g09.slc.cpg/sg68_27_cif.got.tgz:52810.got - 2010.04.10 23:14:56.
