data_PCOD8282496
_publ_section_title
;
Structure prediction by ZEFSAII (Michael W. Deem and Ramdas Pophale) SiO2 
 PCOD8282496
Probable space group: C C C A
;
_chemical_formula_sum "Si O2"
_cell_formula_units_Z 88
_cell_length_a 32.099926
_cell_length_b 26.014147
_cell_length_c 5.109771
_cell_angle_alpha 90.000000
_cell_angle_beta 90.000000
_cell_angle_gamma 90.000000
_cell_volume 4266.925483
_symmetry_space_group_name_H-M "C C C A"
_symmetry_group_IT_number 68
_space_group.IT_coordinate_system_code '2'
_symmetry_cell_setting 'orthorhombic'
loop_
_space_group_symop_operation_xyz
x,y,z
-x,1/2-y,z
x,1/2-y,1/2-z
-x,y,1/2-z
-x,-y,-z
x,1/2+y,-z
-x,1/2+y,1/2+z
x,-y,1/2+z
1/2+x,1/2+y,z
1/2-x,-y,z
1/2+x,-y,1/2-z
1/2-x,1/2+y,1/2-z
1/2-x,1/2-y,-z
1/2+x,y,-z
1/2-x,y,1/2+z
1/2+x,1/2-y,1/2+z
loop_
_atom_site_type_symbol
_atom_site_label
_atom_site_fract_x
_atom_site_fract_y
_atom_site_fract_z
Si Si1 0.951462 0.646760 0.225456
Si Si2 0.087862 0.750000 0.250000
Si Si3 0.222597 0.877511 0.556357
Si Si4 0.840044 0.533536 0.640368
Si Si5 0.845509 0.300154 0.123596
Si Si6 0.904670 0.383160 0.242704
O O1 0.941956 0.705513 0.130651
O O2 0.933658 0.636506 0.511204
O O3 0.000000 0.636496 0.250000
O O4 0.931661 0.608643 0.006404
O O5 0.117546 0.778777 0.449107
O O6 0.259280 0.873451 0.347740
O O7 0.198656 0.931386 0.553282
O O8 0.191516 0.830726 0.481851
O O9 0.838040 0.486871 0.436858
O O10 0.883368 0.564818 0.636775
O O11 0.824290 0.250000 0.250000
O O12 0.868263 0.341348 0.316049
#
# Coordination Sequence:
#
# PCOD8282496 Si02
#       6
#    16   8  16  16  16  16
#     4  11  21  36  60  90 127 160 195 250 306 344
#     4  10  21  36  58  88 120 168 218 246 272 362
#     4  11  26  41  59  92 126 154 200 254 305 361
#     4  11  23  42  70  90 112 157 205 252 308 363
#     4  10  21  38  61  81 123 169 205 240 293 348
#     4  10  22  39  60  90 122 156 204 248 293 371
#
# _framework density 20.623747999999999
#
# number of rings (size 3 to 8) (size 9 to 14) (size 15 to 20)
#    0.000    1.455    1.818    3.000    2.545    5.818 
#    0.000    1.818    0.000   10.909    0.000    0.000 
#    0.000    0.000    0.000    0.000    0.000    0.000 
#
# Total GULP energy -545308.519601 kJ/mol
# GULP energy per Si atom -12393.375445 kJ/mol
# Density = 2.057681 g / cm^3
# Si number density = 20.623748 Si / 1000 Ang^3
#
#
#
# Elastic Constant Matrix: (Units=GPa)
#
#
# Indices 1 2 3 4 5 6 
#
# 1 88.8017 20.8830 14.1348 0.0000 0.0000 0.0000
# 2 20.8830 69.9470 5.5758 0.0000 0.0000 0.0000
# 3 14.1348 5.5758 78.0992 0.0000 0.0000 0.0000
# 4 0.0000 0.0000 0.0000 27.5204 0.0000 0.0000
# 5 0.0000 0.0000 0.0000 0.0000 263.6822 0.0000
# 6 0.0000 0.0000 0.0000 0.0000 0.0000 52.7102
#
#
#
# Elastic Compliance Matrix: (Units=1/GPa)
#
#
# Indices 1 2 3 4 5 6 
#
# 1 0.012412 -0.003547 -0.001993 0.000000 0.000000 0.000000
# 2 -0.003547 0.015392 -0.000457 0.000000 0.000000 0.000000
# 3 -0.001993 -0.000457 0.013198 0.000000 0.000000 0.000000
# 4 0.000000 0.000000 0.000000 0.036337 0.000000 0.000000
# 5 0.000000 0.000000 0.000000 0.000000 0.003792 0.000000
# 6 0.000000 0.000000 0.000000 0.000000 0.000000 0.018972
#
#
# Mechanical properties :
#
#
# Convention : Reuss Voigt Hill
#
# Bulk Modulus (GPa) = 34.47355 35.33725 34.90540
# Shear Modulus (GPa) = 41.06232 81.86620 61.46426
#
# Velocity S-wave (km/s) = 4.46693 6.30724 5.46510
# Velocity P-wave (km/s) = 6.58455 8.37933 7.53557
#
# Compressibility (1/GPa) = 0.02900774
#
# Stress axis : x y z
#
# Youngs Moduli (GPa) = 80.56449 64.96921 75.77134
#
# Poissons Ratio (x) = 0.23044 0.15103
# Poissons Ratio (y) = 0.28575 0.03462
# Poissons Ratio (z) = 0.16058 0.02969
#
# Static dielectric constant tensor:
#      x y z
#    x 3.756650 0.000000 0.000000 
#    y 0.000000 4.161810 0.000000 
#    z 0.000000 0.000000 3.276530 
# 
# 
# High freq. dielectric constant tensor:
#      x y z
#    x 1.807650 0.000000 0.000000 
#    y 0.000000 1.806520 0.000000 
#    z 0.000000 0.000000 1.800550 
# 
# From -- ./inp_files/2097.got.cif
#   From: 2010.03.12/outbox.cif.g09.slc.cpg/sg68_2_cif.got.tgz:2097.got - 2010.04.10 23:14:56.
