data_PCOD8282681
_publ_section_title
;
Structure prediction by ZEFSAII (Michael W. Deem and Ramdas Pophale) SiO2 
 PCOD8282681
Probable space group: C C C A
;
_chemical_formula_sum "Si O2"
_cell_formula_units_Z 48
_cell_length_a 13.849703
_cell_length_b 4.847774
_cell_length_c 31.085913
_cell_angle_alpha 90.000000
_cell_angle_beta 90.000000
_cell_angle_gamma 90.000000
_cell_volume 2087.115352
_symmetry_space_group_name_H-M "C C C A"
_symmetry_group_IT_number 68
_space_group.IT_coordinate_system_code '2'
_symmetry_cell_setting 'orthorhombic'
loop_
_space_group_symop_operation_xyz
x,y,z
-x,1/2-y,z
x,1/2-y,1/2-z
-x,y,1/2-z
-x,-y,-z
x,1/2+y,-z
-x,1/2+y,1/2+z
x,-y,1/2+z
1/2+x,1/2+y,z
1/2-x,-y,z
1/2+x,-y,1/2-z
1/2-x,1/2+y,1/2-z
1/2-x,1/2-y,-z
1/2+x,y,-z
1/2-x,y,1/2+z
1/2+x,1/2-y,1/2+z
loop_
_atom_site_type_symbol
_atom_site_label
_atom_site_fract_x
_atom_site_fract_y
_atom_site_fract_z
Si Si1 0.500000 0.750000 0.596819
Si Si2 0.000000 0.250000 0.348619
Si Si3 0.861556 0.494884 0.219797
Si Si4 0.637366 0.002373 0.972134
O O1 0.450404 0.496786 0.623650
O O2 0.582900 0.597914 0.569975
O O3 0.076974 0.438002 0.322798
O O4 0.888064 0.250000 0.250000
O O5 0.750000 0.500000 0.205805
O O6 0.892067 0.750000 0.250000
O O7 0.750000 0.000000 0.961183
O O8 0.608898 0.810159 0.013113
#
# Coordination Sequence:
#
# PCOD8282681 Si02
#       4
#     8   8  16  16
#     4  12  24  39  61  96 135 166 201 264 333 381
#     4  12  25  39  64  98 133 168 203 264 336 383
#     4  10  22  43  68  91 121 168 220 263 308 377
#     4  10  21  40  65  89 120 169 220 260 304 373
#
# _framework density 22.998249000000001
#
# number of rings (size 3 to 8) (size 9 to 14) (size 15 to 20)
#    0.000    1.333    0.000    5.500    0.000    2.667 
#    0.000    3.333    0.000    0.000    0.000    0.000 
#    0.000    0.000    0.000    0.000    0.000    0.000 
#
# Total GULP energy -297382.533125 kJ/mol
# GULP energy per Si atom -12390.938880 kJ/mol
# Density = 2.294590 g / cm^3
# Si number density = 22.998249 Si / 1000 Ang^3
#
#
#
# Elastic Constant Matrix: (Units=GPa)
#
#
# Indices 1 2 3 4 5 6 
#
# 1 85.8929 41.2258 60.2773 0.0000 0.0000 0.0000
# 2 41.2258 170.4926 58.8685 0.0000 0.0000 0.0000
# 3 60.2773 58.8685 117.4235 0.0000 0.0000 0.0000
# 4 0.0000 0.0000 0.0000 27.1630 0.0000 0.0000
# 5 0.0000 0.0000 0.0000 0.0000 4.5425 0.0000
# 6 0.0000 0.0000 0.0000 0.0000 0.0000 34.2958
#
#
#
# Elastic Compliance Matrix: (Units=1/GPa)
#
#
# Indices 1 2 3 4 5 6 
#
# 1 0.018487 -0.001443 -0.008767 0.000000 0.000000 0.000000
# 2 -0.001443 0.007206 -0.002872 0.000000 0.000000 0.000000
# 3 -0.008767 -0.002872 0.014456 0.000000 0.000000 0.000000
# 4 0.000000 0.000000 0.000000 0.036815 0.000000 0.000000
# 5 0.000000 0.000000 0.000000 0.000000 0.220143 0.000000
# 6 0.000000 0.000000 0.000000 0.000000 0.000000 0.029158
#
#
# Mechanical properties :
#
#
# Convention : Reuss Voigt Hill
#
# Bulk Modulus (GPa) = 71.49949 77.17247 74.33598
# Shear Modulus (GPa) = 14.00206 27.42942 20.71574
#
# Velocity S-wave (km/s) = 2.47013 3.45726 3.00451
# Velocity P-wave (km/s) = 6.26833 7.04028 6.66549
#
# Compressibility (1/GPa) = 0.01398611
#
# Stress axis : x y z
#
# Youngs Moduli (GPa) = 54.09133 138.77511 69.17551
#
# Poissons Ratio (x) = 0.20030 0.60643
# Poissons Ratio (y) = 0.07807 0.19865
# Poissons Ratio (z) = 0.47419 0.39851
#
# Static dielectric constant tensor:
#      x y z
#    x 3.891170 0.000000 0.000000 
#    y 0.000000 4.701660 0.000000 
#    z 0.000000 0.000000 4.118930 
# 
# 
# High freq. dielectric constant tensor:
#      x y z
#    x 1.896910 0.000000 0.000000 
#    y 0.000000 1.942970 0.000000 
#    z 0.000000 0.000000 1.907380 
# 
# From -- ./inp_files/50575.got.cif
#   From: 2010.03.12/outbox.cif.g09.slc.cpg/sg68_26_cif.got.tgz:50575.got - 2010.04.10 23:14:56.
