data_PCOD8282588
_publ_section_title
;
Structure prediction by ZEFSAII (Michael W. Deem and Ramdas Pophale) SiO2 
 PCOD8282588
Probable space group: C C C A
;
_chemical_formula_sum "Si O2"
_cell_formula_units_Z 72
_cell_length_a 7.891046
_cell_length_b 19.486013
_cell_length_c 21.710042
_cell_angle_alpha 90.000000
_cell_angle_beta 90.000000
_cell_angle_gamma 90.000000
_cell_volume 3338.245150
_symmetry_space_group_name_H-M "C C C A"
_symmetry_group_IT_number 68
_space_group.IT_coordinate_system_code '2'
_symmetry_cell_setting 'orthorhombic'
loop_
_space_group_symop_operation_xyz
x,y,z
-x,1/2-y,z
x,1/2-y,1/2-z
-x,y,1/2-z
-x,-y,-z
x,1/2+y,-z
-x,1/2+y,1/2+z
x,-y,1/2+z
1/2+x,1/2+y,z
1/2-x,-y,z
1/2+x,-y,1/2-z
1/2-x,1/2+y,1/2-z
1/2-x,1/2-y,-z
1/2+x,y,-z
1/2-x,y,1/2+z
1/2+x,1/2-y,1/2+z
loop_
_atom_site_type_symbol
_atom_site_label
_atom_site_fract_x
_atom_site_fract_y
_atom_site_fract_z
Si Si1 0.679415 0.778587 0.375924
Si Si2 0.466393 0.601291 0.452731
Si Si3 0.575661 0.123217 0.317304
Si Si4 0.750000 0.500000 0.115831
Si Si5 0.673911 0.356615 0.422792
O O1 0.500000 0.750000 0.348104
O O2 0.645452 0.841118 0.420726
O O3 0.805411 0.808074 0.322908
O O4 0.773542 0.723521 0.419708
O O5 0.391759 0.528124 0.431754
O O6 0.459837 0.621090 0.524851
O O7 0.659737 0.597837 0.431955
O O8 0.500000 0.115633 0.250000
O O9 0.681393 0.056858 0.337213
O O10 0.408129 0.127213 0.357939
#
# Coordination Sequence:
#
# PCOD8282588 Si02
#       5
#    16  16  16   8  16
#     4   9  20  40  64  93 126 162 205 257 319 379
#     4  10  21  38  63  95 127 163 208 263 324 376
#     4  11  25  43  64  90 124 170 215 257 307 372
#     4  10  24  44  62  88 126 168 218 266 310 370
#     4  11  22  37  63  94 126 161 204 263 324 378
#
# _framework density 21.568217000000001
#
# number of rings (size 3 to 8) (size 9 to 14) (size 15 to 20)
#    0.000    1.778    0.000    4.000    0.000   11.556 
#    0.000   12.222    0.000    0.000    0.000    0.000 
#    0.000    0.000    0.000    0.000    0.000    0.000 
#
# Total GULP energy -446271.929546 kJ/mol
# GULP energy per Si atom -12396.442487 kJ/mol
# Density = 2.151913 g / cm^3
# Si number density = 21.568217 Si / 1000 Ang^3
#
#
#
# Elastic Constant Matrix: (Units=GPa)
#
#
# Indices 1 2 3 4 5 6 
#
# 1 143.4964 51.5199 63.1307 0.0000 0.0000 0.0000
# 2 51.5199 88.8076 32.6391 0.0000 0.0000 0.0000
# 3 63.1307 32.6391 131.8646 0.0000 0.0000 0.0000
# 4 0.0000 0.0000 0.0000 20.7766 0.0000 0.0000
# 5 0.0000 0.0000 0.0000 0.0000 32.9617 0.0000
# 6 0.0000 0.0000 0.0000 0.0000 0.0000 31.5614
#
#
#
# Elastic Compliance Matrix: (Units=1/GPa)
#
#
# Indices 1 2 3 4 5 6 
#
# 1 0.010276 -0.004569 -0.003789 0.000000 0.000000 0.000000
# 2 -0.004569 0.014419 -0.001381 0.000000 0.000000 0.000000
# 3 -0.003789 -0.001381 0.009739 0.000000 0.000000 0.000000
# 4 0.000000 0.000000 0.000000 0.048131 0.000000 0.000000
# 5 0.000000 0.000000 0.000000 0.000000 0.030338 0.000000
# 6 0.000000 0.000000 0.000000 0.000000 0.000000 0.031684
#
#
# Mechanical properties :
#
#
# Convention : Reuss Voigt Hill
#
# Bulk Modulus (GPa) = 66.86471 73.19423 70.02947
# Shear Modulus (GPa) = 29.57679 31.51852 30.54766
#
# Velocity S-wave (km/s) = 3.70714 3.82690 3.76750
# Velocity P-wave (km/s) = 7.02799 7.31688 7.17389
#
# Compressibility (1/GPa) = 0.01495557
#
# Stress axis : x y z
#
# Youngs Moduli (GPa) = 97.31311 69.35474 102.67583
#
# Poissons Ratio (x) = 0.31688 0.38902
# Poissons Ratio (y) = 0.44462 0.14184
# Poissons Ratio (z) = 0.36870 0.09581
#
# Static dielectric constant tensor:
#      x y z
#    x 4.216050 0.000000 0.000000 
#    y 0.000000 4.134200 0.000000 
#    z 0.000000 0.000000 3.634090 
# 
# 
# High freq. dielectric constant tensor:
#      x y z
#    x 1.865380 0.000000 0.000000 
#    y 0.000000 1.857090 0.000000 
#    z 0.000000 0.000000 1.822100 
# 
# From -- ./inp_files/36057.got.cif
#   From: 2010.03.12/outbox.cif.g09.slc.cpg/sg68_19_cif.got.tgz:36057.got - 2010.04.10 23:14:56.
