data_PCOD8282232
_publ_section_title
;
Structure prediction by ZEFSAII (Michael W. Deem and Ramdas Pophale) SiO2 
 PCOD8282232
Probable space group: C C C A
;
_chemical_formula_sum "Si O2"
_cell_formula_units_Z 80
_cell_length_a 23.069352
_cell_length_b 18.032018
_cell_length_c 8.662278
_cell_angle_alpha 90.000000
_cell_angle_beta 90.000000
_cell_angle_gamma 90.000000
_cell_volume 3603.394783
_symmetry_space_group_name_H-M "C C C A"
_symmetry_group_IT_number 68
_space_group.IT_coordinate_system_code '2'
_symmetry_cell_setting 'orthorhombic'
loop_
_space_group_symop_operation_xyz
x,y,z
-x,1/2-y,z
x,1/2-y,1/2-z
-x,y,1/2-z
-x,-y,-z
x,1/2+y,-z
-x,1/2+y,1/2+z
x,-y,1/2+z
1/2+x,1/2+y,z
1/2-x,-y,z
1/2+x,-y,1/2-z
1/2-x,1/2+y,1/2-z
1/2-x,1/2-y,-z
1/2+x,y,-z
1/2-x,y,1/2+z
1/2+x,1/2-y,1/2+z
loop_
_atom_site_type_symbol
_atom_site_label
_atom_site_fract_x
_atom_site_fract_y
_atom_site_fract_z
Si Si1 0.221669 0.803238 0.623083
Si Si2 0.561877 0.334417 0.299327
Si Si3 0.387195 0.600956 0.428530
Si Si4 0.676949 0.905630 0.834697
Si Si5 0.856758 0.530829 0.865358
O O1 0.191169 0.750000 0.750000
O O2 0.250000 0.750000 0.500000
O O3 0.175827 0.860453 0.550475
O O4 0.272311 0.849383 0.709979
O O5 0.565615 0.250000 0.250000
O O6 0.500000 0.368464 0.250000
O O7 0.567449 0.343476 0.487304
O O8 0.613610 0.377128 0.214637
O O9 0.392882 0.524468 0.525589
O O10 0.397867 0.581965 0.247358
O O11 0.686282 0.984776 0.748331
O O12 0.679459 0.915644 0.021115
#
# Coordination Sequence:
#
# PCOD8282232 Si02
#       5
#    16  16  16  16  16
#     4  12  23  34  55  84 118 157 192 242 293 343
#     4  10  21  40  63  84 114 154 192 238 292 351
#     4  10  21  37  56  84 114 147 196 237 291 352
#     4  10  20  37  56  84 117 150 199 240 291 352
#     4   9  20  36  57  82 113 154 190 241 295 340
#
# _framework density 22.201286
#
# number of rings (size 3 to 8) (size 9 to 14) (size 15 to 20)
#    0.000    1.800    0.000    5.400    0.000    4.800 
#    0.000   17.000    0.000    2.400    0.000    0.000 
#    0.000    0.000    0.000    0.000    0.000    0.000 
#
# Total GULP energy -495612.615507 kJ/mol
# GULP energy per Si atom -12390.315388 kJ/mol
# Density = 2.215075 g / cm^3
# Si number density = 22.201286 Si / 1000 Ang^3
#
#
#
# Elastic Constant Matrix: (Units=GPa)
#
#
# Indices 1 2 3 4 5 6 
#
# 1 106.2805 24.5647 13.8195 0.0000 0.0000 0.0000
# 2 24.5647 79.6207 29.0648 0.0000 0.0000 0.0000
# 3 13.8195 29.0648 123.1298 0.0000 0.0000 0.0000
# 4 0.0000 0.0000 0.0000 45.9874 0.0000 0.0000
# 5 0.0000 0.0000 0.0000 0.0000 26.2386 0.0000
# 6 0.0000 0.0000 0.0000 0.0000 0.0000 8.7660
#
#
#
# Elastic Compliance Matrix: (Units=1/GPa)
#
#
# Indices 1 2 3 4 5 6 
#
# 1 0.010153 -0.002973 -0.000438 0.000000 0.000000 0.000000
# 2 -0.002973 0.014614 -0.003116 0.000000 0.000000 0.000000
# 3 -0.000438 -0.003116 0.008906 0.000000 0.000000 0.000000
# 4 0.000000 0.000000 0.000000 0.021745 0.000000 0.000000
# 5 0.000000 0.000000 0.000000 0.000000 0.038112 0.000000
# 6 0.000000 0.000000 0.000000 0.000000 0.000000 0.114077
#
#
# Mechanical properties :
#
#
# Convention : Reuss Voigt Hill
#
# Bulk Modulus (GPa) = 48.49563 49.32545 48.91054
# Shear Modulus (GPa) = 21.97479 32.30388 27.13934
#
# Velocity S-wave (km/s) = 3.14952 3.81864 3.50011
# Velocity P-wave (km/s) = 5.92596 6.45820 6.19780
#
# Compressibility (1/GPa) = 0.02062041
#
# Stress axis : x y z
#
# Youngs Moduli (GPa) = 98.49251 68.42688 112.28142
#
# Poissons Ratio (x) = 0.20341 0.04916
# Poissons Ratio (y) = 0.29278 0.34987
# Poissons Ratio (z) = 0.04312 0.21322
#
# Static dielectric constant tensor:
#      x y z
#    x 3.722410 0.000000 0.000000 
#    y 0.000000 4.540310 0.000000 
#    z 0.000000 0.000000 4.623500 
# 
# 
# High freq. dielectric constant tensor:
#      x y z
#    x 1.816410 0.000000 0.000000 
#    y 0.000000 1.888880 0.000000 
#    z 0.000000 0.000000 1.893330 
# 
# From -- ./inp_files/8763.got.cif
#   From: 2010.03.12/outbox.cif.g09.slc.cpg/sg68_5_cif.got.tgz:8763.got - 2010.04.10 23:14:56.
