data_PCOD8282217
_publ_section_title
;
Structure prediction by ZEFSAII (Michael W. Deem and Ramdas Pophale) SiO2 
 PCOD8282217
Probable space group: C C C A
;
_chemical_formula_sum "Si O2"
_cell_formula_units_Z 104
_cell_length_a 13.138353
_cell_length_b 19.780238
_cell_length_c 19.551550
_cell_angle_alpha 90.000000
_cell_angle_beta 90.000000
_cell_angle_gamma 90.000000
_cell_volume 5081.051912
_symmetry_space_group_name_H-M "C C C A"
_symmetry_group_IT_number 68
_space_group.IT_coordinate_system_code '2'
_symmetry_cell_setting 'orthorhombic'
loop_
_space_group_symop_operation_xyz
x,y,z
-x,1/2-y,z
x,1/2-y,1/2-z
-x,y,1/2-z
-x,-y,-z
x,1/2+y,-z
-x,1/2+y,1/2+z
x,-y,1/2+z
1/2+x,1/2+y,z
1/2-x,-y,z
1/2+x,-y,1/2-z
1/2-x,1/2+y,1/2-z
1/2-x,1/2-y,-z
1/2+x,y,-z
1/2-x,y,1/2+z
1/2+x,1/2-y,1/2+z
loop_
_atom_site_type_symbol
_atom_site_label
_atom_site_fract_x
_atom_site_fract_y
_atom_site_fract_z
Si Si1 0.250000 0.500000 0.121617
Si Si2 0.579722 0.307430 0.929419
Si Si3 0.060711 0.067960 0.650288
Si Si4 0.401640 0.203355 0.083083
Si Si5 0.464188 0.538663 0.066287
Si Si6 0.255553 0.726304 0.179064
Si Si7 0.350533 0.901331 0.782774
O O1 0.346745 0.517078 0.075133
O O2 0.266575 0.436778 0.170747
O O3 0.500000 0.250000 0.907491
O O4 0.523502 0.380390 0.934235
O O5 0.664444 0.310381 0.870625
O O6 0.627925 0.287607 0.003100
O O7 0.077225 0.123081 0.590494
O O8 0.153593 0.069991 0.704786
O O9 0.961642 0.091143 0.689026
O O10 0.040274 0.991664 0.624105
O O11 0.500000 0.250000 0.100047
O O12 0.306694 0.220241 0.132537
O O13 0.500000 0.500000 0.000000
O O14 0.311216 0.750000 0.250000
O O15 0.172596 0.677296 0.212748
#
# Coordination Sequence:
#
# PCOD8282217 Si02
#       7
#     8  16  16  16  16  16  16
#     4  10  22  40  66  92 132 170 216 276 338 386
#     4  11  26  46  63  94 135 181 222 269 331 399
#     4  10  20  36  63  99 125 164 214 268 333 388
#     4  11  21  37  65  97 134 161 213 278 335 388
#     4  11  22  43  69  96 132 175 221 275 333 400
#     4  12  23  39  65  94 132 178 222 268 329 403
#     4  10  20  37  61  94 131 164 211 273 331 387
#
# _framework density 20.468202999999999
#
# number of rings (size 3 to 8) (size 9 to 14) (size 15 to 20)
#    0.000    1.231    6.154    0.462    0.000    0.615 
#    5.538    2.308    0.000    0.000    0.000    0.000 
#    0.000    0.000    0.000    0.000    0.000    0.000 
#
# Total GULP energy -644284.835041 kJ/mol
# GULP energy per Si atom -12390.092982 kJ/mol
# Density = 2.042162 g / cm^3
# Si number density = 20.468203 Si / 1000 Ang^3
#
#
#
# Elastic Constant Matrix: (Units=GPa)
#
#
# Indices 1 2 3 4 5 6 
#
# 1 51.6073 40.4904 53.8925 0.0000 0.0000 0.0000
# 2 40.4904 129.4707 38.4622 0.0000 0.0000 0.0000
# 3 53.8925 38.4622 139.2888 0.0000 0.0000 0.0000
# 4 0.0000 0.0000 0.0000 46.2561 0.0000 0.0000
# 5 0.0000 0.0000 0.0000 0.0000 59.7650 0.0000
# 6 0.0000 0.0000 0.0000 0.0000 0.0000 -249.0648
#
#
#
# Elastic Compliance Matrix: (Units=1/GPa)
#
#
# Indices 1 2 3 4 5 6 
#
# 1 0.039623 -0.008538 -0.012973 0.000000 0.000000 0.000000
# 2 -0.008538 0.010254 0.000472 0.000000 0.000000 0.000000
# 3 -0.012973 0.000472 0.012068 0.000000 0.000000 0.000000
# 4 0.000000 0.000000 0.000000 0.021619 0.000000 0.000000
# 5 0.000000 0.000000 0.000000 0.000000 0.016732 0.000000
# 6 0.000000 0.000000 0.000000 0.000000 0.000000 -0.004015
#
#
# Mechanical properties :
#
#
# Convention : Reuss Voigt Hill
#
# Bulk Modulus (GPa) = 50.33333 65.11747 57.72540
# Shear Modulus (GPa) = 34.48710 -16.10730 9.18990
#
# Velocity S-wave (km/s) = 4.10922 -2.80829 2.12122
# Velocity P-wave (km/s) = 6.86721 4.62252 5.85347
#
# Compressibility (1/GPa) = 0.01986755
#
# Stress axis : x y z
#
# Youngs Moduli (GPa) = 25.23766 97.52666 82.86045
#
# Poissons Ratio (x) = 0.83266 1.07497
# Poissons Ratio (y) = 0.21547 -0.03911
# Poissons Ratio (z) = 0.32741 -0.04603
#
# Static dielectric constant tensor:
#      x y z
#    x 3.388120 0.000000 0.000000 
#    y 0.000000 3.550700 0.000000 
#    z 0.000000 0.000000 3.798000 
# 
# 
# High freq. dielectric constant tensor:
#      x y z
#    x 1.772620 0.000000 0.000000 
#    y 0.000000 1.803550 0.000000 
#    z 0.000000 0.000000 1.816610 
# 
# From -- ./inp_files/31121.got.cif
#   From: 2010.03.12/outbox.cif.g09.slc.cpg/sg68_16_cif.got.tgz:31121.got - 2010.04.10 23:14:56.
