data_PCOD8282192
_publ_section_title
;
Structure prediction by ZEFSAII (Michael W. Deem and Ramdas Pophale) SiO2 
 PCOD8282192
Probable space group: C C C A
;
_chemical_formula_sum "Si O2"
_cell_formula_units_Z 96
_cell_length_a 11.891041
_cell_length_b 16.434994
_cell_length_c 23.112543
_cell_angle_alpha 90.000000
_cell_angle_beta 90.000000
_cell_angle_gamma 90.000000
_cell_volume 4516.865499
_symmetry_space_group_name_H-M "C C C A"
_symmetry_group_IT_number 68
_space_group.IT_coordinate_system_code '2'
_symmetry_cell_setting 'orthorhombic'
loop_
_space_group_symop_operation_xyz
x,y,z
-x,1/2-y,z
x,1/2-y,1/2-z
-x,y,1/2-z
-x,-y,-z
x,1/2+y,-z
-x,1/2+y,1/2+z
x,-y,1/2+z
1/2+x,1/2+y,z
1/2-x,-y,z
1/2+x,-y,1/2-z
1/2-x,1/2+y,1/2-z
1/2-x,1/2-y,-z
1/2+x,y,-z
1/2-x,y,1/2+z
1/2+x,1/2-y,1/2+z
loop_
_atom_site_type_symbol
_atom_site_label
_atom_site_fract_x
_atom_site_fract_y
_atom_site_fract_z
Si Si1 0.329695 0.219248 0.921356
Si Si2 0.461998 0.375609 0.955224
Si Si3 0.221618 0.798576 0.691116
Si Si4 0.132113 0.961569 0.649920
Si Si5 0.459596 0.624114 0.813638
Si Si6 0.076421 0.326788 0.572155
O O1 0.373823 0.301058 0.951142
O O2 0.411577 0.145076 0.935872
O O3 0.330487 0.234088 0.852781
O O4 0.204621 0.196679 0.939812
O O5 0.424003 0.447054 0.912622
O O6 0.457555 0.396711 0.024312
O O7 0.217221 0.750000 0.750000
O O8 0.145649 0.880789 0.689749
O O9 0.348553 0.823016 0.672441
O O10 0.250000 0.000000 0.633594
O O11 0.061161 0.027333 0.686181
O O12 0.500000 0.649942 0.750000
O O13 0.553696 0.643939 0.862077
O O14 0.000000 0.250000 0.556460
#
# Coordination Sequence:
#
# PCOD8282192 Si02
#       6
#    16  16  16  16  16  16
#     4  10  20  36  58  96 124 154 205 267 309 359
#     4  10  22  38  63  89 125 164 206 258 314 372
#     4  10  20  37  64  91 119 163 216 260 309 367
#     4   9  22  43  61  85 127 173 207 251 322 382
#     4  11  24  39  60  90 127 167 208 258 314 380
#     4  12  22  36  64  96 125 161 207 266 319 366
#
# _framework density 21.253677
#
# number of rings (size 3 to 8) (size 9 to 14) (size 15 to 20)
#    0.000    1.667    3.333    1.500    0.000    2.000 
#    0.000    8.333    0.000    0.000    0.000    0.000 
#    0.000    0.000    0.000    0.000    0.000    0.000 
#
# Total GULP energy -594939.462736 kJ/mol
# GULP energy per Si atom -12394.572140 kJ/mol
# Density = 2.120530 g / cm^3
# Si number density = 21.253677 Si / 1000 Ang^3
#
#
#
# Elastic Constant Matrix: (Units=GPa)
#
#
# Indices 1 2 3 4 5 6 
#
# 1 124.9637 27.4972 40.8143 0.0000 0.0000 0.0000
# 2 27.4972 54.4636 29.2026 0.0000 0.0000 0.0000
# 3 40.8143 29.2026 139.2751 0.0000 0.0000 0.0000
# 4 0.0000 0.0000 0.0000 27.3881 0.0000 0.0000
# 5 0.0000 0.0000 0.0000 0.0000 22.8397 0.0000
# 6 0.0000 0.0000 0.0000 0.0000 0.0000 15.1742
#
#
#
# Elastic Compliance Matrix: (Units=1/GPa)
#
#
# Indices 1 2 3 4 5 6 
#
# 1 0.009471 -0.003711 -0.001997 0.000000 0.000000 0.000000
# 2 -0.003711 0.022140 -0.003555 0.000000 0.000000 0.000000
# 3 -0.001997 -0.003555 0.008511 0.000000 0.000000 0.000000
# 4 0.000000 0.000000 0.000000 0.036512 0.000000 0.000000
# 5 0.000000 0.000000 0.000000 0.000000 0.043783 0.000000
# 6 0.000000 0.000000 0.000000 0.000000 0.000000 0.065901
#
#
# Mechanical properties :
#
#
# Convention : Reuss Voigt Hill
#
# Bulk Modulus (GPa) = 46.30442 57.08120 51.69281
# Shear Modulus (GPa) = 23.57996 27.82628 25.70312
#
# Velocity S-wave (km/s) = 3.33446 3.62227 3.48134
# Velocity P-wave (km/s) = 6.05464 6.66408 6.36665
#
# Compressibility (1/GPa) = 0.02159621
#
# Stress axis : x y z
#
# Youngs Moduli (GPa) = 105.58282 45.16620 117.49829
#
# Poissons Ratio (x) = 0.16760 0.23470
# Poissons Ratio (y) = 0.39179 0.41769
# Poissons Ratio (z) = 0.21090 0.16056
#
# Static dielectric constant tensor:
#      x y z
#    x 3.928100 0.000000 0.000000 
#    y 0.000000 3.774580 0.000000 
#    z 0.000000 0.000000 4.000960 
# 
# 
# High freq. dielectric constant tensor:
#      x y z
#    x 1.834430 0.000000 0.000000 
#    y 0.000000 1.809980 0.000000 
#    z 0.000000 0.000000 1.845930 
# 
# From -- ./inp_files/44403.got.cif
#   From: 2010.03.12/outbox.cif.g09.slc.cpg/sg68_23_cif.got.tgz:44403.got - 2010.04.10 23:14:56.
