data_PCOD8282838
_publ_section_title
;
Structure prediction by ZEFSAII (Michael W. Deem and Ramdas Pophale) SiO2 
 PCOD8282838
Probable space group: C C C A
;
_chemical_formula_sum "Si O2"
_cell_formula_units_Z 104
_cell_length_a 8.901830
_cell_length_b 24.372066
_cell_length_c 23.872564
_cell_angle_alpha 90.000000
_cell_angle_beta 90.000000
_cell_angle_gamma 90.000000
_cell_volume 5179.295715
_symmetry_space_group_name_H-M "C C C A"
_symmetry_group_IT_number 68
_space_group.IT_coordinate_system_code '2'
_symmetry_cell_setting 'orthorhombic'
loop_
_space_group_symop_operation_xyz
x,y,z
-x,1/2-y,z
x,1/2-y,1/2-z
-x,y,1/2-z
-x,-y,-z
x,1/2+y,-z
-x,1/2+y,1/2+z
x,-y,1/2+z
1/2+x,1/2+y,z
1/2-x,-y,z
1/2+x,-y,1/2-z
1/2-x,1/2+y,1/2-z
1/2-x,1/2-y,-z
1/2+x,y,-z
1/2-x,y,1/2+z
1/2+x,1/2-y,1/2+z
loop_
_atom_site_type_symbol
_atom_site_label
_atom_site_fract_x
_atom_site_fract_y
_atom_site_fract_z
Si Si1 0.674656 0.313316 0.759520
Si Si2 0.267713 0.769204 0.575311
Si Si3 0.000000 0.250000 0.494374
Si Si4 0.180659 0.557417 0.433897
Si Si5 0.185245 0.843675 0.371462
Si Si6 0.653747 0.646737 0.658913
Si Si7 0.828196 0.442218 0.951410
O O1 0.723727 0.250000 0.750000
O O2 0.500000 0.322066 0.750000
O O3 0.694916 0.332214 0.823270
O O4 0.775022 0.354758 0.720923
O O5 0.400486 0.790822 0.533664
O O6 0.300008 0.704484 0.582661
O O7 0.271809 0.798124 0.634517
O O8 0.110470 0.783789 0.545974
O O9 0.250000 0.500000 0.414381
O O10 0.202693 0.596464 0.380371
O O11 0.273377 0.579412 0.487767
O O12 0.007553 0.550873 0.451667
O O13 0.221970 0.900018 0.403213
O O14 0.024655 0.846234 0.340435
O O15 0.750000 0.500000 0.937576
#
# Coordination Sequence:
#
# PCOD8282838 Si02
#       7
#    16  16   8  16  16  16  16
#     4  11  25  41  60  89 120 157 206 246 299 354
#     4  11  22  37  54  88 121 159 190 239 300 357
#     4  10  24  34  52  84 130 152 196 234 296 364
#     4  10  22  39  61  91 121 159 200 242 297 355
#     4  11  23  39  62  86 119 160 198 244 299 359
#     4  11  23  39  62  86 119 160 198 244 299 359
#     4  10  22  39  61  91 121 159 200 242 297 355
#
# _framework density 20.079951000000001
#
# number of rings (size 3 to 8) (size 9 to 14) (size 15 to 20)
#    0.000    1.385    3.077    2.308    6.462    3.077 
#    0.000    0.769    0.000    0.000    0.000    0.000 
#    0.000    0.000    0.000    0.000    0.000    0.000 
#
# Total GULP energy -644629.072353 kJ/mol
# GULP energy per Si atom -12396.712930 kJ/mol
# Density = 2.003425 g / cm^3
# Si number density = 20.079951 Si / 1000 Ang^3
#
#
#
# Elastic Constant Matrix: (Units=GPa)
#
#
# Indices 1 2 3 4 5 6 
#
# 1 114.9278 37.0742 42.9972 0.0000 0.0000 0.0000
# 2 37.0742 89.6248 44.6255 0.0000 0.0000 0.0000
# 3 42.9972 44.6255 98.9027 0.0000 0.0000 0.0000
# 4 0.0000 0.0000 0.0000 27.2774 0.0000 0.0000
# 5 0.0000 0.0000 0.0000 0.0000 33.5926 0.0000
# 6 0.0000 0.0000 0.0000 0.0000 0.0000 21.3317
#
#
#
# Elastic Compliance Matrix: (Units=1/GPa)
#
#
# Indices 1 2 3 4 5 6 
#
# 1 0.010900 -0.002772 -0.003488 0.000000 0.000000 0.000000
# 2 -0.002772 0.015096 -0.005606 0.000000 0.000000 0.000000
# 3 -0.003488 -0.005606 0.014157 0.000000 0.000000 0.000000
# 4 0.000000 0.000000 0.000000 0.036660 0.000000 0.000000
# 5 0.000000 0.000000 0.000000 0.000000 0.029768 0.000000
# 6 0.000000 0.000000 0.000000 0.000000 0.000000 0.046879
#
#
# Mechanical properties :
#
#
# Convention : Reuss Voigt Hill
#
# Bulk Modulus (GPa) = 60.90048 61.42769 61.16409
# Shear Modulus (GPa) = 27.37229 28.35757 27.86493
#
# Velocity S-wave (km/s) = 3.69611 3.76205 3.72922
# Velocity P-wave (km/s) = 6.97208 7.03766 7.00494
#
# Compressibility (1/GPa) = 0.01642023
#
# Stress axis : x y z
#
# Youngs Moduli (GPa) = 91.74005 66.24372 70.63748
#
# Poissons Ratio (x) = 0.18365 0.24638
# Poissons Ratio (y) = 0.25434 0.39600
# Poissons Ratio (z) = 0.31998 0.37137
#
# Static dielectric constant tensor:
#      x y z
#    x 3.754740 0.000000 0.000000 
#    y 0.000000 3.482800 0.000000 
#    z 0.000000 0.000000 3.603930 
# 
# 
# High freq. dielectric constant tensor:
#      x y z
#    x 1.799210 0.000000 0.000000 
#    y 0.000000 1.757780 0.000000 
#    z 0.000000 0.000000 1.788900 
# 
# From -- ./inp_files/8297.got.cif
#   From: 2010.03.12/outbox.cif.g09.slc.cpg/sg68_5_cif.got.tgz:8297.got - 2010.04.10 23:14:56.
