data_PCOD8282543
_publ_section_title
;
Structure prediction by ZEFSAII (Michael W. Deem and Ramdas Pophale) SiO2 
 PCOD8282543
Probable space group: C C C A
;
_chemical_formula_sum "Si O2"
_cell_formula_units_Z 64
_cell_length_a 21.962422
_cell_length_b 8.551215
_cell_length_c 16.910190
_cell_angle_alpha 90.000000
_cell_angle_beta 90.000000
_cell_angle_gamma 90.000000
_cell_volume 3175.824869
_symmetry_space_group_name_H-M "C C C A"
_symmetry_group_IT_number 68
_space_group.IT_coordinate_system_code '2'
_symmetry_cell_setting 'orthorhombic'
loop_
_space_group_symop_operation_xyz
x,y,z
-x,1/2-y,z
x,1/2-y,1/2-z
-x,y,1/2-z
-x,-y,-z
x,1/2+y,-z
-x,1/2+y,1/2+z
x,-y,1/2+z
1/2+x,1/2+y,z
1/2-x,-y,z
1/2+x,-y,1/2-z
1/2-x,1/2+y,1/2-z
1/2-x,1/2-y,-z
1/2+x,y,-z
1/2-x,y,1/2+z
1/2+x,1/2-y,1/2+z
loop_
_atom_site_type_symbol
_atom_site_label
_atom_site_fract_x
_atom_site_fract_y
_atom_site_fract_z
Si Si1 0.750000 0.000000 0.299899
Si Si2 0.839018 0.250000 0.250000
Si Si3 0.199494 0.688401 0.439373
Si Si4 0.884599 0.552857 0.478699
Si Si5 0.567121 0.268398 0.889997
O O1 0.799740 0.088668 0.245444
O O2 0.725275 0.141671 0.354132
O O3 0.880501 0.261416 0.173033
O O4 0.250000 0.750000 0.500000
O O5 0.148052 0.818520 0.423525
O O6 0.169553 0.536245 0.477342
O O7 0.927579 0.639365 0.541562
O O8 0.926118 0.442288 0.425000
O O9 0.500000 0.250000 0.851982
#
# Coordination Sequence:
#
# PCOD8282543 Si02
#       5
#     8   8  16  16  16
#     4  12  24  40  60  92 140 168 212 260 338 410
#     4  12  27  42  62  96 131 174 206 268 334 396
#     4  11  18  36  61  96 130 162 203 267 323 391
#     4  10  21  37  65  97 122 161 223 261 321 376
#     4  11  23  44  66  93 127 173 220 267 317 384
#
# _framework density 20.152244
#
# number of rings (size 3 to 8) (size 9 to 14) (size 15 to 20)
#    0.000    1.000    5.000    2.625    3.500    0.000 
#    0.000    0.000    0.000    0.000    0.000    0.000 
#    0.000    0.000    0.000    0.000    0.000    0.000 
#
# Total GULP energy -396814.633849 kJ/mol
# GULP energy per Si atom -12400.457308 kJ/mol
# Density = 2.010638 g / cm^3
# Si number density = 20.152244 Si / 1000 Ang^3
#
#
#
# Elastic Constant Matrix: (Units=GPa)
#
#
# Indices 1 2 3 4 5 6 
#
# 1 123.1879 49.7975 30.8948 0.0000 0.0000 0.0000
# 2 49.7975 118.6135 31.2440 0.0000 0.0000 0.0000
# 3 30.8948 31.2440 48.4481 0.0000 0.0000 0.0000
# 4 0.0000 0.0000 0.0000 34.6256 0.0000 0.0000
# 5 0.0000 0.0000 0.0000 0.0000 19.6364 0.0000
# 6 0.0000 0.0000 0.0000 0.0000 0.0000 17.5691
#
#
#
# Elastic Compliance Matrix: (Units=1/GPa)
#
#
# Indices 1 2 3 4 5 6 
#
# 1 0.010591 -0.003213 -0.004681 0.000000 0.000000 0.000000
# 2 -0.003213 0.011131 -0.005129 0.000000 0.000000 0.000000
# 3 -0.004681 -0.005129 0.026934 0.000000 0.000000 0.000000
# 4 0.000000 0.000000 0.000000 0.028880 0.000000 0.000000
# 5 0.000000 0.000000 0.000000 0.000000 0.050926 0.000000
# 6 0.000000 0.000000 0.000000 0.000000 0.000000 0.056918
#
#
# Mechanical properties :
#
#
# Convention : Reuss Voigt Hill
#
# Bulk Modulus (GPa) = 44.23278 57.12468 50.67873
# Shear Modulus (GPa) = 22.83491 26.25376 24.54434
#
# Velocity S-wave (km/s) = 3.36984 3.61331 3.49369
# Velocity P-wave (km/s) = 6.09410 6.76876 6.44027
#
# Compressibility (1/GPa) = 0.02260767
#
# Stress axis : x y z
#
# Youngs Moduli (GPa) = 94.42320 89.84070 37.12810
#
# Poissons Ratio (x) = 0.28867 0.17381
# Poissons Ratio (y) = 0.30339 0.19044
# Poissons Ratio (z) = 0.44203 0.46082
#
# Static dielectric constant tensor:
#      x y z
#    x 3.651750 0.000000 0.000000 
#    y 0.000000 3.869240 0.000000 
#    z 0.000000 0.000000 3.525910 
# 
# 
# High freq. dielectric constant tensor:
#      x y z
#    x 1.789450 0.000000 0.000000 
#    y 0.000000 1.805120 0.000000 
#    z 0.000000 0.000000 1.764450 
# 
# From -- ./inp_files/19289.got.cif
#   From: 2010.03.12/outbox.cif.g09.slc.cpg/sg68_10_cif.got.tgz:19289.got - 2010.04.10 23:14:56.
