data_PCOD8282870
_publ_section_title
;
Structure prediction by ZEFSAII (Michael W. Deem and Ramdas Pophale) SiO2 
 PCOD8282870
Probable space group: C C C A
;
_chemical_formula_sum "Si O2"
_cell_formula_units_Z 116
_cell_length_a 24.618543
_cell_length_b 9.455230
_cell_length_c 23.328639
_cell_angle_alpha 90.000000
_cell_angle_beta 90.000000
_cell_angle_gamma 90.000000
_cell_volume 5430.300296
_symmetry_space_group_name_H-M "C C C A"
_symmetry_group_IT_number 68
_space_group.IT_coordinate_system_code '2'
_symmetry_cell_setting 'orthorhombic'
loop_
_space_group_symop_operation_xyz
x,y,z
-x,1/2-y,z
x,1/2-y,1/2-z
-x,y,1/2-z
-x,-y,-z
x,1/2+y,-z
-x,1/2+y,1/2+z
x,-y,1/2+z
1/2+x,1/2+y,z
1/2-x,-y,z
1/2+x,-y,1/2-z
1/2-x,1/2+y,1/2-z
1/2-x,1/2-y,-z
1/2+x,y,-z
1/2-x,y,1/2+z
1/2+x,1/2-y,1/2+z
loop_
_atom_site_type_symbol
_atom_site_label
_atom_site_fract_x
_atom_site_fract_y
_atom_site_fract_z
Si Si1 0.860713 0.201232 0.312770
Si Si2 0.409276 0.043686 0.455056
Si Si3 0.056327 0.467285 0.823857
Si Si4 0.204002 0.612670 0.036099
Si Si5 0.944903 0.161058 0.947936
Si Si6 0.500000 0.750000 0.750000
Si Si7 0.962141 0.632674 0.861863
Si Si8 0.272421 0.156579 0.589049
O O1 0.839570 0.250000 0.250000
O O2 0.907766 0.306894 0.334281
O O3 0.810915 0.201626 0.357616
O O4 0.887923 0.046118 0.306713
O O5 0.436606 0.967764 0.508805
O O6 0.446946 0.997990 0.402457
O O7 0.346139 0.012269 0.444150
O O8 0.402262 0.214450 0.460948
O O9 0.063479 0.412380 0.887820
O O10 0.044769 0.334004 0.785280
O O11 0.003558 0.569068 0.814962
O O12 0.250000 0.500000 0.031319
O O13 0.220732 0.736479 0.081284
O O14 0.193883 0.668692 0.970719
O O15 0.000000 0.250000 0.954784
O O16 0.000000 0.750000 0.894860
O O17 0.250000 0.000000 0.601936
#
# Coordination Sequence:
#
# PCOD8282870 Si02
#       8
#    16  16  16  16  16   4  16  16
#     4  11  24  42  70  96 127 173 228 278 340 390
#     4  12  25  37  64  95 137 178 213 271 339 408
#     4  11  23  40  64  94 132 178 226 277 322 398
#     4  10  23  41  66  98 127 170 222 273 334 406
#     4  12  25  40  59 101 142 181 218 268 338 407
#     4  12  20  40  62  84 136 172 224 282 314 396
#     4  10  22  40  62  94 131 173 220 266 321 401
#     4  10  23  44  68  94 129 165 222 283 335 399
#
# _framework density 21.361616999999999
#
# number of rings (size 3 to 8) (size 9 to 14) (size 15 to 20)
#    0.000    1.103    2.069    3.310   13.517    1.931 
#    0.000    2.069    1.517    0.000    0.000    0.000 
#    0.000    0.000    0.000    0.000    0.000    0.000 
#
# Total GULP energy -718578.981475 kJ/mol
# GULP energy per Si atom -12389.292784 kJ/mol
# Density = 2.131300 g / cm^3
# Si number density = 21.361617 Si / 1000 Ang^3
#
#
#
# Elastic Constant Matrix: (Units=GPa)
#
#
# Indices 1 2 3 4 5 6 
#
# 1 94.7364 30.8537 57.0671 0.0000 0.0000 0.0000
# 2 30.8537 104.2791 49.7078 0.0000 0.0000 0.0000
# 3 57.0671 49.7078 117.7240 0.0000 0.0000 0.0000
# 4 0.0000 0.0000 0.0000 138.7381 0.0000 0.0000
# 5 0.0000 0.0000 0.0000 0.0000 35.5302 0.0000
# 6 0.0000 0.0000 0.0000 0.0000 0.0000 -6.2726
#
#
#
# Elastic Compliance Matrix: (Units=1/GPa)
#
#
# Indices 1 2 3 4 5 6 
#
# 1 0.015032 -0.001220 -0.006772 0.000000 0.000000 0.000000
# 2 -0.001220 0.012105 -0.004520 0.000000 0.000000 0.000000
# 3 -0.006772 -0.004520 0.013686 0.000000 0.000000 0.000000
# 4 0.000000 0.000000 0.000000 0.007208 0.000000 0.000000
# 5 0.000000 0.000000 0.000000 0.000000 0.028145 0.000000
# 6 0.000000 0.000000 0.000000 0.000000 0.000000 -0.159423
#
#
# Mechanical properties :
#
#
# Convention : Reuss Voigt Hill
#
# Bulk Modulus (GPa) = 63.29204 65.77741 64.53473
# Shear Modulus (GPa) = -94.41464 45.53986 -24.43739
#
# Velocity S-wave (km/s) = -6.65539 4.62221 -3.38596
# Velocity P-wave (km/s) = 5.41902 7.70361 3.87168
#
# Compressibility (1/GPa) = 0.01579977
#
# Stress axis : x y z
#
# Youngs Moduli (GPa) = 66.52467 82.60962 73.06909
#
# Poissons Ratio (x) = 0.10075 0.49481
# Poissons Ratio (y) = 0.08113 0.33028
# Poissons Ratio (z) = 0.45049 0.37340
#
# Static dielectric constant tensor:
#      x y z
#    x 5.300500 0.000000 0.000000 
#    y 0.000000 5.064660 0.000000 
#    z 0.000000 0.000000 3.850780 
# 
# 
# High freq. dielectric constant tensor:
#      x y z
#    x 1.836640 0.000000 0.000000 
#    y 0.000000 1.860070 0.000000 
#    z 0.000000 0.000000 1.817110 
# 
# From -- ./inp_files/47313.got.cif
#   From: 2010.03.12/outbox.cif.g09.slc.cpg/sg68_24_cif.got.tgz:47313.got - 2010.04.10 23:14:56.
