data_PCOD8282961
_publ_section_title
;
Structure prediction by ZEFSAII (Michael W. Deem and Ramdas Pophale) SiO2 
 PCOD8282961
Probable space group: C C C A
;
_chemical_formula_sum "Si O2"
_cell_formula_units_Z 64
_cell_length_a 11.926967
_cell_length_b 7.546813
_cell_length_c 32.090489
_cell_angle_alpha 90.000000
_cell_angle_beta 90.000000
_cell_angle_gamma 90.000000
_cell_volume 2888.483836
_symmetry_space_group_name_H-M "C C C A"
_symmetry_group_IT_number 68
_space_group.IT_coordinate_system_code '2'
_symmetry_cell_setting 'orthorhombic'
loop_
_space_group_symop_operation_xyz
x,y,z
-x,1/2-y,z
x,1/2-y,1/2-z
-x,y,1/2-z
-x,-y,-z
x,1/2+y,-z
-x,1/2+y,1/2+z
x,-y,1/2+z
1/2+x,1/2+y,z
1/2-x,-y,z
1/2+x,-y,1/2-z
1/2-x,1/2+y,1/2-z
1/2-x,1/2-y,-z
1/2+x,y,-z
1/2-x,y,1/2+z
1/2+x,1/2-y,1/2+z
loop_
_atom_site_type_symbol
_atom_site_label
_atom_site_fract_x
_atom_site_fract_y
_atom_site_fract_z
Si Si1 0.740617 0.704717 0.795684
Si Si2 0.750000 0.000000 0.516773
Si Si3 0.094538 0.105000 0.142143
Si Si4 0.500000 0.250000 0.323168
Si Si5 0.624458 0.317221 0.550628
O O1 0.790220 0.750000 0.750000
O O2 0.750000 0.500000 0.808815
O O3 0.802502 0.840450 0.827331
O O4 0.607626 0.731375 0.793952
O O5 0.714988 0.159690 0.546623
O O6 0.854680 0.043600 0.486423
O O7 0.144634 0.096470 0.095702
O O8 0.000000 0.250000 0.147997
O O9 0.030167 0.920210 0.148847
O O10 0.500000 0.250000 0.545996
#
# Coordination Sequence:
#
# PCOD8282961 Si02
#       5
#    16   8  16   8  16
#     4  12  26  46  71 103 140 179 233 286 342 415
#     4  10  22  42  68  92 136 176 222 282 342 414
#     4  11  25  46  71 104 139 184 230 286 347 412
#     4  12  25  46  70 100 140 186 228 284 348 404
#     4  10  23  42  65 100 132 176 225 278 344 406
#
# _framework density 22.156953000000001
#
# number of rings (size 3 to 8) (size 9 to 14) (size 15 to 20)
#    0.000    1.000    2.500    3.375    5.250    0.500 
#   11.250    0.000    0.000    0.000    0.000    0.000 
#    0.000    0.000    0.000    0.000    0.000    0.000 
#
# Total GULP energy -396667.125034 kJ/mol
# GULP energy per Si atom -12395.847657 kJ/mol
# Density = 2.210652 g / cm^3
# Si number density = 22.156953 Si / 1000 Ang^3
#
#
#
# Elastic Constant Matrix: (Units=GPa)
#
#
# Indices 1 2 3 4 5 6 
#
# 1 113.0967 24.0911 35.1719 0.0000 0.0000 0.0000
# 2 24.0911 145.1598 42.0209 0.0000 0.0000 0.0000
# 3 35.1719 42.0209 125.0645 0.0000 0.0000 0.0000
# 4 0.0000 0.0000 0.0000 13.5282 0.0000 0.0000
# 5 0.0000 0.0000 0.0000 0.0000 42.6716 0.0000
# 6 0.0000 0.0000 0.0000 0.0000 0.0000 36.9740
#
#
#
# Elastic Compliance Matrix: (Units=1/GPa)
#
#
# Indices 1 2 3 4 5 6 
#
# 1 0.009799 -0.000918 -0.002447 0.000000 0.000000 0.000000
# 2 -0.000918 0.007717 -0.002335 0.000000 0.000000 0.000000
# 3 -0.002447 -0.002335 0.009469 0.000000 0.000000 0.000000
# 4 0.000000 0.000000 0.000000 0.073920 0.000000 0.000000
# 5 0.000000 0.000000 0.000000 0.000000 0.023435 0.000000
# 6 0.000000 0.000000 0.000000 0.000000 0.000000 0.027046
#
#
# Mechanical properties :
#
#
# Convention : Reuss Voigt Hill
#
# Bulk Modulus (GPa) = 64.16587 65.09876 64.63231
# Shear Modulus (GPa) = 29.76556 37.43723 33.60139
#
# Velocity S-wave (km/s) = 3.66921 4.11498 3.89847
# Velocity P-wave (km/s) = 6.85371 7.21262 7.03546
#
# Compressibility (1/GPa) = 0.01558461
#
# Stress axis : x y z
#
# Youngs Moduli (GPa) = 102.05575 129.58141 105.61213
#
# Poissons Ratio (x) = 0.11892 0.25846
# Poissons Ratio (y) = 0.09366 0.24659
# Poissons Ratio (z) = 0.24976 0.30255
#
# Static dielectric constant tensor:
#      x y z
#    x 4.062830 0.000000 0.000000 
#    y 0.000000 4.270040 0.000000 
#    z 0.000000 0.000000 3.955120 
# 
# 
# High freq. dielectric constant tensor:
#      x y z
#    x 1.883590 0.000000 0.000000 
#    y 0.000000 1.887190 0.000000 
#    z 0.000000 0.000000 1.868650 
# 
# From -- ./inp_files/54411.got.cif
#   From: 2010.03.12/outbox.cif.g09.slc.cpg/sg68_28_cif.got.tgz:54411.got - 2010.04.10 23:14:56.
