data_PCOD8282178
_publ_section_title
;
Structure prediction by ZEFSAII (Michael W. Deem and Ramdas Pophale) SiO2 
 PCOD8282178
Probable space group: C C C A
;
_chemical_formula_sum "Si O2"
_cell_formula_units_Z 96
_cell_length_a 24.702180
_cell_length_b 8.783081
_cell_length_c 21.755509
_cell_angle_alpha 90.000000
_cell_angle_beta 90.000000
_cell_angle_gamma 90.000000
_cell_volume 4720.102380
_symmetry_space_group_name_H-M "C C C A"
_symmetry_group_IT_number 68
_space_group.IT_coordinate_system_code '2'
_symmetry_cell_setting 'orthorhombic'
loop_
_space_group_symop_operation_xyz
x,y,z
-x,1/2-y,z
x,1/2-y,1/2-z
-x,y,1/2-z
-x,-y,-z
x,1/2+y,-z
-x,1/2+y,1/2+z
x,-y,1/2+z
1/2+x,1/2+y,z
1/2-x,-y,z
1/2+x,-y,1/2-z
1/2-x,1/2+y,1/2-z
1/2-x,1/2-y,-z
1/2+x,y,-z
1/2-x,y,1/2+z
1/2+x,1/2-y,1/2+z
loop_
_atom_site_type_symbol
_atom_site_label
_atom_site_fract_x
_atom_site_fract_y
_atom_site_fract_z
Si Si1 0.651437 0.592475 0.108431
Si Si2 0.939945 0.209826 0.048704
Si Si3 0.138188 0.784850 0.179078
Si Si4 0.403052 0.365880 0.068442
Si Si5 0.241688 0.820667 0.688092
Si Si6 0.209761 0.615146 0.013429
O O1 0.599246 0.688471 0.089741
O O2 0.632681 0.459931 0.155406
O O3 0.694370 0.708840 0.139023
O O4 0.682683 0.534309 0.047249
O O5 0.000000 0.250000 0.070982
O O6 0.926917 0.032904 0.058414
O O7 0.934444 0.248944 0.976244
O O8 0.122370 0.750000 0.250000
O O9 0.094815 0.685362 0.139688
O O10 0.201562 0.740220 0.169578
O O11 0.339300 0.342848 0.057100
O O12 0.218690 0.750000 0.750000
O O13 0.250000 0.000000 0.696214
O O14 0.250000 0.500000 0.047448
O O15 0.250000 0.750000 0.000000
#
# Coordination Sequence:
#
# PCOD8282178 Si02
#       6
#    16  16  16  16  16  16
#     4  10  20  36  56  83 118 155 196 243 296 354
#     4  11  24  41  64  88 113 150 198 260 315 357
#     4  10  21  38  60  87 123 163 198 235 289 365
#     4  11  22  38  60  88 117 154 197 242 302 364
#     4   9  18  32  53  82 120 160 195 232 281 350
#     4  11  19  31  53  84 121 152 183 234 295 358
#
# _framework density 20.338542
#
# number of rings (size 3 to 8) (size 9 to 14) (size 15 to 20)
#    0.000    1.667    0.000    8.000    0.000    4.000 
#    0.000    3.333    0.000    8.000    0.000    0.000 
#    0.000    0.000    0.000    0.000    0.000    0.000 
#
# Total GULP energy -594674.060204 kJ/mol
# GULP energy per Si atom -12389.042921 kJ/mol
# Density = 2.029225 g / cm^3
# Si number density = 20.338542 Si / 1000 Ang^3
#
#
#
# Elastic Constant Matrix: (Units=GPa)
#
#
# Indices 1 2 3 4 5 6 
#
# 1 105.3268 36.1210 35.3699 0.0000 0.0000 0.0000
# 2 36.1210 94.8262 38.9961 0.0000 0.0000 0.0000
# 3 35.3699 38.9961 128.3777 0.0000 0.0000 0.0000
# 4 0.0000 0.0000 0.0000 29.0082 0.0000 0.0000
# 5 0.0000 0.0000 0.0000 0.0000 13.1967 0.0000
# 6 0.0000 0.0000 0.0000 0.0000 0.0000 28.0399
#
#
#
# Elastic Compliance Matrix: (Units=1/GPa)
#
#
# Indices 1 2 3 4 5 6 
#
# 1 0.011387 -0.003482 -0.002079 0.000000 0.000000 0.000000
# 2 -0.003482 0.013116 -0.003025 0.000000 0.000000 0.000000
# 3 -0.002079 -0.003025 0.009281 0.000000 0.000000 0.000000
# 4 0.000000 0.000000 0.000000 0.034473 0.000000 0.000000
# 5 0.000000 0.000000 0.000000 0.000000 0.075776 0.000000
# 6 0.000000 0.000000 0.000000 0.000000 0.000000 0.035664
#
#
# Mechanical properties :
#
#
# Convention : Reuss Voigt Hill
#
# Bulk Modulus (GPa) = 60.20067 61.05607 60.62837
# Shear Modulus (GPa) = 24.70276 28.58521 26.64399
#
# Velocity S-wave (km/s) = 3.48886 3.75303 3.62335
# Velocity P-wave (km/s) = 6.77444 6.99037 6.88326
#
# Compressibility (1/GPa) = 0.01661111
#
# Stress axis : x y z
#
# Youngs Moduli (GPa) = 87.82116 76.24308 107.74457
#
# Poissons Ratio (x) = 0.26550 0.22405
# Poissons Ratio (y) = 0.30582 0.32589
# Poissons Ratio (z) = 0.18262 0.23061
#
# Static dielectric constant tensor:
#      x y z
#    x 3.906670 0.000000 0.000000 
#    y 0.000000 3.467780 0.000000 
#    z 0.000000 0.000000 3.842390 
# 
# 
# High freq. dielectric constant tensor:
#      x y z
#    x 1.781150 0.000000 0.000000 
#    y 0.000000 1.791440 0.000000 
#    z 0.000000 0.000000 1.787610 
# 
# From -- ./inp_files/41236.got.cif
#   From: 2010.03.12/outbox.cif.g09.slc.cpg/sg68_21_cif.got.tgz:41236.got - 2010.04.10 23:14:56.
