data_PCOD8282059
_publ_section_title
;
Structure prediction by ZEFSAII (Michael W. Deem and Ramdas Pophale) SiO2 
 PCOD8282059
Probable space group: C C C A
;
_chemical_formula_sum "Si O2"
_cell_formula_units_Z 100
_cell_length_a 20.604451
_cell_length_b 8.807993
_cell_length_c 27.422428
_cell_angle_alpha 90.000000
_cell_angle_beta 90.000000
_cell_angle_gamma 90.000000
_cell_volume 4976.728089
_symmetry_space_group_name_H-M "C C C A"
_symmetry_group_IT_number 68
_space_group.IT_coordinate_system_code '2'
_symmetry_cell_setting 'orthorhombic'
loop_
_space_group_symop_operation_xyz
x,y,z
-x,1/2-y,z
x,1/2-y,1/2-z
-x,y,1/2-z
-x,-y,-z
x,1/2+y,-z
-x,1/2+y,1/2+z
x,-y,1/2+z
1/2+x,1/2+y,z
1/2-x,-y,z
1/2+x,-y,1/2-z
1/2-x,1/2+y,1/2-z
1/2-x,1/2-y,-z
1/2+x,y,-z
1/2-x,y,1/2+z
1/2+x,1/2-y,1/2+z
loop_
_atom_site_type_symbol
_atom_site_label
_atom_site_fract_x
_atom_site_fract_y
_atom_site_fract_z
Si Si1 0.435475 0.404571 0.663281
Si Si2 0.144916 0.085247 0.479980
Si Si3 0.686444 0.910560 0.910547
Si Si4 0.061735 0.084469 0.114953
Si Si5 0.943522 0.151825 0.489807
Si Si6 0.815662 0.942471 0.117399
Si Si7 0.500000 0.750000 0.250000
O O1 0.420327 0.254593 0.631693
O O2 0.503101 0.484060 0.646981
O O3 0.375801 0.520498 0.653922
O O4 0.449732 0.354416 0.718964
O O5 0.182101 0.062557 0.531152
O O6 0.123535 0.259661 0.478380
O O7 0.077614 0.987762 0.476287
O O8 0.185806 0.040774 0.432806
O O9 0.687825 0.734514 0.895827
O O10 0.750000 0.000000 0.891926
O O11 0.624767 0.979016 0.882258
O O12 0.030855 0.087597 0.061072
O O13 0.000000 0.250000 0.516259
O O14 0.750000 0.000000 0.144353
#
# Coordination Sequence:
#
# PCOD8282059 Si02
#       7
#    16  16  16  16  16  16   4
#     4  10  19  40  67  95 115 149 187 237 312 378
#     4  11  22  33  49  77 118 172 218 253 287 333
#     4  11  24  37  52  82 124 176 220 252 290 330
#     4   9  18  35  59  80 117 153 192 251 293 353
#     4  11  18  32  47  75 115 160 205 255 293 329
#     4  12  24  37  59  86 122 165 210 256 292 350
#     4   8  20  40  76  98 120 136 176 236 316 388
#
# _framework density 20.093523000000001
#
# number of rings (size 3 to 8) (size 9 to 14) (size 15 to 20)
#    0.000    1.600    4.800    1.920    2.240    3.200 
#    0.000    0.000    0.000   15.360    0.000    0.000 
#    0.000    0.000    0.000    0.000    0.000    0.000 
#
# Total GULP energy -619518.622932 kJ/mol
# GULP energy per Si atom -12390.372459 kJ/mol
# Density = 2.004779 g / cm^3
# Si number density = 20.093523 Si / 1000 Ang^3
#
#
#
# Elastic Constant Matrix: (Units=GPa)
#
#
# Indices 1 2 3 4 5 6 
#
# 1 143.7951 56.1802 45.4913 0.0000 0.0000 0.0000
# 2 56.1802 98.0882 15.5267 0.0000 0.0000 0.0000
# 3 45.4913 15.5267 55.6724 0.0000 0.0000 0.0000
# 4 0.0000 0.0000 0.0000 12.4583 0.0000 0.0000
# 5 0.0000 0.0000 0.0000 0.0000 17.8360 0.0000
# 6 0.0000 0.0000 0.0000 0.0000 0.0000 40.7665
#
#
#
# Elastic Compliance Matrix: (Units=1/GPa)
#
#
# Indices 1 2 3 4 5 6 
#
# 1 0.011568 -0.005366 -0.007956 0.000000 0.000000 0.000000
# 2 -0.005366 0.013155 0.000716 0.000000 0.000000 0.000000
# 3 -0.007956 0.000716 0.024263 0.000000 0.000000 0.000000
# 4 0.000000 0.000000 0.000000 0.080268 0.000000 0.000000
# 5 0.000000 0.000000 0.000000 0.000000 0.056067 0.000000
# 6 0.000000 0.000000 0.000000 0.000000 0.000000 0.024530
#
#
# Mechanical properties :
#
#
# Convention : Reuss Voigt Hill
#
# Bulk Modulus (GPa) = 42.06217 59.10580 50.58399
# Shear Modulus (GPa) = 20.57726 26.23600 23.40663
#
# Velocity S-wave (km/s) = 3.20359 3.61736 3.41674
# Velocity P-wave (km/s) = 5.88750 6.85027 6.38705
#
# Compressibility (1/GPa) = 0.02377433
#
# Stress axis : x y z
#
# Youngs Moduli (GPa) = 86.44727 76.01657 41.21443
#
# Poissons Ratio (x) = 0.40791 0.32789
# Poissons Ratio (y) = 0.46389 -0.02951
# Poissons Ratio (z) = 0.68775 -0.05442
#
# Static dielectric constant tensor:
#      x y z
#    x 3.850560 0.000000 0.000000 
#    y 0.000000 3.687540 0.000000 
#    z 0.000000 0.000000 3.249430 
# 
# 
# High freq. dielectric constant tensor:
#      x y z
#    x 1.798920 0.000000 0.000000 
#    y 0.000000 1.785740 0.000000 
#    z 0.000000 0.000000 1.724870 
# 
# From -- ./inp_files/55802.got.cif
#   From: 2010.03.12/outbox.cif.g09.slc.cpg/sg68_28_cif.got.tgz:55802.got - 2010.04.10 23:14:56.
