data_PCOD8282457
_publ_section_title
;
Structure prediction by ZEFSAII (Michael W. Deem and Ramdas Pophale) SiO2 
 PCOD8282457
Probable space group: C C C A
;
_chemical_formula_sum "Si O2"
_cell_formula_units_Z 56
_cell_length_a 14.574126
_cell_length_b 8.946840
_cell_length_c 21.542395
_cell_angle_alpha 90.000000
_cell_angle_beta 90.000000
_cell_angle_gamma 90.000000
_cell_volume 2808.964014
_symmetry_space_group_name_H-M "C C C A"
_symmetry_group_IT_number 68
_space_group.IT_coordinate_system_code '2'
_symmetry_cell_setting 'orthorhombic'
loop_
_space_group_symop_operation_xyz
x,y,z
-x,1/2-y,z
x,1/2-y,1/2-z
-x,y,1/2-z
-x,-y,-z
x,1/2+y,-z
-x,1/2+y,1/2+z
x,-y,1/2+z
1/2+x,1/2+y,z
1/2-x,-y,z
1/2+x,-y,1/2-z
1/2-x,1/2+y,1/2-z
1/2-x,1/2-y,-z
1/2+x,y,-z
1/2-x,y,1/2+z
1/2+x,1/2-y,1/2+z
loop_
_atom_site_type_symbol
_atom_site_label
_atom_site_fract_x
_atom_site_fract_y
_atom_site_fract_z
Si Si1 0.000000 0.750000 0.503700
Si Si2 0.709368 0.250000 0.250000
Si Si3 0.566520 0.002722 0.084281
Si Si4 0.047426 0.407159 0.809165
Si Si5 0.750000 0.000000 0.162577
O O1 0.936877 0.642687 0.462273
O O2 0.068099 0.651153 0.546137
O O3 0.652354 0.369432 0.207545
O O4 0.769533 0.352112 0.295782
O O5 0.475065 0.997763 0.128887
O O6 0.659540 0.023598 0.122298
O O7 0.000000 0.250000 0.821821
O O8 0.000000 0.488221 0.750000
#
# Coordination Sequence:
#
# PCOD8282457 Si02
#       5
#     8   8  16  16   8
#     4  10  24  40  60  78 110 166 200 222 272 348
#     4  10  21  34  58  87 116 150 178 227 306 348
#     4  11  21  40  60  84 114 151 197 235 278 335
#     4   9  15  35  61  78 102 158 180 218 279 365
#     4  12  22  36  58  90 120 142 184 250 286 332
#
# _framework density 19.936176
#
# number of rings (size 3 to 8) (size 9 to 14) (size 15 to 20)
#    0.000    2.000    7.143    0.000    0.000    3.429 
#    0.000    0.000    0.000    0.000    0.000    0.000 
#    0.000    0.000    0.000    0.000    0.000    0.000 
#
# Total GULP energy -346931.669132 kJ/mol
# GULP energy per Si atom -12390.416755 kJ/mol
# Density = 1.989080 g / cm^3
# Si number density = 19.936176 Si / 1000 Ang^3
#
#
#
# Elastic Constant Matrix: (Units=GPa)
#
#
# Indices 1 2 3 4 5 6 
#
# 1 59.1282 30.4109 32.4634 0.0000 0.0000 0.0000
# 2 30.4109 107.2583 66.0268 0.0000 0.0000 0.0000
# 3 32.4634 66.0268 130.4651 0.0000 0.0000 0.0000
# 4 0.0000 0.0000 0.0000 25.8934 0.0000 0.0000
# 5 0.0000 0.0000 0.0000 0.0000 12.1439 0.0000
# 6 0.0000 0.0000 0.0000 0.0000 0.0000 12.8283
#
#
#
# Elastic Compliance Matrix: (Units=1/GPa)
#
#
# Indices 1 2 3 4 5 6 
#
# 1 0.020660 -0.003912 -0.003161 0.000000 0.000000 0.000000
# 2 -0.003912 0.014283 -0.006255 0.000000 0.000000 0.000000
# 3 -0.003161 -0.006255 0.011617 0.000000 0.000000 0.000000
# 4 0.000000 0.000000 0.000000 0.038620 0.000000 0.000000
# 5 0.000000 0.000000 0.000000 0.000000 0.082346 0.000000
# 6 0.000000 0.000000 0.000000 0.000000 0.000000 0.077952
#
#
# Mechanical properties :
#
#
# Convention : Reuss Voigt Hill
#
# Bulk Modulus (GPa) = 50.24098 61.62818 55.93458
# Shear Modulus (GPa) = 17.93604 21.36983 19.65294
#
# Velocity S-wave (km/s) = 3.00271 3.27756 3.14314
# Velocity P-wave (km/s) = 6.10551 6.73075 6.42574
#
# Compressibility (1/GPa) = 0.01990407
#
# Stress axis : x y z
#
# Youngs Moduli (GPa) = 48.40307 70.01375 86.08042
#
# Poissons Ratio (x) = 0.27388 0.27210
# Poissons Ratio (y) = 0.18934 0.53844
# Poissons Ratio (z) = 0.15300 0.43794
#
# Static dielectric constant tensor:
#      x y z
#    x 3.475850 0.000000 0.000000 
#    y 0.000000 3.661830 0.000000 
#    z 0.000000 0.000000 4.243850 
# 
# 
# High freq. dielectric constant tensor:
#      x y z
#    x 1.738870 0.000000 0.000000 
#    y 0.000000 1.765830 0.000000 
#    z 0.000000 0.000000 1.796640 
# 
# From -- ./inp_files/35625.got.cif
#   From: 2010.03.12/outbox.cif.g09.slc.cpg/sg68_18_cif.got.tgz:35625.got - 2010.04.10 23:14:56.
