data_PCOD8282978
_publ_section_title
;
Structure prediction by ZEFSAII (Michael W. Deem and Ramdas Pophale) SiO2 
 PCOD8282978
Probable space group: C C C A
;
_chemical_formula_sum "Si O2"
_cell_formula_units_Z 112
_cell_length_a 14.651024
_cell_length_b 27.461801
_cell_length_c 13.732205
_cell_angle_alpha 90.000000
_cell_angle_beta 90.000000
_cell_angle_gamma 90.000000
_cell_volume 5525.063498
_symmetry_space_group_name_H-M "C C C A"
_symmetry_group_IT_number 68
_space_group.IT_coordinate_system_code '2'
_symmetry_cell_setting 'orthorhombic'
loop_
_space_group_symop_operation_xyz
x,y,z
-x,1/2-y,z
x,1/2-y,1/2-z
-x,y,1/2-z
-x,-y,-z
x,1/2+y,-z
-x,1/2+y,1/2+z
x,-y,1/2+z
1/2+x,1/2+y,z
1/2-x,-y,z
1/2+x,-y,1/2-z
1/2-x,1/2+y,1/2-z
1/2-x,1/2-y,-z
1/2+x,y,-z
1/2-x,y,1/2+z
1/2+x,1/2-y,1/2+z
loop_
_atom_site_type_symbol
_atom_site_label
_atom_site_fract_x
_atom_site_fract_y
_atom_site_fract_z
Si Si1 0.351870 0.141837 0.248781
Si Si2 0.161710 0.032344 0.799025
Si Si3 0.999591 0.806611 0.888959
Si Si4 0.999365 0.853038 0.408539
Si Si5 0.940420 0.952411 0.011873
Si Si6 0.149316 0.153700 0.254492
Si Si7 0.591212 0.557053 0.207308
O O1 0.338115 0.083658 0.245277
O O2 0.411167 0.156135 0.343012
O O3 0.406824 0.156614 0.151676
O O4 0.255369 0.171470 0.252633
O O5 0.142082 0.037611 0.913643
O O6 0.250000 0.000000 0.780551
O O7 0.087461 0.998239 0.745947
O O8 0.095556 0.828611 0.850203
O O9 0.000000 0.750000 0.864150
O O10 0.909174 0.829752 0.839801
O O11 0.995783 0.814809 0.003985
O O12 0.997535 0.908172 0.449268
O O13 0.897508 0.939263 0.908431
O O14 0.000000 0.000000 0.000000
O O15 0.164587 0.094663 0.253116
O O16 0.500000 0.581994 0.250000
#
# Coordination Sequence:
#
# PCOD8282978 Si02
#       7
#    16  16  16  16  16  16  16
#     4  10  23  41  63  90 132 173 209 251 314 373
#     4  11  23  36  53  88 130 165 210 255 295 361
#     4  11  24  45  70  96 122 157 207 270 331 382
#     4  10  22  43  62  91 128 169 205 258 316 375
#     4  11  21  35  58  84 118 169 214 245 303 368
#     4  11  21  41  65  94 123 162 210 265 318 377
#     4  12  20  36  58  86 122 167 212 254 308 359
#
# _framework density 20.271260999999999
#
# number of rings (size 3 to 8) (size 9 to 14) (size 15 to 20)
#    0.000    1.143    5.714    1.714    2.000    1.714 
#    2.571    5.714    0.000    0.000    0.000    0.000 
#    0.000    0.000    0.000    0.000    0.000    0.000 
#
# Total GULP energy -694050.954310 kJ/mol
# GULP energy per Si atom -12393.767041 kJ/mol
# Density = 2.022512 g / cm^3
# Si number density = 20.271261 Si / 1000 Ang^3
#
#
#
# Elastic Constant Matrix: (Units=GPa)
#
#
# Indices 1 2 3 4 5 6 
#
# 1 132.7264 22.4337 45.6314 0.0000 0.0000 0.0000
# 2 22.4337 71.3607 24.1995 0.0000 0.0000 0.0000
# 3 45.6314 24.1995 137.3560 0.0000 0.0000 0.0000
# 4 0.0000 0.0000 0.0000 17.1222 0.0000 0.0000
# 5 0.0000 0.0000 0.0000 0.0000 16.7504 0.0000
# 6 0.0000 0.0000 0.0000 0.0000 0.0000 14.3240
#
#
#
# Elastic Compliance Matrix: (Units=1/GPa)
#
#
# Indices 1 2 3 4 5 6 
#
# 1 0.008735 -0.001874 -0.002572 0.000000 0.000000 0.000000
# 2 -0.001874 0.015306 -0.002074 0.000000 0.000000 0.000000
# 3 -0.002572 -0.002074 0.008500 0.000000 0.000000 0.000000
# 4 0.000000 0.000000 0.000000 0.058404 0.000000 0.000000
# 5 0.000000 0.000000 0.000000 0.000000 0.059700 0.000000
# 6 0.000000 0.000000 0.000000 0.000000 0.000000 0.069813
#
#
# Mechanical properties :
#
#
# Convention : Reuss Voigt Hill
#
# Bulk Modulus (GPa) = 51.27798 58.44139 54.85968
# Shear Modulus (GPa) = 20.83351 26.25121 23.54236
#
# Velocity S-wave (km/s) = 3.20931 3.60251 3.41158
# Velocity P-wave (km/s) = 6.25170 6.79679 6.52993
#
# Compressibility (1/GPa) = 0.01950155
#
# Stress axis : x y z
#
# Youngs Moduli (GPa) = 114.47908 65.33486 117.64510
#
# Poissons Ratio (x) = 0.12244 0.30256
# Poissons Ratio (y) = 0.21453 0.24400
# Poissons Ratio (z) = 0.29442 0.13551
#
# Static dielectric constant tensor:
#      x y z
#    x 3.736740 0.000000 0.000000 
#    y 0.000000 3.649820 0.000000 
#    z 0.000000 0.000000 3.900590 
# 
# 
# High freq. dielectric constant tensor:
#      x y z
#    x 1.788730 0.000000 0.000000 
#    y 0.000000 1.783510 0.000000 
#    z 0.000000 0.000000 1.793210 
# 
# From -- ./inp_files/22735.got.cif
#   From: 2010.03.12/outbox.cif.g09.slc.cpg/sg68_12_cif.got.tgz:22735.got - 2010.04.10 23:14:56.
