data_PCOD8282238
_publ_section_title
;
Structure prediction by ZEFSAII (Michael W. Deem and Ramdas Pophale) SiO2 
 PCOD8282238
Probable space group: C C C A
;
_chemical_formula_sum "Si O2"
_cell_formula_units_Z 96
_cell_length_a 17.925265
_cell_length_b 15.299300
_cell_length_c 17.262471
_cell_angle_alpha 90.000000
_cell_angle_beta 90.000000
_cell_angle_gamma 90.000000
_cell_volume 4734.129215
_symmetry_space_group_name_H-M "C C C A"
_symmetry_group_IT_number 68
_space_group.IT_coordinate_system_code '2'
_symmetry_cell_setting 'orthorhombic'
loop_
_space_group_symop_operation_xyz
x,y,z
-x,1/2-y,z
x,1/2-y,1/2-z
-x,y,1/2-z
-x,-y,-z
x,1/2+y,-z
-x,1/2+y,1/2+z
x,-y,1/2+z
1/2+x,1/2+y,z
1/2-x,-y,z
1/2+x,-y,1/2-z
1/2-x,1/2+y,1/2-z
1/2-x,1/2-y,-z
1/2+x,y,-z
1/2-x,y,1/2+z
1/2+x,1/2-y,1/2+z
loop_
_atom_site_type_symbol
_atom_site_label
_atom_site_fract_x
_atom_site_fract_y
_atom_site_fract_z
Si Si1 0.653190 0.674502 0.525783
Si Si2 0.422690 0.006959 0.780960
Si Si3 0.676113 0.641219 0.033647
Si Si4 0.790937 0.911373 0.801397
Si Si5 0.639301 0.336731 0.208283
Si Si6 0.920602 0.990045 0.538487
O O1 0.634554 0.771557 0.495267
O O2 0.737937 0.646871 0.508745
O O3 0.632892 0.670206 0.616060
O O4 0.602947 0.609265 0.476383
O O5 0.500000 0.048609 0.750000
O O6 0.412026 0.915923 0.736078
O O7 0.426983 0.990122 0.871371
O O8 0.353452 0.071569 0.763459
O O9 0.668781 0.634289 0.126229
O O10 0.639558 0.556253 0.996289
O O11 0.725872 0.850545 0.765916
O O12 0.750000 0.000000 0.830701
O O13 0.609458 0.250000 0.250000
O O14 0.000000 0.000000 0.500000
#
# Coordination Sequence:
#
# PCOD8282238 Si02
#       6
#    16  16  16  16  16  16
#     4  10  22  38  62  91 117 151 195 239 286 344
#     4  11  23  38  57  82 114 155 195 234 289 345
#     4  10  20  38  62  88 119 151 188 242 292 339
#     4   9  19  36  58  83 117 154 190 234 284 345
#     4  10  20  37  60  88 117 146 187 238 289 339
#     4  12  24  39  60  84 118 157 196 241 290 346
#
# _framework density 20.278281
#
# number of rings (size 3 to 8) (size 9 to 14) (size 15 to 20)
#    0.000    1.667    0.000    6.500    0.000    9.000 
#    0.000    3.333    0.000    3.500    0.000    0.000 
#    0.000    0.000    0.000    0.000    0.000    0.000 
#
# Total GULP energy -595360.467752 kJ/mol
# GULP energy per Si atom -12403.343078 kJ/mol
# Density = 2.023213 g / cm^3
# Si number density = 20.278281 Si / 1000 Ang^3
#
#
#
# Elastic Constant Matrix: (Units=GPa)
#
#
# Indices 1 2 3 4 5 6 
#
# 1 68.2851 10.6391 38.1236 0.0000 0.0000 0.0000
# 2 10.6391 78.6642 25.2530 0.0000 0.0000 0.0000
# 3 38.1236 25.2530 103.9193 0.0000 0.0000 0.0000
# 4 0.0000 0.0000 0.0000 37.0198 0.0000 0.0000
# 5 0.0000 0.0000 0.0000 0.0000 30.4165 0.0000
# 6 0.0000 0.0000 0.0000 0.0000 0.0000 19.5026
#
#
#
# Elastic Compliance Matrix: (Units=1/GPa)
#
#
# Indices 1 2 3 4 5 6 
#
# 1 0.018425 -0.000349 -0.006675 0.000000 0.000000 0.000000
# 2 -0.000349 0.013794 -0.003224 0.000000 0.000000 0.000000
# 3 -0.006675 -0.003224 0.012855 0.000000 0.000000 0.000000
# 4 0.000000 0.000000 0.000000 0.027013 0.000000 0.000000
# 5 0.000000 0.000000 0.000000 0.000000 0.032877 0.000000
# 6 0.000000 0.000000 0.000000 0.000000 0.000000 0.051275
#
#
# Mechanical properties :
#
#
# Convention : Reuss Voigt Hill
#
# Bulk Modulus (GPa) = 40.68517 44.32223 42.50370
# Shear Modulus (GPa) = 27.03755 29.17799 28.10777
#
# Velocity S-wave (km/s) = 3.65543 3.79737 3.72708
# Velocity P-wave (km/s) = 6.15819 6.41336 6.28707
#
# Compressibility (1/GPa) = 0.02457898
#
# Stress axis : x y z
#
# Youngs Moduli (GPa) = 54.27313 72.49272 77.79121
#
# Poissons Ratio (x) = 0.02532 0.51922
# Poissons Ratio (y) = 0.01896 0.25080
# Poissons Ratio (z) = 0.36225 0.23372
#
# Static dielectric constant tensor:
#      x y z
#    x 3.717990 0.000000 0.000000 
#    y 0.000000 3.785310 0.000000 
#    z 0.000000 0.000000 3.633280 
# 
# 
# High freq. dielectric constant tensor:
#      x y z
#    x 1.790300 0.000000 0.000000 
#    y 0.000000 1.791280 0.000000 
#    z 0.000000 0.000000 1.793790 
# 
# From -- ./inp_files/24446.got.cif
#   From: 2010.03.12/outbox.cif.g09.slc.cpg/sg68_13_cif.got.tgz:24446.got - 2010.04.10 23:14:56.
