data_PCOD8282828
_publ_section_title
;
Structure prediction by ZEFSAII (Michael W. Deem and Ramdas Pophale) SiO2 
 PCOD8282828
Probable space group: C C C A
;
_chemical_formula_sum "Si O2"
_cell_formula_units_Z 72
_cell_length_a 8.834872
_cell_length_b 24.673191
_cell_length_c 15.329279
_cell_angle_alpha 90.000000
_cell_angle_beta 90.000000
_cell_angle_gamma 90.000000
_cell_volume 3341.544978
_symmetry_space_group_name_H-M "C C C A"
_symmetry_group_IT_number 68
_space_group.IT_coordinate_system_code '2'
_symmetry_cell_setting 'orthorhombic'
loop_
_space_group_symop_operation_xyz
x,y,z
-x,1/2-y,z
x,1/2-y,1/2-z
-x,y,1/2-z
-x,-y,-z
x,1/2+y,-z
-x,1/2+y,1/2+z
x,-y,1/2+z
1/2+x,1/2+y,z
1/2-x,-y,z
1/2+x,-y,1/2-z
1/2-x,1/2+y,1/2-z
1/2-x,1/2-y,-z
1/2+x,y,-z
1/2-x,y,1/2+z
1/2+x,1/2-y,1/2+z
loop_
_atom_site_type_symbol
_atom_site_label
_atom_site_fract_x
_atom_site_fract_y
_atom_site_fract_z
Si Si1 0.748545 0.750000 0.750000
Si Si2 0.500000 0.250000 0.609169
Si Si3 0.500000 0.161617 0.250000
Si Si4 0.951223 0.366637 0.073012
Si Si5 0.750000 0.500000 0.181925
Si Si6 0.884692 0.402958 0.590289
Si Si7 0.500000 0.423952 0.750000
O O1 0.648747 0.802951 0.735436
O O2 0.849822 0.742050 0.665396
O O3 0.494235 0.304904 0.551844
O O4 0.516145 0.125067 0.335140
O O5 0.770663 0.370800 0.073894
O O6 0.018757 0.385369 0.166167
O O7 0.018005 0.404853 0.997920
O O8 0.856419 0.535251 0.118859
O O9 0.649509 0.539022 0.242660
#
# Coordination Sequence:
#
# PCOD8282828 Si02
#       7
#     8   8   8  16   8  16   8
#     4  10  22  38  72  96 136 176 224 274 338 402
#     4  11  22  42  66 103 136 184 220 275 332 419
#     4  11  23  44  65 102 133 180 223 279 336 398
#     4  11  26  42  68  99 138 177 227 273 341 400
#     4  10  24  44  68  98 132 178 228 280 342 394
#     4  11  26  44  66 100 136 176 228 281 333 403
#     4  10  23  45  69  98 127 179 223 282 344 402
#
# _framework density 21.546921000000001
#
# number of rings (size 3 to 8) (size 9 to 14) (size 15 to 20)
#    0.000    1.333    2.222    2.000    6.222    8.889 
#    0.000    0.000    0.000    0.000    0.000    0.000 
#    0.000    0.000    0.000    0.000    0.000    0.000 
#
# Total GULP energy -446579.686421 kJ/mol
# GULP energy per Si atom -12404.991289 kJ/mol
# Density = 2.149788 g / cm^3
# Si number density = 21.546921 Si / 1000 Ang^3
#
#
#
# Elastic Constant Matrix: (Units=GPa)
#
#
# Indices 1 2 3 4 5 6 
#
# 1 99.7913 29.6466 40.9899 0.0000 0.0000 0.0000
# 2 29.6466 113.2850 28.2473 0.0000 0.0000 0.0000
# 3 40.9899 28.2473 126.8843 0.0000 0.0000 0.0000
# 4 0.0000 0.0000 0.0000 19.6918 0.0000 0.0000
# 5 0.0000 0.0000 0.0000 0.0000 11.5924 0.0000
# 6 0.0000 0.0000 0.0000 0.0000 0.0000 27.6430
#
#
#
# Elastic Compliance Matrix: (Units=1/GPa)
#
#
# Indices 1 2 3 4 5 6 
#
# 1 0.012105 -0.002322 -0.003394 0.000000 0.000000 0.000000
# 2 -0.002322 0.009791 -0.001430 0.000000 0.000000 0.000000
# 3 -0.003394 -0.001430 0.009296 0.000000 0.000000 0.000000
# 4 0.000000 0.000000 0.000000 0.050782 0.000000 0.000000
# 5 0.000000 0.000000 0.000000 0.000000 0.086263 0.000000
# 6 0.000000 0.000000 0.000000 0.000000 0.000000 0.036176
#
#
# Mechanical properties :
#
#
# Convention : Reuss Voigt Hill
#
# Bulk Modulus (GPa) = 59.16504 59.74758 59.45631
# Shear Modulus (GPa) = 22.28794 27.85723 25.07259
#
# Velocity S-wave (km/s) = 3.21968 3.59954 3.41490
# Velocity P-wave (km/s) = 6.42963 6.71304 6.57286
#
# Compressibility (1/GPa) = 0.01690187
#
# Stress axis : x y z
#
# Youngs Moduli (GPa) = 82.61371 102.13074 107.57574
#
# Poissons Ratio (x) = 0.23710 0.36506
# Poissons Ratio (y) = 0.19179 0.15381
# Poissons Ratio (z) = 0.28035 0.14603
#
# Static dielectric constant tensor:
#      x y z
#    x 3.942000 0.000000 0.000000 
#    y 0.000000 4.146000 0.000000 
#    z 0.000000 0.000000 3.752240 
# 
# 
# High freq. dielectric constant tensor:
#      x y z
#    x 1.855460 0.000000 0.000000 
#    y 0.000000 1.859610 0.000000 
#    z 0.000000 0.000000 1.834220 
# 
# From -- ./inp_files/19531.got.cif
#   From: 2010.03.12/outbox.cif.g09.slc.cpg/sg68_10_cif.got.tgz:19531.got - 2010.04.10 23:14:56.
