data_PCOD8282481
_publ_section_title
;
Structure prediction by ZEFSAII (Michael W. Deem and Ramdas Pophale) SiO2 
 PCOD8282481
Probable space group: C C C A
;
_chemical_formula_sum "Si O2"
_cell_formula_units_Z 88
_cell_length_a 20.461258
_cell_length_b 18.245184
_cell_length_c 12.566760
_cell_angle_alpha 90.000000
_cell_angle_beta 90.000000
_cell_angle_gamma 90.000000
_cell_volume 4691.415518
_symmetry_space_group_name_H-M "C C C A"
_symmetry_group_IT_number 68
_space_group.IT_coordinate_system_code '2'
_symmetry_cell_setting 'orthorhombic'
loop_
_space_group_symop_operation_xyz
x,y,z
-x,1/2-y,z
x,1/2-y,1/2-z
-x,y,1/2-z
-x,-y,-z
x,1/2+y,-z
-x,1/2+y,1/2+z
x,-y,1/2+z
1/2+x,1/2+y,z
1/2-x,-y,z
1/2+x,-y,1/2-z
1/2-x,1/2+y,1/2-z
1/2-x,1/2-y,-z
1/2+x,y,-z
1/2-x,y,1/2+z
1/2+x,1/2-y,1/2+z
loop_
_atom_site_type_symbol
_atom_site_label
_atom_site_fract_x
_atom_site_fract_y
_atom_site_fract_z
Si Si1 0.837319 0.750000 0.750000
Si Si2 0.571198 0.125863 0.754572
Si Si3 0.570548 0.036662 0.200820
Si Si4 0.378321 0.421310 0.981754
Si Si5 0.766011 0.177535 0.438765
Si Si6 0.814218 0.046660 0.863090
O O1 0.882252 0.813955 0.698656
O O2 0.792945 0.704399 0.672314
O O3 0.500000 0.160732 0.750000
O O4 0.574598 0.050939 0.687795
O O5 0.584891 0.110156 0.878994
O O6 0.500000 0.059928 0.250000
O O7 0.574523 0.073173 0.083921
O O8 0.633573 0.062033 0.269162
O O9 0.318693 0.366837 0.008587
O O10 0.349497 0.501388 0.956160
O O11 0.750000 0.250000 0.500000
O O12 0.704927 0.124974 0.412787
O O13 0.750000 0.000000 0.822447
#
# Coordination Sequence:
#
# PCOD8282481 Si02
#       6
#     8  16  16  16  16  16
#     4  10  21  36  52  84 117 138 200 232 286 352
#     4   9  19  35  57  82 111 150 183 239 288 341
#     4  10  21  36  61  87 116 155 192 246 299 349
#     4   9  20  38  55  83 115 142 198 232 289 354
#     4  10  22  36  56  84 110 153 190 238 292 341
#     4   9  20  37  56  85 114 152 195 240 290 341
#
# _framework density 18.757664999999999
#
# number of rings (size 3 to 8) (size 9 to 14) (size 15 to 20)
#    0.000    2.545    0.000    1.364    5.091    8.727 
#    0.000    0.000    0.000    1.091    0.000    0.000 
#    0.000    0.000    0.000    0.000    0.000    0.000 
#
# Total GULP energy -545219.589526 kJ/mol
# GULP energy per Si atom -12391.354307 kJ/mol
# Density = 1.871497 g / cm^3
# Si number density = 18.757665 Si / 1000 Ang^3
#
#
#
# Elastic Constant Matrix: (Units=GPa)
#
#
# Indices 1 2 3 4 5 6 
#
# 1 108.1155 35.5936 36.4971 0.0000 0.0000 0.0000
# 2 35.5936 102.4939 29.6513 0.0000 0.0000 0.0000
# 3 36.4971 29.6513 68.7367 0.0000 0.0000 0.0000
# 4 0.0000 0.0000 0.0000 26.3255 0.0000 0.0000
# 5 0.0000 0.0000 0.0000 0.0000 26.0031 0.0000
# 6 0.0000 0.0000 0.0000 0.0000 0.0000 20.4782
#
#
#
# Elastic Compliance Matrix: (Units=1/GPa)
#
#
# Indices 1 2 3 4 5 6 
#
# 1 0.011856 -0.002624 -0.005164 0.000000 0.000000 0.000000
# 2 -0.002624 0.011728 -0.003666 0.000000 0.000000 0.000000
# 3 -0.005164 -0.003666 0.018872 0.000000 0.000000 0.000000
# 4 0.000000 0.000000 0.000000 0.037986 0.000000 0.000000
# 5 0.000000 0.000000 0.000000 0.000000 0.038457 0.000000
# 6 0.000000 0.000000 0.000000 0.000000 0.000000 0.048832
#
#
# Mechanical properties :
#
#
# Convention : Reuss Voigt Hill
#
# Bulk Modulus (GPa) = 51.15276 53.64779 52.40028
# Shear Modulus (GPa) = 25.36080 26.40164 25.88122
#
# Velocity S-wave (km/s) = 3.68098 3.75575 3.71855
# Velocity P-wave (km/s) = 6.73763 6.88986 6.81417
#
# Compressibility (1/GPa) = 0.01954929
#
# Stress axis : x y z
#
# Youngs Moduli (GPa) = 84.34433 85.26283 52.98990
#
# Poissons Ratio (x) = 0.22369 0.27361
# Poissons Ratio (y) = 0.22128 0.19428
# Poissons Ratio (z) = 0.43551 0.31260
#
# Static dielectric constant tensor:
#      x y z
#    x 3.475950 0.000000 0.000000 
#    y 0.000000 3.509940 0.000000 
#    z 0.000000 0.000000 3.047670 
# 
# 
# High freq. dielectric constant tensor:
#      x y z
#    x 1.737790 0.000000 0.000000 
#    y 0.000000 1.728320 0.000000 
#    z 0.000000 0.000000 1.703160 
# 
# From -- ./inp_files/14424.got.cif
#   From: 2010.03.12/outbox.cif.g09.slc.cpg/sg68_8_cif.got.tgz:14424.got - 2010.04.10 23:14:56.
