data_PCOD8282356
_publ_section_title
;
Structure prediction by ZEFSAII (Michael W. Deem and Ramdas Pophale) SiO2 
 PCOD8282356
Probable space group: C C C A
;
_chemical_formula_sum "Si O2"
_cell_formula_units_Z 96
_cell_length_a 12.849752
_cell_length_b 15.442371
_cell_length_c 24.315566
_cell_angle_alpha 90.000000
_cell_angle_beta 90.000000
_cell_angle_gamma 90.000000
_cell_volume 4824.953266
_symmetry_space_group_name_H-M "C C C A"
_symmetry_group_IT_number 68
_space_group.IT_coordinate_system_code '2'
_symmetry_cell_setting 'orthorhombic'
loop_
_space_group_symop_operation_xyz
x,y,z
-x,1/2-y,z
x,1/2-y,1/2-z
-x,y,1/2-z
-x,-y,-z
x,1/2+y,-z
-x,1/2+y,1/2+z
x,-y,1/2+z
1/2+x,1/2+y,z
1/2-x,-y,z
1/2+x,-y,1/2-z
1/2-x,1/2+y,1/2-z
1/2-x,1/2-y,-z
1/2+x,y,-z
1/2-x,y,1/2+z
1/2+x,1/2-y,1/2+z
loop_
_atom_site_type_symbol
_atom_site_label
_atom_site_fract_x
_atom_site_fract_y
_atom_site_fract_z
Si Si1 0.181892 0.740333 0.188089
Si Si2 0.500000 0.495852 0.750000
Si Si3 0.000000 0.750000 0.114564
Si Si4 0.439623 0.914822 0.557917
Si Si5 0.830142 0.419768 0.327004
Si Si6 0.134187 0.967886 0.944658
Si Si7 0.838113 0.935060 0.333037
O O1 0.144338 0.750000 0.250000
O O2 0.277153 0.672996 0.184609
O O3 0.208425 0.837560 0.166658
O O4 0.085856 0.702167 0.152691
O O5 0.422758 0.433172 0.716298
O O6 0.564087 0.557921 0.708560
O O7 0.942863 0.683717 0.075677
O O8 0.385944 0.910886 0.498617
O O9 0.373105 0.964002 0.605308
O O10 0.555645 0.951778 0.554242
O O11 0.750000 0.500000 0.322520
O O12 0.879016 0.414018 0.388322
O O13 0.250000 0.000000 0.949292
O O14 0.750000 0.000000 0.311733
#
# Coordination Sequence:
#
# PCOD8282356 Si02
#       7
#    16   8   8  16  16  16  16
#     4  11  23  37  62  92 126 166 211 257 313 380
#     4  12  22  40  68  92 130 176 210 270 322 386
#     4  10  21  36  60  92 124 155 214 262 308 368
#     4  10  21  39  63  92 118 163 209 258 316 377
#     4  11  23  41  63  97 129 167 213 261 324 383
#     4  10  20  39  65  87 122 162 208 253 319 377
#     4  11  24  41  61  94 127 164 213 267 315 378
#
# _framework density 19.896566
#
# number of rings (size 3 to 8) (size 9 to 14) (size 15 to 20)
#    0.000    1.333    1.667    5.250    7.000    0.000 
#    0.000   14.583    0.000    0.000    0.000    0.000 
#    0.000    0.000    0.000    0.000    0.000    0.000 
#
# Total GULP energy -595057.890925 kJ/mol
# GULP energy per Si atom -12397.039394 kJ/mol
# Density = 1.985128 g / cm^3
# Si number density = 19.896566 Si / 1000 Ang^3
#
#
#
# Elastic Constant Matrix: (Units=GPa)
#
#
# Indices 1 2 3 4 5 6 
#
# 1 97.0639 44.7499 55.1117 0.0000 0.0000 0.0000
# 2 44.7499 99.1305 42.3748 0.0000 0.0000 0.0000
# 3 55.1117 42.3748 174.0478 0.0000 0.0000 0.0000
# 4 0.0000 0.0000 0.0000 30.0159 0.0000 0.0000
# 5 0.0000 0.0000 0.0000 0.0000 424.4347 0.0000
# 6 0.0000 0.0000 0.0000 0.0000 0.0000 31.5946
#
#
#
# Elastic Compliance Matrix: (Units=1/GPa)
#
#
# Indices 1 2 3 4 5 6 
#
# 1 0.014586 -0.005146 -0.003366 0.000000 0.000000 0.000000
# 2 -0.005146 0.013075 -0.001554 0.000000 0.000000 0.000000
# 3 -0.003366 -0.001554 0.007190 0.000000 0.000000 0.000000
# 4 0.000000 0.000000 0.000000 0.033316 0.000000 0.000000
# 5 0.000000 0.000000 0.000000 0.000000 0.002356 0.000000
# 6 0.000000 0.000000 0.000000 0.000000 0.000000 0.031651
#
#
# Mechanical properties :
#
#
# Convention : Reuss Voigt Hill
#
# Bulk Modulus (GPa) = 67.93654 72.74611 70.34132
# Shear Modulus (GPa) = 39.30495 112.40942 75.85719
#
# Velocity S-wave (km/s) = 4.44944 7.52460 6.18131
# Velocity P-wave (km/s) = 7.78561 10.58935 9.29381
#
# Compressibility (1/GPa) = 0.01471962
#
# Stress axis : x y z
#
# Youngs Moduli (GPa) = 68.55943 76.48275 139.08908
#
# Poissons Ratio (x) = 0.39356 0.46814
# Poissons Ratio (y) = 0.35278 0.21613
# Poissons Ratio (z) = 0.23076 0.11885
#
# Static dielectric constant tensor:
#      x y z
#    x 3.661960 0.000000 0.000000 
#    y 0.000000 3.373130 0.000000 
#    z 0.000000 0.000000 4.205870 
# 
# 
# High freq. dielectric constant tensor:
#      x y z
#    x 1.774620 0.000000 0.000000 
#    y 0.000000 1.754380 0.000000 
#    z 0.000000 0.000000 1.800040 
# 
# From -- ./inp_files/44466.got.cif
#   From: 2010.03.12/outbox.cif.g09.slc.cpg/sg68_23_cif.got.tgz:44466.got - 2010.04.10 23:14:56.
