data_PCOD8282293
_publ_section_title
;
Structure prediction by ZEFSAII (Michael W. Deem and Ramdas Pophale) SiO2 
 PCOD8282293
Probable space group: C C C A
;
_chemical_formula_sum "Si O2"
_cell_formula_units_Z 64
_cell_length_a 8.468604
_cell_length_b 16.594795
_cell_length_c 20.679614
_cell_angle_alpha 90.000000
_cell_angle_beta 90.000000
_cell_angle_gamma 90.000000
_cell_volume 2906.204328
_symmetry_space_group_name_H-M "C C C A"
_symmetry_group_IT_number 68
_space_group.IT_coordinate_system_code '2'
_symmetry_cell_setting 'orthorhombic'
loop_
_space_group_symop_operation_xyz
x,y,z
-x,1/2-y,z
x,1/2-y,1/2-z
-x,y,1/2-z
-x,-y,-z
x,1/2+y,-z
-x,1/2+y,1/2+z
x,-y,1/2+z
1/2+x,1/2+y,z
1/2-x,-y,z
1/2+x,-y,1/2-z
1/2-x,1/2+y,1/2-z
1/2-x,1/2-y,-z
1/2+x,y,-z
1/2-x,y,1/2+z
1/2+x,1/2-y,1/2+z
loop_
_atom_site_type_symbol
_atom_site_label
_atom_site_fract_x
_atom_site_fract_y
_atom_site_fract_z
Si Si1 0.630446 0.576688 0.693806
Si Si2 0.589168 0.096191 0.561682
Si Si3 0.569971 0.661065 0.185630
Si Si4 0.933784 0.589016 0.434949
O O1 0.500000 0.571737 0.750000
O O2 0.750000 0.500000 0.694612
O O3 0.741021 0.656658 0.697276
O O4 0.540895 0.590174 0.627493
O O5 0.475208 0.110315 0.622520
O O6 0.763571 0.132270 0.576703
O O7 0.517773 0.134281 0.495607
O O8 0.603008 0.002382 0.547196
O O9 0.500000 0.750000 0.178080
O O10 0.500000 0.619187 0.250000
#
# Coordination Sequence:
#
# PCOD8282293 Si02
#       4
#    16  16  16  16
#     4  12  24  39  67 101 132 173 229 284 339 398
#     4  10  20  38  61  94 132 175 215 275 334 392
#     4  11  24  44  65  92 136 178 220 276 338 405
#     4  10  21  35  64  94 130 166 222 280 331 384
#
# _framework density 22.021853
#
# number of rings (size 3 to 8) (size 9 to 14) (size 15 to 20)
#    0.000    1.250    2.500    3.750    7.000    0.000 
#    0.000   13.750    0.000    0.000    0.000    0.000 
#    0.000    0.000    0.000    0.000    0.000    0.000 
#
# Total GULP energy -396451.907573 kJ/mol
# GULP energy per Si atom -12389.122112 kJ/mol
# Density = 2.197173 g / cm^3
# Si number density = 22.021853 Si / 1000 Ang^3
#
#
#
# Elastic Constant Matrix: (Units=GPa)
#
#
# Indices 1 2 3 4 5 6 
#
# 1 210.0495 31.4312 97.9310 0.0000 0.0000 0.0000
# 2 31.4312 43.0148 9.9139 0.0000 0.0000 0.0000
# 3 97.9310 9.9139 213.9496 0.0000 0.0000 0.0000
# 4 0.0000 0.0000 0.0000 -517.7212 0.0000 0.0000
# 5 0.0000 0.0000 0.0000 0.0000 41.4951 0.0000
# 6 0.0000 0.0000 0.0000 0.0000 0.0000 36.0793
#
#
#
# Elastic Compliance Matrix: (Units=1/GPa)
#
#
# Indices 1 2 3 4 5 6 
#
# 1 0.006746 -0.004263 -0.002890 0.000000 0.000000 0.000000
# 2 -0.004263 0.026193 0.000738 0.000000 0.000000 0.000000
# 3 -0.002890 0.000738 0.005963 0.000000 0.000000 0.000000
# 4 0.000000 0.000000 0.000000 -0.001932 0.000000 0.000000
# 5 0.000000 0.000000 0.000000 0.000000 0.024099 0.000000
# 6 0.000000 0.000000 0.000000 0.000000 0.000000 0.027717
#
#
# Mechanical properties :
#
#
# Convention : Reuss Voigt Hill
#
# Bulk Modulus (GPa) = 38.35814 82.84067 60.59940
# Shear Modulus (GPa) = 45.32724 -66.18017 -10.42646
#
# Velocity S-wave (km/s) = 4.54175 -5.48792 -2.17827
# Velocity P-wave (km/s) = 6.70518 1.56756 4.60989
#
# Compressibility (1/GPa) = 0.02607009
#
# Stress axis : x y z
#
# Youngs Moduli (GPa) = 148.22810 38.17801 167.70493
#
# Poissons Ratio (x) = 0.16277 0.48474
# Poissons Ratio (y) = 0.63196 -0.12373
# Poissons Ratio (z) = 0.42845 -0.02817
#
# Static dielectric constant tensor:
#      x y z
#    x 6.339430 0.000000 0.000000 
#    y 0.000000 3.498590 0.000000 
#    z 0.000000 0.000000 4.171420 
# 
# 
# High freq. dielectric constant tensor:
#      x y z
#    x 1.893620 0.000000 0.000000 
#    y 0.000000 1.810090 0.000000 
#    z 0.000000 0.000000 1.886620 
# 
# From -- ./inp_files/35735.got.cif
#   From: 2010.03.12/outbox.cif.g09.slc.cpg/sg68_18_cif.got.tgz:35735.got - 2010.04.10 23:14:56.
