data_PCOD8282267
_publ_section_title
;
Structure prediction by ZEFSAII (Michael W. Deem and Ramdas Pophale) SiO2 
 PCOD8282267
Probable space group: C C C A
;
_chemical_formula_sum "Si O2"
_cell_formula_units_Z 112
_cell_length_a 10.684825
_cell_length_b 29.020268
_cell_length_c 19.505022
_cell_angle_alpha 90.000000
_cell_angle_beta 90.000000
_cell_angle_gamma 90.000000
_cell_volume 6048.048662
_symmetry_space_group_name_H-M "C C C A"
_symmetry_group_IT_number 68
_space_group.IT_coordinate_system_code '2'
_symmetry_cell_setting 'orthorhombic'
loop_
_space_group_symop_operation_xyz
x,y,z
-x,1/2-y,z
x,1/2-y,1/2-z
-x,y,1/2-z
-x,-y,-z
x,1/2+y,-z
-x,1/2+y,1/2+z
x,-y,1/2+z
1/2+x,1/2+y,z
1/2-x,-y,z
1/2+x,-y,1/2-z
1/2-x,1/2+y,1/2-z
1/2-x,1/2-y,-z
1/2+x,y,-z
1/2-x,y,1/2+z
1/2+x,1/2-y,1/2+z
loop_
_atom_site_type_symbol
_atom_site_label
_atom_site_fract_x
_atom_site_fract_y
_atom_site_fract_z
Si Si1 0.706652 0.161534 0.131167
Si Si2 0.491614 0.407439 0.326903
Si Si3 0.240078 0.602908 0.505166
Si Si4 0.991144 0.950311 0.033388
Si Si5 0.862158 0.248177 0.945440
Si Si6 0.716955 0.157985 0.375314
Si Si7 0.354045 0.301051 0.753552
O O1 0.601127 0.128508 0.160395
O O2 0.648599 0.209731 0.107223
O O3 0.806357 0.168591 0.190794
O O4 0.777160 0.137037 0.068686
O O5 0.500000 0.428624 0.250000
O O6 0.496385 0.448936 0.383203
O O7 0.365302 0.378417 0.333320
O O8 0.353321 0.567455 0.514684
O O9 0.279871 0.632642 0.439502
O O10 0.104375 0.579709 0.496925
O O11 0.000000 0.000000 0.000000
O O12 0.862602 0.201150 0.902375
O O13 0.000000 0.250000 0.981609
O O14 0.750000 0.250000 0.000000
O O15 0.825117 0.175397 0.325782
O O16 0.293316 0.250000 0.750000
O O17 0.500000 0.297047 0.750000
#
# Coordination Sequence:
#
# PCOD8282267 Si02
#       7
#    16  16  16  16  16  16  16
#     4  11  21  37  57  84 120 157 207 249 288 349
#     4  10  20  37  64  90 113 146 198 249 298 358
#     4  10  23  37  64  90 112 154 198 247 303 354
#     4  10  22  42  67  89 115 147 191 248 316 374
#     4  12  24  35  56  87 127 169 211 257 298 340
#     4  11  21  37  57  84 120 157 207 249 288 349
#     4  11  24  35  51  81 122 173 206 247 300 344
#
# _framework density 18.518370000000001
#
# number of rings (size 3 to 8) (size 9 to 14) (size 15 to 20)
#    0.000    1.286    5.714    0.429    2.000    1.143 
#    0.000    2.143    3.143    3.429    0.000    0.000 
#    0.000    0.000    0.000    0.000    0.000    0.000 
#
# Total GULP energy -694228.940579 kJ/mol
# GULP energy per Si atom -12396.945367 kJ/mol
# Density = 1.847622 g / cm^3
# Si number density = 18.518370 Si / 1000 Ang^3
#
#
#
# Elastic Constant Matrix: (Units=GPa)
#
#
# Indices 1 2 3 4 5 6 
#
# 1 67.7419 -0.7390 20.6046 0.0000 0.0000 0.0000
# 2 -0.7390 80.7187 39.7544 0.0000 0.0000 0.0000
# 3 20.6046 39.7544 129.5856 0.0000 0.0000 0.0000
# 4 0.0000 0.0000 0.0000 23.0498 0.0000 0.0000
# 5 0.0000 0.0000 0.0000 0.0000 28.7463 0.0000
# 6 0.0000 0.0000 0.0000 0.0000 0.0000 15.5866
#
#
#
# Elastic Compliance Matrix: (Units=1/GPa)
#
#
# Indices 1 2 3 4 5 6 
#
# 1 0.015689 0.001617 -0.002991 0.000000 0.000000 0.000000
# 2 0.001617 0.014760 -0.004785 0.000000 0.000000 0.000000
# 3 -0.002991 -0.004785 0.009660 0.000000 0.000000 0.000000
# 4 0.000000 0.000000 0.000000 0.043384 0.000000 0.000000
# 5 0.000000 0.000000 0.000000 0.000000 0.034787 0.000000
# 6 0.000000 0.000000 0.000000 0.000000 0.000000 0.064158
#
#
# Mechanical properties :
#
#
# Convention : Reuss Voigt Hill
#
# Bulk Modulus (GPa) = 35.98243 44.14292 40.06267
# Shear Modulus (GPa) = 24.50726 28.03828 26.27277
#
# Velocity S-wave (km/s) = 3.64181 3.89534 3.77070
# Velocity P-wave (km/s) = 6.09562 6.64234 6.37484
#
# Compressibility (1/GPa) = 0.02779134
#
# Stress axis : x y z
#
# Youngs Moduli (GPa) = 63.73825 67.74960 103.51510
#
# Poissons Ratio (x) = -0.10952 0.30957
# Poissons Ratio (y) = -0.10303 0.49534
# Poissons Ratio (z) = 0.19061 0.32420
#
# Static dielectric constant tensor:
#      x y z
#    x 3.133980 0.000000 0.000000 
#    y 0.000000 3.370990 0.000000 
#    z 0.000000 0.000000 3.809340 
# 
# 
# High freq. dielectric constant tensor:
#      x y z
#    x 1.723080 0.000000 0.000000 
#    y 0.000000 1.704590 0.000000 
#    z 0.000000 0.000000 1.726980 
# 
# From -- ./inp_files/37818.got.cif
#   From: 2010.03.12/outbox.cif.g09.slc.cpg/sg68_19_cif.got.tgz:37818.got - 2010.04.10 23:14:56.
