data_PCOD8282854
_publ_section_title
;
Structure prediction by ZEFSAII (Michael W. Deem and Ramdas Pophale) SiO2 
 PCOD8282854
Probable space group: C C C A
;
_chemical_formula_sum "Si O2"
_cell_formula_units_Z 88
_cell_length_a 19.896825
_cell_length_b 12.226172
_cell_length_c 16.873385
_cell_angle_alpha 90.000000
_cell_angle_beta 90.000000
_cell_angle_gamma 90.000000
_cell_volume 4104.653461
_symmetry_space_group_name_H-M "C C C A"
_symmetry_group_IT_number 68
_space_group.IT_coordinate_system_code '2'
_symmetry_cell_setting 'orthorhombic'
loop_
_space_group_symop_operation_xyz
x,y,z
-x,1/2-y,z
x,1/2-y,1/2-z
-x,y,1/2-z
-x,-y,-z
x,1/2+y,-z
-x,1/2+y,1/2+z
x,-y,1/2+z
1/2+x,1/2+y,z
1/2-x,-y,z
1/2+x,-y,1/2-z
1/2-x,1/2+y,1/2-z
1/2-x,1/2-y,-z
1/2+x,y,-z
1/2-x,y,1/2+z
1/2+x,1/2-y,1/2+z
loop_
_atom_site_type_symbol
_atom_site_label
_atom_site_fract_x
_atom_site_fract_y
_atom_site_fract_z
Si Si1 0.665755 0.407253 0.366053
Si Si2 0.826919 0.472279 0.688998
Si Si3 0.882785 0.304965 0.564648
Si Si4 0.000000 0.750000 0.959629
Si Si5 0.185677 0.358189 0.086895
Si Si6 0.902934 0.193368 0.326638
O O1 0.672871 0.408687 0.271678
O O2 0.612946 0.315198 0.394554
O O3 0.736397 0.370828 0.400384
O O4 0.646456 0.525849 0.401173
O O5 0.750000 0.500000 0.662779
O O6 0.867673 0.397743 0.628020
O O7 0.871393 0.579346 0.698635
O O8 0.822943 0.312404 0.501367
O O9 0.952658 0.324130 0.516368
O O10 0.954173 0.823581 0.900482
O O11 0.158172 0.272038 0.149695
O O12 0.938277 0.250000 0.250000
#
# Coordination Sequence:
#
# PCOD8282854 Si02
#       6
#    16  16  16   8  16  16
#     4  11  21  43  64 101 142 166 217 273 338 413
#     4  12  24  41  72 107 136 168 213 275 354 407
#     4  11  26  42  68  96 135 185 219 277 326 384
#     4  10  27  48  63  92 134 180 244 272 305 390
#     4  10  22  39  67 101 135 171 216 276 336 397
#     4  11  21  44  67  96 133 178 227 273 328 391
#
# _framework density 21.439081000000002
#
# number of rings (size 3 to 8) (size 9 to 14) (size 15 to 20)
#    0.000    1.091    3.636    2.455    7.636    0.727 
#    3.273    1.818    0.000    0.000    0.000    0.000 
#    0.000    0.000    0.000    0.000    0.000    0.000 
#
# Total GULP energy -545440.319139 kJ/mol
# GULP energy per Si atom -12396.370890 kJ/mol
# Density = 2.139028 g / cm^3
# Si number density = 21.439081 Si / 1000 Ang^3
#
#
#
# Elastic Constant Matrix: (Units=GPa)
#
#
# Indices 1 2 3 4 5 6 
#
# 1 85.1263 26.6782 38.2129 0.0000 0.0000 0.0000
# 2 26.6782 107.3591 48.8029 0.0000 0.0000 0.0000
# 3 38.2129 48.8029 122.4900 0.0000 0.0000 0.0000
# 4 0.0000 0.0000 0.0000 33.3186 0.0000 0.0000
# 5 0.0000 0.0000 0.0000 0.0000 -31.7279 0.0000
# 6 0.0000 0.0000 0.0000 0.0000 0.0000 18.6891
#
#
#
# Elastic Compliance Matrix: (Units=1/GPa)
#
#
# Indices 1 2 3 4 5 6 
#
# 1 0.013944 -0.001817 -0.003626 0.000000 0.000000 0.000000
# 2 -0.001817 0.011611 -0.004059 0.000000 0.000000 0.000000
# 3 -0.003626 -0.004059 0.010913 0.000000 0.000000 0.000000
# 4 0.000000 0.000000 0.000000 0.030013 0.000000 0.000000
# 5 0.000000 0.000000 0.000000 0.000000 -0.031518 0.000000
# 6 0.000000 0.000000 0.000000 0.000000 0.000000 0.053507
#
#
# Mechanical properties :
#
#
# Convention : Reuss Voigt Hill
#
# Bulk Modulus (GPa) = 57.26289 60.26261 58.76275
# Shear Modulus (GPa) = 44.13178 17.47470 30.80324
#
# Velocity S-wave (km/s) = 4.54196 2.85807 3.79460
# Velocity P-wave (km/s) = 7.36705 6.24990 6.83135
#
# Compressibility (1/GPa) = 0.01746332
#
# Stress axis : x y z
#
# Youngs Moduli (GPa) = 71.71297 86.12288 91.63667
#
# Poissons Ratio (x) = 0.15646 0.33231
# Poissons Ratio (y) = 0.13028 0.37200
# Poissons Ratio (z) = 0.26006 0.34962
#
# Static dielectric constant tensor:
#      x y z
#    x 3.688620 0.000000 0.000000 
#    y 0.000000 4.099520 0.000000 
#    z 0.000000 0.000000 4.229250 
# 
# 
# High freq. dielectric constant tensor:
#      x y z
#    x 1.823310 0.000000 0.000000 
#    y 0.000000 1.838310 0.000000 
#    z 0.000000 0.000000 1.862160 
# 
# From -- ./inp_files/32799.got.cif
#   From: 2010.03.12/outbox.cif.g09.slc.cpg/sg68_17_cif.got.tgz:32799.got - 2010.04.10 23:14:56.
