data_PCOD8282966
_publ_section_title
;
Structure prediction by ZEFSAII (Michael W. Deem and Ramdas Pophale) SiO2 
 PCOD8282966
Probable space group: C C C A
;
_chemical_formula_sum "Si O2"
_cell_formula_units_Z 64
_cell_length_a 8.703731
_cell_length_b 20.652957
_cell_length_c 16.108176
_cell_angle_alpha 90.000000
_cell_angle_beta 90.000000
_cell_angle_gamma 90.000000
_cell_volume 2895.569991
_symmetry_space_group_name_H-M "C C C A"
_symmetry_group_IT_number 68
_space_group.IT_coordinate_system_code '2'
_symmetry_cell_setting 'orthorhombic'
loop_
_space_group_symop_operation_xyz
x,y,z
-x,1/2-y,z
x,1/2-y,1/2-z
-x,y,1/2-z
-x,-y,-z
x,1/2+y,-z
-x,1/2+y,1/2+z
x,-y,1/2+z
1/2+x,1/2+y,z
1/2-x,-y,z
1/2+x,-y,1/2-z
1/2-x,1/2+y,1/2-z
1/2-x,1/2-y,-z
1/2+x,y,-z
1/2-x,y,1/2+z
1/2+x,1/2-y,1/2+z
loop_
_atom_site_type_symbol
_atom_site_label
_atom_site_fract_x
_atom_site_fract_y
_atom_site_fract_z
Si Si1 0.499626 0.154446 0.489375
Si Si2 0.258113 0.787070 0.385632
Si Si3 0.737933 0.575993 0.088119
Si Si4 0.168848 0.334971 0.281060
O O1 0.594031 0.187588 0.563898
O O2 0.394376 0.208808 0.442640
O O3 0.388741 0.099145 0.523674
O O4 0.603491 0.114092 0.425980
O O5 0.284217 0.712677 0.357863
O O6 0.226852 0.828005 0.301253
O O7 0.750000 0.500000 0.078572
O O8 0.683876 0.592967 0.182448
O O9 0.000000 0.316532 0.250000
#
# Coordination Sequence:
#
# PCOD8282966 Si02
#       4
#    16  16  16  16
#     4  10  23  42  68 100 128 171 220 273 327 387
#     4  10  22  42  69  95 132 163 216 276 334 390
#     4  11  24  43  65  96 135 177 222 263 323 394
#     4  11  23  43  66  94 131 173 212 272 340 391
#
# _framework density 22.102729
#
# number of rings (size 3 to 8) (size 9 to 14) (size 15 to 20)
#    0.000    1.500    2.500    2.250    0.000    8.000 
#    4.500    3.750    0.000    0.000    0.000    0.000 
#    0.000    0.000    0.000    0.000    0.000    0.000 
#
# Total GULP energy -396707.142452 kJ/mol
# GULP energy per Si atom -12397.098202 kJ/mol
# Density = 2.205242 g / cm^3
# Si number density = 22.102729 Si / 1000 Ang^3
#
#
#
# Elastic Constant Matrix: (Units=GPa)
#
#
# Indices 1 2 3 4 5 6 
#
# 1 122.7583 66.9882 46.5567 0.0000 0.0000 0.0000
# 2 66.9882 101.0722 66.1867 0.0000 0.0000 0.0000
# 3 46.5567 66.1867 126.8668 0.0000 0.0000 0.0000
# 4 0.0000 0.0000 0.0000 36.4042 0.0000 0.0000
# 5 0.0000 0.0000 0.0000 0.0000 23.9857 0.0000
# 6 0.0000 0.0000 0.0000 0.0000 0.0000 18.7847
#
#
#
# Elastic Compliance Matrix: (Units=1/GPa)
#
#
# Indices 1 2 3 4 5 6 
#
# 1 0.012776 -0.008198 -0.000411 0.000000 0.000000 0.000000
# 2 -0.008198 0.020289 -0.007576 0.000000 0.000000 0.000000
# 3 -0.000411 -0.007576 0.011986 0.000000 0.000000 0.000000
# 4 0.000000 0.000000 0.000000 0.027469 0.000000 0.000000
# 5 0.000000 0.000000 0.000000 0.000000 0.041692 0.000000
# 6 0.000000 0.000000 0.000000 0.000000 0.000000 0.053235
#
#
# Mechanical properties :
#
#
# Convention : Reuss Voigt Hill
#
# Bulk Modulus (GPa) = 78.87131 78.90672 78.88901
# Shear Modulus (GPa) = 24.50461 27.23263 25.86862
#
# Velocity S-wave (km/s) = 3.33328 3.51393 3.42479
# Velocity P-wave (km/s) = 7.11167 7.22780 7.16997
#
# Compressibility (1/GPa) = 0.01267888
#
# Stress axis : x y z
#
# Youngs Moduli (GPa) = 78.27353 49.28890 83.43247
#
# Poissons Ratio (x) = 0.40407 0.03433
# Poissons Ratio (y) = 0.64169 0.63209
# Poissons Ratio (z) = 0.03220 0.37342
#
# Static dielectric constant tensor:
#      x y z
#    x 4.139580 0.000000 0.000000 
#    y 0.000000 3.712690 0.000000 
#    z 0.000000 0.000000 4.436920 
# 
# 
# High freq. dielectric constant tensor:
#      x y z
#    x 1.879230 0.000000 0.000000 
#    y 0.000000 1.847720 0.000000 
#    z 0.000000 0.000000 1.888500 
# 
# From -- ./inp_files/27855.got.cif
#   From: 2010.03.12/outbox.cif.g09.slc.cpg/sg68_14_cif.got.tgz:27855.got - 2010.04.10 23:14:56.
