data_PCOD8282809
_publ_section_title
;
Structure prediction by ZEFSAII (Michael W. Deem and Ramdas Pophale) SiO2 
 PCOD8282809
Probable space group: C C C A
;
_chemical_formula_sum "Si O2"
_cell_formula_units_Z 64
_cell_length_a 8.335458
_cell_length_b 28.084976
_cell_length_c 12.420649
_cell_angle_alpha 90.000000
_cell_angle_beta 90.000000
_cell_angle_gamma 90.000000
_cell_volume 2907.688064
_symmetry_space_group_name_H-M "C C C A"
_symmetry_group_IT_number 68
_space_group.IT_coordinate_system_code '2'
_symmetry_cell_setting 'orthorhombic'
loop_
_space_group_symop_operation_xyz
x,y,z
-x,1/2-y,z
x,1/2-y,1/2-z
-x,y,1/2-z
-x,-y,-z
x,1/2+y,-z
-x,1/2+y,1/2+z
x,-y,1/2+z
1/2+x,1/2+y,z
1/2-x,-y,z
1/2+x,-y,1/2-z
1/2-x,1/2+y,1/2-z
1/2-x,1/2-y,-z
1/2+x,y,-z
1/2-x,y,1/2+z
1/2+x,1/2-y,1/2+z
loop_
_atom_site_type_symbol
_atom_site_label
_atom_site_fract_x
_atom_site_fract_y
_atom_site_fract_z
Si Si1 0.872502 0.215353 0.054656
Si Si2 0.390323 0.437613 0.079423
Si Si3 0.530609 0.538987 0.368955
Si Si4 0.428207 0.167245 0.363084
O O1 0.762802 0.181063 0.129823
O O2 0.000000 0.250000 0.118133
O O3 0.750000 0.250000 0.000000
O O4 0.968679 0.186634 0.962908
O O5 0.496606 0.481703 0.124415
O O6 0.206819 0.447072 0.098474
O O7 0.446101 0.389585 0.136663
O O8 0.410426 0.434189 0.949869
O O9 0.500000 0.558119 0.250000
O O10 0.500000 0.186607 0.250000
#
# Coordination Sequence:
#
# PCOD8282809 Si02
#       4
#    16  16  16  16
#     4   9  21  41  62  90 121 150 198 252 306 379
#     4  10  22  38  60  92 123 160 215 253 292 364
#     4  10  22  39  60  86 128 172 203 250 305 350
#     4  11  22  40  66  92 123 161 202 256 311 363
#
# _framework density 22.010612999999999
#
# number of rings (size 3 to 8) (size 9 to 14) (size 15 to 20)
#    0.000    2.000    0.000    2.250    0.000   16.500 
#    0.000    8.750    0.000    0.000    0.000    0.000 
#    0.000    0.000    0.000    0.000    0.000    0.000 
#
# Total GULP energy -396562.118219 kJ/mol
# GULP energy per Si atom -12392.566194 kJ/mol
# Density = 2.196052 g / cm^3
# Si number density = 22.010613 Si / 1000 Ang^3
#
#
#
# Elastic Constant Matrix: (Units=GPa)
#
#
# Indices 1 2 3 4 5 6 
#
# 1 111.1721 27.8557 50.0035 0.0000 0.0000 0.0000
# 2 27.8557 92.2340 5.8927 0.0000 0.0000 0.0000
# 3 50.0035 5.8927 138.9483 0.0000 0.0000 0.0000
# 4 0.0000 0.0000 0.0000 13.7108 0.0000 0.0000
# 5 0.0000 0.0000 0.0000 0.0000 23.0508 0.0000
# 6 0.0000 0.0000 0.0000 0.0000 0.0000 26.3245
#
#
#
# Elastic Compliance Matrix: (Units=1/GPa)
#
#
# Indices 1 2 3 4 5 6 
#
# 1 0.011631 -0.003254 -0.004048 0.000000 0.000000 0.000000
# 2 -0.003254 0.011782 0.000671 0.000000 0.000000 0.000000
# 3 -0.004048 0.000671 0.008625 0.000000 0.000000 0.000000
# 4 0.000000 0.000000 0.000000 0.072935 0.000000 0.000000
# 5 0.000000 0.000000 0.000000 0.000000 0.043383 0.000000
# 6 0.000000 0.000000 0.000000 0.000000 0.000000 0.037987
#
#
# Mechanical properties :
#
#
# Convention : Reuss Voigt Hill
#
# Bulk Modulus (GPa) = 53.25598 56.65091 54.95344
# Shear Modulus (GPa) = 24.28800 29.85737 27.07269
#
# Velocity S-wave (km/s) = 3.32545 3.68706 3.51092
# Velocity P-wave (km/s) = 6.24443 6.62720 6.43866
#
# Compressibility (1/GPa) = 0.01877723
#
# Stress axis : x y z
#
# Youngs Moduli (GPa) = 85.97721 84.87623 115.94087
#
# Poissons Ratio (x) = 0.27619 0.46929
# Poissons Ratio (y) = 0.27978 -0.07784
# Poissons Ratio (z) = 0.34801 -0.05699
#
# Static dielectric constant tensor:
#      x y z
#    x 4.502100 0.000000 0.000000 
#    y 0.000000 4.647220 0.000000 
#    z 0.000000 0.000000 3.640530 
# 
# 
# High freq. dielectric constant tensor:
#      x y z
#    x 1.873510 0.000000 0.000000 
#    y 0.000000 1.870040 0.000000 
#    z 0.000000 0.000000 1.846120 
# 
# From -- ./inp_files/10736.got.cif
#   From: 2010.03.12/outbox.cif.g09.slc.cpg/sg68_6_cif.got.tgz:10736.got - 2010.04.10 23:14:56.
