data_PCOD8282684
_publ_section_title
;
Structure prediction by ZEFSAII (Michael W. Deem and Ramdas Pophale) SiO2 
 PCOD8282684
Probable space group: C C C A
;
_chemical_formula_sum "Si O2"
_cell_formula_units_Z 44
_cell_length_a 7.110978
_cell_length_b 12.841124
_cell_length_c 21.735267
_cell_angle_alpha 90.000000
_cell_angle_beta 90.000000
_cell_angle_gamma 90.000000
_cell_volume 1984.711354
_symmetry_space_group_name_H-M "C C C A"
_symmetry_group_IT_number 68
_space_group.IT_coordinate_system_code '2'
_symmetry_cell_setting 'orthorhombic'
loop_
_space_group_symop_operation_xyz
x,y,z
-x,1/2-y,z
x,1/2-y,1/2-z
-x,y,1/2-z
-x,-y,-z
x,1/2+y,-z
-x,1/2+y,1/2+z
x,-y,1/2+z
1/2+x,1/2+y,z
1/2-x,-y,z
1/2+x,-y,1/2-z
1/2-x,1/2+y,1/2-z
1/2-x,1/2-y,-z
1/2+x,y,-z
1/2-x,y,1/2+z
1/2+x,1/2-y,1/2+z
loop_
_atom_site_type_symbol
_atom_site_label
_atom_site_fract_x
_atom_site_fract_y
_atom_site_fract_z
Si Si1 0.826221 0.888729 0.293121
Si Si2 0.317744 0.114484 0.068636
Si Si3 0.000000 0.750000 0.750000
Si Si4 0.500000 0.250000 0.526288
O O1 0.905679 0.890376 0.362863
O O2 0.641532 0.816615 0.292029
O O3 0.000000 0.852273 0.250000
O O4 0.750000 0.000000 0.270934
O O5 0.465042 0.149151 0.016975
O O6 0.250000 0.000000 0.049877
O O7 0.164826 0.208416 0.069662
#
# Coordination Sequence:
#
# PCOD8282684 Si02
#       4
#    16  16   4   8
#     4  11  24  44  65  99 133 172 219 267 328 392
#     4  10  22  40  62  91 126 161 209 268 317 380
#     4  12  24  40  68  88 132 174 210 272 318 384
#     4  10  21  40  65  93 118 167 214 256 324 384
#
# _framework density 22.169471000000001
#
# number of rings (size 3 to 8) (size 9 to 14) (size 15 to 20)
#    0.000    1.455    1.818    2.727    5.091    0.000 
#    0.000    1.818    0.000    0.000    0.000    0.000 
#    0.000    0.000    0.000    0.000    0.000    0.000 
#
# Total GULP energy -272620.730394 kJ/mol
# GULP energy per Si atom -12391.851382 kJ/mol
# Density = 2.211901 g / cm^3
# Si number density = 22.169471 Si / 1000 Ang^3
#
#
#
# Elastic Constant Matrix: (Units=GPa)
#
#
# Indices 1 2 3 4 5 6 
#
# 1 96.6695 25.6840 27.4903 0.0000 0.0000 0.0000
# 2 25.6840 123.0210 37.6807 0.0000 0.0000 0.0000
# 3 27.4903 37.6807 101.1204 0.0000 0.0000 0.0000
# 4 0.0000 0.0000 0.0000 0.2339 0.0000 0.0000
# 5 0.0000 0.0000 0.0000 0.0000 -14.6447 0.0000
# 6 0.0000 0.0000 0.0000 0.0000 0.0000 36.7996
#
#
#
# Elastic Compliance Matrix: (Units=1/GPa)
#
#
# Indices 1 2 3 4 5 6 
#
# 1 0.011493 -0.001628 -0.002518 0.000000 0.000000 0.000000
# 2 -0.001628 0.009407 -0.003063 0.000000 0.000000 0.000000
# 3 -0.002518 -0.003063 0.011715 0.000000 0.000000 0.000000
# 4 0.000000 0.000000 0.000000 4.275540 0.000000 0.000000
# 5 0.000000 0.000000 0.000000 0.000000 -0.068284 0.000000
# 6 0.000000 0.000000 0.000000 0.000000 0.000000 0.027174
#
#
# Mechanical properties :
#
#
# Convention : Reuss Voigt Hill
#
# Bulk Modulus (GPa) = 54.95272 55.83564 55.39418
# Shear Modulus (GPa) = 1.16617 19.80815 10.48716
#
# Velocity S-wave (km/s) = 0.72606 2.99237 2.17732
# Velocity P-wave (km/s) = 5.05413 6.09750 5.60017
#
# Compressibility (1/GPa) = 0.01819746
#
# Stress axis : x y z
#
# Youngs Moduli (GPa) = 87.00850 106.30719 85.36158
#
# Poissons Ratio (x) = 0.17310 0.21492
# Poissons Ratio (y) = 0.14168 0.26142
# Poissons Ratio (z) = 0.21906 0.32557
#
# Static dielectric constant tensor:
#      x y z
#    x 3.885230 0.000000 0.000000 
#    y 0.000000 4.116360 0.000000 
#    z 0.000000 0.000000 3.731430 
# 
# 
# High freq. dielectric constant tensor:
#      x y z
#    x 1.857730 0.000000 0.000000 
#    y 0.000000 1.891960 0.000000 
#    z 0.000000 0.000000 1.867970 
# 
# From -- ./inp_files/27414.got.cif
#   From: 2010.03.12/outbox.cif.g09.slc.cpg/sg68_14_cif.got.tgz:27414.got - 2010.04.10 23:14:56.
