data_PCOD8282198
_publ_section_title
;
Structure prediction by ZEFSAII (Michael W. Deem and Ramdas Pophale) SiO2 
 PCOD8282198
Probable space group: C C C A
;
_chemical_formula_sum "Si O2"
_cell_formula_units_Z 96
_cell_length_a 23.201042
_cell_length_b 23.170089
_cell_length_c 8.703590
_cell_angle_alpha 90.000000
_cell_angle_beta 90.000000
_cell_angle_gamma 90.000000
_cell_volume 4678.790687
_symmetry_space_group_name_H-M "C C C A"
_symmetry_group_IT_number 68
_space_group.IT_coordinate_system_code '2'
_symmetry_cell_setting 'orthorhombic'
loop_
_space_group_symop_operation_xyz
x,y,z
-x,1/2-y,z
x,1/2-y,1/2-z
-x,y,1/2-z
-x,-y,-z
x,1/2+y,-z
-x,1/2+y,1/2+z
x,-y,1/2+z
1/2+x,1/2+y,z
1/2-x,-y,z
1/2+x,-y,1/2-z
1/2-x,1/2+y,1/2-z
1/2-x,1/2-y,-z
1/2+x,y,-z
1/2-x,y,1/2+z
1/2+x,1/2-y,1/2+z
loop_
_atom_site_type_symbol
_atom_site_label
_atom_site_fract_x
_atom_site_fract_y
_atom_site_fract_z
Si Si1 0.062532 0.900475 0.785577
Si Si2 0.849572 0.686779 0.269944
Si Si3 0.051995 0.683165 0.462008
Si Si4 0.789405 0.073740 0.841615
Si Si5 0.926642 0.305600 0.033666
Si Si6 0.178380 0.039151 0.309245
O O1 0.069402 0.843086 0.685416
O O2 0.113134 0.946164 0.761561
O O3 0.000000 0.929619 0.750000
O O4 0.067474 0.877876 0.959099
O O5 0.819595 0.750000 0.250000
O O6 0.912328 0.687423 0.193017
O O7 0.808524 0.638515 0.198135
O O8 0.867093 0.676191 0.447294
O O9 0.072427 0.737081 0.570480
O O10 0.983721 0.683382 0.429061
O O11 0.720616 0.071024 0.812592
O O12 0.817336 0.029606 0.717814
O O13 0.805129 0.056428 0.016216
#
# Coordination Sequence:
#
# PCOD8282198 Si02
#       6
#    16  16  16  16  16  16
#     4  10  20  36  59  90 125 155 200 258 307 355
#     4  10  20  36  59  90 125 155 200 258 307 355
#     4   9  16  34  50  87 122 168 202 249 286 370
#     4  11  24  43  67  88 117 161 210 249 298 370
#     4   9  18  28  58  83 124 166 208 231 306 362
#     4  11  24  43  67  88 117 161 210 249 298 370
#
# _framework density 20.518122999999999
#
# number of rings (size 3 to 8) (size 9 to 14) (size 15 to 20)
#    0.000    2.000    1.667    3.000    4.667    4.000 
#    0.000    5.000    0.000    0.000    0.000    0.000 
#    0.000    0.000    0.000    0.000    0.000    0.000 
#
# Total GULP energy -594715.362430 kJ/mol
# GULP energy per Si atom -12389.903384 kJ/mol
# Density = 2.047142 g / cm^3
# Si number density = 20.518123 Si / 1000 Ang^3
#
#
#
# Elastic Constant Matrix: (Units=GPa)
#
#
# Indices 1 2 3 4 5 6 
#
# 1 115.5241 53.3770 29.6572 0.0000 0.0000 0.0000
# 2 53.3770 104.3153 25.4932 0.0000 0.0000 0.0000
# 3 29.6572 25.4932 58.7443 0.0000 0.0000 0.0000
# 4 0.0000 0.0000 0.0000 23.8309 0.0000 0.0000
# 5 0.0000 0.0000 0.0000 0.0000 23.9614 0.0000
# 6 0.0000 0.0000 0.0000 0.0000 0.0000 31.3821
#
#
#
# Elastic Compliance Matrix: (Units=1/GPa)
#
#
# Indices 1 2 3 4 5 6 
#
# 1 0.012055 -0.005236 -0.003813 0.000000 0.000000 0.000000
# 2 -0.005236 0.012998 -0.002997 0.000000 0.000000 0.000000
# 3 -0.003813 -0.002997 0.020249 0.000000 0.000000 0.000000
# 4 0.000000 0.000000 0.000000 0.041962 0.000000 0.000000
# 5 0.000000 0.000000 0.000000 0.000000 0.041734 0.000000
# 6 0.000000 0.000000 0.000000 0.000000 0.000000 0.031865
#
#
# Mechanical properties :
#
#
# Convention : Reuss Voigt Hill
#
# Bulk Modulus (GPa) = 47.15261 55.07093 51.11177
# Shear Modulus (GPa) = 26.03817 27.17199 26.60508
#
# Velocity S-wave (km/s) = 3.56621 3.64303 3.60483
# Velocity P-wave (km/s) = 6.32361 6.67787 6.50315
#
# Compressibility (1/GPa) = 0.02120773
#
# Stress axis : x y z
#
# Youngs Moduli (GPa) = 82.95635 76.93416 49.38556
#
# Poissons Ratio (x) = 0.40285 0.18833
# Poissons Ratio (y) = 0.43438 0.14802
# Poissons Ratio (z) = 0.31635 0.23059
#
# Static dielectric constant tensor:
#      x y z
#    x 3.642230 0.000000 0.000000 
#    y 0.000000 3.628780 0.000000 
#    z 0.000000 0.000000 3.573940 
# 
# 
# High freq. dielectric constant tensor:
#      x y z
#    x 1.789480 0.000000 0.000000 
#    y 0.000000 1.787370 0.000000 
#    z 0.000000 0.000000 1.799820 
# 
# From -- ./inp_files/8110.got.cif
#   From: 2010.03.12/outbox.cif.g09.slc.cpg/sg68_5_cif.got.tgz:8110.got - 2010.04.10 23:14:56.
