data_PCOD8282744
_publ_section_title
;
Structure prediction by ZEFSAII (Michael W. Deem and Ramdas Pophale) SiO2 
 PCOD8282744
Probable space group: C C C A
;
_chemical_formula_sum "Si O2"
_cell_formula_units_Z 120
_cell_length_a 22.765970
_cell_length_b 11.223644
_cell_length_c 22.162537
_cell_angle_alpha 90.000000
_cell_angle_beta 90.000000
_cell_angle_gamma 90.000000
_cell_volume 5662.908127
_symmetry_space_group_name_H-M "C C C A"
_symmetry_group_IT_number 68
_space_group.IT_coordinate_system_code '2'
_symmetry_cell_setting 'orthorhombic'
loop_
_space_group_symop_operation_xyz
x,y,z
-x,1/2-y,z
x,1/2-y,1/2-z
-x,y,1/2-z
-x,-y,-z
x,1/2+y,-z
-x,1/2+y,1/2+z
x,-y,1/2+z
1/2+x,1/2+y,z
1/2-x,-y,z
1/2+x,-y,1/2-z
1/2-x,1/2+y,1/2-z
1/2-x,1/2-y,-z
1/2+x,y,-z
1/2-x,y,1/2+z
1/2+x,1/2-y,1/2+z
loop_
_atom_site_type_symbol
_atom_site_label
_atom_site_fract_x
_atom_site_fract_y
_atom_site_fract_z
Si Si1 0.320827 0.866804 0.900380
Si Si2 0.250000 0.000000 0.493713
Si Si3 0.943644 0.490512 0.611491
Si Si4 0.932768 0.751727 0.578007
Si Si5 0.222286 0.374073 0.731048
Si Si6 0.139420 0.148610 0.532569
Si Si7 0.571623 0.013048 0.639047
Si Si8 0.590829 0.882263 0.761490
O O1 0.282268 0.869840 0.840632
O O2 0.348066 0.738355 0.912561
O O3 0.373327 0.961362 0.897155
O O4 0.277541 0.894929 0.954615
O O5 0.302438 0.934651 0.529502
O O6 0.919998 0.625466 0.608963
O O7 0.915588 0.427979 0.553912
O O8 0.928925 0.433926 0.675538
O O9 0.013288 0.474031 0.603386
O O10 0.883022 0.783217 0.527619
O O11 0.000000 0.750000 0.551854
O O12 0.925391 0.843999 0.633695
O O13 0.256144 0.250000 0.750000
O O14 0.250000 0.500000 0.751633
O O15 0.160398 0.371197 0.764338
O O16 0.570116 0.971174 0.708401
O O17 0.563898 0.750000 0.750000
#
# Coordination Sequence:
#
# PCOD8282744 Si02
#       8
#    16   8  16  16  16  16  16  16
#     4  11  23  42  67  92 127 174 217 272 331 397
#     4  12  24  46  62  90 134 180 220 266 328 394
#     4  11  24  42  65 103 135 169 223 277 329 400
#     4  10  24  41  63  97 135 176 221 269 333 401
#     4  10  21  43  64  93 127 169 222 277 338 401
#     4  12  25  42  67  97 131 177 224 279 329 396
#     4  10  22  42  70  96 135 174 214 272 341 398
#     4  10  22  43  67  99 132 169 216 268 339 402
#
# _framework density 21.190526999999999
#
# number of rings (size 3 to 8) (size 9 to 14) (size 15 to 20)
#    0.000    1.333    2.000    4.000    1.867    3.733 
#   12.000    2.000    0.000    0.000    0.000    0.000 
#    0.000    0.000    0.000    0.000    0.000    0.000 
#
# Total GULP energy -743673.537736 kJ/mol
# GULP energy per Si atom -12394.558962 kJ/mol
# Density = 2.114230 g / cm^3
# Si number density = 21.190527 Si / 1000 Ang^3
#
#
#
# Elastic Constant Matrix: (Units=GPa)
#
#
# Indices 1 2 3 4 5 6 
#
# 1 72.2425 39.3531 33.9640 0.0000 0.0000 0.0000
# 2 39.3531 159.5764 45.5561 0.0000 0.0000 0.0000
# 3 33.9640 45.5561 64.7025 0.0000 0.0000 0.0000
# 4 0.0000 0.0000 0.0000 31.3202 0.0000 0.0000
# 5 0.0000 0.0000 0.0000 0.0000 55.5654 0.0000
# 6 0.0000 0.0000 0.0000 0.0000 0.0000 33.2707
#
#
#
# Elastic Compliance Matrix: (Units=1/GPa)
#
#
# Indices 1 2 3 4 5 6 
#
# 1 0.019032 -0.002305 -0.008368 0.000000 0.000000 0.000000
# 2 -0.002305 0.008122 -0.004509 0.000000 0.000000 0.000000
# 3 -0.008368 -0.004509 0.023022 0.000000 0.000000 0.000000
# 4 0.000000 0.000000 0.000000 0.031928 0.000000 0.000000
# 5 0.000000 0.000000 0.000000 0.000000 0.017997 0.000000
# 6 0.000000 0.000000 0.000000 0.000000 0.000000 0.030056
#
#
# Mechanical properties :
#
#
# Convention : Reuss Voigt Hill
#
# Bulk Modulus (GPa) = 50.46951 59.36308 54.91630
# Shear Modulus (GPa) = 29.91782 35.87447 32.89615
#
# Velocity S-wave (km/s) = 3.76153 4.11901 3.94432
# Velocity P-wave (km/s) = 6.53714 7.12014 6.83486
#
# Compressibility (1/GPa) = 0.01981394
#
# Stress axis : x y z
#
# Youngs Moduli (GPa) = 52.54426 123.12013 43.43602
#
# Poissons Ratio (x) = 0.28374 0.36345
# Poissons Ratio (y) = 0.12109 0.19585
# Poissons Ratio (z) = 0.43967 0.55514
#
# Static dielectric constant tensor:
#      x y z
#    x 3.940510 0.000000 0.000000 
#    y 0.000000 4.200350 0.000000 
#    z 0.000000 0.000000 3.612120 
# 
# 
# High freq. dielectric constant tensor:
#      x y z
#    x 1.833570 0.000000 0.000000 
#    y 0.000000 1.847920 0.000000 
#    z 0.000000 0.000000 1.819200 
# 
# From -- ./inp_files/40946.got.cif
#   From: 2010.03.12/outbox.cif.g09.slc.cpg/sg68_21_cif.got.tgz:40946.got - 2010.04.10 23:14:56.
