data_PCOD8282964
_publ_section_title
;
Structure prediction by ZEFSAII (Michael W. Deem and Ramdas Pophale) SiO2 
 PCOD8282964
Probable space group: C C C A
;
_chemical_formula_sum "Si O2"
_cell_formula_units_Z 112
_cell_length_a 11.495753
_cell_length_b 34.542187
_cell_length_c 13.080863
_cell_angle_alpha 90.000000
_cell_angle_beta 90.000000
_cell_angle_gamma 90.000000
_cell_volume 5194.259611
_symmetry_space_group_name_H-M "C C C A"
_symmetry_group_IT_number 68
_space_group.IT_coordinate_system_code '2'
_symmetry_cell_setting 'orthorhombic'
loop_
_space_group_symop_operation_xyz
x,y,z
-x,1/2-y,z
x,1/2-y,1/2-z
-x,y,1/2-z
-x,-y,-z
x,1/2+y,-z
-x,1/2+y,1/2+z
x,-y,1/2+z
1/2+x,1/2+y,z
1/2-x,-y,z
1/2+x,-y,1/2-z
1/2-x,1/2+y,1/2-z
1/2-x,1/2-y,-z
1/2+x,y,-z
1/2-x,y,1/2+z
1/2+x,1/2-y,1/2+z
loop_
_atom_site_type_symbol
_atom_site_label
_atom_site_fract_x
_atom_site_fract_y
_atom_site_fract_z
Si Si1 0.253419 0.117221 0.314370
Si Si2 0.597284 0.165909 0.328303
Si Si3 0.679153 0.037114 0.741696
Si Si4 0.018142 0.963729 0.574553
Si Si5 0.455780 0.334356 0.642181
Si Si6 0.552993 0.617925 0.975625
Si Si7 0.874328 0.727649 0.007029
O O1 0.294499 0.148935 0.233020
O O2 0.261055 0.074957 0.262946
O O3 0.121369 0.127399 0.340811
O O4 0.323806 0.119222 0.419755
O O5 0.500000 0.180606 0.250000
O O6 0.548566 0.131670 0.399658
O O7 0.638945 0.203118 0.390219
O O8 0.583598 0.041773 0.655015
O O9 0.634048 0.031304 0.857379
O O10 0.750000 0.000000 0.708488
O O11 0.026284 0.925790 0.505767
O O12 0.000000 0.000000 0.500000
O O13 0.500000 0.317996 0.750000
O O14 0.559255 0.351128 0.569793
O O15 0.381618 0.300084 0.591343
O O16 0.000000 0.750000 0.010664
O O17 0.750000 0.750000 0.000000
#
# Coordination Sequence:
#
# PCOD8282964 Si02
#       7
#    16  16  16  16  16  16  16
#     4  11  23  43  74 100 135 186 236 288 349 428
#     4   9  23  45  73 100 136 185 232 287 354 427
#     4  11  25  43  64  99 136 180 233 287 351 407
#     4  11  24  42  63  93 139 178 226 295 347 411
#     4  11  25  44  72 102 142 182 233 289 353 420
#     4  10  22  42  69 100 133 177 238 286 351 415
#     4  11  28  49  73 108 147 184 237 297 362 440
#
# _framework density 21.562263999999999
#
# number of rings (size 3 to 8) (size 9 to 14) (size 15 to 20)
#    0.000    1.429    1.429    1.714   10.000    5.714 
#    0.000    0.000    0.000    0.000    0.000    0.000 
#    0.000    0.000    0.000    0.000    0.000    0.000 
#
# Total GULP energy -694282.589730 kJ/mol
# GULP energy per Si atom -12397.903388 kJ/mol
# Density = 2.151319 g / cm^3
# Si number density = 21.562264 Si / 1000 Ang^3
#
#
#
# Elastic Constant Matrix: (Units=GPa)
#
#
# Indices 1 2 3 4 5 6 
#
# 1 97.3089 48.3675 44.7934 0.0000 0.0000 0.0000
# 2 48.3675 137.4354 64.2477 0.0000 0.0000 0.0000
# 3 44.7934 64.2477 156.1361 0.0000 0.0000 0.0000
# 4 0.0000 0.0000 0.0000 -19.0347 0.0000 0.0000
# 5 0.0000 0.0000 0.0000 0.0000 26.6284 0.0000
# 6 0.0000 0.0000 0.0000 0.0000 0.0000 23.2286
#
#
#
# Elastic Compliance Matrix: (Units=1/GPa)
#
#
# Indices 1 2 3 4 5 6 
#
# 1 0.013092 -0.003531 -0.002303 0.000000 0.000000 0.000000
# 2 -0.003531 0.009961 -0.003086 0.000000 0.000000 0.000000
# 3 -0.002303 -0.003086 0.008335 0.000000 0.000000 0.000000
# 4 0.000000 0.000000 0.000000 -0.052536 0.000000 0.000000
# 5 0.000000 0.000000 0.000000 0.000000 0.037554 0.000000
# 6 0.000000 0.000000 0.000000 0.000000 0.000000 0.043050
#
#
# Mechanical properties :
#
#
# Convention : Reuss Voigt Hill
#
# Bulk Modulus (GPa) = 73.80772 78.41086 76.10929
# Shear Modulus (GPa) = 61.11538 21.72925 41.42231
#
# Velocity S-wave (km/s) = 5.32965 3.17794 4.38774
# Velocity P-wave (km/s) = 8.49576 7.06467 7.81305
#
# Compressibility (1/GPa) = 0.01354872
#
# Stress axis : x y z
#
# Youngs Moduli (GPa) = 76.38483 100.38794 119.97281
#
# Poissons Ratio (x) = 0.35444 0.27629
# Poissons Ratio (y) = 0.26969 0.37024
# Poissons Ratio (z) = 0.17591 0.30980
#
# Static dielectric constant tensor:
#      x y z
#    x 3.648570 0.000000 0.000000 
#    y 0.000000 3.902880 0.000000 
#    z 0.000000 0.000000 4.345160 
# 
# 
# High freq. dielectric constant tensor:
#      x y z
#    x 1.842220 0.000000 0.000000 
#    y 0.000000 1.852150 0.000000 
#    z 0.000000 0.000000 1.864750 
# 
# From -- ./inp_files/21239.got.cif
#   From: 2010.03.12/outbox.cif.g09.slc.cpg/sg68_11_cif.got.tgz:21239.got - 2010.04.10 23:14:56.
