data_PCOD8282904
_publ_section_title
;
Structure prediction by ZEFSAII (Michael W. Deem and Ramdas Pophale) SiO2 
 PCOD8282904
Probable space group: C C C A
;
_chemical_formula_sum "Si O2"
_cell_formula_units_Z 72
_cell_length_a 14.845781
_cell_length_b 9.997417
_cell_length_c 21.967609
_cell_angle_alpha 90.000000
_cell_angle_beta 90.000000
_cell_angle_gamma 90.000000
_cell_volume 3260.420739
_symmetry_space_group_name_H-M "C C C A"
_symmetry_group_IT_number 68
_space_group.IT_coordinate_system_code '2'
_symmetry_cell_setting 'orthorhombic'
loop_
_space_group_symop_operation_xyz
x,y,z
-x,1/2-y,z
x,1/2-y,1/2-z
-x,y,1/2-z
-x,-y,-z
x,1/2+y,-z
-x,1/2+y,1/2+z
x,-y,1/2+z
1/2+x,1/2+y,z
1/2-x,-y,z
1/2+x,-y,1/2-z
1/2-x,1/2+y,1/2-z
1/2-x,1/2-y,-z
1/2+x,y,-z
1/2-x,y,1/2+z
1/2+x,1/2-y,1/2+z
loop_
_atom_site_type_symbol
_atom_site_label
_atom_site_fract_x
_atom_site_fract_y
_atom_site_fract_z
Si Si1 0.921339 0.840652 0.626624
Si Si2 0.345414 0.811903 0.018642
Si Si3 0.750000 0.000000 0.896974
Si Si4 0.072461 0.138174 0.890090
Si Si5 0.735114 0.260176 0.320935
O O1 0.898837 0.797487 0.557639
O O2 0.833542 0.822414 0.668509
O O3 0.000000 0.750000 0.655191
O O4 0.962904 0.989414 0.623686
O O5 0.330236 0.945669 0.059476
O O6 0.250000 0.750000 0.000000
O O7 0.404640 0.847808 0.960863
O O8 0.783234 0.118630 0.853691
O O9 0.162103 0.142180 0.849701
O O10 0.000000 0.250000 0.870044
O O11 0.716737 0.250000 0.250000
#
# Coordination Sequence:
#
# PCOD8282904 Si02
#       5
#    16  16   8  16  16
#     4  11  26  45  70 103 143 183 235 291 354 417
#     4  11  21  41  72 103 145 181 228 288 361 429
#     4  10  22  40  74 102 136 180 240 284 364 416
#     4  12  27  44  71 107 144 187 232 288 357 426
#     4  11  27  48  73  98 140 192 241 293 351 423
#
# _framework density 22.083038999999999
#
# number of rings (size 3 to 8) (size 9 to 14) (size 15 to 20)
#    0.000    0.889    4.444    2.667    9.333    2.667 
#    0.000    2.222    0.000    0.000    0.000    0.000 
#    0.000    0.000    0.000    0.000    0.000    0.000 
#
# Total GULP energy -446453.001430 kJ/mol
# GULP energy per Si atom -12401.472262 kJ/mol
# Density = 2.203278 g / cm^3
# Si number density = 22.083039 Si / 1000 Ang^3
#
#
#
# Elastic Constant Matrix: (Units=GPa)
#
#
# Indices 1 2 3 4 5 6 
#
# 1 109.3709 46.8939 17.5594 0.0000 0.0000 0.0000
# 2 46.8939 165.5229 24.3864 0.0000 0.0000 0.0000
# 3 17.5594 24.3864 121.3287 0.0000 0.0000 0.0000
# 4 0.0000 0.0000 0.0000 17.3672 0.0000 0.0000
# 5 0.0000 0.0000 0.0000 0.0000 5.2951 0.0000
# 6 0.0000 0.0000 0.0000 0.0000 0.0000 34.4005
#
#
#
# Elastic Compliance Matrix: (Units=1/GPa)
#
#
# Indices 1 2 3 4 5 6 
#
# 1 0.010513 -0.002838 -0.000951 0.000000 0.000000 0.000000
# 2 -0.002838 0.006992 -0.000995 0.000000 0.000000 0.000000
# 3 -0.000951 -0.000995 0.008580 0.000000 0.000000 0.000000
# 4 0.000000 0.000000 0.000000 0.057580 0.000000 0.000000
# 5 0.000000 0.000000 0.000000 0.000000 0.188855 0.000000
# 6 0.000000 0.000000 0.000000 0.000000 0.000000 0.029069
#
#
# Mechanical properties :
#
#
# Convention : Reuss Voigt Hill
#
# Bulk Modulus (GPa) = 60.54437 63.76686 62.15562
# Shear Modulus (GPa) = 15.78971 31.90475 23.84723
#
# Velocity S-wave (km/s) = 2.67688 3.80513 3.28973
# Velocity P-wave (km/s) = 6.08526 6.94579 6.52972
#
# Compressibility (1/GPa) = 0.01651681
#
# Stress axis : x y z
#
# Youngs Moduli (GPa) = 95.12208 143.01872 116.55531
#
# Poissons Ratio (x) = 0.40592 0.11084
# Poissons Ratio (y) = 0.26998 0.11593
# Poissons Ratio (z) = 0.09046 0.14225
#
# Static dielectric constant tensor:
#      x y z
#    x 4.668400 0.000000 0.000000 
#    y 0.000000 4.076620 0.000000 
#    z 0.000000 0.000000 3.952810 
# 
# 
# High freq. dielectric constant tensor:
#      x y z
#    x 1.867560 0.000000 0.000000 
#    y 0.000000 1.881460 0.000000 
#    z 0.000000 0.000000 1.857550 
# 
# From -- ./inp_files/45906.got.cif
#   From: 2010.03.12/outbox.cif.g09.slc.cpg/sg68_23_cif.got.tgz:45906.got - 2010.04.10 23:14:56.
