data_PCOD8282066
_publ_section_title
;
Structure prediction by ZEFSAII (Michael W. Deem and Ramdas Pophale) SiO2 
 PCOD8282066
Probable space group: C C C A
;
_chemical_formula_sum "Si O2"
_cell_formula_units_Z 64
_cell_length_a 20.853574
_cell_length_b 10.135689
_cell_length_c 13.965395
_cell_angle_alpha 90.000000
_cell_angle_beta 90.000000
_cell_angle_gamma 90.000000
_cell_volume 2951.800471
_symmetry_space_group_name_H-M "C C C A"
_symmetry_group_IT_number 68
_space_group.IT_coordinate_system_code '2'
_symmetry_cell_setting 'orthorhombic'
loop_
_space_group_symop_operation_xyz
x,y,z
-x,1/2-y,z
x,1/2-y,1/2-z
-x,y,1/2-z
-x,-y,-z
x,1/2+y,-z
-x,1/2+y,1/2+z
x,-y,1/2+z
1/2+x,1/2+y,z
1/2-x,-y,z
1/2+x,-y,1/2-z
1/2-x,1/2+y,1/2-z
1/2-x,1/2-y,-z
1/2+x,y,-z
1/2-x,y,1/2+z
1/2+x,1/2-y,1/2+z
loop_
_atom_site_type_symbol
_atom_site_label
_atom_site_fract_x
_atom_site_fract_y
_atom_site_fract_z
Si Si1 0.044294 0.376021 0.008632
Si Si2 0.269036 0.701374 0.604011
Si Si3 0.875587 0.862757 0.316542
Si Si4 0.349103 0.544642 0.153008
O O1 0.084570 0.370232 0.912202
O O2 0.000000 0.250000 0.024639
O O3 0.091303 0.391251 0.098359
O O4 0.000000 0.500000 0.000000
O O5 0.250000 0.750000 0.500000
O O6 0.301876 0.822283 0.660337
O O7 0.321383 0.582819 0.595848
O O8 0.206372 0.654271 0.661802
O O9 0.907901 0.750000 0.250000
O O10 0.872625 0.001248 0.259197
#
# Coordination Sequence:
#
# PCOD8282066 Si02
#       4
#    16  16  16  16
#     4  12  26  46  73  98 138 192 242 289 345 411
#     4  10  19  42  70  99 144 178 225 289 368 425
#     4  10  22  45  69 100 137 183 229 287 357 427
#     4  10  23  42  66 107 134 177 240 290 355 422
#
# _framework density 21.681681999999999
#
# number of rings (size 3 to 8) (size 9 to 14) (size 15 to 20)
#    0.000    1.500    2.500    3.000    0.000    3.500 
#   22.500    2.500    0.000    0.000    0.000    0.000 
#    0.000    0.000    0.000    0.000    0.000    0.000 
#
# Total GULP energy -396792.744353 kJ/mol
# GULP energy per Si atom -12399.773261 kJ/mol
# Density = 2.163233 g / cm^3
# Si number density = 21.681682 Si / 1000 Ang^3
#
#
#
# Elastic Constant Matrix: (Units=GPa)
#
#
# Indices 1 2 3 4 5 6 
#
# 1 156.1384 77.0039 68.7411 0.0000 0.0000 0.0000
# 2 77.0039 111.5861 56.8186 0.0000 0.0000 0.0000
# 3 68.7411 56.8186 125.7465 0.0000 0.0000 0.0000
# 4 0.0000 0.0000 0.0000 44.7116 0.0000 0.0000
# 5 0.0000 0.0000 0.0000 0.0000 11.5991 0.0000
# 6 0.0000 0.0000 0.0000 0.0000 0.0000 38.4664
#
#
#
# Elastic Compliance Matrix: (Units=1/GPa)
#
#
# Indices 1 2 3 4 5 6 
#
# 1 0.010639 -0.005690 -0.003245 0.000000 0.000000 0.000000
# 2 -0.005690 0.014682 -0.003524 0.000000 0.000000 0.000000
# 3 -0.003245 -0.003524 0.011319 0.000000 0.000000 0.000000
# 4 0.000000 0.000000 0.000000 0.022366 0.000000 0.000000
# 5 0.000000 0.000000 0.000000 0.000000 0.086214 0.000000
# 6 0.000000 0.000000 0.000000 0.000000 0.000000 0.025997
#
#
# Mechanical properties :
#
#
# Convention : Reuss Voigt Hill
#
# Bulk Modulus (GPa) = 85.30285 88.73312 87.01799
# Shear Modulus (GPa) = 24.99477 31.68258 28.33867
#
# Velocity S-wave (km/s) = 3.39898 3.82679 3.61921
# Velocity P-wave (km/s) = 7.40492 7.78075 7.59516
#
# Compressibility (1/GPa) = 0.01172294
#
# Stress axis : x y z
#
# Youngs Moduli (GPa) = 93.99114 68.10915 88.34788
#
# Poissons Ratio (x) = 0.38751 0.28672
# Poissons Ratio (y) = 0.53477 0.31133
# Poissons Ratio (z) = 0.30503 0.24001
#
# Static dielectric constant tensor:
#      x y z
#    x 5.874200 0.000000 0.000000 
#    y 0.000000 4.018250 0.000000 
#    z 0.000000 0.000000 3.680680 
# 
# 
# High freq. dielectric constant tensor:
#      x y z
#    x 1.855570 0.000000 0.000000 
#    y 0.000000 1.849500 0.000000 
#    z 0.000000 0.000000 1.855970 
# 
# From -- ./inp_files/19223.got.cif
#   From: 2010.03.12/outbox.cif.g09.slc.cpg/sg68_10_cif.got.tgz:19223.got - 2010.04.10 23:14:56.
