data_PCOD8282266
_publ_section_title
;
Structure prediction by ZEFSAII (Michael W. Deem and Ramdas Pophale) SiO2 
 PCOD8282266
Probable space group: C C C A
;
_chemical_formula_sum "Si O2"
_cell_formula_units_Z 104
_cell_length_a 8.250187
_cell_length_b 21.739385
_cell_length_c 29.114626
_cell_angle_alpha 90.000000
_cell_angle_beta 90.000000
_cell_angle_gamma 90.000000
_cell_volume 5221.824385
_symmetry_space_group_name_H-M "C C C A"
_symmetry_group_IT_number 68
_space_group.IT_coordinate_system_code '2'
_symmetry_cell_setting 'orthorhombic'
loop_
_space_group_symop_operation_xyz
x,y,z
-x,1/2-y,z
x,1/2-y,1/2-z
-x,y,1/2-z
-x,-y,-z
x,1/2+y,-z
-x,1/2+y,1/2+z
x,-y,1/2+z
1/2+x,1/2+y,z
1/2-x,-y,z
1/2+x,-y,1/2-z
1/2-x,1/2+y,1/2-z
1/2-x,1/2-y,-z
1/2+x,y,-z
1/2-x,y,1/2+z
1/2+x,1/2-y,1/2+z
loop_
_atom_site_type_symbol
_atom_site_label
_atom_site_fract_x
_atom_site_fract_y
_atom_site_fract_z
Si Si1 0.140644 0.444524 0.215110
Si Si2 0.500000 0.750000 0.021984
Si Si3 0.432395 0.637068 0.699821
Si Si4 0.694544 0.807561 0.941868
Si Si5 0.750000 0.000000 0.021047
Si Si6 0.950004 0.940489 0.443039
Si Si7 0.421919 0.981612 0.654935
Si Si8 0.000000 0.750000 0.364625
O O1 0.250000 0.500000 0.236124
O O2 0.246095 0.384478 0.204177
O O3 0.000000 0.425737 0.250000
O O4 0.059023 0.468955 0.168239
O O5 0.610670 0.702606 0.052431
O O6 0.615825 0.790746 0.990506
O O7 0.500000 0.653324 0.750000
O O8 0.538600 0.584597 0.676051
O O9 0.437125 0.695965 0.667670
O O10 0.621803 0.874179 0.930036
O O11 0.648890 0.765954 0.898237
O O12 0.645383 0.050137 0.050520
O O13 0.869312 0.039851 0.990264
O O14 0.907791 0.983271 0.399996
O O15 0.250000 0.000000 0.676421
#
# Coordination Sequence:
#
# PCOD8282266 Si02
#       8
#    16   8  16  16   8  16  16   8
#     4  10  20  37  63  94 119 150 200 254 312 373
#     4   9  20  38  63  86 106 160 209 262 284 347
#     4  11  23  41  64  86 121 159 200 253 312 370
#     4  10  20  39  61  84 121 155 214 249 301 356
#     4  10  24  36  56  88 124 162 200 244 320 374
#     4  11  21  38  56  85 123 160 196 250 307 370
#     4  11  21  37  62  91 119 155 199 252 306 367
#     4  11  23  40  59  90 122 166 205 244 301 373
#
# _framework density 19.916411
#
# number of rings (size 3 to 8) (size 9 to 14) (size 15 to 20)
#    0.000    1.538    2.308    4.385    3.231    0.000 
#    2.769    0.000    0.000    2.769    0.000    0.000 
#    0.000    0.000    0.000    0.000    0.000    0.000 
#
# Total GULP energy -644450.133445 kJ/mol
# GULP energy per Si atom -12393.271797 kJ/mol
# Density = 1.987108 g / cm^3
# Si number density = 19.916411 Si / 1000 Ang^3
#
#
#
# Elastic Constant Matrix: (Units=GPa)
#
#
# Indices 1 2 3 4 5 6 
#
# 1 153.4249 71.2431 55.3353 0.0000 0.0000 0.0000
# 2 71.2431 106.2420 51.3378 0.0000 0.0000 0.0000
# 3 55.3353 51.3378 110.9738 0.0000 0.0000 0.0000
# 4 0.0000 0.0000 0.0000 107.7006 0.0000 0.0000
# 5 0.0000 0.0000 0.0000 0.0000 19.2004 0.0000
# 6 0.0000 0.0000 0.0000 0.0000 0.0000 29.6423
#
#
#
# Elastic Compliance Matrix: (Units=1/GPa)
#
#
# Indices 1 2 3 4 5 6 
#
# 1 0.009943 -0.005501 -0.002413 0.000000 0.000000 0.000000
# 2 -0.005501 0.015166 -0.004273 0.000000 0.000000 0.000000
# 3 -0.002413 -0.004273 0.012191 0.000000 0.000000 0.000000
# 4 0.000000 0.000000 0.000000 0.009285 0.000000 0.000000
# 5 0.000000 0.000000 0.000000 0.000000 0.052082 0.000000
# 6 0.000000 0.000000 0.000000 0.000000 0.000000 0.033736
#
#
# Mechanical properties :
#
#
# Convention : Reuss Voigt Hill
#
# Bulk Modulus (GPa) = 77.36496 80.71923 79.04210
# Shear Modulus (GPa) = 31.03946 44.15696 37.59821
#
# Velocity S-wave (km/s) = 3.95205 4.71373 4.34960
# Velocity P-wave (km/s) = 7.73008 8.38109 8.06216
#
# Compressibility (1/GPa) = 0.01292575
#
# Stress axis : x y z
#
# Youngs Moduli (GPa) = 100.57714 65.93562 82.02840
#
# Poissons Ratio (x) = 0.36274 0.19791
# Poissons Ratio (y) = 0.55332 0.35050
# Poissons Ratio (z) = 0.24266 0.28174
#
# Static dielectric constant tensor:
#      x y z
#    x 3.910500 0.000000 0.000000 
#    y 0.000000 3.559890 0.000000 
#    z 0.000000 0.000000 3.682440 
# 
# 
# High freq. dielectric constant tensor:
#      x y z
#    x 1.784570 0.000000 0.000000 
#    y 0.000000 1.753660 0.000000 
#    z 0.000000 0.000000 1.786220 
# 
# From -- ./inp_files/49468.got.cif
#   From: 2010.03.12/outbox.cif.g09.slc.cpg/sg68_25_cif.got.tgz:49468.got - 2010.04.10 23:14:56.
