data_PCOD8282399
_publ_section_title
;
Structure prediction by ZEFSAII (Michael W. Deem and Ramdas Pophale) SiO2 
 PCOD8282399
Probable space group: C C C A
;
_chemical_formula_sum "Si O2"
_cell_formula_units_Z 76
_cell_length_a 14.621513
_cell_length_b 12.716408
_cell_length_c 18.745976
_cell_angle_alpha 90.000000
_cell_angle_beta 90.000000
_cell_angle_gamma 90.000000
_cell_volume 3485.497897
_symmetry_space_group_name_H-M "C C C A"
_symmetry_group_IT_number 68
_space_group.IT_coordinate_system_code '2'
_symmetry_cell_setting 'orthorhombic'
loop_
_space_group_symop_operation_xyz
x,y,z
-x,1/2-y,z
x,1/2-y,1/2-z
-x,y,1/2-z
-x,-y,-z
x,1/2+y,-z
-x,1/2+y,1/2+z
x,-y,1/2+z
1/2+x,1/2+y,z
1/2-x,-y,z
1/2+x,-y,1/2-z
1/2-x,1/2+y,1/2-z
1/2-x,1/2-y,-z
1/2+x,y,-z
1/2-x,y,1/2+z
1/2+x,1/2-y,1/2+z
loop_
_atom_site_type_symbol
_atom_site_label
_atom_site_fract_x
_atom_site_fract_y
_atom_site_fract_z
Si Si1 0.144457 0.598402 0.700191
Si Si2 0.415480 0.921710 0.699457
Si Si3 0.000000 0.250000 0.250000
Si Si4 0.483723 0.629192 0.948656
Si Si5 0.145812 0.483410 0.044749
Si Si6 0.792437 0.750000 0.250000
O O1 0.138686 0.523589 0.770227
O O2 0.058572 0.676623 0.697745
O O3 0.148197 0.528798 0.629878
O O4 0.234468 0.669685 0.702253
O O5 0.500000 0.897385 0.750000
O O6 0.451575 0.939760 0.619684
O O7 0.352546 0.818377 0.695837
O O8 0.500000 0.750000 0.929393
O O9 0.581214 0.582724 0.975174
O O10 0.403018 0.617359 0.007639
O O11 0.250000 0.500000 0.016354
#
# Coordination Sequence:
#
# PCOD8282399 Si02
#       6
#    16  16   4  16  16   8
#     4  11  23  42  68  99 134 174 228 276 337 399
#     4  12  22  43  68  96 136 169 221 280 327 398
#     4  10  20  40  66 102 126 184 220 284 340 392
#     4  11  26  45  69 101 132 184 225 274 347 402
#     4  11  25  46  67  96 140 178 223 284 336 403
#     4  11  25  37  67 102 132 174 223 277 341 385
#
# _framework density 21.804632999999999
#
# number of rings (size 3 to 8) (size 9 to 14) (size 15 to 20)
#    0.000    0.842    3.158    3.474    4.421    2.526 
#    3.789    0.000    0.000    0.000    0.000    0.000 
#    0.000    0.000    0.000    0.000    0.000    0.000 
#
# Total GULP energy -471206.008122 kJ/mol
# GULP energy per Si atom -12400.158108 kJ/mol
# Density = 2.175500 g / cm^3
# Si number density = 21.804633 Si / 1000 Ang^3
#
#
#
# Elastic Constant Matrix: (Units=GPa)
#
#
# Indices 1 2 3 4 5 6 
#
# 1 151.7082 48.1177 21.6435 0.0000 0.0000 0.0000
# 2 48.1177 113.6003 21.5232 0.0000 0.0000 0.0000
# 3 21.6435 21.5232 81.3441 0.0000 0.0000 0.0000
# 4 0.0000 0.0000 0.0000 24.5963 0.0000 0.0000
# 5 0.0000 0.0000 0.0000 0.0000 19.4436 0.0000
# 6 0.0000 0.0000 0.0000 0.0000 0.0000 111.2719
#
#
#
# Elastic Compliance Matrix: (Units=1/GPa)
#
#
# Indices 1 2 3 4 5 6 
#
# 1 0.007734 -0.003038 -0.001254 0.000000 0.000000 0.000000
# 2 -0.003038 0.010461 -0.001959 0.000000 0.000000 0.000000
# 3 -0.001254 -0.001959 0.013146 0.000000 0.000000 0.000000
# 4 0.000000 0.000000 0.000000 0.040657 0.000000 0.000000
# 5 0.000000 0.000000 0.000000 0.000000 0.051431 0.000000
# 6 0.000000 0.000000 0.000000 0.000000 0.000000 0.008987
#
#
# Mechanical properties :
#
#
# Convention : Reuss Voigt Hill
#
# Bulk Modulus (GPa) = 53.08657 58.80238 55.94448
# Shear Modulus (GPa) = 33.06926 48.08689 40.57808
#
# Velocity S-wave (km/s) = 3.89860 4.70121 4.31859
# Velocity P-wave (km/s) = 6.68317 7.51631 7.11195
#
# Compressibility (1/GPa) = 0.01883715
#
# Stress axis : x y z
#
# Youngs Moduli (GPa) = 129.29594 95.59290 76.07126
#
# Poissons Ratio (x) = 0.29045 0.09539
# Poissons Ratio (y) = 0.39285 0.14906
# Poissons Ratio (z) = 0.16213 0.18731
#
# Static dielectric constant tensor:
#      x y z
#    x 4.402310 0.000000 0.000000 
#    y 0.000000 3.949950 0.000000 
#    z 0.000000 0.000000 3.019960 
# 
# 
# High freq. dielectric constant tensor:
#      x y z
#    x 1.879580 0.000000 0.000000 
#    y 0.000000 1.859570 0.000000 
#    z 0.000000 0.000000 1.831630 
# 
# From -- ./inp_files/38438.got.cif
#   From: 2010.03.12/outbox.cif.g09.slc.cpg/sg68_20_cif.got.tgz:38438.got - 2010.04.10 23:14:56.
