data_PCOD8282535
_publ_section_title
;
Structure prediction by ZEFSAII (Michael W. Deem and Ramdas Pophale) SiO2 
 PCOD8282535
Probable space group: C C C A
;
_chemical_formula_sum "Si O2"
_cell_formula_units_Z 112
_cell_length_a 16.294146
_cell_length_b 11.919812
_cell_length_c 27.988489
_cell_angle_alpha 90.000000
_cell_angle_beta 90.000000
_cell_angle_gamma 90.000000
_cell_volume 5436.012694
_symmetry_space_group_name_H-M "C C C A"
_symmetry_group_IT_number 68
_space_group.IT_coordinate_system_code '2'
_symmetry_cell_setting 'orthorhombic'
loop_
_space_group_symop_operation_xyz
x,y,z
-x,1/2-y,z
x,1/2-y,1/2-z
-x,y,1/2-z
-x,-y,-z
x,1/2+y,-z
-x,1/2+y,1/2+z
x,-y,1/2+z
1/2+x,1/2+y,z
1/2-x,-y,z
1/2+x,-y,1/2-z
1/2-x,1/2+y,1/2-z
1/2-x,1/2-y,-z
1/2+x,y,-z
1/2-x,y,1/2+z
1/2+x,1/2-y,1/2+z
loop_
_atom_site_type_symbol
_atom_site_label
_atom_site_fract_x
_atom_site_fract_y
_atom_site_fract_z
Si Si1 0.096387 0.121876 0.242323
Si Si2 0.585434 0.552836 0.481767
Si Si3 0.840222 0.446206 0.138974
Si Si4 0.591086 0.774164 0.102084
Si Si5 0.842932 0.529699 0.835875
Si Si6 0.594612 0.125376 0.089633
Si Si7 0.094555 0.367169 0.920765
O O1 0.122767 0.250000 0.250000
O O2 0.128360 0.087171 0.190762
O O3 0.141734 0.039918 0.279562
O O4 0.000000 0.105321 0.250000
O O5 0.500000 0.500000 0.500000
O O6 0.578502 0.666713 0.449674
O O7 0.633636 0.459603 0.450039
O O8 0.634466 0.586065 0.529798
O O9 0.750000 0.500000 0.138163
O O10 0.854810 0.341249 0.102187
O O11 0.896416 0.548217 0.122600
O O12 0.500000 0.750000 0.122618
O O13 0.635809 0.853022 0.139746
O O14 0.750000 0.500000 0.846967
O O15 0.898195 0.429886 0.858037
O O16 0.502147 0.146710 0.073733
O O17 0.638117 0.247160 0.089926
#
# Coordination Sequence:
#
# PCOD8282535 Si02
#       7
#    16  16  16  16  16  16  16
#     4  11  22  42  71  98 126 165 233 286 330 402
#     4   9  19  35  63  97 122 168 229 283 319 388
#     4  12  26  41  62 100 140 173 214 286 349 403
#     4  11  22  40  71  96 131 174 234 280 330 393
#     4  11  23  40  65  94 129 172 213 273 340 407
#     4   9  20  37  60  89 122 167 218 270 322 391
#     4  10  21  37  61  88 129 170 218 270 325 397
#
# _framework density 20.603337
#
# number of rings (size 3 to 8) (size 9 to 14) (size 15 to 20)
#    0.000    1.571    1.429    4.714    8.000    0.000 
#    0.000    4.286    0.000    2.571    0.000    0.000 
#    0.000    0.000    0.000    0.000    0.000    0.000 
#
# Total GULP energy -693894.429290 kJ/mol
# GULP energy per Si atom -12390.971952 kJ/mol
# Density = 2.055644 g / cm^3
# Si number density = 20.603337 Si / 1000 Ang^3
#
#
#
# Elastic Constant Matrix: (Units=GPa)
#
#
# Indices 1 2 3 4 5 6 
#
# 1 68.9310 39.3310 25.6793 0.0000 0.0000 0.0000
# 2 39.3310 188.2045 82.9148 0.0000 0.0000 0.0000
# 3 25.6793 82.9148 135.8017 0.0000 0.0000 0.0000
# 4 0.0000 0.0000 0.0000 19.4398 0.0000 0.0000
# 5 0.0000 0.0000 0.0000 0.0000 31.9846 0.0000
# 6 0.0000 0.0000 0.0000 0.0000 0.0000 18.7163
#
#
#
# Elastic Compliance Matrix: (Units=1/GPa)
#
#
# Indices 1 2 3 4 5 6 
#
# 1 0.016664 -0.002865 -0.001402 0.000000 0.000000 0.000000
# 2 -0.002865 0.007761 -0.004197 0.000000 0.000000 0.000000
# 3 -0.001402 -0.004197 0.010191 0.000000 0.000000 0.000000
# 4 0.000000 0.000000 0.000000 0.051441 0.000000 0.000000
# 5 0.000000 0.000000 0.000000 0.000000 0.031265 0.000000
# 6 0.000000 0.000000 0.000000 0.000000 0.000000 0.053429
#
#
# Mechanical properties :
#
#
# Convention : Reuss Voigt Hill
#
# Bulk Modulus (GPa) = 56.53185 76.53192 66.53189
# Shear Modulus (GPa) = 25.82973 30.36226 28.09599
#
# Velocity S-wave (km/s) = 3.54456 3.84299 3.69679
# Velocity P-wave (km/s) = 6.65204 7.54437 7.11221
#
# Compressibility (1/GPa) = 0.01768914
#
# Stress axis : x y z
#
# Youngs Moduli (GPa) = 60.00898 128.84946 98.12409
#
# Poissons Ratio (x) = 0.36913 0.13757
# Poissons Ratio (y) = 0.17192 0.41181
# Poissons Ratio (z) = 0.08413 0.54076
#
# Static dielectric constant tensor:
#      x y z
#    x 3.506910 0.000000 0.000000 
#    y 0.000000 3.813200 0.000000 
#    z 0.000000 0.000000 3.915850 
# 
# 
# High freq. dielectric constant tensor:
#      x y z
#    x 1.771960 0.000000 0.000000 
#    y 0.000000 1.825350 0.000000 
#    z 0.000000 0.000000 1.810070 
# 
# From -- ./inp_files/55249.got.cif
#   From: 2010.03.12/outbox.cif.g09.slc.cpg/sg68_28_cif.got.tgz:55249.got - 2010.04.10 23:14:56.
