data_PCOD8282950
_publ_section_title
;
Structure prediction by ZEFSAII (Michael W. Deem and Ramdas Pophale) SiO2 
 PCOD8282950
Probable space group: C C C A
;
_chemical_formula_sum "Si O2"
_cell_formula_units_Z 64
_cell_length_a 29.082902
_cell_length_b 11.882824
_cell_length_c 8.790427
_cell_angle_alpha 90.000000
_cell_angle_beta 90.000000
_cell_angle_gamma 90.000000
_cell_volume 3037.857347
_symmetry_space_group_name_H-M "C C C A"
_symmetry_group_IT_number 68
_space_group.IT_coordinate_system_code '2'
_symmetry_cell_setting 'orthorhombic'
loop_
_space_group_symop_operation_xyz
x,y,z
-x,1/2-y,z
x,1/2-y,1/2-z
-x,y,1/2-z
-x,-y,-z
x,1/2+y,-z
-x,1/2+y,1/2+z
x,-y,1/2+z
1/2+x,1/2+y,z
1/2-x,-y,z
1/2+x,-y,1/2-z
1/2-x,1/2+y,1/2-z
1/2-x,1/2-y,-z
1/2+x,y,-z
1/2-x,y,1/2+z
1/2+x,1/2-y,1/2+z
loop_
_atom_site_type_symbol
_atom_site_label
_atom_site_fract_x
_atom_site_fract_y
_atom_site_fract_z
Si Si1 0.750000 0.000000 0.174764
Si Si2 0.603817 0.953599 0.062592
Si Si3 0.447981 0.118274 0.228539
Si Si4 0.637476 0.750000 0.250000
Si Si5 0.312136 0.085275 0.564818
O O1 0.790554 0.051622 0.273315
O O2 0.727102 0.095196 0.064719
O O3 0.608124 0.854965 0.188510
O O4 0.584722 0.062979 0.146492
O O5 0.567139 0.913105 0.940381
O O6 0.651677 0.988581 0.983151
O O7 0.443375 0.250000 0.250000
O O8 0.500000 0.075995 0.250000
O O9 0.665916 0.793195 0.398484
#
# Coordination Sequence:
#
# PCOD8282950 Si02
#       5
#     8  16  16   8  16
#     4  10  22  42  64  94 136 172 228 276 332 386
#     4  12  23  46  69 100 138 177 228 274 341 411
#     4  11  25  44  71 101 136 175 224 279 339 402
#     4  12  24  40  73 100 130 188 224 268 351 400
#     4  11  22  42  64  96 134 175 222 276 326 404
#
# _framework density 21.067481000000001
#
# number of rings (size 3 to 8) (size 9 to 14) (size 15 to 20)
#    0.000    0.750    5.000    2.250    0.000    1.000 
#    0.000    0.000    0.000    0.000    0.000    0.000 
#    0.000    0.000    0.000    0.000    0.000    0.000 
#
# Total GULP energy -396836.206601 kJ/mol
# GULP energy per Si atom -12401.131456 kJ/mol
# Density = 2.101953 g / cm^3
# Si number density = 21.067481 Si / 1000 Ang^3
#
#
#
# Elastic Constant Matrix: (Units=GPa)
#
#
# Indices 1 2 3 4 5 6 
#
# 1 118.8284 45.0418 63.4928 0.0000 0.0000 0.0000
# 2 45.0418 88.0539 41.9871 0.0000 0.0000 0.0000
# 3 63.4928 41.9871 133.6694 0.0000 0.0000 0.0000
# 4 0.0000 0.0000 0.0000 30.8937 0.0000 0.0000
# 5 0.0000 0.0000 0.0000 0.0000 -206.5540 0.0000
# 6 0.0000 0.0000 0.0000 0.0000 0.0000 45.2237
#
#
#
# Elastic Compliance Matrix: (Units=1/GPa)
#
#
# Indices 1 2 3 4 5 6 
#
# 1 0.012460 -0.004177 -0.004606 0.000000 0.000000 0.000000
# 2 -0.004177 0.014758 -0.002651 0.000000 0.000000 0.000000
# 3 -0.004606 -0.002651 0.010502 0.000000 0.000000 0.000000
# 4 0.000000 0.000000 0.000000 0.032369 0.000000 0.000000
# 5 0.000000 0.000000 0.000000 0.000000 -0.004841 0.000000
# 6 0.000000 0.000000 0.000000 0.000000 0.000000 0.022112
#
#
# Mechanical properties :
#
#
# Convention : Reuss Voigt Hill
#
# Bulk Modulus (GPa) = 67.34090 71.28834 69.31462
# Shear Modulus (GPa) = 43.41030 -13.41865 14.99582
#
# Velocity S-wave (km/s) = 4.54424 -2.52650 2.67085
# Velocity P-wave (km/s) = 7.71798 5.03990 6.51797
#
# Compressibility (1/GPa) = 0.01484982
#
# Stress axis : x y z
#
# Youngs Moduli (GPa) = 80.25556 67.76126 95.21953
#
# Poissons Ratio (x) = 0.28305 0.43863
# Poissons Ratio (y) = 0.33524 0.25247
# Poissons Ratio (z) = 0.36970 0.17966
#
# Static dielectric constant tensor:
#      x y z
#    x 3.954240 0.000000 0.000000 
#    y 0.000000 3.670060 0.000000 
#    z 0.000000 0.000000 4.079520 
# 
# 
# High freq. dielectric constant tensor:
#      x y z
#    x 1.832000 0.000000 0.000000 
#    y 0.000000 1.813520 0.000000 
#    z 0.000000 0.000000 1.845980 
# 
# From -- ./inp_files/4084.got.cif
#   From: 2010.03.12/outbox.cif.g09.slc.cpg/sg68_3_cif.got.tgz:4084.got - 2010.04.10 23:14:56.
