data_PCOD8282712
_publ_section_title
;
Structure prediction by ZEFSAII (Michael W. Deem and Ramdas Pophale) SiO2 
 PCOD8282712
Probable space group: C C C A
;
_chemical_formula_sum "Si O2"
_cell_formula_units_Z 64
_cell_length_a 9.567133
_cell_length_b 17.871447
_cell_length_c 18.085040
_cell_angle_alpha 90.000000
_cell_angle_beta 90.000000
_cell_angle_gamma 90.000000
_cell_volume 3092.153199
_symmetry_space_group_name_H-M "C C C A"
_symmetry_group_IT_number 68
_space_group.IT_coordinate_system_code '2'
_symmetry_cell_setting 'orthorhombic'
loop_
_space_group_symop_operation_xyz
x,y,z
-x,1/2-y,z
x,1/2-y,1/2-z
-x,y,1/2-z
-x,-y,-z
x,1/2+y,-z
-x,1/2+y,1/2+z
x,-y,1/2+z
1/2+x,1/2+y,z
1/2-x,-y,z
1/2+x,-y,1/2-z
1/2-x,1/2+y,1/2-z
1/2-x,1/2-y,-z
1/2+x,y,-z
1/2-x,y,1/2+z
1/2+x,1/2-y,1/2+z
loop_
_atom_site_type_symbol
_atom_site_label
_atom_site_fract_x
_atom_site_fract_y
_atom_site_fract_z
Si Si1 0.848346 0.663372 0.731847
Si Si2 0.754509 0.909447 0.919554
Si Si3 0.858117 0.060684 0.704075
Si Si4 0.043082 0.927348 0.456559
O O1 0.859947 0.750000 0.750000
O O2 0.810956 0.638616 0.648752
O O3 0.722702 0.638549 0.785616
O O4 0.000000 0.626288 0.750000
O O5 0.596716 0.880600 0.936896
O O6 0.750000 0.000000 0.904948
O O7 0.848755 0.884683 0.989847
O O8 0.881951 0.046951 0.618129
O O9 0.000000 0.058190 0.750000
O O10 0.750000 0.000000 0.736895
O O11 0.000000 0.000000 0.500000
#
# Coordination Sequence:
#
# PCOD8282712 Si02
#       4
#    16  16  16  16
#     4  11  26  44  66  92 136 179 227 275 326 393
#     4  10  21  41  66 100 129 172 217 273 339 395
#     4  12  24  40  68 101 130 173 221 277 336 394
#     4  10  22  38  62 102 134 163 210 275 337 395
#
# _framework density 20.697552000000002
#
# number of rings (size 3 to 8) (size 9 to 14) (size 15 to 20)
#    0.000    1.250    2.500    3.750   14.000    0.500 
#    0.000    1.250    0.000    0.000    0.000    0.000 
#    0.000    0.000    0.000    0.000    0.000    0.000 
#
# Total GULP energy -396555.267759 kJ/mol
# GULP energy per Si atom -12392.352117 kJ/mol
# Density = 2.065044 g / cm^3
# Si number density = 20.697552 Si / 1000 Ang^3
#
#
#
# Elastic Constant Matrix: (Units=GPa)
#
#
# Indices 1 2 3 4 5 6 
#
# 1 196.6258 44.5505 74.1683 0.0000 0.0000 0.0000
# 2 44.5505 54.1941 40.4950 0.0000 0.0000 0.0000
# 3 74.1683 40.4950 168.3809 0.0000 0.0000 0.0000
# 4 0.0000 0.0000 0.0000 18.5911 0.0000 0.0000
# 5 0.0000 0.0000 0.0000 0.0000 52.3051 0.0000
# 6 0.0000 0.0000 0.0000 0.0000 0.0000 20.7310
#
#
#
# Elastic Compliance Matrix: (Units=1/GPa)
#
#
# Indices 1 2 3 4 5 6 
#
# 1 0.006761 -0.004063 -0.002001 0.000000 0.000000 0.000000
# 2 -0.004063 0.024936 -0.004207 0.000000 0.000000 0.000000
# 3 -0.002001 -0.004207 0.007832 0.000000 0.000000 0.000000
# 4 0.000000 0.000000 0.000000 0.053789 0.000000 0.000000
# 5 0.000000 0.000000 0.000000 0.000000 0.019119 0.000000
# 6 0.000000 0.000000 0.000000 0.000000 0.000000 0.048237
#
#
# Mechanical properties :
#
#
# Convention : Reuss Voigt Hill
#
# Bulk Modulus (GPa) = 52.66842 81.95872 67.31357
# Shear Modulus (GPa) = 26.66022 35.65792 31.15907
#
# Velocity S-wave (km/s) = 3.59288 4.15518 3.88422
# Velocity P-wave (km/s) = 6.53557 7.91864 7.26012
#
# Compressibility (1/GPa) = 0.01898671
#
# Stress axis : x y z
#
# Youngs Moduli (GPa) = 147.90416 40.10285 127.67783
#
# Poissons Ratio (x) = 0.16293 0.25549
# Poissons Ratio (y) = 0.60090 0.53719
# Poissons Ratio (z) = 0.29596 0.16873
#
# Static dielectric constant tensor:
#      x y z
#    x 5.044360 0.000000 0.000000 
#    y 0.000000 3.259930 0.000000 
#    z 0.000000 0.000000 4.008530 
# 
# 
# High freq. dielectric constant tensor:
#      x y z
#    x 1.848860 0.000000 0.000000 
#    y 0.000000 1.752310 0.000000 
#    z 0.000000 0.000000 1.825800 
# 
# From -- ./inp_files/35768.got.cif
#   From: 2010.03.12/outbox.cif.g09.slc.cpg/sg68_18_cif.got.tgz:35768.got - 2010.04.10 23:14:56.
