data_PCOD8282250
_publ_section_title
;
Structure prediction by ZEFSAII (Michael W. Deem and Ramdas Pophale) SiO2 
 PCOD8282250
Probable space group: C C C A
;
_chemical_formula_sum "Si O2"
_cell_formula_units_Z 96
_cell_length_a 8.310096
_cell_length_b 15.650712
_cell_length_c 28.241542
_cell_angle_alpha 90.000000
_cell_angle_beta 90.000000
_cell_angle_gamma 90.000000
_cell_volume 3673.064429
_symmetry_space_group_name_H-M "C C C A"
_symmetry_group_IT_number 68
_space_group.IT_coordinate_system_code '2'
_symmetry_cell_setting 'orthorhombic'
loop_
_space_group_symop_operation_xyz
x,y,z
-x,1/2-y,z
x,1/2-y,1/2-z
-x,y,1/2-z
-x,-y,-z
x,1/2+y,-z
-x,1/2+y,1/2+z
x,-y,1/2+z
1/2+x,1/2+y,z
1/2-x,-y,z
1/2+x,-y,1/2-z
1/2-x,1/2+y,1/2-z
1/2-x,1/2-y,-z
1/2+x,y,-z
1/2-x,y,1/2+z
1/2+x,1/2-y,1/2+z
loop_
_atom_site_type_symbol
_atom_site_label
_atom_site_fract_x
_atom_site_fract_y
_atom_site_fract_z
Si Si1 0.476941 0.423350 0.152146
Si Si2 0.966956 0.350545 0.021537
Si Si3 0.290299 0.624369 0.569962
Si Si4 0.255076 0.683417 0.899706
Si Si5 0.247231 0.100122 0.272355
Si Si6 0.076435 0.389880 0.319824
O O1 0.328623 0.437391 0.114691
O O2 0.594541 0.362493 0.123390
O O3 0.410561 0.372860 0.199798
O O4 0.565663 0.511141 0.164787
O O5 0.117698 0.398497 0.046432
O O6 0.000000 0.250000 0.017979
O O7 0.802984 0.362508 0.051906
O O8 0.931306 0.386832 0.969375
O O9 0.294228 0.719296 0.590833
O O10 0.105257 0.673134 0.863402
O O11 0.231931 0.119065 0.216246
O O12 0.088348 0.141184 0.295842
O O13 0.250000 0.000000 0.282683
#
# Coordination Sequence:
#
# PCOD8282250 Si02
#       6
#    16  16  16  16  16  16
#     4  11  21  36  61  92 123 160 209 262 313 380
#     4  10  20  37  61  87 121 166 212 254 314 397
#     4  11  22  39  63  90 121 162 212 261 318 383
#     4  11  21  35  58  91 123 162 207 258 314 378
#     4   9  19  37  60  84 114 161 207 248 307 384
#     4  10  21  38  60  86 120 159 205 255 312 379
#
# _framework density 26.136213000000001
#
# number of rings (size 3 to 8) (size 9 to 14) (size 15 to 20)
#    0.000    1.667    0.000    7.000    0.000    2.000 
#    0.000    1.667    0.000   20.000    0.000    0.000 
#    0.000    0.000    0.000    0.000    0.000    0.000 
#
# Total GULP energy -594824.774914 kJ/mol
# GULP energy per Si atom -12392.182811 kJ/mol
# Density = 2.607673 g / cm^3
# Si number density = 26.136213 Si / 1000 Ang^3
#
#
#
# Elastic Constant Matrix: (Units=GPa)
#
#
# Indices 1 2 3 4 5 6 
#
# 1 86.8635 24.6781 25.7832 0.0000 0.0000 0.0000
# 2 24.6781 31.4241 33.5041 0.0000 0.0000 0.0000
# 3 25.7832 33.5041 165.6526 0.0000 0.0000 0.0000
# 4 0.0000 0.0000 0.0000 27.1861 0.0000 0.0000
# 5 0.0000 0.0000 0.0000 0.0000 57.8035 0.0000
# 6 0.0000 0.0000 0.0000 0.0000 0.0000 24.2013
#
#
#
# Elastic Compliance Matrix: (Units=1/GPa)
#
#
# Indices 1 2 3 4 5 6 
#
# 1 0.014819 -0.011702 0.000060 0.000000 0.000000 0.000000
# 2 -0.011702 0.049812 -0.008253 0.000000 0.000000 0.000000
# 3 0.000060 -0.008253 0.007697 0.000000 0.000000 0.000000
# 4 0.000000 0.000000 0.000000 0.036784 0.000000 0.000000
# 5 0.000000 0.000000 0.000000 0.000000 0.017300 0.000000
# 6 0.000000 0.000000 0.000000 0.000000 0.000000 0.041320
#
#
# Mechanical properties :
#
#
# Convention : Reuss Voigt Hill
#
# Bulk Modulus (GPa) = 30.73360 50.20788 40.47074
# Shear Modulus (GPa) = 22.89716 35.16983 29.03350
#
# Velocity S-wave (km/s) = 2.96306 3.67227 3.33656
# Velocity P-wave (km/s) = 4.84673 6.10185 5.51014
#
# Compressibility (1/GPa) = 0.03253768
#
# Stress axis : x y z
#
# Youngs Moduli (GPa) = 67.48098 20.07537 129.92680
#
# Poissons Ratio (x) = 0.23492 -0.00783
# Poissons Ratio (y) = 0.78966 1.07234
# Poissons Ratio (z) = -0.00407 0.16569
#
# Static dielectric constant tensor:
#      x y z
#    x 5.242870 0.000000 0.000000 
#    y 0.000000 3.964310 0.000000 
#    z 0.000000 0.000000 5.455150 
# 
# 
# High freq. dielectric constant tensor:
#      x y z
#    x 2.065330 0.000000 0.000000 
#    y 0.000000 1.986760 0.000000 
#    z 0.000000 0.000000 2.075260 
# 
# From -- ./inp_files/49329.got.cif
#   From: 2010.03.12/outbox.cif.g09.slc.cpg/sg68_25_cif.got.tgz:49329.got - 2010.04.10 23:14:56.
