data_PCOD8282607
_publ_section_title
;
Structure prediction by ZEFSAII (Michael W. Deem and Ramdas Pophale) SiO2 
 PCOD8282607
Probable space group: C C C A
;
_chemical_formula_sum "Si O2"
_cell_formula_units_Z 56
_cell_length_a 10.604726
_cell_length_b 10.686531
_cell_length_c 20.855161
_cell_angle_alpha 90.000000
_cell_angle_beta 90.000000
_cell_angle_gamma 90.000000
_cell_volume 2363.468121
_symmetry_space_group_name_H-M "C C C A"
_symmetry_group_IT_number 68
_space_group.IT_coordinate_system_code '2'
_symmetry_cell_setting 'orthorhombic'
loop_
_space_group_symop_operation_xyz
x,y,z
-x,1/2-y,z
x,1/2-y,1/2-z
-x,y,1/2-z
-x,-y,-z
x,1/2+y,-z
-x,1/2+y,1/2+z
x,-y,1/2+z
1/2+x,1/2+y,z
1/2-x,-y,z
1/2+x,-y,1/2-z
1/2-x,1/2+y,1/2-z
1/2-x,1/2-y,-z
1/2+x,y,-z
1/2-x,y,1/2+z
1/2+x,1/2-y,1/2+z
loop_
_atom_site_type_symbol
_atom_site_label
_atom_site_fract_x
_atom_site_fract_y
_atom_site_fract_z
Si Si1 0.129571 0.820693 0.921040
Si Si2 0.253194 0.862577 0.792909
Si Si3 0.000000 0.250000 0.648294
Si Si4 0.667926 0.114038 0.443866
O O1 0.166708 0.889638 0.855455
O O2 0.245450 0.734172 0.939295
O O3 0.000000 0.750000 0.909899
O O4 0.116752 0.911445 0.983367
O O5 0.192359 0.750000 0.750000
O O6 0.393884 0.814417 0.808122
O O7 0.250000 0.000000 0.757741
O O8 0.050965 0.136722 0.603673
O O9 0.750000 0.000000 0.417954
#
# Coordination Sequence:
#
# PCOD8282607 Si02
#       4
#    16  16   8  16
#     4  10  22  40  62 105 137 174 228 279 343 420
#     4  11  26  48  71  99 137 188 242 290 347 411
#     4  10  23  46  70 102 135 176 232 286 348 414
#     4  10  21  38  68  99 139 177 216 276 351 417
#
# _framework density 23.693995000000001
#
# number of rings (size 3 to 8) (size 9 to 14) (size 15 to 20)
#    0.000    1.714    1.429    1.286    4.000    6.286 
#    5.143    0.000    0.000    0.000    0.000    0.000 
#    0.000    0.000    0.000    0.000    0.000    0.000 
#
# Total GULP energy -346999.500661 kJ/mol
# GULP energy per Si atom -12392.839309 kJ/mol
# Density = 2.364007 g / cm^3
# Si number density = 23.693995 Si / 1000 Ang^3
#
#
#
# Elastic Constant Matrix: (Units=GPa)
#
#
# Indices 1 2 3 4 5 6 
#
# 1 84.1337 -0.8302 19.4858 0.0000 0.0000 0.0000
# 2 -0.8302 124.3080 41.9496 0.0000 0.0000 0.0000
# 3 19.4858 41.9496 90.8252 0.0000 0.0000 0.0000
# 4 0.0000 0.0000 0.0000 109.2147 0.0000 0.0000
# 5 0.0000 0.0000 0.0000 0.0000 105.1513 0.0000
# 6 0.0000 0.0000 0.0000 0.0000 0.0000 40.7219
#
#
#
# Elastic Compliance Matrix: (Units=1/GPa)
#
#
# Indices 1 2 3 4 5 6 
#
# 1 0.012653 0.001185 -0.003262 0.000000 0.000000 0.000000
# 2 0.001185 0.009641 -0.004707 0.000000 0.000000 0.000000
# 3 -0.003262 -0.004707 0.013884 0.000000 0.000000 0.000000
# 4 0.000000 0.000000 0.000000 0.009156 0.000000 0.000000
# 5 0.000000 0.000000 0.000000 0.000000 0.009510 0.000000
# 6 0.000000 0.000000 0.000000 0.000000 0.000000 0.024557
#
#
# Mechanical properties :
#
#
# Convention : Reuss Voigt Hill
#
# Bulk Modulus (GPa) = 44.22767 46.71970 45.47368
# Shear Modulus (GPa) = 49.74828 66.92837 58.33832
#
# Velocity S-wave (km/s) = 4.58713 5.32055 4.96740
# Velocity P-wave (km/s) = 6.83830 7.58321 7.22037
#
# Compressibility (1/GPa) = 0.02261028
#
# Stress axis : x y z
#
# Youngs Moduli (GPa) = 79.03231 103.72406 72.02464
#
# Poissons Ratio (x) = -0.12295 0.23495
# Poissons Ratio (y) = -0.09368 0.33903
# Poissons Ratio (z) = 0.25781 0.48825
#
# Static dielectric constant tensor:
#      x y z
#    x 3.959980 0.000000 0.000000 
#    y 0.000000 3.993330 0.000000 
#    z 0.000000 0.000000 4.808690 
# 
# 
# High freq. dielectric constant tensor:
#      x y z
#    x 1.939600 0.000000 0.000000 
#    y 0.000000 1.922250 0.000000 
#    z 0.000000 0.000000 1.942480 
# 
# From -- ./inp_files/36939.got.cif
#   From: 2010.03.12/outbox.cif.g09.slc.cpg/sg68_19_cif.got.tgz:36939.got - 2010.04.10 23:14:56.
