data_PCOD8282783
_publ_section_title
;
Structure prediction by ZEFSAII (Michael W. Deem and Ramdas Pophale) SiO2 
 PCOD8282783
Probable space group: C C C A
;
_chemical_formula_sum "Si O2"
_cell_formula_units_Z 88
_cell_length_a 15.500961
_cell_length_b 19.320983
_cell_length_c 14.460110
_cell_angle_alpha 90.000000
_cell_angle_beta 90.000000
_cell_angle_gamma 90.000000
_cell_volume 4330.713350
_symmetry_space_group_name_H-M "C C C A"
_symmetry_group_IT_number 68
_space_group.IT_coordinate_system_code '2'
_symmetry_cell_setting 'orthorhombic'
loop_
_space_group_symop_operation_xyz
x,y,z
-x,1/2-y,z
x,1/2-y,1/2-z
-x,y,1/2-z
-x,-y,-z
x,1/2+y,-z
-x,1/2+y,1/2+z
x,-y,1/2+z
1/2+x,1/2+y,z
1/2-x,-y,z
1/2+x,-y,1/2-z
1/2-x,1/2+y,1/2-z
1/2-x,1/2-y,-z
1/2+x,y,-z
1/2-x,y,1/2+z
1/2+x,1/2-y,1/2+z
loop_
_atom_site_type_symbol
_atom_site_label
_atom_site_fract_x
_atom_site_fract_y
_atom_site_fract_z
Si Si1 0.819027 0.901105 0.904796
Si Si2 0.813596 0.558429 0.788589
Si Si3 0.825732 0.353282 0.462117
Si Si4 0.400824 0.766281 0.145951
Si Si5 0.071473 0.532926 0.438313
Si Si6 0.500000 0.496350 0.250000
O O1 0.770375 0.916874 0.808068
O O2 0.894951 0.847787 0.877792
O O3 0.851942 0.975882 0.939753
O O4 0.759547 0.860132 0.976341
O O5 0.750000 0.500000 0.828200
O O6 0.806958 0.618937 0.860949
O O7 0.915664 0.540827 0.778268
O O8 0.853420 0.274919 0.438399
O O9 0.899501 0.395202 0.516893
O O10 0.500000 0.750000 0.143272
O O11 0.364388 0.750000 0.250000
O O12 0.031595 0.549486 0.337062
O O13 0.000000 0.500000 0.500000
#
# Coordination Sequence:
#
# PCOD8282783 Si02
#       6
#    16  16  16  16  16   8
#     4  11  23  40  61  92 127 168 214 266 332 395
#     4  11  22  38  62  96 131 171 213 273 326 398
#     4  12  23  40  64  94 132 169 220 274 336 395
#     4  11  24  42  67  92 124 170 222 276 330 403
#     4  11  21  37  62  95 129 166 213 269 329 390
#     4  10  22  36  62  91 137 168 214 266 334 386
#
# _framework density 20.319977999999999
#
# number of rings (size 3 to 8) (size 9 to 14) (size 15 to 20)
#    0.000    0.909    3.636    5.455    2.545    0.000 
#    0.000    0.000    0.000    0.000    0.000    0.000 
#    0.000    0.000    0.000    0.000    0.000    0.000 
#
# Total GULP energy -545158.394539 kJ/mol
# GULP energy per Si atom -12389.963512 kJ/mol
# Density = 2.027373 g / cm^3
# Si number density = 20.319978 Si / 1000 Ang^3
#
#
#
# Elastic Constant Matrix: (Units=GPa)
#
#
# Indices 1 2 3 4 5 6 
#
# 1 78.3469 2.0920 21.9774 0.0000 0.0000 0.0000
# 2 2.0920 59.8945 11.2042 0.0000 0.0000 0.0000
# 3 21.9774 11.2042 114.3140 0.0000 0.0000 0.0000
# 4 0.0000 0.0000 0.0000 35.3566 0.0000 0.0000
# 5 0.0000 0.0000 0.0000 0.0000 36.0005 0.0000
# 6 0.0000 0.0000 0.0000 0.0000 0.0000 31.9760
#
#
#
# Elastic Compliance Matrix: (Units=1/GPa)
#
#
# Indices 1 2 3 4 5 6 
#
# 1 0.013491 0.000014 -0.002595 0.000000 0.000000 0.000000
# 2 0.000014 0.017008 -0.001670 0.000000 0.000000 0.000000
# 3 -0.002595 -0.001670 0.009410 0.000000 0.000000 0.000000
# 4 0.000000 0.000000 0.000000 0.028283 0.000000 0.000000
# 5 0.000000 0.000000 0.000000 0.000000 0.027777 0.000000
# 6 0.000000 0.000000 0.000000 0.000000 0.000000 0.031273
#
#
# Mechanical properties :
#
#
# Convention : Reuss Voigt Hill
#
# Bulk Modulus (GPa) = 31.83866 35.90027 33.86947
# Shear Modulus (GPa) = 34.19635 35.15209 34.67422
#
# Velocity S-wave (km/s) = 4.10676 4.16375 4.13535
# Velocity P-wave (km/s) = 6.17980 6.38918 6.28536
#
# Compressibility (1/GPa) = 0.03140836
#
# Stress axis : x y z
#
# Youngs Moduli (GPa) = 74.12160 58.79631 106.26523
#
# Poissons Ratio (x) = -0.00084 0.27578
# Poissons Ratio (y) = -0.00106 0.17743
# Poissons Ratio (z) = 0.19236 0.09817
#
# Static dielectric constant tensor:
#      x y z
#    x 3.385800 0.000000 0.000000 
#    y 0.000000 3.026110 0.000000 
#    z 0.000000 0.000000 3.996320 
# 
# 
# High freq. dielectric constant tensor:
#      x y z
#    x 1.788000 0.000000 0.000000 
#    y 0.000000 1.777870 0.000000 
#    z 0.000000 0.000000 1.814440 
# 
# From -- ./inp_files/22243.got.cif
#   From: 2010.03.12/outbox.cif.g09.slc.cpg/sg68_12_cif.got.tgz:22243.got - 2010.04.10 23:14:56.
