data_PCOD8282251
_publ_section_title
;
Structure prediction by ZEFSAII (Michael W. Deem and Ramdas Pophale) SiO2 
 PCOD8282251
Probable space group: C C C A
;
_chemical_formula_sum "Si O2"
_cell_formula_units_Z 96
_cell_length_a 16.165971
_cell_length_b 18.524772
_cell_length_c 15.052996
_cell_angle_alpha 90.000000
_cell_angle_beta 90.000000
_cell_angle_gamma 90.000000
_cell_volume 4507.934665
_symmetry_space_group_name_H-M "C C C A"
_symmetry_group_IT_number 68
_space_group.IT_coordinate_system_code '2'
_symmetry_cell_setting 'orthorhombic'
loop_
_space_group_symop_operation_xyz
x,y,z
-x,1/2-y,z
x,1/2-y,1/2-z
-x,y,1/2-z
-x,-y,-z
x,1/2+y,-z
-x,1/2+y,1/2+z
x,-y,1/2+z
1/2+x,1/2+y,z
1/2-x,-y,z
1/2+x,-y,1/2-z
1/2-x,1/2+y,1/2-z
1/2-x,1/2-y,-z
1/2+x,y,-z
1/2-x,y,1/2+z
1/2+x,1/2-y,1/2+z
loop_
_atom_site_type_symbol
_atom_site_label
_atom_site_fract_x
_atom_site_fract_y
_atom_site_fract_z
Si Si1 0.555827 0.093862 0.330139
Si Si2 0.490769 0.959008 0.407876
Si Si3 0.031096 0.829024 0.490669
Si Si4 0.245319 0.083423 0.666209
Si Si5 0.281480 0.169695 0.492156
Si Si6 0.805909 0.569307 0.855449
O O1 0.500000 0.124066 0.250000
O O2 0.529808 0.137958 0.417267
O O3 0.651775 0.107567 0.311471
O O4 0.543241 0.006975 0.338730
O O5 0.525617 0.877938 0.419793
O O6 0.397563 0.956828 0.374639
O O7 0.500000 0.000000 0.500000
O O8 0.124963 0.829383 0.455064
O O9 0.000000 0.750000 0.516867
O O10 0.281442 0.131339 0.587505
O O11 0.298591 0.098287 0.754828
O O12 0.250000 0.000000 0.636404
O O13 0.250000 0.250000 0.500000
O O14 0.220475 0.130701 0.424032
O O15 0.750000 0.500000 0.870020
#
# Coordination Sequence:
#
# PCOD8282251 Si02
#       6
#    16  16  16  16  16  16
#     4  11  21  38  62  91 120 154 200 255 310 367
#     4  10  20  37  61  88 120 161 202 250 307 373
#     4  11  23  40  59  86 119 161 205 250 308 373
#     4  11  23  40  64  95 124 161 210 264 317 379
#     4  12  24  41  63  89 125 168 209 260 320 387
#     4  11  22  40  64  94 127 164 208 262 318 378
#
# _framework density 21.295783
#
# number of rings (size 3 to 8) (size 9 to 14) (size 15 to 20)
#    0.000    1.000    0.000   10.500    0.000    1.000 
#    0.000    3.333    0.000    3.500    0.000    0.000 
#    0.000    0.000    0.000    0.000    0.000    0.000 
#
# Total GULP energy -595315.672466 kJ/mol
# GULP energy per Si atom -12402.409843 kJ/mol
# Density = 2.124731 g / cm^3
# Si number density = 21.295783 Si / 1000 Ang^3
#
#
#
# Elastic Constant Matrix: (Units=GPa)
#
#
# Indices 1 2 3 4 5 6 
#
# 1 110.0484 5.2542 22.8293 0.0000 0.0000 0.0000
# 2 5.2542 122.6423 46.4140 0.0000 0.0000 0.0000
# 3 22.8293 46.4140 111.3290 0.0000 0.0000 0.0000
# 4 0.0000 0.0000 0.0000 5.5402 0.0000 0.0000
# 5 0.0000 0.0000 0.0000 0.0000 29.8293 0.0000
# 6 0.0000 0.0000 0.0000 0.0000 0.0000 35.5015
#
#
#
# Elastic Compliance Matrix: (Units=1/GPa)
#
#
# Indices 1 2 3 4 5 6 
#
# 1 0.009507 0.000392 -0.002113 0.000000 0.000000 0.000000
# 2 0.000392 0.009697 -0.004123 0.000000 0.000000 0.000000
# 3 -0.002113 -0.004123 0.011135 0.000000 0.000000 0.000000
# 4 0.000000 0.000000 0.000000 0.180498 0.000000 0.000000
# 5 0.000000 0.000000 0.000000 0.000000 0.033524 0.000000
# 6 0.000000 0.000000 0.000000 0.000000 0.000000 0.028168
#
#
# Mechanical properties :
#
#
# Convention : Reuss Voigt Hill
#
# Bulk Modulus (GPa) = 53.61735 54.77942 54.19838
# Shear Modulus (GPa) = 17.21562 32.14237 24.67900
#
# Velocity S-wave (km/s) = 2.84633 3.88922 3.40791
# Velocity P-wave (km/s) = 6.00285 6.77843 6.40239
#
# Compressibility (1/GPa) = 0.01865068
#
# Stress axis : x y z
#
# Youngs Moduli (GPa) = 105.19102 103.11946 89.80875
#
# Poissons Ratio (x) = -0.04046 0.18977
# Poissons Ratio (y) = -0.04128 0.37032
# Poissons Ratio (z) = 0.22227 0.42521
#
# Static dielectric constant tensor:
#      x y z
#    x 3.644100 0.000000 0.000000 
#    y 0.000000 4.077710 0.000000 
#    z 0.000000 0.000000 3.969830 
# 
# 
# High freq. dielectric constant tensor:
#      x y z
#    x 1.852150 0.000000 0.000000 
#    y 0.000000 1.830380 0.000000 
#    z 0.000000 0.000000 1.830870 
# 
# From -- ./inp_files/22335.got.cif
#   From: 2010.03.12/outbox.cif.g09.slc.cpg/sg68_12_cif.got.tgz:22335.got - 2010.04.10 23:14:56.
