data_PCOD8282172
_publ_section_title
;
Structure prediction by ZEFSAII (Michael W. Deem and Ramdas Pophale) SiO2 
 PCOD8282172
Probable space group: C C C A
;
_chemical_formula_sum "Si O2"
_cell_formula_units_Z 120
_cell_length_a 29.320920
_cell_length_b 7.987622
_cell_length_c 27.398607
_cell_angle_alpha 90.000000
_cell_angle_beta 90.000000
_cell_angle_gamma 90.000000
_cell_volume 6416.875016
_symmetry_space_group_name_H-M "C C C A"
_symmetry_group_IT_number 68
_space_group.IT_coordinate_system_code '2'
_symmetry_cell_setting 'orthorhombic'
loop_
_space_group_symop_operation_xyz
x,y,z
-x,1/2-y,z
x,1/2-y,1/2-z
-x,y,1/2-z
-x,-y,-z
x,1/2+y,-z
-x,1/2+y,1/2+z
x,-y,1/2+z
1/2+x,1/2+y,z
1/2-x,-y,z
1/2+x,-y,1/2-z
1/2-x,1/2+y,1/2-z
1/2-x,1/2-y,-z
1/2+x,y,-z
1/2-x,y,1/2+z
1/2+x,1/2-y,1/2+z
loop_
_atom_site_type_symbol
_atom_site_label
_atom_site_fract_x
_atom_site_fract_y
_atom_site_fract_z
Si Si1 0.637199 0.254776 0.642780
Si Si2 0.011104 0.058632 0.946340
Si Si3 0.614413 0.024091 0.564710
Si Si4 0.050486 0.564155 0.266954
Si Si5 0.200335 0.436314 0.430212
Si Si6 0.962977 0.385479 0.138933
Si Si7 0.160173 0.267855 0.991135
Si Si8 0.886231 0.750000 0.750000
O O1 0.638749 0.073465 0.616278
O O2 0.674409 0.379802 0.619249
O O3 0.585556 0.302903 0.630306
O O4 0.645250 0.250071 0.701366
O O5 0.000000 0.250000 0.938893
O O6 0.062508 0.028600 0.929168
O O7 0.978566 0.949103 0.913025
O O8 0.000000 0.000000 0.000000
O O9 0.617816 0.177635 0.525853
O O10 0.645441 0.877895 0.544376
O O11 0.067577 0.750000 0.250000
O O12 0.045989 0.543960 0.325316
O O13 0.083425 0.418500 0.246494
O O14 0.000000 0.529149 0.250000
O O15 0.250000 0.500000 0.414821
O O16 0.200887 0.289051 0.471444
O O17 0.173737 0.586881 0.454873
O O18 0.000000 0.250000 0.159806
#
# Coordination Sequence:
#
# PCOD8282172 Si02
#       8
#    16  16  16  16  16  16  16   8
#     4  10  22  38  61  80 114 155 197 245 300 352
#     4  12  26  33  51  77 119 163 201 238 281 350
#     4  10  20  36  53  81 115 155 193 234 282 353
#     4  10  21  35  59  84 113 148 205 252 296 345
#     4  10  20  37  62  90 115 148 189 242 300 362
#     4  11  22  39  56  81 116 159 201 241 297 344
#     4   9  20  35  59  85 117 150 187 234 293 356
#     4  10  21  42  58  82 116 160 192 252 308 349
#
# _framework density 18.700690999999999
#
# number of rings (size 3 to 8) (size 9 to 14) (size 15 to 20)
#    0.000    1.733    1.333    3.400    9.333    0.000 
#    2.400    0.000    0.000    1.600    0.000    0.000 
#    0.000    0.000    0.000    0.000    0.000    0.000 
#
# Total GULP energy -743514.097866 kJ/mol
# GULP energy per Si atom -12391.901631 kJ/mol
# Density = 1.865813 g / cm^3
# Si number density = 18.700691 Si / 1000 Ang^3
#
#
#
# Elastic Constant Matrix: (Units=GPa)
#
#
# Indices 1 2 3 4 5 6 
#
# 1 75.6332 22.2979 38.7871 0.0000 0.0000 0.0000
# 2 22.2979 105.7771 54.9404 0.0000 0.0000 0.0000
# 3 38.7871 54.9404 147.4785 0.0000 0.0000 0.0000
# 4 0.0000 0.0000 0.0000 33.8435 0.0000 0.0000
# 5 0.0000 0.0000 0.0000 0.0000 23.3457 0.0000
# 6 0.0000 0.0000 0.0000 0.0000 0.0000 99.1897
#
#
#
# Elastic Compliance Matrix: (Units=1/GPa)
#
#
# Indices 1 2 3 4 5 6 
#
# 1 0.015454 -0.001422 -0.003535 0.000000 0.000000 0.000000
# 2 -0.001422 0.011853 -0.004042 0.000000 0.000000 0.000000
# 3 -0.003535 -0.004042 0.009216 0.000000 0.000000 0.000000
# 4 0.000000 0.000000 0.000000 0.029548 0.000000 0.000000
# 5 0.000000 0.000000 0.000000 0.000000 0.042834 0.000000
# 6 0.000000 0.000000 0.000000 0.000000 0.000000 0.010082
#
#
# Mechanical properties :
#
#
# Convention : Reuss Voigt Hill
#
# Bulk Modulus (GPa) = 53.97762 62.32661 58.15211
# Shear Modulus (GPa) = 34.92657 45.46667 40.19662
#
# Velocity S-wave (km/s) = 4.32633 4.93615 4.64127
# Velocity P-wave (km/s) = 7.34049 8.11716 7.73858
#
# Compressibility (1/GPa) = 0.01852620
#
# Stress axis : x y z
#
# Youngs Moduli (GPa) = 64.71011 84.36865 108.50815
#
# Poissons Ratio (x) = 0.11995 0.38354
# Poissons Ratio (y) = 0.09200 0.43855
# Poissons Ratio (z) = 0.22873 0.34098
#
# Static dielectric constant tensor:
#      x y z
#    x 3.198400 0.000000 0.000000 
#    y 0.000000 3.729270 0.000000 
#    z 0.000000 0.000000 2.001380 
# 
# 
# High freq. dielectric constant tensor:
#      x y z
#    x 1.694850 0.000000 0.000000 
#    y 0.000000 1.736150 0.000000 
#    z 0.000000 0.000000 1.729910 
# 
# From -- ./inp_files/52393.got.cif
#   From: 2010.03.12/outbox.cif.g09.slc.cpg/sg68_27_cif.got.tgz:52393.got - 2010.04.10 23:14:56.
