data_PCOD8282799
_publ_section_title
;
Structure prediction by ZEFSAII (Michael W. Deem and Ramdas Pophale) SiO2 
 PCOD8282799
Probable space group: C C C A
;
_chemical_formula_sum "Si O2"
_cell_formula_units_Z 116
_cell_length_a 24.983891
_cell_length_b 8.471952
_cell_length_c 26.282898
_cell_angle_alpha 90.000000
_cell_angle_beta 90.000000
_cell_angle_gamma 90.000000
_cell_volume 5563.099307
_symmetry_space_group_name_H-M "C C C A"
_symmetry_group_IT_number 68
_space_group.IT_coordinate_system_code '2'
_symmetry_cell_setting 'orthorhombic'
loop_
_space_group_symop_operation_xyz
x,y,z
-x,1/2-y,z
x,1/2-y,1/2-z
-x,y,1/2-z
-x,-y,-z
x,1/2+y,-z
-x,1/2+y,1/2+z
x,-y,1/2+z
1/2+x,1/2+y,z
1/2-x,-y,z
1/2+x,-y,1/2-z
1/2-x,1/2+y,1/2-z
1/2-x,1/2-y,-z
1/2+x,y,-z
1/2-x,y,1/2+z
1/2+x,1/2-y,1/2+z
loop_
_atom_site_type_symbol
_atom_site_label
_atom_site_fract_x
_atom_site_fract_y
_atom_site_fract_z
Si Si1 0.297228 0.759899 0.959264
Si Si2 0.872651 0.973930 0.509858
Si Si3 0.669289 0.093822 0.686372
Si Si4 0.919804 0.147215 0.332215
Si Si5 0.059199 0.710785 0.945361
Si Si6 0.500000 0.250000 0.750000
Si Si7 0.719528 0.215429 0.154022
Si Si8 0.644610 0.597744 0.718652
O O1 0.270729 0.735321 0.904203
O O2 0.327109 0.927656 0.961100
O O3 0.250000 0.750000 0.000000
O O4 0.341798 0.627009 0.967392
O O5 0.902285 0.863645 0.551103
O O6 0.917029 0.076477 0.481467
O O7 0.620505 0.203294 0.668392
O O8 0.724614 0.184941 0.681207
O O9 0.676978 0.930417 0.654901
O O10 0.658766 0.049022 0.744938
O O11 0.946202 0.148720 0.387735
O O12 0.963535 0.147416 0.287478
O O13 0.894630 0.973836 0.323967
O O14 0.000000 0.750000 0.965689
O O15 0.697201 0.357171 0.187585
O O16 0.621442 0.750000 0.750000
#
# Coordination Sequence:
#
# PCOD8282799 Si02
#       8
#    16  16  16  16  16   4  16  16
#     4  11  23  40  62  91 130 171 207 255 320 397
#     4  10  24  41  64  93 132 161 220 270 320 389
#     4  10  22  37  64  89 125 169 210 256 310 386
#     4  12  23  42  68  92 125 171 221 264 328 386
#     4  11  23  42  69  96 124 169 219 282 338 379
#     4  12  24  44  66  92 120 168 226 276 300 392
#     4  10  23  38  62  92 129 165 205 250 325 383
#     4  10  22  41  61  93 132 163 209 265 316 378
#
# _framework density 20.851686999999998
#
# number of rings (size 3 to 8) (size 9 to 14) (size 15 to 20)
#    0.000    1.379    2.069    2.483    7.724    7.172 
#    2.483    0.345    0.000    3.310    0.000    0.000 
#    0.000    0.000    0.000    0.000    0.000    0.000 
#
# Total GULP energy -719046.852596 kJ/mol
# GULP energy per Si atom -12397.359528 kJ/mol
# Density = 2.080423 g / cm^3
# Si number density = 20.851687 Si / 1000 Ang^3
#
#
#
# Elastic Constant Matrix: (Units=GPa)
#
#
# Indices 1 2 3 4 5 6 
#
# 1 96.9482 33.3456 16.3238 0.0000 0.0000 0.0000
# 2 33.3456 75.0024 18.2711 0.0000 0.0000 0.0000
# 3 16.3238 18.2711 88.1384 0.0000 0.0000 0.0000
# 4 0.0000 0.0000 0.0000 13.2059 0.0000 0.0000
# 5 0.0000 0.0000 0.0000 0.0000 27.4331 0.0000
# 6 0.0000 0.0000 0.0000 0.0000 0.0000 23.6842
#
#
#
# Elastic Compliance Matrix: (Units=1/GPa)
#
#
# Indices 1 2 3 4 5 6 
#
# 1 0.012297 -0.005174 -0.001205 0.000000 0.000000 0.000000
# 2 -0.005174 0.016219 -0.002404 0.000000 0.000000 0.000000
# 3 -0.001205 -0.002404 0.012067 0.000000 0.000000 0.000000
# 4 0.000000 0.000000 0.000000 0.075724 0.000000 0.000000
# 5 0.000000 0.000000 0.000000 0.000000 0.036452 0.000000
# 6 0.000000 0.000000 0.000000 0.000000 0.000000 0.042222
#
#
# Mechanical properties :
#
#
# Convention : Reuss Voigt Hill
#
# Bulk Modulus (GPa) = 43.44442 43.99664 43.72053
# Shear Modulus (GPa) = 22.70463 25.67454 24.18959
#
# Velocity S-wave (km/s) = 3.30337 3.51279 3.40969
# Velocity P-wave (km/s) = 5.95230 6.13176 6.04270
#
# Compressibility (1/GPa) = 0.02301792
#
# Stress axis : x y z
#
# Youngs Moduli (GPa) = 81.31936 61.65715 82.86853
#
# Poissons Ratio (x) = 0.31900 0.09986
# Poissons Ratio (y) = 0.42072 0.19921
# Poissons Ratio (z) = 0.09799 0.14822
#
# Static dielectric constant tensor:
#      x y z
#    x 4.050050 0.000000 0.000000 
#    y 0.000000 3.885170 0.000000 
#    z 0.000000 0.000000 3.718750 
# 
# 
# High freq. dielectric constant tensor:
#      x y z
#    x 1.810100 0.000000 0.000000 
#    y 0.000000 1.819530 0.000000 
#    z 0.000000 0.000000 1.822050 
# 
# From -- ./inp_files/52199.got.cif
#   From: 2010.03.12/outbox.cif.g09.slc.cpg/sg68_27_cif.got.tgz:52199.got - 2010.04.10 23:14:56.
