data_PCOD8282253
_publ_section_title
;
Structure prediction by ZEFSAII (Michael W. Deem and Ramdas Pophale) SiO2 
 PCOD8282253
Probable space group: C C C A
;
_chemical_formula_sum "Si O2"
_cell_formula_units_Z 64
_cell_length_a 16.797846
_cell_length_b 21.814067
_cell_length_c 8.709158
_cell_angle_alpha 90.000000
_cell_angle_beta 90.000000
_cell_angle_gamma 90.000000
_cell_volume 3191.291001
_symmetry_space_group_name_H-M "C C C A"
_symmetry_group_IT_number 68
_space_group.IT_coordinate_system_code '2'
_symmetry_cell_setting 'orthorhombic'
loop_
_space_group_symop_operation_xyz
x,y,z
-x,1/2-y,z
x,1/2-y,1/2-z
-x,y,1/2-z
-x,-y,-z
x,1/2+y,-z
-x,1/2+y,1/2+z
x,-y,1/2+z
1/2+x,1/2+y,z
1/2-x,-y,z
1/2+x,-y,1/2-z
1/2-x,1/2+y,1/2-z
1/2-x,1/2-y,-z
1/2+x,y,-z
1/2-x,y,1/2+z
1/2+x,1/2-y,1/2+z
loop_
_atom_site_type_symbol
_atom_site_label
_atom_site_fract_x
_atom_site_fract_y
_atom_site_fract_z
Si Si1 0.349209 0.568649 0.115731
Si Si2 0.909486 0.456610 0.712285
Si Si3 0.805971 0.133993 0.616785
Si Si4 0.331599 0.683318 0.290816
O O1 0.355031 0.513974 0.238586
O O2 0.256618 0.579955 0.066296
O O3 0.381318 0.630809 0.199773
O O4 0.402373 0.553145 0.969249
O O5 0.882229 0.395599 0.801391
O O6 0.000000 0.471614 0.750000
O O7 0.761160 0.179260 0.736280
O O8 0.836625 0.172717 0.472500
O O9 0.366838 0.750000 0.250000
#
# Coordination Sequence:
#
# PCOD8282253 Si02
#       4
#    16  16  16  16
#     4  10  22  37  58  90 118 156 205 244 298 360
#     4  12  23  39  61  91 128 158 194 253 314 366
#     4  10  20  37  61  91 119 151 206 249 299 356
#     4  10  20  37  66  89 116 154 210 258 290 348
#
# _framework density 20.054580000000001
#
# number of rings (size 3 to 8) (size 9 to 14) (size 15 to 20)
#    1.500    0.000    2.500    3.750    0.000    2.000 
#    0.000    0.000    0.000   12.000    0.000    0.000 
#    0.000    0.000    0.000    0.000    0.000    0.000 
#
# Total GULP energy -396678.538789 kJ/mol
# GULP energy per Si atom -12396.204337 kJ/mol
# Density = 2.000893 g / cm^3
# Si number density = 20.054580 Si / 1000 Ang^3
#
#
#
# Elastic Constant Matrix: (Units=GPa)
#
#
# Indices 1 2 3 4 5 6 
#
# 1 34.7708 -6.1501 -5.8699 0.0000 0.0000 0.0000
# 2 -6.1501 107.8433 43.9054 0.0000 0.0000 0.0000
# 3 -5.8699 43.9054 105.7827 0.0000 0.0000 0.0000
# 4 0.0000 0.0000 0.0000 35.6747 0.0000 0.0000
# 5 0.0000 0.0000 0.0000 0.0000 19.4424 0.0000
# 6 0.0000 0.0000 0.0000 0.0000 0.0000 8.8668
#
#
#
# Elastic Compliance Matrix: (Units=1/GPa)
#
#
# Indices 1 2 3 4 5 6 
#
# 1 0.029162 0.001208 0.001117 0.000000 0.000000 0.000000
# 2 0.001208 0.011208 -0.004585 0.000000 0.000000 0.000000
# 3 0.001117 -0.004585 0.011418 0.000000 0.000000 0.000000
# 4 0.000000 0.000000 0.000000 0.028031 0.000000 0.000000
# 5 0.000000 0.000000 0.000000 0.000000 0.051434 0.000000
# 6 0.000000 0.000000 0.000000 0.000000 0.000000 0.112780
#
#
# Mechanical properties :
#
#
# Convention : Reuss Voigt Hill
#
# Bulk Modulus (GPa) = 21.15559 34.68528 27.92043
# Shear Modulus (GPa) = 18.91721 27.23088 23.07404
#
# Velocity S-wave (km/s) = 3.07463 3.68888 3.39567
# Velocity P-wave (km/s) = 4.81418 5.95624 5.41540
#
# Compressibility (1/GPa) = 0.04726883
#
# Stress axis : x y z
#
# Youngs Moduli (GPa) = 34.29118 89.21983 87.57869
#
# Poissons Ratio (x) = -0.10782 -0.09780
# Poissons Ratio (y) = -0.04144 0.40155
# Poissons Ratio (z) = -0.03829 0.40907
#
# Static dielectric constant tensor:
#      x y z
#    x 3.104910 0.000000 0.000000 
#    y 0.000000 3.491870 0.000000 
#    z 0.000000 0.000000 3.562180 
# 
# 
# High freq. dielectric constant tensor:
#      x y z
#    x 1.733650 0.000000 0.000000 
#    y 0.000000 1.777410 0.000000 
#    z 0.000000 0.000000 1.794800 
# 
# From -- ./inp_files/5826.got.cif
#   From: 2010.03.12/outbox.cif.g09.slc.cpg/sg68_3_cif.got.tgz:5826.got - 2010.04.10 23:14:56.
