data_PCOD8282055
_publ_section_title
;
Structure prediction by ZEFSAII (Michael W. Deem and Ramdas Pophale) SiO2 
 PCOD8282055
Probable space group: C C C A
;
_chemical_formula_sum "Si O2"
_cell_formula_units_Z 72
_cell_length_a 13.977721
_cell_length_b 23.977476
_cell_length_c 10.536717
_cell_angle_alpha 90.000000
_cell_angle_beta 90.000000
_cell_angle_gamma 90.000000
_cell_volume 3531.385653
_symmetry_space_group_name_H-M "C C C A"
_symmetry_group_IT_number 68
_space_group.IT_coordinate_system_code '2'
_symmetry_cell_setting 'orthorhombic'
loop_
_space_group_symop_operation_xyz
x,y,z
-x,1/2-y,z
x,1/2-y,1/2-z
-x,y,1/2-z
-x,-y,-z
x,1/2+y,-z
-x,1/2+y,1/2+z
x,-y,1/2+z
1/2+x,1/2+y,z
1/2-x,-y,z
1/2+x,-y,1/2-z
1/2-x,1/2+y,1/2-z
1/2-x,1/2-y,-z
1/2+x,y,-z
1/2-x,y,1/2+z
1/2+x,1/2-y,1/2+z
loop_
_atom_site_type_symbol
_atom_site_label
_atom_site_fract_x
_atom_site_fract_y
_atom_site_fract_z
Si Si1 0.103761 0.945636 0.424910
Si Si2 0.451759 0.060754 0.873495
Si Si3 0.275994 0.127481 0.948279
Si Si4 0.197820 0.811817 0.204827
Si Si5 0.000000 0.858338 0.250000
O O1 0.208695 0.926239 0.469783
O O2 0.043768 0.958412 0.549057
O O3 0.049422 0.896149 0.354492
O O4 0.108198 0.003456 0.344020
O O5 0.500000 0.088109 0.750000
O O6 0.385388 0.106218 0.943858
O O7 0.248240 0.150520 0.810475
O O8 0.261899 0.171697 0.064264
O O9 0.224226 0.750000 0.250000
O O10 0.083362 0.819019 0.194551
#
# Coordination Sequence:
#
# PCOD8282055 Si02
#       5
#    16  16  16  16   8
#     4  10  21  36  59  90 128 161 202 247 314 389
#     4  11  21  37  60  92 131 166 201 253 317 388
#     4  11  23  39  64  91 125 164 215 260 319 377
#     4  11  23  41  63  89 120 167 217 271 317 369
#     4  10  19  40  60  86 118 164 211 248 320 384
#
# _framework density 20.388597000000001
#
# number of rings (size 3 to 8) (size 9 to 14) (size 15 to 20)
#    0.000    1.333    3.333    3.000    0.000    0.000 
#    0.000    4.444    0.000    1.333    0.000    0.000 
#    0.000    0.000    0.000    0.000    0.000    0.000 
#
# Total GULP energy -446113.868817 kJ/mol
# GULP energy per Si atom -12392.051912 kJ/mol
# Density = 2.034219 g / cm^3
# Si number density = 20.388597 Si / 1000 Ang^3
#
#
#
# Elastic Constant Matrix: (Units=GPa)
#
#
# Indices 1 2 3 4 5 6 
#
# 1 82.6323 24.4146 31.6605 0.0000 0.0000 0.0000
# 2 24.4146 87.6199 23.1609 0.0000 0.0000 0.0000
# 3 31.6605 23.1609 105.4852 0.0000 0.0000 0.0000
# 4 0.0000 0.0000 0.0000 27.2720 0.0000 0.0000
# 5 0.0000 0.0000 0.0000 0.0000 30.0085 0.0000
# 6 0.0000 0.0000 0.0000 0.0000 0.0000 12.3091
#
#
#
# Elastic Compliance Matrix: (Units=1/GPa)
#
#
# Indices 1 2 3 4 5 6 
#
# 1 0.014402 -0.003047 -0.003654 0.000000 0.000000 0.000000
# 2 -0.003047 0.012761 -0.001887 0.000000 0.000000 0.000000
# 3 -0.003654 -0.001887 0.010991 0.000000 0.000000 0.000000
# 4 0.000000 0.000000 0.000000 0.036668 0.000000 0.000000
# 5 0.000000 0.000000 0.000000 0.000000 0.033324 0.000000
# 6 0.000000 0.000000 0.000000 0.000000 0.000000 0.081241
#
#
# Mechanical properties :
#
#
# Convention : Reuss Voigt Hill
#
# Bulk Modulus (GPa) = 47.66957 48.24548 47.95753
# Shear Modulus (GPa) = 23.41317 27.01800 25.21558
#
# Velocity S-wave (km/s) = 3.39240 3.64421 3.52056
# Velocity P-wave (km/s) = 6.22702 6.43595 6.33234
#
# Compressibility (1/GPa) = 0.02097774
#
# Stress axis : x y z
#
# Youngs Moduli (GPa) = 69.43471 78.36454 90.98380
#
# Poissons Ratio (x) = 0.23880 0.33242
# Poissons Ratio (y) = 0.21158 0.17171
# Poissons Ratio (z) = 0.25369 0.14789
#
# Static dielectric constant tensor:
#      x y z
#    x 3.862400 0.000000 0.000000 
#    y 0.000000 3.579340 0.000000 
#    z 0.000000 0.000000 3.627430 
# 
# 
# High freq. dielectric constant tensor:
#      x y z
#    x 1.799370 0.000000 0.000000 
#    y 0.000000 1.784890 0.000000 
#    z 0.000000 0.000000 1.794180 
# 
# From -- ./inp_files/5190.got.cif
#   From: 2010.03.12/outbox.cif.g09.slc.cpg/sg68_3_cif.got.tgz:5190.got - 2010.04.10 23:14:56.
