data_PCOD8282655
_publ_section_title
;
Structure prediction by ZEFSAII (Michael W. Deem and Ramdas Pophale) SiO2 
 PCOD8282655
Probable space group: C C C A
;
_chemical_formula_sum "Si O2"
_cell_formula_units_Z 96
_cell_length_a 22.741456
_cell_length_b 20.409112
_cell_length_c 11.074796
_cell_angle_alpha 90.000000
_cell_angle_beta 90.000000
_cell_angle_gamma 90.000000
_cell_volume 5140.177434
_symmetry_space_group_name_H-M "C C C A"
_symmetry_group_IT_number 68
_space_group.IT_coordinate_system_code '2'
_symmetry_cell_setting 'orthorhombic'
loop_
_space_group_symop_operation_xyz
x,y,z
-x,1/2-y,z
x,1/2-y,1/2-z
-x,y,1/2-z
-x,-y,-z
x,1/2+y,-z
-x,1/2+y,1/2+z
x,-y,1/2+z
1/2+x,1/2+y,z
1/2-x,-y,z
1/2+x,-y,1/2-z
1/2-x,1/2+y,1/2-z
1/2-x,1/2-y,-z
1/2+x,y,-z
1/2-x,y,1/2+z
1/2+x,1/2-y,1/2+z
loop_
_atom_site_type_symbol
_atom_site_label
_atom_site_fract_x
_atom_site_fract_y
_atom_site_fract_z
Si Si1 0.675706 0.863094 0.494026
Si Si2 0.000000 0.750000 0.547100
Si Si3 0.112217 0.258467 0.888192
Si Si4 0.683112 0.497528 0.904465
Si Si5 0.186817 0.635293 0.500947
Si Si6 0.000000 0.851860 0.750000
Si Si7 0.128007 0.106527 0.265207
O O1 0.644723 0.806323 0.567732
O O2 0.659196 0.932192 0.556370
O O3 0.744597 0.847416 0.495703
O O4 0.651551 0.864944 0.359171
O O5 0.946082 0.771090 0.464192
O O6 0.982586 0.689902 0.632610
O O7 0.094369 0.250000 0.750000
O O8 0.153995 0.322389 0.899402
O O9 0.750000 0.500000 0.859910
O O10 0.646807 0.469243 0.789548
O O11 0.678661 0.443956 0.015394
O O12 0.158180 0.653188 0.632165
O O13 0.057455 0.894874 0.776178
#
# Coordination Sequence:
#
# PCOD8282655 Si02
#       7
#    16   8  16  16  16   8  16
#     4  11  22  39  62  95 123 164 210 254 326 383
#     4  11  21  42  62  86 119 163 218 248 318 375
#     4  12  25  38  61  91 128 163 204 268 323 377
#     4   8  19  39  60  92 125 163 202 256 316 373
#     4   9  22  41  57  95 126 161 205 259 316 376
#     4  11  20  40  70  88 118 162 217 272 282 383
#     4  10  21  39  68  89 121 165 218 253 306 377
#
# _framework density 18.676397999999999
#
# number of rings (size 3 to 8) (size 9 to 14) (size 15 to 20)
#    1.000    0.833    3.333    0.750    2.333    4.000 
#    0.000    0.833    3.667    0.000    0.000    0.000 
#    0.000    0.000    0.000    0.000    0.000    0.000 
#
# Total GULP energy -594846.719294 kJ/mol
# GULP energy per Si atom -12392.639985 kJ/mol
# Density = 1.863389 g / cm^3
# Si number density = 18.676398 Si / 1000 Ang^3
#
#
#
# Elastic Constant Matrix: (Units=GPa)
#
#
# Indices 1 2 3 4 5 6 
#
# 1 114.5835 38.1695 42.7369 0.0000 0.0000 0.0000
# 2 38.1695 88.6946 13.1950 0.0000 0.0000 0.0000
# 3 42.7369 13.1950 86.9534 0.0000 0.0000 0.0000
# 4 0.0000 0.0000 0.0000 20.2964 0.0000 0.0000
# 5 0.0000 0.0000 0.0000 0.0000 28.5423 0.0000
# 6 0.0000 0.0000 0.0000 0.0000 0.0000 18.7042
#
#
#
# Elastic Compliance Matrix: (Units=1/GPa)
#
#
# Indices 1 2 3 4 5 6 
#
# 1 0.012195 -0.004457 -0.005318 0.000000 0.000000 0.000000
# 2 -0.004457 0.013164 0.000193 0.000000 0.000000 0.000000
# 3 -0.005318 0.000193 0.014085 0.000000 0.000000 0.000000
# 4 0.000000 0.000000 0.000000 0.049270 0.000000 0.000000
# 5 0.000000 0.000000 0.000000 0.000000 0.035036 0.000000
# 6 0.000000 0.000000 0.000000 0.000000 0.000000 0.053464
#
#
# Mechanical properties :
#
#
# Convention : Reuss Voigt Hill
#
# Bulk Modulus (GPa) = 49.30790 53.15937 51.23363
# Shear Modulus (GPa) = 24.61391 26.58391 25.59891
#
# Velocity S-wave (km/s) = 3.63425 3.77688 3.70625
# Velocity P-wave (km/s) = 6.63844 6.89529 6.76808
#
# Compressibility (1/GPa) = 0.02028073
#
# Stress axis : x y z
#
# Youngs Moduli (GPa) = 81.99865 75.96445 70.99924
#
# Poissons Ratio (x) = 0.33858 0.37754
# Poissons Ratio (y) = 0.36548 -0.01371
# Poissons Ratio (z) = 0.43603 -0.01466
#
# Static dielectric constant tensor:
#      x y z
#    x 3.409630 0.000000 0.000000 
#    y 0.000000 3.412480 0.000000 
#    z 0.000000 0.000000 3.293910 
# 
# 
# High freq. dielectric constant tensor:
#      x y z
#    x 1.729070 0.000000 0.000000 
#    y 0.000000 1.717330 0.000000 
#    z 0.000000 0.000000 1.715960 
# 
# From -- ./inp_files/15606.got.cif
#   From: 2010.03.12/outbox.cif.g09.slc.cpg/sg68_8_cif.got.tgz:15606.got - 2010.04.10 23:14:56.
