data_PCOD8282126
_publ_section_title
;
Structure prediction by ZEFSAII (Michael W. Deem and Ramdas Pophale) SiO2 
 PCOD8282126
Probable space group: C C C A
;
_chemical_formula_sum "Si O2"
_cell_formula_units_Z 92
_cell_length_a 8.243739
_cell_length_b 20.574449
_cell_length_c 25.557958
_cell_angle_alpha 90.000000
_cell_angle_beta 90.000000
_cell_angle_gamma 90.000000
_cell_volume 4334.895163
_symmetry_space_group_name_H-M "C C C A"
_symmetry_group_IT_number 68
_space_group.IT_coordinate_system_code '2'
_symmetry_cell_setting 'orthorhombic'
loop_
_space_group_symop_operation_xyz
x,y,z
-x,1/2-y,z
x,1/2-y,1/2-z
-x,y,1/2-z
-x,-y,-z
x,1/2+y,-z
-x,1/2+y,1/2+z
x,-y,1/2+z
1/2+x,1/2+y,z
1/2-x,-y,z
1/2+x,-y,1/2-z
1/2-x,1/2+y,1/2-z
1/2-x,1/2-y,-z
1/2+x,y,-z
1/2-x,y,1/2+z
1/2+x,1/2-y,1/2+z
loop_
_atom_site_type_symbol
_atom_site_label
_atom_site_fract_x
_atom_site_fract_y
_atom_site_fract_z
Si Si1 0.448163 0.135553 0.541600
Si Si2 0.500000 0.250000 0.884037
Si Si3 0.000000 0.250000 0.750000
Si Si4 0.073388 0.631659 0.432766
Si Si5 0.382494 0.947745 0.202219
Si Si6 0.442790 0.992340 0.093968
Si Si7 0.708714 0.316835 0.166115
O O1 0.532606 0.187115 0.580081
O O2 0.259175 0.129283 0.550581
O O3 0.477052 0.160209 0.482325
O O4 0.517070 0.063305 0.555474
O O5 0.658137 0.237873 0.848317
O O6 0.113480 0.296548 0.783028
O O7 0.986578 0.562268 0.422040
O O8 0.073642 0.675382 0.380281
O O9 0.500000 0.928845 0.250000
O O10 0.488584 0.976810 0.154363
O O11 0.295630 0.884737 0.178033
O O12 0.250000 0.000000 0.222071
O O13 0.250000 0.000000 0.090366
#
# Coordination Sequence:
#
# PCOD8282126 Si02
#       7
#    16   8   4  16  16  16  16
#     4  10  20  34  61  92 118 167 201 251 314 385
#     4  10  22  40  64  86 126 170 222 244 312 408
#     4  12  32  40  64  92 128 172 224 270 322 366
#     4  10  20  38  63  87 127 159 206 264 317 378
#     4  11  22  41  71  94 125 165 214 271 329 373
#     4   9  16  37  58  88 122 154 199 255 317 374
#     4  11  25  45  62  92 129 172 212 273 317 379
#
# _framework density 21.223120000000002
#
# number of rings (size 3 to 8) (size 9 to 14) (size 15 to 20)
#    0.000    1.739    6.957    0.522    3.652    4.870 
#    0.000    1.739    0.000    0.000    0.000    0.000 
#    0.000    0.000    0.000    0.000    0.000    0.000 
#
# Total GULP energy -570128.428042 kJ/mol
# GULP energy per Si atom -12394.096262 kJ/mol
# Density = 2.117482 g / cm^3
# Si number density = 21.223120 Si / 1000 Ang^3
#
#
#
# Elastic Constant Matrix: (Units=GPa)
#
#
# Indices 1 2 3 4 5 6 
#
# 1 28.6087 37.0607 42.6782 0.0000 0.0000 0.0000
# 2 37.0607 101.8031 41.5556 0.0000 0.0000 0.0000
# 3 42.6782 41.5556 156.3257 0.0000 0.0000 0.0000
# 4 0.0000 0.0000 0.0000 12.4822 0.0000 0.0000
# 5 0.0000 0.0000 0.0000 0.0000 -15.1038 0.0000
# 6 0.0000 0.0000 0.0000 0.0000 0.0000 21.0636
#
#
#
# Elastic Compliance Matrix: (Units=1/GPa)
#
#
# Indices 1 2 3 4 5 6 
#
# 1 0.103405 -0.029300 -0.020442 0.000000 0.000000 0.000000
# 2 -0.029300 0.019320 0.002863 0.000000 0.000000 0.000000
# 3 -0.020442 0.002863 0.011217 0.000000 0.000000 0.000000
# 4 0.000000 0.000000 0.000000 0.080114 0.000000 0.000000
# 5 0.000000 0.000000 0.000000 0.000000 -0.066208 0.000000
# 6 0.000000 0.000000 0.000000 0.000000 0.000000 0.047475
#
#
# Mechanical properties :
#
#
# Convention : Reuss Voigt Hill
#
# Bulk Modulus (GPa) = 24.88450 58.81405 41.84927
# Shear Modulus (GPa) = 16.53024 14.71792 15.62408
#
# Velocity S-wave (km/s) = 2.79387 2.63627 2.71621
# Velocity P-wave (km/s) = 4.70725 6.08596 5.44046
#
# Compressibility (1/GPa) = 0.04018566
#
# Stress axis : x y z
#
# Youngs Moduli (GPa) = 9.67067 51.75850 89.15347
#
# Poissons Ratio (x) = 1.51651 1.82247
# Poissons Ratio (y) = 0.28335 -0.25526
# Poissons Ratio (z) = 0.19769 -0.14819
#
# Static dielectric constant tensor:
#      x y z
#    x 3.414560 0.000000 0.000000 
#    y 0.000000 4.167880 0.000000 
#    z 0.000000 0.000000 4.698430 
# 
# 
# High freq. dielectric constant tensor:
#      x y z
#    x 1.789540 0.000000 0.000000 
#    y 0.000000 1.839280 0.000000 
#    z 0.000000 0.000000 1.846890 
# 
# From -- ./inp_files/49361.got.cif
#   From: 2010.03.12/outbox.cif.g09.slc.cpg/sg68_25_cif.got.tgz:49361.got - 2010.04.10 23:14:56.
