data_PCOD8282110
_publ_section_title
;
Structure prediction by ZEFSAII (Michael W. Deem and Ramdas Pophale) SiO2 
 PCOD8282110
Probable space group: C C C A
;
_chemical_formula_sum "Si O2"
_cell_formula_units_Z 88
_cell_length_a 21.949706
_cell_length_b 11.939273
_cell_length_c 16.588761
_cell_angle_alpha 90.000000
_cell_angle_beta 90.000000
_cell_angle_gamma 90.000000
_cell_volume 4347.309303
_symmetry_space_group_name_H-M "C C C A"
_symmetry_group_IT_number 68
_space_group.IT_coordinate_system_code '2'
_symmetry_cell_setting 'orthorhombic'
loop_
_space_group_symop_operation_xyz
x,y,z
-x,1/2-y,z
x,1/2-y,1/2-z
-x,y,1/2-z
-x,-y,-z
x,1/2+y,-z
-x,1/2+y,1/2+z
x,-y,1/2+z
1/2+x,1/2+y,z
1/2-x,-y,z
1/2+x,-y,1/2-z
1/2-x,1/2+y,1/2-z
1/2-x,1/2-y,-z
1/2+x,y,-z
1/2-x,y,1/2+z
1/2+x,1/2-y,1/2+z
loop_
_atom_site_type_symbol
_atom_site_label
_atom_site_fract_x
_atom_site_fract_y
_atom_site_fract_z
Si Si1 0.587212 0.856487 0.593517
Si Si2 0.620960 0.750000 0.750000
Si Si3 0.169890 0.750000 0.750000
Si Si4 0.604758 0.883327 0.115003
Si Si5 0.275353 0.883615 0.682936
Si Si6 0.813755 0.796885 0.477396
Si Si7 0.000000 0.750000 0.528309
O O1 0.578125 0.779825 0.673990
O O2 0.647869 0.811400 0.550348
O O3 0.532246 0.839715 0.530666
O O4 0.590301 0.985323 0.620108
O O5 0.668124 0.646332 0.740876
O O6 0.126758 0.837693 0.797798
O O7 0.215646 0.804099 0.684581
O O8 0.545136 0.816203 0.086938
O O9 0.657102 0.866180 0.049491
O O10 0.304007 0.886232 0.593997
O O11 0.250000 0.000000 0.713705
O O12 0.750000 0.750000 0.500000
#
# Coordination Sequence:
#
# PCOD8282110 Si02
#       7
#    16   8   8  16  16  16   8
#     4  10  22  41  64  87 120 164 199 254 308 350
#     4   9  20  39  56  90 126 151 207 242 292 374
#     4  11  22  37  56  90 124 155 201 244 298 370
#     4  11  23  40  65  87 123 161 201 255 310 347
#     4  10  20  34  55  86 127 159 190 237 292 357
#     4  10  21  37  57  92 122 154 201 239 284 375
#     4  10  24  44  62  90 118 150 222 256 290 376
#
# _framework density 20.242405000000002
#
# number of rings (size 3 to 8) (size 9 to 14) (size 15 to 20)
#    0.000    1.818    1.818    1.636    2.545    0.727 
#    0.000    7.273    0.000    0.000    0.000    0.000 
#    0.000    0.000    0.000    0.000    0.000    0.000 
#
# Total GULP energy -545360.735778 kJ/mol
# GULP energy per Si atom -12394.562177 kJ/mol
# Density = 2.019633 g / cm^3
# Si number density = 20.242405 Si / 1000 Ang^3
#
#
#
# Elastic Constant Matrix: (Units=GPa)
#
#
# Indices 1 2 3 4 5 6 
#
# 1 86.0084 16.4609 32.7232 0.0000 0.0000 0.0000
# 2 16.4609 101.4438 19.9764 0.0000 0.0000 0.0000
# 3 32.7232 19.9764 92.3702 0.0000 0.0000 0.0000
# 4 0.0000 0.0000 0.0000 24.4523 0.0000 0.0000
# 5 0.0000 0.0000 0.0000 0.0000 24.3264 0.0000
# 6 0.0000 0.0000 0.0000 0.0000 0.0000 17.5719
#
#
#
# Elastic Compliance Matrix: (Units=1/GPa)
#
#
# Indices 1 2 3 4 5 6 
#
# 1 0.013604 -0.001314 -0.004535 0.000000 0.000000 0.000000
# 2 -0.001314 0.010423 -0.001789 0.000000 0.000000 0.000000
# 3 -0.004535 -0.001789 0.012819 0.000000 0.000000 0.000000
# 4 0.000000 0.000000 0.000000 0.040896 0.000000 0.000000
# 5 0.000000 0.000000 0.000000 0.000000 0.041108 0.000000
# 6 0.000000 0.000000 0.000000 0.000000 0.000000 0.056909
#
#
# Mechanical properties :
#
#
# Convention : Reuss Voigt Hill
#
# Bulk Modulus (GPa) = 46.35979 46.46036 46.41008
# Shear Modulus (GPa) = 25.22387 27.31425 26.26906
#
# Velocity S-wave (km/s) = 3.53383 3.67735 3.60630
# Velocity P-wave (km/s) = 6.29306 6.40565 6.34960
#
# Compressibility (1/GPa) = 0.02157042
#
# Stress axis : x y z
#
# Youngs Moduli (GPa) = 73.50915 95.94028 78.00686
#
# Poissons Ratio (x) = 0.12610 0.35376
# Poissons Ratio (y) = 0.09662 0.13952
# Poissons Ratio (z) = 0.33337 0.17159
#
# Static dielectric constant tensor:
#      x y z
#    x 3.738690 0.000000 0.000000 
#    y 0.000000 3.894170 0.000000 
#    z 0.000000 0.000000 1.352590 
# 
# 
# High freq. dielectric constant tensor:
#      x y z
#    x 1.792180 0.000000 0.000000 
#    y 0.000000 1.778060 0.000000 
#    z 0.000000 0.000000 1.798640 
# 
# From -- ./inp_files/32836.got.cif
#   From: 2010.03.12/outbox.cif.g09.slc.cpg/sg68_17_cif.got.tgz:32836.got - 2010.04.10 23:14:56.
