data_PCOD8282479
_publ_section_title
;
Structure prediction by ZEFSAII (Michael W. Deem and Ramdas Pophale) SiO2 
 PCOD8282479
Probable space group: C C C A
;
_chemical_formula_sum "Si O2"
_cell_formula_units_Z 80
_cell_length_a 15.169127
_cell_length_b 14.610233
_cell_length_c 18.275852
_cell_angle_alpha 90.000000
_cell_angle_beta 90.000000
_cell_angle_gamma 90.000000
_cell_volume 4050.376194
_symmetry_space_group_name_H-M "C C C A"
_symmetry_group_IT_number 68
_space_group.IT_coordinate_system_code '2'
_symmetry_cell_setting 'orthorhombic'
loop_
_space_group_symop_operation_xyz
x,y,z
-x,1/2-y,z
x,1/2-y,1/2-z
-x,y,1/2-z
-x,-y,-z
x,1/2+y,-z
-x,1/2+y,1/2+z
x,-y,1/2+z
1/2+x,1/2+y,z
1/2-x,-y,z
1/2+x,-y,1/2-z
1/2-x,1/2+y,1/2-z
1/2-x,1/2-y,-z
1/2+x,y,-z
1/2-x,y,1/2+z
1/2+x,1/2-y,1/2+z
loop_
_atom_site_type_symbol
_atom_site_label
_atom_site_fract_x
_atom_site_fract_y
_atom_site_fract_z
Si Si1 0.704734 0.750000 0.250000
Si Si2 0.190541 0.759915 0.108772
Si Si3 0.952564 0.653269 0.816881
Si Si4 0.500000 0.750000 0.925379
Si Si5 0.022490 0.405498 0.465731
Si Si6 0.723002 0.395039 0.502692
O O1 0.765678 0.712173 0.185392
O O2 0.647449 0.829299 0.209850
O O3 0.086764 0.744567 0.124636
O O4 0.207287 0.846816 0.056292
O O5 0.224423 0.664463 0.072357
O O6 0.000000 0.750000 0.830723
O O7 0.000000 0.599949 0.750000
O O8 0.965968 0.596475 0.890554
O O9 0.482667 0.666167 0.978821
O O10 0.127597 0.390502 0.457019
O O11 0.000000 0.500000 0.500000
O O12 0.750000 0.500000 0.485885
#
# Coordination Sequence:
#
# PCOD8282479 Si02
#       6
#     8  16  16   8  16  16
#     4  10  21  35  62  88 120 166 198 257 309 374
#     4  10  22  38  61  87 120 166 206 255 317 368
#     4   9  18  34  59  89 123 150 197 257 311 364
#     4  10  22  39  59  88 122 162 212 258 306 381
#     4  11  21  34  63  94 123 164 205 260 317 368
#     4  10  21  37  61  90 126 158 209 258 309 376
#
# _framework density 19.751252999999998
#
# number of rings (size 3 to 8) (size 9 to 14) (size 15 to 20)
#    0.000    2.200    1.000    3.600    8.400    0.400 
#    0.000    1.000   17.600    0.000    0.000    0.000 
#    0.000    0.000    0.000    0.000    0.000    0.000 
#
# Total GULP energy -495626.708093 kJ/mol
# GULP energy per Si atom -12390.667702 kJ/mol
# Density = 1.970630 g / cm^3
# Si number density = 19.751253 Si / 1000 Ang^3
#
#
#
# Elastic Constant Matrix: (Units=GPa)
#
#
# Indices 1 2 3 4 5 6 
#
# 1 118.3377 19.1471 65.4075 0.0000 0.0000 0.0000
# 2 19.1471 118.7080 42.6859 0.0000 0.0000 0.0000
# 3 65.4075 42.6859 126.6905 0.0000 0.0000 0.0000
# 4 0.0000 0.0000 0.0000 25.6333 0.0000 0.0000
# 5 0.0000 0.0000 0.0000 0.0000 33.4652 0.0000
# 6 0.0000 0.0000 0.0000 0.0000 0.0000 23.3154
#
#
#
# Elastic Compliance Matrix: (Units=1/GPa)
#
#
# Indices 1 2 3 4 5 6 
#
# 1 0.011836 0.000328 -0.006221 0.000000 0.000000 0.000000
# 2 0.000328 0.009594 -0.003402 0.000000 0.000000 0.000000
# 3 -0.006221 -0.003402 0.012251 0.000000 0.000000 0.000000
# 4 0.000000 0.000000 0.000000 0.039012 0.000000 0.000000
# 5 0.000000 0.000000 0.000000 0.000000 0.029882 0.000000
# 6 0.000000 0.000000 0.000000 0.000000 0.000000 0.042890
#
#
# Mechanical properties :
#
#
# Convention : Reuss Voigt Hill
#
# Bulk Modulus (GPa) = 66.26305 68.69079 67.47692
# Shear Modulus (GPa) = 29.57077 32.24916 30.90996
#
# Velocity S-wave (km/s) = 3.87351 4.04513 3.96025
# Velocity P-wave (km/s) = 7.32305 7.52801 7.42624
#
# Compressibility (1/GPa) = 0.01509137
#
# Stress axis : x y z
#
# Youngs Moduli (GPa) = 84.48923 104.22698 81.62415
#
# Poissons Ratio (x) = -0.03418 0.50779
# Poissons Ratio (y) = -0.02771 0.27768
# Poissons Ratio (z) = 0.52561 0.35458
#
# Static dielectric constant tensor:
#      x y z
#    x 4.655940 0.000000 0.000000 
#    y 0.000000 3.364620 0.000000 
#    z 0.000000 0.000000 3.667540 
# 
# 
# High freq. dielectric constant tensor:
#      x y z
#    x 1.785920 0.000000 0.000000 
#    y 0.000000 1.742750 0.000000 
#    z 0.000000 0.000000 1.757820 
# 
# From -- ./inp_files/30856.got.cif
#   From: 2010.03.12/outbox.cif.g09.slc.cpg/sg68_16_cif.got.tgz:30856.got - 2010.04.10 23:14:56.
