data_PCOD8282642
_publ_section_title
;
Structure prediction by ZEFSAII (Michael W. Deem and Ramdas Pophale) SiO2 
 PCOD8282642
Probable space group: C C C A
;
_chemical_formula_sum "Si O2"
_cell_formula_units_Z 112
_cell_length_a 14.481128
_cell_length_b 14.501530
_cell_length_c 25.831125
_cell_angle_alpha 90.000000
_cell_angle_beta 90.000000
_cell_angle_gamma 90.000000
_cell_volume 5424.497817
_symmetry_space_group_name_H-M "C C C A"
_symmetry_group_IT_number 68
_space_group.IT_coordinate_system_code '2'
_symmetry_cell_setting 'orthorhombic'
loop_
_space_group_symop_operation_xyz
x,y,z
-x,1/2-y,z
x,1/2-y,1/2-z
-x,y,1/2-z
-x,-y,-z
x,1/2+y,-z
-x,1/2+y,1/2+z
x,-y,1/2+z
1/2+x,1/2+y,z
1/2-x,-y,z
1/2+x,-y,1/2-z
1/2-x,1/2+y,1/2-z
1/2-x,1/2-y,-z
1/2+x,y,-z
1/2-x,y,1/2+z
1/2+x,1/2-y,1/2+z
loop_
_atom_site_type_symbol
_atom_site_label
_atom_site_fract_x
_atom_site_fract_y
_atom_site_fract_z
Si Si1 0.391493 0.996143 0.261103
Si Si2 0.411031 0.313300 0.948695
Si Si3 0.512232 0.983552 0.060189
Si Si4 0.246756 0.850455 0.224236
Si Si5 0.256107 0.753987 0.376367
Si Si6 0.074962 0.177405 0.930033
Si Si7 0.164964 0.060223 0.369998
O O1 0.500000 0.996197 0.250000
O O2 0.340622 0.907517 0.235643
O O3 0.384063 0.992817 0.323031
O O4 0.342490 0.090121 0.241462
O O5 0.500000 0.250000 0.935988
O O6 0.427924 0.416064 0.924031
O O7 0.315953 0.278162 0.925270
O O8 0.396729 0.321129 0.010056
O O9 0.524268 0.082338 0.087505
O O10 0.603449 0.927563 0.078179
O O11 0.500000 0.000000 0.000000
O O12 0.246067 0.750000 0.250000
O O13 0.241081 0.831202 0.162536
O O14 0.162696 0.800152 0.395822
O O15 0.308521 0.838694 0.348184
O O16 0.000000 0.250000 0.914890
O O17 0.250000 0.000000 0.389732
#
# Coordination Sequence:
#
# PCOD8282642 Si02
#       7
#    16  16  16  16  16  16  16
#     4  11  26  46  71  96 138 178 225 294 347 408
#     4  10  21  39  63  98 134 166 222 283 336 408
#     4  10  22  40  63  95 133 167 221 277 330 403
#     4  11  24  47  65 102 136 167 232 288 332 412
#     4  12  23  40  68  95 133 177 221 283 345 402
#     4  10  23  42  62  91 132 181 226 270 332 412
#     4  12  21  42  72  96 125 183 231 270 345 422
#
# _framework density 20.647072000000001
#
# number of rings (size 3 to 8) (size 9 to 14) (size 15 to 20)
#    0.000    1.143    5.714    0.429    2.000    1.714 
#    2.571    0.000    0.000    0.000    0.000    0.000 
#    0.000    0.000    0.000    0.000    0.000    0.000 
#
# Total GULP energy -693791.115171 kJ/mol
# GULP energy per Si atom -12389.127057 kJ/mol
# Density = 2.060008 g / cm^3
# Si number density = 20.647072 Si / 1000 Ang^3
#
#
#
# Elastic Constant Matrix: (Units=GPa)
#
#
# Indices 1 2 3 4 5 6 
#
# 1 116.0551 59.5479 43.4792 0.0000 0.0000 0.0000
# 2 59.5479 148.7300 40.1982 0.0000 0.0000 0.0000
# 3 43.4792 40.1982 82.4507 0.0000 0.0000 0.0000
# 4 0.0000 0.0000 0.0000 36.5003 0.0000 0.0000
# 5 0.0000 0.0000 0.0000 0.0000 -9.5584 0.0000
# 6 0.0000 0.0000 0.0000 0.0000 0.0000 31.7940
#
#
#
# Elastic Compliance Matrix: (Units=1/GPa)
#
#
# Indices 1 2 3 4 5 6 
#
# 1 0.012234 -0.003633 -0.004680 0.000000 0.000000 0.000000
# 2 -0.003633 0.008823 -0.002386 0.000000 0.000000 0.000000
# 3 -0.004680 -0.002386 0.015760 0.000000 0.000000 0.000000
# 4 0.000000 0.000000 0.000000 0.027397 0.000000 0.000000
# 5 0.000000 0.000000 0.000000 0.000000 -0.104620 0.000000
# 6 0.000000 0.000000 0.000000 0.000000 0.000000 0.031452
#
#
# Mechanical properties :
#
#
# Convention : Reuss Voigt Hill
#
# Bulk Modulus (GPa) = 64.85658 70.40961 67.63309
# Shear Modulus (GPa) = 284.33827 25.34787 154.84307
#
# Velocity S-wave (km/s) = 11.74788 3.50762 8.66937
# Velocity P-wave (km/s) = 14.67981 7.11197 11.53423
#
# Compressibility (1/GPa) = 0.01541864
#
# Stress axis : x y z
#
# Youngs Moduli (GPa) = 81.73773 113.33910 63.45353
#
# Poissons Ratio (x) = 0.41180 0.29697
# Poissons Ratio (y) = 0.29698 0.15138
# Poissons Ratio (z) = 0.38254 0.27038
#
# Static dielectric constant tensor:
#      x y z
#    x 3.753060 0.000000 0.000000 
#    y 0.000000 4.362180 0.000000 
#    z 0.000000 0.000000 3.676940 
# 
# 
# High freq. dielectric constant tensor:
#      x y z
#    x 1.797210 0.000000 0.000000 
#    y 0.000000 1.831390 0.000000 
#    z 0.000000 0.000000 1.801400 
# 
# From -- ./inp_files/50967.got.cif
#   From: 2010.03.12/outbox.cif.g09.slc.cpg/sg68_26_cif.got.tgz:50967.got - 2010.04.10 23:14:56.
