data_PCOD8282524
_publ_section_title
;
Structure prediction by ZEFSAII (Michael W. Deem and Ramdas Pophale) SiO2 
 PCOD8282524
Probable space group: C C C A
;
_chemical_formula_sum "Si O2"
_cell_formula_units_Z 88
_cell_length_a 19.884620
_cell_length_b 14.738769
_cell_length_c 15.453126
_cell_angle_alpha 90.000000
_cell_angle_beta 90.000000
_cell_angle_gamma 90.000000
_cell_volume 4528.922134
_symmetry_space_group_name_H-M "C C C A"
_symmetry_group_IT_number 68
_space_group.IT_coordinate_system_code '2'
_symmetry_cell_setting 'orthorhombic'
loop_
_space_group_symop_operation_xyz
x,y,z
-x,1/2-y,z
x,1/2-y,1/2-z
-x,y,1/2-z
-x,-y,-z
x,1/2+y,-z
-x,1/2+y,1/2+z
x,-y,1/2+z
1/2+x,1/2+y,z
1/2-x,-y,z
1/2+x,-y,1/2-z
1/2-x,1/2+y,1/2-z
1/2-x,1/2-y,-z
1/2+x,y,-z
1/2-x,y,1/2+z
1/2+x,1/2-y,1/2+z
loop_
_atom_site_type_symbol
_atom_site_label
_atom_site_fract_x
_atom_site_fract_y
_atom_site_fract_z
Si Si1 0.627336 0.621316 0.052350
Si Si2 0.750000 0.000000 0.699788
Si Si3 0.319889 0.783069 0.536483
Si Si4 0.864022 0.050450 0.068630
Si Si5 0.504098 0.642320 0.350609
Si Si6 0.743317 0.330918 0.689325
O O1 0.560291 0.599564 0.104149
O O2 0.687423 0.631933 0.122015
O O3 0.622609 0.712572 0.993435
O O4 0.632167 0.542605 0.982598
O O5 0.813192 0.964918 0.646455
O O6 0.727678 0.914709 0.756973
O O7 0.250000 0.750000 0.500000
O O8 0.334100 0.881712 0.500792
O O9 0.308944 0.790359 0.639877
O O10 0.931902 0.092653 0.107838
O O11 0.500000 0.750000 0.366038
O O12 0.500000 0.618573 0.250000
O O13 0.712913 0.250000 0.750000
#
# Coordination Sequence:
#
# PCOD8282524 Si02
#       6
#    16   8  16  16  16  16
#     4  11  22  40  62  88 122 164 206 254 311 378
#     4  12  22  36  60  92 124 164 202 258 312 370
#     4  10  21  37  57  86 120 161 198 246 304 368
#     4  12  23  41  62  90 125 163 208 255 313 375
#     4  11  24  40  65  92 121 161 211 265 311 365
#     4  11  22  36  60  92 126 162 203 256 314 370
#
# _framework density 19.430672000000001
#
# number of rings (size 3 to 8) (size 9 to 14) (size 15 to 20)
#    0.000    0.909    1.818    8.182    2.545    0.000 
#    0.000    0.000    0.000    0.000    0.000    2.545 
#    0.000    0.000    0.000    0.000    0.000    0.000 
#
# Total GULP energy -545353.433353 kJ/mol
# GULP energy per Si atom -12394.396213 kJ/mol
# Density = 1.938645 g / cm^3
# Si number density = 19.430672 Si / 1000 Ang^3
#
#
#
# Elastic Constant Matrix: (Units=GPa)
#
#
# Indices 1 2 3 4 5 6 
#
# 1 86.0661 14.5340 41.7128 0.0000 0.0000 0.0000
# 2 14.5340 109.9657 52.1769 0.0000 0.0000 0.0000
# 3 41.7128 52.1769 121.7720 0.0000 0.0000 0.0000
# 4 0.0000 0.0000 0.0000 49.9244 0.0000 0.0000
# 5 0.0000 0.0000 0.0000 0.0000 -19.4804 0.0000
# 6 0.0000 0.0000 0.0000 0.0000 0.0000 26.4724
#
#
#
# Elastic Compliance Matrix: (Units=1/GPa)
#
#
# Indices 1 2 3 4 5 6 
#
# 1 0.013957 0.000532 -0.005009 0.000000 0.000000 0.000000
# 2 0.000532 0.011435 -0.005082 0.000000 0.000000 0.000000
# 3 -0.005009 -0.005082 0.012105 0.000000 0.000000 0.000000
# 4 0.000000 0.000000 0.000000 0.020030 0.000000 0.000000
# 5 0.000000 0.000000 0.000000 0.000000 -0.051334 0.000000
# 6 0.000000 0.000000 0.000000 0.000000 0.000000 0.037775
#
#
# Mechanical properties :
#
#
# Convention : Reuss Voigt Hill
#
# Bulk Modulus (GPa) = 54.40859 59.40570 56.90715
# Shear Modulus (GPa) = 72.24201 25.34198 48.79199
#
# Velocity S-wave (km/s) = 6.10410 3.61532 5.01651
# Velocity P-wave (km/s) = 8.81716 6.93303 7.93124
#
# Compressibility (1/GPa) = 0.01837945
#
# Stress axis : x y z
#
# Youngs Moduli (GPa) = 71.65021 87.45357 82.60889
#
# Poissons Ratio (x) = -0.04652 0.41377
# Poissons Ratio (y) = -0.03811 0.41980
# Poissons Ratio (z) = 0.35888 0.44442
#
# Static dielectric constant tensor:
#      x y z
#    x 3.517490 0.000000 0.000000 
#    y 0.000000 3.867160 0.000000 
#    z 0.000000 0.000000 4.043620 
# 
# 
# High freq. dielectric constant tensor:
#      x y z
#    x 1.736190 0.000000 0.000000 
#    y 0.000000 1.773570 0.000000 
#    z 0.000000 0.000000 1.774570 
# 
# From -- ./inp_files/24362.got.cif
#   From: 2010.03.12/outbox.cif.g09.slc.cpg/sg68_13_cif.got.tgz:24362.got - 2010.04.10 23:14:56.
