data_PCOD8282197
_publ_section_title
;
Structure prediction by ZEFSAII (Michael W. Deem and Ramdas Pophale) SiO2 
 PCOD8282197
Probable space group: C C C A
;
_chemical_formula_sum "Si O2"
_cell_formula_units_Z 72
_cell_length_a 14.094508
_cell_length_b 28.009273
_cell_length_c 9.144016
_cell_angle_alpha 90.000000
_cell_angle_beta 90.000000
_cell_angle_gamma 90.000000
_cell_volume 3609.846495
_symmetry_space_group_name_H-M "C C C A"
_symmetry_group_IT_number 68
_space_group.IT_coordinate_system_code '2'
_symmetry_cell_setting 'orthorhombic'
loop_
_space_group_symop_operation_xyz
x,y,z
-x,1/2-y,z
x,1/2-y,1/2-z
-x,y,1/2-z
-x,-y,-z
x,1/2+y,-z
-x,1/2+y,1/2+z
x,-y,1/2+z
1/2+x,1/2+y,z
1/2-x,-y,z
1/2+x,-y,1/2-z
1/2-x,1/2+y,1/2-z
1/2-x,1/2-y,-z
1/2+x,y,-z
1/2-x,y,1/2+z
1/2+x,1/2-y,1/2+z
loop_
_atom_site_type_symbol
_atom_site_label
_atom_site_fract_x
_atom_site_fract_y
_atom_site_fract_z
Si Si1 0.816841 0.936068 0.486592
Si Si2 0.322593 0.351621 0.016101
Si Si3 0.689538 0.197416 0.312768
Si Si4 0.750000 0.500000 0.262397
Si Si5 0.971003 0.135839 0.911222
O O1 0.724387 0.902110 0.476077
O O2 0.818019 0.968615 0.341313
O O3 0.912741 0.905560 0.491964
O O4 0.815587 0.967374 0.633596
O O5 0.298191 0.340846 0.183933
O O6 0.435906 0.353306 0.992010
O O7 0.280959 0.308601 0.916708
O O8 0.680859 0.250000 0.250000
O O9 0.593139 0.183960 0.400490
O O10 0.000000 0.118044 0.750000
#
# Coordination Sequence:
#
# PCOD8282197 Si02
#       5
#    16  16  16   8  16
#     4  10  20  38  56  80 111 145 186 231 282 335
#     4  10  20  37  59  81 113 152 183 227 284 332
#     4  10  20  36  59  86 114 149 191 229 270 328
#     4  10  20  36  60  80 108 146 186 236 282 330
#     4   9  19  35  57  81 112 150 186 225 279 337
#
# _framework density 19.945444999999999
#
# number of rings (size 3 to 8) (size 9 to 14) (size 15 to 20)
#    0.000    2.222    0.000    4.667    0.000    4.000 
#    0.000   22.222    0.000    5.333    0.000    0.000 
#    0.000    0.000    0.000    0.000    0.000    0.000 
#
# Total GULP energy -446403.560208 kJ/mol
# GULP energy per Si atom -12400.098895 kJ/mol
# Density = 1.990005 g / cm^3
# Si number density = 19.945445 Si / 1000 Ang^3
#
#
#
# Elastic Constant Matrix: (Units=GPa)
#
#
# Indices 1 2 3 4 5 6 
#
# 1 175.9914 64.8867 57.0946 0.0000 0.0000 0.0000
# 2 64.8867 107.0292 31.7479 0.0000 0.0000 0.0000
# 3 57.0946 31.7479 76.2904 0.0000 0.0000 0.0000
# 4 0.0000 0.0000 0.0000 32.9589 0.0000 0.0000
# 5 0.0000 0.0000 0.0000 0.0000 30.7040 0.0000
# 6 0.0000 0.0000 0.0000 0.0000 0.0000 12.6774
#
#
#
# Elastic Compliance Matrix: (Units=1/GPa)
#
#
# Indices 1 2 3 4 5 6 
#
# 1 0.008678 -0.003804 -0.004911 0.000000 0.000000 0.000000
# 2 -0.003804 0.012327 -0.002283 0.000000 0.000000 0.000000
# 3 -0.004911 -0.002283 0.017733 0.000000 0.000000 0.000000
# 4 0.000000 0.000000 0.000000 0.030341 0.000000 0.000000
# 5 0.000000 0.000000 0.000000 0.000000 0.032569 0.000000
# 6 0.000000 0.000000 0.000000 0.000000 0.000000 0.078880
#
#
# Mechanical properties :
#
#
# Convention : Reuss Voigt Hill
#
# Bulk Modulus (GPa) = 59.73189 74.08550 66.90869
# Shear Modulus (GPa) = 24.02628 28.97351 26.49989
#
# Velocity S-wave (km/s) = 3.47450 3.81548 3.64898
# Velocity P-wave (km/s) = 6.79035 7.52564 7.16743
#
# Compressibility (1/GPa) = 0.01674148
#
# Stress axis : x y z
#
# Youngs Moduli (GPa) = 115.23370 81.12490 56.39092
#
# Poissons Ratio (x) = 0.30862 0.27696
# Poissons Ratio (y) = 0.43837 0.12872
# Poissons Ratio (z) = 0.56596 0.18518
#
# Static dielectric constant tensor:
#      x y z
#    x 3.632920 0.000000 0.000000 
#    y 0.000000 3.595980 0.000000 
#    z 0.000000 0.000000 3.685850 
# 
# 
# High freq. dielectric constant tensor:
#      x y z
#    x 1.766160 0.000000 0.000000 
#    y 0.000000 1.778730 0.000000 
#    z 0.000000 0.000000 1.776260 
# 
# From -- ./inp_files/5201.got.cif
#   From: 2010.03.12/outbox.cif.g09.slc.cpg/sg68_3_cif.got.tgz:5201.got - 2010.04.10 23:14:56.
