data_PCOD8282871
_publ_section_title
;
Structure prediction by ZEFSAII (Michael W. Deem and Ramdas Pophale) SiO2 
 PCOD8282871
Probable space group: C C C A
;
_chemical_formula_sum "Si O2"
_cell_formula_units_Z 64
_cell_length_a 5.023385
_cell_length_b 21.074374
_cell_length_c 28.626747
_cell_angle_alpha 90.000000
_cell_angle_beta 90.000000
_cell_angle_gamma 90.000000
_cell_volume 3030.561818
_symmetry_space_group_name_H-M "C C C A"
_symmetry_group_IT_number 68
_space_group.IT_coordinate_system_code '2'
_symmetry_cell_setting 'orthorhombic'
loop_
_space_group_symop_operation_xyz
x,y,z
-x,1/2-y,z
x,1/2-y,1/2-z
-x,y,1/2-z
-x,-y,-z
x,1/2+y,-z
-x,1/2+y,1/2+z
x,-y,1/2+z
1/2+x,1/2+y,z
1/2-x,-y,z
1/2+x,-y,1/2-z
1/2-x,1/2+y,1/2-z
1/2-x,1/2-y,-z
1/2+x,y,-z
1/2-x,y,1/2+z
1/2+x,1/2-y,1/2+z
loop_
_atom_site_type_symbol
_atom_site_label
_atom_site_fract_x
_atom_site_fract_y
_atom_site_fract_z
Si Si1 0.978485 0.603559 0.153667
Si Si2 0.601161 0.387140 0.531256
Si Si3 0.486885 0.176949 0.877211
Si Si4 0.750000 0.500000 0.090664
Si Si5 0.000000 0.457136 0.750000
O O1 0.694224 0.638672 0.155002
O O2 0.954815 0.539938 0.122552
O O3 0.192665 0.650370 0.131114
O O4 0.069108 0.586696 0.205872
O O5 0.397814 0.382033 0.488797
O O6 0.560607 0.330320 0.568076
O O7 0.570601 0.453846 0.558583
O O8 0.500000 0.250000 0.862948
O O9 0.750000 0.500000 0.736318
#
# Coordination Sequence:
#
# PCOD8282871 Si02
#       5
#    16  16  16   8   8
#     4  11  24  42  67  98 128 170 209 261 330 384
#     4  11  23  38  61  92 125 168 214 268 321 374
#     4  11  25  45  65  89 130 176 221 264 311 377
#     4  10  22  40  62  94 132 166 202 270 326 400
#     4  12  24  42  69 104 137 158 204 262 320 398
#
# _framework density 21.118198
#
# number of rings (size 3 to 8) (size 9 to 14) (size 15 to 20)
#    0.000    1.000    1.250    6.000    3.500    5.000 
#    0.000    3.750    0.000    0.000    0.000    0.000 
#    0.000    0.000    0.000    0.000    0.000    0.000 
#
# Total GULP energy -397035.965365 kJ/mol
# GULP energy per Si atom -12407.373918 kJ/mol
# Density = 2.107013 g / cm^3
# Si number density = 21.118198 Si / 1000 Ang^3
#
#
#
# Elastic Constant Matrix: (Units=GPa)
#
#
# Indices 1 2 3 4 5 6 
#
# 1 91.0501 21.0096 14.0129 0.0000 0.0000 0.0000
# 2 21.0096 95.0457 21.7245 0.0000 0.0000 0.0000
# 3 14.0129 21.7245 110.7549 0.0000 0.0000 0.0000
# 4 0.0000 0.0000 0.0000 24.1961 0.0000 0.0000
# 5 0.0000 0.0000 0.0000 0.0000 36.5110 0.0000
# 6 0.0000 0.0000 0.0000 0.0000 0.0000 35.8961
#
#
#
# Elastic Compliance Matrix: (Units=1/GPa)
#
#
# Indices 1 2 3 4 5 6 
#
# 1 0.011682 -0.002350 -0.001017 0.000000 0.000000 0.000000
# 2 -0.002350 0.011488 -0.001956 0.000000 0.000000 0.000000
# 3 -0.001017 -0.001956 0.009541 0.000000 0.000000 0.000000
# 4 0.000000 0.000000 0.000000 0.041329 0.000000 0.000000
# 5 0.000000 0.000000 0.000000 0.000000 0.027389 0.000000
# 6 0.000000 0.000000 0.000000 0.000000 0.000000 0.027858
#
#
# Mechanical properties :
#
#
# Convention : Reuss Voigt Hill
#
# Bulk Modulus (GPa) = 45.32054 45.59386 45.45720
# Shear Modulus (GPa) = 33.94719 35.32755 34.63737
#
# Velocity S-wave (km/s) = 4.01370 4.09448 4.05429
# Velocity P-wave (km/s) = 6.55642 6.63248 6.59456
#
# Compressibility (1/GPa) = 0.02206505
#
# Stress axis : x y z
#
# Youngs Moduli (GPa) = 85.60401 87.04935 104.80748
#
# Poissons Ratio (x) = 0.20454 0.10660
# Poissons Ratio (y) = 0.20115 0.20501
# Poissons Ratio (z) = 0.08707 0.17027
#
# Static dielectric constant tensor:
#      x y z
#    x 3.719250 0.000000 0.000000 
#    y 0.000000 3.728380 0.000000 
#    z 0.000000 0.000000 3.785360 
# 
# 
# High freq. dielectric constant tensor:
#      x y z
#    x 1.837020 0.000000 0.000000 
#    y 0.000000 1.816810 0.000000 
#    z 0.000000 0.000000 1.830200 
# 
# From -- ./inp_files/48112.got.cif
#   From: 2010.03.12/outbox.cif.g09.slc.cpg/sg68_25_cif.got.tgz:48112.got - 2010.04.10 23:14:56.
