data_PCOD8282432
_publ_section_title
;
Structure prediction by ZEFSAII (Michael W. Deem and Ramdas Pophale) SiO2 
 PCOD8282432
Probable space group: C C C A
;
_chemical_formula_sum "Si O2"
_cell_formula_units_Z 100
_cell_length_a 21.670951
_cell_length_b 26.408619
_cell_length_c 8.907811
_cell_angle_alpha 90.000000
_cell_angle_beta 90.000000
_cell_angle_gamma 90.000000
_cell_volume 5097.939241
_symmetry_space_group_name_H-M "C C C A"
_symmetry_group_IT_number 68
_space_group.IT_coordinate_system_code '2'
_symmetry_cell_setting 'orthorhombic'
loop_
_space_group_symop_operation_xyz
x,y,z
-x,1/2-y,z
x,1/2-y,1/2-z
-x,y,1/2-z
-x,-y,-z
x,1/2+y,-z
-x,1/2+y,1/2+z
x,-y,1/2+z
1/2+x,1/2+y,z
1/2-x,-y,z
1/2+x,-y,1/2-z
1/2-x,1/2+y,1/2-z
1/2-x,1/2-y,-z
1/2+x,y,-z
1/2-x,y,1/2+z
1/2+x,1/2-y,1/2+z
loop_
_atom_site_type_symbol
_atom_site_label
_atom_site_fract_x
_atom_site_fract_y
_atom_site_fract_z
Si Si1 0.132626 0.250000 0.750000
Si Si2 0.000000 0.750000 0.750000
Si Si3 0.500000 0.382617 0.250000
Si Si4 0.821056 0.873544 0.948808
Si Si5 0.320475 0.517464 0.532814
Si Si6 0.626063 0.063099 0.331836
Si Si7 0.792843 0.846407 0.281151
Si Si8 0.938205 0.813796 0.008003
O O1 0.176496 0.207193 0.680719
O O2 0.090570 0.228554 0.883332
O O3 0.036966 0.786687 0.639533
O O4 0.443346 0.419030 0.295134
O O5 0.486492 0.346686 0.106299
O O6 0.778559 0.846345 0.826463
O O7 0.822228 0.933896 0.922600
O O8 0.792179 0.859075 0.107352
O O9 0.889792 0.852981 0.939377
O O10 0.250000 0.500000 0.545711
O O11 0.367476 0.474363 0.473104
O O12 0.345599 0.532665 0.693759
O O13 0.667281 0.111988 0.370447
#
# Coordination Sequence:
#
# PCOD8282432 Si02
#       8
#     8   4   8  16  16  16  16  16
#     4  10  20  42  72  86 119 179 212 244 332 404
#     4  12  28  40  66 100 126 172 224 278 328 356
#     4  12  22  49  65  84 136 175 220 255 310 414
#     4  10  22  40  62  94 133 158 211 271 324 384
#     4  11  21  40  65  93 127 165 214 266 326 388
#     4  11  24  39  64  96 121 173 216 258 322 379
#     4  10  21  38  61  98 121 164 209 262 326 380
#     4  11  24  45  64  93 129 168 224 264 318 389
#
# _framework density 19.615770000000001
#
# number of rings (size 3 to 8) (size 9 to 14) (size 15 to 20)
#    0.000    1.280    6.400    1.440    2.240    5.120 
#    2.880    0.000    0.000    0.000    0.000    0.000 
#    0.000    0.000    0.000    0.000    0.000    0.000 
#
# Total GULP energy -619868.454353 kJ/mol
# GULP energy per Si atom -12397.369087 kJ/mol
# Density = 1.957112 g / cm^3
# Si number density = 19.615770 Si / 1000 Ang^3
#
#
#
# Elastic Constant Matrix: (Units=GPa)
#
#
# Indices 1 2 3 4 5 6 
#
# 1 120.9562 63.6999 51.8411 0.0000 0.0000 0.0000
# 2 63.6999 150.1225 50.1227 0.0000 0.0000 0.0000
# 3 51.8411 50.1227 54.5237 0.0000 0.0000 0.0000
# 4 0.0000 0.0000 0.0000 19.3458 0.0000 0.0000
# 5 0.0000 0.0000 0.0000 0.0000 23.5880 0.0000
# 6 0.0000 0.0000 0.0000 0.0000 0.0000 34.8351
#
#
#
# Elastic Compliance Matrix: (Units=1/GPa)
#
#
# Indices 1 2 3 4 5 6 
#
# 1 0.014453 -0.002229 -0.011693 0.000000 0.000000 0.000000
# 2 -0.002229 0.009955 -0.007032 0.000000 0.000000 0.000000
# 3 -0.011693 -0.007032 0.035923 0.000000 0.000000 0.000000
# 4 0.000000 0.000000 0.000000 0.051691 0.000000 0.000000
# 5 0.000000 0.000000 0.000000 0.000000 0.042394 0.000000
# 6 0.000000 0.000000 0.000000 0.000000 0.000000 0.028707
#
#
# Mechanical properties :
#
#
# Convention : Reuss Voigt Hill
#
# Bulk Modulus (GPa) = 54.28055 72.99219 63.63637
# Shear Modulus (GPa) = 21.62904 26.21638 23.92271
#
# Velocity S-wave (km/s) = 3.32420 3.65978 3.49602
# Velocity P-wave (km/s) = 6.51657 7.42633 6.98627
#
# Compressibility (1/GPa) = 0.01842280
#
# Stress axis : x y z
#
# Youngs Moduli (GPa) = 69.19187 100.45410 27.83729
#
# Poissons Ratio (x) = 0.22386 0.32550
# Poissons Ratio (y) = 0.15419 0.19576
# Poissons Ratio (z) = 0.80905 0.70644
#
# Static dielectric constant tensor:
#      x y z
#    x 3.622930 0.000000 0.000000 
#    y 0.000000 4.005770 0.000000 
#    z 0.000000 0.000000 3.474010 
# 
# 
# High freq. dielectric constant tensor:
#      x y z
#    x 1.764140 0.000000 0.000000 
#    y 0.000000 1.784260 0.000000 
#    z 0.000000 0.000000 1.752640 
# 
# From -- ./inp_files/7417.got.cif
#   From: 2010.03.12/outbox.cif.g09.slc.cpg/sg68_4_cif.got.tgz:7417.got - 2010.04.10 23:14:56.
