data_PCOD8282414
_publ_section_title
;
Structure prediction by ZEFSAII (Michael W. Deem and Ramdas Pophale) SiO2 
 PCOD8282414
Probable space group: C C C A
;
_chemical_formula_sum "Si O2"
_cell_formula_units_Z 64
_cell_length_a 16.651532
_cell_length_b 17.064176
_cell_length_c 9.729458
_cell_angle_alpha 90.000000
_cell_angle_beta 90.000000
_cell_angle_gamma 90.000000
_cell_volume 2764.573659
_symmetry_space_group_name_H-M "C C C A"
_symmetry_group_IT_number 68
_space_group.IT_coordinate_system_code '2'
_symmetry_cell_setting 'orthorhombic'
loop_
_space_group_symop_operation_xyz
x,y,z
-x,1/2-y,z
x,1/2-y,1/2-z
-x,y,1/2-z
-x,-y,-z
x,1/2+y,-z
-x,1/2+y,1/2+z
x,-y,1/2+z
1/2+x,1/2+y,z
1/2-x,-y,z
1/2+x,-y,1/2-z
1/2-x,1/2+y,1/2-z
1/2-x,1/2-y,-z
1/2+x,y,-z
1/2-x,y,1/2+z
1/2+x,1/2-y,1/2+z
loop_
_atom_site_type_symbol
_atom_site_label
_atom_site_fract_x
_atom_site_fract_y
_atom_site_fract_z
Si Si1 0.312091 0.813952 0.634291
Si Si2 0.660562 0.472146 0.270406
Si Si3 0.130539 0.785471 0.603172
Si Si4 0.574419 0.553832 0.042904
O O1 0.320952 0.750000 0.750000
O O2 0.353522 0.891799 0.688949
O O3 0.217844 0.827930 0.603238
O O4 0.362589 0.787799 0.500704
O O5 0.750000 0.500000 0.254721
O O6 0.642671 0.464716 0.431056
O O7 0.601061 0.533033 0.197466
O O8 0.105272 0.750000 0.750000
O O9 0.064865 0.850646 0.551615
O O10 0.500000 0.500000 0.000000
#
# Coordination Sequence:
#
# PCOD8282414 Si02
#       4
#    16  16  16  16
#     4  10  20  40  69 105 137 177 245 306 352 418
#     4  12  25  43  74 105 140 193 253 302 359 429
#     4  10  22  39  72 105 141 183 243 306 363 427
#     4  12  27  46  69 106 153 194 236 305 380 445
#
# _framework density 23.150044999999999
#
# number of rings (size 3 to 8) (size 9 to 14) (size 15 to 20)
#    0.000    1.000    5.000    1.500    3.500    0.000 
#    0.000    1.250    0.000    0.000    0.000    0.000 
#    0.000    0.000    0.000    0.000    0.000    0.000 
#
# Total GULP energy -396728.398291 kJ/mol
# GULP energy per Si atom -12397.762447 kJ/mol
# Density = 2.309735 g / cm^3
# Si number density = 23.150045 Si / 1000 Ang^3
#
#
#
# Elastic Constant Matrix: (Units=GPa)
#
#
# Indices 1 2 3 4 5 6 
#
# 1 65.7610 36.0792 16.1859 0.0000 0.0000 0.0000
# 2 36.0792 120.8190 35.5639 0.0000 0.0000 0.0000
# 3 16.1859 35.5639 131.6194 0.0000 0.0000 0.0000
# 4 0.0000 0.0000 0.0000 43.7744 0.0000 0.0000
# 5 0.0000 0.0000 0.0000 0.0000 15.3935 0.0000
# 6 0.0000 0.0000 0.0000 0.0000 0.0000 27.4471
#
#
#
# Elastic Compliance Matrix: (Units=1/GPa)
#
#
# Indices 1 2 3 4 5 6 
#
# 1 0.018271 -0.005209 -0.000839 0.000000 0.000000 0.000000
# 2 -0.005209 0.010477 -0.002190 0.000000 0.000000 0.000000
# 3 -0.000839 -0.002190 0.008293 0.000000 0.000000 0.000000
# 4 0.000000 0.000000 0.000000 0.022844 0.000000 0.000000
# 5 0.000000 0.000000 0.000000 0.000000 0.064962 0.000000
# 6 0.000000 0.000000 0.000000 0.000000 0.000000 0.036434
#
#
# Mechanical properties :
#
#
# Convention : Reuss Voigt Hill
#
# Bulk Modulus (GPa) = 48.63027 54.87304 51.75165
# Shear Modulus (GPa) = 27.08359 32.68102 29.88230
#
# Velocity S-wave (km/s) = 3.42411 3.76134 3.59668
# Velocity P-wave (km/s) = 6.05681 6.52827 6.29695
#
# Compressibility (1/GPa) = 0.02056333
#
# Stress axis : x y z
#
# Youngs Moduli (GPa) = 54.73122 95.44585 120.58760
#
# Poissons Ratio (x) = 0.49719 0.10122
# Poissons Ratio (y) = 0.28510 0.26413
# Poissons Ratio (z) = 0.04594 0.20906
#
# Static dielectric constant tensor:
#      x y z
#    x 2.964450 0.000000 0.000000 
#    y 0.000000 3.303280 0.000000 
#    z 0.000000 0.000000 4.394680 
# 
# 
# High freq. dielectric constant tensor:
#      x y z
#    x 1.875950 0.000000 0.000000 
#    y 0.000000 1.927530 0.000000 
#    z 0.000000 0.000000 1.934210 
# 
# From -- ./inp_files/6770.got.cif
#   From: 2010.03.12/outbox.cif.g09.slc.cpg/sg68_4_cif.got.tgz:6770.got - 2010.04.10 23:14:56.
