data_PCOD8282536
_publ_section_title
;
Structure prediction by ZEFSAII (Michael W. Deem and Ramdas Pophale) SiO2 
 PCOD8282536
Probable space group: C C C A
;
_chemical_formula_sum "Si O2"
_cell_formula_units_Z 88
_cell_length_a 18.227260
_cell_length_b 11.622019
_cell_length_c 19.468430
_cell_angle_alpha 90.000000
_cell_angle_beta 90.000000
_cell_angle_gamma 90.000000
_cell_volume 4124.144748
_symmetry_space_group_name_H-M "C C C A"
_symmetry_group_IT_number 68
_space_group.IT_coordinate_system_code '2'
_symmetry_cell_setting 'orthorhombic'
loop_
_space_group_symop_operation_xyz
x,y,z
-x,1/2-y,z
x,1/2-y,1/2-z
-x,y,1/2-z
-x,-y,-z
x,1/2+y,-z
-x,1/2+y,1/2+z
x,-y,1/2+z
1/2+x,1/2+y,z
1/2-x,-y,z
1/2+x,-y,1/2-z
1/2-x,1/2+y,1/2-z
1/2-x,1/2-y,-z
1/2+x,y,-z
1/2-x,y,1/2+z
1/2+x,1/2-y,1/2+z
loop_
_atom_site_type_symbol
_atom_site_label
_atom_site_fract_x
_atom_site_fract_y
_atom_site_fract_z
Si Si1 0.242529 0.198660 0.891722
Si Si2 0.919790 0.536723 0.738084
Si Si3 0.808356 0.902107 0.486812
Si Si4 0.935007 0.399549 0.608430
Si Si5 0.091000 0.859443 0.357731
Si Si6 0.685497 0.250000 0.750000
O O1 0.219984 0.303105 0.938252
O O2 0.171603 0.112599 0.888630
O O3 0.264002 0.246100 0.817206
O O4 0.307979 0.132268 0.932102
O O5 0.909435 0.500291 0.659370
O O6 0.912423 0.421672 0.784174
O O7 0.861159 0.634136 0.754449
O O8 0.000000 0.591247 0.750000
O O9 0.892528 0.925191 0.463257
O O10 0.750000 0.000000 0.471950
O O11 0.915497 0.279123 0.646390
O O12 0.023208 0.405180 0.595081
#
# Coordination Sequence:
#
# PCOD8282536 Si02
#       6
#    16  16  16  16  16   8
#     4  10  24  39  59  93 125 160 209 256 310 374
#     4  10  21  37  62  90 124 160 204 263 311 373
#     4  10  21  40  62  86 128 161 204 260 313 380
#     4   9  18  37  65  90 121 159 204 259 319 366
#     4   9  19  36  61  93 122 152 209 267 307 363
#     4  12  25  38  60  89 126 172 206 246 326 381
#
# _framework density 21.337758999999998
#
# number of rings (size 3 to 8) (size 9 to 14) (size 15 to 20)
#    0.000    2.182    0.000    1.909    7.636    2.182 
#    0.000    0.909   24.000    0.000    0.000    0.000 
#    0.000    0.000    0.000    0.000    0.000    0.000 
#
# Total GULP energy -545128.031884 kJ/mol
# GULP energy per Si atom -12389.273452 kJ/mol
# Density = 2.128919 g / cm^3
# Si number density = 21.337759 Si / 1000 Ang^3
#
#
#
# Elastic Constant Matrix: (Units=GPa)
#
#
# Indices 1 2 3 4 5 6 
#
# 1 127.6072 18.8764 70.2621 0.0000 0.0000 0.0000
# 2 18.8764 37.7474 12.2869 0.0000 0.0000 0.0000
# 3 70.2621 12.2869 126.4814 0.0000 0.0000 0.0000
# 4 0.0000 0.0000 0.0000 26.3176 0.0000 0.0000
# 5 0.0000 0.0000 0.0000 0.0000 33.3442 0.0000
# 6 0.0000 0.0000 0.0000 0.0000 0.0000 28.7793
#
#
#
# Elastic Compliance Matrix: (Units=1/GPa)
#
#
# Indices 1 2 3 4 5 6 
#
# 1 0.011820 -0.003897 -0.006188 0.000000 0.000000 0.000000
# 2 -0.003897 0.028642 -0.000618 0.000000 0.000000 0.000000
# 3 -0.006188 -0.000618 0.011404 0.000000 0.000000 0.000000
# 4 0.000000 0.000000 0.000000 0.037997 0.000000 0.000000
# 5 0.000000 0.000000 0.000000 0.000000 0.029990 0.000000
# 6 0.000000 0.000000 0.000000 0.000000 0.000000 0.034747
#
#
# Mechanical properties :
#
#
# Convention : Reuss Voigt Hill
#
# Bulk Modulus (GPa) = 32.82874 54.96521 43.89697
# Shear Modulus (GPa) = 26.85897 30.38226 28.62061
#
# Velocity S-wave (km/s) = 3.55174 3.77752 3.66637
# Velocity P-wave (km/s) = 5.67789 6.69640 6.20807
#
# Compressibility (1/GPa) = 0.03046112
#
# Stress axis : x y z
#
# Youngs Moduli (GPa) = 84.60273 34.91429 87.69158
#
# Poissons Ratio (x) = 0.13605 0.54260
# Poissons Ratio (y) = 0.32967 0.05416
# Poissons Ratio (z) = 0.52349 0.02157
#
# Static dielectric constant tensor:
#      x y z
#    x 4.571260 0.000000 0.000000 
#    y 0.000000 3.957730 0.000000 
#    z 0.000000 0.000000 4.066870 
# 
# 
# High freq. dielectric constant tensor:
#      x y z
#    x 1.846040 0.000000 0.000000 
#    y 0.000000 1.830900 0.000000 
#    z 0.000000 0.000000 1.822620 
# 
# From -- ./inp_files/32797.got.cif
#   From: 2010.03.12/outbox.cif.g09.slc.cpg/sg68_17_cif.got.tgz:32797.got - 2010.04.10 23:14:56.
