data_PCOD8282348
_publ_section_title
;
Structure prediction by ZEFSAII (Michael W. Deem and Ramdas Pophale) SiO2 
 PCOD8282348
Probable space group: C C C A
;
_chemical_formula_sum "Si O2"
_cell_formula_units_Z 80
_cell_length_a 25.982229
_cell_length_b 12.900915
_cell_length_c 13.056834
_cell_angle_alpha 90.000000
_cell_angle_beta 90.000000
_cell_angle_gamma 90.000000
_cell_volume 4376.579308
_symmetry_space_group_name_H-M "C C C A"
_symmetry_group_IT_number 68
_space_group.IT_coordinate_system_code '2'
_symmetry_cell_setting 'orthorhombic'
loop_
_space_group_symop_operation_xyz
x,y,z
-x,1/2-y,z
x,1/2-y,1/2-z
-x,y,1/2-z
-x,-y,-z
x,1/2+y,-z
-x,1/2+y,1/2+z
x,-y,1/2+z
1/2+x,1/2+y,z
1/2-x,-y,z
1/2+x,-y,1/2-z
1/2-x,1/2+y,1/2-z
1/2-x,1/2-y,-z
1/2+x,y,-z
1/2-x,y,1/2+z
1/2+x,1/2-y,1/2+z
loop_
_atom_site_type_symbol
_atom_site_label
_atom_site_fract_x
_atom_site_fract_y
_atom_site_fract_z
Si Si1 0.641316 0.966112 0.867776
Si Si2 0.444764 0.368277 0.230401
Si Si3 0.806682 0.964657 0.676738
Si Si4 0.126088 0.389559 0.546895
Si Si5 0.193607 0.302148 0.004894
O O1 0.597004 0.903367 0.812192
O O2 0.684627 0.888441 0.915835
O O3 0.667261 0.046080 0.788003
O O4 0.613519 0.035049 0.953121
O O5 0.453990 0.250000 0.250000
O O6 0.500000 0.425456 0.250000
O O7 0.426039 0.382147 0.113193
O O8 0.811971 0.856955 0.615559
O O9 0.750000 0.000000 0.698087
O O10 0.829764 0.061463 0.616153
O O11 0.147570 0.280210 0.505976
O O12 0.250000 0.250000 0.000000
#
# Coordination Sequence:
#
# PCOD8282348 Si02
#       5
#    16  16  16  16  16
#     4  10  23  37  56  84 117 147 196 239 283 357
#     4  10  20  39  64  85 108 147 195 244 295 347
#     4  10  21  34  52  82 114 157 197 226 279 348
#     4  10  21  38  56  84 116 146 191 242 285 345
#     4  11  21  36  55  79 119 159 190 238 288 335
#
# _framework density 18.279115000000001
#
# number of rings (size 3 to 8) (size 9 to 14) (size 15 to 20)
#    0.000    1.800    4.000    0.000    2.800    1.600 
#    0.000    0.000    0.000    0.000    0.000    1.400 
#    0.000    0.000    0.000    0.000    0.000    0.000 
#
# Total GULP energy -495788.382064 kJ/mol
# GULP energy per Si atom -12394.709552 kJ/mol
# Density = 1.823751 g / cm^3
# Si number density = 18.279115 Si / 1000 Ang^3
#
#
#
# Elastic Constant Matrix: (Units=GPa)
#
#
# Indices 1 2 3 4 5 6 
#
# 1 123.0532 35.7173 63.9830 0.0000 0.0000 0.0000
# 2 35.7173 84.6363 52.0075 0.0000 0.0000 0.0000
# 3 63.9830 52.0075 134.4205 0.0000 0.0000 0.0000
# 4 0.0000 0.0000 0.0000 28.6877 0.0000 0.0000
# 5 0.0000 0.0000 0.0000 0.0000 15.4642 0.0000
# 6 0.0000 0.0000 0.0000 0.0000 0.0000 -167.6942
#
#
#
# Elastic Compliance Matrix: (Units=1/GPa)
#
#
# Indices 1 2 3 4 5 6 
#
# 1 0.011021 -0.001873 -0.004521 0.000000 0.000000 0.000000
# 2 -0.001873 0.015819 -0.005229 0.000000 0.000000 0.000000
# 3 -0.004521 -0.005229 0.011615 0.000000 0.000000 0.000000
# 4 0.000000 0.000000 0.000000 0.034858 0.000000 0.000000
# 5 0.000000 0.000000 0.000000 0.000000 0.064665 0.000000
# 6 0.000000 0.000000 0.000000 0.000000 0.000000 -0.005963
#
#
# Mechanical properties :
#
#
# Convention : Reuss Voigt Hill
#
# Bulk Modulus (GPa) = 65.75336 71.72507 68.73921
# Shear Modulus (GPa) = 31.18571 -12.01498 9.58537
#
# Velocity S-wave (km/s) = 4.13496 -2.56658 2.29244
# Velocity P-wave (km/s) = 7.67119 5.52638 6.68536
#
# Compressibility (1/GPa) = 0.01520835
#
# Stress axis : x y z
#
# Youngs Moduli (GPa) = 90.73517 63.21670 86.09895
#
# Poissons Ratio (x) = 0.11838 0.38929
# Poissons Ratio (y) = 0.16992 0.45020
# Poissons Ratio (z) = 0.41025 0.33055
#
# Static dielectric constant tensor:
#      x y z
#    x 3.474000 0.000000 0.000000 
#    y 0.000000 3.331430 0.000000 
#    z 0.000000 0.000000 3.556890 
# 
# 
# High freq. dielectric constant tensor:
#      x y z
#    x 1.697600 0.000000 0.000000 
#    y 0.000000 1.704580 0.000000 
#    z 0.000000 0.000000 1.719100 
# 
# From -- ./inp_files/11933.got.cif
#   From: 2010.03.12/outbox.cif.g09.slc.cpg/sg68_6_cif.got.tgz:11933.got - 2010.04.10 23:14:56.
