data_PCOD8282350
_publ_section_title
;
Structure prediction by ZEFSAII (Michael W. Deem and Ramdas Pophale) SiO2 
 PCOD8282350
Probable space group: C C C A
;
_chemical_formula_sum "Si O2"
_cell_formula_units_Z 116
_cell_length_a 26.004828
_cell_length_b 12.157161
_cell_length_c 17.685561
_cell_angle_alpha 90.000000
_cell_angle_beta 90.000000
_cell_angle_gamma 90.000000
_cell_volume 5591.199574
_symmetry_space_group_name_H-M "C C C A"
_symmetry_group_IT_number 68
_space_group.IT_coordinate_system_code '2'
_symmetry_cell_setting 'orthorhombic'
loop_
_space_group_symop_operation_xyz
x,y,z
-x,1/2-y,z
x,1/2-y,1/2-z
-x,y,1/2-z
-x,-y,-z
x,1/2+y,-z
-x,1/2+y,1/2+z
x,-y,1/2+z
1/2+x,1/2+y,z
1/2-x,-y,z
1/2+x,-y,1/2-z
1/2-x,1/2+y,1/2-z
1/2-x,1/2-y,-z
1/2+x,y,-z
1/2-x,y,1/2+z
1/2+x,1/2-y,1/2+z
loop_
_atom_site_type_symbol
_atom_site_label
_atom_site_fract_x
_atom_site_fract_y
_atom_site_fract_z
Si Si1 0.555226 0.704051 0.017480
Si Si2 0.321999 0.047766 0.053938
Si Si3 0.500000 0.750000 0.250000
Si Si4 0.521041 0.359493 0.357830
Si Si5 0.924210 0.002945 0.380097
Si Si6 0.573702 0.067501 0.712061
Si Si7 0.728129 0.677454 0.067315
Si Si8 0.354084 0.661394 0.091791
O O1 0.500000 0.750000 0.043000
O O2 0.565637 0.588032 0.054342
O O3 0.599550 0.786632 0.043575
O O4 0.556305 0.681700 0.927257
O O5 0.372934 0.065483 0.102905
O O6 0.279008 0.118160 0.101533
O O7 0.309050 0.920338 0.041673
O O8 0.326286 0.081746 0.966670
O O9 0.466186 0.831523 0.303559
O O10 0.500000 0.250000 0.313822
O O11 0.470810 0.420051 0.387693
O O12 0.551735 0.445615 0.305393
O O13 0.915935 0.067453 0.301271
O O14 0.624841 0.094069 0.664261
O O15 0.690447 0.752466 0.120138
O O16 0.750000 0.750000 0.000000
#
# Coordination Sequence:
#
# PCOD8282350 Si02
#       8
#    16  16   4  16  16  16  16  16
#     4  11  22  36  61  93 127 161 213 263 308 365
#     4  10  20  39  64  92 121 153 216 261 329 383
#     4  12  24  44  54  92 128 184 208 248 296 380
#     4  11  24  42  60  91 130 175 215 260 305 377
#     4  12  22  39  60  92 128 173 205 258 316 382
#     4  12  26  39  63  91 135 173 217 251 314 395
#     4   9  20  38  65  93 116 155 202 272 329 378
#     4  11  22  39  64  96 120 163 209 274 321 379
#
# _framework density 20.74689
#
# number of rings (size 3 to 8) (size 9 to 14) (size 15 to 20)
#    0.000    1.103    2.759    4.552    1.931    1.103 
#    0.000    0.000    0.000    8.276    0.000    0.000 
#    0.000    0.000    0.000    0.000    0.000    0.000 
#
# Total GULP energy -718541.593401 kJ/mol
# GULP energy per Si atom -12388.648162 kJ/mol
# Density = 2.069967 g / cm^3
# Si number density = 20.746890 Si / 1000 Ang^3
#
#
#
# Elastic Constant Matrix: (Units=GPa)
#
#
# Indices 1 2 3 4 5 6 
#
# 1 80.9909 11.4557 7.9049 0.0000 0.0000 0.0000
# 2 11.4557 99.8866 8.9695 0.0000 0.0000 0.0000
# 3 7.9049 8.9695 61.7569 0.0000 0.0000 0.0000
# 4 0.0000 0.0000 0.0000 24.2657 0.0000 0.0000
# 5 0.0000 0.0000 0.0000 0.0000 16.1725 0.0000
# 6 0.0000 0.0000 0.0000 0.0000 0.0000 35.1817
#
#
#
# Elastic Compliance Matrix: (Units=1/GPa)
#
#
# Indices 1 2 3 4 5 6 
#
# 1 0.012674 -0.001325 -0.001430 0.000000 0.000000 0.000000
# 2 -0.001325 0.010282 -0.001324 0.000000 0.000000 0.000000
# 3 -0.001430 -0.001324 0.016568 0.000000 0.000000 0.000000
# 4 0.000000 0.000000 0.000000 0.041210 0.000000 0.000000
# 5 0.000000 0.000000 0.000000 0.000000 0.061833 0.000000
# 6 0.000000 0.000000 0.000000 0.000000 0.000000 0.028424
#
#
# Mechanical properties :
#
#
# Convention : Reuss Voigt Hill
#
# Bulk Modulus (GPa) = 31.88103 33.25494 32.56798
# Shear Modulus (GPa) = 26.37066 29.41093 27.89080
#
# Velocity S-wave (km/s) = 3.56907 3.76920 3.67050
# Velocity P-wave (km/s) = 5.69073 5.91660 5.80476
#
# Compressibility (1/GPa) = 0.03136661
#
# Stress axis : x y z
#
# Youngs Moduli (GPa) = 78.90133 97.25544 60.35802
#
# Poissons Ratio (x) = 0.12888 0.08630
# Poissons Ratio (y) = 0.10456 0.07990
# Poissons Ratio (z) = 0.11281 0.12874
#
# Static dielectric constant tensor:
#      x y z
#    x 3.635680 0.000000 0.000000 
#    y 0.000000 4.516970 0.000000 
#    z 0.000000 0.000000 3.402570 
# 
# 
# High freq. dielectric constant tensor:
#      x y z
#    x 1.816180 0.000000 0.000000 
#    y 0.000000 1.837020 0.000000 
#    z 0.000000 0.000000 1.774980 
# 
# From -- ./inp_files/34184.got.cif
#   From: 2010.03.12/outbox.cif.g09.slc.cpg/sg68_18_cif.got.tgz:34184.got - 2010.04.10 23:14:56.
