data_PCOD8282737
_publ_section_title
;
Structure prediction by ZEFSAII (Michael W. Deem and Ramdas Pophale) SiO2 
 PCOD8282737
Probable space group: C C C A
;
_chemical_formula_sum "Si O2"
_cell_formula_units_Z 68
_cell_length_a 28.300002
_cell_length_b 9.739689
_cell_length_c 12.319837
_cell_angle_alpha 90.000000
_cell_angle_beta 90.000000
_cell_angle_gamma 90.000000
_cell_volume 3395.756320
_symmetry_space_group_name_H-M "C C C A"
_symmetry_group_IT_number 68
_space_group.IT_coordinate_system_code '2'
_symmetry_cell_setting 'orthorhombic'
loop_
_space_group_symop_operation_xyz
x,y,z
-x,1/2-y,z
x,1/2-y,1/2-z
-x,y,1/2-z
-x,-y,-z
x,1/2+y,-z
-x,1/2+y,1/2+z
x,-y,1/2+z
1/2+x,1/2+y,z
1/2-x,-y,z
1/2+x,-y,1/2-z
1/2-x,1/2+y,1/2-z
1/2-x,1/2-y,-z
1/2+x,y,-z
1/2-x,y,1/2+z
1/2+x,1/2-y,1/2+z
loop_
_atom_site_type_symbol
_atom_site_label
_atom_site_fract_x
_atom_site_fract_y
_atom_site_fract_z
Si Si1 0.500000 0.750000 0.750000
Si Si2 0.159433 0.750000 0.750000
Si Si3 0.836660 0.250000 0.750000
Si Si4 0.918776 0.658110 0.105051
Si Si5 0.197409 0.007959 0.883647
Si Si6 0.883516 0.890113 0.956501
O O1 0.533914 0.840958 0.824347
O O2 0.187960 0.635763 0.679732
O O3 0.128675 0.667241 0.837654
O O4 0.870433 0.161259 0.826843
O O5 0.802770 0.361453 0.804255
O O6 0.921240 0.511619 0.048732
O O7 0.914573 0.779749 0.019657
O O8 0.250000 0.000000 0.933874
O O9 0.161661 0.045079 0.980898
#
# Coordination Sequence:
#
# PCOD8282737 Si02
#       6
#     4   8   8  16  16  16
#     4  10  24  40  74  96 120 168 204 276 328 408
#     4  12  23  40  65  93 125 185 214 264 324 369
#     4   9  19  39  60  86 127 173 204 267 320 380
#     4  10  21  42  65  93 127 161 216 256 340 381
#     4  11  23  38  61  94 130 174 226 265 309 375
#     4  11  23  41  64  91 133 173 210 270 319 392
#
# _framework density 20.024992999999998
#
# number of rings (size 3 to 8) (size 9 to 14) (size 15 to 20)
#    0.000    1.412    4.706    0.706    0.000    2.824 
#    0.000    0.000    0.000    1.412    0.000    0.000 
#    0.000    0.000    0.000    0.000    0.000    0.000 
#
# Total GULP energy -421263.677808 kJ/mol
# GULP energy per Si atom -12390.108171 kJ/mol
# Density = 1.997942 g / cm^3
# Si number density = 20.024993 Si / 1000 Ang^3
#
#
#
# Elastic Constant Matrix: (Units=GPa)
#
#
# Indices 1 2 3 4 5 6 
#
# 1 95.4887 75.5866 40.1298 0.0000 0.0000 0.0000
# 2 75.5866 147.4260 71.7681 0.0000 0.0000 0.0000
# 3 40.1298 71.7681 111.9408 0.0000 0.0000 0.0000
# 4 0.0000 0.0000 0.0000 31.8561 0.0000 0.0000
# 5 0.0000 0.0000 0.0000 0.0000 2.1523 0.0000
# 6 0.0000 0.0000 0.0000 0.0000 0.0000 476.8826
#
#
#
# Elastic Compliance Matrix: (Units=1/GPa)
#
#
# Indices 1 2 3 4 5 6 
#
# 1 0.017671 -0.008688 -0.000765 0.000000 0.000000 0.000000
# 2 -0.008688 0.014132 -0.005946 0.000000 0.000000 0.000000
# 3 -0.000765 -0.005946 0.013020 0.000000 0.000000 0.000000
# 4 0.000000 0.000000 0.000000 0.031391 0.000000 0.000000
# 5 0.000000 0.000000 0.000000 0.000000 0.464625 0.000000
# 6 0.000000 0.000000 0.000000 0.000000 0.000000 0.002097
#
#
# Mechanical properties :
#
#
# Convention : Reuss Voigt Hill
#
# Bulk Modulus (GPa) = 71.29954 81.09162 76.19558
# Shear Modulus (GPa) = 8.64443 113.33627 60.99035
#
# Velocity S-wave (km/s) = 2.07995 7.53129 5.52478
# Velocity P-wave (km/s) = 6.43823 10.78008 8.87865
#
# Compressibility (1/GPa) = 0.01402534
#
# Stress axis : x y z
#
# Youngs Moduli (GPa) = 56.59051 70.76289 76.80765
#
# Poissons Ratio (x) = 0.61476 0.05876
# Poissons Ratio (y) = 0.49163 0.45668
# Poissons Ratio (z) = 0.04329 0.42074
#
# Static dielectric constant tensor:
#      x y z
#    x 3.331820 0.000000 0.000000 
#    y 0.000000 3.890120 0.000000 
#    z 0.000000 0.000000 3.783380 
# 
# 
# High freq. dielectric constant tensor:
#      x y z
#    x 1.757140 0.000000 0.000000 
#    y 0.000000 1.804720 0.000000 
#    z 0.000000 0.000000 1.787190 
# 
# From -- ./inp_files/11874.got.cif
#   From: 2010.03.12/outbox.cif.g09.slc.cpg/sg68_6_cif.got.tgz:11874.got - 2010.04.10 23:14:56.
