data_PCOD8282816
_publ_section_title
;
Structure prediction by ZEFSAII (Michael W. Deem and Ramdas Pophale) SiO2 
 PCOD8282816
Probable space group: C C C A
;
_chemical_formula_sum "Si O2"
_cell_formula_units_Z 116
_cell_length_a 24.228291
_cell_length_b 12.836667
_cell_length_c 18.209686
_cell_angle_alpha 90.000000
_cell_angle_beta 90.000000
_cell_angle_gamma 90.000000
_cell_volume 5663.403612
_symmetry_space_group_name_H-M "C C C A"
_symmetry_group_IT_number 68
_space_group.IT_coordinate_system_code '2'
_symmetry_cell_setting 'orthorhombic'
loop_
_space_group_symop_operation_xyz
x,y,z
-x,1/2-y,z
x,1/2-y,1/2-z
-x,y,1/2-z
-x,-y,-z
x,1/2+y,-z
-x,1/2+y,1/2+z
x,-y,1/2+z
1/2+x,1/2+y,z
1/2-x,-y,z
1/2+x,-y,1/2-z
1/2-x,1/2+y,1/2-z
1/2-x,1/2-y,-z
1/2+x,y,-z
1/2-x,y,1/2+z
1/2+x,1/2-y,1/2+z
loop_
_atom_site_type_symbol
_atom_site_label
_atom_site_fract_x
_atom_site_fract_y
_atom_site_fract_z
Si Si1 0.791886 0.184886 0.177149
Si Si2 0.369262 0.000080 0.313837
Si Si3 0.638832 0.235553 0.958058
Si Si4 0.091370 0.883194 0.174937
Si Si5 0.330477 0.706213 0.621087
Si Si6 0.500000 0.750000 0.750000
Si Si7 0.935450 0.450976 0.057523
Si Si8 0.945189 0.592256 0.926336
O O1 0.806461 0.250000 0.250000
O O2 0.820219 0.231406 0.105402
O O3 0.727539 0.188313 0.160400
O O4 0.812579 0.066442 0.189572
O O5 0.387178 0.032815 0.233052
O O6 0.364072 0.100167 0.366337
O O7 0.417511 0.927455 0.347161
O O8 0.617378 0.122225 0.935652
O O9 0.586651 0.313212 0.966633
O O10 0.672770 0.230322 0.034361
O O11 0.140351 0.801830 0.161808
O O12 0.036836 0.823086 0.199246
O O13 0.074615 0.944405 0.102687
O O14 0.989547 0.385853 0.084164
O O15 0.941577 0.486082 0.973371
#
# Coordination Sequence:
#
# PCOD8282816 Si02
#       8
#    16  16  16  16  16   4  16  16
#     4  11  25  44  67  91 129 175 221 274 331 392
#     4  11  22  43  63  95 129 171 212 272 333 387
#     4  11  23  43  65  95 130 171 221 273 324 399
#     4  12  24  39  67  98 134 169 222 275 326 403
#     4  12  23  42  66  96 129 168 222 276 330 393
#     4  12  24  40  64 100 138 172 210 280 334 372
#     4  11  22  39  63  94 129 171 213 263 324 395
#     4  10  22  38  63  91 130 170 211 261 327 390
#
# _framework density 20.482384
#
# number of rings (size 3 to 8) (size 9 to 14) (size 15 to 20)
#    0.000    0.828    4.138    3.724    0.000    0.000 
#    0.000    2.069    0.000    2.483    0.000    0.000 
#    0.000    0.000    0.000    0.000    0.000    0.000 
#
# Total GULP energy -719365.697200 kJ/mol
# GULP energy per Si atom -12402.856848 kJ/mol
# Density = 2.043576 g / cm^3
# Si number density = 20.482384 Si / 1000 Ang^3
#
#
#
# Elastic Constant Matrix: (Units=GPa)
#
#
# Indices 1 2 3 4 5 6 
#
# 1 92.7528 17.8656 26.9737 0.0000 0.0000 0.0000
# 2 17.8656 70.6731 26.6712 0.0000 0.0000 0.0000
# 3 26.9737 26.6712 104.1316 0.0000 0.0000 0.0000
# 4 0.0000 0.0000 0.0000 37.9039 0.0000 0.0000
# 5 0.0000 0.0000 0.0000 0.0000 24.0649 0.0000
# 6 0.0000 0.0000 0.0000 0.0000 0.0000 44.0917
#
#
#
# Elastic Compliance Matrix: (Units=1/GPa)
#
#
# Indices 1 2 3 4 5 6 
#
# 1 0.011921 -0.002046 -0.002564 0.000000 0.000000 0.000000
# 2 -0.002046 0.016015 -0.003572 0.000000 0.000000 0.000000
# 3 -0.002564 -0.003572 0.011182 0.000000 0.000000 0.000000
# 4 0.000000 0.000000 0.000000 0.026383 0.000000 0.000000
# 5 0.000000 0.000000 0.000000 0.000000 0.041554 0.000000
# 6 0.000000 0.000000 0.000000 0.000000 0.000000 0.022680
#
#
# Mechanical properties :
#
#
# Convention : Reuss Voigt Hill
#
# Bulk Modulus (GPa) = 43.94723 45.61984 44.78353
# Shear Modulus (GPa) = 32.53440 34.28189 33.40815
#
# Velocity S-wave (km/s) = 3.98981 4.09556 4.04303
# Velocity P-wave (km/s) = 6.53662 6.68475 6.61110
#
# Compressibility (1/GPa) = 0.02275456
#
# Stress axis : x y z
#
# Youngs Moduli (GPa) = 83.88526 62.44206 89.42744
#
# Poissons Ratio (x) = 0.12775 0.22929
# Poissons Ratio (y) = 0.17162 0.31943
# Poissons Ratio (z) = 0.21508 0.22304
#
# Static dielectric constant tensor:
#      x y z
#    x 3.696250 0.000000 0.000000 
#    y 0.000000 3.738710 0.000000 
#    z 0.000000 0.000000 3.574810 
# 
# 
# High freq. dielectric constant tensor:
#      x y z
#    x 1.802470 0.000000 0.000000 
#    y 0.000000 1.806800 0.000000 
#    z 0.000000 0.000000 1.806530 
# 
# From -- ./inp_files/34173.got.cif
#   From: 2010.03.12/outbox.cif.g09.slc.cpg/sg68_18_cif.got.tgz:34173.got - 2010.04.10 23:14:56.
