data_PCOD8282292
_publ_section_title
;
Structure prediction by ZEFSAII (Michael W. Deem and Ramdas Pophale) SiO2 
 PCOD8282292
Probable space group: C C C A
;
_chemical_formula_sum "Si O2"
_cell_formula_units_Z 64
_cell_length_a 17.945157
_cell_length_b 9.522285
_cell_length_c 16.711864
_cell_angle_alpha 90.000000
_cell_angle_beta 90.000000
_cell_angle_gamma 90.000000
_cell_volume 2855.704926
_symmetry_space_group_name_H-M "C C C A"
_symmetry_group_IT_number 68
_space_group.IT_coordinate_system_code '2'
_symmetry_cell_setting 'orthorhombic'
loop_
_space_group_symop_operation_xyz
x,y,z
-x,1/2-y,z
x,1/2-y,1/2-z
-x,y,1/2-z
-x,-y,-z
x,1/2+y,-z
-x,1/2+y,1/2+z
x,-y,1/2+z
1/2+x,1/2+y,z
1/2-x,-y,z
1/2+x,-y,1/2-z
1/2-x,1/2+y,1/2-z
1/2-x,1/2-y,-z
1/2+x,y,-z
1/2-x,y,1/2+z
1/2+x,1/2-y,1/2+z
loop_
_atom_site_type_symbol
_atom_site_label
_atom_site_fract_x
_atom_site_fract_y
_atom_site_fract_z
Si Si1 0.492710 0.914348 0.418346
Si Si2 0.145045 0.118279 0.306965
Si Si3 0.251033 0.283197 0.907888
Si Si4 0.859090 0.483346 0.651627
O O1 0.500000 0.750000 0.437656
O O2 0.414868 0.931570 0.372467
O O3 0.500000 0.000000 0.500000
O O4 0.554589 0.981767 0.360621
O O5 0.118450 0.250000 0.250000
O O6 0.221619 0.152021 0.354226
O O7 0.159541 0.990004 0.246266
O O8 0.168168 0.330549 0.879242
O O9 0.311933 0.404186 0.898056
O O10 0.250000 0.250000 0.000000
#
# Coordination Sequence:
#
# PCOD8282292 Si02
#       4
#    16  16  16  16
#     4  12  23  40  69 100 131 175 231 285 344 404
#     4  10  20  40  69  92 130 181 228 271 341 420
#     4  10  20  38  61  94 132 166 220 280 338 402
#     4  10  22  37  65  95 125 173 231 270 342 408
#
# _framework density 22.411279
#
# number of rings (size 3 to 8) (size 9 to 14) (size 15 to 20)
#    0.000    1.500    5.000    2.250    0.000    0.000 
#    0.000   27.500    0.000    1.500    0.000    0.000 
#    0.000    0.000    0.000    0.000    0.000    0.000 
#
# Total GULP energy -396590.840711 kJ/mol
# GULP energy per Si atom -12393.463772 kJ/mol
# Density = 2.236027 g / cm^3
# Si number density = 22.411279 Si / 1000 Ang^3
#
#
#
# Elastic Constant Matrix: (Units=GPa)
#
#
# Indices 1 2 3 4 5 6 
#
# 1 93.0023 47.8786 51.3871 0.0000 0.0000 0.0000
# 2 47.8786 70.2022 72.2364 0.0000 0.0000 0.0000
# 3 51.3871 72.2364 211.4688 0.0000 0.0000 0.0000
# 4 0.0000 0.0000 0.0000 34.1823 0.0000 0.0000
# 5 0.0000 0.0000 0.0000 0.0000 44.1988 0.0000
# 6 0.0000 0.0000 0.0000 0.0000 0.0000 37.4960
#
#
#
# Elastic Compliance Matrix: (Units=1/GPa)
#
#
# Indices 1 2 3 4 5 6 
#
# 1 0.016579 -0.011043 -0.000256 0.000000 0.000000 0.000000
# 2 -0.011043 0.029321 -0.007332 0.000000 0.000000 0.000000
# 3 -0.000256 -0.007332 0.007296 0.000000 0.000000 0.000000
# 4 0.000000 0.000000 0.000000 0.029255 0.000000 0.000000
# 5 0.000000 0.000000 0.000000 0.000000 0.022625 0.000000
# 6 0.000000 0.000000 0.000000 0.000000 0.000000 0.026670
#
#
# Mechanical properties :
#
#
# Convention : Reuss Voigt Hill
#
# Bulk Modulus (GPa) = 62.76720 79.74194 71.25457
# Shear Modulus (GPa) = 28.68273 36.72016 32.70144
#
# Velocity S-wave (km/s) = 3.58136 4.05219 3.82403
# Velocity P-wave (km/s) = 6.72081 7.58631 7.16664
#
# Compressibility (1/GPa) = 0.01593189
#
# Stress axis : x y z
#
# Youngs Moduli (GPa) = 60.31583 34.10511 137.06462
#
# Poissons Ratio (x) = 0.37664 0.03515
# Poissons Ratio (y) = 0.66609 1.00501
# Poissons Ratio (z) = 0.01547 0.25007
#
# Static dielectric constant tensor:
#      x y z
#    x 4.366630 0.000000 0.000000 
#    y 0.000000 4.165880 0.000000 
#    z 0.000000 0.000000 4.183580 
# 
# 
# High freq. dielectric constant tensor:
#      x y z
#    x 1.878690 0.000000 0.000000 
#    y 0.000000 1.857740 0.000000 
#    z 0.000000 0.000000 1.900700 
# 
# From -- ./inp_files/23137.got.cif
#   From: 2010.03.12/outbox.cif.g09.slc.cpg/sg68_12_cif.got.tgz:23137.got - 2010.04.10 23:14:56.
