data_PCOD8282102
_publ_section_title
;
Structure prediction by ZEFSAII (Michael W. Deem and Ramdas Pophale) SiO2 
 PCOD8282102
Probable space group: C C C A
;
_chemical_formula_sum "Si O2"
_cell_formula_units_Z 80
_cell_length_a 4.834406
_cell_length_b 22.842770
_cell_length_c 34.589407
_cell_angle_alpha 90.000000
_cell_angle_beta 90.000000
_cell_angle_gamma 90.000000
_cell_volume 3819.750564
_symmetry_space_group_name_H-M "C C C A"
_symmetry_group_IT_number 68
_space_group.IT_coordinate_system_code '2'
_symmetry_cell_setting 'orthorhombic'
loop_
_space_group_symop_operation_xyz
x,y,z
-x,1/2-y,z
x,1/2-y,1/2-z
-x,y,1/2-z
-x,-y,-z
x,1/2+y,-z
-x,1/2+y,1/2+z
x,-y,1/2+z
1/2+x,1/2+y,z
1/2-x,-y,z
1/2+x,-y,1/2-z
1/2-x,1/2+y,1/2-z
1/2-x,1/2-y,-z
1/2+x,y,-z
1/2-x,y,1/2+z
1/2+x,1/2-y,1/2+z
loop_
_atom_site_type_symbol
_atom_site_label
_atom_site_fract_x
_atom_site_fract_y
_atom_site_fract_z
Si Si1 0.873631 0.377125 0.604964
Si Si2 0.365732 0.687416 0.134433
Si Si3 0.564028 0.620792 0.293769
Si Si4 0.568523 0.057285 0.322809
Si Si5 0.251478 0.067640 0.025198
O O1 0.562223 0.362254 0.616837
O O2 0.983688 0.432308 0.631218
O O3 0.864824 0.393989 0.560335
O O4 0.073332 0.320779 0.612243
O O5 0.500000 0.750000 0.127043
O O6 0.317484 0.674740 0.180476
O O7 0.500000 0.638650 0.250000
O O8 0.257317 0.610424 0.309262
O O9 0.774156 0.564207 0.299615
O O10 0.750000 0.000000 0.313344
O O11 0.250000 0.000000 0.037698
O O12 0.441339 0.082441 0.987997
#
# Coordination Sequence:
#
# PCOD8282102 Si02
#       5
#    16  16  16  16  16
#     4  10  20  36  57  80 109 140 181 228 267 325
#     4  10  21  37  58  79 102 142 187 230 279 322
#     4  10  21  35  52  78 108 138 180 228 274 325
#     4  10  20  34  53  77 107 145 180 215 267 329
#     4  10  20  34  56  86 116 145 175 213 268 326
#
# _framework density 20.943776
#
# number of rings (size 3 to 8) (size 9 to 14) (size 15 to 20)
#    0.000    2.000    0.000    3.600    0.000    2.000 
#    0.000    6.000    0.000   19.200    0.000    0.000 
#    0.000    0.000    0.000    0.000    0.000    0.000 
#
# Total GULP energy -495549.556399 kJ/mol
# GULP energy per Si atom -12388.738910 kJ/mol
# Density = 2.089611 g / cm^3
# Si number density = 20.943776 Si / 1000 Ang^3
#
#
#
# Elastic Constant Matrix: (Units=GPa)
#
#
# Indices 1 2 3 4 5 6 
#
# 1 102.4070 10.5909 24.5309 0.0000 0.0000 0.0000
# 2 10.5909 51.1442 33.6039 0.0000 0.0000 0.0000
# 3 24.5309 33.6039 128.2966 0.0000 0.0000 0.0000
# 4 0.0000 0.0000 0.0000 9.7111 0.0000 0.0000
# 5 0.0000 0.0000 0.0000 0.0000 15.8787 0.0000
# 6 0.0000 0.0000 0.0000 0.0000 0.0000 33.1178
#
#
#
# Elastic Compliance Matrix: (Units=1/GPa)
#
#
# Indices 1 2 3 4 5 6 
#
# 1 0.010277 -0.001011 -0.001700 0.000000 0.000000 0.000000
# 2 -0.001011 0.023716 -0.006019 0.000000 0.000000 0.000000
# 3 -0.001700 -0.006019 0.009696 0.000000 0.000000 0.000000
# 4 0.000000 0.000000 0.000000 0.102974 0.000000 0.000000
# 5 0.000000 0.000000 0.000000 0.000000 0.062978 0.000000
# 6 0.000000 0.000000 0.000000 0.000000 0.000000 0.030195
#
#
# Mechanical properties :
#
#
# Convention : Reuss Voigt Hill
#
# Bulk Modulus (GPa) = 38.12487 46.58879 42.35683
# Shear Modulus (GPa) = 18.79423 25.94966 22.37194
#
# Velocity S-wave (km/s) = 2.99886 3.52378 3.27186
# Velocity P-wave (km/s) = 5.49853 6.23290 5.87720
#
# Compressibility (1/GPa) = 0.02622960
#
# Stress axis : x y z
#
# Youngs Moduli (GPa) = 97.30675 42.16491 103.13609
#
# Poissons Ratio (x) = 0.04263 0.17535
# Poissons Ratio (y) = 0.09838 0.62073
# Poissons Ratio (z) = 0.16544 0.25377
#
# Static dielectric constant tensor:
#      x y z
#    x 4.062850 0.000000 0.000000 
#    y 0.000000 3.330580 0.000000 
#    z 0.000000 0.000000 3.737860 
# 
# 
# High freq. dielectric constant tensor:
#      x y z
#    x 1.847700 0.000000 0.000000 
#    y 0.000000 1.775500 0.000000 
#    z 0.000000 0.000000 1.809490 
# 
# From -- ./inp_files/53162.got.cif
#   From: 2010.03.12/outbox.cif.g09.slc.cpg/sg68_27_cif.got.tgz:53162.got - 2010.04.10 23:14:56.
