data_PCOD8282796
_publ_section_title
;
Structure prediction by ZEFSAII (Michael W. Deem and Ramdas Pophale) SiO2 
 PCOD8282796
Probable space group: C C C A
;
_chemical_formula_sum "Si O2"
_cell_formula_units_Z 96
_cell_length_a 19.323664
_cell_length_b 17.043567
_cell_length_c 13.547269
_cell_angle_alpha 90.000000
_cell_angle_beta 90.000000
_cell_angle_gamma 90.000000
_cell_volume 4461.713957
_symmetry_space_group_name_H-M "C C C A"
_symmetry_group_IT_number 68
_space_group.IT_coordinate_system_code '2'
_symmetry_cell_setting 'orthorhombic'
loop_
_space_group_symop_operation_xyz
x,y,z
-x,1/2-y,z
x,1/2-y,1/2-z
-x,y,1/2-z
-x,-y,-z
x,1/2+y,-z
-x,1/2+y,1/2+z
x,-y,1/2+z
1/2+x,1/2+y,z
1/2-x,-y,z
1/2+x,-y,1/2-z
1/2-x,1/2+y,1/2-z
1/2-x,1/2-y,-z
1/2+x,y,-z
1/2-x,y,1/2+z
1/2+x,1/2-y,1/2+z
loop_
_atom_site_type_symbol
_atom_site_label
_atom_site_fract_x
_atom_site_fract_y
_atom_site_fract_z
Si Si1 0.620104 0.109566 0.992353
Si Si2 0.616134 0.937070 0.933704
Si Si3 0.732165 0.378591 0.925216
Si Si4 0.171817 0.220225 0.147132
Si Si5 0.271180 0.916521 0.709614
Si Si6 0.492406 0.842822 0.863769
O O1 0.703184 0.112879 0.002596
O O2 0.582215 0.129170 0.095315
O O3 0.608361 0.181161 0.914199
O O4 0.595423 0.028672 0.941750
O O5 0.649709 0.910452 0.828592
O O6 0.546903 0.885124 0.936741
O O7 0.666004 0.921861 0.027457
O O8 0.710794 0.288778 0.911183
O O9 0.758797 0.420438 0.826134
O O10 0.139385 0.250000 0.250000
O O11 0.230535 0.156431 0.167292
O O12 0.250000 0.000000 0.662234
O O13 0.500000 0.750000 0.872841
O O14 0.500000 0.869999 0.750000
#
# Coordination Sequence:
#
# PCOD8282796 Si02
#       6
#    16  16  16  16  16  16
#     4  12  22  43  66  95 134 178 224 279 336 399
#     4  12  23  42  68  99 133 176 222 276 337 401
#     4  11  23  37  67  99 133 174 219 275 333 392
#     4  10  22  37  62  98 134 173 217 271 330 395
#     4  11  20  37  61  99 136 167 219 273 326 396
#     4  11  27  46  68  96 134 179 229 278 341 410
#
# _framework density 21.516394999999999
#
# number of rings (size 3 to 8) (size 9 to 14) (size 15 to 20)
#    0.000    0.833    3.333    4.500    2.333    0.000 
#    0.000    0.000    0.000    3.000    0.000    0.000 
#    0.000    0.000    0.000    0.000    0.000    0.000 
#
# Total GULP energy -594937.631566 kJ/mol
# GULP energy per Si atom -12394.533991 kJ/mol
# Density = 2.146742 g / cm^3
# Si number density = 21.516395 Si / 1000 Ang^3
#
#
#
# Elastic Constant Matrix: (Units=GPa)
#
#
# Indices 1 2 3 4 5 6 
#
# 1 62.5831 23.6135 38.1899 0.0000 0.0000 0.0000
# 2 23.6135 142.2139 46.1798 0.0000 0.0000 0.0000
# 3 38.1899 46.1798 116.8318 0.0000 0.0000 0.0000
# 4 0.0000 0.0000 0.0000 32.3647 0.0000 0.0000
# 5 0.0000 0.0000 0.0000 0.0000 34.1040 0.0000
# 6 0.0000 0.0000 0.0000 0.0000 0.0000 29.6329
#
#
#
# Elastic Compliance Matrix: (Units=1/GPa)
#
#
# Indices 1 2 3 4 5 6 
#
# 1 0.020196 -0.001388 -0.006053 0.000000 0.000000 0.000000
# 2 -0.001388 0.008162 -0.002773 0.000000 0.000000 0.000000
# 3 -0.006053 -0.002773 0.011634 0.000000 0.000000 0.000000
# 4 0.000000 0.000000 0.000000 0.030898 0.000000 0.000000
# 5 0.000000 0.000000 0.000000 0.000000 0.029322 0.000000
# 6 0.000000 0.000000 0.000000 0.000000 0.000000 0.033746
#
#
# Mechanical properties :
#
#
# Convention : Reuss Voigt Hill
#
# Bulk Modulus (GPa) = 51.11114 59.73279 55.42197
# Shear Modulus (GPa) = 31.07369 33.46338 32.26853
#
# Velocity S-wave (km/s) = 3.80437 3.94794 3.87682
# Velocity P-wave (km/s) = 6.56534 6.97162 6.77153
#
# Compressibility (1/GPa) = 0.01956521
#
# Stress axis : x y z
#
# Youngs Moduli (GPa) = 49.51430 122.51226 85.95561
#
# Poissons Ratio (x) = 0.17003 0.52030
# Poissons Ratio (y) = 0.06872 0.23833
# Poissons Ratio (z) = 0.29972 0.33969
#
# Static dielectric constant tensor:
#      x y z
#    x 3.588370 0.000000 0.000000 
#    y 0.000000 4.400940 0.000000 
#    z 0.000000 0.000000 5.198430 
# 
# 
# High freq. dielectric constant tensor:
#      x y z
#    x 1.811300 0.000000 0.000000 
#    y 0.000000 1.865840 0.000000 
#    z 0.000000 0.000000 1.858210 
# 
# From -- ./inp_files/24468.got.cif
#   From: 2010.03.12/outbox.cif.g09.slc.cpg/sg68_13_cif.got.tgz:24468.got - 2010.04.10 23:14:56.
