data_PCOD8282006
_publ_section_title
;
Structure prediction by ZEFSAII (Michael W. Deem and Ramdas Pophale) SiO2 
 PCOD8282006
Probable space group: C C C A
;
_chemical_formula_sum "Si O2"
_cell_formula_units_Z 80
_cell_length_a 8.874574
_cell_length_b 21.933493
_cell_length_c 20.674359
_cell_angle_alpha 90.000000
_cell_angle_beta 90.000000
_cell_angle_gamma 90.000000
_cell_volume 4024.272388
_symmetry_space_group_name_H-M "C C C A"
_symmetry_group_IT_number 68
_space_group.IT_coordinate_system_code '2'
_symmetry_cell_setting 'orthorhombic'
loop_
_space_group_symop_operation_xyz
x,y,z
-x,1/2-y,z
x,1/2-y,1/2-z
-x,y,1/2-z
-x,-y,-z
x,1/2+y,-z
-x,1/2+y,1/2+z
x,-y,1/2+z
1/2+x,1/2+y,z
1/2-x,-y,z
1/2+x,-y,1/2-z
1/2-x,1/2+y,1/2-z
1/2-x,1/2-y,-z
1/2+x,y,-z
1/2-x,y,1/2+z
1/2+x,1/2-y,1/2+z
loop_
_atom_site_type_symbol
_atom_site_label
_atom_site_fract_x
_atom_site_fract_y
_atom_site_fract_z
Si Si1 0.724402 0.689798 0.373828
Si Si2 0.441843 0.864973 0.185692
Si Si3 0.548961 0.129352 0.032316
Si Si4 0.000000 0.250000 0.456167
Si Si5 0.791588 0.750000 0.750000
Si Si6 0.742878 0.428576 0.578158
O O1 0.581742 0.645807 0.362054
O O2 0.843390 0.647976 0.409234
O O3 0.656601 0.747376 0.414938
O O4 0.800652 0.714646 0.306679
O O5 0.500000 0.902043 0.250000
O O6 0.390255 0.798947 0.211120
O O7 0.313553 0.900196 0.146116
O O8 0.409225 0.094841 0.063283
O O9 0.493036 0.190714 0.999680
O O10 0.632607 0.086176 0.981346
O O11 0.750000 0.500000 0.588336
#
# Coordination Sequence:
#
# PCOD8282006 Si02
#       6
#    16  16  16   8   8  16
#     4  11  19  36  62  96 132 170 209 269 340 409
#     4  10  20  40  64  90 121 174 219 261 330 405
#     4  12  25  38  63  99 129 168 217 278 344 389
#     4  12  20  35  64  93 138 156 206 282 344 392
#     4  10  19  36  67  92 133 170 215 264 337 410
#     4  12  25  45  65  91 132 180 226 274 328 406
#
# _framework density 19.879370000000002
#
# number of rings (size 3 to 8) (size 9 to 14) (size 15 to 20)
#    0.000    0.800    6.000    3.300    2.800    0.000 
#    0.000    9.000    0.000    0.000    0.000    0.000 
#    0.000    0.000    0.000    0.000    0.000    0.000 
#
# Total GULP energy -495701.469379 kJ/mol
# GULP energy per Si atom -12392.536734 kJ/mol
# Density = 1.983412 g / cm^3
# Si number density = 19.879370 Si / 1000 Ang^3
#
#
#
# Elastic Constant Matrix: (Units=GPa)
#
#
# Indices 1 2 3 4 5 6 
#
# 1 105.8789 55.5430 72.4899 0.0000 0.0000 0.0000
# 2 55.5430 128.9796 69.6102 0.0000 0.0000 0.0000
# 3 72.4899 69.6102 146.0372 0.0000 0.0000 0.0000
# 4 0.0000 0.0000 0.0000 22.7018 0.0000 0.0000
# 5 0.0000 0.0000 0.0000 0.0000 -69.7073 0.0000
# 6 0.0000 0.0000 0.0000 0.0000 0.0000 11.6006
#
#
#
# Elastic Compliance Matrix: (Units=1/GPa)
#
#
# Indices 1 2 3 4 5 6 
#
# 1 0.015315 -0.003355 -0.006002 0.000000 0.000000 0.000000
# 2 -0.003355 0.011174 -0.003660 0.000000 0.000000 0.000000
# 3 -0.006002 -0.003660 0.011572 0.000000 0.000000 0.000000
# 4 0.000000 0.000000 0.000000 0.044049 0.000000 0.000000
# 5 0.000000 0.000000 0.000000 0.000000 -0.014346 0.000000
# 6 0.000000 0.000000 0.000000 0.000000 0.000000 0.086203
#
#
# Mechanical properties :
#
#
# Convention : Reuss Voigt Hill
#
# Bulk Modulus (GPa) = 83.17126 86.24243 84.70685
# Shear Modulus (GPa) = 27.17229 5.13584 16.15406
#
# Velocity S-wave (km/s) = 3.70112 1.60907 2.85371
# Velocity P-wave (km/s) = 7.75842 6.85049 7.31855
#
# Compressibility (1/GPa) = 0.01202338
#
# Stress axis : x y z
#
# Youngs Moduli (GPa) = 65.29741 89.49583 86.41658
#
# Poissons Ratio (x) = 0.30030 0.51871
# Poissons Ratio (y) = 0.21910 0.31633
# Poissons Ratio (z) = 0.39194 0.32760
#
# Static dielectric constant tensor:
#      x y z
#    x 3.477120 0.000000 0.000000 
#    y 0.000000 3.323350 0.000000 
#    z 0.000000 0.000000 4.257080 
# 
# 
# High freq. dielectric constant tensor:
#      x y z
#    x 1.759240 0.000000 0.000000 
#    y 0.000000 1.748220 0.000000 
#    z 0.000000 0.000000 1.802920 
# 
# From -- ./inp_files/36175.got.cif
#   From: 2010.03.12/outbox.cif.g09.slc.cpg/sg68_19_cif.got.tgz:36175.got - 2010.04.10 23:14:56.
