data_PCOD8282445
_publ_section_title
;
Structure prediction by ZEFSAII (Michael W. Deem and Ramdas Pophale) SiO2 
 PCOD8282445
Probable space group: C C C A
;
_chemical_formula_sum "Si O2"
_cell_formula_units_Z 68
_cell_length_a 5.037812
_cell_length_b 26.967904
_cell_length_c 24.279618
_cell_angle_alpha 90.000000
_cell_angle_beta 90.000000
_cell_angle_gamma 90.000000
_cell_volume 3298.610216
_symmetry_space_group_name_H-M "C C C A"
_symmetry_group_IT_number 68
_space_group.IT_coordinate_system_code '2'
_symmetry_cell_setting 'orthorhombic'
loop_
_space_group_symop_operation_xyz
x,y,z
-x,1/2-y,z
x,1/2-y,1/2-z
-x,y,1/2-z
-x,-y,-z
x,1/2+y,-z
-x,1/2+y,1/2+z
x,-y,1/2+z
1/2+x,1/2+y,z
1/2-x,-y,z
1/2+x,-y,1/2-z
1/2-x,1/2+y,1/2-z
1/2-x,1/2-y,-z
1/2+x,y,-z
1/2-x,y,1/2+z
1/2+x,1/2-y,1/2+z
loop_
_atom_site_type_symbol
_atom_site_label
_atom_site_fract_x
_atom_site_fract_y
_atom_site_fract_z
Si Si1 0.991147 0.691596 0.531229
Si Si2 0.260636 0.057952 0.964669
Si Si3 0.629373 0.367535 0.869792
Si Si4 0.635487 0.845697 0.803320
Si Si5 0.000000 0.750000 0.250000
O O1 0.238906 0.667997 0.498973
O O2 0.999064 0.676475 0.594585
O O3 0.000000 0.750000 0.526367
O O4 0.333608 0.083282 0.906332
O O5 0.250000 0.000000 0.951410
O O6 0.478020 0.073464 0.010269
O O7 0.414740 0.372299 0.819616
O O8 0.919891 0.350405 0.851557
O O9 0.500000 0.872755 0.750000
O O10 0.680603 0.786941 0.788153
#
# Coordination Sequence:
#
# PCOD8282445 Si02
#       5
#    16  16  16  16   4
#     4  10  21  32  46  74 110 144 183 225 277 349
#     4  10  21  38  62  92 123 152 192 245 301 369
#     4  12  21  36  61  82 112 158 195 244 298 358
#     4  10  24  37  58  82 115 149 205 254 293 344
#     4   8  24  42  56  82 120 154 216 262 296 342
#
# _framework density 20.614740999999999
#
# number of rings (size 3 to 8) (size 9 to 14) (size 15 to 20)
#    0.706    0.941    0.000    4.941    3.294    0.941 
#    0.000    0.000    0.000    2.824    0.000    0.000 
#    0.000    0.000    0.000    0.000    0.000    0.000 
#
# Total GULP energy -421343.936774 kJ/mol
# GULP energy per Si atom -12392.468729 kJ/mol
# Density = 2.056782 g / cm^3
# Si number density = 20.614741 Si / 1000 Ang^3
#
#
#
# Elastic Constant Matrix: (Units=GPa)
#
#
# Indices 1 2 3 4 5 6 
#
# 1 122.2772 45.7433 26.4317 0.0000 0.0000 0.0000
# 2 45.7433 70.1326 41.7254 0.0000 0.0000 0.0000
# 3 26.4317 41.7254 86.0437 0.0000 0.0000 0.0000
# 4 0.0000 0.0000 0.0000 17.9824 0.0000 0.0000
# 5 0.0000 0.0000 0.0000 0.0000 39.7696 0.0000
# 6 0.0000 0.0000 0.0000 0.0000 0.0000 26.8627
#
#
#
# Elastic Compliance Matrix: (Units=1/GPa)
#
#
# Indices 1 2 3 4 5 6 
#
# 1 0.010819 -0.007139 0.000138 0.000000 0.000000 0.000000
# 2 -0.007139 0.024751 -0.009810 0.000000 0.000000 0.000000
# 3 0.000138 -0.009810 0.016336 0.000000 0.000000 0.000000
# 4 0.000000 0.000000 0.000000 0.055610 0.000000 0.000000
# 5 0.000000 0.000000 0.000000 0.000000 0.025145 0.000000
# 6 0.000000 0.000000 0.000000 0.000000 0.000000 0.037226
#
#
# Mechanical properties :
#
#
# Convention : Reuss Voigt Hill
#
# Bulk Modulus (GPa) = 54.68557 56.25046 55.46802
# Shear Modulus (GPa) = 23.85461 27.89316 25.87388
#
# Velocity S-wave (km/s) = 3.40540 3.68240 3.54660
# Velocity P-wave (km/s) = 6.48439 6.73987 6.61336
#
# Compressibility (1/GPa) = 0.01828636
#
# Stress axis : x y z
#
# Youngs Moduli (GPa) = 92.43161 40.40211 61.21262
#
# Poissons Ratio (x) = 0.28842 -0.00847
# Poissons Ratio (y) = 0.65985 0.60048
# Poissons Ratio (z) = -0.01279 0.39633
#
# Static dielectric constant tensor:
#      x y z
#    x 4.026800 0.000000 0.000000 
#    y 0.000000 3.689850 0.000000 
#    z 0.000000 0.000000 3.708540 
# 
# 
# High freq. dielectric constant tensor:
#      x y z
#    x 1.822500 0.000000 0.000000 
#    y 0.000000 1.782400 0.000000 
#    z 0.000000 0.000000 1.803620 
# 
# From -- ./inp_files/35192.got.cif
#   From: 2010.03.12/outbox.cif.g09.slc.cpg/sg68_18_cif.got.tgz:35192.got - 2010.04.10 23:14:56.
