data_PCOD8282692
_publ_section_title
;
Structure prediction by ZEFSAII (Michael W. Deem and Ramdas Pophale) SiO2 
 PCOD8282692
Probable space group: C C C A
;
_chemical_formula_sum "Si O2"
_cell_formula_units_Z 80
_cell_length_a 12.065494
_cell_length_b 11.968070
_cell_length_c 23.753085
_cell_angle_alpha 90.000000
_cell_angle_beta 90.000000
_cell_angle_gamma 90.000000
_cell_volume 3429.961550
_symmetry_space_group_name_H-M "C C C A"
_symmetry_group_IT_number 68
_space_group.IT_coordinate_system_code '2'
_symmetry_cell_setting 'orthorhombic'
loop_
_space_group_symop_operation_xyz
x,y,z
-x,1/2-y,z
x,1/2-y,1/2-z
-x,y,1/2-z
-x,-y,-z
x,1/2+y,-z
-x,1/2+y,1/2+z
x,-y,1/2+z
1/2+x,1/2+y,z
1/2-x,-y,z
1/2+x,-y,1/2-z
1/2-x,1/2+y,1/2-z
1/2-x,1/2-y,-z
1/2+x,y,-z
1/2-x,y,1/2+z
1/2+x,1/2-y,1/2+z
loop_
_atom_site_type_symbol
_atom_site_label
_atom_site_fract_x
_atom_site_fract_y
_atom_site_fract_z
Si Si1 0.874220 0.456572 0.905485
Si Si2 0.459247 0.968643 0.687403
Si Si3 0.378577 0.008069 0.028810
Si Si4 0.150546 0.297190 0.888844
Si Si5 0.600828 0.836072 0.375037
O O1 0.750000 0.500000 0.902184
O O2 0.897293 0.324875 0.898774
O O3 0.937755 0.507444 0.852382
O O4 0.933511 0.493371 0.965499
O O5 0.500000 0.948927 0.750000
O O6 0.396269 0.856132 0.667795
O O7 0.384073 0.080235 0.679340
O O8 0.390347 0.128330 0.058567
O O9 0.250000 0.000000 0.013688
O O10 0.418744 0.909705 0.069476
O O11 0.281860 0.275192 0.882705
O O12 0.500000 0.750000 0.367347
#
# Coordination Sequence:
#
# PCOD8282692 Si02
#       5
#    16  16  16  16  16
#     4  11  23  38  63  96 124 160 215 264 314 387
#     4  11  25  43  61  87 123 167 217 264 319 381
#     4   8  19  37  60  91 128 162 198 251 319 387
#     4  10  22  42  64  90 128 168 203 258 325 382
#     4  10  21  40  66  93 125 163 206 257 317 380
#
# _framework density 23.323877
#
# number of rings (size 3 to 8) (size 9 to 14) (size 15 to 20)
#    0.000    2.000    0.000    3.600    0.000   17.200 
#    0.000    4.000    0.000    0.000    0.000    0.000 
#    0.000    0.000    0.000    0.000    0.000    0.000 
#
# Total GULP energy -495756.792737 kJ/mol
# GULP energy per Si atom -12393.919818 kJ/mol
# Density = 2.327079 g / cm^3
# Si number density = 23.323877 Si / 1000 Ang^3
#
#
#
# Elastic Constant Matrix: (Units=GPa)
#
#
# Indices 1 2 3 4 5 6 
#
# 1 96.2786 19.2855 52.1622 0.0000 0.0000 0.0000
# 2 19.2855 108.1720 31.6775 0.0000 0.0000 0.0000
# 3 52.1622 31.6775 163.2839 0.0000 0.0000 0.0000
# 4 0.0000 0.0000 0.0000 10.7620 0.0000 0.0000
# 5 0.0000 0.0000 0.0000 0.0000 24.1734 0.0000
# 6 0.0000 0.0000 0.0000 0.0000 0.0000 45.0034
#
#
#
# Elastic Compliance Matrix: (Units=1/GPa)
#
#
# Indices 1 2 3 4 5 6 
#
# 1 0.012692 -0.001140 -0.003833 0.000000 0.000000 0.000000
# 2 -0.001140 0.009904 -0.001557 0.000000 0.000000 0.000000
# 3 -0.003833 -0.001557 0.007651 0.000000 0.000000 0.000000
# 4 0.000000 0.000000 0.000000 0.092920 0.000000 0.000000
# 5 0.000000 0.000000 0.000000 0.000000 0.041368 0.000000
# 6 0.000000 0.000000 0.000000 0.000000 0.000000 0.022221
#
#
# Mechanical properties :
#
#
# Convention : Reuss Voigt Hill
#
# Bulk Modulus (GPa) = 58.18921 63.77610 60.98265
# Shear Modulus (GPa) = 24.32569 33.62837 28.97703
#
# Velocity S-wave (km/s) = 3.23298 3.80122 3.52856
# Velocity P-wave (km/s) = 6.24009 6.83146 6.54246
#
# Compressibility (1/GPa) = 0.01718532
#
# Stress axis : x y z
#
# Youngs Moduli (GPa) = 78.79155 100.97124 130.70277
#
# Poissons Ratio (x) = 0.11513 0.50102
# Poissons Ratio (y) = 0.08984 0.20352
# Poissons Ratio (z) = 0.30203 0.15722
#
# Static dielectric constant tensor:
#      x y z
#    x 3.975370 0.000000 0.000000 
#    y 0.000000 2.575700 0.000000 
#    z 0.000000 0.000000 4.085420 
# 
# 
# High freq. dielectric constant tensor:
#      x y z
#    x 1.972990 0.000000 0.000000 
#    y 0.000000 1.922560 0.000000 
#    z 0.000000 0.000000 1.897390 
# 
# From -- ./inp_files/45207.got.cif
#   From: 2010.03.12/outbox.cif.g09.slc.cpg/sg68_23_cif.got.tgz:45207.got - 2010.04.10 23:14:56.
