data_PCOD8282426
_publ_section_title
;
Structure prediction by ZEFSAII (Michael W. Deem and Ramdas Pophale) SiO2 
 PCOD8282426
Probable space group: C C C A
;
_chemical_formula_sum "Si O2"
_cell_formula_units_Z 60
_cell_length_a 4.987631
_cell_length_b 20.023139
_cell_length_c 28.086432
_cell_angle_alpha 90.000000
_cell_angle_beta 90.000000
_cell_angle_gamma 90.000000
_cell_volume 2804.936600
_symmetry_space_group_name_H-M "C C C A"
_symmetry_group_IT_number 68
_space_group.IT_coordinate_system_code '2'
_symmetry_cell_setting 'orthorhombic'
loop_
_space_group_symop_operation_xyz
x,y,z
-x,1/2-y,z
x,1/2-y,1/2-z
-x,y,1/2-z
-x,-y,-z
x,1/2+y,-z
-x,1/2+y,1/2+z
x,-y,1/2+z
1/2+x,1/2+y,z
1/2-x,-y,z
1/2+x,-y,1/2-z
1/2-x,1/2+y,1/2-z
1/2-x,1/2-y,-z
1/2+x,y,-z
1/2-x,y,1/2+z
1/2+x,1/2-y,1/2+z
loop_
_atom_site_type_symbol
_atom_site_label
_atom_site_fract_x
_atom_site_fract_y
_atom_site_fract_z
Si Si1 0.399030 0.676500 0.613748
Si Si2 0.000000 0.544382 0.750000
Si Si3 0.236179 0.075717 0.468607
Si Si4 0.500000 0.250000 0.750000
Si Si5 0.889795 0.347230 0.175392
O O1 0.500000 0.750000 0.596862
O O2 0.305882 0.630979 0.570193
O O3 0.644197 0.639803 0.639989
O O4 0.147823 0.683824 0.648795
O O5 0.250000 0.500000 0.737720
O O6 0.041203 0.584130 0.798939
O O7 0.434114 0.086463 0.513230
O O8 0.250000 0.000000 0.447780
O O9 0.693377 0.204630 0.782939
#
# Coordination Sequence:
#
# PCOD8282426 Si02
#       5
#    16   8  16   4  16
#     4  12  23  40  64 100 128 161 220 269 323 386
#     4  11  24  43  60  89 128 169 218 262 318 383
#     4  10  23  43  65  90 126 172 214 261 329 395
#     4  10  20  42  60  86 124 168 208 244 308 380
#     4  11  24  39  64  91 127 170 209 266 318 379
#
# _framework density 21.390857
#
# number of rings (size 3 to 8) (size 9 to 14) (size 15 to 20)
#    0.000    1.067    2.667    3.200    0.000    8.533 
#    0.000    0.000    0.000    0.000    0.000    0.000 
#    0.000    0.000    0.000    0.000    0.000    0.000 
#
# Total GULP energy -371984.006414 kJ/mol
# GULP energy per Si atom -12399.466880 kJ/mol
# Density = 2.134217 g / cm^3
# Si number density = 21.390857 Si / 1000 Ang^3
#
#
#
# Elastic Constant Matrix: (Units=GPa)
#
#
# Indices 1 2 3 4 5 6 
#
# 1 115.5710 40.6393 29.2275 0.0000 0.0000 0.0000
# 2 40.6393 152.9951 73.8412 0.0000 0.0000 0.0000
# 3 29.2275 73.8412 95.9297 0.0000 0.0000 0.0000
# 4 0.0000 0.0000 0.0000 21.8085 0.0000 0.0000
# 5 0.0000 0.0000 0.0000 0.0000 21.1020 0.0000
# 6 0.0000 0.0000 0.0000 0.0000 0.0000 36.8027
#
#
#
# Elastic Compliance Matrix: (Units=1/GPa)
#
#
# Indices 1 2 3 4 5 6 
#
# 1 0.009686 -0.001827 -0.001544 0.000000 0.000000 0.000000
# 2 -0.001827 0.010745 -0.007714 0.000000 0.000000 0.000000
# 3 -0.001544 -0.007714 0.016832 0.000000 0.000000 0.000000
# 4 0.000000 0.000000 0.000000 0.045854 0.000000 0.000000
# 5 0.000000 0.000000 0.000000 0.000000 0.047389 0.000000
# 6 0.000000 0.000000 0.000000 0.000000 0.000000 0.027172
#
#
# Mechanical properties :
#
#
# Convention : Reuss Voigt Hill
#
# Bulk Modulus (GPa) = 66.26170 72.43465 69.34818
# Shear Modulus (GPa) = 27.04473 30.66183 28.85328
#
# Velocity S-wave (km/s) = 3.55957 3.79015 3.67667
# Velocity P-wave (km/s) = 6.92373 7.28626 7.10730
#
# Compressibility (1/GPa) = 0.01509167
#
# Stress axis : x y z
#
# Youngs Moduli (GPa) = 103.24336 93.07087 59.40916
#
# Poissons Ratio (x) = 0.17008 0.09175
# Poissons Ratio (y) = 0.18867 0.45827
# Poissons Ratio (z) = 0.15945 0.71792
#
# Static dielectric constant tensor:
#      x y z
#    x 3.956660 0.000000 0.000000 
#    y 0.000000 3.995520 0.000000 
#    z 0.000000 0.000000 3.766530 
# 
# 
# High freq. dielectric constant tensor:
#      x y z
#    x 1.848190 0.000000 0.000000 
#    y 0.000000 1.850430 0.000000 
#    z 0.000000 0.000000 1.832380 
# 
# From -- ./inp_files/42051.got.cif
#   From: 2010.03.12/outbox.cif.g09.slc.cpg/sg68_22_cif.got.tgz:42051.got - 2010.04.10 23:14:56.
