data_PCOD8282046
_publ_section_title
;
Structure prediction by ZEFSAII (Michael W. Deem and Ramdas Pophale) SiO2 
 PCOD8282046
Probable space group: C C C A
;
_chemical_formula_sum "Si O2"
_cell_formula_units_Z 116
_cell_length_a 22.391660
_cell_length_b 9.331089
_cell_length_c 28.524037
_cell_angle_alpha 90.000000
_cell_angle_beta 90.000000
_cell_angle_gamma 90.000000
_cell_volume 5959.771568
_symmetry_space_group_name_H-M "C C C A"
_symmetry_group_IT_number 68
_space_group.IT_coordinate_system_code '2'
_symmetry_cell_setting 'orthorhombic'
loop_
_space_group_symop_operation_xyz
x,y,z
-x,1/2-y,z
x,1/2-y,1/2-z
-x,y,1/2-z
-x,-y,-z
x,1/2+y,-z
-x,1/2+y,1/2+z
x,-y,1/2+z
1/2+x,1/2+y,z
1/2-x,-y,z
1/2+x,-y,1/2-z
1/2-x,1/2+y,1/2-z
1/2-x,1/2-y,-z
1/2+x,y,-z
1/2-x,y,1/2+z
1/2+x,1/2-y,1/2+z
loop_
_atom_site_type_symbol
_atom_site_label
_atom_site_fract_x
_atom_site_fract_y
_atom_site_fract_z
Si Si1 0.271007 0.840743 0.652883
Si Si2 0.562020 0.569452 0.329910
Si Si3 0.536816 0.613987 0.625624
Si Si4 0.648018 0.447686 0.075343
Si Si5 0.158299 0.764049 0.888232
Si Si6 0.883492 0.730179 0.302761
Si Si7 0.500000 0.250000 0.750000
Si Si8 0.208184 0.376287 0.018935
O O1 0.307303 0.843000 0.603622
O O2 0.216230 0.729487 0.645722
O O3 0.313561 0.768431 0.691771
O O4 0.250000 0.000000 0.668997
O O5 0.504187 0.521299 0.360118
O O6 0.600364 0.677867 0.361582
O O7 0.602587 0.431657 0.318620
O O8 0.541786 0.649871 0.282533
O O9 0.500000 0.750000 0.609676
O O10 0.578134 0.587999 0.580340
O O11 0.578010 0.651842 0.669905
O O12 0.653857 0.599127 0.099630
O O13 0.665684 0.440932 0.021328
O O14 0.165475 0.842057 0.937805
O O15 0.903864 0.750000 0.250000
O O16 0.250000 0.500000 0.038157
O O17 0.250000 0.250000 0.000000
#
# Coordination Sequence:
#
# PCOD8282046 Si02
#       8
#    16  16  16  16  16  16   4  16
#     4   9  19  37  59  83 122 162 193 252 317 379
#     4  11  24  39  65  92 120 166 212 267 314 370
#     4   9  20  39  65  86 119 159 207 263 311 370
#     4  10  19  39  62  87 123 165 210 247 319 371
#     4  11  23  38  60  94 128 160 208 263 313 379
#     4  10  21  39  61  91 118 160 208 256 320 385
#     4  12  24  44  62  88 124 168 224 258 310 376
#     4  12  22  37  64  93 124 164 212 256 309 393
#
# _framework density 19.463833000000001
#
# number of rings (size 3 to 8) (size 9 to 14) (size 15 to 20)
#    0.000    1.655    2.759    2.069    1.931    5.241 
#    3.724    0.690    1.517    0.000    0.000    0.000 
#    0.000    0.000    0.000    0.000    0.000    0.000 
#
# Total GULP energy -719032.249367 kJ/mol
# GULP energy per Si atom -12397.107748 kJ/mol
# Density = 1.941953 g / cm^3
# Si number density = 19.463833 Si / 1000 Ang^3
#
#
#
# Elastic Constant Matrix: (Units=GPa)
#
#
# Indices 1 2 3 4 5 6 
#
# 1 126.5693 38.6043 41.2595 0.0000 0.0000 0.0000
# 2 38.6043 64.2409 20.8510 0.0000 0.0000 0.0000
# 3 41.2595 20.8510 76.0066 0.0000 0.0000 0.0000
# 4 0.0000 0.0000 0.0000 28.7814 0.0000 0.0000
# 5 0.0000 0.0000 0.0000 0.0000 35.1950 0.0000
# 6 0.0000 0.0000 0.0000 0.0000 0.0000 40.3119
#
#
#
# Elastic Compliance Matrix: (Units=1/GPa)
#
#
# Indices 1 2 3 4 5 6 
#
# 1 0.010935 -0.005098 -0.004537 0.000000 0.000000 0.000000
# 2 -0.005098 0.019465 -0.002572 0.000000 0.000000 0.000000
# 3 -0.004537 -0.002572 0.016325 0.000000 0.000000 0.000000
# 4 0.000000 0.000000 0.000000 0.034745 0.000000 0.000000
# 5 0.000000 0.000000 0.000000 0.000000 0.028413 0.000000
# 6 0.000000 0.000000 0.000000 0.000000 0.000000 0.024807
#
#
# Mechanical properties :
#
#
# Convention : Reuss Voigt Hill
#
# Bulk Modulus (GPa) = 44.82386 52.02736 48.42561
# Shear Modulus (GPa) = 30.02242 31.93114 30.97678
#
# Velocity S-wave (km/s) = 3.93169 4.05475 3.99369
# Velocity P-wave (km/s) = 6.60986 6.97923 6.79705
#
# Compressibility (1/GPa) = 0.02230955
#
# Stress axis : x y z
#
# Youngs Moduli (GPa) = 91.45002 51.37399 61.25418
#
# Poissons Ratio (x) = 0.26193 0.27793
# Poissons Ratio (y) = 0.46625 0.15756
# Poissons Ratio (z) = 0.41493 0.13215
#
# Static dielectric constant tensor:
#      x y z
#    x 3.334550 0.000000 0.000000 
#    y 0.000000 3.559000 0.000000 
#    z 0.000000 0.000000 3.397320 
# 
# 
# High freq. dielectric constant tensor:
#      x y z
#    x 1.764660 0.000000 0.000000 
#    y 0.000000 1.763650 0.000000 
#    z 0.000000 0.000000 1.740730 
# 
# From -- ./inp_files/56071.got.cif
#   From: 2010.03.12/outbox.cif.g09.slc.cpg/sg68_29_cif.got.tgz:56071.got - 2010.04.10 23:14:56.
