data_PCOD8282177
_publ_section_title
;
Structure prediction by ZEFSAII (Michael W. Deem and Ramdas Pophale) SiO2 
 PCOD8282177
Probable space group: C C C A
;
_chemical_formula_sum "Si O2"
_cell_formula_units_Z 60
_cell_length_a 33.297547
_cell_length_b 10.465800
_cell_length_c 8.850531
_cell_angle_alpha 90.000000
_cell_angle_beta 90.000000
_cell_angle_gamma 90.000000
_cell_volume 3084.281432
_symmetry_space_group_name_H-M "C C C A"
_symmetry_group_IT_number 68
_space_group.IT_coordinate_system_code '2'
_symmetry_cell_setting 'orthorhombic'
loop_
_space_group_symop_operation_xyz
x,y,z
-x,1/2-y,z
x,1/2-y,1/2-z
-x,y,1/2-z
-x,-y,-z
x,1/2+y,-z
-x,1/2+y,1/2+z
x,-y,1/2+z
1/2+x,1/2+y,z
1/2-x,-y,z
1/2+x,-y,1/2-z
1/2-x,1/2+y,1/2-z
1/2-x,1/2-y,-z
1/2+x,y,-z
1/2-x,y,1/2+z
1/2+x,1/2-y,1/2+z
loop_
_atom_site_type_symbol
_atom_site_label
_atom_site_fract_x
_atom_site_fract_y
_atom_site_fract_z
Si Si1 0.891703 0.390079 0.176563
Si Si2 0.803418 0.392355 0.220666
Si Si3 0.250000 0.500000 0.024081
Si Si4 0.500000 0.250000 0.250000
Si Si5 0.923601 0.369805 0.841835
O O1 0.896543 0.250000 0.250000
O O2 0.846730 0.452954 0.183502
O O3 0.919655 0.494215 0.257750
O O4 0.903277 0.378224 0.003168
O O5 0.815062 0.250000 0.250000
O O6 0.785587 0.445856 0.375447
O O7 0.771032 0.397212 0.085474
O O8 0.528530 0.160579 0.144715
O O9 0.903389 0.250000 0.750000
#
# Coordination Sequence:
#
# PCOD8282177 Si02
#       5
#    16  16   8   4  16
#     4  11  22  39  64  93 123 163 206 252 305 364
#     4  10  21  36  56  85 119 155 201 245 294 350
#     4  10  20  36  56  82 118 160 196 244 294 346
#     4   8  24  44  64  88 128 152 204 248 316 368
#     4  10  22  43  62  90 125 157 202 249 309 368
#
# _framework density 19.453478
#
# number of rings (size 3 to 8) (size 9 to 14) (size 15 to 20)
#    0.800    1.067    0.000    4.000    0.000    3.200 
#    0.000    6.667    0.000    0.000    0.000    0.000 
#    0.000    0.000    0.000    0.000    0.000    0.000 
#
# Total GULP energy -371684.474950 kJ/mol
# GULP energy per Si atom -12389.482498 kJ/mol
# Density = 1.940920 g / cm^3
# Si number density = 19.453478 Si / 1000 Ang^3
#
#
#
# Elastic Constant Matrix: (Units=GPa)
#
#
# Indices 1 2 3 4 5 6 
#
# 1 131.1757 35.1679 45.2308 0.0000 0.0000 0.0000
# 2 35.1679 109.9049 44.9895 0.0000 0.0000 0.0000
# 3 45.2308 44.9895 142.3642 0.0000 0.0000 0.0000
# 4 0.0000 0.0000 0.0000 25.5355 0.0000 0.0000
# 5 0.0000 0.0000 0.0000 0.0000 2.7661 0.0000
# 6 0.0000 0.0000 0.0000 0.0000 0.0000 40.3969
#
#
#
# Elastic Compliance Matrix: (Units=1/GPa)
#
#
# Indices 1 2 3 4 5 6 
#
# 1 0.008909 -0.001943 -0.002216 0.000000 0.000000 0.000000
# 2 -0.001943 0.010875 -0.002819 0.000000 0.000000 0.000000
# 3 -0.002216 -0.002819 0.008619 0.000000 0.000000 0.000000
# 4 0.000000 0.000000 0.000000 0.039161 0.000000 0.000000
# 5 0.000000 0.000000 0.000000 0.000000 0.361525 0.000000
# 6 0.000000 0.000000 0.000000 0.000000 0.000000 0.024754
#
#
# Mechanical properties :
#
#
# Convention : Reuss Voigt Hill
#
# Bulk Modulus (GPa) = 69.22826 70.46904 69.84865
# Shear Modulus (GPa) = 10.57943 30.94348 20.76145
#
# Velocity S-wave (km/s) = 2.33455 3.99261 3.27040
# Velocity P-wave (km/s) = 6.55215 7.58667 7.08831
#
# Compressibility (1/GPa) = 0.01444497
#
# Stress axis : x y z
#
# Youngs Moduli (GPa) = 112.25166 91.95708 116.01946
#
# Poissons Ratio (x) = 0.17871 0.25712
# Poissons Ratio (y) = 0.21815 0.32707
# Poissons Ratio (z) = 0.24877 0.25924
#
# Static dielectric constant tensor:
#      x y z
#    x 3.590840 0.000000 0.000000 
#    y 0.000000 2.920170 0.000000 
#    z 0.000000 0.000000 3.573440 
# 
# 
# High freq. dielectric constant tensor:
#      x y z
#    x 1.762410 0.000000 0.000000 
#    y 0.000000 1.753460 0.000000 
#    z 0.000000 0.000000 1.762430 
# 
# From -- ./inp_files/9317.got.cif
#   From: 2010.03.12/outbox.cif.g09.slc.cpg/sg68_5_cif.got.tgz:9317.got - 2010.04.10 23:14:56.
