data_PCOD8282476
_publ_section_title
;
Structure prediction by ZEFSAII (Michael W. Deem and Ramdas Pophale) SiO2 
 PCOD8282476
Probable space group: C C C A
;
_chemical_formula_sum "Si O2"
_cell_formula_units_Z 44
_cell_length_a 5.188695
_cell_length_b 16.525136
_cell_length_c 21.680930
_cell_angle_alpha 90.000000
_cell_angle_beta 90.000000
_cell_angle_gamma 90.000000
_cell_volume 1859.007289
_symmetry_space_group_name_H-M "C C C A"
_symmetry_group_IT_number 68
_space_group.IT_coordinate_system_code '2'
_symmetry_cell_setting 'orthorhombic'
loop_
_space_group_symop_operation_xyz
x,y,z
-x,1/2-y,z
x,1/2-y,1/2-z
-x,y,1/2-z
-x,-y,-z
x,1/2+y,-z
-x,1/2+y,1/2+z
x,-y,1/2+z
1/2+x,1/2+y,z
1/2-x,-y,z
1/2+x,-y,1/2-z
1/2-x,1/2+y,1/2-z
1/2-x,1/2-y,-z
1/2+x,y,-z
1/2-x,y,1/2+z
1/2+x,1/2-y,1/2+z
loop_
_atom_site_type_symbol
_atom_site_label
_atom_site_fract_x
_atom_site_fract_y
_atom_site_fract_z
Si Si1 0.651610 0.170552 0.653301
Si Si2 0.559148 0.844045 0.530615
Si Si3 0.000000 0.250000 0.750000
Si Si4 0.500000 0.446257 0.750000
O O1 0.500000 0.250000 0.628361
O O2 0.831610 0.136770 0.598542
O O3 0.464306 0.104972 0.685522
O O4 0.831426 0.190962 0.709954
O O5 0.500000 0.750000 0.519533
O O6 0.274209 0.881524 0.517165
O O7 0.750000 0.500000 0.757810
#
# Coordination Sequence:
#
# PCOD8282476 Si02
#       4
#    16  16   4   8
#     4  12  23  40  67  95 131 169 216 270 323 390
#     4  10  21  35  59  97 130 160 206 271 326 370
#     4  12  20  36  64 100 124 166 214 268 314 390
#     4  12  28  44  63  95 136 174 216 268 332 390
#
# _framework density 23.668548000000001
#
# number of rings (size 3 to 8) (size 9 to 14) (size 15 to 20)
#    0.000    0.727    5.455    4.364    0.000    0.000 
#    0.000    0.000    0.000    6.545    0.000    0.000 
#    0.000    0.000    0.000    0.000    0.000    0.000 
#
# Total GULP energy -272562.386073 kJ/mol
# GULP energy per Si atom -12389.199367 kJ/mol
# Density = 2.361468 g / cm^3
# Si number density = 23.668548 Si / 1000 Ang^3
#
#
#
# Elastic Constant Matrix: (Units=GPa)
#
#
# Indices 1 2 3 4 5 6 
#
# 1 122.9407 11.7820 34.1300 0.0000 0.0000 0.0000
# 2 11.7820 55.4948 17.4365 0.0000 0.0000 0.0000
# 3 34.1300 17.4365 151.1339 0.0000 0.0000 0.0000
# 4 0.0000 0.0000 0.0000 6.3315 0.0000 0.0000
# 5 0.0000 0.0000 0.0000 0.0000 68.0137 0.0000
# 6 0.0000 0.0000 0.0000 0.0000 0.0000 48.9488
#
#
#
# Elastic Compliance Matrix: (Units=1/GPa)
#
#
# Indices 1 2 3 4 5 6 
#
# 1 0.008766 -0.001286 -0.001831 0.000000 0.000000 0.000000
# 2 -0.001286 0.018886 -0.001889 0.000000 0.000000 0.000000
# 3 -0.001831 -0.001889 0.007248 0.000000 0.000000 0.000000
# 4 0.000000 0.000000 0.000000 0.157940 0.000000 0.000000
# 5 0.000000 0.000000 0.000000 0.000000 0.014703 0.000000
# 6 0.000000 0.000000 0.000000 0.000000 0.000000 0.020429
#
#
# Mechanical properties :
#
#
# Convention : Reuss Voigt Hill
#
# Bulk Modulus (GPa) = 40.17855 50.69625 45.43740
# Shear Modulus (GPa) = 20.30215 42.40687 31.35451
#
# Velocity S-wave (km/s) = 2.93195 4.23744 3.64364
# Velocity P-wave (km/s) = 5.33611 6.73846 6.07787
#
# Compressibility (1/GPa) = 0.02488890
#
# Stress axis : x y z
#
# Youngs Moduli (GPa) = 114.08275 52.94918 137.96793
#
# Poissons Ratio (x) = 0.06807 0.25264
# Poissons Ratio (y) = 0.14667 0.26056
# Poissons Ratio (z) = 0.20890 0.10000
#
# Static dielectric constant tensor:
#      x y z
#    x 4.920030 0.000000 0.000000 
#    y 0.000000 3.920400 0.000000 
#    z 0.000000 0.000000 4.658690 
# 
# 
# High freq. dielectric constant tensor:
#      x y z
#    x 1.963090 0.000000 0.000000 
#    y 0.000000 1.869940 0.000000 
#    z 0.000000 0.000000 1.946030 
# 
# From -- ./inp_files/34730.got.cif
#   From: 2010.03.12/outbox.cif.g09.slc.cpg/sg68_18_cif.got.tgz:34730.got - 2010.04.10 23:14:56.
