data_PCOD8282054
_publ_section_title
;
Structure prediction by ZEFSAII (Michael W. Deem and Ramdas Pophale) SiO2 
 PCOD8282054
Probable space group: C C C A
;
_chemical_formula_sum "Si O2"
_cell_formula_units_Z 116
_cell_length_a 11.509230
_cell_length_b 19.327475
_cell_length_c 23.379652
_cell_angle_alpha 90.000000
_cell_angle_beta 90.000000
_cell_angle_gamma 90.000000
_cell_volume 5200.671611
_symmetry_space_group_name_H-M "C C C A"
_symmetry_group_IT_number 68
_space_group.IT_coordinate_system_code '2'
_symmetry_cell_setting 'orthorhombic'
loop_
_space_group_symop_operation_xyz
x,y,z
-x,1/2-y,z
x,1/2-y,1/2-z
-x,y,1/2-z
-x,-y,-z
x,1/2+y,-z
-x,1/2+y,1/2+z
x,-y,1/2+z
1/2+x,1/2+y,z
1/2-x,-y,z
1/2+x,-y,1/2-z
1/2-x,1/2+y,1/2-z
1/2-x,1/2-y,-z
1/2+x,y,-z
1/2-x,y,1/2+z
1/2+x,1/2-y,1/2+z
loop_
_atom_site_type_symbol
_atom_site_label
_atom_site_fract_x
_atom_site_fract_y
_atom_site_fract_z
Si Si1 0.822427 0.790387 0.660916
Si Si2 0.822302 0.931138 0.468257
Si Si3 0.286898 0.070546 0.202565
Si Si4 0.095583 0.416260 0.094702
Si Si5 0.000000 0.250000 0.250000
Si Si6 0.153908 0.853366 0.607186
Si Si7 0.099388 0.834025 0.292437
Si Si8 0.498909 0.941919 0.623838
O O1 0.822971 0.865461 0.631373
O O2 0.854707 0.729106 0.617204
O O3 0.691522 0.775899 0.686074
O O4 0.917808 0.797577 0.710952
O O5 0.836925 0.922920 0.535336
O O6 0.749329 0.867107 0.441930
O O7 0.952320 0.931560 0.441074
O O8 0.750000 0.000000 0.452936
O O9 0.188909 0.112350 0.167742
O O10 0.328640 0.112824 0.255876
O O11 0.385071 0.042427 0.160073
O O12 0.250000 0.000000 0.232537
O O13 0.085875 0.492217 0.124027
O O14 0.969248 0.382265 0.086286
O O15 0.052452 0.871908 0.349470
O O16 0.000000 0.802858 0.250000
#
# Coordination Sequence:
#
# PCOD8282054 Si02
#       8
#    16  16  16  16   4  16  16  16
#     4  12  27  44  69 102 142 185 229 285 349 431
#     4  11  24  42  74  98 133 189 232 300 359 406
#     4  10  19  39  67  95 133 181 222 288 354 406
#     4  12  24  40  68 103 137 175 235 295 346 425
#     4  12  24  48  70 100 132 188 232 274 352 408
#     4  11  22  47  65  97 141 180 236 284 354 425
#     4  10  25  43  67 104 141 182 235 285 355 423
#     4  10  21  42  65 104 135 173 232 291 351 411
#
# _framework density 22.304811000000001
#
# number of rings (size 3 to 8) (size 9 to 14) (size 15 to 20)
#    0.000    1.103    4.138    2.069    3.862    0.552 
#    1.241   15.517    0.000    0.000    0.000    0.000 
#    0.000    0.000    0.000    0.000    0.000    0.000 
#
# Total GULP energy -718997.550519 kJ/mol
# GULP energy per Si atom -12396.509492 kJ/mol
# Density = 2.225404 g / cm^3
# Si number density = 22.304811 Si / 1000 Ang^3
#
#
#
# Elastic Constant Matrix: (Units=GPa)
#
#
# Indices 1 2 3 4 5 6 
#
# 1 99.5147 20.5917 25.0062 0.0000 0.0000 0.0000
# 2 20.5917 80.0876 29.8144 0.0000 0.0000 0.0000
# 3 25.0062 29.8144 96.4201 0.0000 0.0000 0.0000
# 4 0.0000 0.0000 0.0000 71.5277 0.0000 0.0000
# 5 0.0000 0.0000 0.0000 0.0000 34.7873 0.0000
# 6 0.0000 0.0000 0.0000 0.0000 0.0000 32.9578
#
#
#
# Elastic Compliance Matrix: (Units=1/GPa)
#
#
# Indices 1 2 3 4 5 6 
#
# 1 0.011026 -0.002001 -0.002241 0.000000 0.000000 0.000000
# 2 -0.002001 0.014474 -0.003957 0.000000 0.000000 0.000000
# 3 -0.002241 -0.003957 0.012176 0.000000 0.000000 0.000000
# 4 0.000000 0.000000 0.000000 0.013981 0.000000 0.000000
# 5 0.000000 0.000000 0.000000 0.000000 0.028746 0.000000
# 6 0.000000 0.000000 0.000000 0.000000 0.000000 0.030342
#
#
# Mechanical properties :
#
#
# Convention : Reuss Voigt Hill
#
# Bulk Modulus (GPa) = 46.99449 47.42744 47.21097
# Shear Modulus (GPa) = 37.24862 41.22858 39.23860
#
# Velocity S-wave (km/s) = 4.09097 4.30399 4.19883
# Velocity P-wave (km/s) = 6.59012 6.78296 6.68724
#
# Compressibility (1/GPa) = 0.02127909
#
# Stress axis : x y z
#
# Youngs Moduli (GPa) = 90.69605 69.09106 82.12972
#
# Poissons Ratio (x) = 0.13823 0.18404
# Poissons Ratio (y) = 0.18146 0.32495
# Poissons Ratio (z) = 0.20324 0.27336
#
# Static dielectric constant tensor:
#      x y z
#    x 4.431280 0.000000 0.000000 
#    y 0.000000 3.881470 0.000000 
#    z 0.000000 0.000000 4.485440 
# 
# 
# High freq. dielectric constant tensor:
#      x y z
#    x 1.889280 0.000000 0.000000 
#    y 0.000000 1.873320 0.000000 
#    z 0.000000 0.000000 1.870390 
# 
# From -- ./inp_files/50354.got.cif
#   From: 2010.03.12/outbox.cif.g09.slc.cpg/sg68_26_cif.got.tgz:50354.got - 2010.04.10 23:14:56.
