data_PCOD8282234
_publ_section_title
;
Structure prediction by ZEFSAII (Michael W. Deem and Ramdas Pophale) SiO2 
 PCOD8282234
Probable space group: C C C A
;
_chemical_formula_sum "Si O2"
_cell_formula_units_Z 76
_cell_length_a 24.226789
_cell_length_b 7.227634
_cell_length_c 19.918055
_cell_angle_alpha 90.000000
_cell_angle_beta 90.000000
_cell_angle_gamma 90.000000
_cell_volume 3487.698515
_symmetry_space_group_name_H-M "C C C A"
_symmetry_group_IT_number 68
_space_group.IT_coordinate_system_code '2'
_symmetry_cell_setting 'orthorhombic'
loop_
_space_group_symop_operation_xyz
x,y,z
-x,1/2-y,z
x,1/2-y,1/2-z
-x,y,1/2-z
-x,-y,-z
x,1/2+y,-z
-x,1/2+y,1/2+z
x,-y,1/2+z
1/2+x,1/2+y,z
1/2-x,-y,z
1/2+x,-y,1/2-z
1/2-x,1/2+y,1/2-z
1/2-x,1/2-y,-z
1/2+x,y,-z
1/2-x,y,1/2+z
1/2+x,1/2-y,1/2+z
loop_
_atom_site_type_symbol
_atom_site_label
_atom_site_fract_x
_atom_site_fract_y
_atom_site_fract_z
Si Si1 0.407000 0.564354 0.169967
Si Si2 0.257087 0.702176 0.385864
Si Si3 0.000000 0.250000 0.250000
Si Si4 0.185219 0.750000 0.750000
Si Si5 0.636596 0.752096 0.588122
Si Si6 0.131871 0.325102 0.437771
O O1 0.463738 0.604722 0.207751
O O2 0.354857 0.591691 0.220007
O O3 0.402658 0.353343 0.142536
O O4 0.409481 0.704938 0.106769
O O5 0.250000 0.500000 0.416980
O O6 0.274118 0.680068 0.308007
O O7 0.200350 0.815235 0.396777
O O8 0.308798 0.780737 0.428609
O O9 0.616639 0.826005 0.515726
O O10 0.630404 0.531544 0.593588
#
# Coordination Sequence:
#
# PCOD8282234 Si02
#       6
#    16  16   4   8  16  16
#     4  10  22  42  66  85 121 162 212 279 321 377
#     4   9  20  31  50  88 130 173 207 239 286 374
#     4  10  24  52  70  88 116 162 220 288 350 374
#     4   9  20  35  52  84 124 167 208 247 306 360
#     4  11  20  36  62  91 130 167 203 252 310 384
#     4  10  20  37  58  94 129 161 206 245 312 381
#
# _framework density 21.790875
#
# number of rings (size 3 to 8) (size 9 to 14) (size 15 to 20)
#    0.000    2.105    2.105    0.632    2.947    2.526 
#    0.000    3.158    0.000    0.000    0.000    0.000 
#    0.000    0.000    0.000    0.000    0.000    0.000 
#
# Total GULP energy -470884.936849 kJ/mol
# GULP energy per Si atom -12391.708864 kJ/mol
# Density = 2.174128 g / cm^3
# Si number density = 21.790875 Si / 1000 Ang^3
#
#
#
# Elastic Constant Matrix: (Units=GPa)
#
#
# Indices 1 2 3 4 5 6 
#
# 1 92.4084 36.2954 38.3068 0.0000 0.0000 0.0000
# 2 36.2954 95.8324 19.8136 0.0000 0.0000 0.0000
# 3 38.3068 19.8136 104.4144 0.0000 0.0000 0.0000
# 4 0.0000 0.0000 0.0000 23.9239 0.0000 0.0000
# 5 0.0000 0.0000 0.0000 0.0000 20.5935 0.0000
# 6 0.0000 0.0000 0.0000 0.0000 0.0000 20.9971
#
#
#
# Elastic Compliance Matrix: (Units=1/GPa)
#
#
# Indices 1 2 3 4 5 6 
#
# 1 0.014450 -0.004555 -0.004437 0.000000 0.000000 0.000000
# 2 -0.004555 0.012297 -0.000662 0.000000 0.000000 0.000000
# 3 -0.004437 -0.000662 0.011331 0.000000 0.000000 0.000000
# 4 0.000000 0.000000 0.000000 0.041799 0.000000 0.000000
# 5 0.000000 0.000000 0.000000 0.000000 0.048559 0.000000
# 6 0.000000 0.000000 0.000000 0.000000 0.000000 0.047626
#
#
# Mechanical properties :
#
#
# Convention : Reuss Voigt Hill
#
# Bulk Modulus (GPa) = 53.28017 53.49853 53.38935
# Shear Modulus (GPa) = 24.79825 26.31885 25.55855
#
# Velocity S-wave (km/s) = 3.37710 3.47910 3.42848
# Velocity P-wave (km/s) = 6.30160 6.38303 6.34245
#
# Compressibility (1/GPa) = 0.01876871
#
# Stress axis : x y z
#
# Youngs Moduli (GPa) = 69.20400 81.31979 88.25613
#
# Poissons Ratio (x) = 0.37045 0.39158
# Poissons Ratio (y) = 0.31526 0.05845
# Poissons Ratio (z) = 0.30705 0.05385
#
# Static dielectric constant tensor:
#      x y z
#    x 3.692280 0.000000 0.000000 
#    y 0.000000 3.682940 0.000000 
#    z 0.000000 0.000000 4.025080 
# 
# 
# High freq. dielectric constant tensor:
#      x y z
#    x 1.817440 0.000000 0.000000 
#    y 0.000000 1.845500 0.000000 
#    z 0.000000 0.000000 1.866550 
# 
# From -- ./inp_files/34002.got.cif
#   From: 2010.03.12/outbox.cif.g09.slc.cpg/sg68_18_cif.got.tgz:34002.got - 2010.04.10 23:14:56.
