data_PCOD8282458
_publ_section_title
;
Structure prediction by ZEFSAII (Michael W. Deem and Ramdas Pophale) SiO2 
 PCOD8282458
Probable space group: C C C A
;
_chemical_formula_sum "Si O2"
_cell_formula_units_Z 104
_cell_length_a 9.950500
_cell_length_b 25.034313
_cell_length_c 19.335071
_cell_angle_alpha 90.000000
_cell_angle_beta 90.000000
_cell_angle_gamma 90.000000
_cell_volume 4816.442202
_symmetry_space_group_name_H-M "C C C A"
_symmetry_group_IT_number 68
_space_group.IT_coordinate_system_code '2'
_symmetry_cell_setting 'orthorhombic'
loop_
_space_group_symop_operation_xyz
x,y,z
-x,1/2-y,z
x,1/2-y,1/2-z
-x,y,1/2-z
-x,-y,-z
x,1/2+y,-z
-x,1/2+y,1/2+z
x,-y,1/2+z
1/2+x,1/2+y,z
1/2-x,-y,z
1/2+x,-y,1/2-z
1/2-x,1/2+y,1/2-z
1/2-x,1/2-y,-z
1/2+x,y,-z
1/2-x,y,1/2+z
1/2+x,1/2-y,1/2+z
loop_
_atom_site_type_symbol
_atom_site_label
_atom_site_fract_x
_atom_site_fract_y
_atom_site_fract_z
Si Si1 0.254553 0.436472 0.231620
Si Si2 0.597677 0.996280 0.437209
Si Si3 0.653787 0.383964 0.557708
Si Si4 0.500000 0.874465 0.250000
Si Si5 0.310395 0.626785 0.600260
Si Si6 0.407711 0.102136 0.143881
Si Si7 0.948776 0.189966 0.114701
O O1 0.250000 0.500000 0.239941
O O2 0.122834 0.412956 0.266885
O O3 0.256383 0.420017 0.150942
O O4 0.375197 0.407548 0.274869
O O5 0.585885 0.936320 0.406329
O O6 0.500000 0.000000 0.500000
O O7 0.750000 0.000000 0.464062
O O8 0.561892 0.041870 0.382440
O O9 0.689573 0.395528 0.477594
O O10 0.787680 0.369461 0.601055
O O11 0.541511 0.338163 0.556924
O O12 0.517357 0.834378 0.187668
O O13 0.461148 0.639280 0.629452
O O14 0.211439 0.679179 0.601446
O O15 0.000000 0.250000 0.113055
#
# Coordination Sequence:
#
# PCOD8282458 Si02
#       7
#    16  16  16   8  16  16  16
#     4  11  24  40  64  99 141 182 218 269 337 416
#     4  10  21  34  60  92 135 181 212 256 323 410
#     4  11  22  42  65  97 138 176 222 276 344 400
#     4  10  23  46  70  94 130 178 229 274 338 424
#     4  11  25  39  65  97 131 175 227 279 332 414
#     4  11  22  40  63  96 141 177 216 273 337 404
#     4  11  25  46  71  95 126 175 237 291 345 398
#
# _framework density 21.592700000000001
#
# number of rings (size 3 to 8) (size 9 to 14) (size 15 to 20)
#    0.000    1.231    3.077    3.000    4.308    3.692 
#    0.000    0.769    0.000    0.000    0.000    0.000 
#    0.000    0.000    0.000    0.000    0.000    0.000 
#
# Total GULP energy -644278.916127 kJ/mol
# GULP energy per Si atom -12389.979156 kJ/mol
# Density = 2.154355 g / cm^3
# Si number density = 21.592700 Si / 1000 Ang^3
#
#
#
# Elastic Constant Matrix: (Units=GPa)
#
#
# Indices 1 2 3 4 5 6 
#
# 1 145.4752 67.5855 23.0113 0.0000 0.0000 0.0000
# 2 67.5855 124.7055 26.2214 0.0000 0.0000 0.0000
# 3 23.0113 26.2214 100.9357 0.0000 0.0000 0.0000
# 4 0.0000 0.0000 0.0000 3.4720 0.0000 0.0000
# 5 0.0000 0.0000 0.0000 0.0000 33.3226 0.0000
# 6 0.0000 0.0000 0.0000 0.0000 0.0000 28.8201
#
#
#
# Elastic Compliance Matrix: (Units=1/GPa)
#
#
# Indices 1 2 3 4 5 6 
#
# 1 0.009256 -0.004837 -0.000854 0.000000 0.000000 0.000000
# 2 -0.004837 0.011010 -0.001757 0.000000 0.000000 0.000000
# 3 -0.000854 -0.001757 0.010558 0.000000 0.000000 0.000000
# 4 0.000000 0.000000 0.000000 0.288015 0.000000 0.000000
# 5 0.000000 0.000000 0.000000 0.000000 0.030010 0.000000
# 6 0.000000 0.000000 0.000000 0.000000 0.000000 0.034698
#
#
# Mechanical properties :
#
#
# Convention : Reuss Voigt Hill
#
# Bulk Modulus (GPa) = 62.78110 67.19476 64.98793
# Shear Modulus (GPa) = 12.38381 30.07616 21.22998
#
# Velocity S-wave (km/s) = 2.39742 3.73619 3.13901
# Velocity P-wave (km/s) = 6.06645 7.05683 6.58030
#
# Compressibility (1/GPa) = 0.01592836
#
# Stress axis : x y z
#
# Youngs Moduli (GPa) = 108.03498 90.82728 94.71072
#
# Poissons Ratio (x) = 0.43933 0.08085
# Poissons Ratio (y) = 0.52257 0.16645
# Poissons Ratio (z) = 0.09222 0.15962
#
# Static dielectric constant tensor:
#      x y z
#    x 4.339810 0.000000 0.000000 
#    y 0.000000 3.668310 0.000000 
#    z 0.000000 0.000000 4.121430 
# 
# 
# High freq. dielectric constant tensor:
#      x y z
#    x 1.867290 0.000000 0.000000 
#    y 0.000000 1.802480 0.000000 
#    z 0.000000 0.000000 1.860790 
# 
# From -- ./inp_files/36588.got.cif
#   From: 2010.03.12/outbox.cif.g09.slc.cpg/sg68_19_cif.got.tgz:36588.got - 2010.04.10 23:14:56.
