data_PCOD8282005
_publ_section_title
;
Structure prediction by ZEFSAII (Michael W. Deem and Ramdas Pophale) SiO2 
 PCOD8282005
Probable space group: C C C A
;
_chemical_formula_sum "Si O2"
_cell_formula_units_Z 96
_cell_length_a 13.145410
_cell_length_b 21.640992
_cell_length_c 17.777952
_cell_angle_alpha 90.000000
_cell_angle_beta 90.000000
_cell_angle_gamma 90.000000
_cell_volume 5057.466676
_symmetry_space_group_name_H-M "C C C A"
_symmetry_group_IT_number 68
_space_group.IT_coordinate_system_code '2'
_symmetry_cell_setting 'orthorhombic'
loop_
_space_group_symop_operation_xyz
x,y,z
-x,1/2-y,z
x,1/2-y,1/2-z
-x,y,1/2-z
-x,-y,-z
x,1/2+y,-z
-x,1/2+y,1/2+z
x,-y,1/2+z
1/2+x,1/2+y,z
1/2-x,-y,z
1/2+x,-y,1/2-z
1/2-x,1/2+y,1/2-z
1/2-x,1/2-y,-z
1/2+x,y,-z
1/2-x,y,1/2+z
1/2+x,1/2-y,1/2+z
loop_
_atom_site_type_symbol
_atom_site_label
_atom_site_fract_x
_atom_site_fract_y
_atom_site_fract_z
Si Si1 0.289786 0.809062 0.295703
Si Si2 0.496457 0.404375 0.041199
Si Si3 0.637147 0.017161 0.934929
Si Si4 0.041001 0.684356 0.588343
Si Si5 0.088940 0.103873 0.197189
Si Si6 0.446951 0.814170 0.825874
O O1 0.329181 0.750000 0.250000
O O2 0.347655 0.810240 0.375269
O O3 0.318142 0.869797 0.247055
O O4 0.171002 0.803192 0.310384
O O5 0.573667 0.454721 0.072556
O O6 0.455104 0.365270 0.110349
O O7 0.402661 0.438073 0.000546
O O8 0.554477 0.360475 0.982583
O O9 0.634188 0.049994 0.854100
O O10 0.750000 0.000000 0.958237
O O11 0.000000 0.750000 0.559238
O O12 0.959844 0.658761 0.648182
O O13 0.000000 0.075826 0.250000
O O14 0.500000 0.750000 0.851117
O O15 0.500000 0.838887 0.750000
#
# Coordination Sequence:
#
# PCOD8282005 Si02
#       6
#    16  16  16  16  16  16
#     4  11  20  36  63  95 124 157 190 244 309 367
#     4  10  24  43  60  86 124 158 207 253 296 356
#     4  10  23  42  64  84 117 165 208 255 294 347
#     4  10  19  36  65  94 120 151 194 253 303 354
#     4   9  20  37  61  92 121 150 203 250 301 356
#     4  11  24  41  59  89 130 161 195 246 312 372
#
# _framework density 18.981835
#
# number of rings (size 3 to 8) (size 9 to 14) (size 15 to 20)
#    0.000    1.833    3.333    0.500    4.667    0.667 
#    0.000    1.667    0.000    0.000    0.000    0.000 
#    0.000    0.000    0.000    0.000    0.000    0.000 
#
# Total GULP energy -595329.909798 kJ/mol
# GULP energy per Si atom -12402.706454 kJ/mol
# Density = 1.893863 g / cm^3
# Si number density = 18.981835 Si / 1000 Ang^3
#
#
#
# Elastic Constant Matrix: (Units=GPa)
#
#
# Indices 1 2 3 4 5 6 
#
# 1 125.6324 54.3685 39.3129 0.0000 0.0000 0.0000
# 2 54.3685 117.2330 61.7592 0.0000 0.0000 0.0000
# 3 39.3129 61.7592 94.0233 0.0000 0.0000 0.0000
# 4 0.0000 0.0000 0.0000 -116.6880 0.0000 0.0000
# 5 0.0000 0.0000 0.0000 0.0000 155.2693 0.0000
# 6 0.0000 0.0000 0.0000 0.0000 0.0000 21.2453
#
#
#
# Elastic Compliance Matrix: (Units=1/GPa)
#
#
# Indices 1 2 3 4 5 6 
#
# 1 0.010145 -0.003778 -0.001761 0.000000 0.000000 0.000000
# 2 -0.003778 0.014450 -0.007912 0.000000 0.000000 0.000000
# 3 -0.001761 -0.007912 0.016569 0.000000 0.000000 0.000000
# 4 0.000000 0.000000 0.000000 -0.008570 0.000000 0.000000
# 5 0.000000 0.000000 0.000000 0.000000 0.006440 0.000000
# 6 0.000000 0.000000 0.000000 0.000000 0.000000 0.047069
#
#
# Mechanical properties :
#
#
# Convention : Reuss Voigt Hill
#
# Bulk Modulus (GPa) = 70.10779 71.97442 71.04110
# Shear Modulus (GPa) = 42.45949 24.06187 33.26068
#
# Velocity S-wave (km/s) = 4.73466 3.56424 4.19051
# Velocity P-wave (km/s) = 8.17947 7.41203 7.80519
#
# Compressibility (1/GPa) = 0.01426375
#
# Stress axis : x y z
#
# Youngs Moduli (GPa) = 98.56630 69.20406 60.35416
#
# Poissons Ratio (x) = 0.26142 0.10627
# Poissons Ratio (y) = 0.37234 0.47752
# Poissons Ratio (z) = 0.17355 0.54754
#
# Static dielectric constant tensor:
#      x y z
#    x 3.351010 0.000000 0.000000 
#    y 0.000000 3.516280 0.000000 
#    z 0.000000 0.000000 3.564040 
# 
# 
# High freq. dielectric constant tensor:
#      x y z
#    x 1.734300 0.000000 0.000000 
#    y 0.000000 1.740810 0.000000 
#    z 0.000000 0.000000 1.741130 
# 
# From -- ./inp_files/29820.got.cif
#   From: 2010.03.12/outbox.cif.g09.slc.cpg/sg68_15_cif.got.tgz:29820.got - 2010.04.10 23:14:56.
