data_PCOD8282558
_publ_section_title
;
Structure prediction by ZEFSAII (Michael W. Deem and Ramdas Pophale) SiO2 
 PCOD8282558
Probable space group: C C C A
;
_chemical_formula_sum "Si O2"
_cell_formula_units_Z 88
_cell_length_a 11.249118
_cell_length_b 18.286227
_cell_length_c 19.613004
_cell_angle_alpha 90.000000
_cell_angle_beta 90.000000
_cell_angle_gamma 90.000000
_cell_volume 4034.471910
_symmetry_space_group_name_H-M "C C C A"
_symmetry_group_IT_number 68
_space_group.IT_coordinate_system_code '2'
_symmetry_cell_setting 'orthorhombic'
loop_
_space_group_symop_operation_xyz
x,y,z
-x,1/2-y,z
x,1/2-y,1/2-z
-x,y,1/2-z
-x,-y,-z
x,1/2+y,-z
-x,1/2+y,1/2+z
x,-y,1/2+z
1/2+x,1/2+y,z
1/2-x,-y,z
1/2+x,-y,1/2-z
1/2-x,1/2+y,1/2-z
1/2-x,1/2-y,-z
1/2+x,y,-z
1/2-x,y,1/2+z
1/2+x,1/2-y,1/2+z
loop_
_atom_site_type_symbol
_atom_site_label
_atom_site_fract_x
_atom_site_fract_y
_atom_site_fract_z
Si Si1 0.456994 0.035641 0.093162
Si Si2 0.500000 0.250000 0.912037
Si Si3 0.771862 0.765737 0.826518
Si Si4 0.305306 0.610463 0.636269
Si Si5 0.585223 0.401558 0.956400
Si Si6 0.873403 0.897694 0.280131
O O1 0.577096 0.083523 0.098537
O O2 0.389796 0.035510 0.166297
O O3 0.478333 0.951795 0.072319
O O4 0.380604 0.074350 0.033179
O O5 0.392543 0.281839 0.867130
O O6 0.546764 0.316839 0.958023
O O7 0.813187 0.750000 0.750000
O O8 0.698668 0.698612 0.859610
O O9 0.684080 0.834493 0.826306
O O10 0.194145 0.581390 0.593739
O O11 0.295350 0.578979 0.714246
O O12 0.000000 0.870067 0.250000
#
# Coordination Sequence:
#
# PCOD8282558 Si02
#       6
#    16   8  16  16  16  16
#     4  10  21  38  59  86 116 150 190 238 292 347
#     4  10  21  38  56  82 115 156 198 232 284 356
#     4   9  18  34  57  84 117 153 192 243 294 342
#     4   9  19  37  60  83 113 153 191 237 289 343
#     4  10  22  39  59  83 118 154 190 237 291 347
#     4   9  19  36  59  89 116 148 197 245 294 347
#
# _framework density 21.812024999999998
#
# number of rings (size 3 to 8) (size 9 to 14) (size 15 to 20)
#    0.000    2.545    0.000    0.818    0.000   11.273 
#    0.000   28.182    0.000    0.000    0.000    0.000 
#    0.000    0.000    0.000    0.000    0.000    0.000 
#
# Total GULP energy -545389.196435 kJ/mol
# GULP energy per Si atom -12395.209010 kJ/mol
# Density = 2.176238 g / cm^3
# Si number density = 21.812025 Si / 1000 Ang^3
#
#
#
# Elastic Constant Matrix: (Units=GPa)
#
#
# Indices 1 2 3 4 5 6 
#
# 1 58.0317 19.1038 41.4451 0.0000 0.0000 0.0000
# 2 19.1038 64.5022 39.5043 0.0000 0.0000 0.0000
# 3 41.4451 39.5043 136.2152 0.0000 0.0000 0.0000
# 4 0.0000 0.0000 0.0000 26.0459 0.0000 0.0000
# 5 0.0000 0.0000 0.0000 0.0000 36.0595 0.0000
# 6 0.0000 0.0000 0.0000 0.0000 0.0000 21.5637
#
#
#
# Elastic Compliance Matrix: (Units=1/GPa)
#
#
# Indices 1 2 3 4 5 6 
#
# 1 0.022484 -0.003003 -0.005970 0.000000 0.000000 0.000000
# 2 -0.003003 0.019253 -0.004670 0.000000 0.000000 0.000000
# 3 -0.005970 -0.004670 0.010512 0.000000 0.000000 0.000000
# 4 0.000000 0.000000 0.000000 0.038394 0.000000 0.000000
# 5 0.000000 0.000000 0.000000 0.000000 0.027732 0.000000
# 6 0.000000 0.000000 0.000000 0.000000 0.000000 0.046374
#
#
# Mechanical properties :
#
#
# Convention : Reuss Voigt Hill
#
# Bulk Modulus (GPa) = 40.05876 50.98395 45.52136
# Shear Modulus (GPa) = 24.95552 27.31353 26.13452
#
# Velocity S-wave (km/s) = 3.38615 3.54252 3.46522
# Velocity P-wave (km/s) = 5.80460 6.33700 6.07663
#
# Compressibility (1/GPa) = 0.02496333
#
# Stress axis : x y z
#
# Youngs Moduli (GPa) = 44.47539 51.94056 95.12750
#
# Poissons Ratio (x) = 0.15597 0.56794
# Poissons Ratio (y) = 0.13355 0.44424
# Poissons Ratio (z) = 0.26553 0.24256
#
# Static dielectric constant tensor:
#      x y z
#    x 3.769900 0.000000 0.000000 
#    y 0.000000 3.772900 0.000000 
#    z 0.000000 0.000000 4.099260 
# 
# 
# High freq. dielectric constant tensor:
#      x y z
#    x 1.842190 0.000000 0.000000 
#    y 0.000000 1.847190 0.000000 
#    z 0.000000 0.000000 1.866290 
# 
# From -- ./inp_files/37451.got.cif
#   From: 2010.03.12/outbox.cif.g09.slc.cpg/sg68_19_cif.got.tgz:37451.got - 2010.04.10 23:14:56.
