data_PCOD8282889
_publ_section_title
;
Structure prediction by ZEFSAII (Michael W. Deem and Ramdas Pophale) SiO2 
 PCOD8282889
Probable space group: C C C A
;
_chemical_formula_sum "Si O2"
_cell_formula_units_Z 52
_cell_length_a 29.239603
_cell_length_b 5.271018
_cell_length_c 16.437977
_cell_angle_alpha 90.000000
_cell_angle_beta 90.000000
_cell_angle_gamma 90.000000
_cell_volume 2533.461678
_symmetry_space_group_name_H-M "C C C A"
_symmetry_group_IT_number 68
_space_group.IT_coordinate_system_code '2'
_symmetry_cell_setting 'orthorhombic'
loop_
_space_group_symop_operation_xyz
x,y,z
-x,1/2-y,z
x,1/2-y,1/2-z
-x,y,1/2-z
-x,-y,-z
x,1/2+y,-z
-x,1/2+y,1/2+z
x,-y,1/2+z
1/2+x,1/2+y,z
1/2-x,-y,z
1/2+x,-y,1/2-z
1/2-x,1/2+y,1/2-z
1/2-x,1/2-y,-z
1/2+x,y,-z
1/2-x,y,1/2+z
1/2+x,1/2-y,1/2+z
loop_
_atom_site_type_symbol
_atom_site_label
_atom_site_fract_x
_atom_site_fract_y
_atom_site_fract_z
Si Si1 0.571766 0.604271 0.669864
Si Si2 0.500000 0.250000 0.053043
Si Si3 0.250000 0.500000 0.947424
Si Si4 0.500000 0.750000 0.250000
Si Si5 0.150811 0.023598 0.054961
O O1 0.589126 0.750000 0.750000
O O2 0.546386 0.787343 0.605975
O O3 0.532185 0.407470 0.690943
O O4 0.615042 0.469587 0.628682
O O5 0.500000 0.500000 0.000000
O O6 0.201160 0.509153 0.900568
O O7 0.250000 0.250000 0.000000
O O8 0.144068 0.279146 0.002802
#
# Coordination Sequence:
#
# PCOD8282889 Si02
#       5
#    16   8   8   4  16
#     4  12  25  41  61  88 126 171 204 256 319 373
#     4  12  24  40  61  87 116 156 214 262 294 356
#     4   8  16  36  64  92 124 152 194 256 312 358
#     4  12  24  44  60  80 132 174 210 242 322 368
#     4  10  22  40  67  97 122 160 210 258 306 370
#
# _framework density 20.525276000000002
#
# number of rings (size 3 to 8) (size 9 to 14) (size 15 to 20)
#    0.000    1.231    3.077    2.769    4.308    0.000 
#    0.000    0.000    3.385    0.000    0.000    0.000 
#    0.000    0.000    0.000    0.000    0.000    0.000 
#
# Total GULP energy -322131.937647 kJ/mol
# GULP energy per Si atom -12389.689910 kJ/mol
# Density = 2.047856 g / cm^3
# Si number density = 20.525276 Si / 1000 Ang^3
#
#
#
# Elastic Constant Matrix: (Units=GPa)
#
#
# Indices 1 2 3 4 5 6 
#
# 1 189.3247 30.8485 63.8045 0.0000 0.0000 0.0000
# 2 30.8485 128.5817 38.2354 0.0000 0.0000 0.0000
# 3 63.8045 38.2354 99.3863 0.0000 0.0000 0.0000
# 4 0.0000 0.0000 0.0000 10.7830 0.0000 0.0000
# 5 0.0000 0.0000 0.0000 0.0000 29.1917 0.0000
# 6 0.0000 0.0000 0.0000 0.0000 0.0000 26.6880
#
#
#
# Elastic Compliance Matrix: (Units=1/GPa)
#
#
# Indices 1 2 3 4 5 6 
#
# 1 0.006756 -0.000374 -0.004193 0.000000 0.000000 0.000000
# 2 -0.000374 0.008802 -0.003146 0.000000 0.000000 0.000000
# 3 -0.004193 -0.003146 0.013964 0.000000 0.000000 0.000000
# 4 0.000000 0.000000 0.000000 0.092739 0.000000 0.000000
# 5 0.000000 0.000000 0.000000 0.000000 0.034256 0.000000
# 6 0.000000 0.000000 0.000000 0.000000 0.000000 0.037470
#
#
# Mechanical properties :
#
#
# Convention : Reuss Voigt Hill
#
# Bulk Modulus (GPa) = 70.94515 75.89659 73.42087
# Shear Modulus (GPa) = 23.35203 32.29282 27.82243
#
# Velocity S-wave (km/s) = 3.37667 3.97081 3.68573
# Velocity P-wave (km/s) = 7.05991 7.62106 7.34585
#
# Compressibility (1/GPa) = 0.01409540
#
# Stress axis : x y z
#
# Youngs Moduli (GPa) = 148.01439 113.60429 71.61083
#
# Poissons Ratio (x) = 0.04248 0.30030
# Poissons Ratio (y) = 0.05534 0.22532
# Poissons Ratio (z) = 0.62069 0.35745
#
# Static dielectric constant tensor:
#      x y z
#    x 4.934880 0.000000 0.000000 
#    y 0.000000 3.821440 0.000000 
#    z 0.000000 0.000000 2.651500 
# 
# 
# High freq. dielectric constant tensor:
#      x y z
#    x 1.824410 0.000000 0.000000 
#    y 0.000000 1.820330 0.000000 
#    z 0.000000 0.000000 1.769270 
# 
# From -- ./inp_files/18366.got.cif
#   From: 2010.03.12/outbox.cif.g09.slc.cpg/sg68_10_cif.got.tgz:18366.got - 2010.04.10 23:14:56.
