data_PCOD8282993
_publ_section_title
;
Structure prediction by ZEFSAII (Michael W. Deem and Ramdas Pophale) SiO2 
 PCOD8282993
Probable space group: C C C A
;
_chemical_formula_sum "Si O2"
_cell_formula_units_Z 104
_cell_length_a 26.184740
_cell_length_b 19.374308
_cell_length_c 9.124426
_cell_angle_alpha 90.000000
_cell_angle_beta 90.000000
_cell_angle_gamma 90.000000
_cell_volume 4628.923665
_symmetry_space_group_name_H-M "C C C A"
_symmetry_group_IT_number 68
_space_group.IT_coordinate_system_code '2'
_symmetry_cell_setting 'orthorhombic'
loop_
_space_group_symop_operation_xyz
x,y,z
-x,1/2-y,z
x,1/2-y,1/2-z
-x,y,1/2-z
-x,-y,-z
x,1/2+y,-z
-x,1/2+y,1/2+z
x,-y,1/2+z
1/2+x,1/2+y,z
1/2-x,-y,z
1/2+x,-y,1/2-z
1/2-x,1/2+y,1/2-z
1/2-x,1/2-y,-z
1/2+x,y,-z
1/2-x,y,1/2+z
1/2+x,1/2-y,1/2+z
loop_
_atom_site_type_symbol
_atom_site_label
_atom_site_fract_x
_atom_site_fract_y
_atom_site_fract_z
Si Si1 0.000000 0.750000 0.750000
Si Si2 0.298964 0.589882 0.609066
Si Si3 0.446129 0.546185 0.338194
Si Si4 0.061823 0.684249 0.994720
Si Si5 0.165026 0.760634 0.418544
Si Si6 0.884234 0.524764 0.943616
Si Si7 0.000000 0.250000 0.750000
Si Si8 0.798661 0.613247 0.053580
O O1 0.032470 0.700366 0.847981
O O2 0.306412 0.667938 0.553532
O O3 0.345623 0.541245 0.559032
O O4 0.244425 0.571756 0.537078
O O5 0.291272 0.588590 0.781504
O O6 0.500000 0.544027 0.250000
O O7 0.434259 0.602848 0.465817
O O8 0.433377 0.481450 0.445552
O O9 0.402050 0.545900 0.217443
O O10 0.112553 0.730747 0.991733
O O11 0.032571 0.699004 0.146739
O O12 0.149724 0.750000 0.250000
O O13 0.200358 0.696580 0.469656
O O14 0.854149 0.590878 0.000330
#
# Coordination Sequence:
#
# PCOD8282993 Si02
#       8
#     4  16  16  16  16  16   4  16
#     4  10  24  38  64 108 138 174 256 304 360 426
#     4  11  24  46  69 103 141 187 241 299 371 449
#     4  12  27  50  70 106 145 196 251 305 366 435
#     4  11  22  44  70 104 143 191 242 303 366 436
#     4  10  22  43  69 102 140 186 232 298 369 440
#     4  12  26  47  72 104 145 193 242 311 365 439
#     4  10  24  42  76 104 142 202 236 302 370 438
#     4  11  26  43  74 104 142 186 245 296 375 438
#
# _framework density 22.467424999999999
#
# number of rings (size 3 to 8) (size 9 to 14) (size 15 to 20)
#    0.000    0.923    4.615    1.385    4.308    1.231 
#    4.154    0.000    0.000    0.000    0.000    0.000 
#    0.000    0.000    0.000    0.000    0.000    0.000 
#
# Total GULP energy -644202.048685 kJ/mol
# GULP energy per Si atom -12388.500936 kJ/mol
# Density = 2.241629 g / cm^3
# Si number density = 22.467425 Si / 1000 Ang^3
#
#
#
# Elastic Constant Matrix: (Units=GPa)
#
#
# Indices 1 2 3 4 5 6 
#
# 1 102.5640 25.1355 43.6237 0.0000 0.0000 0.0000
# 2 25.1355 77.0358 28.8244 0.0000 0.0000 0.0000
# 3 43.6237 28.8244 126.8182 0.0000 0.0000 0.0000
# 4 0.0000 0.0000 0.0000 -32.5830 0.0000 0.0000
# 5 0.0000 0.0000 0.0000 0.0000 46.4340 0.0000
# 6 0.0000 0.0000 0.0000 0.0000 0.0000 30.8362
#
#
#
# Elastic Compliance Matrix: (Units=1/GPa)
#
#
# Indices 1 2 3 4 5 6 
#
# 1 0.011866 -0.002562 -0.003499 0.000000 0.000000 0.000000
# 2 -0.002562 0.014741 -0.002469 0.000000 0.000000 0.000000
# 3 -0.003499 -0.002469 0.009650 0.000000 0.000000 0.000000
# 4 0.000000 0.000000 0.000000 -0.030691 0.000000 0.000000
# 5 0.000000 0.000000 0.000000 0.000000 0.021536 0.000000
# 6 0.000000 0.000000 0.000000 0.000000 0.000000 0.032429
#
#
# Mechanical properties :
#
#
# Convention : Reuss Voigt Hill
#
# Bulk Modulus (GPa) = 52.09485 55.73167 53.91326
# Shear Modulus (GPa) = 60.24646 22.85973 41.55310
#
# Velocity S-wave (km/s) = 5.18394 3.19323 4.30523
# Velocity P-wave (km/s) = 7.68558 6.20121 6.98295
#
# Compressibility (1/GPa) = 0.01919576
#
# Stress axis : x y z
#
# Youngs Moduli (GPa) = 84.27147 67.83860 103.62424
#
# Poissons Ratio (x) = 0.17383 0.36263
# Poissons Ratio (y) = 0.21594 0.25585
# Poissons Ratio (z) = 0.29491 0.16749
#
# Static dielectric constant tensor:
#      x y z
#    x 4.115090 0.000000 0.000000 
#    y 0.000000 4.304740 0.000000 
#    z 0.000000 0.000000 4.034390 
# 
# 
# High freq. dielectric constant tensor:
#      x y z
#    x 1.892070 0.000000 0.000000 
#    y 0.000000 1.889160 0.000000 
#    z 0.000000 0.000000 1.892160 
# 
# From -- ./inp_files/9038.got.cif
#   From: 2010.03.12/outbox.cif.g09.slc.cpg/sg68_5_cif.got.tgz:9038.got - 2010.04.10 23:14:56.
