data_PCOD8282902
_publ_section_title
;
Structure prediction by ZEFSAII (Michael W. Deem and Ramdas Pophale) SiO2 
 PCOD8282902
Probable space group: C C C A
;
_chemical_formula_sum "Si O2"
_cell_formula_units_Z 88
_cell_length_a 16.950674
_cell_length_b 13.657225
_cell_length_c 16.409970
_cell_angle_alpha 90.000000
_cell_angle_beta 90.000000
_cell_angle_gamma 90.000000
_cell_volume 3798.894414
_symmetry_space_group_name_H-M "C C C A"
_symmetry_group_IT_number 68
_space_group.IT_coordinate_system_code '2'
_symmetry_cell_setting 'orthorhombic'
loop_
_space_group_symop_operation_xyz
x,y,z
-x,1/2-y,z
x,1/2-y,1/2-z
-x,y,1/2-z
-x,-y,-z
x,1/2+y,-z
-x,1/2+y,1/2+z
x,-y,1/2+z
1/2+x,1/2+y,z
1/2-x,-y,z
1/2+x,-y,1/2-z
1/2-x,1/2+y,1/2-z
1/2-x,1/2-y,-z
1/2+x,y,-z
1/2-x,y,1/2+z
1/2+x,1/2-y,1/2+z
loop_
_atom_site_type_symbol
_atom_site_label
_atom_site_fract_x
_atom_site_fract_y
_atom_site_fract_z
Si Si1 0.385049 0.130670 0.417746
Si Si2 0.978503 0.139107 0.426950
Si Si3 0.346043 0.658936 0.301398
Si Si4 0.750000 0.000000 0.505202
Si Si5 0.287072 0.309355 0.424774
Si Si6 0.574193 0.976714 0.192285
O O1 0.457558 0.114110 0.479819
O O2 0.366637 0.246938 0.407651
O O3 0.309081 0.064809 0.441331
O O4 0.410809 0.090204 0.329098
O O5 0.898511 0.122969 0.376571
O O6 0.000000 0.250000 0.416738
O O7 0.052675 0.076557 0.393863
O O8 0.381227 0.750000 0.250000
O O9 0.262462 0.689303 0.340332
O O10 0.347943 0.569757 0.235429
O O11 0.699403 0.077043 0.449622
O O12 0.250000 0.250000 0.500000
O O13 0.500000 0.961965 0.250000
#
# Coordination Sequence:
#
# PCOD8282902 Si02
#       6
#    16  16  16   8  16  16
#     4  11  24  42  69 101 134 181 229 282 355 417
#     4  11  21  39  69 100 133 180 232 286 334 423
#     4  11  21  40  65 101 135 167 230 289 345 399
#     4  10  22  40  70  92 132 166 232 280 328 416
#     4  10  22  43  66  99 132 173 219 284 340 409
#     4  10  24  40  66  99 139 181 232 286 356 413
#
# _framework density 23.164636000000002
#
# number of rings (size 3 to 8) (size 9 to 14) (size 15 to 20)
#    0.000    1.455    5.455    0.545    7.636    0.000 
#    3.273    0.000    0.000    0.000    0.000    0.000 
#    0.000    0.000    0.000    0.000    0.000    0.000 
#
# Total GULP energy -545130.282914 kJ/mol
# GULP energy per Si atom -12389.324612 kJ/mol
# Density = 2.311191 g / cm^3
# Si number density = 23.164636 Si / 1000 Ang^3
#
#
#
# Elastic Constant Matrix: (Units=GPa)
#
#
# Indices 1 2 3 4 5 6 
#
# 1 43.9084 10.4619 29.9410 0.0000 0.0000 0.0000
# 2 10.4619 131.6684 40.8860 0.0000 0.0000 0.0000
# 3 29.9410 40.8860 100.4199 0.0000 0.0000 0.0000
# 4 0.0000 0.0000 0.0000 50.6217 0.0000 0.0000
# 5 0.0000 0.0000 0.0000 0.0000 -24.3143 0.0000
# 6 0.0000 0.0000 0.0000 0.0000 0.0000 19.9016
#
#
#
# Elastic Compliance Matrix: (Units=1/GPa)
#
#
# Indices 1 2 3 4 5 6 
#
# 1 0.028608 0.000430 -0.008705 0.000000 0.000000 0.000000
# 2 0.000430 0.008700 -0.003671 0.000000 0.000000 0.000000
# 3 -0.008705 -0.003671 0.014048 0.000000 0.000000 0.000000
# 4 0.000000 0.000000 0.000000 0.019754 0.000000 0.000000
# 5 0.000000 0.000000 0.000000 0.000000 -0.041128 0.000000
# 6 0.000000 0.000000 0.000000 0.000000 0.000000 0.050247
#
#
# Mechanical properties :
#
#
# Convention : Reuss Voigt Hill
#
# Bulk Modulus (GPa) = 36.40903 48.73048 42.56975
# Shear Modulus (GPa) = 44.13999 22.22232 33.18116
#
# Velocity S-wave (km/s) = 4.36993 3.10065 3.78882
# Velocity P-wave (km/s) = 6.41976 5.82245 6.12839
#
# Compressibility (1/GPa) = 0.02746572
#
# Stress axis : x y z
#
# Youngs Moduli (GPa) = 34.95530 114.93620 71.18421
#
# Poissons Ratio (x) = -0.04942 0.61964
# Poissons Ratio (y) = -0.01503 0.26129
# Poissons Ratio (z) = 0.30428 0.42188
#
# Static dielectric constant tensor:
#      x y z
#    x 4.279910 0.000000 0.000000 
#    y 0.000000 2.284450 0.000000 
#    z 0.000000 0.000000 4.292960 
# 
# 
# High freq. dielectric constant tensor:
#      x y z
#    x 1.878840 0.000000 0.000000 
#    y 0.000000 1.920280 0.000000 
#    z 0.000000 0.000000 1.912050 
# 
# From -- ./inp_files/31875.got.cif
#   From: 2010.03.12/outbox.cif.g09.slc.cpg/sg68_16_cif.got.tgz:31875.got - 2010.04.10 23:14:56.
