data_PCOD8282370
_publ_section_title
;
Structure prediction by ZEFSAII (Michael W. Deem and Ramdas Pophale) SiO2 
 PCOD8282370
Probable space group: C C C A
;
_chemical_formula_sum "Si O2"
_cell_formula_units_Z 120
_cell_length_a 20.905889
_cell_length_b 10.926587
_cell_length_c 23.983998
_cell_angle_alpha 90.000000
_cell_angle_beta 90.000000
_cell_angle_gamma 90.000000
_cell_volume 5478.665022
_symmetry_space_group_name_H-M "C C C A"
_symmetry_group_IT_number 68
_space_group.IT_coordinate_system_code '2'
_symmetry_cell_setting 'orthorhombic'
loop_
_space_group_symop_operation_xyz
x,y,z
-x,1/2-y,z
x,1/2-y,1/2-z
-x,y,1/2-z
-x,-y,-z
x,1/2+y,-z
-x,1/2+y,1/2+z
x,-y,1/2+z
1/2+x,1/2+y,z
1/2-x,-y,z
1/2+x,-y,1/2-z
1/2-x,1/2+y,1/2-z
1/2-x,1/2-y,-z
1/2+x,y,-z
1/2-x,y,1/2+z
1/2+x,1/2-y,1/2+z
loop_
_atom_site_type_symbol
_atom_site_label
_atom_site_fract_x
_atom_site_fract_y
_atom_site_fract_z
Si Si1 0.994437 0.031720 0.887473
Si Si2 0.622163 0.973745 0.064452
Si Si3 0.095246 0.103693 0.040471
Si Si4 0.714747 0.753821 0.441518
Si Si5 0.419141 0.835563 0.699814
Si Si6 0.826101 0.315017 0.872410
Si Si7 0.203530 0.393532 0.742161
Si Si8 0.500000 0.250000 0.472754
O O1 0.978360 0.086597 0.825756
O O2 0.988360 0.134000 0.934498
O O3 0.941945 0.930321 0.903037
O O4 0.064370 0.967494 0.889722
O O5 0.672184 0.865729 0.070997
O O6 0.657486 0.103699 0.073962
O O7 0.594390 0.986919 0.001799
O O8 0.167619 0.130785 0.059051
O O9 0.061506 0.223301 0.012542
O O10 0.750000 0.750000 0.500000
O O11 0.766867 0.770660 0.391904
O O12 0.445126 0.750000 0.750000
O O13 0.388281 0.760614 0.647802
O O14 0.362439 0.918622 0.724909
O O15 0.805615 0.409091 0.823757
O O16 0.225540 0.250000 0.750000
O O17 0.250000 0.500000 0.764348
#
# Coordination Sequence:
#
# PCOD8282370 Si02
#       8
#    16  16  16  16  16  16  16   8
#     4  11  22  37  63  84 118 166 207 264 322 382
#     4  11  22  38  55  84 121 166 211 257 315 384
#     4  11  22  35  56  85 120 165 209 251 304 379
#     4  12  24  36  56  85 126 168 215 258 304 387
#     4   9  21  40  62  92 120 152 210 277 334 389
#     4  10  21  39  60  84 122 166 208 258 324 391
#     4   9  19  37  62  87 122 166 213 274 338 409
#     4  10  20  40  57  84 128 168 209 242 316 392
#
# _framework density 21.903146
#
# number of rings (size 3 to 8) (size 9 to 14) (size 15 to 20)
#    0.000    1.867    1.333    6.000    1.867    2.133 
#    0.000    8.333    0.000    0.000    0.000    0.000 
#    0.000   13.867    0.000    0.000    0.000    0.000 
#
# Total GULP energy -743588.754882 kJ/mol
# GULP energy per Si atom -12393.145915 kJ/mol
# Density = 2.185329 g / cm^3
# Si number density = 21.903146 Si / 1000 Ang^3
#
#
#
# Elastic Constant Matrix: (Units=GPa)
#
#
# Indices 1 2 3 4 5 6 
#
# 1 127.9092 39.7857 42.2433 0.0000 0.0000 0.0000
# 2 39.7857 53.6943 21.0810 0.0000 0.0000 0.0000
# 3 42.2433 21.0810 89.5378 0.0000 0.0000 0.0000
# 4 0.0000 0.0000 0.0000 26.5886 0.0000 0.0000
# 5 0.0000 0.0000 0.0000 0.0000 35.0778 0.0000
# 6 0.0000 0.0000 0.0000 0.0000 0.0000 33.2385
#
#
#
# Elastic Compliance Matrix: (Units=1/GPa)
#
#
# Indices 1 2 3 4 5 6 
#
# 1 0.011147 -0.006826 -0.003652 0.000000 0.000000 0.000000
# 2 -0.006826 0.024701 -0.002595 0.000000 0.000000 0.000000
# 3 -0.003652 -0.002595 0.013503 0.000000 0.000000 0.000000
# 4 0.000000 0.000000 0.000000 0.037610 0.000000 0.000000
# 5 0.000000 0.000000 0.000000 0.000000 0.028508 0.000000
# 6 0.000000 0.000000 0.000000 0.000000 0.000000 0.030086
#
#
# Mechanical properties :
#
#
# Convention : Reuss Voigt Hill
#
# Bulk Modulus (GPa) = 43.09586 53.04014 48.06800
# Shear Modulus (GPa) = 27.86517 30.18308 29.02413
#
# Velocity S-wave (km/s) = 3.57066 3.71620 3.64416
# Velocity P-wave (km/s) = 6.05953 6.53314 6.30078
#
# Compressibility (1/GPa) = 0.02320408
#
# Stress axis : x y z
#
# Youngs Moduli (GPa) = 89.70703 40.48474 74.06025
#
# Poissons Ratio (x) = 0.27635 0.27048
# Poissons Ratio (y) = 0.61234 0.19220
# Poissons Ratio (z) = 0.32762 0.10506
#
# Static dielectric constant tensor:
#      x y z
#    x 4.166770 0.000000 0.000000 
#    y 0.000000 3.667670 0.000000 
#    z 0.000000 0.000000 3.931630 
# 
# 
# High freq. dielectric constant tensor:
#      x y z
#    x 1.877210 0.000000 0.000000 
#    y 0.000000 1.829770 0.000000 
#    z 0.000000 0.000000 1.850480 
# 
# From -- ./inp_files/46725.got.cif
#   From: 2010.03.12/outbox.cif.g09.slc.cpg/sg68_24_cif.got.tgz:46725.got - 2010.04.10 23:14:56.
