data_PCOD8282920
_publ_section_title
;
Structure prediction by ZEFSAII (Michael W. Deem and Ramdas Pophale) SiO2 
 PCOD8282920
Probable space group: C C C A
;
_chemical_formula_sum "Si O2"
_cell_formula_units_Z 52
_cell_length_a 22.101154
_cell_length_b 11.471216
_cell_length_c 11.324724
_cell_angle_alpha 90.000000
_cell_angle_beta 90.000000
_cell_angle_gamma 90.000000
_cell_volume 2871.124563
_symmetry_space_group_name_H-M "C C C A"
_symmetry_group_IT_number 68
_space_group.IT_coordinate_system_code '2'
_symmetry_cell_setting 'orthorhombic'
loop_
_space_group_symop_operation_xyz
x,y,z
-x,1/2-y,z
x,1/2-y,1/2-z
-x,y,1/2-z
-x,-y,-z
x,1/2+y,-z
-x,1/2+y,1/2+z
x,-y,1/2+z
1/2+x,1/2+y,z
1/2-x,-y,z
1/2+x,-y,1/2-z
1/2-x,1/2+y,1/2-z
1/2-x,1/2-y,-z
1/2+x,y,-z
1/2-x,y,1/2+z
1/2+x,1/2-y,1/2+z
loop_
_atom_site_type_symbol
_atom_site_label
_atom_site_fract_x
_atom_site_fract_y
_atom_site_fract_z
Si Si1 0.116076 0.844049 0.338845
Si Si2 0.811688 0.437752 0.283314
Si Si3 0.811462 0.282403 0.063551
Si Si4 0.500000 0.750000 0.750000
O O1 0.147292 0.750000 0.250000
O O2 0.137193 0.819724 0.471486
O O3 0.042955 0.831082 0.332453
O O4 0.133775 0.970961 0.291435
O O5 0.750000 0.500000 0.327898
O O6 0.801931 0.391995 0.150450
O O7 0.832090 0.331976 0.366505
O O8 0.750000 0.250000 0.000000
#
# Coordination Sequence:
#
# PCOD8282920 Si02
#       4
#    16  16  16   4
#     4  10  22  41  64  87 121 168 217 251 313 374
#     4  11  23  36  59  95 130 163 203 263 327 377
#     4  11  23  37  58  95 131 162 204 263 326 377
#     4   8  24  44  64  92 120 184 216 250 304 392
#
# _framework density 18.111370000000001
#
# number of rings (size 3 to 8) (size 9 to 14) (size 15 to 20)
#    0.923    0.615    3.077    1.846    8.615    0.000 
#    0.000    6.154    0.000    3.692    0.000    0.000 
#    0.000    0.000    0.000    0.000    0.000    0.000 
#
# Total GULP energy -322337.849900 kJ/mol
# GULP energy per Si atom -12397.609612 kJ/mol
# Density = 1.807015 g / cm^3
# Si number density = 18.111370 Si / 1000 Ang^3
#
#
#
# Elastic Constant Matrix: (Units=GPa)
#
#
# Indices 1 2 3 4 5 6 
#
# 1 125.8159 49.7654 42.7518 0.0000 0.0000 0.0000
# 2 49.7654 130.8322 53.3653 0.0000 0.0000 0.0000
# 3 42.7518 53.3653 114.5140 0.0000 0.0000 0.0000
# 4 0.0000 0.0000 0.0000 27.9162 0.0000 0.0000
# 5 0.0000 0.0000 0.0000 0.0000 30.0963 0.0000
# 6 0.0000 0.0000 0.0000 0.0000 0.0000 34.7557
#
#
#
# Elastic Compliance Matrix: (Units=1/GPa)
#
#
# Indices 1 2 3 4 5 6 
#
# 1 0.009857 -0.002776 -0.002386 0.000000 0.000000 0.000000
# 2 -0.002776 0.010219 -0.003726 0.000000 0.000000 0.000000
# 3 -0.002386 -0.003726 0.011360 0.000000 0.000000 0.000000
# 4 0.000000 0.000000 0.000000 0.035822 0.000000 0.000000
# 5 0.000000 0.000000 0.000000 0.000000 0.033227 0.000000
# 6 0.000000 0.000000 0.000000 0.000000 0.000000 0.028772
#
#
# Mechanical properties :
#
#
# Convention : Reuss Voigt Hill
#
# Bulk Modulus (GPa) = 73.20919 73.65858 73.43388
# Shear Modulus (GPa) = 32.98465 33.57229 33.27847
#
# Velocity S-wave (km/s) = 4.27220 4.31008 4.29118
# Velocity P-wave (km/s) = 8.05264 8.09489 8.07379
#
# Compressibility (1/GPa) = 0.01365949
#
# Stress axis : x y z
#
# Youngs Moduli (GPa) = 101.45077 97.85643 88.03024
#
# Poissons Ratio (x) = 0.27165 0.21006
# Poissons Ratio (y) = 0.28163 0.32799
# Poissons Ratio (z) = 0.24209 0.36460
#
# Static dielectric constant tensor:
#      x y z
#    x 3.041260 0.000000 0.000000 
#    y 0.000000 3.585340 0.000000 
#    z 0.000000 0.000000 3.615420 
# 
# 
# High freq. dielectric constant tensor:
#      x y z
#    x 1.669660 0.000000 0.000000 
#    y 0.000000 1.715260 0.000000 
#    z 0.000000 0.000000 1.708050 
# 
# From -- ./inp_files/3809.got.cif
#   From: 2010.03.12/outbox.cif.g09.slc.cpg/sg68_2_cif.got.tgz:3809.got - 2010.04.10 23:14:56.
