data_PCOD8282273
_publ_section_title
;
Structure prediction by ZEFSAII (Michael W. Deem and Ramdas Pophale) SiO2 
 PCOD8282273
Probable space group: C C C A
;
_chemical_formula_sum "Si O2"
_cell_formula_units_Z 72
_cell_length_a 10.182402
_cell_length_b 13.930079
_cell_length_c 24.011171
_cell_angle_alpha 90.000000
_cell_angle_beta 90.000000
_cell_angle_gamma 90.000000
_cell_volume 3405.784456
_symmetry_space_group_name_H-M "C C C A"
_symmetry_group_IT_number 68
_space_group.IT_coordinate_system_code '2'
_symmetry_cell_setting 'orthorhombic'
loop_
_space_group_symop_operation_xyz
x,y,z
-x,1/2-y,z
x,1/2-y,1/2-z
-x,y,1/2-z
-x,-y,-z
x,1/2+y,-z
-x,1/2+y,1/2+z
x,-y,1/2+z
1/2+x,1/2+y,z
1/2-x,-y,z
1/2+x,-y,1/2-z
1/2-x,1/2+y,1/2-z
1/2-x,1/2-y,-z
1/2+x,y,-z
1/2-x,y,1/2+z
1/2+x,1/2-y,1/2+z
loop_
_atom_site_type_symbol
_atom_site_label
_atom_site_fract_x
_atom_site_fract_y
_atom_site_fract_z
Si Si1 0.872316 0.071372 0.218171
Si Si2 0.778239 0.750000 0.250000
Si Si3 0.000000 0.750000 0.518959
Si Si4 0.080368 0.105221 0.927372
Si Si5 0.119795 0.097861 0.406206
Si Si6 0.000000 0.250000 0.659424
O O1 0.818335 0.160116 0.253561
O O2 0.925634 0.104602 0.157812
O O3 0.000000 0.026583 0.250000
O O4 0.750000 0.000000 0.212660
O O5 0.868218 0.747318 0.304736
O O6 0.076018 0.830214 0.482782
O O7 0.098315 0.694685 0.559218
O O8 0.224828 0.091065 0.904282
O O9 0.992506 0.155238 0.879454
O O10 0.041253 0.992485 0.935465
#
# Coordination Sequence:
#
# PCOD8282273 Si02
#       6
#    16   8   8  16  16   8
#     4  12  27  44  70  98 140 177 220 276 341 401
#     4  11  23  40  66  98 134 174 226 274 330 400
#     4  11  24  37  69  93 125 170 235 272 342 392
#     4  10  21  42  63  92 129 177 219 274 338 393
#     4  11  22  42  64  93 136 172 216 287 330 396
#     4  10  20  37  70  96 129 180 228 266 332 414
#
# _framework density 21.140502999999999
#
# number of rings (size 3 to 8) (size 9 to 14) (size 15 to 20)
#    0.000    1.111    4.444    1.667    9.333    0.000 
#    0.000    0.000    4.889    0.000    0.000    0.000 
#    0.000    0.000    0.000    0.000    0.000    0.000 
#
# Total GULP energy -446127.865179 kJ/mol
# GULP energy per Si atom -12392.440699 kJ/mol
# Density = 2.109239 g / cm^3
# Si number density = 21.140503 Si / 1000 Ang^3
#
#
#
# Elastic Constant Matrix: (Units=GPa)
#
#
# Indices 1 2 3 4 5 6 
#
# 1 72.3753 23.3237 34.5921 0.0000 0.0000 0.0000
# 2 23.3237 105.8768 35.5037 0.0000 0.0000 0.0000
# 3 34.5921 35.5037 121.7903 0.0000 0.0000 0.0000
# 4 0.0000 0.0000 0.0000 -4.1217 0.0000 0.0000
# 5 0.0000 0.0000 0.0000 0.0000 16.8944 0.0000
# 6 0.0000 0.0000 0.0000 0.0000 0.0000 33.3040
#
#
#
# Elastic Compliance Matrix: (Units=1/GPa)
#
#
# Indices 1 2 3 4 5 6 
#
# 1 0.016470 -0.002283 -0.004013 0.000000 0.000000 0.000000
# 2 -0.002283 0.010785 -0.002496 0.000000 0.000000 0.000000
# 3 -0.004013 -0.002496 0.010078 0.000000 0.000000 0.000000
# 4 0.000000 0.000000 0.000000 -0.242618 0.000000 0.000000
# 5 0.000000 0.000000 0.000000 0.000000 0.059191 0.000000
# 6 0.000000 0.000000 0.000000 0.000000 0.000000 0.030026
#
#
# Mechanical properties :
#
#
# Convention : Reuss Voigt Hill
#
# Bulk Modulus (GPa) = 50.62966 54.09795 52.36380
# Shear Modulus (GPa) = -54.40575 22.99020 -15.70777
#
# Velocity S-wave (km/s) = -5.07850 3.30130 -2.72879
# Velocity P-wave (km/s) = 3.22291 6.33851 3.85938
#
# Compressibility (1/GPa) = 0.01975127
#
# Stress axis : x y z
#
# Youngs Moduli (GPa) = 60.71509 92.72460 99.22580
#
# Poissons Ratio (x) = 0.21166 0.39816
# Poissons Ratio (y) = 0.13860 0.24762
# Poissons Ratio (z) = 0.24363 0.23140
#
# Static dielectric constant tensor:
#      x y z
#    x 3.584180 0.000000 0.000000 
#    y 0.000000 4.349710 0.000000 
#    z 0.000000 0.000000 3.823670 
# 
# 
# High freq. dielectric constant tensor:
#      x y z
#    x 1.804950 0.000000 0.000000 
#    y 0.000000 1.844740 0.000000 
#    z 0.000000 0.000000 1.836160 
# 
# From -- ./inp_files/45107.got.cif
#   From: 2010.03.12/outbox.cif.g09.slc.cpg/sg68_23_cif.got.tgz:45107.got - 2010.04.10 23:14:56.
