data_PCOD8282421
_publ_section_title
;
Structure prediction by ZEFSAII (Michael W. Deem and Ramdas Pophale) SiO2 
 PCOD8282421
Probable space group: C C C A
;
_chemical_formula_sum "Si O2"
_cell_formula_units_Z 60
_cell_length_a 29.819681
_cell_length_b 5.435684
_cell_length_c 16.231518
_cell_angle_alpha 90.000000
_cell_angle_beta 90.000000
_cell_angle_gamma 90.000000
_cell_volume 2630.972643
_symmetry_space_group_name_H-M "C C C A"
_symmetry_group_IT_number 68
_space_group.IT_coordinate_system_code '2'
_symmetry_cell_setting 'orthorhombic'
loop_
_space_group_symop_operation_xyz
x,y,z
-x,1/2-y,z
x,1/2-y,1/2-z
-x,y,1/2-z
-x,-y,-z
x,1/2+y,-z
-x,1/2+y,1/2+z
x,-y,1/2+z
1/2+x,1/2+y,z
1/2-x,-y,z
1/2+x,-y,1/2-z
1/2-x,1/2+y,1/2-z
1/2-x,1/2-y,-z
1/2+x,y,-z
1/2-x,y,1/2+z
1/2+x,1/2-y,1/2+z
loop_
_atom_site_type_symbol
_atom_site_label
_atom_site_fract_x
_atom_site_fract_y
_atom_site_fract_z
Si Si1 0.301876 0.989446 0.417485
Si Si2 0.569520 0.397266 0.669713
Si Si3 0.837110 0.012438 0.901263
Si Si4 0.500000 0.750000 0.050779
Si Si5 0.500000 0.750000 0.750000
O O1 0.331920 0.985583 0.499930
O O2 0.314095 0.236774 0.365876
O O3 0.250000 0.000000 0.442635
O O4 0.313590 0.739179 0.366857
O O5 0.585988 0.250000 0.750000
O O6 0.611538 0.525990 0.626304
O O7 0.545191 0.217955 0.605219
O O8 0.531643 0.594456 0.690833
O O9 0.500000 0.500000 0.000000
#
# Coordination Sequence:
#
# PCOD8282421 Si02
#       5
#    16  16  16   8   4
#     4  10  20  41  68 106 142 178 221 297 369 412
#     4  12  27  47  70 101 146 200 237 289 371 433
#     4  10  22  35  68 101 132 175 238 280 333 430
#     4  12  28  44  73 103 140 180 246 314 350 418
#     4  12  24  52  72  88 148 210 242 270 366 446
#
# _framework density 22.805254999999999
#
# number of rings (size 3 to 8) (size 9 to 14) (size 15 to 20)
#    0.000    1.067    2.667    4.800   11.200    0.000 
#    0.000    0.000    0.000    4.800    0.000    0.000 
#    0.000    0.000    0.000    0.000    0.000    0.000 
#
# Total GULP energy -371837.781903 kJ/mol
# GULP energy per Si atom -12394.592730 kJ/mol
# Density = 2.275335 g / cm^3
# Si number density = 22.805255 Si / 1000 Ang^3
#
#
#
# Elastic Constant Matrix: (Units=GPa)
#
#
# Indices 1 2 3 4 5 6 
#
# 1 183.7945 68.5098 56.9739 0.0000 0.0000 0.0000
# 2 68.5098 222.7372 31.3213 0.0000 0.0000 0.0000
# 3 56.9739 31.3213 71.6164 0.0000 0.0000 0.0000
# 4 0.0000 0.0000 0.0000 5.0103 0.0000 0.0000
# 5 0.0000 0.0000 0.0000 0.0000 17.9139 0.0000
# 6 0.0000 0.0000 0.0000 0.0000 0.0000 39.7381
#
#
#
# Elastic Compliance Matrix: (Units=1/GPa)
#
#
# Indices 1 2 3 4 5 6 
#
# 1 0.007729 -0.001612 -0.005444 0.000000 0.000000 0.000000
# 2 -0.001612 0.005120 -0.000957 0.000000 0.000000 0.000000
# 3 -0.005444 -0.000957 0.018713 0.000000 0.000000 0.000000
# 4 0.000000 0.000000 0.000000 0.199588 0.000000 0.000000
# 5 0.000000 0.000000 0.000000 0.000000 0.055823 0.000000
# 6 0.000000 0.000000 0.000000 0.000000 0.000000 0.025165
#
#
# Mechanical properties :
#
#
# Convention : Reuss Voigt Hill
#
# Bulk Modulus (GPa) = 64.36500 87.97311 76.16905
# Shear Modulus (GPa) = 14.99964 33.95534 24.47749
#
# Velocity S-wave (km/s) = 2.56740 3.86285 3.27972
# Velocity P-wave (km/s) = 6.08882 7.65212 6.91479
#
# Compressibility (1/GPa) = 0.01553639
#
# Stress axis : x y z
#
# Youngs Moduli (GPa) = 129.37872 195.31537 53.43958
#
# Poissons Ratio (x) = 0.31482 0.29093
# Poissons Ratio (y) = 0.20854 0.05114
# Poissons Ratio (z) = 0.70434 0.18690
#
# Static dielectric constant tensor:
#      x y z
#    x 4.113380 0.000000 0.000000 
#    y 0.000000 5.980560 0.000000 
#    z 0.000000 0.000000 2.476390 
# 
# 
# High freq. dielectric constant tensor:
#      x y z
#    x 1.901930 0.000000 0.000000 
#    y 0.000000 1.931900 0.000000 
#    z 0.000000 0.000000 1.856110 
# 
# From -- ./inp_files/33876.got.cif
#   From: 2010.03.12/outbox.cif.g09.slc.cpg/sg68_17_cif.got.tgz:33876.got - 2010.04.10 23:14:56.
