data_PCOD8282138
_publ_section_title
;
Structure prediction by ZEFSAII (Michael W. Deem and Ramdas Pophale) SiO2 
 PCOD8282138
Probable space group: C C C A
;
_chemical_formula_sum "Si O2"
_cell_formula_units_Z 72
_cell_length_a 13.671431
_cell_length_b 30.161938
_cell_length_c 8.948619
_cell_angle_alpha 90.000000
_cell_angle_beta 90.000000
_cell_angle_gamma 90.000000
_cell_volume 3690.024380
_symmetry_space_group_name_H-M "C C C A"
_symmetry_group_IT_number 68
_space_group.IT_coordinate_system_code '2'
_symmetry_cell_setting 'orthorhombic'
loop_
_space_group_symop_operation_xyz
x,y,z
-x,1/2-y,z
x,1/2-y,1/2-z
-x,y,1/2-z
-x,-y,-z
x,1/2+y,-z
-x,1/2+y,1/2+z
x,-y,1/2+z
1/2+x,1/2+y,z
1/2-x,-y,z
1/2+x,-y,1/2-z
1/2-x,1/2+y,1/2-z
1/2-x,1/2-y,-z
1/2+x,y,-z
1/2-x,y,1/2+z
1/2+x,1/2-y,1/2+z
loop_
_atom_site_type_symbol
_atom_site_label
_atom_site_fract_x
_atom_site_fract_y
_atom_site_fract_z
Si Si1 0.682550 0.362731 0.379241
Si Si2 0.879336 0.872817 0.461057
Si Si3 0.549474 0.938755 0.513666
Si Si4 0.500000 0.505886 0.250000
Si Si5 0.023722 0.202109 0.922709
O O1 0.796482 0.367098 0.413921
O O2 0.666278 0.368785 0.203304
O O3 0.629487 0.401165 0.471155
O O4 0.636419 0.315427 0.435460
O O5 0.938623 0.918984 0.474569
O O6 0.953738 0.833436 0.500033
O O7 0.566460 0.962456 0.354378
O O8 0.566418 0.975029 0.643788
O O9 0.000000 0.250000 0.997389
O O10 0.000000 0.204715 0.750000
#
# Coordination Sequence:
#
# PCOD8282138 Si02
#       5
#    16  16  16   8  16
#     4  10  20  35  55  80 110 142 178 218 265 318
#     4  10  20  35  55  80 110 142 178 218 265 318
#     4  10  20  39  55  77 106 145 175 222 266 320
#     4  10  20  36  62  74 104 140 184 220 268 310
#     4   8  16  34  57  78 106 145 179 213 261 316
#
# _framework density 19.512067999999999
#
# number of rings (size 3 to 8) (size 9 to 14) (size 15 to 20)
#    0.000    2.444    2.222    1.333    3.111    0.889 
#    0.000    6.667    0.000    1.333    0.000    0.000 
#    0.000    0.000    0.000    0.000    0.000    0.000 
#
# Total GULP energy -446136.241841 kJ/mol
# GULP energy per Si atom -12392.673384 kJ/mol
# Density = 1.946766 g / cm^3
# Si number density = 19.512068 Si / 1000 Ang^3
#
#
#
# Elastic Constant Matrix: (Units=GPa)
#
#
# Indices 1 2 3 4 5 6 
#
# 1 91.8443 20.5063 16.2996 0.0000 0.0000 0.0000
# 2 20.5063 108.5055 30.9666 0.0000 0.0000 0.0000
# 3 16.2996 30.9666 70.7374 0.0000 0.0000 0.0000
# 4 0.0000 0.0000 0.0000 15.5762 0.0000 0.0000
# 5 0.0000 0.0000 0.0000 0.0000 24.6841 0.0000
# 6 0.0000 0.0000 0.0000 0.0000 0.0000 10.9450
#
#
#
# Elastic Compliance Matrix: (Units=1/GPa)
#
#
# Indices 1 2 3 4 5 6 
#
# 1 0.011600 -0.001634 -0.001958 0.000000 0.000000 0.000000
# 2 -0.001634 0.010762 -0.004335 0.000000 0.000000 0.000000
# 3 -0.001958 -0.004335 0.016486 0.000000 0.000000 0.000000
# 4 0.000000 0.000000 0.000000 0.064201 0.000000 0.000000
# 5 0.000000 0.000000 0.000000 0.000000 0.040512 0.000000
# 6 0.000000 0.000000 0.000000 0.000000 0.000000 0.091366
#
#
# Mechanical properties :
#
#
# Convention : Reuss Voigt Hill
#
# Bulk Modulus (GPa) = 43.48723 45.18137 44.33430
# Shear Modulus (GPa) = 19.34656 23.79536 21.57096
#
# Velocity S-wave (km/s) = 3.15225 3.49595 3.32854
# Velocity P-wave (km/s) = 5.96529 6.28502 6.12724
#
# Compressibility (1/GPa) = 0.02299526
#
# Stress axis : x y z
#
# Youngs Moduli (GPa) = 86.20557 92.91976 60.65902
#
# Poissons Ratio (x) = 0.15179 0.11876
# Poissons Ratio (y) = 0.14082 0.26295
# Poissons Ratio (z) = 0.16878 0.40279
#
# Static dielectric constant tensor:
#      x y z
#    x 3.346090 0.000000 0.000000 
#    y 0.000000 4.196980 0.000000 
#    z 0.000000 0.000000 3.380970 
# 
# 
# High freq. dielectric constant tensor:
#      x y z
#    x 1.730980 0.000000 0.000000 
#    y 0.000000 1.772650 0.000000 
#    z 0.000000 0.000000 1.746040 
# 
# From -- ./inp_files/5311.got.cif
#   From: 2010.03.12/outbox.cif.g09.slc.cpg/sg68_3_cif.got.tgz:5311.got - 2010.04.10 23:14:56.
