data_PCOD8282979
_publ_section_title
;
Structure prediction by ZEFSAII (Michael W. Deem and Ramdas Pophale) SiO2 
 PCOD8282979
Probable space group: C C C A
;
_chemical_formula_sum "Si O2"
_cell_formula_units_Z 52
_cell_length_a 9.010532
_cell_length_b 29.771933
_cell_length_c 10.163380
_cell_angle_alpha 90.000000
_cell_angle_beta 90.000000
_cell_angle_gamma 90.000000
_cell_volume 2726.438025
_symmetry_space_group_name_H-M "C C C A"
_symmetry_group_IT_number 68
_space_group.IT_coordinate_system_code '2'
_symmetry_cell_setting 'orthorhombic'
loop_
_space_group_symop_operation_xyz
x,y,z
-x,1/2-y,z
x,1/2-y,1/2-z
-x,y,1/2-z
-x,-y,-z
x,1/2+y,-z
-x,1/2+y,1/2+z
x,-y,1/2+z
1/2+x,1/2+y,z
1/2-x,-y,z
1/2+x,-y,1/2-z
1/2-x,1/2+y,1/2-z
1/2-x,1/2-y,-z
1/2+x,y,-z
1/2-x,y,1/2+z
1/2+x,1/2-y,1/2+z
loop_
_atom_site_type_symbol
_atom_site_label
_atom_site_fract_x
_atom_site_fract_y
_atom_site_fract_z
Si Si1 0.589566 0.977865 0.616557
Si Si2 0.083629 0.873949 0.385656
Si Si3 0.409294 0.336129 0.629073
Si Si4 0.000000 0.750000 0.750000
O O1 0.500000 0.985313 0.750000
O O2 0.604190 0.925892 0.578701
O O3 0.500000 0.000000 0.500000
O O4 0.750000 0.000000 0.632131
O O5 0.244383 0.853301 0.374314
O O6 0.000000 0.867278 0.250000
O O7 0.991478 0.847557 0.494632
O O8 0.500000 0.359269 0.750000
O O9 0.402093 0.282147 0.654469
#
# Coordination Sequence:
#
# PCOD8282979 Si02
#       4
#    16  16  16   4
#     4  11  24  40  61  93 128 167 211 255 303 366
#     4  11  23  40  65  94 124 167 208 254 313 364
#     4  10  22  43  63  91 127 160 205 259 311 373
#     4   8  24  44  64  92 124 156 212 252 320 368
#
# _framework density 19.072503999999999
#
# number of rings (size 3 to 8) (size 9 to 14) (size 15 to 20)
#    0.923    0.615    0.000    4.615    0.000   11.077 
#    0.000    0.000    0.000    0.000    0.000    0.000 
#    0.000    0.000    0.000    0.000    0.000    0.000 
#
# Total GULP energy -322340.897400 kJ/mol
# GULP energy per Si atom -12397.726823 kJ/mol
# Density = 1.902909 g / cm^3
# Si number density = 19.072504 Si / 1000 Ang^3
#
#
#
# Elastic Constant Matrix: (Units=GPa)
#
#
# Indices 1 2 3 4 5 6 
#
# 1 182.4967 95.5467 55.1854 0.0000 0.0000 0.0000
# 2 95.5467 167.9499 93.6592 0.0000 0.0000 0.0000
# 3 55.1854 93.6592 103.9848 0.0000 0.0000 0.0000
# 4 0.0000 0.0000 0.0000 33.8255 0.0000 0.0000
# 5 0.0000 0.0000 0.0000 0.0000 -66.4698 0.0000
# 6 0.0000 0.0000 0.0000 0.0000 0.0000 7.2753
#
#
#
# Elastic Compliance Matrix: (Units=1/GPa)
#
#
# Indices 1 2 3 4 5 6 
#
# 1 0.007808 -0.004282 -0.000287 0.000000 0.000000 0.000000
# 2 -0.004282 0.014311 -0.010618 0.000000 0.000000 0.000000
# 3 -0.000287 -0.010618 0.019332 0.000000 0.000000 0.000000
# 4 0.000000 0.000000 0.000000 0.029564 0.000000 0.000000
# 5 0.000000 0.000000 0.000000 0.000000 -0.015044 0.000000
# 6 0.000000 0.000000 0.000000 0.000000 0.000000 0.137451
#
#
# Mechanical properties :
#
#
# Convention : Reuss Voigt Hill
#
# Bulk Modulus (GPa) = 90.26516 104.80156 97.53336
# Shear Modulus (GPa) = 21.97917 8.92887 15.45402
#
# Velocity S-wave (km/s) = 3.39839 2.16603 2.84963
# Velocity P-wave (km/s) = 7.92646 7.83096 7.87886
#
# Compressibility (1/GPa) = 0.01107847
#
# Stress axis : x y z
#
# Youngs Moduli (GPa) = 128.07023 69.87494 51.72639
#
# Poissons Ratio (x) = 0.29921 0.01485
# Poissons Ratio (y) = 0.54840 0.54921
# Poissons Ratio (z) = 0.03676 0.74191
#
# Static dielectric constant tensor:
#      x y z
#    x 5.193450 0.000000 0.000000 
#    y 0.000000 3.583060 0.000000 
#    z 0.000000 0.000000 3.616580 
# 
# 
# High freq. dielectric constant tensor:
#      x y z
#    x 1.754000 0.000000 0.000000 
#    y 0.000000 1.747340 0.000000 
#    z 0.000000 0.000000 1.757680 
# 
# From -- ./inp_files/10682.got.cif
#   From: 2010.03.12/outbox.cif.g09.slc.cpg/sg68_6_cif.got.tgz:10682.got - 2010.04.10 23:14:56.
