data_PCOD8282517
_publ_section_title
;
Structure prediction by ZEFSAII (Michael W. Deem and Ramdas Pophale) SiO2 
 PCOD8282517
Probable space group: C C C A
;
_chemical_formula_sum "Si O2"
_cell_formula_units_Z 96
_cell_length_a 17.508807
_cell_length_b 10.140674
_cell_length_c 26.959131
_cell_angle_alpha 90.000000
_cell_angle_beta 90.000000
_cell_angle_gamma 90.000000
_cell_volume 4786.623470
_symmetry_space_group_name_H-M "C C C A"
_symmetry_group_IT_number 68
_space_group.IT_coordinate_system_code '2'
_symmetry_cell_setting 'orthorhombic'
loop_
_space_group_symop_operation_xyz
x,y,z
-x,1/2-y,z
x,1/2-y,1/2-z
-x,y,1/2-z
-x,-y,-z
x,1/2+y,-z
-x,1/2+y,1/2+z
x,-y,1/2+z
1/2+x,1/2+y,z
1/2-x,-y,z
1/2+x,-y,1/2-z
1/2-x,1/2+y,1/2-z
1/2-x,1/2-y,-z
1/2+x,y,-z
1/2-x,y,1/2+z
1/2+x,1/2-y,1/2+z
loop_
_atom_site_type_symbol
_atom_site_label
_atom_site_fract_x
_atom_site_fract_y
_atom_site_fract_z
Si Si1 0.594255 0.543060 0.607289
Si Si2 0.584076 0.276059 0.191897
Si Si3 0.334160 0.789258 0.943414
Si Si4 0.838271 0.300109 0.057133
Si Si5 0.166737 0.955299 0.353556
Si Si6 0.952308 0.369707 0.384278
O O1 0.605146 0.581809 0.666457
O O2 0.607961 0.674544 0.574596
O O3 0.654097 0.431334 0.590671
O O4 0.509455 0.484715 0.596734
O O5 0.500000 0.250000 0.169245
O O6 0.580744 0.250000 0.250000
O O7 0.649489 0.175960 0.176121
O O8 0.247022 0.747847 0.933844
O O9 0.343669 0.923320 0.912043
O O10 0.351571 0.830872 0.999414
O O11 0.900905 0.189951 0.071329
O O12 0.250000 0.000000 0.337381
O O13 0.105045 0.070813 0.342616
O O14 0.000000 0.250000 0.359288
#
# Coordination Sequence:
#
# PCOD8282517 Si02
#       6
#    16  16  16  16  16  16
#     4  10  21  38  58  86 119 154 205 251 294 360
#     4  10  21  41  68  91 112 155 204 254 314 370
#     4  10  22  34  59  85 119 165 208 235 293 354
#     4  10  21  37  54  86 124 168 195 243 297 355
#     4  11  21  39  63  86 120 157 197 254 297 356
#     4  10  21  38  56  83 121 159 196 246 301 346
#
# _framework density 20.055892
#
# number of rings (size 3 to 8) (size 9 to 14) (size 15 to 20)
#    0.000    1.833    3.333    0.500    2.333    0.667 
#    6.000    3.333    0.000    3.000    0.000    0.000 
#    0.000    0.000    0.000    0.000    0.000    0.000 
#
# Total GULP energy -594656.282949 kJ/mol
# GULP energy per Si atom -12388.672561 kJ/mol
# Density = 2.001024 g / cm^3
# Si number density = 20.055892 Si / 1000 Ang^3
#
#
#
# Elastic Constant Matrix: (Units=GPa)
#
#
# Indices 1 2 3 4 5 6 
#
# 1 124.2741 59.4767 24.5939 0.0000 0.0000 0.0000
# 2 59.4767 106.0781 41.2339 0.0000 0.0000 0.0000
# 3 24.5939 41.2339 92.2911 0.0000 0.0000 0.0000
# 4 0.0000 0.0000 0.0000 17.6184 0.0000 0.0000
# 5 0.0000 0.0000 0.0000 0.0000 15.8239 0.0000
# 6 0.0000 0.0000 0.0000 0.0000 0.0000 41.2298
#
#
#
# Elastic Compliance Matrix: (Units=1/GPa)
#
#
# Indices 1 2 3 4 5 6 
#
# 1 0.011001 -0.006086 -0.000213 0.000000 0.000000 0.000000
# 2 -0.006086 0.014775 -0.004979 0.000000 0.000000 0.000000
# 3 -0.000213 -0.004979 0.013117 0.000000 0.000000 0.000000
# 4 0.000000 0.000000 0.000000 0.056759 0.000000 0.000000
# 5 0.000000 0.000000 0.000000 0.000000 0.063196 0.000000
# 6 0.000000 0.000000 0.000000 0.000000 0.000000 0.024254
#
#
# Mechanical properties :
#
#
# Convention : Reuss Voigt Hill
#
# Bulk Modulus (GPa) = 61.20958 63.69468 62.45213
# Shear Modulus (GPa) = 23.68517 28.09035 25.88776
#
# Velocity S-wave (km/s) = 3.44024 3.74652 3.59664
# Velocity P-wave (km/s) = 6.80926 7.10934 6.96092
#
# Compressibility (1/GPa) = 0.01633731
#
# Stress axis : x y z
#
# Youngs Moduli (GPa) = 90.89768 67.68325 76.23903
#
# Poissons Ratio (x) = 0.41190 0.01622
# Poissons Ratio (y) = 0.55317 0.37962
# Poissons Ratio (z) = 0.01934 0.33702
#
# Static dielectric constant tensor:
#      x y z
#    x 3.945600 0.000000 0.000000 
#    y 0.000000 3.856670 0.000000 
#    z 0.000000 0.000000 3.466950 
# 
# 
# High freq. dielectric constant tensor:
#      x y z
#    x 1.801390 0.000000 0.000000 
#    y 0.000000 1.791870 0.000000 
#    z 0.000000 0.000000 1.740260 
# 
# From -- ./inp_files/51757.got.cif
#   From: 2010.03.12/outbox.cif.g09.slc.cpg/sg68_26_cif.got.tgz:51757.got - 2010.04.10 23:14:56.
