data_PCOD8282378
_publ_section_title
;
Structure prediction by ZEFSAII (Michael W. Deem and Ramdas Pophale) SiO2 
 PCOD8282378
Probable space group: C C C A
;
_chemical_formula_sum "Si O2"
_cell_formula_units_Z 80
_cell_length_a 22.971290
_cell_length_b 13.062748
_cell_length_c 13.012947
_cell_angle_alpha 90.000000
_cell_angle_beta 90.000000
_cell_angle_gamma 90.000000
_cell_volume 3904.771225
_symmetry_space_group_name_H-M "C C C A"
_symmetry_group_IT_number 68
_space_group.IT_coordinate_system_code '2'
_symmetry_cell_setting 'orthorhombic'
loop_
_space_group_symop_operation_xyz
x,y,z
-x,1/2-y,z
x,1/2-y,1/2-z
-x,y,1/2-z
-x,-y,-z
x,1/2+y,-z
-x,1/2+y,1/2+z
x,-y,1/2+z
1/2+x,1/2+y,z
1/2-x,-y,z
1/2+x,-y,1/2-z
1/2-x,1/2+y,1/2-z
1/2-x,1/2-y,-z
1/2+x,y,-z
1/2-x,y,1/2+z
1/2+x,1/2-y,1/2+z
loop_
_atom_site_type_symbol
_atom_site_label
_atom_site_fract_x
_atom_site_fract_y
_atom_site_fract_z
Si Si1 0.000000 0.250000 0.957115
Si Si2 0.592630 0.103749 0.979306
Si Si3 0.354902 0.071594 0.304282
Si Si4 0.723679 0.250000 0.250000
Si Si5 0.458622 0.556983 0.838041
Si Si6 0.796597 0.920873 0.839380
O O1 0.011876 0.344050 0.883755
O O2 0.057979 0.213688 0.020180
O O3 0.651115 0.109591 0.913821
O O4 0.547866 0.025341 0.927905
O O5 0.608988 0.057785 0.091123
O O6 0.314872 0.171797 0.317487
O O7 0.397058 0.091339 0.208015
O O8 0.318139 0.970420 0.270019
O O9 0.764290 0.313865 0.174340
O O10 0.500000 0.509206 0.750000
O O11 0.750000 0.000000 0.890696
#
# Coordination Sequence:
#
# PCOD8282378 Si02
#       6
#     8  16  16   8  16  16
#     4  12  23  38  65  96 122 166 213 262 305 388
#     4  11  24  40  62  96 125 165 212 262 315 383
#     4  10  21  38  65  88 120 161 209 254 315 374
#     4  10  20  40  61  89 122 162 204 262 312 370
#     4  11  23  41  63  88 129 164 206 258 314 376
#     4   9  22  41  60  89 126 165 206 259 322 373
#
# _framework density 20.487756999999998
#
# number of rings (size 3 to 8) (size 9 to 14) (size 15 to 20)
#    0.000    1.600    2.000    2.100    0.000    4.800 
#    3.600    0.000    0.000    0.000    0.000    0.000 
#    0.000    0.000    0.000    0.000    0.000    0.000 
#
# Total GULP energy -495797.806519 kJ/mol
# GULP energy per Si atom -12394.945163 kJ/mol
# Density = 2.044113 g / cm^3
# Si number density = 20.487757 Si / 1000 Ang^3
#
#
#
# Elastic Constant Matrix: (Units=GPa)
#
#
# Indices 1 2 3 4 5 6 
#
# 1 119.7064 37.7810 45.2610 0.0000 0.0000 0.0000
# 2 37.7810 73.9761 42.4814 0.0000 0.0000 0.0000
# 3 45.2610 42.4814 101.4224 0.0000 0.0000 0.0000
# 4 0.0000 0.0000 0.0000 17.0488 0.0000 0.0000
# 5 0.0000 0.0000 0.0000 0.0000 35.5853 0.0000
# 6 0.0000 0.0000 0.0000 0.0000 0.0000 33.8078
#
#
#
# Elastic Compliance Matrix: (Units=1/GPa)
#
#
# Indices 1 2 3 4 5 6 
#
# 1 0.010729 -0.003595 -0.003282 0.000000 0.000000 0.000000
# 2 -0.003595 0.019003 -0.006356 0.000000 0.000000 0.000000
# 3 -0.003282 -0.006356 0.013987 0.000000 0.000000 0.000000
# 4 0.000000 0.000000 0.000000 0.058655 0.000000 0.000000
# 5 0.000000 0.000000 0.000000 0.000000 0.028101 0.000000
# 6 0.000000 0.000000 0.000000 0.000000 0.000000 0.029579
#
#
# Mechanical properties :
#
#
# Convention : Reuss Voigt Hill
#
# Bulk Modulus (GPa) = 57.95724 60.68352 59.32038
# Shear Modulus (GPa) = 26.00482 28.59382 27.29932
#
# Velocity S-wave (km/s) = 3.56657 3.73990 3.65426
# Velocity P-wave (km/s) = 6.73132 6.95218 6.84264
#
# Compressibility (1/GPa) = 0.01725410
#
# Stress axis : x y z
#
# Youngs Moduli (GPa) = 93.20170 52.62194 71.49679
#
# Poissons Ratio (x) = 0.18916 0.23469
# Poissons Ratio (y) = 0.33504 0.45440
# Poissons Ratio (z) = 0.30593 0.33444
#
# Static dielectric constant tensor:
#      x y z
#    x 4.373770 0.000000 0.000000 
#    y 0.000000 3.904660 0.000000 
#    z 0.000000 0.000000 3.562010 
# 
# 
# High freq. dielectric constant tensor:
#      x y z
#    x 1.833770 0.000000 0.000000 
#    y 0.000000 1.790160 0.000000 
#    z 0.000000 0.000000 1.780970 
# 
# From -- ./inp_files/16267.got.cif
#   From: 2010.03.12/outbox.cif.g09.slc.cpg/sg68_9_cif.got.tgz:16267.got - 2010.04.10 23:14:56.
