data_PCOD8282926
_publ_section_title
;
Structure prediction by ZEFSAII (Michael W. Deem and Ramdas Pophale) SiO2 
 PCOD8282926
Probable space group: C C C A
;
_chemical_formula_sum "Si O2"
_cell_formula_units_Z 56
_cell_length_a 10.217926
_cell_length_b 16.694816
_cell_length_c 16.150221
_cell_angle_alpha 90.000000
_cell_angle_beta 90.000000
_cell_angle_gamma 90.000000
_cell_volume 2755.007970
_symmetry_space_group_name_H-M "C C C A"
_symmetry_group_IT_number 68
_space_group.IT_coordinate_system_code '2'
_symmetry_cell_setting 'orthorhombic'
loop_
_space_group_symop_operation_xyz
x,y,z
-x,1/2-y,z
x,1/2-y,1/2-z
-x,y,1/2-z
-x,-y,-z
x,1/2+y,-z
-x,1/2+y,1/2+z
x,-y,1/2+z
1/2+x,1/2+y,z
1/2-x,-y,z
1/2+x,-y,1/2-z
1/2-x,1/2+y,1/2-z
1/2-x,1/2-y,-z
1/2+x,y,-z
1/2-x,y,1/2+z
1/2+x,1/2-y,1/2+z
loop_
_atom_site_type_symbol
_atom_site_label
_atom_site_fract_x
_atom_site_fract_y
_atom_site_fract_z
Si Si1 0.868813 0.301740 0.531245
Si Si2 0.772352 0.087205 0.351541
Si Si3 0.462079 0.058261 0.925907
Si Si4 0.250000 0.000000 0.806990
O O1 0.750000 0.250000 0.500000
O O2 0.827971 0.345282 0.616857
O O3 0.878991 0.368708 0.461005
O O4 0.000000 0.250000 0.545700
O O5 0.921848 0.104162 0.376934
O O6 0.750000 0.000000 0.394437
O O7 0.748412 0.079143 0.252275
O O8 0.379535 0.003517 0.862657
O O9 0.500000 0.000000 0.000000
#
# Coordination Sequence:
#
# PCOD8282926 Si02
#       4
#    16  16  16   8
#     4  12  25  42  70 104 144 183 233 287 357 425
#     4  10  22  41  66 100 134 181 237 289 343 410
#     4  12  21  41  73  97 130 183 246 284 338 421
#     4  10  24  40  72 100 134 174 252 296 338 406
#
# _framework density 20.326620999999999
#
# number of rings (size 3 to 8) (size 9 to 14) (size 15 to 20)
#    0.857    0.000    5.714    2.571    0.000    0.000 
#    0.000    1.429    6.286    0.000    0.000    0.000 
#    0.000    0.000    0.000    0.000    0.000    0.000 
#
# Total GULP energy -346961.325730 kJ/mol
# GULP energy per Si atom -12391.475919 kJ/mol
# Density = 2.028036 g / cm^3
# Si number density = 20.326621 Si / 1000 Ang^3
#
#
#
# Elastic Constant Matrix: (Units=GPa)
#
#
# Indices 1 2 3 4 5 6 
#
# 1 150.6390 59.2022 74.3480 0.0000 0.0000 0.0000
# 2 59.2022 104.8404 57.2643 0.0000 0.0000 0.0000
# 3 74.3480 57.2643 153.6051 0.0000 0.0000 0.0000
# 4 0.0000 0.0000 0.0000 23.0109 0.0000 0.0000
# 5 0.0000 0.0000 0.0000 0.0000 38.9969 0.0000
# 6 0.0000 0.0000 0.0000 0.0000 0.0000 51.1169
#
#
#
# Elastic Compliance Matrix: (Units=1/GPa)
#
#
# Indices 1 2 3 4 5 6 
#
# 1 0.009730 -0.003669 -0.003341 0.000000 0.000000 0.000000
# 2 -0.003669 0.013361 -0.003205 0.000000 0.000000 0.000000
# 3 -0.003341 -0.003205 0.009322 0.000000 0.000000 0.000000
# 4 0.000000 0.000000 0.000000 0.043458 0.000000 0.000000
# 5 0.000000 0.000000 0.000000 0.000000 0.025643 0.000000
# 6 0.000000 0.000000 0.000000 0.000000 0.000000 0.019563
#
#
# Mechanical properties :
#
#
# Convention : Reuss Voigt Hill
#
# Bulk Modulus (GPa) = 83.46124 87.85706 85.65915
# Shear Modulus (GPa) = 34.36395 37.17628 35.77011
#
# Velocity S-wave (km/s) = 4.11614 4.28126 4.19951
# Velocity P-wave (km/s) = 7.98369 8.23136 8.10847
#
# Compressibility (1/GPa) = 0.01198161
#
# Stress axis : x y z
#
# Youngs Moduli (GPa) = 102.77991 74.84599 107.26868
#
# Poissons Ratio (x) = 0.27461 0.35843
# Poissons Ratio (y) = 0.37710 0.34380
# Poissons Ratio (z) = 0.34344 0.23988
#
# Static dielectric constant tensor:
#      x y z
#    x -9.016110 0.000000 0.000000 
#    y 0.000000 2.100550 0.000000 
#    z 0.000000 0.000000 3.718460 
# 
# 
# High freq. dielectric constant tensor:
#      x y z
#    x 1.809030 0.000000 0.000000 
#    y 0.000000 1.778190 0.000000 
#    z 0.000000 0.000000 1.789940 
# 
# From -- ./inp_files/27670.got.cif
#   From: 2010.03.12/outbox.cif.g09.slc.cpg/sg68_14_cif.got.tgz:27670.got - 2010.04.10 23:14:56.
