data_PCOD8282199
_publ_section_title
;
Structure prediction by ZEFSAII (Michael W. Deem and Ramdas Pophale) SiO2 
 PCOD8282199
Probable space group: C C C A
;
_chemical_formula_sum "Si O2"
_cell_formula_units_Z 96
_cell_length_a 12.282099
_cell_length_b 19.574293
_cell_length_c 19.776700
_cell_angle_alpha 90.000000
_cell_angle_beta 90.000000
_cell_angle_gamma 90.000000
_cell_volume 4754.583776
_symmetry_space_group_name_H-M "C C C A"
_symmetry_group_IT_number 68
_space_group.IT_coordinate_system_code '2'
_symmetry_cell_setting 'orthorhombic'
loop_
_space_group_symop_operation_xyz
x,y,z
-x,1/2-y,z
x,1/2-y,1/2-z
-x,y,1/2-z
-x,-y,-z
x,1/2+y,-z
-x,1/2+y,1/2+z
x,-y,1/2+z
1/2+x,1/2+y,z
1/2-x,-y,z
1/2+x,-y,1/2-z
1/2-x,1/2+y,1/2-z
1/2-x,1/2-y,-z
1/2+x,y,-z
1/2-x,y,1/2+z
1/2+x,1/2-y,1/2+z
loop_
_atom_site_type_symbol
_atom_site_label
_atom_site_fract_x
_atom_site_fract_y
_atom_site_fract_z
Si Si1 0.378259 0.255597 0.170075
Si Si2 0.988492 0.326300 0.086427
Si Si3 0.750000 0.000000 0.873634
Si Si4 0.404327 0.450736 0.987315
Si Si5 0.295971 0.636531 0.162865
Si Si6 0.288244 0.142601 0.680945
Si Si7 0.250000 0.000000 0.899950
O O1 0.500000 0.250000 0.137794
O O2 0.390050 0.250000 0.250000
O O3 0.318924 0.325621 0.145086
O O4 0.302490 0.192169 0.148337
O O5 0.953138 0.374926 0.024044
O O6 0.900874 0.339597 0.144750
O O7 0.000000 0.250000 0.057614
O O8 0.107948 0.337526 0.115837
O O9 0.852053 0.981843 0.920019
O O10 0.736412 0.933076 0.827205
O O11 0.500000 0.500000 0.000000
O O12 0.327203 0.453831 0.052514
O O13 0.316925 0.654331 0.240929
O O14 0.299797 0.555236 0.150810
#
# Coordination Sequence:
#
# PCOD8282199 Si02
#       7
#    16  16   8  16  16  16   8
#     4   9  19  35  54  82 123 161 189 233 295 360
#     4  11  21  38  65  95 120 155 200 257 311 358
#     4   9  21  36  58  86 115 159 200 244 306 351
#     4  10  21  41  60  81 118 161 205 256 299 342
#     4  11  21  36  62  90 123 159 197 246 309 370
#     4  10  20  36  59  91 126 155 195 249 306 377
#     4  11  23  40  60  88 117 163 210 250 296 359
#
# _framework density 20.191041999999999
#
# number of rings (size 3 to 8) (size 9 to 14) (size 15 to 20)
#    0.000    1.833    3.333    1.000    0.000    2.000 
#    0.000    3.333    0.000    0.000    0.000    0.000 
#    0.000    0.000    0.000    0.000    0.000    0.000 
#
# Total GULP energy -594672.259895 kJ/mol
# GULP energy per Si atom -12389.005414 kJ/mol
# Density = 2.014509 g / cm^3
# Si number density = 20.191042 Si / 1000 Ang^3
#
#
#
# Elastic Constant Matrix: (Units=GPa)
#
#
# Indices 1 2 3 4 5 6 
#
# 1 120.0932 47.2101 18.2074 0.0000 0.0000 0.0000
# 2 47.2101 166.4281 28.7996 0.0000 0.0000 0.0000
# 3 18.2074 28.7996 43.4995 0.0000 0.0000 0.0000
# 4 0.0000 0.0000 0.0000 38.5491 0.0000 0.0000
# 5 0.0000 0.0000 0.0000 0.0000 -32.0119 0.0000
# 6 0.0000 0.0000 0.0000 0.0000 0.0000 37.6459
#
#
#
# Elastic Compliance Matrix: (Units=1/GPa)
#
#
# Indices 1 2 3 4 5 6 
#
# 1 0.009608 -0.002292 -0.002504 0.000000 0.000000 0.000000
# 2 -0.002292 0.007333 -0.003895 0.000000 0.000000 0.000000
# 3 -0.002504 -0.003895 0.026616 0.000000 0.000000 0.000000
# 4 0.000000 0.000000 0.000000 0.025941 0.000000 0.000000
# 5 0.000000 0.000000 0.000000 0.000000 -0.031238 0.000000
# 6 0.000000 0.000000 0.000000 0.000000 0.000000 0.026563
#
#
# Mechanical properties :
#
#
# Convention : Reuss Voigt Hill
#
# Bulk Modulus (GPa) = 38.20669 57.60610 47.90639
# Shear Modulus (GPa) = 54.98763 24.55685 39.77224
#
# Velocity S-wave (km/s) = 5.22425 3.49122 4.44305
# Velocity P-wave (km/s) = 7.44003 6.69657 7.07807
#
# Compressibility (1/GPa) = 0.02617343
#
# Stress axis : x y z
#
# Youngs Moduli (GPa) = 104.08520 136.37225 37.57155
#
# Poissons Ratio (x) = 0.31257 0.09408
# Poissons Ratio (y) = 0.23857 0.14636
# Poissons Ratio (z) = 0.26062 0.53124
#
# Static dielectric constant tensor:
#      x y z
#    x 3.828980 0.000000 0.000000 
#    y 0.000000 3.950710 0.000000 
#    z 0.000000 0.000000 2.632010 
# 
# 
# High freq. dielectric constant tensor:
#      x y z
#    x 1.792810 0.000000 0.000000 
#    y 0.000000 1.803200 0.000000 
#    z 0.000000 0.000000 1.767910 
# 
# From -- ./inp_files/37698.got.cif
#   From: 2010.03.12/outbox.cif.g09.slc.cpg/sg68_19_cif.got.tgz:37698.got - 2010.04.10 23:14:56.
