data_PCOD8282284
_publ_section_title
;
Structure prediction by ZEFSAII (Michael W. Deem and Ramdas Pophale) SiO2 
 PCOD8282284
Probable space group: C C C A
;
_chemical_formula_sum "Si O2"
_cell_formula_units_Z 120
_cell_length_a 20.344902
_cell_length_b 11.880618
_cell_length_c 26.774813
_cell_angle_alpha 90.000000
_cell_angle_beta 90.000000
_cell_angle_gamma 90.000000
_cell_volume 6471.740289
_symmetry_space_group_name_H-M "C C C A"
_symmetry_group_IT_number 68
_space_group.IT_coordinate_system_code '2'
_symmetry_cell_setting 'orthorhombic'
loop_
_space_group_symop_operation_xyz
x,y,z
-x,1/2-y,z
x,1/2-y,1/2-z
-x,y,1/2-z
-x,-y,-z
x,1/2+y,-z
-x,1/2+y,1/2+z
x,-y,1/2+z
1/2+x,1/2+y,z
1/2-x,-y,z
1/2+x,-y,1/2-z
1/2-x,1/2+y,1/2-z
1/2-x,1/2-y,-z
1/2+x,y,-z
1/2-x,y,1/2+z
1/2+x,1/2-y,1/2+z
loop_
_atom_site_type_symbol
_atom_site_label
_atom_site_fract_x
_atom_site_fract_y
_atom_site_fract_z
Si Si1 0.139273 0.317444 0.046320
Si Si2 0.742195 0.632794 0.887244
Si Si3 0.303358 0.224107 0.692205
Si Si4 0.427093 0.968994 0.985892
Si Si5 0.750000 0.000000 0.352936
Si Si6 0.879089 0.760437 0.061350
Si Si7 0.884770 0.521628 0.090948
Si Si8 0.568966 0.694536 0.130008
O O1 0.208680 0.311300 0.073468
O O2 0.105830 0.440043 0.050698
O O3 0.088610 0.235177 0.074567
O O4 0.154598 0.283596 0.989496
O O5 0.750000 0.500000 0.887718
O O6 0.758886 0.678650 0.832352
O O7 0.670179 0.673850 0.902393
O O8 0.307084 0.250000 0.750000
O O9 0.268788 0.104306 0.682331
O O10 0.377256 0.230732 0.670744
O O11 0.432994 0.851005 0.956422
O O12 0.500000 0.000000 0.000000
O O13 0.382653 0.965396 0.035912
O O14 0.810660 0.971522 0.388927
O O15 0.911227 0.651231 0.088794
O O16 0.931600 0.443226 0.126210
O O17 0.500000 0.750000 0.146425
#
# Coordination Sequence:
#
# PCOD8282284 Si02
#       8
#    16  16  16  16   8  16  16  16
#     4  10  21  32  52  80 111 157 191 232 279 335
#     4  11  21  37  55  82 116 146 192 242 298 351
#     4  10  23  39  62  90 112 151 191 247 313 363
#     4  11  22  34  51  76 116 158 204 239 271 334
#     4  10  20  40  60  86 118 142 198 244 298 374
#     4  11  21  35  53  81 116 157 199 234 283 345
#     4  10  21  35  57  80 114 162 194 235 290 339
#     4  10  20  38  59  84 119 153 195 242 287 349
#
# _framework density 18.542154
#
# number of rings (size 3 to 8) (size 9 to 14) (size 15 to 20)
#    0.000    1.600    4.000    1.200    0.933    4.000 
#    0.000    0.000    0.000    0.000    0.000    0.000 
#    0.000    0.000    0.000    0.000    0.000    0.000 
#
# Total GULP energy -743663.316327 kJ/mol
# GULP energy per Si atom -12394.388605 kJ/mol
# Density = 1.849995 g / cm^3
# Si number density = 18.542154 Si / 1000 Ang^3
#
#
#
# Elastic Constant Matrix: (Units=GPa)
#
#
# Indices 1 2 3 4 5 6 
#
# 1 93.9211 45.8626 36.2688 0.0000 0.0000 0.0000
# 2 45.8626 137.6691 41.5666 0.0000 0.0000 0.0000
# 3 36.2688 41.5666 99.2175 0.0000 0.0000 0.0000
# 4 0.0000 0.0000 0.0000 22.8155 0.0000 0.0000
# 5 0.0000 0.0000 0.0000 0.0000 11.4043 0.0000
# 6 0.0000 0.0000 0.0000 0.0000 0.0000 28.2567
#
#
#
# Elastic Compliance Matrix: (Units=1/GPa)
#
#
# Indices 1 2 3 4 5 6 
#
# 1 0.013728 -0.003501 -0.003552 0.000000 0.000000 0.000000
# 2 -0.003501 0.009209 -0.002578 0.000000 0.000000 0.000000
# 3 -0.003552 -0.002578 0.012457 0.000000 0.000000 0.000000
# 4 0.000000 0.000000 0.000000 0.043830 0.000000 0.000000
# 5 0.000000 0.000000 0.000000 0.000000 0.087686 0.000000
# 6 0.000000 0.000000 0.000000 0.000000 0.000000 0.035390
#
#
# Mechanical properties :
#
#
# Convention : Reuss Voigt Hill
#
# Bulk Modulus (GPa) = 61.98624 64.24483 63.11553
# Shear Modulus (GPa) = 22.03238 26.30261 24.16749
#
# Velocity S-wave (km/s) = 3.45081 3.77042 3.61415
# Velocity P-wave (km/s) = 7.02709 7.32653 7.17837
#
# Compressibility (1/GPa) = 0.01613261
#
# Stress axis : x y z
#
# Youngs Moduli (GPa) = 72.84199 108.59506 80.27478
#
# Poissons Ratio (x) = 0.38020 0.28511
# Poissons Ratio (y) = 0.25502 0.20695
# Poissons Ratio (z) = 0.25871 0.27996
#
# Static dielectric constant tensor:
#      x y z
#    x 3.271420 0.000000 0.000000 
#    y 0.000000 4.603010 0.000000 
#    z 0.000000 0.000000 3.151060 
# 
# 
# High freq. dielectric constant tensor:
#      x y z
#    x 1.704240 0.000000 0.000000 
#    y 0.000000 1.744730 0.000000 
#    z 0.000000 0.000000 1.682760 
# 
# From -- ./inp_files/51959.got.cif
#   From: 2010.03.12/outbox.cif.g09.slc.cpg/sg68_26_cif.got.tgz:51959.got - 2010.04.10 23:14:56.
