data_PCOD8282919
_publ_section_title
;
Structure prediction by ZEFSAII (Michael W. Deem and Ramdas Pophale) SiO2 
 PCOD8282919
Probable space group: C C C A
;
_chemical_formula_sum "Si O2"
_cell_formula_units_Z 104
_cell_length_a 20.648671
_cell_length_b 26.150141
_cell_length_c 9.129090
_cell_angle_alpha 90.000000
_cell_angle_beta 90.000000
_cell_angle_gamma 90.000000
_cell_volume 4929.395090
_symmetry_space_group_name_H-M "C C C A"
_symmetry_group_IT_number 68
_space_group.IT_coordinate_system_code '2'
_symmetry_cell_setting 'orthorhombic'
loop_
_space_group_symop_operation_xyz
x,y,z
-x,1/2-y,z
x,1/2-y,1/2-z
-x,y,1/2-z
-x,-y,-z
x,1/2+y,-z
-x,1/2+y,1/2+z
x,-y,1/2+z
1/2+x,1/2+y,z
1/2-x,-y,z
1/2+x,-y,1/2-z
1/2-x,1/2+y,1/2-z
1/2-x,1/2-y,-z
1/2+x,y,-z
1/2-x,y,1/2+z
1/2+x,1/2-y,1/2+z
loop_
_atom_site_type_symbol
_atom_site_label
_atom_site_fract_x
_atom_site_fract_y
_atom_site_fract_z
Si Si1 0.815117 0.126407 0.333092
Si Si2 0.624100 0.060344 0.339199
Si Si3 0.923559 0.294381 0.858727
Si Si4 0.320006 0.475028 0.649055
Si Si5 0.803030 0.646432 0.332941
Si Si6 0.000000 0.112243 0.750000
Si Si7 0.931566 0.200200 0.320690
O O1 0.812274 0.070022 0.266546
O O2 0.795345 0.122590 0.504163
O O3 0.766152 0.161412 0.237024
O O4 0.886135 0.150675 0.315501
O O5 0.648286 0.044462 0.499308
O O6 0.667421 0.106831 0.283001
O O7 0.548203 0.076795 0.346469
O O8 0.630682 0.014802 0.222361
O O9 0.948162 0.250000 0.750000
O O10 0.846406 0.302434 0.840059
O O11 0.956117 0.350302 0.846863
O O12 0.942993 0.277121 0.018475
O O13 0.250000 0.500000 0.617807
O O14 0.898508 0.250000 0.250000
O O15 0.000000 0.184924 0.250000
#
# Coordination Sequence:
#
# PCOD8282919 Si02
#       7
#    16  16  16  16  16   8  16
#     4  11  23  42  67  96 134 170 215 273 326 388
#     4  11  24  42  62  93 129 168 220 264 325 388
#     4  10  23  42  69  94 129 169 218 267 326 394
#     4  12  24  39  67  95 130 174 217 272 331 387
#     4  10  22  41  63  98 129 167 215 269 328 389
#     4  10  25  42  66  92 128 170 217 268 320 388
#     4  10  25  43  65  98 135 170 218 264 328 393
#
# _framework density 21.097923999999999
#
# number of rings (size 3 to 8) (size 9 to 14) (size 15 to 20)
#    0.000    1.385    1.538    2.538    6.462    3.692 
#    1.385    3.077    0.000    0.000    0.000    0.000 
#    0.000    0.000    0.000    0.000    0.000    0.000 
#
# Total GULP energy -644553.839517 kJ/mol
# GULP energy per Si atom -12395.266145 kJ/mol
# Density = 2.104990 g / cm^3
# Si number density = 21.097924 Si / 1000 Ang^3
#
#
#
# Elastic Constant Matrix: (Units=GPa)
#
#
# Indices 1 2 3 4 5 6 
#
# 1 124.1458 45.2662 52.6973 0.0000 0.0000 0.0000
# 2 45.2662 74.2306 44.0798 0.0000 0.0000 0.0000
# 3 52.6973 44.0798 158.8478 0.0000 0.0000 0.0000
# 4 0.0000 0.0000 0.0000 30.0194 0.0000 0.0000
# 5 0.0000 0.0000 0.0000 0.0000 5.8880 0.0000
# 6 0.0000 0.0000 0.0000 0.0000 0.0000 -35.4489
#
#
#
# Elastic Compliance Matrix: (Units=1/GPa)
#
#
# Indices 1 2 3 4 5 6 
#
# 1 0.010927 -0.005401 -0.002126 0.000000 0.000000 0.000000
# 2 -0.005401 0.018799 -0.003425 0.000000 0.000000 0.000000
# 3 -0.002126 -0.003425 0.007951 0.000000 0.000000 0.000000
# 4 0.000000 0.000000 0.000000 0.033312 0.000000 0.000000
# 5 0.000000 0.000000 0.000000 0.000000 0.169838 0.000000
# 6 0.000000 0.000000 0.000000 0.000000 0.000000 -0.028210
#
#
# Mechanical properties :
#
#
# Convention : Reuss Voigt Hill
#
# Bulk Modulus (GPa) = 63.39966 71.25674 67.32820
# Shear Modulus (GPa) = 20.85266 14.43710 17.64488
#
# Velocity S-wave (km/s) = 3.14725 2.61873 2.89508
# Velocity P-wave (km/s) = 6.58197 6.55677 6.56939
#
# Compressibility (1/GPa) = 0.01577295
#
# Stress axis : x y z
#
# Youngs Moduli (GPa) = 91.51844 53.19540 125.76826
#
# Poissons Ratio (x) = 0.28728 0.26742
# Poissons Ratio (y) = 0.49425 0.43075
# Poissons Ratio (z) = 0.19459 0.18219
#
# Static dielectric constant tensor:
#      x y z
#    x 4.167880 0.000000 0.000000 
#    y 0.000000 3.754780 0.000000 
#    z 0.000000 0.000000 3.893100 
# 
# 
# High freq. dielectric constant tensor:
#      x y z
#    x 1.835410 0.000000 0.000000 
#    y 0.000000 1.819950 0.000000 
#    z 0.000000 0.000000 1.837390 
# 
# From -- ./inp_files/7398.got.cif
#   From: 2010.03.12/outbox.cif.g09.slc.cpg/sg68_4_cif.got.tgz:7398.got - 2010.04.10 23:14:56.
