data_PCOD8282175
_publ_section_title
;
Structure prediction by ZEFSAII (Michael W. Deem and Ramdas Pophale) SiO2 
 PCOD8282175
Probable space group: C C C A
;
_chemical_formula_sum "Si O2"
_cell_formula_units_Z 108
_cell_length_a 15.563845
_cell_length_b 23.811688
_cell_length_c 14.374303
_cell_angle_alpha 90.000000
_cell_angle_beta 90.000000
_cell_angle_gamma 90.000000
_cell_volume 5327.137121
_symmetry_space_group_name_H-M "C C C A"
_symmetry_group_IT_number 68
_space_group.IT_coordinate_system_code '2'
_symmetry_cell_setting 'orthorhombic'
loop_
_space_group_symop_operation_xyz
x,y,z
-x,1/2-y,z
x,1/2-y,1/2-z
-x,y,1/2-z
-x,-y,-z
x,1/2+y,-z
-x,1/2+y,1/2+z
x,-y,1/2+z
1/2+x,1/2+y,z
1/2-x,-y,z
1/2+x,-y,1/2-z
1/2-x,1/2+y,1/2-z
1/2-x,1/2-y,-z
1/2+x,y,-z
1/2-x,y,1/2+z
1/2+x,1/2-y,1/2+z
loop_
_atom_site_type_symbol
_atom_site_label
_atom_site_fract_x
_atom_site_fract_y
_atom_site_fract_z
Si Si1 0.094553 0.431823 0.734707
Si Si2 0.850222 0.875798 0.969489
Si Si3 0.410255 0.992163 0.949067
Si Si4 0.000000 0.750000 0.250000
Si Si5 0.698328 0.945622 0.917077
Si Si6 0.147537 0.819485 0.345964
Si Si7 0.447793 0.196763 0.659079
Si Si8 0.790800 0.750000 0.750000
O O1 0.089677 0.486305 0.664182
O O2 0.127385 0.444710 0.837225
O O3 0.152089 0.382130 0.694190
O O4 0.000000 0.407773 0.750000
O O5 0.757473 0.889001 0.920419
O O6 0.931445 0.857580 0.904733
O O7 0.873406 0.933562 0.016902
O O8 0.844260 0.824575 0.042600
O O9 0.500000 0.000000 0.000000
O O10 0.348122 0.043228 0.982464
O O11 0.939698 0.712539 0.316743
O O12 0.750000 0.000000 0.887119
O O13 0.232634 0.788950 0.313363
O O14 0.500000 0.250000 0.613995
O O15 0.500000 0.177129 0.750000
O O16 0.350454 0.214190 0.681817
#
# Coordination Sequence:
#
# PCOD8282175 Si02
#       8
#    16  16  16   4  16  16  16   8
#     4  11  20  36  62  85 116 159 200 243 309 355
#     4  10  22  39  59  90 120 155 206 249 310 364
#     4  10  21  40  59  88 121 153 201 250 299 367
#     4  10  20  36  54  88 124 156 206 244 312 362
#     4  10  22  40  59  87 125 155 200 259 298 369
#     4  10  21  35  58  88 120 158 196 257 301 375
#     4   9  20  41  60  82 122 158 199 252 296 361
#     4   9  19  39  59  82 120 156 205 245 309 361
#
# _framework density 20.273553
#
# number of rings (size 3 to 8) (size 9 to 14) (size 15 to 20)
#    0.000    2.222    2.222    0.889    1.037    3.556 
#   10.667    0.000    0.000    0.000    0.000    0.000 
#    0.000    0.000    0.000    0.000    0.000    0.000 
#
# Total GULP energy -668987.806217 kJ/mol
# GULP energy per Si atom -12388.663078 kJ/mol
# Density = 2.022741 g / cm^3
# Si number density = 20.273553 Si / 1000 Ang^3
#
#
#
# Elastic Constant Matrix: (Units=GPa)
#
#
# Indices 1 2 3 4 5 6 
#
# 1 129.1209 37.0230 48.0956 0.0000 0.0000 0.0000
# 2 37.0230 59.4359 42.3891 0.0000 0.0000 0.0000
# 3 48.0956 42.3891 108.2022 0.0000 0.0000 0.0000
# 4 0.0000 0.0000 0.0000 26.6508 0.0000 0.0000
# 5 0.0000 0.0000 0.0000 0.0000 29.1554 0.0000
# 6 0.0000 0.0000 0.0000 0.0000 0.0000 32.0979
#
#
#
# Elastic Compliance Matrix: (Units=1/GPa)
#
#
# Indices 1 2 3 4 5 6 
#
# 1 0.009998 -0.004244 -0.002781 0.000000 0.000000 0.000000
# 2 -0.004244 0.025150 -0.007966 0.000000 0.000000 0.000000
# 3 -0.002781 -0.007966 0.013599 0.000000 0.000000 0.000000
# 4 0.000000 0.000000 0.000000 0.037522 0.000000 0.000000
# 5 0.000000 0.000000 0.000000 0.000000 0.034299 0.000000
# 6 0.000000 0.000000 0.000000 0.000000 0.000000 0.031155
#
#
# Mechanical properties :
#
#
# Convention : Reuss Voigt Hill
#
# Bulk Modulus (GPa) = 53.29487 61.30827 57.30157
# Shear Modulus (GPa) = 26.60142 28.86425 27.73283
#
# Velocity S-wave (km/s) = 3.62626 3.77734 3.70257
# Velocity P-wave (km/s) = 6.62404 7.02357 6.82673
#
# Compressibility (1/GPa) = 0.01876353
#
# Stress axis : x y z
#
# Youngs Moduli (GPa) = 100.02470 39.76165 73.53439
#
# Poissons Ratio (x) = 0.16875 0.20452
# Poissons Ratio (y) = 0.42450 0.58579
# Poissons Ratio (z) = 0.27820 0.31675
#
# Static dielectric constant tensor:
#      x y z
#    x 2.417830 0.000000 0.000000 
#    y 0.000000 3.636190 0.000000 
#    z 0.000000 0.000000 3.830920 
# 
# 
# High freq. dielectric constant tensor:
#      x y z
#    x 1.803960 0.000000 0.000000 
#    y 0.000000 1.776020 0.000000 
#    z 0.000000 0.000000 1.788050 
# 
# From -- ./inp_files/22640.got.cif
#   From: 2010.03.12/outbox.cif.g09.slc.cpg/sg68_12_cif.got.tgz:22640.got - 2010.04.10 23:14:56.
