data_PCOD8282430
_publ_section_title
;
Structure prediction by ZEFSAII (Michael W. Deem and Ramdas Pophale) SiO2 
 PCOD8282430
Probable space group: C C C A
;
_chemical_formula_sum "Si O2"
_cell_formula_units_Z 64
_cell_length_a 12.839042
_cell_length_b 24.171735
_cell_length_c 9.187800
_cell_angle_alpha 90.000000
_cell_angle_beta 90.000000
_cell_angle_gamma 90.000000
_cell_volume 2851.359501
_symmetry_space_group_name_H-M "C C C A"
_symmetry_group_IT_number 68
_space_group.IT_coordinate_system_code '2'
_symmetry_cell_setting 'orthorhombic'
loop_
_space_group_symop_operation_xyz
x,y,z
-x,1/2-y,z
x,1/2-y,1/2-z
-x,y,1/2-z
-x,-y,-z
x,1/2+y,-z
-x,1/2+y,1/2+z
x,-y,1/2+z
1/2+x,1/2+y,z
1/2-x,-y,z
1/2+x,-y,1/2-z
1/2-x,1/2+y,1/2-z
1/2-x,1/2-y,-z
1/2+x,y,-z
1/2-x,y,1/2+z
1/2+x,1/2-y,1/2+z
loop_
_atom_site_type_symbol
_atom_site_label
_atom_site_fract_x
_atom_site_fract_y
_atom_site_fract_z
Si Si1 0.230417 0.750000 0.250000
Si Si2 0.250000 0.000000 0.043530
Si Si3 0.796787 0.075372 0.203846
Si Si4 0.903394 0.674324 0.667944
Si Si5 0.898471 0.147700 0.651967
O O1 0.307824 0.716861 0.359591
O O2 0.156966 0.793140 0.330790
O O3 0.184573 0.040138 0.148953
O O4 0.322897 0.037724 0.937592
O O5 0.871944 0.127633 0.213118
O O6 0.677032 0.096630 0.191211
O O7 0.933811 0.646048 0.515917
O O8 0.000000 0.703868 0.750000
O O9 0.000000 0.142771 0.750000
#
# Coordination Sequence:
#
# PCOD8282430 Si02
#       5
#     8   8  16  16  16
#     4  10  24  42  68  90 126 170 210 256 314 372
#     4  10  20  42  70  88 124 172 208 258 314 372
#     4  10  22  42  66  92 128 166 210 258 314 368
#     4  11  24  41  64  96 129 165 209 259 313 376
#     4  11  24  41  64  96 129 165 209 259 313 376
#
# _framework density 22.445433999999999
#
# number of rings (size 3 to 8) (size 9 to 14) (size 15 to 20)
#    0.000    1.500    2.500    1.500    3.500    6.000 
#    0.000    7.500    0.000    0.000    0.000    0.000 
#    0.000    0.000    0.000    0.000    0.000    0.000 
#
# Total GULP energy -396571.136622 kJ/mol
# GULP energy per Si atom -12392.848019 kJ/mol
# Density = 2.239435 g / cm^3
# Si number density = 22.445434 Si / 1000 Ang^3
#
#
#
# Elastic Constant Matrix: (Units=GPa)
#
#
# Indices 1 2 3 4 5 6 
#
# 1 104.3748 25.4584 39.8225 0.0000 0.0000 0.0000
# 2 25.4584 104.7048 28.2053 0.0000 0.0000 0.0000
# 3 39.8225 28.2053 135.9965 0.0000 0.0000 0.0000
# 4 0.0000 0.0000 0.0000 27.4374 0.0000 0.0000
# 5 0.0000 0.0000 0.0000 0.0000 23.7732 0.0000
# 6 0.0000 0.0000 0.0000 0.0000 0.0000 10.3948
#
#
#
# Elastic Compliance Matrix: (Units=1/GPa)
#
#
# Indices 1 2 3 4 5 6 
#
# 1 0.011146 -0.001939 -0.002861 0.000000 0.000000 0.000000
# 2 -0.001939 0.010453 -0.001600 0.000000 0.000000 0.000000
# 3 -0.002861 -0.001600 0.008523 0.000000 0.000000 0.000000
# 4 0.000000 0.000000 0.000000 0.036447 0.000000 0.000000
# 5 0.000000 0.000000 0.000000 0.000000 0.042064 0.000000
# 6 0.000000 0.000000 0.000000 0.000000 0.000000 0.096202
#
#
# Mechanical properties :
#
#
# Convention : Reuss Voigt Hill
#
# Bulk Modulus (GPa) = 57.73630 59.11650 58.42640
# Shear Modulus (GPa) = 22.38044 29.09374 25.73709
#
# Velocity S-wave (km/s) = 3.16112 3.60418 3.38990
# Velocity P-wave (km/s) = 6.25319 6.61175 6.43497
#
# Compressibility (1/GPa) = 0.01732013
#
# Stress axis : x y z
#
# Youngs Moduli (GPa) = 89.72156 95.66442 117.33111
#
# Poissons Ratio (x) = 0.18551 0.33574
# Poissons Ratio (y) = 0.17399 0.18775
# Poissons Ratio (z) = 0.25674 0.15308
#
# Static dielectric constant tensor:
#      x y z
#    x 3.721470 0.000000 0.000000 
#    y 0.000000 4.290870 0.000000 
#    z 0.000000 0.000000 3.990790 
# 
# 
# High freq. dielectric constant tensor:
#      x y z
#    x 1.851260 0.000000 0.000000 
#    y 0.000000 1.903800 0.000000 
#    z 0.000000 0.000000 1.888020 
# 
# From -- ./inp_files/5052.got.cif
#   From: 2010.03.12/outbox.cif.g09.slc.cpg/sg68_3_cif.got.tgz:5052.got - 2010.04.10 23:14:56.
