data_PCOD8282067
_publ_section_title
;
Structure prediction by ZEFSAII (Michael W. Deem and Ramdas Pophale) SiO2 
 PCOD8282067
Probable space group: C C C A
;
_chemical_formula_sum "Si O2"
_cell_formula_units_Z 88
_cell_length_a 20.967287
_cell_length_b 8.497242
_cell_length_c 21.983872
_cell_angle_alpha 90.000000
_cell_angle_beta 90.000000
_cell_angle_gamma 90.000000
_cell_volume 3916.737027
_symmetry_space_group_name_H-M "C C C A"
_symmetry_group_IT_number 68
_space_group.IT_coordinate_system_code '2'
_symmetry_cell_setting 'orthorhombic'
loop_
_space_group_symop_operation_xyz
x,y,z
-x,1/2-y,z
x,1/2-y,1/2-z
-x,y,1/2-z
-x,-y,-z
x,1/2+y,-z
-x,1/2+y,1/2+z
x,-y,1/2+z
1/2+x,1/2+y,z
1/2-x,-y,z
1/2+x,-y,1/2-z
1/2-x,1/2+y,1/2-z
1/2-x,1/2-y,-z
1/2+x,y,-z
1/2-x,y,1/2+z
1/2+x,1/2-y,1/2+z
loop_
_atom_site_type_symbol
_atom_site_label
_atom_site_fract_x
_atom_site_fract_y
_atom_site_fract_z
Si Si1 0.393731 0.250000 0.250000
Si Si2 0.177698 0.949536 0.569155
Si Si3 0.676438 0.003097 0.667842
Si Si4 0.374003 0.250000 0.750000
Si Si5 0.000000 0.250000 0.411214
Si Si6 0.427170 0.490557 0.833592
Si Si7 0.129292 0.620905 0.548836
O O1 0.346831 0.368408 0.213916
O O2 0.438134 0.338790 0.301026
O O3 0.138635 0.999612 0.628804
O O4 0.179286 0.762605 0.558247
O O5 0.250000 0.000000 0.577927
O O6 0.142683 0.033310 0.513242
O O7 0.668708 0.175639 0.697130
O O8 0.636305 0.998288 0.604839
O O9 0.750000 0.000000 0.650691
O O10 0.420578 0.380014 0.775910
O O11 0.016287 0.409763 0.372781
O O12 0.058934 0.199291 0.453260
#
# Coordination Sequence:
#
# PCOD8282067 Si02
#       7
#     8  16  16   8   8  16  16
#     4  10  25  40  65 108 136 177 233 282 334 406
#     4  11  24  42  70 101 137 171 229 284 351 415
#     4  11  22  39  63  96 137 173 221 275 344 408
#     4  10  19  43  60  94 126 180 216 260 346 396
#     4  10  22  49  70  90 134 183 232 272 344 414
#     4  10  23  42  71  97 136 180 224 280 340 402
#     4  11  25  43  68  97 128 185 221 285 345 400
#
# _framework density 22.467680999999999
#
# number of rings (size 3 to 8) (size 9 to 14) (size 15 to 20)
#    0.000    1.455    3.636    1.636    5.091    6.182 
#    0.000    1.818    0.000    0.000    0.000    0.000 
#    0.000    0.000    0.000    0.000    0.000    0.000 
#
# Total GULP energy -545325.591882 kJ/mol
# GULP energy per Si atom -12393.763452 kJ/mol
# Density = 2.241654 g / cm^3
# Si number density = 22.467681 Si / 1000 Ang^3
#
#
#
# Elastic Constant Matrix: (Units=GPa)
#
#
# Indices 1 2 3 4 5 6 
#
# 1 92.3028 17.5366 12.7924 0.0000 0.0000 0.0000
# 2 17.5366 101.0391 31.9673 0.0000 0.0000 0.0000
# 3 12.7924 31.9673 91.9318 0.0000 0.0000 0.0000
# 4 0.0000 0.0000 0.0000 34.6007 0.0000 0.0000
# 5 0.0000 0.0000 0.0000 0.0000 18.8591 0.0000
# 6 0.0000 0.0000 0.0000 0.0000 0.0000 27.9519
#
#
#
# Elastic Compliance Matrix: (Units=1/GPa)
#
#
# Indices 1 2 3 4 5 6 
#
# 1 0.011284 -0.001642 -0.000999 0.000000 0.000000 0.000000
# 2 -0.001642 0.011360 -0.003722 0.000000 0.000000 0.000000
# 3 -0.000999 -0.003722 0.012311 0.000000 0.000000 0.000000
# 4 0.000000 0.000000 0.000000 0.028901 0.000000 0.000000
# 5 0.000000 0.000000 0.000000 0.000000 0.053025 0.000000
# 6 0.000000 0.000000 0.000000 0.000000 0.000000 0.035776
#
#
# Mechanical properties :
#
#
# Convention : Reuss Voigt Hill
#
# Bulk Modulus (GPa) = 44.98699 45.54070 45.26384
# Shear Modulus (GPa) = 28.93645 31.14748 30.04197
#
# Velocity S-wave (km/s) = 3.59265 3.72738 3.66063
# Velocity P-wave (km/s) = 6.10540 6.23200 6.16903
#
# Compressibility (1/GPa) = 0.02222865
#
# Stress axis : x y z
#
# Youngs Moduli (GPa) = 88.61768 88.03070 81.22991
#
# Poissons Ratio (x) = 0.14459 0.08116
# Poissons Ratio (y) = 0.14555 0.30230
# Poissons Ratio (z) = 0.08854 0.32761
#
# Static dielectric constant tensor:
#      x y z
#    x 3.803570 0.000000 0.000000 
#    y 0.000000 4.793630 0.000000 
#    z 0.000000 0.000000 4.171280 
# 
# 
# High freq. dielectric constant tensor:
#      x y z
#    x 1.871460 0.000000 0.000000 
#    y 0.000000 1.893320 0.000000 
#    z 0.000000 0.000000 1.894140 
# 
# From -- ./inp_files/46549.got.cif
#   From: 2010.03.12/outbox.cif.g09.slc.cpg/sg68_24_cif.got.tgz:46549.got - 2010.04.10 23:14:56.
