data_PCOD8282263
_publ_section_title
;
Structure prediction by ZEFSAII (Michael W. Deem and Ramdas Pophale) SiO2 
 PCOD8282263
Probable space group: C C C A
;
_chemical_formula_sum "Si O2"
_cell_formula_units_Z 120
_cell_length_a 19.684571
_cell_length_b 22.280878
_cell_length_c 14.381387
_cell_angle_alpha 90.000000
_cell_angle_beta 90.000000
_cell_angle_gamma 90.000000
_cell_volume 6307.525692
_symmetry_space_group_name_H-M "C C C A"
_symmetry_group_IT_number 68
_space_group.IT_coordinate_system_code '2'
_symmetry_cell_setting 'orthorhombic'
loop_
_space_group_symop_operation_xyz
x,y,z
-x,1/2-y,z
x,1/2-y,1/2-z
-x,y,1/2-z
-x,-y,-z
x,1/2+y,-z
-x,1/2+y,1/2+z
x,-y,1/2+z
1/2+x,1/2+y,z
1/2-x,-y,z
1/2+x,-y,1/2-z
1/2-x,1/2+y,1/2-z
1/2-x,1/2-y,-z
1/2+x,y,-z
1/2-x,y,1/2+z
1/2+x,1/2-y,1/2+z
loop_
_atom_site_type_symbol
_atom_site_label
_atom_site_fract_x
_atom_site_fract_y
_atom_site_fract_z
Si Si1 0.161694 0.829676 0.991389
Si Si2 0.931086 0.931296 0.471691
Si Si3 0.630576 0.570703 0.732602
Si Si4 0.336841 0.299289 0.312093
Si Si5 0.750000 0.000000 0.833971
Si Si6 0.302445 0.386808 0.949614
Si Si7 0.080820 0.058451 0.933907
Si Si8 0.817605 0.272529 0.154554
O O1 0.111039 0.883826 0.966071
O O2 0.128883 0.805288 0.087546
O O3 0.238388 0.853899 0.003135
O O4 0.159336 0.776282 0.919680
O O5 0.908388 0.937469 0.364507
O O6 0.010209 0.912930 0.469432
O O7 0.915749 0.992144 0.525577
O O8 0.663172 0.637032 0.740397
O O9 0.691331 0.522687 0.734499
O O10 0.582818 0.557956 0.821275
O O11 0.376860 0.250000 0.250000
O O12 0.262635 0.272780 0.331230
O O13 0.723492 0.053935 0.898250
O O14 0.338572 0.339840 0.877932
O O15 0.356265 0.402697 0.029008
O O16 0.853163 0.250000 0.250000
#
# Coordination Sequence:
#
# PCOD8282263 Si02
#       8
#    16  16  16  16   8  16  16  16
#     4  10  20  37  63  82 121 156 199 250 299 358
#     4  10  22  45  56  87 123 162 203 255 302 373
#     4  11  22  37  61  90 123 155 201 255 305 363
#     4   9  18  33  55  86 116 152 187 239 298 360
#     4  12  20  38  56  98 130 148 202 270 296 358
#     4  11  20  36  60  89 119 158 198 254 299 360
#     4  11  24  37  66  84 120 166 203 245 317 368
#     4  10  21  34  57  88 121 155 191 245 306 364
#
# _framework density 19.024892999999999
#
# number of rings (size 3 to 8) (size 9 to 14) (size 15 to 20)
#    0.000    1.600    5.333    2.000    5.600    2.667 
#    0.000    0.667    0.000    1.600    0.000    0.000 
#    0.000    0.000    0.000    0.000    0.000    0.000 
#
# Total GULP energy -743583.534924 kJ/mol
# GULP energy per Si atom -12393.058915 kJ/mol
# Density = 1.898159 g / cm^3
# Si number density = 19.024893 Si / 1000 Ang^3
#
#
#
# Elastic Constant Matrix: (Units=GPa)
#
#
# Indices 1 2 3 4 5 6 
#
# 1 71.4898 37.8647 24.0174 0.0000 0.0000 0.0000
# 2 37.8647 125.9544 62.9215 0.0000 0.0000 0.0000
# 3 24.0174 62.9215 97.1237 0.0000 0.0000 0.0000
# 4 0.0000 0.0000 0.0000 34.7510 0.0000 0.0000
# 5 0.0000 0.0000 0.0000 0.0000 17.2160 0.0000
# 6 0.0000 0.0000 0.0000 0.0000 0.0000 12.6651
#
#
#
# Elastic Compliance Matrix: (Units=1/GPa)
#
#
# Indices 1 2 3 4 5 6 
#
# 1 0.016747 -0.004385 -0.001301 0.000000 0.000000 0.000000
# 2 -0.004385 0.012886 -0.007264 0.000000 0.000000 0.000000
# 3 -0.001301 -0.007264 0.015324 0.000000 0.000000 0.000000
# 4 0.000000 0.000000 0.000000 0.028776 0.000000 0.000000
# 5 0.000000 0.000000 0.000000 0.000000 0.058085 0.000000
# 6 0.000000 0.000000 0.000000 0.000000 0.000000 0.078957
#
#
# Mechanical properties :
#
#
# Convention : Reuss Voigt Hill
#
# Bulk Modulus (GPa) = 52.47051 60.46390 56.46720
# Shear Modulus (GPa) = 20.57370 24.24404 22.40887
#
# Velocity S-wave (km/s) = 3.29205 3.57365 3.43574
# Velocity P-wave (km/s) = 6.48767 6.99131 6.74420
#
# Compressibility (1/GPa) = 0.01905832
#
# Stress axis : x y z
#
# Youngs Moduli (GPa) = 59.71059 77.60093 65.25769
#
# Poissons Ratio (x) = 0.34027 0.08488
# Poissons Ratio (y) = 0.26182 0.47404
# Poissons Ratio (z) = 0.07766 0.56370
#
# Static dielectric constant tensor:
#      x y z
#    x 3.361820 0.000000 0.000000 
#    y 0.000000 3.894350 0.000000 
#    z 0.000000 0.000000 3.734270 
# 
# 
# High freq. dielectric constant tensor:
#      x y z
#    x 1.708200 0.000000 0.000000 
#    y 0.000000 1.753930 0.000000 
#    z 0.000000 0.000000 1.740150 
# 
# From -- ./inp_files/24817.got.cif
#   From: 2010.03.12/outbox.cif.g09.slc.cpg/sg68_13_cif.got.tgz:24817.got - 2010.04.10 23:14:56.
