data_PCOD8282439
_publ_section_title
;
Structure prediction by ZEFSAII (Michael W. Deem and Ramdas Pophale) SiO2 
 PCOD8282439
Probable space group: C C C A
;
_chemical_formula_sum "Si O2"
_cell_formula_units_Z 96
_cell_length_a 14.427760
_cell_length_b 15.509120
_cell_length_c 19.608986
_cell_angle_alpha 90.000000
_cell_angle_beta 90.000000
_cell_angle_gamma 90.000000
_cell_volume 4387.743203
_symmetry_space_group_name_H-M "C C C A"
_symmetry_group_IT_number 68
_space_group.IT_coordinate_system_code '2'
_symmetry_cell_setting 'orthorhombic'
loop_
_space_group_symop_operation_xyz
x,y,z
-x,1/2-y,z
x,1/2-y,1/2-z
-x,y,1/2-z
-x,-y,-z
x,1/2+y,-z
-x,1/2+y,1/2+z
x,-y,1/2+z
1/2+x,1/2+y,z
1/2-x,-y,z
1/2+x,-y,1/2-z
1/2-x,1/2+y,1/2-z
1/2-x,1/2-y,-z
1/2+x,y,-z
1/2-x,y,1/2+z
1/2+x,1/2-y,1/2+z
loop_
_atom_site_type_symbol
_atom_site_label
_atom_site_fract_x
_atom_site_fract_y
_atom_site_fract_z
Si Si1 0.401970 0.128293 0.769836
Si Si2 0.177115 0.433641 0.363835
Si Si3 0.703850 0.189716 0.443713
Si Si4 0.721230 0.197686 0.184741
Si Si5 0.932340 0.065367 0.688758
Si Si6 0.956268 0.444078 0.560819
O O1 0.500000 0.173218 0.750000
O O2 0.347846 0.127626 0.698286
O O3 0.333803 0.183386 0.819159
O O4 0.420839 0.037060 0.804893
O O5 0.250000 0.500000 0.332644
O O6 0.218081 0.380181 0.426559
O O7 0.091070 0.486189 0.390806
O O8 0.750000 0.250000 0.500000
O O9 0.682284 0.250136 0.379695
O O10 0.611384 0.134223 0.465375
O O11 0.690121 0.250000 0.250000
O O12 0.669438 0.106457 0.192540
O O13 0.000000 0.098234 0.750000
O O14 0.968172 0.093875 0.613317
O O15 0.000000 0.500000 0.500000
#
# Coordination Sequence:
#
# PCOD8282439 Si02
#       6
#    16  16  16  16  16  16
#     4  11  22  41  70 100 128 174 229 279 339 416
#     4  10  20  44  69  92 132 175 217 274 336 408
#     4  11  27  45  64  97 141 180 223 284 353 406
#     4  12  25  42  66 100 138 173 217 288 353 405
#     4  11  23  42  71  99 129 174 228 280 339 415
#     4  11  25  45  70  97 131 184 235 278 338 417
#
# _framework density 21.879128999999999
#
# number of rings (size 3 to 8) (size 9 to 14) (size 15 to 20)
#    0.000    1.000    5.000    2.500    4.667    2.667 
#    0.000    1.667    0.000    0.000    0.000    0.000 
#    0.000    0.000    0.000    0.000    0.000    0.000 
#
# Total GULP energy -594823.301433 kJ/mol
# GULP energy per Si atom -12392.152113 kJ/mol
# Density = 2.182933 g / cm^3
# Si number density = 21.879129 Si / 1000 Ang^3
#
#
#
# Elastic Constant Matrix: (Units=GPa)
#
#
# Indices 1 2 3 4 5 6 
#
# 1 124.6259 44.0973 42.0281 0.0000 0.0000 0.0000
# 2 44.0973 97.4830 32.2691 0.0000 0.0000 0.0000
# 3 42.0281 32.2691 121.3393 0.0000 0.0000 0.0000
# 4 0.0000 0.0000 0.0000 134.0085 0.0000 0.0000
# 5 0.0000 0.0000 0.0000 0.0000 -19.0568 0.0000
# 6 0.0000 0.0000 0.0000 0.0000 0.0000 30.4563
#
#
#
# Elastic Compliance Matrix: (Units=1/GPa)
#
#
# Indices 1 2 3 4 5 6 
#
# 1 0.010217 -0.003783 -0.002533 0.000000 0.000000 0.000000
# 2 -0.003783 0.012649 -0.002054 0.000000 0.000000 0.000000
# 3 -0.002533 -0.002054 0.009665 0.000000 0.000000 0.000000
# 4 0.000000 0.000000 0.000000 0.007462 0.000000 0.000000
# 5 0.000000 0.000000 0.000000 0.000000 -0.052475 0.000000
# 6 0.000000 0.000000 0.000000 0.000000 0.000000 0.032834
#
#
# Mechanical properties :
#
#
# Convention : Reuss Voigt Hill
#
# Bulk Modulus (GPa) = 63.32375 64.47079 63.89727
# Shear Modulus (GPa) = 118.04903 44.08517 81.06710
#
# Velocity S-wave (km/s) = 7.35338 4.49368 6.09366
# Velocity P-wave (km/s) = 10.05493 7.51365 8.87572
#
# Compressibility (1/GPa) = 0.01579186
#
# Stress axis : x y z
#
# Youngs Moduli (GPa) = 97.87829 79.05523 103.46925
#
# Poissons Ratio (x) = 0.29909 0.26205
# Poissons Ratio (y) = 0.37030 0.21248
# Poissons Ratio (z) = 0.24789 0.16235
#
# Static dielectric constant tensor:
#      x y z
#    x 4.279340 0.000000 0.000000 
#    y 0.000000 3.945780 0.000000 
#    z 0.000000 0.000000 4.141180 
# 
# 
# High freq. dielectric constant tensor:
#      x y z
#    x 1.869880 0.000000 0.000000 
#    y 0.000000 1.867060 0.000000 
#    z 0.000000 0.000000 1.845090 
# 
# From -- ./inp_files/38576.got.cif
#   From: 2010.03.12/outbox.cif.g09.slc.cpg/sg68_20_cif.got.tgz:38576.got - 2010.04.10 23:14:56.
