data_PCOD8282772
_publ_section_title
;
Structure prediction by ZEFSAII (Michael W. Deem and Ramdas Pophale) SiO2 
 PCOD8282772
Probable space group: C C C A
;
_chemical_formula_sum "Si O2"
_cell_formula_units_Z 68
_cell_length_a 24.684042
_cell_length_b 4.978698
_cell_length_c 26.553410
_cell_angle_alpha 90.000000
_cell_angle_beta 90.000000
_cell_angle_gamma 90.000000
_cell_volume 3263.265139
_symmetry_space_group_name_H-M "C C C A"
_symmetry_group_IT_number 68
_space_group.IT_coordinate_system_code '2'
_symmetry_cell_setting 'orthorhombic'
loop_
_space_group_symop_operation_xyz
x,y,z
-x,1/2-y,z
x,1/2-y,1/2-z
-x,y,1/2-z
-x,-y,-z
x,1/2+y,-z
-x,1/2+y,1/2+z
x,-y,1/2+z
1/2+x,1/2+y,z
1/2-x,-y,z
1/2+x,-y,1/2-z
1/2-x,1/2+y,1/2-z
1/2-x,1/2-y,-z
1/2+x,y,-z
1/2-x,y,1/2+z
1/2+x,1/2-y,1/2+z
loop_
_atom_site_type_symbol
_atom_site_label
_atom_site_fract_x
_atom_site_fract_y
_atom_site_fract_z
Si Si1 0.000000 0.750000 0.250000
Si Si2 0.116928 0.614090 0.627468
Si Si3 0.715838 0.250105 0.690785
Si Si4 0.811443 0.015037 0.532902
Si Si5 0.052204 0.110219 0.653140
O O1 0.962401 0.933556 0.287179
O O2 0.157445 0.756170 0.665952
O O3 0.144286 0.571245 0.573604
O O4 0.100863 0.323546 0.648575
O O5 0.066598 0.826127 0.626504
O O6 0.706863 0.250000 0.750000
O O7 0.750000 0.500000 0.671467
O O8 0.750000 0.000000 0.671535
O O9 0.820359 0.819613 0.485151
O O10 0.750000 0.000000 0.554577
O O11 0.000000 0.250000 0.625736
#
# Coordination Sequence:
#
# PCOD8282772 Si02
#       5
#     4  16  16  16  16
#     4   8  24  42  60  90 124 162 216 262 300 354
#     4  12  22  38  66  87 118 165 204 252 310 367
#     4  10  22  35  51  82 121 154 190 233 291 371
#     4  10  22  40  64  93 124 157 204 259 310 370
#     4  10  24  38  61  89 123 154 210 258 296 359
#
# _framework density 20.838027
#
# number of rings (size 3 to 8) (size 9 to 14) (size 15 to 20)
#    0.706    0.941    0.000    4.235    3.294    3.765 
#    0.000    0.000    0.000   14.118    0.000    0.000 
#    0.000    0.000    0.000    0.000    0.000    0.000 
#
# Total GULP energy -421466.929504 kJ/mol
# GULP energy per Si atom -12396.086162 kJ/mol
# Density = 2.079060 g / cm^3
# Si number density = 20.838027 Si / 1000 Ang^3
#
#
#
# Elastic Constant Matrix: (Units=GPa)
#
#
# Indices 1 2 3 4 5 6 
#
# 1 78.6510 19.0785 43.7798 0.0000 0.0000 0.0000
# 2 19.0785 112.1652 24.8769 0.0000 0.0000 0.0000
# 3 43.7798 24.8769 74.6246 0.0000 0.0000 0.0000
# 4 0.0000 0.0000 0.0000 15.9845 0.0000 0.0000
# 5 0.0000 0.0000 0.0000 0.0000 33.5189 0.0000
# 6 0.0000 0.0000 0.0000 0.0000 0.0000 37.3967
#
#
#
# Elastic Compliance Matrix: (Units=1/GPa)
#
#
# Indices 1 2 3 4 5 6 
#
# 1 0.018949 -0.000818 -0.010844 0.000000 0.000000 0.000000
# 2 -0.000818 0.009663 -0.002741 0.000000 0.000000 0.000000
# 3 -0.010844 -0.002741 0.020676 0.000000 0.000000 0.000000
# 4 0.000000 0.000000 0.000000 0.062561 0.000000 0.000000
# 5 0.000000 0.000000 0.000000 0.000000 0.029834 0.000000
# 6 0.000000 0.000000 0.000000 0.000000 0.000000 0.026740
#
#
# Mechanical properties :
#
#
# Convention : Reuss Voigt Hill
#
# Bulk Modulus (GPa) = 48.82563 48.99012 48.90787
# Shear Modulus (GPa) = 24.50310 29.22708 26.86509
#
# Velocity S-wave (km/s) = 3.43284 3.74917 3.59449
# Velocity P-wave (km/s) = 6.26054 6.50405 6.38346
#
# Compressibility (1/GPa) = 0.02048105
#
# Stress axis : x y z
#
# Youngs Moduli (GPa) = 52.77327 103.49265 48.36513
#
# Poissons Ratio (x) = 0.08466 0.52447
# Poissons Ratio (y) = 0.04317 0.13258
# Poissons Ratio (z) = 0.57228 0.28369
#
# Static dielectric constant tensor:
#      x y z
#    x 3.839300 0.000000 0.000000 
#    y 0.000000 3.861850 0.000000 
#    z 0.000000 0.000000 3.377790 
# 
# 
# High freq. dielectric constant tensor:
#      x y z
#    x 1.817930 0.000000 0.000000 
#    y 0.000000 1.829230 0.000000 
#    z 0.000000 0.000000 1.786640 
# 
# From -- ./inp_files/51618.got.cif
#   From: 2010.03.12/outbox.cif.g09.slc.cpg/sg68_26_cif.got.tgz:51618.got - 2010.04.10 23:14:56.
