data_PCOD8282989
_publ_section_title
;
Structure prediction by ZEFSAII (Michael W. Deem and Ramdas Pophale) SiO2 
 PCOD8282989
Probable space group: C C C A
;
_chemical_formula_sum "Si O2"
_cell_formula_units_Z 88
_cell_length_a 14.405433
_cell_length_b 14.905977
_cell_length_c 19.436252
_cell_angle_alpha 90.000000
_cell_angle_beta 90.000000
_cell_angle_gamma 90.000000
_cell_volume 4173.489113
_symmetry_space_group_name_H-M "C C C A"
_symmetry_group_IT_number 68
_space_group.IT_coordinate_system_code '2'
_symmetry_cell_setting 'orthorhombic'
loop_
_space_group_symop_operation_xyz
x,y,z
-x,1/2-y,z
x,1/2-y,1/2-z
-x,y,1/2-z
-x,-y,-z
x,1/2+y,-z
-x,1/2+y,1/2+z
x,-y,1/2+z
1/2+x,1/2+y,z
1/2-x,-y,z
1/2+x,-y,1/2-z
1/2-x,1/2+y,1/2-z
1/2-x,1/2-y,-z
1/2+x,y,-z
1/2-x,y,1/2+z
1/2+x,1/2-y,1/2+z
loop_
_atom_site_type_symbol
_atom_site_label
_atom_site_fract_x
_atom_site_fract_y
_atom_site_fract_z
Si Si1 0.277855 0.750000 0.250000
Si Si2 0.314058 0.921256 0.690179
Si Si3 0.749428 0.867572 0.452610
Si Si4 0.599581 0.735933 0.470939
Si Si5 0.500000 0.998015 0.750000
Si Si6 0.111871 0.384624 0.152114
Si Si7 0.750000 0.000000 0.072044
O O1 0.213212 0.679844 0.290196
O O2 0.338225 0.690499 0.198289
O O3 0.294539 0.927858 0.607958
O O4 0.419229 0.937006 0.715993
O O5 0.250000 0.000000 0.724439
O O6 0.652940 0.818166 0.432074
O O7 0.830602 0.797514 0.470614
O O8 0.718564 0.920757 0.521212
O O9 0.500000 0.750000 0.507831
O O10 0.569918 0.663982 0.413798
O O11 0.469812 0.066012 0.808925
O O12 0.173767 0.465967 0.124815
#
# Coordination Sequence:
#
# PCOD8282989 Si02
#       7
#     8  16  16  16   8  16   8
#     4  12  24  46  74  94 148 188 228 292 352 432
#     4  12  25  47  69 103 138 187 235 290 359 428
#     4  10  22  43  68  94 138 184 222 295 362 411
#     4  10  23  40  64 101 129 176 238 286 346 422
#     4  12  28  44  70 106 148 184 242 288 360 434
#     4  11  24  40  67 104 134 182 234 292 347 422
#     4  10  22  44  70  96 144 180 230 290 362 418
#
# _framework density 21.085474000000001
#
# number of rings (size 3 to 8) (size 9 to 14) (size 15 to 20)
#    0.000    1.091    4.545    1.091    5.091    1.818 
#    3.273    3.636    0.000    0.000    0.000    0.000 
#    0.000    0.000    0.000    0.000    0.000    0.000 
#
# Total GULP energy -545145.803029 kJ/mol
# GULP energy per Si atom -12389.677342 kJ/mol
# Density = 2.103748 g / cm^3
# Si number density = 21.085474 Si / 1000 Ang^3
#
#
#
# Elastic Constant Matrix: (Units=GPa)
#
#
# Indices 1 2 3 4 5 6 
#
# 1 142.3932 54.2213 33.3981 0.0000 0.0000 0.0000
# 2 54.2213 98.2483 20.0775 0.0000 0.0000 0.0000
# 3 33.3981 20.0775 70.8437 0.0000 0.0000 0.0000
# 4 0.0000 0.0000 0.0000 35.1083 0.0000 0.0000
# 5 0.0000 0.0000 0.0000 0.0000 24.2705 0.0000
# 6 0.0000 0.0000 0.0000 0.0000 0.0000 22.9532
#
#
#
# Elastic Compliance Matrix: (Units=1/GPa)
#
#
# Indices 1 2 3 4 5 6 
#
# 1 0.009523 -0.004605 -0.003185 0.000000 0.000000 0.000000
# 2 -0.004605 0.013031 -0.001522 0.000000 0.000000 0.000000
# 3 -0.003185 -0.001522 0.016048 0.000000 0.000000 0.000000
# 4 0.000000 0.000000 0.000000 0.028483 0.000000 0.000000
# 5 0.000000 0.000000 0.000000 0.000000 0.041202 0.000000
# 6 0.000000 0.000000 0.000000 0.000000 0.000000 0.043567
#
#
# Mechanical properties :
#
#
# Convention : Reuss Voigt Hill
#
# Bulk Modulus (GPa) = 50.05213 58.54213 54.29713
# Shear Modulus (GPa) = 28.22669 30.05229 29.13949
#
# Velocity S-wave (km/s) = 3.66277 3.77936 3.72152
# Velocity P-wave (km/s) = 6.45578 6.84611 6.65381
#
# Compressibility (1/GPa) = 0.01997917
#
# Stress axis : x y z
#
# Youngs Moduli (GPa) = 105.00666 76.74195 62.31223
#
# Poissons Ratio (x) = 0.35339 0.19843
# Poissons Ratio (y) = 0.48355 0.09484
# Poissons Ratio (z) = 0.33439 0.11681
#
# Static dielectric constant tensor:
#      x y z
#    x 3.392580 0.000000 0.000000 
#    y 0.000000 4.086650 0.000000 
#    z 0.000000 0.000000 4.009000 
# 
# 
# High freq. dielectric constant tensor:
#      x y z
#    x 1.813480 0.000000 0.000000 
#    y 0.000000 1.840850 0.000000 
#    z 0.000000 0.000000 1.832730 
# 
# From -- ./inp_files/38503.got.cif
#   From: 2010.03.12/outbox.cif.g09.slc.cpg/sg68_20_cif.got.tgz:38503.got - 2010.04.10 23:14:56.
