data_PCOD8282485
_publ_section_title
;
Structure prediction by ZEFSAII (Michael W. Deem and Ramdas Pophale) SiO2 
 PCOD8282485
Probable space group: C C C A
;
_chemical_formula_sum "Si O2"
_cell_formula_units_Z 64
_cell_length_a 5.014891
_cell_length_b 35.508113
_cell_length_c 18.274871
_cell_angle_alpha 90.000000
_cell_angle_beta 90.000000
_cell_angle_gamma 90.000000
_cell_volume 3254.193785
_symmetry_space_group_name_H-M "C C C A"
_symmetry_group_IT_number 68
_space_group.IT_coordinate_system_code '2'
_symmetry_cell_setting 'orthorhombic'
loop_
_space_group_symop_operation_xyz
x,y,z
-x,1/2-y,z
x,1/2-y,1/2-z
-x,y,1/2-z
-x,-y,-z
x,1/2+y,-z
-x,1/2+y,1/2+z
x,-y,1/2+z
1/2+x,1/2+y,z
1/2-x,-y,z
1/2+x,-y,1/2-z
1/2-x,1/2+y,1/2-z
1/2-x,1/2-y,-z
1/2+x,y,-z
1/2-x,y,1/2+z
1/2+x,1/2-y,1/2+z
loop_
_atom_site_type_symbol
_atom_site_label
_atom_site_fract_x
_atom_site_fract_y
_atom_site_fract_z
Si Si1 0.461644 0.792691 0.548831
Si Si2 0.213060 0.544359 0.543437
Si Si3 0.012489 0.855999 0.334256
Si Si4 0.507052 0.095270 0.834190
O O1 0.500000 0.750000 0.576632
O O2 0.178745 0.801374 0.512674
O O3 0.474316 0.818668 0.619398
O O4 0.250000 0.500000 0.551782
O O5 0.506849 0.558379 0.520032
O O6 0.092695 0.559617 0.619171
O O7 0.800158 0.888995 0.353789
O O8 0.000000 0.843921 0.250000
O O9 0.305923 0.870931 0.351474
O O10 0.500000 0.082103 0.750000
#
# Coordination Sequence:
#
# PCOD8282485 Si02
#       4
#    16  16  16  16
#     4  10  21  36  54  79 109 140 179 224 268 320
#     4  10  21  37  56  80 109 140 177 220 265 317
#     4  10  21  36  55  79 108 141 179 222 267 319
#     4  10  21  37  55  80 110 140 179 223 266 319
#
# _framework density 19.666927999999999
#
# number of rings (size 3 to 8) (size 9 to 14) (size 15 to 20)
#    0.000    2.000    0.000    3.000    0.000    6.500 
#    0.000    7.500    0.000    9.000    0.000    0.000 
#    0.000    0.000    0.000    0.000    0.000    0.000 
#
# Total GULP energy -396674.813057 kJ/mol
# GULP energy per Si atom -12396.087908 kJ/mol
# Density = 1.962217 g / cm^3
# Si number density = 19.666928 Si / 1000 Ang^3
#
#
#
# Elastic Constant Matrix: (Units=GPa)
#
#
# Indices 1 2 3 4 5 6 
#
# 1 68.4864 31.6813 23.8446 0.0000 0.0000 0.0000
# 2 31.6813 64.6170 65.8246 0.0000 0.0000 0.0000
# 3 23.8446 65.8246 96.6395 0.0000 0.0000 0.0000
# 4 0.0000 0.0000 0.0000 50.3666 0.0000 0.0000
# 5 0.0000 0.0000 0.0000 0.0000 20.4176 0.0000
# 6 0.0000 0.0000 0.0000 0.0000 0.0000 27.7761
#
#
#
# Elastic Compliance Matrix: (Units=1/GPa)
#
#
# Indices 1 2 3 4 5 6 
#
# 1 0.019782 -0.015440 0.005636 0.000000 0.000000 0.000000
# 2 -0.015440 0.062603 -0.038832 0.000000 0.000000 0.000000
# 3 0.005636 -0.038832 0.035407 0.000000 0.000000 0.000000
# 4 0.000000 0.000000 0.000000 0.019854 0.000000 0.000000
# 5 0.000000 0.000000 0.000000 0.000000 0.048977 0.000000
# 6 0.000000 0.000000 0.000000 0.000000 0.000000 0.036002
#
#
# Mechanical properties :
#
#
# Convention : Reuss Voigt Hill
#
# Bulk Modulus (GPa) = 48.73274 52.49377 50.61326
# Shear Modulus (GPa) = 15.30279 26.93823 21.12051
#
# Velocity S-wave (km/s) = 2.79247 3.70499 3.28061
# Velocity P-wave (km/s) = 5.93549 6.71207 6.33569
#
# Compressibility (1/GPa) = 0.02052008
#
# Stress axis : x y z
#
# Youngs Moduli (GPa) = 50.55190 15.97357 28.24312
#
# Poissons Ratio (x) = 0.24663 -0.15917
# Poissons Ratio (y) = 0.78052 1.09673
# Poissons Ratio (z) = -0.28490 0.62028
#
# Static dielectric constant tensor:
#      x y z
#    x 4.068220 0.000000 0.000000 
#    y 0.000000 3.356190 0.000000 
#    z 0.000000 0.000000 3.523760 
# 
# 
# High freq. dielectric constant tensor:
#      x y z
#    x 1.793520 0.000000 0.000000 
#    y 0.000000 1.751310 0.000000 
#    z 0.000000 0.000000 1.762030 
# 
# From -- ./inp_files/27125.got.cif
#   From: 2010.03.12/outbox.cif.g09.slc.cpg/sg68_14_cif.got.tgz:27125.got - 2010.04.10 23:14:56.
