data_PCOD8282409
_publ_section_title
;
Structure prediction by ZEFSAII (Michael W. Deem and Ramdas Pophale) SiO2 
 PCOD8282409
Probable space group: C C C A
;
_chemical_formula_sum "Si O2"
_cell_formula_units_Z 64
_cell_length_a 8.516675
_cell_length_b 18.100544
_cell_length_c 19.315953
_cell_angle_alpha 90.000000
_cell_angle_beta 90.000000
_cell_angle_gamma 90.000000
_cell_volume 2977.678754
_symmetry_space_group_name_H-M "C C C A"
_symmetry_group_IT_number 68
_space_group.IT_coordinate_system_code '2'
_symmetry_cell_setting 'orthorhombic'
loop_
_space_group_symop_operation_xyz
x,y,z
-x,1/2-y,z
x,1/2-y,1/2-z
-x,y,1/2-z
-x,-y,-z
x,1/2+y,-z
-x,1/2+y,1/2+z
x,-y,1/2+z
1/2+x,1/2+y,z
1/2-x,-y,z
1/2+x,-y,1/2-z
1/2-x,1/2+y,1/2-z
1/2-x,1/2-y,-z
1/2+x,y,-z
1/2-x,y,1/2+z
1/2+x,1/2-y,1/2+z
loop_
_atom_site_type_symbol
_atom_site_label
_atom_site_fract_x
_atom_site_fract_y
_atom_site_fract_z
Si Si1 0.669313 0.846767 0.284068
Si Si2 0.463111 0.332119 0.027762
Si Si3 0.333351 0.209987 0.336464
Si Si4 0.766762 0.084458 0.420853
O O1 0.500000 0.852217 0.250000
O O2 0.693300 0.769838 0.326559
O O3 0.801059 0.851758 0.222802
O O4 0.692788 0.912580 0.339171
O O5 0.500000 0.250000 0.000190
O O6 0.327288 0.326456 0.087205
O O7 0.612684 0.368059 0.064424
O O8 0.410172 0.382344 0.964612
O O9 0.500000 0.250000 0.325568
O O10 0.750000 0.000000 0.443457
#
# Coordination Sequence:
#
# PCOD8282409 Si02
#       4
#    16  16  16  16
#     4  11  23  39  66 101 138 172 228 285 336 404
#     4  11  24  44  75  99 135 181 238 283 332 410
#     4  10  20  40  68 101 131 174 225 293 334 387
#     4  12  27  47  66 105 143 184 223 283 353 410
#
# _framework density 21.493251999999998
#
# number of rings (size 3 to 8) (size 9 to 14) (size 15 to 20)
#    0.000    1.000    5.000    4.500    3.500    2.000 
#    4.500    0.000    0.000    0.000    0.000    0.000 
#    0.000    0.000    0.000    0.000    0.000    0.000 
#
# Total GULP energy -396693.276502 kJ/mol
# GULP energy per Si atom -12396.664891 kJ/mol
# Density = 2.144433 g / cm^3
# Si number density = 21.493252 Si / 1000 Ang^3
#
#
#
# Elastic Constant Matrix: (Units=GPa)
#
#
# Indices 1 2 3 4 5 6 
#
# 1 93.6274 40.2187 31.2351 0.0000 0.0000 0.0000
# 2 40.2187 120.7708 42.5651 0.0000 0.0000 0.0000
# 3 31.2351 42.5651 112.2828 0.0000 0.0000 0.0000
# 4 0.0000 0.0000 0.0000 25.9667 0.0000 0.0000
# 5 0.0000 0.0000 0.0000 0.0000 -3.3396 0.0000
# 6 0.0000 0.0000 0.0000 0.0000 0.0000 16.8699
#
#
#
# Elastic Compliance Matrix: (Units=1/GPa)
#
#
# Indices 1 2 3 4 5 6 
#
# 1 0.012946 -0.003511 -0.002270 0.000000 0.000000 0.000000
# 2 -0.003511 0.010509 -0.003007 0.000000 0.000000 0.000000
# 3 -0.002270 -0.003007 0.010678 0.000000 0.000000 0.000000
# 4 0.000000 0.000000 0.000000 0.038511 0.000000 0.000000
# 5 0.000000 0.000000 0.000000 0.000000 -0.299434 0.000000
# 6 0.000000 0.000000 0.000000 0.000000 0.000000 0.059277
#
#
# Mechanical properties :
#
#
# Convention : Reuss Voigt Hill
#
# Bulk Modulus (GPa) = 60.40195 61.63543 61.01869
# Shear Modulus (GPa) = -34.62196 22.07686 -6.27255
#
# Velocity S-wave (km/s) = -4.01787 3.20840 -1.71018
# Velocity P-wave (km/s) = 2.57671 6.51644 4.95497
#
# Compressibility (1/GPa) = 0.01655576
#
# Stress axis : x y z
#
# Youngs Moduli (GPa) = 77.24205 95.15383 93.65335
#
# Poissons Ratio (x) = 0.33410 0.21263
# Poissons Ratio (y) = 0.27121 0.28164
# Poissons Ratio (z) = 0.17537 0.28615
#
# Static dielectric constant tensor:
#      x y z
#    x 3.823470 0.000000 0.000000 
#    y 0.000000 3.654660 0.000000 
#    z 0.000000 0.000000 4.419330 
# 
# 
# High freq. dielectric constant tensor:
#      x y z
#    x 1.843030 0.000000 0.000000 
#    y 0.000000 1.801640 0.000000 
#    z 0.000000 0.000000 1.864790 
# 
# From -- ./inp_files/35958.got.cif
#   From: 2010.03.12/outbox.cif.g09.slc.cpg/sg68_18_cif.got.tgz:35958.got - 2010.04.10 23:14:56.
