data_PCOD8282593
_publ_section_title
;
Structure prediction by ZEFSAII (Michael W. Deem and Ramdas Pophale) SiO2 
 PCOD8282593
Probable space group: C C C A
;
_chemical_formula_sum "Si O2"
_cell_formula_units_Z 88
_cell_length_a 8.888376
_cell_length_b 20.788042
_cell_length_c 22.560049
_cell_angle_alpha 90.000000
_cell_angle_beta 90.000000
_cell_angle_gamma 90.000000
_cell_volume 4168.463876
_symmetry_space_group_name_H-M "C C C A"
_symmetry_group_IT_number 68
_space_group.IT_coordinate_system_code '2'
_symmetry_cell_setting 'orthorhombic'
loop_
_space_group_symop_operation_xyz
x,y,z
-x,1/2-y,z
x,1/2-y,1/2-z
-x,y,1/2-z
-x,-y,-z
x,1/2+y,-z
-x,1/2+y,1/2+z
x,-y,1/2+z
1/2+x,1/2+y,z
1/2-x,-y,z
1/2+x,-y,1/2-z
1/2-x,1/2+y,1/2-z
1/2-x,1/2-y,-z
1/2+x,y,-z
1/2-x,y,1/2+z
1/2+x,1/2-y,1/2+z
loop_
_atom_site_type_symbol
_atom_site_label
_atom_site_fract_x
_atom_site_fract_y
_atom_site_fract_z
Si Si1 0.142942 0.338191 0.127763
Si Si2 0.250000 0.000000 0.676656
Si Si3 0.667894 0.121831 0.752541
Si Si4 0.706282 0.068200 0.041480
Si Si5 0.203932 0.191115 0.137365
Si Si6 0.367569 0.415371 0.423860
O O1 0.222314 0.374001 0.184270
O O2 0.196642 0.374656 0.069483
O O3 0.207500 0.266306 0.125864
O O4 0.962134 0.339413 0.127473
O O5 0.332062 0.049975 0.720393
O O6 0.134636 0.038295 0.634060
O O7 0.500000 0.148851 0.750000
O O8 0.754715 0.172294 0.795355
O O9 0.531037 0.083143 0.047496
O O10 0.750000 0.000000 0.071768
O O11 0.744899 0.062599 0.972015
O O12 0.323501 0.157535 0.093845
#
# Coordination Sequence:
#
# PCOD8282593 Si02
#       6
#    16   8  16  16  16  16
#     4  10  21  38  64  95 124 164 207 253 300 369
#     4  10  22  36  60  90 130 164 200 256 304 370
#     4   9  19  34  61  89 125 162 204 245 298 367
#     4  12  26  39  65  90 126 161 206 261 312 374
#     4   9  20  41  64  90 125 166 210 248 302 361
#     4  11  24  42  62  89 123 167 206 258 313 363
#
# _framework density 21.110896
#
# number of rings (size 3 to 8) (size 9 to 14) (size 15 to 20)
#    0.000    1.818    0.909    2.182    8.909    3.636 
#    0.000    2.727    0.000    4.364    0.000    0.000 
#    0.000    0.000    0.000    0.000    0.000    0.000 
#
# Total GULP energy -545386.048199 kJ/mol
# GULP energy per Si atom -12395.137459 kJ/mol
# Density = 2.106285 g / cm^3
# Si number density = 21.110896 Si / 1000 Ang^3
#
#
#
# Elastic Constant Matrix: (Units=GPa)
#
#
# Indices 1 2 3 4 5 6 
#
# 1 92.5288 31.6312 38.5328 0.0000 0.0000 0.0000
# 2 31.6312 140.3246 58.5605 0.0000 0.0000 0.0000
# 3 38.5328 58.5605 98.2132 0.0000 0.0000 0.0000
# 4 0.0000 0.0000 0.0000 30.0069 0.0000 0.0000
# 5 0.0000 0.0000 0.0000 0.0000 24.3954 0.0000
# 6 0.0000 0.0000 0.0000 0.0000 0.0000 29.4837
#
#
#
# Elastic Compliance Matrix: (Units=1/GPa)
#
#
# Indices 1 2 3 4 5 6 
#
# 1 0.013038 -0.001071 -0.004477 0.000000 0.000000 0.000000
# 2 -0.001071 0.009575 -0.005289 0.000000 0.000000 0.000000
# 3 -0.004477 -0.005289 0.015092 0.000000 0.000000 0.000000
# 4 0.000000 0.000000 0.000000 0.033326 0.000000 0.000000
# 5 0.000000 0.000000 0.000000 0.000000 0.040991 0.000000
# 6 0.000000 0.000000 0.000000 0.000000 0.000000 0.033917
#
#
# Mechanical properties :
#
#
# Convention : Reuss Voigt Hill
#
# Bulk Modulus (GPa) = 62.37674 65.39064 63.88369
# Shear Modulus (GPa) = 28.90912 30.26667 29.58790
#
# Velocity S-wave (km/s) = 3.70455 3.79053 3.74778
# Velocity P-wave (km/s) = 6.92167 7.08516 7.00390
#
# Compressibility (1/GPa) = 0.01603162
#
# Stress axis : x y z
#
# Youngs Moduli (GPa) = 76.70014 104.43954 66.26010
#
# Poissons Ratio (x) = 0.11182 0.29664
# Poissons Ratio (y) = 0.08212 0.35046
# Poissons Ratio (z) = 0.34338 0.55239
#
# Static dielectric constant tensor:
#      x y z
#    x 3.456980 0.000000 0.000000 
#    y 0.000000 3.816780 0.000000 
#    z 0.000000 0.000000 4.045840 
# 
# 
# High freq. dielectric constant tensor:
#      x y z
#    x 1.794270 0.000000 0.000000 
#    y 0.000000 1.834990 0.000000 
#    z 0.000000 0.000000 1.838220 
# 
# From -- ./inp_files/36301.got.cif
#   From: 2010.03.12/outbox.cif.g09.slc.cpg/sg68_19_cif.got.tgz:36301.got - 2010.04.10 23:14:56.
