data_PCOD8282158
_publ_section_title
;
Structure prediction by ZEFSAII (Michael W. Deem and Ramdas Pophale) SiO2 
 PCOD8282158
Probable space group: C C C A
;
_chemical_formula_sum "Si O2"
_cell_formula_units_Z 120
_cell_length_a 13.365067
_cell_length_b 22.341606
_cell_length_c 20.043654
_cell_angle_alpha 90.000000
_cell_angle_beta 90.000000
_cell_angle_gamma 90.000000
_cell_volume 5984.976178
_symmetry_space_group_name_H-M "C C C A"
_symmetry_group_IT_number 68
_space_group.IT_coordinate_system_code '2'
_symmetry_cell_setting 'orthorhombic'
loop_
_space_group_symop_operation_xyz
x,y,z
-x,1/2-y,z
x,1/2-y,1/2-z
-x,y,1/2-z
-x,-y,-z
x,1/2+y,-z
-x,1/2+y,1/2+z
x,-y,1/2+z
1/2+x,1/2+y,z
1/2-x,-y,z
1/2+x,-y,1/2-z
1/2-x,1/2+y,1/2-z
1/2-x,1/2-y,-z
1/2+x,y,-z
1/2-x,y,1/2+z
1/2+x,1/2-y,1/2+z
loop_
_atom_site_type_symbol
_atom_site_label
_atom_site_fract_x
_atom_site_fract_y
_atom_site_fract_z
Si Si1 0.838765 0.137216 0.992339
Si Si2 0.260641 0.796544 0.693112
Si Si3 0.250000 0.000000 0.201846
Si Si4 0.114841 0.246461 0.924726
Si Si5 0.679413 0.879486 0.587963
Si Si6 0.172849 0.104845 0.114075
Si Si7 0.119076 0.899400 0.261441
Si Si8 0.465904 0.067049 0.502622
O O1 0.855622 0.208448 0.984315
O O2 0.764992 0.111798 0.936293
O O3 0.943852 0.107368 0.977759
O O4 0.797252 0.120686 0.066838
O O5 0.222440 0.750000 0.750000
O O6 0.316041 0.755938 0.639541
O O7 0.168239 0.834867 0.660709
O O8 0.341751 0.846053 0.715280
O O9 0.187151 0.045825 0.157810
O O10 0.329765 0.036745 0.246370
O O11 0.136377 0.179600 0.949551
O O12 0.000000 0.250000 0.902815
O O13 0.655507 0.880887 0.665258
O O14 0.622990 0.933535 0.551676
O O15 0.070214 0.092735 0.074249
O O16 0.000000 0.904760 0.250000
O O17 0.500000 0.000000 0.500000
#
# Coordination Sequence:
#
# PCOD8282158 Si02
#       8
#    16  16   8  16  16  16  16  16
#     4  10  22  38  60  91 123 159 194 253 310 365
#     4  10  20  35  59  90 123 160 200 256 311 361
#     4  10  22  42  60  82 120 166 208 254 302 368
#     4  11  19  35  62  89 125 154 200 247 309 371
#     4  11  23  39  58  94 123 152 199 252 310 361
#     4   9  21  38  60  87 120 163 207 249 312 371
#     4  11  24  38  62  92 122 159 204 256 309 358
#     4  11  23  38  63  88 121 164 205 250 308 370
#
# _framework density 20.050204999999998
#
# number of rings (size 3 to 8) (size 9 to 14) (size 15 to 20)
#    0.000    1.600    2.667    2.000    5.600    2.667 
#    0.000    0.000    0.000    0.000    3.467    0.000 
#    0.000    0.000    0.000    0.000    0.000    0.000 
#
# Total GULP energy -743650.194493 kJ/mol
# GULP energy per Si atom -12394.169908 kJ/mol
# Density = 2.000457 g / cm^3
# Si number density = 20.050205 Si / 1000 Ang^3
#
#
#
# Elastic Constant Matrix: (Units=GPa)
#
#
# Indices 1 2 3 4 5 6 
#
# 1 64.6771 35.7007 31.5811 0.0000 0.0000 0.0000
# 2 35.7007 107.5954 27.1530 0.0000 0.0000 0.0000
# 3 31.5811 27.1530 83.1308 0.0000 0.0000 0.0000
# 4 0.0000 0.0000 0.0000 31.8351 0.0000 0.0000
# 5 0.0000 0.0000 0.0000 0.0000 21.7707 0.0000
# 6 0.0000 0.0000 0.0000 0.0000 0.0000 25.4811
#
#
#
# Elastic Compliance Matrix: (Units=1/GPa)
#
#
# Indices 1 2 3 4 5 6 
#
# 1 0.021667 -0.005571 -0.006412 0.000000 0.000000 0.000000
# 2 -0.005571 0.011562 -0.001660 0.000000 0.000000 0.000000
# 3 -0.006412 -0.001660 0.015007 0.000000 0.000000 0.000000
# 4 0.000000 0.000000 0.000000 0.031412 0.000000 0.000000
# 5 0.000000 0.000000 0.000000 0.000000 0.045933 0.000000
# 6 0.000000 0.000000 0.000000 0.000000 0.000000 0.039245
#
#
# Mechanical properties :
#
#
# Convention : Reuss Voigt Hill
#
# Bulk Modulus (GPa) = 47.73136 49.36366 48.54751
# Shear Modulus (GPa) = 25.11363 26.54861 25.83112
#
# Velocity S-wave (km/s) = 3.54296 3.64277 3.59321
# Velocity P-wave (km/s) = 6.37137 6.50896 6.44053
#
# Compressibility (1/GPa) = 0.02095059
#
# Stress axis : x y z
#
# Youngs Moduli (GPa) = 46.15228 86.49371 66.63496
#
# Poissons Ratio (x) = 0.48188 0.42724
# Poissons Ratio (y) = 0.25713 0.11060
# Poissons Ratio (z) = 0.29591 0.14357
#
# Static dielectric constant tensor:
#      x y z
#    x 4.756390 0.000000 0.000000 
#    y 0.000000 3.289010 0.000000 
#    z 0.000000 0.000000 3.679340 
# 
# 
# High freq. dielectric constant tensor:
#      x y z
#    x 1.765430 0.000000 0.000000 
#    y 0.000000 1.800400 0.000000 
#    z 0.000000 0.000000 1.778030 
# 
# From -- ./inp_files/37901.got.cif
#   From: 2010.03.12/outbox.cif.g09.slc.cpg/sg68_19_cif.got.tgz:37901.got - 2010.04.10 23:14:56.
