data_PCOD8282076
_publ_section_title
;
Structure prediction by ZEFSAII (Michael W. Deem and Ramdas Pophale) SiO2 
 PCOD8282076
Probable space group: C C C A
;
_chemical_formula_sum "Si O2"
_cell_formula_units_Z 88
_cell_length_a 14.241286
_cell_length_b 22.475746
_cell_length_c 14.412289
_cell_angle_alpha 90.000000
_cell_angle_beta 90.000000
_cell_angle_gamma 90.000000
_cell_volume 4613.136293
_symmetry_space_group_name_H-M "C C C A"
_symmetry_group_IT_number 68
_space_group.IT_coordinate_system_code '2'
_symmetry_cell_setting 'orthorhombic'
loop_
_space_group_symop_operation_xyz
x,y,z
-x,1/2-y,z
x,1/2-y,1/2-z
-x,y,1/2-z
-x,-y,-z
x,1/2+y,-z
-x,1/2+y,1/2+z
x,-y,1/2+z
1/2+x,1/2+y,z
1/2-x,-y,z
1/2+x,-y,1/2-z
1/2-x,1/2+y,1/2-z
1/2-x,1/2-y,-z
1/2+x,y,-z
1/2-x,y,1/2+z
1/2+x,1/2-y,1/2+z
loop_
_atom_site_type_symbol
_atom_site_label
_atom_site_fract_x
_atom_site_fract_y
_atom_site_fract_z
Si Si1 0.915378 0.515662 0.064035
Si Si2 0.488003 0.319153 0.640924
Si Si3 0.665684 0.888382 0.411726
Si Si4 0.196030 0.940562 0.770490
Si Si5 0.000000 0.492373 0.250000
Si Si6 0.817044 0.116553 0.048167
O O1 0.847060 0.458630 0.066580
O O2 0.956464 0.531441 0.166634
O O3 0.865124 0.573373 0.025832
O O4 0.000000 0.500000 0.000000
O O5 0.500000 0.250000 0.621713
O O6 0.500000 0.333401 0.750000
O O7 0.566799 0.354904 0.584660
O O8 0.387186 0.336698 0.596718
O O9 0.710017 0.889265 0.307623
O O10 0.733517 0.854975 0.485782
O O11 0.235703 0.918736 0.869007
O O12 0.250000 0.000000 0.739329
O O13 0.083973 0.950431 0.787773
#
# Coordination Sequence:
#
# PCOD8282076 Si02
#       6
#    16  16  16  16   8  16
#     4  11  19  33  56  88 127 166 191 236 307 380
#     4  11  24  45  67  84 112 163 220 263 297 350
#     4  11  22  37  58  93 120 157 202 247 309 364
#     4  11  20  33  53  83 125 162 190 234 293 364
#     4  10  20  32  50  76 126 168 200 226 274 364
#     4  12  22  37  61  91 125 157 203 252 306 375
#
# _framework density 19.075959000000001
#
# number of rings (size 3 to 8) (size 9 to 14) (size 15 to 20)
#    0.000    0.909    5.455    4.909    1.273    0.727 
#    0.000    0.000    0.000    0.000    0.000    1.273 
#    0.000    0.000    0.000    0.000    0.000    0.000 
#
# Total GULP energy -545324.599754 kJ/mol
# GULP energy per Si atom -12393.740904 kJ/mol
# Density = 1.903254 g / cm^3
# Si number density = 19.075959 Si / 1000 Ang^3
#
#
#
# Elastic Constant Matrix: (Units=GPa)
#
#
# Indices 1 2 3 4 5 6 
#
# 1 95.4921 21.9950 39.7906 0.0000 0.0000 0.0000
# 2 21.9950 64.7749 17.6501 0.0000 0.0000 0.0000
# 3 39.7906 17.6501 128.1834 0.0000 0.0000 0.0000
# 4 0.0000 0.0000 0.0000 18.0502 0.0000 0.0000
# 5 0.0000 0.0000 0.0000 0.0000 45.3154 0.0000
# 6 0.0000 0.0000 0.0000 0.0000 0.0000 17.6404
#
#
#
# Elastic Compliance Matrix: (Units=1/GPa)
#
#
# Indices 1 2 3 4 5 6 
#
# 1 0.012696 -0.003363 -0.003478 0.000000 0.000000 0.000000
# 2 -0.003363 0.016931 -0.001287 0.000000 0.000000 0.000000
# 3 -0.003478 -0.001287 0.009058 0.000000 0.000000 0.000000
# 4 0.000000 0.000000 0.000000 0.055401 0.000000 0.000000
# 5 0.000000 0.000000 0.000000 0.000000 0.022068 0.000000
# 6 0.000000 0.000000 0.000000 0.000000 0.000000 0.056688
#
#
# Mechanical properties :
#
#
# Convention : Reuss Voigt Hill
#
# Bulk Modulus (GPa) = 44.58721 49.70242 47.14482
# Shear Modulus (GPa) = 25.43559 30.13551 27.78555
#
# Velocity S-wave (km/s) = 3.65552 3.97894 3.82065
# Velocity P-wave (km/s) = 6.42194 6.87174 6.65064
#
# Compressibility (1/GPa) = 0.02242796
#
# Stress axis : x y z
#
# Youngs Moduli (GPa) = 78.76492 59.06363 110.39724
#
# Poissons Ratio (x) = 0.19865 0.38396
# Poissons Ratio (y) = 0.26492 0.14211
# Poissons Ratio (z) = 0.27394 0.07603
#
# Static dielectric constant tensor:
#      x y z
#    x 3.243430 0.000000 0.000000 
#    y 0.000000 3.727430 0.000000 
#    z 0.000000 0.000000 3.826640 
# 
# 
# High freq. dielectric constant tensor:
#      x y z
#    x 1.747680 0.000000 0.000000 
#    y 0.000000 1.687730 0.000000 
#    z 0.000000 0.000000 1.762600 
# 
# From -- ./inp_files/22244.got.cif
#   From: 2010.03.12/outbox.cif.g09.slc.cpg/sg68_12_cif.got.tgz:22244.got - 2010.04.10 23:14:56.
