data_PCOD8282727
_publ_section_title
;
Structure prediction by ZEFSAII (Michael W. Deem and Ramdas Pophale) SiO2 
 PCOD8282727
Probable space group: C C C A
;
_chemical_formula_sum "Si O2"
_cell_formula_units_Z 108
_cell_length_a 22.344528
_cell_length_b 21.187985
_cell_length_c 11.527214
_cell_angle_alpha 90.000000
_cell_angle_beta 90.000000
_cell_angle_gamma 90.000000
_cell_volume 5457.392601
_symmetry_space_group_name_H-M "C C C A"
_symmetry_group_IT_number 68
_space_group.IT_coordinate_system_code '2'
_symmetry_cell_setting 'orthorhombic'
loop_
_space_group_symop_operation_xyz
x,y,z
-x,1/2-y,z
x,1/2-y,1/2-z
-x,y,1/2-z
-x,-y,-z
x,1/2+y,-z
-x,1/2+y,1/2+z
x,-y,1/2+z
1/2+x,1/2+y,z
1/2-x,-y,z
1/2+x,-y,1/2-z
1/2-x,1/2+y,1/2-z
1/2-x,1/2-y,-z
1/2+x,y,-z
1/2-x,y,1/2+z
1/2+x,1/2-y,1/2+z
loop_
_atom_site_type_symbol
_atom_site_label
_atom_site_fract_x
_atom_site_fract_y
_atom_site_fract_z
Si Si1 0.845657 0.943445 0.594543
Si Si2 0.861250 0.424565 0.020256
Si Si3 0.787834 0.750000 0.250000
Si Si4 0.067835 0.522889 0.783866
Si Si5 0.267663 0.884684 0.214164
Si Si6 0.639564 0.596057 0.651942
Si Si7 0.889753 0.316129 0.842325
Si Si8 0.500000 0.250000 0.250000
O O1 0.901477 0.938827 0.680498
O O2 0.789387 0.913137 0.662484
O O3 0.863527 0.898991 0.486831
O O4 0.834035 0.014978 0.547925
O O5 0.884482 0.371955 0.933183
O O6 0.920647 0.443565 0.092595
O O7 0.812557 0.397308 0.108564
O O8 0.744873 0.690641 0.220409
O O9 0.833251 0.768107 0.141780
O O10 0.095398 0.453893 0.790942
O O11 0.000000 0.517038 0.750000
O O12 0.207143 0.922986 0.187590
O O13 0.621077 0.661843 0.708632
O O14 0.956976 0.288337 0.839472
#
# Coordination Sequence:
#
# PCOD8282727 Si02
#       8
#    16  16   8  16  16  16  16   4
#     4  10  22  39  59  95 124 161 200 254 323 382
#     4  10  22  39  65  92 126 159 205 268 320 376
#     4   9  22  43  58  86 123 166 209 254 310 374
#     4  10  22  38  58  89 126 162 201 251 314 387
#     4  10  23  41  62  91 127 166 205 256 316 387
#     4  10  22  35  59  91 121 163 196 252 317 368
#     4  10  21  42  59  93 118 160 216 260 307 370
#     4  10  24  40  64  80 126 164 218 258 302 374
#
# _framework density 19.789670000000001
#
# number of rings (size 3 to 8) (size 9 to 14) (size 15 to 20)
#    0.000    2.074    1.481    0.000    5.185   10.667 
#    5.333    0.000    0.000    0.000    0.000    0.000 
#    0.000    0.000    0.000    0.000    0.000    0.000 
#
# Total GULP energy -669031.561093 kJ/mol
# GULP energy per Si atom -12389.473354 kJ/mol
# Density = 1.974463 g / cm^3
# Si number density = 19.789670 Si / 1000 Ang^3
#
#
#
# Elastic Constant Matrix: (Units=GPa)
#
#
# Indices 1 2 3 4 5 6 
#
# 1 119.3924 58.7721 38.9620 0.0000 0.0000 0.0000
# 2 58.7721 115.1756 58.9990 0.0000 0.0000 0.0000
# 3 38.9620 58.9990 116.2247 0.0000 0.0000 0.0000
# 4 0.0000 0.0000 0.0000 26.8951 0.0000 0.0000
# 5 0.0000 0.0000 0.0000 0.0000 18.4024 0.0000
# 6 0.0000 0.0000 0.0000 0.0000 0.0000 24.3036
#
#
#
# Elastic Compliance Matrix: (Units=1/GPa)
#
#
# Indices 1 2 3 4 5 6 
#
# 1 0.011301 -0.005170 -0.001164 0.000000 0.000000 0.000000
# 2 -0.005170 0.014099 -0.005424 0.000000 0.000000 0.000000
# 3 -0.001164 -0.005424 0.011747 0.000000 0.000000 0.000000
# 4 0.000000 0.000000 0.000000 0.037182 0.000000 0.000000
# 5 0.000000 0.000000 0.000000 0.000000 0.054341 0.000000
# 6 0.000000 0.000000 0.000000 0.000000 0.000000 0.041146
#
#
# Mechanical properties :
#
#
# Convention : Reuss Voigt Hill
#
# Bulk Modulus (GPa) = 73.36032 73.80654 73.58343
# Shear Modulus (GPa) = 25.26841 26.85752 26.06296
#
# Velocity S-wave (km/s) = 3.57718 3.68795 3.63298
# Velocity P-wave (km/s) = 7.36289 7.45057 7.40686
#
# Compressibility (1/GPa) = 0.01363135
#
# Stress axis : x y z
#
# Youngs Moduli (GPa) = 88.49013 70.92609 85.12508
#
# Poissons Ratio (x) = 0.36672 0.09906
# Poissons Ratio (y) = 0.45754 0.46171
# Poissons Ratio (z) = 0.10297 0.38469
#
# Static dielectric constant tensor:
#      x y z
#    x 3.598450 0.000000 0.000000 
#    y 0.000000 3.649440 0.000000 
#    z 0.000000 0.000000 3.763920 
# 
# 
# High freq. dielectric constant tensor:
#      x y z
#    x 1.769570 0.000000 0.000000 
#    y 0.000000 1.769540 0.000000 
#    z 0.000000 0.000000 1.771840 
# 
# From -- ./inp_files/15773.got.cif
#   From: 2010.03.12/outbox.cif.g09.slc.cpg/sg68_8_cif.got.tgz:15773.got - 2010.04.10 23:14:56.
