data_PCOD8282868
_publ_section_title
;
Structure prediction by ZEFSAII (Michael W. Deem and Ramdas Pophale) SiO2 
 PCOD8282868
Probable space group: C C C A
;
_chemical_formula_sum "Si O2"
_cell_formula_units_Z 120
_cell_length_a 21.364573
_cell_length_b 23.203554
_cell_length_c 12.260511
_cell_angle_alpha 90.000000
_cell_angle_beta 90.000000
_cell_angle_gamma 90.000000
_cell_volume 6077.952446
_symmetry_space_group_name_H-M "C C C A"
_symmetry_group_IT_number 68
_space_group.IT_coordinate_system_code '2'
_symmetry_cell_setting 'orthorhombic'
loop_
_space_group_symop_operation_xyz
x,y,z
-x,1/2-y,z
x,1/2-y,1/2-z
-x,y,1/2-z
-x,-y,-z
x,1/2+y,-z
-x,1/2+y,1/2+z
x,-y,1/2+z
1/2+x,1/2+y,z
1/2-x,-y,z
1/2+x,-y,1/2-z
1/2-x,1/2+y,1/2-z
1/2-x,1/2-y,-z
1/2+x,y,-z
1/2-x,y,1/2+z
1/2+x,1/2-y,1/2+z
loop_
_atom_site_type_symbol
_atom_site_label
_atom_site_fract_x
_atom_site_fract_y
_atom_site_fract_z
Si Si1 0.452208 0.526774 0.153479
Si Si2 0.324458 0.090337 0.806545
Si Si3 0.964199 0.921276 0.020141
Si Si4 0.532612 0.695079 0.867285
Si Si5 0.694577 0.281297 0.860250
Si Si6 0.831688 0.586705 0.560004
Si Si7 0.250000 0.500000 0.060242
Si Si8 0.329373 0.204124 0.439042
O O1 0.500000 0.537058 0.250000
O O2 0.388209 0.555369 0.187549
O O3 0.444808 0.458754 0.127015
O O4 0.475260 0.554574 0.040501
O O5 0.329740 0.152961 0.861722
O O6 0.304936 0.098109 0.680556
O O7 0.272381 0.052760 0.866079
O O8 0.984125 0.858505 0.058253
O O9 0.906602 0.919344 0.935910
O O10 0.500000 0.750000 0.924148
O O11 0.500000 0.686912 0.750000
O O12 0.608254 0.703515 0.863482
O O13 0.672537 0.250000 0.750000
O O14 0.661907 0.249093 0.961709
O O15 0.770097 0.277635 0.866432
O O16 0.804265 0.526426 0.515495
O O17 0.813613 0.640690 0.484682
#
# Coordination Sequence:
#
# PCOD8282868 Si02
#       8
#    16  16  16  16  16  16   8  16
#     4  11  22  39  65  89 124 160 206 258 309 381
#     4  12  24  40  64  95 126 165 214 257 324 382
#     4  10  22  40  62  90 120 165 206 254 319 368
#     4  10  23  42  62  91 127 164 208 264 308 372
#     4  11  23  41  68  94 125 172 216 264 325 387
#     4  11  21  42  61  89 130 163 206 265 309 385
#     4  12  24  42  60  94 126 172 206 262 322 376
#     4  10  23  42  65  92 129 167 215 265 322 379
#
# _framework density 19.743490999999999
#
# number of rings (size 3 to 8) (size 9 to 14) (size 15 to 20)
#    0.000    1.200    5.333    0.800    3.733    0.000 
#    0.000    1.333    0.000    0.000    0.000    0.000 
#    0.000    0.000    0.000    0.000    0.000    0.000 
#
# Total GULP energy -744073.586623 kJ/mol
# GULP energy per Si atom -12401.226444 kJ/mol
# Density = 1.969855 g / cm^3
# Si number density = 19.743491 Si / 1000 Ang^3
#
#
#
# Elastic Constant Matrix: (Units=GPa)
#
#
# Indices 1 2 3 4 5 6 
#
# 1 59.5391 20.0174 26.4398 0.0000 0.0000 0.0000
# 2 20.0174 128.2940 28.6402 0.0000 0.0000 0.0000
# 3 26.4398 28.6402 79.2333 0.0000 0.0000 0.0000
# 4 0.0000 0.0000 0.0000 25.6306 0.0000 0.0000
# 5 0.0000 0.0000 0.0000 0.0000 23.1658 0.0000
# 6 0.0000 0.0000 0.0000 0.0000 0.0000 29.3027
#
#
#
# Elastic Compliance Matrix: (Units=1/GPa)
#
#
# Indices 1 2 3 4 5 6 
#
# 1 0.020085 -0.001781 -0.006058 0.000000 0.000000 0.000000
# 2 -0.001781 0.008637 -0.002527 0.000000 0.000000 0.000000
# 3 -0.006058 -0.002527 0.015556 0.000000 0.000000 0.000000
# 4 0.000000 0.000000 0.000000 0.039016 0.000000 0.000000
# 5 0.000000 0.000000 0.000000 0.000000 0.043167 0.000000
# 6 0.000000 0.000000 0.000000 0.000000 0.000000 0.034127
#
#
# Mechanical properties :
#
#
# Convention : Reuss Voigt Hill
#
# Bulk Modulus (GPa) = 42.47450 46.36238 44.41844
# Shear Modulus (GPa) = 26.43132 28.41778 27.42455
#
# Velocity S-wave (km/s) = 3.66284 3.79799 3.73103
# Velocity P-wave (km/s) = 6.28080 6.53960 6.41150
#
# Compressibility (1/GPa) = 0.02354354
#
# Stress axis : x y z
#
# Youngs Moduli (GPa) = 49.78855 115.78411 64.28301
#
# Poissons Ratio (x) = 0.20625 0.38945
# Poissons Ratio (y) = 0.08869 0.16247
# Poissons Ratio (z) = 0.30164 0.29264
#
# Static dielectric constant tensor:
#      x y z
#    x 3.499940 0.000000 0.000000 
#    y 0.000000 3.827860 0.000000 
#    z 0.000000 0.000000 3.506590 
# 
# 
# High freq. dielectric constant tensor:
#      x y z
#    x 1.762870 0.000000 0.000000 
#    y 0.000000 1.786600 0.000000 
#    z 0.000000 0.000000 1.764460 
# 
# From -- ./inp_files/15794.got.cif
#   From: 2010.03.12/outbox.cif.g09.slc.cpg/sg68_8_cif.got.tgz:15794.got - 2010.04.10 23:14:56.
