data_PCOD8282184
_publ_section_title
;
Structure prediction by ZEFSAII (Michael W. Deem and Ramdas Pophale) SiO2 
 PCOD8282184
Probable space group: C C C A
;
_chemical_formula_sum "Si O2"
_cell_formula_units_Z 76
_cell_length_a 29.477492
_cell_length_b 13.244004
_cell_length_c 10.163013
_cell_angle_alpha 90.000000
_cell_angle_beta 90.000000
_cell_angle_gamma 90.000000
_cell_volume 3967.640498
_symmetry_space_group_name_H-M "C C C A"
_symmetry_group_IT_number 68
_space_group.IT_coordinate_system_code '2'
_symmetry_cell_setting 'orthorhombic'
loop_
_space_group_symop_operation_xyz
x,y,z
-x,1/2-y,z
x,1/2-y,1/2-z
-x,y,1/2-z
-x,-y,-z
x,1/2+y,-z
-x,1/2+y,1/2+z
x,-y,1/2+z
1/2+x,1/2+y,z
1/2-x,-y,z
1/2+x,-y,1/2-z
1/2-x,1/2+y,1/2-z
1/2-x,1/2-y,-z
1/2+x,y,-z
1/2-x,y,1/2+z
1/2+x,1/2-y,1/2+z
loop_
_atom_site_type_symbol
_atom_site_label
_atom_site_fract_x
_atom_site_fract_y
_atom_site_fract_z
Si Si1 0.045730 0.445377 0.197171
Si Si2 0.675227 0.856919 0.586143
Si Si3 0.600880 0.516660 0.043049
Si Si4 0.750000 0.500000 0.514398
Si Si5 0.673031 0.866821 0.885311
Si Si6 0.500000 0.250000 0.750000
O O1 0.082746 0.455146 0.312853
O O2 0.061301 0.501145 0.064362
O O3 0.032869 0.326494 0.166634
O O4 0.000000 0.500789 0.250000
O O5 0.720545 0.923888 0.574390
O O6 0.658088 0.860394 0.734861
O O7 0.685357 0.740613 0.549361
O O8 0.634118 0.892044 0.494345
O O9 0.630146 0.413953 0.039040
O O10 0.717262 0.563635 0.607575
#
# Coordination Sequence:
#
# PCOD8282184 Si02
#       6
#    16  16  16   8  16   4
#     4  10  22  40  59  87 117 152 190 241 279 350
#     4  10  21  36  57  84 117 151 192 239 284 345
#     4  11  21  39  61  86 118 154 191 235 295 331
#     4  10  20  36  58  80 114 154 196 234 288 334
#     4  10  21  36  57  84 117 151 192 239 284 345
#     4   8  24  36  64  86 118 148 200 234 280 344
#
# _framework density 19.154961
#
# number of rings (size 3 to 8) (size 9 to 14) (size 15 to 20)
#    0.632    1.263    2.105    1.895    2.947    0.000 
#    0.000    0.000    0.000    2.526    0.000    0.000 
#    0.000    0.000    0.000    0.000    0.000    0.000 
#
# Total GULP energy -470929.684638 kJ/mol
# GULP energy per Si atom -12392.886438 kJ/mol
# Density = 1.911136 g / cm^3
# Si number density = 19.154961 Si / 1000 Ang^3
#
#
#
# Elastic Constant Matrix: (Units=GPa)
#
#
# Indices 1 2 3 4 5 6 
#
# 1 93.1913 42.9196 14.0649 0.0000 0.0000 0.0000
# 2 42.9196 125.4036 23.3334 0.0000 0.0000 0.0000
# 3 14.0649 23.3334 63.2049 0.0000 0.0000 0.0000
# 4 0.0000 0.0000 0.0000 20.9385 0.0000 0.0000
# 5 0.0000 0.0000 0.0000 0.0000 31.4939 0.0000
# 6 0.0000 0.0000 0.0000 0.0000 0.0000 25.4789
#
#
#
# Elastic Compliance Matrix: (Units=1/GPa)
#
#
# Indices 1 2 3 4 5 6 
#
# 1 0.012841 -0.004148 -0.001326 0.000000 0.000000 0.000000
# 2 -0.004148 0.009902 -0.002733 0.000000 0.000000 0.000000
# 3 -0.001326 -0.002733 0.017125 0.000000 0.000000 0.000000
# 4 0.000000 0.000000 0.000000 0.047759 0.000000 0.000000
# 5 0.000000 0.000000 0.000000 0.000000 0.031752 0.000000
# 6 0.000000 0.000000 0.000000 0.000000 0.000000 0.039248
#
#
# Mechanical properties :
#
#
# Convention : Reuss Voigt Hill
#
# Bulk Modulus (GPa) = 42.63437 49.15949 45.89693
# Shear Modulus (GPa) = 27.34323 29.01439 28.17881
#
# Velocity S-wave (km/s) = 3.78229 3.89616 3.83965
# Velocity P-wave (km/s) = 6.43275 6.77937 6.60833
#
# Compressibility (1/GPa) = 0.02345526
#
# Stress axis : x y z
#
# Youngs Moduli (GPa) = 77.87417 100.98543 58.39255
#
# Poissons Ratio (x) = 0.41891 0.07744
# Poissons Ratio (y) = 0.32304 0.15956
# Poissons Ratio (z) = 0.10327 0.27595
#
# Static dielectric constant tensor:
#      x y z
#    x 3.521280 0.000000 0.000000 
#    y 0.000000 3.591030 0.000000 
#    z 0.000000 0.000000 3.233760 
# 
# 
# High freq. dielectric constant tensor:
#      x y z
#    x 1.752320 0.000000 0.000000 
#    y 0.000000 1.744000 0.000000 
#    z 0.000000 0.000000 1.729420 
# 
# From -- ./inp_files/11989.got.cif
#   From: 2010.03.12/outbox.cif.g09.slc.cpg/sg68_6_cif.got.tgz:11989.got - 2010.04.10 23:14:56.
