data_PCOD8282270
_publ_section_title
;
Structure prediction by ZEFSAII (Michael W. Deem and Ramdas Pophale) SiO2 
 PCOD8282270
Probable space group: C C C A
;
_chemical_formula_sum "Si O2"
_cell_formula_units_Z 72
_cell_length_a 13.698039
_cell_length_b 24.860219
_cell_length_c 8.495889
_cell_angle_alpha 90.000000
_cell_angle_beta 90.000000
_cell_angle_gamma 90.000000
_cell_volume 2893.158175
_symmetry_space_group_name_H-M "C C C A"
_symmetry_group_IT_number 68
_space_group.IT_coordinate_system_code '2'
_symmetry_cell_setting 'orthorhombic'
loop_
_space_group_symop_operation_xyz
x,y,z
-x,1/2-y,z
x,1/2-y,1/2-z
-x,y,1/2-z
-x,-y,-z
x,1/2+y,-z
-x,1/2+y,1/2+z
x,-y,1/2+z
1/2+x,1/2+y,z
1/2-x,-y,z
1/2+x,-y,1/2-z
1/2-x,1/2+y,1/2-z
1/2-x,1/2-y,-z
1/2+x,y,-z
1/2-x,y,1/2+z
1/2+x,1/2-y,1/2+z
loop_
_atom_site_type_symbol
_atom_site_label
_atom_site_fract_x
_atom_site_fract_y
_atom_site_fract_z
Si Si1 0.750000 0.500000 0.745868
Si Si2 0.339842 0.822630 0.963483
Si Si3 0.130767 0.325437 0.183887
Si Si4 0.000000 0.577285 0.750000
Si Si5 0.000000 0.750000 0.016338
Si Si6 0.365872 0.444379 0.998852
O O1 0.720566 0.450634 0.631852
O O2 0.656254 0.516734 0.852936
O O3 0.346598 0.801809 0.143804
O O4 0.372866 0.883839 0.937491
O O5 0.228964 0.817842 0.913862
O O6 0.417174 0.781500 0.878080
O O7 0.095009 0.387262 0.201056
O O8 0.043821 0.296039 0.095529
O O9 0.966665 0.541966 0.596878
#
# Coordination Sequence:
#
# PCOD8282270 Si02
#       6
#     8  16  16   8   8  16
#     4  10  22  38  66  88 122 162 222 262 330 368
#     4  11  22  38  66  90 129 169 211 257 324 379
#     4  11  21  39  63  92 127 170 211 255 313 390
#     4  10  20  37  66  86 128 172 210 251 332 388
#     4  12  21  40  65  96 127 174 213 252 323 404
#     4  10  20  39  60  91 120 163 206 268 312 385
#
# _framework density 24.886299999999999
#
# number of rings (size 3 to 8) (size 9 to 14) (size 15 to 20)
#    0.000    1.333    4.444    4.667    0.000    0.889 
#    0.000    2.222    0.000    0.000    0.000    0.000 
#    0.000    0.000    0.000    0.000    0.000    0.000 
#
# Total GULP energy -446030.385441 kJ/mol
# GULP energy per Si atom -12389.732929 kJ/mol
# Density = 2.482966 g / cm^3
# Si number density = 24.886300 Si / 1000 Ang^3
#
#
#
# Elastic Constant Matrix: (Units=GPa)
#
#
# Indices 1 2 3 4 5 6 
#
# 1 125.9816 7.5256 26.5726 0.0000 0.0000 0.0000
# 2 7.5256 75.8053 17.2814 0.0000 0.0000 0.0000
# 3 26.5726 17.2814 51.0155 0.0000 0.0000 0.0000
# 4 0.0000 0.0000 0.0000 10.5335 0.0000 0.0000
# 5 0.0000 0.0000 0.0000 0.0000 23.2983 0.0000
# 6 0.0000 0.0000 0.0000 0.0000 0.0000 40.5286
#
#
#
# Elastic Compliance Matrix: (Units=1/GPa)
#
#
# Indices 1 2 3 4 5 6 
#
# 1 0.008920 0.000188 -0.004710 0.000000 0.000000 0.000000
# 2 0.000188 0.014300 -0.004942 0.000000 0.000000 0.000000
# 3 -0.004710 -0.004942 0.023729 0.000000 0.000000 0.000000
# 4 0.000000 0.000000 0.000000 0.094935 0.000000 0.000000
# 5 0.000000 0.000000 0.000000 0.000000 0.042922 0.000000
# 6 0.000000 0.000000 0.000000 0.000000 0.000000 0.024674
#
#
# Mechanical properties :
#
#
# Convention : Reuss Voigt Hill
#
# Bulk Modulus (GPa) = 35.68702 39.50682 37.59692
# Shear Modulus (GPa) = 21.03073 28.30026 24.66549
#
# Velocity S-wave (km/s) = 2.91017 3.37587 3.15163
# Velocity P-wave (km/s) = 5.06589 5.57716 5.32766
#
# Compressibility (1/GPa) = 0.02802139
#
# Stress axis : x y z
#
# Youngs Moduli (GPa) = 112.10947 69.93184 42.14213
#
# Poissons Ratio (x) = -0.01316 0.19848
# Poissons Ratio (y) = -0.02110 0.20827
# Poissons Ratio (z) = 0.52802 0.34560
#
# Static dielectric constant tensor:
#      x y z
#    x 4.803020 0.000000 0.000000 
#    y 0.000000 4.383230 0.000000 
#    z 0.000000 0.000000 4.329700 
# 
# 
# High freq. dielectric constant tensor:
#      x y z
#    x 1.999810 0.000000 0.000000 
#    y 0.000000 1.989780 0.000000 
#    z 0.000000 0.000000 1.970870 
# 
# From -- ./inp_files/5260.got.cif
#   From: 2010.03.12/outbox.cif.g09.slc.cpg/sg68_3_cif.got.tgz:5260.got - 2010.04.10 23:14:56.
