data_PCOD8282433
_publ_section_title
;
Structure prediction by ZEFSAII (Michael W. Deem and Ramdas Pophale) SiO2 
 PCOD8282433
Probable space group: C C C A
;
_chemical_formula_sum "Si O2"
_cell_formula_units_Z 108
_cell_length_a 11.551496
_cell_length_b 14.749853
_cell_length_c 29.922248
_cell_angle_alpha 90.000000
_cell_angle_beta 90.000000
_cell_angle_gamma 90.000000
_cell_volume 5098.238429
_symmetry_space_group_name_H-M "C C C A"
_symmetry_group_IT_number 68
_space_group.IT_coordinate_system_code '2'
_symmetry_cell_setting 'orthorhombic'
loop_
_space_group_symop_operation_xyz
x,y,z
-x,1/2-y,z
x,1/2-y,1/2-z
-x,y,1/2-z
-x,-y,-z
x,1/2+y,-z
-x,1/2+y,1/2+z
x,-y,1/2+z
1/2+x,1/2+y,z
1/2-x,-y,z
1/2+x,-y,1/2-z
1/2-x,1/2+y,1/2-z
1/2-x,1/2-y,-z
1/2+x,y,-z
1/2-x,y,1/2+z
1/2+x,1/2-y,1/2+z
loop_
_atom_site_type_symbol
_atom_site_label
_atom_site_fract_x
_atom_site_fract_y
_atom_site_fract_z
Si Si1 0.750000 0.500000 0.233273
Si Si2 0.614165 0.122895 0.321385
Si Si3 0.371961 0.735087 0.451505
Si Si4 0.500000 0.250000 0.250000
Si Si5 0.875073 0.836829 0.727326
Si Si6 0.934711 0.840534 0.104327
Si Si7 0.294311 0.897284 0.975975
Si Si8 0.290866 0.746517 0.142658
O O1 0.641368 0.473044 0.201772
O O2 0.791531 0.421378 0.266160
O O3 0.574225 0.189118 0.282676
O O4 0.521153 0.107715 0.361400
O O5 0.738071 0.161248 0.337348
O O6 0.500000 0.750000 0.469039
O O7 0.328826 0.643874 0.476058
O O8 0.303304 0.828261 0.459430
O O9 0.366150 0.718413 0.398828
O O10 0.814536 0.750000 0.750000
O O11 0.877263 0.811073 0.674675
O O12 0.000000 0.852791 0.750000
O O13 0.900960 0.898275 0.060030
O O14 0.817860 0.817586 0.130613
O O15 0.000000 0.750000 0.087556
O O16 0.250000 0.000000 0.981980
#
# Coordination Sequence:
#
# PCOD8282433 Si02
#       8
#     8  16  16   4  16  16  16  16
#     4  12  26  40  62  98 130 176 230 276 324 384
#     4  11  22  39  65  98 128 173 228 278 321 386
#     4  10  23  42  71  95 131 173 214 272 333 404
#     4  12  20  40  72  88 124 184 232 268 328 372
#     4  11  25  43  62  87 133 178 212 270 330 386
#     4   9  19  39  69  93 127 174 218 271 322 390
#     4  10  22  45  67 102 132 167 217 269 337 397
#     4  10  20  43  65  93 129 175 220 270 327 395
#
# _framework density 21.183786000000001
#
# number of rings (size 3 to 8) (size 9 to 14) (size 15 to 20)
#    0.000    1.630    3.704    1.333    3.111    1.778 
#   14.667    0.000    0.000    0.000    0.000    0.000 
#    0.000    0.000    0.000    0.000    0.000    0.000 
#
# Total GULP energy -669138.140374 kJ/mol
# GULP energy per Si atom -12391.447044 kJ/mol
# Density = 2.113557 g / cm^3
# Si number density = 21.183786 Si / 1000 Ang^3
#
#
#
# Elastic Constant Matrix: (Units=GPa)
#
#
# Indices 1 2 3 4 5 6 
#
# 1 87.8461 33.1414 52.6338 0.0000 0.0000 0.0000
# 2 33.1414 125.6783 64.5943 0.0000 0.0000 0.0000
# 3 52.6338 64.5943 157.3461 0.0000 0.0000 0.0000
# 4 0.0000 0.0000 0.0000 15.1239 0.0000 0.0000
# 5 0.0000 0.0000 0.0000 0.0000 33.1943 0.0000
# 6 0.0000 0.0000 0.0000 0.0000 0.0000 60.3524
#
#
#
# Elastic Compliance Matrix: (Units=1/GPa)
#
#
# Indices 1 2 3 4 5 6 
#
# 1 0.014514 -0.001688 -0.004162 0.000000 0.000000 0.000000
# 2 -0.001688 0.010281 -0.003656 0.000000 0.000000 0.000000
# 3 -0.004162 -0.003656 0.009248 0.000000 0.000000 0.000000
# 4 0.000000 0.000000 0.000000 0.066121 0.000000 0.000000
# 5 0.000000 0.000000 0.000000 0.000000 0.030126 0.000000
# 6 0.000000 0.000000 0.000000 0.000000 0.000000 0.016569
#
#
# Mechanical properties :
#
#
# Convention : Reuss Voigt Hill
#
# Bulk Modulus (GPa) = 66.52768 74.62328 70.57548
# Shear Modulus (GPa) = 29.25995 36.43420 32.84707
#
# Velocity S-wave (km/s) = 3.72054 4.15168 3.94201
# Velocity P-wave (km/s) = 7.06610 7.63446 7.35577
#
# Compressibility (1/GPa) = 0.01503134
#
# Stress axis : x y z
#
# Youngs Moduli (GPa) = 68.89798 97.26685 108.12575
#
# Poissons Ratio (x) = 0.16421 0.45003
# Poissons Ratio (y) = 0.11632 0.39529
# Poissons Ratio (z) = 0.28676 0.35559
#
# Static dielectric constant tensor:
#      x y z
#    x 3.828050 0.000000 0.000000 
#    y 0.000000 3.581440 0.000000 
#    z 0.000000 0.000000 3.955740 
# 
# 
# High freq. dielectric constant tensor:
#      x y z
#    x 1.832380 0.000000 0.000000 
#    y 0.000000 1.806040 0.000000 
#    z 0.000000 0.000000 1.841970 
# 
# From -- ./inp_files/54860.got.cif
#   From: 2010.03.12/outbox.cif.g09.slc.cpg/sg68_28_cif.got.tgz:54860.got - 2010.04.10 23:14:56.
