data_PCOD8282079
_publ_section_title
;
Structure prediction by ZEFSAII (Michael W. Deem and Ramdas Pophale) SiO2 
 PCOD8282079
Probable space group: C C C A
;
_chemical_formula_sum "Si O2"
_cell_formula_units_Z 96
_cell_length_a 12.813243
_cell_length_b 21.525316
_cell_length_c 17.426643
_cell_angle_alpha 90.000000
_cell_angle_beta 90.000000
_cell_angle_gamma 90.000000
_cell_volume 4806.426801
_symmetry_space_group_name_H-M "C C C A"
_symmetry_group_IT_number 68
_space_group.IT_coordinate_system_code '2'
_symmetry_cell_setting 'orthorhombic'
loop_
_space_group_symop_operation_xyz
x,y,z
-x,1/2-y,z
x,1/2-y,1/2-z
-x,y,1/2-z
-x,-y,-z
x,1/2+y,-z
-x,1/2+y,1/2+z
x,-y,1/2+z
1/2+x,1/2+y,z
1/2-x,-y,z
1/2+x,-y,1/2-z
1/2-x,1/2+y,1/2-z
1/2-x,1/2-y,-z
1/2+x,y,-z
1/2-x,y,1/2+z
1/2+x,1/2-y,1/2+z
loop_
_atom_site_type_symbol
_atom_site_label
_atom_site_fract_x
_atom_site_fract_y
_atom_site_fract_z
Si Si1 0.678403 0.902735 0.493108
Si Si2 0.796699 0.065667 0.738339
Si Si3 0.159755 0.381799 0.118802
Si Si4 0.567829 0.013775 0.100687
Si Si5 0.873630 0.589702 0.104122
Si Si6 0.013929 0.679090 0.515654
O O1 0.740473 0.875314 0.565033
O O2 0.615707 0.963529 0.520036
O O3 0.757902 0.922998 0.427020
O O4 0.598774 0.849681 0.465513
O O5 0.703578 0.111010 0.705466
O O6 0.877490 0.049376 0.670989
O O7 0.855002 0.103897 0.805355
O O8 0.750000 0.000000 0.768670
O O9 0.087125 0.440996 0.100023
O O10 0.083399 0.325120 0.094623
O O11 0.444683 0.027799 0.101506
O O12 0.930707 0.645124 0.057444
O O13 0.000000 0.750000 0.491916
#
# Coordination Sequence:
#
# PCOD8282079 Si02
#       6
#    16  16  16  16  16  16
#     4   9  19  33  54  79 106 138 183 229 276 333
#     4   9  18  33  53  81 113 142 175 223 288 352
#     4   9  19  34  54  78 112 148 179 225 281 340
#     4   9  18  33  52  81 115 142 171 221 285 343
#     4  10  20  32  56  84 110 142 181 228 283 343
#     4  10  22  38  56  78 108 149 197 244 281 320
#
# _framework density 19.973258000000001
#
# number of rings (size 3 to 8) (size 9 to 14) (size 15 to 20)
#    0.000    2.667    0.000    2.000    0.000   14.000 
#    0.000    2.500    0.000   28.000    0.000    0.000 
#    0.000    0.000    0.000    0.000    0.000    0.000 
#
# Total GULP energy -594687.032449 kJ/mol
# GULP energy per Si atom -12389.313176 kJ/mol
# Density = 1.992780 g / cm^3
# Si number density = 19.973258 Si / 1000 Ang^3
#
#
#
# Elastic Constant Matrix: (Units=GPa)
#
#
# Indices 1 2 3 4 5 6 
#
# 1 118.9888 33.7748 48.8975 0.0000 0.0000 0.0000
# 2 33.7748 54.6531 30.6309 0.0000 0.0000 0.0000
# 3 48.8975 30.6309 76.5012 0.0000 0.0000 0.0000
# 4 0.0000 0.0000 0.0000 16.9331 0.0000 0.0000
# 5 0.0000 0.0000 0.0000 0.0000 31.5862 0.0000
# 6 0.0000 0.0000 0.0000 0.0000 0.0000 16.8224
#
#
#
# Elastic Compliance Matrix: (Units=1/GPa)
#
#
# Indices 1 2 3 4 5 6 
#
# 1 0.012051 -0.004036 -0.006087 0.000000 0.000000 0.000000
# 2 -0.004036 0.024943 -0.007407 0.000000 0.000000 0.000000
# 3 -0.006087 -0.007407 0.019928 0.000000 0.000000 0.000000
# 4 0.000000 0.000000 0.000000 0.059056 0.000000 0.000000
# 5 0.000000 0.000000 0.000000 0.000000 0.031659 0.000000
# 6 0.000000 0.000000 0.000000 0.000000 0.000000 0.059445
#
#
# Mechanical properties :
#
#
# Convention : Reuss Voigt Hill
#
# Bulk Modulus (GPa) = 45.74176 52.97217 49.35696
# Shear Modulus (GPa) = 20.04573 22.19100 21.11836
#
# Velocity S-wave (km/s) = 3.17145 3.33684 3.25519
# Velocity P-wave (km/s) = 6.03009 6.43623 6.23647
#
# Compressibility (1/GPa) = 0.02186186
#
# Stress axis : x y z
#
# Youngs Moduli (GPa) = 82.98036 40.09142 50.18054
#
# Poissons Ratio (x) = 0.16181 0.30543
# Poissons Ratio (y) = 0.33491 0.37171
# Poissons Ratio (z) = 0.50508 0.29697
#
# Static dielectric constant tensor:
#      x y z
#    x 3.959260 0.000000 0.000000 
#    y 0.000000 3.157000 0.000000 
#    z 0.000000 0.000000 3.726380 
# 
# 
# High freq. dielectric constant tensor:
#      x y z
#    x 1.802430 0.000000 0.000000 
#    y 0.000000 1.723240 0.000000 
#    z 0.000000 0.000000 1.771680 
# 
# From -- ./inp_files/37669.got.cif
#   From: 2010.03.12/outbox.cif.g09.slc.cpg/sg68_19_cif.got.tgz:37669.got - 2010.04.10 23:14:56.
