data_PCOD8282859
_publ_section_title
;
Structure prediction by ZEFSAII (Michael W. Deem and Ramdas Pophale) SiO2 
 PCOD8282859
Probable space group: C C C A
;
_chemical_formula_sum "Si O2"
_cell_formula_units_Z 88
_cell_length_a 8.528408
_cell_length_b 19.356373
_cell_length_c 27.021481
_cell_angle_alpha 90.000000
_cell_angle_beta 90.000000
_cell_angle_gamma 90.000000
_cell_volume 4460.680314
_symmetry_space_group_name_H-M "C C C A"
_symmetry_group_IT_number 68
_space_group.IT_coordinate_system_code '2'
_symmetry_cell_setting 'orthorhombic'
loop_
_space_group_symop_operation_xyz
x,y,z
-x,1/2-y,z
x,1/2-y,1/2-z
-x,y,1/2-z
-x,-y,-z
x,1/2+y,-z
-x,1/2+y,1/2+z
x,-y,1/2+z
1/2+x,1/2+y,z
1/2-x,-y,z
1/2+x,-y,1/2-z
1/2-x,1/2+y,1/2-z
1/2-x,1/2-y,-z
1/2+x,y,-z
1/2-x,y,1/2+z
1/2+x,1/2-y,1/2+z
loop_
_atom_site_type_symbol
_atom_site_label
_atom_site_fract_x
_atom_site_fract_y
_atom_site_fract_z
Si Si1 0.001486 0.975566 0.390544
Si Si2 0.895114 0.548207 0.796629
Si Si3 0.818508 0.631290 0.055231
Si Si4 0.535394 0.388437 0.949915
Si Si5 0.000000 0.250000 0.606753
Si Si6 0.761091 0.141258 0.630189
O O1 0.152198 0.926013 0.391497
O O2 0.848128 0.929502 0.403886
O O3 0.991269 0.009773 0.336115
O O4 0.026928 0.033041 0.431781
O O5 0.750000 0.500000 0.780424
O O6 0.827772 0.620049 0.819269
O O7 0.000000 0.568192 0.750000
O O8 0.635866 0.645305 0.048835
O O9 0.897137 0.702244 0.071630
O O10 0.893567 0.607991 0.004063
O O11 0.637223 0.340025 0.912978
O O12 0.881773 0.204246 0.640678
#
# Coordination Sequence:
#
# PCOD8282859 Si02
#       6
#    16  16  16  16   8  16
#     4   9  19  36  53  81 114 144 179 225 282 331
#     4   9  18  33  57  88 114 134 168 225 286 338
#     4  11  22  33  53  78 112 154 190 226 270 327
#     4  11  21  33  52  80 111 147 189 235 276 321
#     4  10  22  40  54  74 111 154 195 228 266 326
#     4   9  20  37  56  80 113 150 185 226 274 327
#
# _framework density 19.727933
#
# number of rings (size 3 to 8) (size 9 to 14) (size 15 to 20)
#    0.000    2.182    0.000    4.909    0.000    8.000 
#    0.000    0.000    0.000    0.000    0.000  143.182 
#    0.000    0.000    0.000    0.000    0.000    0.000 
#
# Total GULP energy -545536.776440 kJ/mol
# GULP energy per Si atom -12398.563101 kJ/mol
# Density = 1.968303 g / cm^3
# Si number density = 19.727933 Si / 1000 Ang^3
#
#
#
# Elastic Constant Matrix: (Units=GPa)
#
#
# Indices 1 2 3 4 5 6 
#
# 1 121.6940 41.9658 62.6073 0.0000 0.0000 0.0000
# 2 41.9658 103.0869 46.6926 0.0000 0.0000 0.0000
# 3 62.6073 46.6926 117.7467 0.0000 0.0000 0.0000
# 4 0.0000 0.0000 0.0000 4.0671 0.0000 0.0000
# 5 0.0000 0.0000 0.0000 0.0000 17.9655 0.0000
# 6 0.0000 0.0000 0.0000 0.0000 0.0000 25.8576
#
#
#
# Elastic Compliance Matrix: (Units=1/GPa)
#
#
# Indices 1 2 3 4 5 6 
#
# 1 0.011774 -0.002386 -0.005314 0.000000 0.000000 0.000000
# 2 -0.002386 0.012308 -0.003612 0.000000 0.000000 0.000000
# 3 -0.005314 -0.003612 0.012751 0.000000 0.000000 0.000000
# 4 0.000000 0.000000 0.000000 0.245875 0.000000 0.000000
# 5 0.000000 0.000000 0.000000 0.000000 0.055662 0.000000
# 6 0.000000 0.000000 0.000000 0.000000 0.000000 0.038673
#
#
# Mechanical properties :
#
#
# Convention : Reuss Voigt Hill
#
# Bulk Modulus (GPa) = 70.38194 71.67322 71.02758
# Shear Modulus (GPa) = 12.36385 22.32884 17.34635
#
# Velocity S-wave (km/s) = 2.50615 3.36793 2.96848
# Velocity P-wave (km/s) = 6.64290 7.17869 6.91599
#
# Compressibility (1/GPa) = 0.01420819
#
# Stress axis : x y z
#
# Youngs Moduli (GPa) = 84.93166 81.24821 78.42644
#
# Poissons Ratio (x) = 0.19387 0.41678
# Poissons Ratio (y) = 0.20266 0.28328
# Poissons Ratio (z) = 0.45135 0.29347
#
# Static dielectric constant tensor:
#      x y z
#    x 3.882610 0.000000 0.000000 
#    y 0.000000 3.555440 0.000000 
#    z 0.000000 0.000000 3.359610 
# 
# 
# High freq. dielectric constant tensor:
#      x y z
#    x 1.782820 0.000000 0.000000 
#    y 0.000000 1.755630 0.000000 
#    z 0.000000 0.000000 1.744170 
# 
# From -- ./inp_files/43126.got.cif
#   From: 2010.03.12/outbox.cif.g09.slc.cpg/sg68_22_cif.got.tgz:43126.got - 2010.04.10 23:14:56.
