data_PCOD8282621
_publ_section_title
;
Structure prediction by ZEFSAII (Michael W. Deem and Ramdas Pophale) SiO2 
 PCOD8282621
Probable space group: C C C A
;
_chemical_formula_sum "Si O2"
_cell_formula_units_Z 56
_cell_length_a 5.020095
_cell_length_b 13.624705
_cell_length_c 33.786387
_cell_angle_alpha 90.000000
_cell_angle_beta 90.000000
_cell_angle_gamma 90.000000
_cell_volume 2310.898102
_symmetry_space_group_name_H-M "C C C A"
_symmetry_group_IT_number 68
_space_group.IT_coordinate_system_code '2'
_symmetry_cell_setting 'orthorhombic'
loop_
_space_group_symop_operation_xyz
x,y,z
-x,1/2-y,z
x,1/2-y,1/2-z
-x,y,1/2-z
-x,-y,-z
x,1/2+y,-z
-x,1/2+y,1/2+z
x,-y,1/2+z
1/2+x,1/2+y,z
1/2-x,-y,z
1/2+x,-y,1/2-z
1/2-x,1/2+y,1/2-z
1/2-x,1/2-y,-z
1/2+x,y,-z
1/2-x,y,1/2+z
1/2+x,1/2-y,1/2+z
loop_
_atom_site_type_symbol
_atom_site_label
_atom_site_fract_x
_atom_site_fract_y
_atom_site_fract_z
Si Si1 0.494393 0.867012 0.023947
Si Si2 0.999647 0.633668 0.612039
Si Si3 0.250000 0.500000 0.725499
Si Si4 0.494644 0.865813 0.839459
O O1 0.500000 0.750000 0.025646
O O2 0.450608 0.909461 0.068199
O O3 0.266135 0.906759 0.994966
O O4 0.780393 0.596980 0.644108
O O5 0.000000 0.750000 0.609843
O O6 0.289053 0.600301 0.626652
O O7 0.500000 0.453289 0.750000
O O8 0.399959 0.584842 0.701036
O O9 0.500000 0.750000 0.831873
#
# Coordination Sequence:
#
# PCOD8282621 Si02
#       4
#    16  16   8  16
#     4   9  15  23  40  73 114 151 192 245 294 337
#     4   9  17  31  53  81 116 157 202 245 292 358
#     4  12  26  44  66  94 124 154 198 256 318 388
#     4  10  21  39  61  87 118 156 199 245 301 367
#
# _framework density 24.233001000000002
#
# number of rings (size 3 to 8) (size 9 to 14) (size 15 to 20)
#    0.000    2.286    0.000    3.429    0.000    7.429 
#    0.000    1.429    0.000    0.000    0.000   20.000 
#    0.000    0.000    0.000    0.000    0.000    0.000 
#
# Total GULP energy -347092.997368 kJ/mol
# GULP energy per Si atom -12396.178477 kJ/mol
# Density = 2.417785 g / cm^3
# Si number density = 24.233001 Si / 1000 Ang^3
#
#
#
# Elastic Constant Matrix: (Units=GPa)
#
#
# Indices 1 2 3 4 5 6 
#
# 1 172.6887 3.6113 64.0991 0.0000 0.0000 0.0000
# 2 3.6113 55.4874 31.9631 0.0000 0.0000 0.0000
# 3 64.0991 31.9631 165.9997 0.0000 0.0000 0.0000
# 4 0.0000 0.0000 0.0000 5.7238 0.0000 0.0000
# 5 0.0000 0.0000 0.0000 0.0000 23.4423 0.0000
# 6 0.0000 0.0000 0.0000 0.0000 0.0000 0.0397
#
#
#
# Elastic Compliance Matrix: (Units=1/GPa)
#
#
# Indices 1 2 3 4 5 6 
#
# 1 0.006831 0.001209 -0.002870 0.000000 0.000000 0.000000
# 2 0.001209 0.020484 -0.004411 0.000000 0.000000 0.000000
# 3 -0.002870 -0.004411 0.007982 0.000000 0.000000 0.000000
# 4 0.000000 0.000000 0.000000 0.174708 0.000000 0.000000
# 5 0.000000 0.000000 0.000000 0.000000 0.042658 0.000000
# 6 0.000000 0.000000 0.000000 0.000000 0.000000 25.186649
#
#
# Mechanical properties :
#
#
# Convention : Reuss Voigt Hill
#
# Bulk Modulus (GPa) = 43.19283 65.94697 54.56990
# Shear Modulus (GPa) = 0.19639 25.47465 12.83552
#
# Velocity S-wave (km/s) = 0.28499 3.24580 2.30396
# Velocity P-wave (km/s) = 4.23922 6.42804 5.44475
#
# Compressibility (1/GPa) = 0.02315199
#
# Stress axis : x y z
#
# Youngs Moduli (GPa) = 146.39229 48.81761 125.28395
#
# Poissons Ratio (x) = -0.05902 0.35963
# Poissons Ratio (y) = -0.17698 0.55264
# Poissons Ratio (z) = 0.42022 0.21534
#
# Static dielectric constant tensor:
#      x y z
#    x 5.040750 0.000000 0.000000 
#    y 0.000000 4.719670 0.000000 
#    z 0.000000 0.000000 4.455610 
# 
# 
# High freq. dielectric constant tensor:
#      x y z
#    x 1.976580 0.000000 0.000000 
#    y 0.000000 1.952390 0.000000 
#    z 0.000000 0.000000 1.961740 
# 
# From -- ./inp_files/47990.got.cif
#   From: 2010.03.12/outbox.cif.g09.slc.cpg/sg68_24_cif.got.tgz:47990.got - 2010.04.10 23:14:56.
