data_PCOD8282933
_publ_section_title
;
Structure prediction by ZEFSAII (Michael W. Deem and Ramdas Pophale) SiO2 
 PCOD8282933
Probable space group: C C C A
;
_chemical_formula_sum "Si O2"
_cell_formula_units_Z 68
_cell_length_a 15.232710
_cell_length_b 19.196572
_cell_length_c 10.298391
_cell_angle_alpha 90.000000
_cell_angle_beta 90.000000
_cell_angle_gamma 90.000000
_cell_volume 3011.412390
_symmetry_space_group_name_H-M "C C C A"
_symmetry_group_IT_number 68
_space_group.IT_coordinate_system_code '2'
_symmetry_cell_setting 'orthorhombic'
loop_
_space_group_symop_operation_xyz
x,y,z
-x,1/2-y,z
x,1/2-y,1/2-z
-x,y,1/2-z
-x,-y,-z
x,1/2+y,-z
-x,1/2+y,1/2+z
x,-y,1/2+z
1/2+x,1/2+y,z
1/2-x,-y,z
1/2+x,-y,1/2-z
1/2-x,1/2+y,1/2-z
1/2-x,1/2-y,-z
1/2+x,y,-z
1/2-x,y,1/2+z
1/2+x,1/2-y,1/2+z
loop_
_atom_site_type_symbol
_atom_site_label
_atom_site_fract_x
_atom_site_fract_y
_atom_site_fract_z
Si Si1 0.328858 0.701251 0.131479
Si Si2 0.900523 0.445352 0.371750
Si Si3 0.396273 0.046073 0.587380
Si Si4 0.139894 0.815486 0.429370
Si Si5 0.500000 0.750000 0.750000
O O1 0.357583 0.750000 0.250000
O O2 0.394662 0.637277 0.113017
O O3 0.229989 0.670794 0.150482
O O4 0.341985 0.743190 0.000202
O O5 0.854379 0.488950 0.488617
O O6 0.855679 0.464083 0.231998
O O7 0.001534 0.466120 0.384750
O O8 0.378502 0.122621 0.530054
O O9 0.058510 0.803716 0.333376
#
# Coordination Sequence:
#
# PCOD8282933 Si02
#       5
#    16  16  16  16   4
#     4  11  22  44  66  95 132 178 225 284 340 419
#     4  10  22  41  67  94 132 175 224 279 337 415
#     4  10  22  42  64  97 129 175 222 280 337 409
#     4  11  24  40  67  96 134 173 226 281 349 406
#     4  12  24  40  62 108 128 178 214 298 336 412
#
# _framework density 22.580766000000001
#
# number of rings (size 3 to 8) (size 9 to 14) (size 15 to 20)
#    0.000    1.412    3.529    1.412    0.000    6.588 
#    0.000    2.353    0.000    0.000    0.000    0.000 
#    0.000    0.000    0.000    0.000    0.000    0.000 
#
# Total GULP energy -421424.620777 kJ/mol
# GULP energy per Si atom -12394.841788 kJ/mol
# Density = 2.252937 g / cm^3
# Si number density = 22.580766 Si / 1000 Ang^3
#
#
#
# Elastic Constant Matrix: (Units=GPa)
#
#
# Indices 1 2 3 4 5 6 
#
# 1 46.3708 12.4217 28.5345 0.0000 0.0000 0.0000
# 2 12.4217 132.6077 83.4591 0.0000 0.0000 0.0000
# 3 28.5345 83.4591 158.3181 0.0000 0.0000 0.0000
# 4 0.0000 0.0000 0.0000 51.6890 0.0000 0.0000
# 5 0.0000 0.0000 0.0000 0.0000 17.0045 0.0000
# 6 0.0000 0.0000 0.0000 0.0000 0.0000 21.3174
#
#
#
# Elastic Compliance Matrix: (Units=1/GPa)
#
#
# Indices 1 2 3 4 5 6 
#
# 1 0.024301 0.000719 -0.004759 0.000000 0.000000 0.000000
# 2 0.000719 0.011306 -0.006090 0.000000 0.000000 0.000000
# 3 -0.004759 -0.006090 0.010384 0.000000 0.000000 0.000000
# 4 0.000000 0.000000 0.000000 0.019346 0.000000 0.000000
# 5 0.000000 0.000000 0.000000 0.000000 0.058808 0.000000
# 6 0.000000 0.000000 0.000000 0.000000 0.000000 0.046910
#
#
# Mechanical properties :
#
#
# Convention : Reuss Voigt Hill
#
# Bulk Modulus (GPa) = 38.86198 65.12525 51.99362
# Shear Modulus (GPa) = 25.01328 32.19428 28.60378
#
# Velocity S-wave (km/s) = 3.33186 3.77999 3.56298
# Velocity P-wave (km/s) = 5.66121 6.92494 6.32472
#
# Compressibility (1/GPa) = 0.02573209
#
# Stress axis : x y z
#
# Youngs Moduli (GPa) = 41.15039 88.44478 96.29799
#
# Poissons Ratio (x) = -0.06356 0.45826
# Poissons Ratio (y) = -0.02957 0.58644
# Poissons Ratio (z) = 0.19583 0.53862
#
# Static dielectric constant tensor:
#      x y z
#    x 4.019300 0.000000 0.000000 
#    y 0.000000 3.921240 0.000000 
#    z 0.000000 0.000000 4.610660 
# 
# 
# High freq. dielectric constant tensor:
#      x y z
#    x 1.873770 0.000000 0.000000 
#    y 0.000000 1.886430 0.000000 
#    z 0.000000 0.000000 1.905240 
# 
# From -- ./inp_files/5967.got.cif
#   From: 2010.03.12/outbox.cif.g09.slc.cpg/sg68_3_cif.got.tgz:5967.got - 2010.04.10 23:14:56.
