data_PCOD8282531
_publ_section_title
;
Structure prediction by ZEFSAII (Michael W. Deem and Ramdas Pophale) SiO2 
 PCOD8282531
Probable space group: C C C A
;
_chemical_formula_sum "Si O2"
_cell_formula_units_Z 112
_cell_length_a 28.799014
_cell_length_b 16.392469
_cell_length_c 11.533915
_cell_angle_alpha 90.000000
_cell_angle_beta 90.000000
_cell_angle_gamma 90.000000
_cell_volume 5445.010687
_symmetry_space_group_name_H-M "C C C A"
_symmetry_group_IT_number 68
_space_group.IT_coordinate_system_code '2'
_symmetry_cell_setting 'orthorhombic'
loop_
_space_group_symop_operation_xyz
x,y,z
-x,1/2-y,z
x,1/2-y,1/2-z
-x,y,1/2-z
-x,-y,-z
x,1/2+y,-z
-x,1/2+y,1/2+z
x,-y,1/2+z
1/2+x,1/2+y,z
1/2-x,-y,z
1/2+x,-y,1/2-z
1/2-x,1/2+y,1/2-z
1/2-x,1/2-y,-z
1/2+x,y,-z
1/2-x,y,1/2+z
1/2+x,1/2-y,1/2+z
loop_
_atom_site_type_symbol
_atom_site_label
_atom_site_fract_x
_atom_site_fract_y
_atom_site_fract_z
Si Si1 0.370664 0.386096 0.384425
Si Si2 0.870933 0.066896 0.627611
Si Si3 0.795776 0.452566 0.452350
Si Si4 0.636310 0.225153 0.987234
Si Si5 0.224666 0.776277 0.878534
Si Si6 0.455356 0.215374 0.877144
Si Si7 0.950615 0.540880 0.964200
O O1 0.374052 0.388220 0.248351
O O2 0.327140 0.437017 0.434095
O O3 0.358454 0.292532 0.412625
O O4 0.419969 0.421829 0.430349
O O5 0.858643 0.133748 0.531638
O O6 0.828685 0.003056 0.634602
O O7 0.920674 0.026947 0.601528
O O8 0.750000 0.500000 0.493162
O O9 0.779421 0.373683 0.380637
O O10 0.673953 0.236022 0.885346
O O11 0.586847 0.240688 0.935508
O O12 0.245916 0.750000 0.750000
O O13 0.250000 0.750000 0.000000
O O14 0.500000 0.250000 0.946195
O O15 0.456868 0.250000 0.750000
O O16 0.457109 0.116923 0.876759
O O17 0.000000 0.500000 0.000000
#
# Coordination Sequence:
#
# PCOD8282531 Si02
#       7
#    16  16  16  16  16  16  16
#     4   9  22  39  58  86 120 156 202 246 304 373
#     4  11  22  37  62  89 116 157 200 251 308 365
#     4  10  23  40  59  89 120 153 196 250 302 357
#     4  10  21  40  60  84 121 158 196 246 304 369
#     4  11  25  43  64  90 122 164 206 249 306 373
#     4  10  21  37  60  86 114 155 199 241 297 368
#     4  10  22  39  57  87 123 155 200 257 311 365
#
# _framework density 20.569289999999999
#
# number of rings (size 3 to 8) (size 9 to 14) (size 15 to 20)
#    0.000    1.857    0.000    3.429    0.000   13.714 
#    0.000    0.000    0.000    2.571    0.000    0.000 
#    0.000    0.000    0.000    0.000    0.000    0.000 
#
# Total GULP energy -693871.271606 kJ/mol
# GULP energy per Si atom -12390.558422 kJ/mol
# Density = 2.052247 g / cm^3
# Si number density = 20.569290 Si / 1000 Ang^3
#
#
#
# Elastic Constant Matrix: (Units=GPa)
#
#
# Indices 1 2 3 4 5 6 
#
# 1 128.4391 47.6858 33.5298 0.0000 0.0000 0.0000
# 2 47.6858 132.9285 42.8621 0.0000 0.0000 0.0000
# 3 33.5298 42.8621 95.0355 0.0000 0.0000 0.0000
# 4 0.0000 0.0000 0.0000 26.9552 0.0000 0.0000
# 5 0.0000 0.0000 0.0000 0.0000 -4.4986 0.0000
# 6 0.0000 0.0000 0.0000 0.0000 0.0000 41.7878
#
#
#
# Elastic Compliance Matrix: (Units=1/GPa)
#
#
# Indices 1 2 3 4 5 6 
#
# 1 0.009322 -0.002672 -0.002084 0.000000 0.000000 0.000000
# 2 -0.002672 0.009569 -0.003373 0.000000 0.000000 0.000000
# 3 -0.002084 -0.003373 0.012779 0.000000 0.000000 0.000000
# 4 0.000000 0.000000 0.000000 0.037099 0.000000 0.000000
# 5 0.000000 0.000000 0.000000 0.000000 -0.222293 0.000000
# 6 0.000000 0.000000 0.000000 0.000000 0.000000 0.023930
#
#
# Mechanical properties :
#
#
# Convention : Reuss Voigt Hill
#
# Bulk Modulus (GPa) = 64.88449 67.17317 66.02883
# Shear Modulus (GPa) = -46.21120 28.33724 -8.93698
#
# Velocity S-wave (km/s) = -4.74499 3.71569 -2.08668
# Velocity P-wave (km/s) = 1.26213 7.15097 5.13466
#
# Compressibility (1/GPa) = 0.01541200
#
# Stress axis : x y z
#
# Youngs Moduli (GPa) = 107.27477 104.50375 78.25467
#
# Poissons Ratio (x) = 0.27925 0.16306
# Poissons Ratio (y) = 0.28666 0.26395
# Poissons Ratio (z) = 0.22353 0.35249
#
# Static dielectric constant tensor:
#      x y z
#    x 3.825010 0.000000 0.000000 
#    y 0.000000 4.031760 0.000000 
#    z 0.000000 0.000000 3.266730 
# 
# 
# High freq. dielectric constant tensor:
#      x y z
#    x 1.822920 0.000000 0.000000 
#    y 0.000000 1.819680 0.000000 
#    z 0.000000 0.000000 1.783510 
# 
# From -- ./inp_files/17804.got.cif
#   From: 2010.03.12/outbox.cif.g09.slc.cpg/sg68_9_cif.got.tgz:17804.got - 2010.04.10 23:14:56.
