data_PCOD8282942
_publ_section_title
;
Structure prediction by ZEFSAII (Michael W. Deem and Ramdas Pophale) SiO2 
 PCOD8282942
Probable space group: C C C A
;
_chemical_formula_sum "Si O2"
_cell_formula_units_Z 104
_cell_length_a 9.728155
_cell_length_b 19.641201
_cell_length_c 24.439223
_cell_angle_alpha 90.000000
_cell_angle_beta 90.000000
_cell_angle_gamma 90.000000
_cell_volume 4669.667047
_symmetry_space_group_name_H-M "C C C A"
_symmetry_group_IT_number 68
_space_group.IT_coordinate_system_code '2'
_symmetry_cell_setting 'orthorhombic'
loop_
_space_group_symop_operation_xyz
x,y,z
-x,1/2-y,z
x,1/2-y,1/2-z
-x,y,1/2-z
-x,-y,-z
x,1/2+y,-z
-x,1/2+y,1/2+z
x,-y,1/2+z
1/2+x,1/2+y,z
1/2-x,-y,z
1/2+x,-y,1/2-z
1/2-x,1/2+y,1/2-z
1/2-x,1/2-y,-z
1/2+x,y,-z
1/2-x,y,1/2+z
1/2+x,1/2-y,1/2+z
loop_
_atom_site_type_symbol
_atom_site_label
_atom_site_fract_x
_atom_site_fract_y
_atom_site_fract_z
Si Si1 0.835536 0.857743 0.160687
Si Si2 0.099770 0.401797 0.393710
Si Si3 0.552558 0.675004 0.303444
Si Si4 0.500000 0.436090 0.250000
Si Si5 0.207538 0.677607 0.475783
Si Si6 0.500000 0.750000 0.595578
Si Si7 0.250000 0.500000 0.813525
Si Si8 0.322119 0.433450 0.567206
O O1 0.716184 0.829372 0.199329
O O2 0.950970 0.890918 0.198911
O O3 0.890728 0.790365 0.131459
O O4 0.772435 0.913378 0.119152
O O5 0.006136 0.350218 0.360246
O O6 0.175204 0.357933 0.439790
O O7 0.207980 0.439133 0.354435
O O8 0.982194 0.452057 0.418757
O O9 0.500000 0.750000 0.296778
O O10 0.500000 0.632806 0.250000
O O11 0.624079 0.481599 0.226446
O O12 0.250000 0.750000 0.500000
O O13 0.170579 0.627913 0.524796
O O14 0.072402 0.691048 0.439921
O O15 0.250000 0.500000 0.540847
#
# Coordination Sequence:
#
# PCOD8282942 Si02
#       8
#    16  16  16   8  16   8   8  16
#     4  11  25  44  69 105 143 191 237 303 370 445
#     4  11  26  45  73 102 149 185 251 299 371 440
#     4  10  22  41  70 101 136 185 242 297 366 437
#     4  12  28  45  76 104 151 196 250 302 388 440
#     4  12  25  46  73 107 142 195 242 306 373 447
#     4  12  24  45  70 104 152 180 245 302 374 436
#     4  12  28  48  74 110 146 198 248 312 370 460
#     4  11  26  46  72 103 145 192 247 306 370 440
#
# _framework density 22.271394999999998
#
# number of rings (size 3 to 8) (size 9 to 14) (size 15 to 20)
#    0.000    0.769    1.538    4.615    9.692    3.385 
#    0.000    0.000    0.000    0.000    0.000    0.000 
#    0.000    0.000    0.000    0.000    0.000    0.000 
#
# Total GULP energy -644745.300426 kJ/mol
# GULP energy per Si atom -12398.948085 kJ/mol
# Density = 2.222070 g / cm^3
# Si number density = 22.271395 Si / 1000 Ang^3
#
#
#
# Elastic Constant Matrix: (Units=GPa)
#
#
# Indices 1 2 3 4 5 6 
#
# 1 152.6826 47.4109 58.7030 0.0000 0.0000 0.0000
# 2 47.4109 100.0484 35.8621 0.0000 0.0000 0.0000
# 3 58.7030 35.8621 114.0719 0.0000 0.0000 0.0000
# 4 0.0000 0.0000 0.0000 24.5033 0.0000 0.0000
# 5 0.0000 0.0000 0.0000 0.0000 36.2137 0.0000
# 6 0.0000 0.0000 0.0000 0.0000 0.0000 35.3975
#
#
#
# Elastic Compliance Matrix: (Units=1/GPa)
#
#
# Indices 1 2 3 4 5 6 
#
# 1 0.008847 -0.002886 -0.003646 0.000000 0.000000 0.000000
# 2 -0.002886 0.012206 -0.002352 0.000000 0.000000 0.000000
# 3 -0.003646 -0.002352 0.011382 0.000000 0.000000 0.000000
# 4 0.000000 0.000000 0.000000 0.040811 0.000000 0.000000
# 5 0.000000 0.000000 0.000000 0.000000 0.027614 0.000000
# 6 0.000000 0.000000 0.000000 0.000000 0.000000 0.028251
#
#
# Mechanical properties :
#
#
# Convention : Reuss Voigt Hill
#
# Bulk Modulus (GPa) = 68.17681 72.30610 70.24145
# Shear Modulus (GPa) = 32.94518 34.21134 33.57826
#
# Velocity S-wave (km/s) = 3.85029 3.92358 3.88711
# Velocity P-wave (km/s) = 7.10243 7.28439 7.19399
#
# Compressibility (1/GPa) = 0.01466774
#
# Stress axis : x y z
#
# Youngs Moduli (GPa) = 113.02854 81.92811 87.85772
#
# Poissons Ratio (x) = 0.23643 0.32031
# Poissons Ratio (y) = 0.32617 0.20666
# Poissons Ratio (z) = 0.41207 0.19271
#
# Static dielectric constant tensor:
#      x y z
#    x 4.352610 0.000000 0.000000 
#    y 0.000000 3.890040 0.000000 
#    z 0.000000 0.000000 5.297930 
# 
# 
# High freq. dielectric constant tensor:
#      x y z
#    x 1.895450 0.000000 0.000000 
#    y 0.000000 1.871490 0.000000 
#    z 0.000000 0.000000 1.893560 
# 
# From -- ./inp_files/49474.got.cif
#   From: 2010.03.12/outbox.cif.g09.slc.cpg/sg68_25_cif.got.tgz:49474.got - 2010.04.10 23:14:56.
