data_PCOD8282714
_publ_section_title
;
Structure prediction by ZEFSAII (Michael W. Deem and Ramdas Pophale) SiO2 
 PCOD8282714
Probable space group: C C C A
;
_chemical_formula_sum "Si O2"
_cell_formula_units_Z 88
_cell_length_a 16.370503
_cell_length_b 29.582046
_cell_length_c 8.724936
_cell_angle_alpha 90.000000
_cell_angle_beta 90.000000
_cell_angle_gamma 90.000000
_cell_volume 4225.250694
_symmetry_space_group_name_H-M "C C C A"
_symmetry_group_IT_number 68
_space_group.IT_coordinate_system_code '2'
_symmetry_cell_setting 'orthorhombic'
loop_
_space_group_symop_operation_xyz
x,y,z
-x,1/2-y,z
x,1/2-y,1/2-z
-x,y,1/2-z
-x,-y,-z
x,1/2+y,-z
-x,1/2+y,1/2+z
x,-y,1/2+z
1/2+x,1/2+y,z
1/2-x,-y,z
1/2+x,-y,1/2-z
1/2-x,1/2+y,1/2-z
1/2-x,1/2-y,-z
1/2+x,y,-z
1/2-x,y,1/2+z
1/2+x,1/2-y,1/2+z
loop_
_atom_site_type_symbol
_atom_site_label
_atom_site_fract_x
_atom_site_fract_y
_atom_site_fract_z
Si Si1 0.358581 0.301053 0.248696
Si Si2 0.211158 0.098403 0.293565
Si Si3 0.736609 0.839425 0.473654
Si Si4 0.410966 0.028326 0.708022
Si Si5 0.500000 0.633343 0.750000
Si Si6 0.889002 0.561866 0.371670
O O1 0.391296 0.250000 0.250000
O O2 0.280366 0.303978 0.360917
O O3 0.429017 0.333921 0.314843
O O4 0.332411 0.314623 0.075342
O O5 0.193747 0.137210 0.419501
O O6 0.195441 0.120024 0.125622
O O7 0.153658 0.055160 0.314273
O O8 0.305435 0.085578 0.321209
O O9 0.500000 0.047419 0.750000
O O10 0.387600 0.035446 0.531479
O O11 0.406738 0.975127 0.740327
O O12 0.459602 0.600266 0.622805
#
# Coordination Sequence:
#
# PCOD8282714 Si02
#       6
#    16  16  16  16   8  16
#     4  11  23  41  69  97 124 163 216 273 337 396
#     4  11  22  42  64  94 131 176 219 260 324 393
#     4  10  21  41  66  92 128 166 209 261 328 389
#     4  12  27  40  64  97 132 172 231 274 314 366
#     4  12  23  42  66  88 134 166 220 270 325 382
#     4  12  26  43  62  94 133 178 225 265 326 378
#
# _framework density 20.827165999999998
#
# number of rings (size 3 to 8) (size 9 to 14) (size 15 to 20)
#    0.000    0.727    6.364    1.909    5.091    1.455 
#    0.000    0.000    0.000    0.000    0.000    6.364 
#    0.000    0.000    0.000    0.000    0.000    0.000 
#
# Total GULP energy -545455.243916 kJ/mol
# GULP energy per Si atom -12396.710089 kJ/mol
# Density = 2.077976 g / cm^3
# Si number density = 20.827166 Si / 1000 Ang^3
#
#
#
# Elastic Constant Matrix: (Units=GPa)
#
#
# Indices 1 2 3 4 5 6 
#
# 1 93.6480 38.1612 19.8128 0.0000 0.0000 0.0000
# 2 38.1612 136.2799 35.5634 0.0000 0.0000 0.0000
# 3 19.8128 35.5634 93.0601 0.0000 0.0000 0.0000
# 4 0.0000 0.0000 0.0000 24.6996 0.0000 0.0000
# 5 0.0000 0.0000 0.0000 0.0000 17.4603 0.0000
# 6 0.0000 0.0000 0.0000 0.0000 0.0000 32.7771
#
#
#
# Elastic Compliance Matrix: (Units=1/GPa)
#
#
# Indices 1 2 3 4 5 6 
#
# 1 0.012225 -0.003048 -0.001438 0.000000 0.000000 0.000000
# 2 -0.003048 0.008911 -0.002756 0.000000 0.000000 0.000000
# 3 -0.001438 -0.002756 0.012105 0.000000 0.000000 0.000000
# 4 0.000000 0.000000 0.000000 0.040486 0.000000 0.000000
# 5 0.000000 0.000000 0.000000 0.000000 0.057273 0.000000
# 6 0.000000 0.000000 0.000000 0.000000 0.000000 0.030509
#
#
# Mechanical properties :
#
#
# Convention : Reuss Voigt Hill
#
# Bulk Modulus (GPa) = 53.31588 56.67367 54.99478
# Shear Modulus (GPa) = 27.43559 30.28409 28.85984
#
# Velocity S-wave (km/s) = 3.63340 3.81736 3.72651
# Velocity P-wave (km/s) = 6.57700 6.83375 6.70660
#
# Compressibility (1/GPa) = 0.01875614
#
# Stress axis : x y z
#
# Youngs Moduli (GPa) = 81.80292 112.22592 82.60900
#
# Poissons Ratio (x) = 0.34205 0.11878
# Poissons Ratio (y) = 0.24933 0.22770
# Poissons Ratio (z) = 0.11762 0.30933
#
# Static dielectric constant tensor:
#      x y z
#    x 3.682800 0.000000 0.000000 
#    y 0.000000 3.894730 0.000000 
#    z 0.000000 0.000000 3.762630 
# 
# 
# High freq. dielectric constant tensor:
#      x y z
#    x 1.803940 0.000000 0.000000 
#    y 0.000000 1.824880 0.000000 
#    z 0.000000 0.000000 1.809770 
# 
# From -- ./inp_files/6431.got.cif
#   From: 2010.03.12/outbox.cif.g09.slc.cpg/sg68_4_cif.got.tgz:6431.got - 2010.04.10 23:14:56.
