data_PCOD8282385
_publ_section_title
;
Structure prediction by ZEFSAII (Michael W. Deem and Ramdas Pophale) SiO2 
 PCOD8282385
Probable space group: C C C A
;
_chemical_formula_sum "Si O2"
_cell_formula_units_Z 80
_cell_length_a 24.331731
_cell_length_b 16.790585
_cell_length_c 9.489565
_cell_angle_alpha 90.000000
_cell_angle_beta 90.000000
_cell_angle_gamma 90.000000
_cell_volume 3876.904820
_symmetry_space_group_name_H-M "C C C A"
_symmetry_group_IT_number 68
_space_group.IT_coordinate_system_code '2'
_symmetry_cell_setting 'orthorhombic'
loop_
_space_group_symop_operation_xyz
x,y,z
-x,1/2-y,z
x,1/2-y,1/2-z
-x,y,1/2-z
-x,-y,-z
x,1/2+y,-z
-x,1/2+y,1/2+z
x,-y,1/2+z
1/2+x,1/2+y,z
1/2-x,-y,z
1/2+x,-y,1/2-z
1/2-x,1/2+y,1/2-z
1/2-x,1/2-y,-z
1/2+x,y,-z
1/2-x,y,1/2+z
1/2+x,1/2-y,1/2+z
loop_
_atom_site_type_symbol
_atom_site_label
_atom_site_fract_x
_atom_site_fract_y
_atom_site_fract_z
Si Si1 0.170760 0.212880 0.608107
Si Si2 0.209736 0.183341 0.136173
Si Si3 0.407816 0.416863 0.515079
Si Si4 0.385238 0.070432 0.662145
Si Si5 0.012496 0.161660 0.086187
O O1 0.143936 0.250000 0.750000
O O2 0.192894 0.286661 0.517690
O O3 0.225565 0.161703 0.646550
O O4 0.127058 0.161650 0.521765
O O5 0.192571 0.250000 0.250000
O O6 0.176857 0.101905 0.161588
O O7 0.400770 0.442548 0.676096
O O8 0.388989 0.485277 0.410575
O O9 0.472651 0.396950 0.497353
O O10 0.424276 0.132698 0.575099
O O11 0.000000 0.250000 0.027394
O O12 0.000000 0.158713 0.250000
#
# Coordination Sequence:
#
# PCOD8282385 Si02
#       5
#    16  16  16  16  16
#     4  10  22  38  63  90 122 157 208 258 299 364
#     4  10  20  40  63  88 117 162 207 252 304 360
#     4  11  23  40  59  91 125 159 199 252 312 368
#     4  11  23  38  63  88 124 159 200 253 309 372
#     4   9  19  37  65  89 113 158 206 250 301 367
#
# _framework density 20.635017000000001
#
# number of rings (size 3 to 8) (size 9 to 14) (size 15 to 20)
#    0.000    1.800    2.000    1.800    5.600    0.800 
#    0.000    2.000    0.000    0.000    0.000    0.000 
#    0.000    0.000    0.000    0.000    0.000    0.000 
#
# Total GULP energy -495886.954157 kJ/mol
# GULP energy per Si atom -12397.173854 kJ/mol
# Density = 2.058805 g / cm^3
# Si number density = 20.635017 Si / 1000 Ang^3
#
#
#
# Elastic Constant Matrix: (Units=GPa)
#
#
# Indices 1 2 3 4 5 6 
#
# 1 89.5844 16.9208 14.7084 0.0000 0.0000 0.0000
# 2 16.9208 67.0183 25.1317 0.0000 0.0000 0.0000
# 3 14.7084 25.1317 92.7668 0.0000 0.0000 0.0000
# 4 0.0000 0.0000 0.0000 36.9171 0.0000 0.0000
# 5 0.0000 0.0000 0.0000 0.0000 22.8567 0.0000
# 6 0.0000 0.0000 0.0000 0.0000 0.0000 10.0207
#
#
#
# Elastic Compliance Matrix: (Units=1/GPa)
#
#
# Indices 1 2 3 4 5 6 
#
# 1 0.011838 -0.002543 -0.001188 0.000000 0.000000 0.000000
# 2 -0.002543 0.017155 -0.004244 0.000000 0.000000 0.000000
# 3 -0.001188 -0.004244 0.012118 0.000000 0.000000 0.000000
# 4 0.000000 0.000000 0.000000 0.027088 0.000000 0.000000
# 5 0.000000 0.000000 0.000000 0.000000 0.043751 0.000000
# 6 0.000000 0.000000 0.000000 0.000000 0.000000 0.099794
#
#
# Mechanical properties :
#
#
# Convention : Reuss Voigt Hill
#
# Bulk Modulus (GPa) = 39.74587 40.32126 40.03356
# Shear Modulus (GPa) = 21.17915 26.79946 23.98931
#
# Velocity S-wave (km/s) = 3.20718 3.60771 3.41332
# Velocity P-wave (km/s) = 5.74611 6.07756 5.91416
#
# Compressibility (1/GPa) = 0.02515985
#
# Stress axis : x y z
#
# Youngs Moduli (GPa) = 84.47301 58.29182 82.52259
#
# Poissons Ratio (x) = 0.14826 0.09803
# Poissons Ratio (y) = 0.21485 0.35025
# Poissons Ratio (z) = 0.10035 0.24741
#
# Static dielectric constant tensor:
#      x y z
#    x 4.044630 0.000000 0.000000 
#    y 0.000000 3.461050 0.000000 
#    z 0.000000 0.000000 3.643350 
# 
# 
# High freq. dielectric constant tensor:
#      x y z
#    x 1.814170 0.000000 0.000000 
#    y 0.000000 1.786000 0.000000 
#    z 0.000000 0.000000 1.801420 
# 
# From -- ./inp_files/8755.got.cif
#   From: 2010.03.12/outbox.cif.g09.slc.cpg/sg68_5_cif.got.tgz:8755.got - 2010.04.10 23:14:56.
