data_PCOD8282364
_publ_section_title
;
Structure prediction by ZEFSAII (Michael W. Deem and Ramdas Pophale) SiO2 
 PCOD8282364
Probable space group: C C C A
;
_chemical_formula_sum "Si O2"
_cell_formula_units_Z 120
_cell_length_a 17.189332
_cell_length_b 19.085875
_cell_length_c 17.270084
_cell_angle_alpha 90.000000
_cell_angle_beta 90.000000
_cell_angle_gamma 90.000000
_cell_volume 5665.855900
_symmetry_space_group_name_H-M "C C C A"
_symmetry_group_IT_number 68
_space_group.IT_coordinate_system_code '2'
_symmetry_cell_setting 'orthorhombic'
loop_
_space_group_symop_operation_xyz
x,y,z
-x,1/2-y,z
x,1/2-y,1/2-z
-x,y,1/2-z
-x,-y,-z
x,1/2+y,-z
-x,1/2+y,1/2+z
x,-y,1/2+z
1/2+x,1/2+y,z
1/2-x,-y,z
1/2+x,-y,1/2-z
1/2-x,1/2+y,1/2-z
1/2-x,1/2-y,-z
1/2+x,y,-z
1/2-x,y,1/2+z
1/2+x,1/2-y,1/2+z
loop_
_atom_site_type_symbol
_atom_site_label
_atom_site_fract_x
_atom_site_fract_y
_atom_site_fract_z
Si Si1 0.165324 0.850717 0.506018
Si Si2 0.697244 0.750000 0.250000
Si Si3 0.344835 0.640085 0.989274
Si Si4 0.571168 0.710181 0.875066
Si Si5 0.590901 0.254292 0.891018
Si Si6 0.571564 0.071826 0.202851
Si Si7 0.340243 0.004760 0.432938
Si Si8 0.839773 0.828910 0.312136
O O1 0.256188 0.838777 0.499841
O O2 0.138572 0.802109 0.435834
O O3 0.124289 0.822726 0.584339
O O4 0.143575 0.931749 0.492639
O O5 0.640771 0.781143 0.182958
O O6 0.750673 0.810773 0.288834
O O7 0.398669 0.693438 0.036728
O O8 0.367126 0.563758 0.021625
O O9 0.357239 0.642095 0.897786
O O10 0.500000 0.750000 0.915851
O O11 0.535350 0.637305 0.844175
O O12 0.609723 0.756499 0.806190
O O13 0.500000 0.250000 0.868924
O O14 0.500000 0.036375 0.250000
O O15 0.610275 0.014660 0.146098
O O16 0.637026 0.107090 0.256585
O O17 0.250000 0.000000 0.409141
#
# Coordination Sequence:
#
# PCOD8282364 Si02
#       8
#    16   8  16  16  16  16  16  16
#     4  10  20  39  67  96 128 172 224 281 332 396
#     4  12  25  40  61  98 140 174 224 280 347 408
#     4  11  23  44  67  96 128 177 230 277 324 403
#     4  11  19  32  59 102 136 159 204 283 347 389
#     4  12  25  42  67  97 133 179 227 280 342 407
#     4  11  22  37  62 100 140 170 211 274 355 395
#     4   9  23  43  67  93 135 180 225 272 329 401
#     4  12  22  35  66 104 128 167 222 281 339 403
#
# _framework density 21.179500999999998
#
# number of rings (size 3 to 8) (size 9 to 14) (size 15 to 20)
#    0.000    1.067    5.333    1.800    3.733    0.000 
#    0.000    7.333    0.000    0.000    0.000    0.000 
#    0.000    0.000    0.000    0.000    0.000    0.000 
#
# Total GULP energy -743638.013832 kJ/mol
# GULP energy per Si atom -12393.966897 kJ/mol
# Density = 2.113130 g / cm^3
# Si number density = 21.179501 Si / 1000 Ang^3
#
#
#
# Elastic Constant Matrix: (Units=GPa)
#
#
# Indices 1 2 3 4 5 6 
#
# 1 106.0057 39.7610 30.5446 0.0000 0.0000 0.0000
# 2 39.7610 98.3538 46.4096 0.0000 0.0000 0.0000
# 3 30.5446 46.4096 104.4655 0.0000 0.0000 0.0000
# 4 0.0000 0.0000 0.0000 8.6292 0.0000 0.0000
# 5 0.0000 0.0000 0.0000 0.0000 31.6457 0.0000
# 6 0.0000 0.0000 0.0000 0.0000 0.0000 25.9730
#
#
#
# Elastic Compliance Matrix: (Units=1/GPa)
#
#
# Indices 1 2 3 4 5 6 
#
# 1 0.011331 -0.003818 -0.001617 0.000000 0.000000 0.000000
# 2 -0.003818 0.014150 -0.005170 0.000000 0.000000 0.000000
# 3 -0.001617 -0.005170 0.012342 0.000000 0.000000 0.000000
# 4 0.000000 0.000000 0.000000 0.115886 0.000000 0.000000
# 5 0.000000 0.000000 0.000000 0.000000 0.031600 0.000000
# 6 0.000000 0.000000 0.000000 0.000000 0.000000 0.038501
#
#
# Mechanical properties :
#
#
# Convention : Reuss Voigt Hill
#
# Bulk Modulus (GPa) = 60.19046 60.25059 60.22053
# Shear Modulus (GPa) = 19.95536 26.05690 23.00613
#
# Velocity S-wave (km/s) = 3.07286 3.51135 3.29940
# Velocity P-wave (km/s) = 6.40865 6.70439 6.55819
#
# Compressibility (1/GPa) = 0.01661393
#
# Stress axis : x y z
#
# Youngs Moduli (GPa) = 88.25023 70.66941 81.02266
#
# Poissons Ratio (x) = 0.26981 0.13102
# Poissons Ratio (y) = 0.33693 0.41890
# Poissons Ratio (z) = 0.14271 0.36537
#
# Static dielectric constant tensor:
#      x y z
#    x 3.780930 0.000000 0.000000 
#    y 0.000000 3.893340 0.000000 
#    z 0.000000 0.000000 4.005980 
# 
# 
# High freq. dielectric constant tensor:
#      x y z
#    x 1.833020 0.000000 0.000000 
#    y 0.000000 1.804510 0.000000 
#    z 0.000000 0.000000 1.840450 
# 
# From -- ./inp_files/32305.got.cif
#   From: 2010.03.12/outbox.cif.g09.slc.cpg/sg68_17_cif.got.tgz:32305.got - 2010.04.10 23:14:56.
