data_PCOD8282410
_publ_section_title
;
Structure prediction by ZEFSAII (Michael W. Deem and Ramdas Pophale) SiO2 
 PCOD8282410
Probable space group: C C C A
;
_chemical_formula_sum "Si O2"
_cell_formula_units_Z 92
_cell_length_a 19.791354
_cell_length_b 27.529527
_cell_length_c 8.852241
_cell_angle_alpha 90.000000
_cell_angle_beta 90.000000
_cell_angle_gamma 90.000000
_cell_volume 4823.113538
_symmetry_space_group_name_H-M "C C C A"
_symmetry_group_IT_number 68
_space_group.IT_coordinate_system_code '2'
_symmetry_cell_setting 'orthorhombic'
loop_
_space_group_symop_operation_xyz
x,y,z
-x,1/2-y,z
x,1/2-y,1/2-z
-x,y,1/2-z
-x,-y,-z
x,1/2+y,-z
-x,1/2+y,1/2+z
x,-y,1/2+z
1/2+x,1/2+y,z
1/2-x,-y,z
1/2+x,-y,1/2-z
1/2-x,1/2+y,1/2-z
1/2-x,1/2-y,-z
1/2+x,y,-z
1/2-x,y,1/2+z
1/2+x,1/2-y,1/2+z
loop_
_atom_site_type_symbol
_atom_site_label
_atom_site_fract_x
_atom_site_fract_y
_atom_site_fract_z
Si Si1 0.750000 0.000000 0.014591
Si Si2 0.923284 0.861663 0.257494
Si Si3 0.720538 0.659938 0.249436
Si Si4 0.804624 0.065597 0.761259
Si Si5 0.391284 0.200950 0.955488
Si Si6 0.500000 0.750000 0.250000
Si Si7 0.666171 0.301725 0.440225
O O1 0.802312 0.970008 0.117851
O O2 0.704649 0.964360 0.914303
O O3 0.877423 0.909307 0.268847
O O4 0.917791 0.828200 0.403437
O O5 0.902276 0.829572 0.110677
O O6 0.000000 0.879581 0.250000
O O7 0.744549 0.604527 0.257780
O O8 0.656513 0.666430 0.357229
O O9 0.781615 0.695817 0.299501
O O10 0.701439 0.670711 0.077930
O O11 0.454288 0.215964 0.853634
O O12 0.349219 0.247178 0.012629
#
# Coordination Sequence:
#
# PCOD8282410 Si02
#       7
#     8  16  16  16  16   4  16
#     4  10  20  40  68  88 116 138 182 254 322 376
#     4  11  24  40  60  84 124 164 207 243 294 358
#     4  11  21  37  62  89 122 152 206 258 299 344
#     4  10  21  39  63  93 113 146 190 247 313 370
#     4  12  23  38  56  83 126 170 214 245 288 335
#     4  12  24  40  54  84 124 180 220 236 280 348
#     4  11  22  38  57  91 122 167 207 255 291 337
#
# _framework density 19.074815000000001
#
# number of rings (size 3 to 8) (size 9 to 14) (size 15 to 20)
#    0.000    1.043    1.739    7.304    0.000    3.478 
#    0.000    0.870    0.000    0.000    0.000    0.000 
#    0.000    0.000    0.000    0.000    0.000    0.000 
#
# Total GULP energy -570589.159060 kJ/mol
# GULP energy per Si atom -12404.112153 kJ/mol
# Density = 1.903140 g / cm^3
# Si number density = 19.074815 Si / 1000 Ang^3
#
#
#
# Elastic Constant Matrix: (Units=GPa)
#
#
# Indices 1 2 3 4 5 6 
#
# 1 120.7117 60.5048 55.9492 0.0000 0.0000 0.0000
# 2 60.5048 118.5328 62.2575 0.0000 0.0000 0.0000
# 3 55.9492 62.2575 126.9557 0.0000 0.0000 0.0000
# 4 0.0000 0.0000 0.0000 19.0337 0.0000 0.0000
# 5 0.0000 0.0000 0.0000 0.0000 24.0050 0.0000
# 6 0.0000 0.0000 0.0000 0.0000 0.0000 14.1931
#
#
#
# Elastic Compliance Matrix: (Units=1/GPa)
#
#
# Indices 1 2 3 4 5 6 
#
# 1 0.011958 -0.004493 -0.003066 0.000000 0.000000 0.000000
# 2 -0.004493 0.013052 -0.004420 0.000000 0.000000 0.000000
# 3 -0.003066 -0.004420 0.011396 0.000000 0.000000 0.000000
# 4 0.000000 0.000000 0.000000 0.052538 0.000000 0.000000
# 5 0.000000 0.000000 0.000000 0.000000 0.041658 0.000000
# 6 0.000000 0.000000 0.000000 0.000000 0.000000 0.070457
#
#
# Mechanical properties :
#
#
# Convention : Reuss Voigt Hill
#
# Bulk Modulus (GPa) = 80.35020 80.40259 80.37639
# Shear Modulus (GPa) = 21.81825 23.94560 22.88193
#
# Velocity S-wave (km/s) = 3.38572 3.54694 3.46727
# Velocity P-wave (km/s) = 7.58283 7.68226 7.63270
#
# Compressibility (1/GPa) = 0.01244552
#
# Stress axis : x y z
#
# Youngs Moduli (GPa) = 83.62928 76.61839 87.75246
#
# Poissons Ratio (x) = 0.34426 0.26907
# Poissons Ratio (y) = 0.37576 0.38789
# Poissons Ratio (z) = 0.25643 0.33867
#
# Static dielectric constant tensor:
#      x y z
#    x 3.447470 0.000000 0.000000 
#    y 0.000000 3.260020 0.000000 
#    z 0.000000 0.000000 3.885300 
# 
# 
# High freq. dielectric constant tensor:
#      x y z
#    x 1.733800 0.000000 0.000000 
#    y 0.000000 1.733460 0.000000 
#    z 0.000000 0.000000 1.767070 
# 
# From -- ./inp_files/7332.got.cif
#   From: 2010.03.12/outbox.cif.g09.slc.cpg/sg68_4_cif.got.tgz:7332.got - 2010.04.10 23:14:56.
