data_PCOD8282819
_publ_section_title
;
Structure prediction by ZEFSAII (Michael W. Deem and Ramdas Pophale) SiO2 
 PCOD8282819
Probable space group: C C C A
;
_chemical_formula_sum "Si O2"
_cell_formula_units_Z 88
_cell_length_a 24.782798
_cell_length_b 5.114303
_cell_length_c 34.183854
_cell_angle_alpha 90.000000
_cell_angle_beta 90.000000
_cell_angle_gamma 90.000000
_cell_volume 4332.691992
_symmetry_space_group_name_H-M "C C C A"
_symmetry_group_IT_number 68
_space_group.IT_coordinate_system_code '2'
_symmetry_cell_setting 'orthorhombic'
loop_
_space_group_symop_operation_xyz
x,y,z
-x,1/2-y,z
x,1/2-y,1/2-z
-x,y,1/2-z
-x,-y,-z
x,1/2+y,-z
-x,1/2+y,1/2+z
x,-y,1/2+z
1/2+x,1/2+y,z
1/2-x,-y,z
1/2+x,-y,1/2-z
1/2-x,1/2+y,1/2-z
1/2-x,1/2-y,-z
1/2+x,y,-z
1/2-x,y,1/2+z
1/2+x,1/2-y,1/2+z
loop_
_atom_site_type_symbol
_atom_site_label
_atom_site_fract_x
_atom_site_fract_y
_atom_site_fract_z
Si Si1 0.500000 0.750000 0.124241
Si Si2 0.388965 0.249801 0.475188
Si Si3 0.113047 0.114563 0.144831
Si Si4 0.654372 0.867713 0.604601
Si Si5 0.250000 0.000000 0.851813
Si Si6 0.694571 0.840265 0.292741
Si Si7 0.500000 0.250000 0.430324
O O1 0.551841 0.709192 0.152487
O O2 0.493801 0.502889 0.096461
O O3 0.379458 0.544061 0.489928
O O4 0.345926 0.165501 0.441960
O O5 0.449065 0.244009 0.458633
O O6 0.141388 0.335224 0.117749
O O7 0.142630 0.032214 0.185945
O O8 0.111580 0.843640 0.120833
O O9 0.715272 0.802231 0.620774
O O10 0.205102 0.891550 0.822577
O O11 0.676241 0.750000 0.250000
O O12 0.750000 0.000000 0.289107
#
# Coordination Sequence:
#
# PCOD8282819 Si02
#       7
#     8  16  16  16   8  16   8
#     4  12  20  39  61  88 122 163 214 247 294 376
#     4  12  23  38  56  86 122 154 202 264 315 362
#     4  11  22  38  61  89 124 166 202 250 301 372
#     4  11  22  40  60  88 118 161 210 248 309 368
#     4  10  22  38  64  88 120 158 206 254 302 368
#     4  11  21  37  63  97 125 155 196 260 313 357
#     4  12  22  37  60  86 117 155 208 263 307 358
#
# _framework density 20.310697000000001
#
# number of rings (size 3 to 8) (size 9 to 14) (size 15 to 20)
#    0.000    0.727    6.364    2.727    0.000    0.000 
#    0.000    1.364    0.000    0.000    0.000    3.818 
#    0.000    0.000    0.000    0.000    0.000    0.000 
#
# Total GULP energy -545152.348021 kJ/mol
# GULP energy per Si atom -12389.826091 kJ/mol
# Density = 2.026447 g / cm^3
# Si number density = 20.310697 Si / 1000 Ang^3
#
#
#
# Elastic Constant Matrix: (Units=GPa)
#
#
# Indices 1 2 3 4 5 6 
#
# 1 81.2485 6.4498 47.1058 0.0000 0.0000 0.0000
# 2 6.4498 91.6924 21.3049 0.0000 0.0000 0.0000
# 3 47.1058 21.3049 119.4930 0.0000 0.0000 0.0000
# 4 0.0000 0.0000 0.0000 24.4234 0.0000 0.0000
# 5 0.0000 0.0000 0.0000 0.0000 -19.5619 0.0000
# 6 0.0000 0.0000 0.0000 0.0000 0.0000 28.4666
#
#
#
# Elastic Compliance Matrix: (Units=1/GPa)
#
#
# Indices 1 2 3 4 5 6 
#
# 1 0.015965 0.000354 -0.006357 0.000000 0.000000 0.000000
# 2 0.000354 0.011385 -0.002169 0.000000 0.000000 0.000000
# 3 -0.006357 -0.002169 0.011261 0.000000 0.000000 0.000000
# 4 0.000000 0.000000 0.000000 0.040944 0.000000 0.000000
# 5 0.000000 0.000000 0.000000 0.000000 -0.051120 0.000000
# 6 0.000000 0.000000 0.000000 0.000000 0.000000 0.035129
#
#
# Mechanical properties :
#
#
# Convention : Reuss Voigt Hill
#
# Bulk Modulus (GPa) = 44.90881 49.12833 47.01857
# Shear Modulus (GPa) = 57.25227 21.17050 39.21139
#
# Velocity S-wave (km/s) = 5.31502 3.23202 4.39860
# Velocity P-wave (km/s) = 7.73465 6.17809 6.99977
#
# Compressibility (1/GPa) = 0.02226734
#
# Stress axis : x y z
#
# Youngs Moduli (GPa) = 62.63556 87.83327 88.79837
#
# Poissons Ratio (x) = -0.03109 0.56448
# Poissons Ratio (y) = -0.02217 0.19265
# Poissons Ratio (z) = 0.39817 0.19055
#
# Static dielectric constant tensor:
#      x y z
#    x 4.322630 0.000000 0.000000 
#    y 0.000000 3.710270 0.000000 
#    z 0.000000 0.000000 3.742290 
# 
# 
# High freq. dielectric constant tensor:
#      x y z
#    x 1.788180 0.000000 0.000000 
#    y 0.000000 1.797440 0.000000 
#    z 0.000000 0.000000 1.783850 
# 
# From -- ./inp_files/56170.got.cif
#   From: 2010.03.12/outbox.cif.g09.slc.cpg/sg68_29_cif.got.tgz:56170.got - 2010.04.10 23:14:56.
