data_PCOD8282916
_publ_section_title
;
Structure prediction by ZEFSAII (Michael W. Deem and Ramdas Pophale) SiO2 
 PCOD8282916
Probable space group: C C C A
;
_chemical_formula_sum "Si O2"
_cell_formula_units_Z 80
_cell_length_a 13.326813
_cell_length_b 27.742787
_cell_length_c 9.499030
_cell_angle_alpha 90.000000
_cell_angle_beta 90.000000
_cell_angle_gamma 90.000000
_cell_volume 3512.009246
_symmetry_space_group_name_H-M "C C C A"
_symmetry_group_IT_number 68
_space_group.IT_coordinate_system_code '2'
_symmetry_cell_setting 'orthorhombic'
loop_
_space_group_symop_operation_xyz
x,y,z
-x,1/2-y,z
x,1/2-y,1/2-z
-x,y,1/2-z
-x,-y,-z
x,1/2+y,-z
-x,1/2+y,1/2+z
x,-y,1/2+z
1/2+x,1/2+y,z
1/2-x,-y,z
1/2+x,-y,1/2-z
1/2-x,1/2+y,1/2-z
1/2-x,1/2-y,-z
1/2+x,y,-z
1/2-x,y,1/2+z
1/2+x,1/2-y,1/2+z
loop_
_atom_site_type_symbol
_atom_site_label
_atom_site_fract_x
_atom_site_fract_y
_atom_site_fract_z
Si Si1 0.348453 0.898388 0.992676
Si Si2 0.611151 0.305516 0.086276
Si Si3 0.125880 0.200341 0.900462
Si Si4 0.270880 0.943866 0.263878
Si Si5 0.555365 0.886322 0.111010
O O1 0.326980 0.840457 0.002366
O O2 0.323372 0.918600 0.838623
O O3 0.277459 0.924617 0.104952
O O4 0.467574 0.907740 0.012243
O O5 0.492765 0.302579 0.098846
O O6 0.656410 0.253187 0.040547
O O7 0.659745 0.313458 0.240762
O O8 0.628152 0.347273 0.968191
O O9 0.374194 0.930893 0.344468
O O10 0.250000 0.000000 0.261605
O O11 0.500000 0.863724 0.250000
#
# Coordination Sequence:
#
# PCOD8282916 Si02
#       5
#    16  16  16  16  16
#     4  10  22  41  63  91 124 164 207 257 314 377
#     4   8  14  30  59  92 122 161 205 245 304 371
#     4   8  15  30  58  91 123 160 204 250 301 369
#     4  11  24  42  62  86 123 161 208 270 320 368
#     4   9  20  39  63  92 126 162 209 257 311 378
#
# _framework density 22.778984000000001
#
# number of rings (size 3 to 8) (size 9 to 14) (size 15 to 20)
#    0.000    2.800    0.000    1.800    2.800    0.800 
#    0.000   20.000    0.000    0.000    0.000    0.000 
#    0.000    0.000    0.000    0.000    0.000    0.000 
#
# Total GULP energy -495526.478688 kJ/mol
# GULP energy per Si atom -12388.161967 kJ/mol
# Density = 2.272714 g / cm^3
# Si number density = 22.778984 Si / 1000 Ang^3
#
#
#
# Elastic Constant Matrix: (Units=GPa)
#
#
# Indices 1 2 3 4 5 6 
#
# 1 56.9921 31.7076 33.6006 0.0000 0.0000 0.0000
# 2 31.7076 205.0002 74.6524 0.0000 0.0000 0.0000
# 3 33.6006 74.6524 75.0339 0.0000 0.0000 0.0000
# 4 0.0000 0.0000 0.0000 40.7688 0.0000 0.0000
# 5 0.0000 0.0000 0.0000 0.0000 33.8933 0.0000
# 6 0.0000 0.0000 0.0000 0.0000 0.0000 75.9130
#
#
#
# Elastic Compliance Matrix: (Units=1/GPa)
#
#
# Indices 1 2 3 4 5 6 
#
# 1 0.023853 0.000314 -0.010994 0.000000 0.000000 0.000000
# 2 0.000314 0.007654 -0.007755 0.000000 0.000000 0.000000
# 3 -0.010994 -0.007755 0.025967 0.000000 0.000000 0.000000
# 4 0.000000 0.000000 0.000000 0.024529 0.000000 0.000000
# 5 0.000000 0.000000 0.000000 0.000000 0.029504 0.000000
# 6 0.000000 0.000000 0.000000 0.000000 0.000000 0.013173
#
#
# Mechanical properties :
#
#
# Convention : Reuss Voigt Hill
#
# Bulk Modulus (GPa) = 48.53757 68.54972 58.54365
# Shear Modulus (GPa) = 29.68802 43.25273 36.47037
#
# Velocity S-wave (km/s) = 3.61405 4.36225 4.00566
# Velocity P-wave (km/s) = 6.22651 7.45191 6.86660
#
# Compressibility (1/GPa) = 0.02060260
#
# Stress axis : x y z
#
# Youngs Moduli (GPa) = 41.92286 130.65654 38.51091
#
# Poissons Ratio (x) = -0.04106 0.42340
# Poissons Ratio (y) = -0.01317 0.29867
# Poissons Ratio (z) = 0.46091 1.01330
#
# Static dielectric constant tensor:
#      x y z
#    x 3.963090 0.000000 0.000000 
#    y 0.000000 4.335130 0.000000 
#    z 0.000000 0.000000 4.412160 
# 
# 
# High freq. dielectric constant tensor:
#      x y z
#    x 1.895080 0.000000 0.000000 
#    y 0.000000 1.886890 0.000000 
#    z 0.000000 0.000000 1.893900 
# 
# From -- ./inp_files/6370.got.cif
#   From: 2010.03.12/outbox.cif.g09.slc.cpg/sg68_4_cif.got.tgz:6370.got - 2010.04.10 23:14:56.
