data_PCOD8282589
_publ_section_title
;
Structure prediction by ZEFSAII (Michael W. Deem and Ramdas Pophale) SiO2 
 PCOD8282589
Probable space group: C C C A
;
_chemical_formula_sum "Si O2"
_cell_formula_units_Z 88
_cell_length_a 10.427678
_cell_length_b 31.398463
_cell_length_c 13.359942
_cell_angle_alpha 90.000000
_cell_angle_beta 90.000000
_cell_angle_gamma 90.000000
_cell_volume 4374.219516
_symmetry_space_group_name_H-M "C C C A"
_symmetry_group_IT_number 68
_space_group.IT_coordinate_system_code '2'
_symmetry_cell_setting 'orthorhombic'
loop_
_space_group_symop_operation_xyz
x,y,z
-x,1/2-y,z
x,1/2-y,1/2-z
-x,y,1/2-z
-x,-y,-z
x,1/2+y,-z
-x,1/2+y,1/2+z
x,-y,1/2+z
1/2+x,1/2+y,z
1/2-x,-y,z
1/2+x,-y,1/2-z
1/2-x,1/2+y,1/2-z
1/2-x,1/2-y,-z
1/2+x,y,-z
1/2-x,y,1/2+z
1/2+x,1/2-y,1/2+z
loop_
_atom_site_type_symbol
_atom_site_label
_atom_site_fract_x
_atom_site_fract_y
_atom_site_fract_z
Si Si1 0.956380 0.798333 0.435948
Si Si2 0.804712 0.593007 0.361690
Si Si3 0.377387 0.902516 0.187531
Si Si4 0.793042 0.658689 0.522421
Si Si5 0.875539 0.972447 0.980605
Si Si6 0.500000 0.848350 0.750000
O O1 0.815795 0.804548 0.485690
O O2 0.928539 0.816648 0.325684
O O3 0.000000 0.750000 0.432756
O O4 0.067724 0.823721 0.493247
O O5 0.714187 0.578108 0.272249
O O6 0.739367 0.622241 0.447374
O O7 0.855717 0.550616 0.413611
O O8 0.915525 0.621254 0.316415
O O9 0.500000 0.886416 0.250000
O O10 0.310047 0.862409 0.132468
O O11 0.408670 0.939446 0.107971
O O12 0.750000 0.000000 0.952025
O O13 0.000000 0.000000 0.000000
#
# Coordination Sequence:
#
# PCOD8282589 Si02
#       6
#    16  16  16  16  16   8
#     4  11  21  38  62  95 128 163 199 263 318 365
#     4  10  22  40  64  87 121 166 214 253 311 377
#     4  11  22  40  67  89 122 172 215 259 318 379
#     4  10  22  39  64  92 127 163 215 253 305 389
#     4  11  26  42  60  94 131 158 211 275 322 381
#     4  10  21  38  64  86 116 166 222 240 298 394
#
# _framework density 20.117875000000002
#
# number of rings (size 3 to 8) (size 9 to 14) (size 15 to 20)
#    0.000    1.455    1.818    3.000    2.545    5.091 
#    0.000    0.000    0.000    1.091    0.000    0.000 
#    0.000    0.000    0.000    0.000    0.000    0.000 
#
# Total GULP energy -545311.074184 kJ/mol
# GULP energy per Si atom -12393.433504 kJ/mol
# Density = 2.007209 g / cm^3
# Si number density = 20.117875 Si / 1000 Ang^3
#
#
#
# Elastic Constant Matrix: (Units=GPa)
#
#
# Indices 1 2 3 4 5 6 
#
# 1 110.0441 39.0960 30.0990 0.0000 0.0000 0.0000
# 2 39.0960 99.4096 31.0892 0.0000 0.0000 0.0000
# 3 30.0990 31.0892 106.3659 0.0000 0.0000 0.0000
# 4 0.0000 0.0000 0.0000 25.7440 0.0000 0.0000
# 5 0.0000 0.0000 0.0000 0.0000 25.8329 0.0000
# 6 0.0000 0.0000 0.0000 0.0000 0.0000 42.1233
#
#
#
# Elastic Compliance Matrix: (Units=1/GPa)
#
#
# Indices 1 2 3 4 5 6 
#
# 1 0.010945 -0.003672 -0.002024 0.000000 0.000000 0.000000
# 2 -0.003672 0.012303 -0.002557 0.000000 0.000000 0.000000
# 3 -0.002024 -0.002557 0.010722 0.000000 0.000000 0.000000
# 4 0.000000 0.000000 0.000000 0.038844 0.000000 0.000000
# 5 0.000000 0.000000 0.000000 0.000000 0.038710 0.000000
# 6 0.000000 0.000000 0.000000 0.000000 0.000000 0.023740
#
#
# Mechanical properties :
#
#
# Convention : Reuss Voigt Hill
#
# Bulk Modulus (GPa) = 57.25876 57.37645 57.31761
# Shear Modulus (GPa) = 31.72766 33.10906 32.41836
#
# Velocity S-wave (km/s) = 3.97557 4.06119 4.01861
# Velocity P-wave (km/s) = 7.04251 7.11147 7.07707
#
# Compressibility (1/GPa) = 0.01746458
#
# Stress axis : x y z
#
# Youngs Moduli (GPa) = 91.36324 81.28078 93.26910
#
# Poissons Ratio (x) = 0.29843 0.18879
# Poissons Ratio (y) = 0.33545 0.23849
# Poissons Ratio (z) = 0.18493 0.20784
#
# Static dielectric constant tensor:
#      x y z
#    x 3.622880 0.000000 0.000000 
#    y 0.000000 3.610410 0.000000 
#    z 0.000000 0.000000 5.470590 
# 
# 
# High freq. dielectric constant tensor:
#      x y z
#    x 1.788410 0.000000 0.000000 
#    y 0.000000 1.778660 0.000000 
#    z 0.000000 0.000000 1.800540 
# 
# From -- ./inp_files/12064.got.cif
#   From: 2010.03.12/outbox.cif.g09.slc.cpg/sg68_7_cif.got.tgz:12064.got - 2010.04.10 23:14:56.
