data_PCOD8282084
_publ_section_title
;
Structure prediction by ZEFSAII (Michael W. Deem and Ramdas Pophale) SiO2 
 PCOD8282084
Probable space group: C C C A
;
_chemical_formula_sum "Si O2"
_cell_formula_units_Z 88
_cell_length_a 24.193855
_cell_length_b 20.508388
_cell_length_c 8.869441
_cell_angle_alpha 90.000000
_cell_angle_beta 90.000000
_cell_angle_gamma 90.000000
_cell_volume 4400.812322
_symmetry_space_group_name_H-M "C C C A"
_symmetry_group_IT_number 68
_space_group.IT_coordinate_system_code '2'
_symmetry_cell_setting 'orthorhombic'
loop_
_space_group_symop_operation_xyz
x,y,z
-x,1/2-y,z
x,1/2-y,1/2-z
-x,y,1/2-z
-x,-y,-z
x,1/2+y,-z
-x,1/2+y,1/2+z
x,-y,1/2+z
1/2+x,1/2+y,z
1/2-x,-y,z
1/2+x,-y,1/2-z
1/2-x,1/2+y,1/2-z
1/2-x,1/2-y,-z
1/2+x,y,-z
1/2-x,y,1/2+z
1/2+x,1/2-y,1/2+z
loop_
_atom_site_type_symbol
_atom_site_label
_atom_site_fract_x
_atom_site_fract_y
_atom_site_fract_z
Si Si1 0.306374 0.250000 0.750000
Si Si2 0.266449 0.872259 0.807684
Si Si3 0.564678 0.323115 0.277406
Si Si4 0.639816 0.151856 0.955327
Si Si5 0.142608 0.582141 0.377088
Si Si6 0.659989 0.949290 0.209840
O O1 0.268363 0.193620 0.818362
O O2 0.344919 0.278033 0.883532
O O3 0.301739 0.874775 0.650970
O O4 0.225301 0.934058 0.806405
O O5 0.308823 0.875283 0.946892
O O6 0.586712 0.250000 0.250000
O O7 0.500000 0.327424 0.250000
O O8 0.583998 0.341943 0.446749
O O9 0.590012 0.373653 0.159435
O O10 0.629213 0.100392 0.822256
O O11 0.148669 0.522324 0.261236
O O12 0.133450 0.558060 0.545445
#
# Coordination Sequence:
#
# PCOD8282084 Si02
#       6
#     8  16  16  16  16  16
#     4  10  20  32  58  91 131 162 204 242 306 360
#     4  10  21  34  56  90 131 170 205 238 296 368
#     4  10  24  45  68  88 116 156 208 262 324 366
#     4  10  22  37  62  90 127 163 210 252 302 370
#     4  11  23  38  63  86 127 166 206 254 302 365
#     4  11  22  39  58  94 127 166 200 246 306 365
#
# _framework density 19.996307999999999
#
# number of rings (size 3 to 8) (size 9 to 14) (size 15 to 20)
#    0.000    1.636    0.000    5.455   10.182    1.455 
#    0.000    4.545    0.000    0.000    0.000    0.000 
#    0.000    0.000    0.000    0.000    0.000    0.000 
#
# Total GULP energy -545568.586141 kJ/mol
# GULP energy per Si atom -12399.286049 kJ/mol
# Density = 1.995080 g / cm^3
# Si number density = 19.996308 Si / 1000 Ang^3
#
#
#
# Elastic Constant Matrix: (Units=GPa)
#
#
# Indices 1 2 3 4 5 6 
#
# 1 95.7261 58.0059 54.5074 0.0000 0.0000 0.0000
# 2 58.0059 111.7346 46.2481 0.0000 0.0000 0.0000
# 3 54.5074 46.2481 146.3928 0.0000 0.0000 0.0000
# 4 0.0000 0.0000 0.0000 39.6430 0.0000 0.0000
# 5 0.0000 0.0000 0.0000 0.0000 22.2695 0.0000
# 6 0.0000 0.0000 0.0000 0.0000 0.0000 23.5874
#
#
#
# Elastic Compliance Matrix: (Units=1/GPa)
#
#
# Indices 1 2 3 4 5 6 
#
# 1 0.017152 -0.007203 -0.004111 0.000000 0.000000 0.000000
# 2 -0.007203 0.013321 -0.001526 0.000000 0.000000 0.000000
# 3 -0.004111 -0.001526 0.008844 0.000000 0.000000 0.000000
# 4 0.000000 0.000000 0.000000 0.025225 0.000000 0.000000
# 5 0.000000 0.000000 0.000000 0.000000 0.044904 0.000000
# 6 0.000000 0.000000 0.000000 0.000000 0.000000 0.042395
#
#
# Mechanical properties :
#
#
# Convention : Reuss Voigt Hill
#
# Bulk Modulus (GPa) = 73.33266 74.59738 73.96502
# Shear Modulus (GPa) = 27.46249 30.10612 28.78431
#
# Velocity S-wave (km/s) = 3.70993 3.88439 3.79817
# Velocity P-wave (km/s) = 7.42322 7.58318 7.50362
#
# Compressibility (1/GPa) = 0.01363649
#
# Stress axis : x y z
#
# Youngs Moduli (GPa) = 58.30337 75.07064 113.07401
#
# Poissons Ratio (x) = 0.54071 0.46482
# Poissons Ratio (y) = 0.41994 0.17260
# Poissons Ratio (z) = 0.23967 0.11459
#
# Static dielectric constant tensor:
#      x y z
#    x 3.281170 0.000000 0.000000 
#    y 0.000000 3.831600 0.000000 
#    z 0.000000 0.000000 3.825000 
# 
# 
# High freq. dielectric constant tensor:
#      x y z
#    x 1.740850 0.000000 0.000000 
#    y 0.000000 1.797240 0.000000 
#    z 0.000000 0.000000 1.791870 
# 
# From -- ./inp_files/7985.got.cif
#   From: 2010.03.12/outbox.cif.g09.slc.cpg/sg68_4_cif.got.tgz:7985.got - 2010.04.10 23:14:56.
