data_PCOD8282728
_publ_section_title
;
Structure prediction by ZEFSAII (Michael W. Deem and Ramdas Pophale) SiO2 
 PCOD8282728
Probable space group: C C C A
;
_chemical_formula_sum "Si O2"
_cell_formula_units_Z 80
_cell_length_a 23.798863
_cell_length_b 14.787210
_cell_length_c 10.742100
_cell_angle_alpha 90.000000
_cell_angle_beta 90.000000
_cell_angle_gamma 90.000000
_cell_volume 3780.346780
_symmetry_space_group_name_H-M "C C C A"
_symmetry_group_IT_number 68
_space_group.IT_coordinate_system_code '2'
_symmetry_cell_setting 'orthorhombic'
loop_
_space_group_symop_operation_xyz
x,y,z
-x,1/2-y,z
x,1/2-y,1/2-z
-x,y,1/2-z
-x,-y,-z
x,1/2+y,-z
-x,1/2+y,1/2+z
x,-y,1/2+z
1/2+x,1/2+y,z
1/2-x,-y,z
1/2+x,-y,1/2-z
1/2-x,1/2+y,1/2-z
1/2-x,1/2-y,-z
1/2+x,y,-z
1/2-x,y,1/2+z
1/2+x,1/2-y,1/2+z
loop_
_atom_site_type_symbol
_atom_site_label
_atom_site_fract_x
_atom_site_fract_y
_atom_site_fract_z
Si Si1 0.938058 0.144737 0.271519
Si Si2 0.148013 0.119518 0.027291
Si Si3 0.724055 0.848293 0.259364
Si Si4 0.351516 0.572181 0.074777
Si Si5 0.342377 0.293084 0.365803
O O1 0.940643 0.250000 0.250000
O O2 0.914008 0.129521 0.411237
O O3 0.897943 0.097123 0.174060
O O4 0.000000 0.102510 0.250000
O O5 0.194193 0.095391 0.131721
O O6 0.169475 0.210900 0.960252
O O7 0.146780 0.035410 0.934669
O O8 0.693832 0.750000 0.250000
O O9 0.710554 0.898240 0.127244
O O10 0.789009 0.834434 0.291061
O O11 0.367119 0.622901 0.944083
O O12 0.379666 0.250000 0.250000
#
# Coordination Sequence:
#
# PCOD8282728 Si02
#       5
#    16  16  16  16  16
#     4  10  21  44  75  91 116 171 220 269 338 396
#     4  11  22  40  64  94 125 165 212 274 320 374
#     4  10  21  42  60  81 127 178 215 256 301 373
#     4  11  23  41  62  96 131 163 220 268 315 385
#     4  11  24  39  59  88 133 173 208 261 315 369
#
# _framework density 21.16208
#
# number of rings (size 3 to 8) (size 9 to 14) (size 15 to 20)
#    0.000    1.400    4.000    1.800    8.400    1.600 
#    3.600    0.000    0.000    1.200    0.000    0.000 
#    0.000    0.000    0.000    0.000    0.000    0.000 
#
# Total GULP energy -495550.782908 kJ/mol
# GULP energy per Si atom -12388.769573 kJ/mol
# Density = 2.111391 g / cm^3
# Si number density = 21.162080 Si / 1000 Ang^3
#
#
#
# Elastic Constant Matrix: (Units=GPa)
#
#
# Indices 1 2 3 4 5 6 
#
# 1 76.4068 25.6354 27.2761 0.0000 0.0000 0.0000
# 2 25.6354 93.3403 15.5235 0.0000 0.0000 0.0000
# 3 27.2761 15.5235 89.8393 0.0000 0.0000 0.0000
# 4 0.0000 0.0000 0.0000 45.0564 0.0000 0.0000
# 5 0.0000 0.0000 0.0000 0.0000 29.3804 0.0000
# 6 0.0000 0.0000 0.0000 0.0000 0.0000 16.4984
#
#
#
# Elastic Compliance Matrix: (Units=1/GPa)
#
#
# Indices 1 2 3 4 5 6 
#
# 1 0.015799 -0.003646 -0.004167 0.000000 0.000000 0.000000
# 2 -0.003646 0.011872 -0.000944 0.000000 0.000000 0.000000
# 3 -0.004167 -0.000944 0.012559 0.000000 0.000000 0.000000
# 4 0.000000 0.000000 0.000000 0.022194 0.000000 0.000000
# 5 0.000000 0.000000 0.000000 0.000000 0.034036 0.000000
# 6 0.000000 0.000000 0.000000 0.000000 0.000000 0.060612
#
#
# Mechanical properties :
#
#
# Convention : Reuss Voigt Hill
#
# Bulk Modulus (GPa) = 44.02258 44.05068 44.03663
# Shear Modulus (GPa) = 27.44869 30.93047 29.18958
#
# Velocity S-wave (km/s) = 3.60539 3.82723 3.71797
# Velocity P-wave (km/s) = 6.17896 6.35542 6.26781
#
# Compressibility (1/GPa) = 0.02271562
#
# Stress axis : x y z
#
# Youngs Moduli (GPa) = 63.29700 84.23241 79.62300
#
# Poissons Ratio (x) = 0.30711 0.33176
# Poissons Ratio (y) = 0.23078 0.07520
# Poissons Ratio (z) = 0.26373 0.07955
#
# Static dielectric constant tensor:
#      x y z
#    x 3.813930 0.000000 0.000000 
#    y 0.000000 3.690800 0.000000 
#    z 0.000000 0.000000 4.389310 
# 
# 
# High freq. dielectric constant tensor:
#      x y z
#    x 1.779290 0.000000 0.000000 
#    y 0.000000 1.832950 0.000000 
#    z 0.000000 0.000000 1.846370 
# 
# From -- ./inp_files/16209.got.cif
#   From: 2010.03.12/outbox.cif.g09.slc.cpg/sg68_9_cif.got.tgz:16209.got - 2010.04.10 23:14:56.
