data_PCOD8282206
_publ_section_title
;
Structure prediction by ZEFSAII (Michael W. Deem and Ramdas Pophale) SiO2 
 PCOD8282206
Probable space group: C C C A
;
_chemical_formula_sum "Si O2"
_cell_formula_units_Z 104
_cell_length_a 7.853996
_cell_length_b 21.724655
_cell_length_c 29.550644
_cell_angle_alpha 90.000000
_cell_angle_beta 90.000000
_cell_angle_gamma 90.000000
_cell_volume 5042.089078
_symmetry_space_group_name_H-M "C C C A"
_symmetry_group_IT_number 68
_space_group.IT_coordinate_system_code '2'
_symmetry_cell_setting 'orthorhombic'
loop_
_space_group_symop_operation_xyz
x,y,z
-x,1/2-y,z
x,1/2-y,1/2-z
-x,y,1/2-z
-x,-y,-z
x,1/2+y,-z
-x,1/2+y,1/2+z
x,-y,1/2+z
1/2+x,1/2+y,z
1/2-x,-y,z
1/2+x,-y,1/2-z
1/2-x,1/2+y,1/2-z
1/2-x,1/2-y,-z
1/2+x,y,-z
1/2-x,y,1/2+z
1/2+x,1/2-y,1/2+z
loop_
_atom_site_type_symbol
_atom_site_label
_atom_site_fract_x
_atom_site_fract_y
_atom_site_fract_z
Si Si1 0.579591 0.183719 0.054029
Si Si2 0.611408 0.808185 0.370069
Si Si3 0.935127 0.024915 0.452549
Si Si4 0.722464 0.346613 0.538010
Si Si5 0.196124 0.256937 0.700733
Si Si6 0.250000 0.000000 0.886562
Si Si7 0.718258 0.867986 0.139442
O O1 0.500000 0.250000 0.065223
O O2 0.423032 0.135962 0.043749
O O3 0.694341 0.159542 0.094599
O O4 0.697440 0.188129 0.009489
O O5 0.500000 0.750000 0.357966
O O6 0.686394 0.800615 0.420216
O O7 0.756258 0.801332 0.331846
O O8 0.488858 0.867734 0.365645
O O9 0.908142 0.097442 0.458032
O O10 0.081139 0.009439 0.416515
O O11 0.750000 0.000000 0.437564
O O12 0.000000 0.000000 0.500000
O O13 0.286742 0.250000 0.750000
O O14 0.231896 0.325762 0.681808
O O15 0.000000 0.250000 0.708222
O O16 0.274207 0.939393 0.855098
#
# Coordination Sequence:
#
# PCOD8282206 Si02
#       7
#    16  16  16  16  16   8  16
#     4  12  24  37  57  86 125 176 217 276 324 378
#     4  10  20  36  60  89 121 153 204 257 310 380
#     4  12  24  38  58  84 122 181 236 273 309 380
#     4  12  22  37  54  84 124 167 222 265 322 370
#     4  10  22  42  72 100 125 158 203 263 330 401
#     4  12  24  42  62  92 134 174 224 270 324 380
#     4  11  22  40  62  93 128 168 210 262 322 383
#
# _framework density 20.626370000000001
#
# number of rings (size 3 to 8) (size 9 to 14) (size 15 to 20)
#    0.000    0.769    2.308    7.846    0.000    2.769 
#    0.000    0.000    0.000    3.692    0.000    0.000 
#    0.000    0.000    0.000    0.000    0.000    0.000 
#
# Total GULP energy -644382.122456 kJ/mol
# GULP energy per Si atom -12391.963893 kJ/mol
# Density = 2.057942 g / cm^3
# Si number density = 20.626370 Si / 1000 Ang^3
#
#
#
# Elastic Constant Matrix: (Units=GPa)
#
#
# Indices 1 2 3 4 5 6 
#
# 1 103.8110 26.6153 33.2955 0.0000 0.0000 0.0000
# 2 26.6153 123.4026 53.6167 0.0000 0.0000 0.0000
# 3 33.2955 53.6167 140.7614 0.0000 0.0000 0.0000
# 4 0.0000 0.0000 0.0000 17.9507 0.0000 0.0000
# 5 0.0000 0.0000 0.0000 0.0000 23.3257 0.0000
# 6 0.0000 0.0000 0.0000 0.0000 0.0000 30.9190
#
#
#
# Elastic Compliance Matrix: (Units=1/GPa)
#
#
# Indices 1 2 3 4 5 6 
#
# 1 0.010633 -0.001439 -0.001967 0.000000 0.000000 0.000000
# 2 -0.001439 0.009905 -0.003433 0.000000 0.000000 0.000000
# 3 -0.001967 -0.003433 0.008877 0.000000 0.000000 0.000000
# 4 0.000000 0.000000 0.000000 0.055708 0.000000 0.000000
# 5 0.000000 0.000000 0.000000 0.000000 0.042871 0.000000
# 6 0.000000 0.000000 0.000000 0.000000 0.000000 0.032343
#
#
# Mechanical properties :
#
#
# Convention : Reuss Voigt Hill
#
# Bulk Modulus (GPa) = 63.53933 66.11444 64.82688
# Shear Modulus (GPa) = 27.89254 31.40227 29.64741
#
# Velocity S-wave (km/s) = 3.68132 3.90607 3.79536
# Velocity P-wave (km/s) = 6.99580 7.24335 7.12065
#
# Compressibility (1/GPa) = 0.01573828
#
# Stress axis : x y z
#
# Youngs Moduli (GPa) = 94.05031 100.95621 112.65021
#
# Poissons Ratio (x) = 0.14523 0.22159
# Poissons Ratio (y) = 0.13530 0.38669
# Poissons Ratio (z) = 0.18500 0.34655
#
# Static dielectric constant tensor:
#      x y z
#    x 4.579510 0.000000 0.000000 
#    y 0.000000 3.964700 0.000000 
#    z 0.000000 0.000000 3.807770 
# 
# 
# High freq. dielectric constant tensor:
#      x y z
#    x 1.832810 0.000000 0.000000 
#    y 0.000000 1.794740 0.000000 
#    z 0.000000 0.000000 1.780100 
# 
# From -- ./inp_files/49578.got.cif
#   From: 2010.03.12/outbox.cif.g09.slc.cpg/sg68_25_cif.got.tgz:49578.got - 2010.04.10 23:14:56.
