data_PCOD8282573
_publ_section_title
;
Structure prediction by ZEFSAII (Michael W. Deem and Ramdas Pophale) SiO2 
 PCOD8282573
Probable space group: C C C A
;
_chemical_formula_sum "Si O2"
_cell_formula_units_Z 60
_cell_length_a 32.174901
_cell_length_b 10.197633
_cell_length_c 8.742736
_cell_angle_alpha 90.000000
_cell_angle_beta 90.000000
_cell_angle_gamma 90.000000
_cell_volume 2868.560157
_symmetry_space_group_name_H-M "C C C A"
_symmetry_group_IT_number 68
_space_group.IT_coordinate_system_code '2'
_symmetry_cell_setting 'orthorhombic'
loop_
_space_group_symop_operation_xyz
x,y,z
-x,1/2-y,z
x,1/2-y,1/2-z
-x,y,1/2-z
-x,-y,-z
x,1/2+y,-z
-x,1/2+y,1/2+z
x,-y,1/2+z
1/2+x,1/2+y,z
1/2-x,-y,z
1/2+x,-y,1/2-z
1/2-x,1/2+y,1/2-z
1/2-x,1/2-y,-z
1/2+x,y,-z
1/2-x,y,1/2+z
1/2+x,1/2-y,1/2+z
loop_
_atom_site_type_symbol
_atom_site_label
_atom_site_fract_x
_atom_site_fract_y
_atom_site_fract_z
Si Si1 0.750000 0.500000 0.945419
Si Si2 0.424995 0.156618 0.930822
Si Si3 0.803543 0.889703 0.812262
Si Si4 0.892646 0.433573 0.123071
Si Si5 0.500000 0.250000 0.750000
O O1 0.788780 0.536841 0.840303
O O2 0.766712 0.385312 0.060294
O O3 0.409418 0.304638 0.967930
O O4 0.396796 0.088170 0.803474
O O5 0.471841 0.160663 0.862508
O O6 0.419645 0.062074 0.076962
O O7 0.817201 0.750000 0.750000
O O8 0.843240 0.957286 0.895607
#
# Coordination Sequence:
#
# PCOD8282573 Si02
#       5
#     8  16  16  16   4
#     4  10  24  34  58  84 114 158 208 250 314 342
#     4  10  21  38  61  90 117 160 191 249 304 360
#     4  11  20  39  56  82 119 159 201 258 296 365
#     4  10  21  38  61  84 122 158 203 243 305 356
#     4   8  20  40  64  92 128 148 196 252 304 368
#
# _framework density 20.916416000000002
#
# number of rings (size 3 to 8) (size 9 to 14) (size 15 to 20)
#    0.000    2.133    2.667    2.400    0.000    5.333 
#    0.000    0.000    0.000   12.800    0.000    0.000 
#    0.000    0.000    0.000    0.000    0.000    0.000 
#
# Total GULP energy -371646.042805 kJ/mol
# GULP energy per Si atom -12388.201427 kJ/mol
# Density = 2.086881 g / cm^3
# Si number density = 20.916416 Si / 1000 Ang^3
#
#
#
# Elastic Constant Matrix: (Units=GPa)
#
#
# Indices 1 2 3 4 5 6 
#
# 1 138.0066 31.2648 35.0161 0.0000 0.0000 0.0000
# 2 31.2648 64.4830 30.4850 0.0000 0.0000 0.0000
# 3 35.0161 30.4850 69.1812 0.0000 0.0000 0.0000
# 4 0.0000 0.0000 0.0000 26.1174 0.0000 0.0000
# 5 0.0000 0.0000 0.0000 0.0000 28.3743 0.0000
# 6 0.0000 0.0000 0.0000 0.0000 0.0000 20.1782
#
#
#
# Elastic Compliance Matrix: (Units=1/GPa)
#
#
# Indices 1 2 3 4 5 6 
#
# 1 0.008668 -0.002689 -0.003202 0.000000 0.000000 0.000000
# 2 -0.002689 0.020423 -0.007639 0.000000 0.000000 0.000000
# 3 -0.003202 -0.007639 0.019442 0.000000 0.000000 0.000000
# 4 0.000000 0.000000 0.000000 0.038289 0.000000 0.000000
# 5 0.000000 0.000000 0.000000 0.000000 0.035243 0.000000
# 6 0.000000 0.000000 0.000000 0.000000 0.000000 0.049558
#
#
# Mechanical properties :
#
#
# Convention : Reuss Voigt Hill
#
# Bulk Modulus (GPa) = 46.57010 51.68914 49.12962
# Shear Modulus (GPa) = 24.29084 26.59432 25.44258
#
# Velocity S-wave (km/s) = 3.41152 3.56962 3.49147
# Velocity P-wave (km/s) = 6.15071 6.46185 6.30819
#
# Compressibility (1/GPa) = 0.02147301
#
# Stress axis : x y z
#
# Youngs Moduli (GPa) = 115.37147 48.96509 51.43599
#
# Poissons Ratio (x) = 0.13165 0.16472
# Poissons Ratio (y) = 0.31018 0.39290
# Poissons Ratio (z) = 0.36947 0.37402
#
# Static dielectric constant tensor:
#      x y z
#    x 3.779290 0.000000 0.000000 
#    y 0.000000 3.747460 0.000000 
#    z 0.000000 0.000000 3.605570 
# 
# 
# High freq. dielectric constant tensor:
#      x y z
#    x 1.829120 0.000000 0.000000 
#    y 0.000000 1.795890 0.000000 
#    z 0.000000 0.000000 1.809080 
# 
# From -- ./inp_files/9311.got.cif
#   From: 2010.03.12/outbox.cif.g09.slc.cpg/sg68_5_cif.got.tgz:9311.got - 2010.04.10 23:14:56.
