data_PCOD8282807
_publ_section_title
;
Structure prediction by ZEFSAII (Michael W. Deem and Ramdas Pophale) SiO2 
 PCOD8282807
Probable space group: C C C A
;
_chemical_formula_sum "Si O2"
_cell_formula_units_Z 112
_cell_length_a 11.183684
_cell_length_b 26.792738
_cell_length_c 18.198015
_cell_angle_alpha 90.000000
_cell_angle_beta 90.000000
_cell_angle_gamma 90.000000
_cell_volume 5452.880790
_symmetry_space_group_name_H-M "C C C A"
_symmetry_group_IT_number 68
_space_group.IT_coordinate_system_code '2'
_symmetry_cell_setting 'orthorhombic'
loop_
_space_group_symop_operation_xyz
x,y,z
-x,1/2-y,z
x,1/2-y,1/2-z
-x,y,1/2-z
-x,-y,-z
x,1/2+y,-z
-x,1/2+y,1/2+z
x,-y,1/2+z
1/2+x,1/2+y,z
1/2-x,-y,z
1/2+x,-y,1/2-z
1/2-x,1/2+y,1/2-z
1/2-x,1/2-y,-z
1/2+x,y,-z
1/2-x,y,1/2+z
1/2+x,1/2-y,1/2+z
loop_
_atom_site_type_symbol
_atom_site_label
_atom_site_fract_x
_atom_site_fract_y
_atom_site_fract_z
Si Si1 0.269447 0.091106 0.716578
Si Si2 0.185689 0.305213 0.750401
Si Si3 0.987535 0.304928 0.875930
Si Si4 0.545429 0.602186 0.971270
Si Si5 0.521445 0.566136 0.123508
Si Si6 0.749796 0.943061 0.128283
Si Si7 0.638181 0.467483 0.091125
O O1 0.275358 0.150421 0.730577
O O2 0.407120 0.079475 0.697800
O O3 0.214803 0.062075 0.786430
O O4 0.181348 0.071161 0.653055
O O5 0.246168 0.250000 0.750000
O O6 0.135563 0.313863 0.668111
O O7 0.086981 0.309380 0.813534
O O8 0.997178 0.343512 0.943587
O O9 0.000000 0.250000 0.911844
O O10 0.658040 0.586404 0.922485
O O11 0.429483 0.565373 0.969504
O O12 0.582503 0.598540 0.056824
O O13 0.382872 0.580758 0.125660
O O14 0.537021 0.506279 0.117428
O O15 0.750000 0.000000 0.102733
O O16 0.750000 0.500000 0.059298
#
# Coordination Sequence:
#
# PCOD8282807 Si02
#       7
#    16  16  16  16  16  16  16
#     4  11  22  40  62  88 126 164 205 263 309 371
#     4   9  17  33  63  94 115 151 202 267 320 355
#     4   9  18  35  61  97 121 144 207 274 312 351
#     4  12  23  38  66  90 122 170 210 260 316 372
#     4  11  26  39  57  87 134 167 204 251 314 381
#     4  12  25  38  60  88 124 169 210 246 304 379
#     4  10  22  38  59  88 125 162 209 254 310 368
#
# _framework density 20.539601000000001
#
# number of rings (size 3 to 8) (size 9 to 14) (size 15 to 20)
#    0.000    1.429    4.286    3.000    4.000    0.571 
#    0.000    0.000    3.143    3.429    0.000    0.000 
#    0.000    0.000    0.000    0.000    0.000    0.000 
#
# Total GULP energy -693894.655439 kJ/mol
# GULP energy per Si atom -12390.975990 kJ/mol
# Density = 2.049285 g / cm^3
# Si number density = 20.539601 Si / 1000 Ang^3
#
#
#
# Elastic Constant Matrix: (Units=GPa)
#
#
# Indices 1 2 3 4 5 6 
#
# 1 69.2027 9.2332 -4.2732 0.0000 0.0000 0.0000
# 2 9.2332 137.5783 13.0436 0.0000 0.0000 0.0000
# 3 -4.2732 13.0436 43.3144 0.0000 0.0000 0.0000
# 4 0.0000 0.0000 0.0000 23.2552 0.0000 0.0000
# 5 0.0000 0.0000 0.0000 0.0000 24.1009 0.0000
# 6 0.0000 0.0000 0.0000 0.0000 0.0000 20.4294
#
#
#
# Elastic Compliance Matrix: (Units=1/GPa)
#
#
# Indices 1 2 3 4 5 6 
#
# 1 0.014716 -0.001158 0.001801 0.000000 0.000000 0.000000
# 2 -0.001158 0.007573 -0.002395 0.000000 0.000000 0.000000
# 3 0.001801 -0.002395 0.023986 0.000000 0.000000 0.000000
# 4 0.000000 0.000000 0.000000 0.043001 0.000000 0.000000
# 5 0.000000 0.000000 0.000000 0.000000 0.041492 0.000000
# 6 0.000000 0.000000 0.000000 0.000000 0.000000 0.048949
#
#
# Mechanical properties :
#
#
# Convention : Reuss Voigt Hill
#
# Bulk Modulus (GPa) = 23.38083 31.78916 27.58500
# Shear Modulus (GPa) = 25.31905 29.02988 27.17446
#
# Velocity S-wave (km/s) = 3.51478 3.76355 3.64129
# Velocity P-wave (km/s) = 5.28011 5.86484 5.58014
#
# Compressibility (1/GPa) = 0.04277008
#
# Stress axis : x y z
#
# Youngs Moduli (GPa) = 67.95308 132.04136 41.69120
#
# Poissons Ratio (x) = 0.15295 -0.07507
# Poissons Ratio (y) = 0.07871 0.09985
# Poissons Ratio (z) = -0.12236 0.31623
#
# Static dielectric constant tensor:
#      x y z
#    x 3.599620 0.000000 0.000000 
#    y 0.000000 3.885420 0.000000 
#    z 0.000000 0.000000 3.640310 
# 
# 
# High freq. dielectric constant tensor:
#      x y z
#    x 1.788080 0.000000 0.000000 
#    y 0.000000 1.794620 0.000000 
#    z 0.000000 0.000000 1.797150 
# 
# From -- ./inp_files/37942.got.cif
#   From: 2010.03.12/outbox.cif.g09.slc.cpg/sg68_19_cif.got.tgz:37942.got - 2010.04.10 23:14:56.
