data_PCOD8282169
_publ_section_title
;
Structure prediction by ZEFSAII (Michael W. Deem and Ramdas Pophale) SiO2 
 PCOD8282169
Probable space group: C C C A
;
_chemical_formula_sum "Si O2"
_cell_formula_units_Z 96
_cell_length_a 8.553444
_cell_length_b 25.363590
_cell_length_c 24.018663
_cell_angle_alpha 90.000000
_cell_angle_beta 90.000000
_cell_angle_gamma 90.000000
_cell_volume 5210.753985
_symmetry_space_group_name_H-M "C C C A"
_symmetry_group_IT_number 68
_space_group.IT_coordinate_system_code '2'
_symmetry_cell_setting 'orthorhombic'
loop_
_space_group_symop_operation_xyz
x,y,z
-x,1/2-y,z
x,1/2-y,1/2-z
-x,y,1/2-z
-x,-y,-z
x,1/2+y,-z
-x,1/2+y,1/2+z
x,-y,1/2+z
1/2+x,1/2+y,z
1/2-x,-y,z
1/2+x,-y,1/2-z
1/2-x,1/2+y,1/2-z
1/2-x,1/2-y,-z
1/2+x,y,-z
1/2-x,y,1/2+z
1/2+x,1/2-y,1/2+z
loop_
_atom_site_type_symbol
_atom_site_label
_atom_site_fract_x
_atom_site_fract_y
_atom_site_fract_z
Si Si1 0.654886 0.449568 0.480045
Si Si2 0.864077 0.150814 0.036310
Si Si3 0.445686 0.307055 0.068871
Si Si4 0.434805 0.000092 0.189728
Si Si5 0.583611 0.078995 0.903225
Si Si6 0.442872 0.408050 0.385634
O O1 0.750000 0.500000 0.458460
O O2 0.765643 0.398733 0.485848
O O3 0.583517 0.458713 0.541755
O O4 0.510153 0.437574 0.439880
O O5 0.741669 0.194177 0.059229
O O6 0.978650 0.130983 0.085716
O O7 0.964812 0.176500 0.987433
O O8 0.500000 0.250000 0.089380
O O9 0.484766 0.349286 0.117641
O O10 0.500000 0.987114 0.250000
O O11 0.491929 0.954740 0.146965
O O12 0.250000 0.000000 0.191397
O O13 0.493127 0.057481 0.168285
O O14 0.757127 0.097223 0.888278
#
# Coordination Sequence:
#
# PCOD8282169 Si02
#       6
#    16  16  16  16  16  16
#     4  11  19  29  51  80 106 141 171 206 260 330
#     4  11  20  32  49  77 109 144 172 211 257 324
#     4  11  21  34  50  74 108 143 179 219 262 310
#     4  10  23  37  55  77 108 142 175 217 262 317
#     4  11  19  33  53  77 108 140 174 208 267 321
#     4  10  20  36  51  75 109 141 175 218 263 315
#
# _framework density 18.423437
#
# number of rings (size 3 to 8) (size 9 to 14) (size 15 to 20)
#    0.000    1.333    5.000    3.000    0.000    5.333 
#    0.000    0.000    0.000    0.500    0.000    0.000 
#    0.000    4.667    0.000    0.000    0.000    0.000 
#
# Total GULP energy -595077.020773 kJ/mol
# GULP energy per Si atom -12397.437933 kJ/mol
# Density = 1.838150 g / cm^3
# Si number density = 18.423437 Si / 1000 Ang^3
#
#
#
# Elastic Constant Matrix: (Units=GPa)
#
#
# Indices 1 2 3 4 5 6 
#
# 1 75.8325 20.6099 9.6098 0.0000 0.0000 0.0000
# 2 20.6099 86.6757 17.7301 0.0000 0.0000 0.0000
# 3 9.6098 17.7301 83.2565 0.0000 0.0000 0.0000
# 4 0.0000 0.0000 0.0000 13.5286 0.0000 0.0000
# 5 0.0000 0.0000 0.0000 0.0000 23.9365 0.0000
# 6 0.0000 0.0000 0.0000 0.0000 0.0000 38.6947
#
#
#
# Elastic Compliance Matrix: (Units=1/GPa)
#
#
# Indices 1 2 3 4 5 6 
#
# 1 0.014171 -0.003173 -0.000960 0.000000 0.000000 0.000000
# 2 -0.003173 0.012773 -0.002354 0.000000 0.000000 0.000000
# 3 -0.000960 -0.002354 0.012623 0.000000 0.000000 0.000000
# 4 0.000000 0.000000 0.000000 0.073917 0.000000 0.000000
# 5 0.000000 0.000000 0.000000 0.000000 0.041777 0.000000
# 6 0.000000 0.000000 0.000000 0.000000 0.000000 0.025843
#
#
# Mechanical properties :
#
#
# Convention : Reuss Voigt Hill
#
# Bulk Modulus (GPa) = 37.60336 37.96269 37.78303
# Shear Modulus (GPa) = 24.63734 28.41963 26.52848
#
# Velocity S-wave (km/s) = 3.66085 3.93183 3.79876
# Velocity P-wave (km/s) = 6.19064 6.42361 6.30820
#
# Compressibility (1/GPa) = 0.02659337
#
# Stress axis : x y z
#
# Youngs Moduli (GPa) = 70.56643 78.28828 79.21953
#
# Poissons Ratio (x) = 0.24843 0.07604
# Poissons Ratio (y) = 0.22393 0.18647
# Poissons Ratio (z) = 0.06774 0.18428
#
# Static dielectric constant tensor:
#      x y z
#    x 3.701590 0.000000 0.000000 
#    y 0.000000 3.479350 0.000000 
#    z 0.000000 0.000000 -11.425640 
# 
# 
# High freq. dielectric constant tensor:
#      x y z
#    x 1.736120 0.000000 0.000000 
#    y 0.000000 1.699640 0.000000 
#    z 0.000000 0.000000 1.662930 
# 
# From -- ./inp_files/41254.got.cif
#   From: 2010.03.12/outbox.cif.g09.slc.cpg/sg68_21_cif.got.tgz:41254.got - 2010.04.10 23:14:56.
