data_PCOD8283930
_publ_section_title
;
Structure prediction by ZEFSAII (Michael W. Deem and Ramdas Pophale) SiO2 
 PCOD8283930
Probable space group: F M M M
;
_chemical_formula_sum "Si O2"
_cell_formula_units_Z 176
_cell_length_a 28.601716
_cell_length_b 14.375683
_cell_length_c 27.938917
_cell_angle_alpha 90.000000
_cell_angle_beta 90.000000
_cell_angle_gamma 90.000000
_cell_volume 11487.622221
_symmetry_space_group_name_H-M "F M M M"
_symmetry_group_IT_number 69
_symmetry_cell_setting 'orthorhombic'
loop_
_space_group_symop_operation_xyz
x,y,z
-x,-y,z
x,-y,-z
-x,y,-z
-x,-y,-z
x,y,-z
-x,y,z
x,-y,z
x,1/2+y,1/2+z
-x,1/2-y,1/2+z
x,1/2-y,1/2-z
-x,1/2+y,1/2-z
-x,1/2-y,1/2-z
x,1/2+y,1/2-z
-x,1/2+y,1/2+z
x,1/2-y,1/2+z
1/2+x,y,1/2+z
1/2-x,-y,1/2+z
1/2+x,-y,1/2-z
1/2-x,y,1/2-z
1/2-x,-y,1/2-z
1/2+x,y,1/2-z
1/2-x,y,1/2+z
1/2+x,-y,1/2+z
1/2+x,1/2+y,z
1/2-x,1/2-y,z
1/2+x,1/2-y,-z
1/2-x,1/2+y,-z
1/2-x,1/2-y,-z
1/2+x,1/2+y,-z
1/2-x,1/2+y,z
1/2+x,1/2-y,z
loop_
_atom_site_type_symbol
_atom_site_label
_atom_site_fract_x
_atom_site_fract_y
_atom_site_fract_z
Si Si1 0.765320 0.896249 0.556486
Si Si2 0.444492 0.200554 0.201008
Si Si3 0.823470 0.778179 0.056681
Si Si4 0.583547 0.320835 0.113802
Si Si5 0.556651 0.000000 0.333189
Si Si6 0.000000 0.391675 0.443766
Si Si7 0.444844 0.000000 0.774932
O O1 0.765663 0.904248 0.500000
O O2 0.806868 0.825911 0.571698
O O3 0.715773 0.852817 0.572041
O O4 0.772057 0.000000 0.579072
O O5 0.500000 0.212270 0.199679
O O6 0.426146 0.250000 0.250000
O O7 0.424175 0.239051 0.151698
O O8 0.427039 0.093727 0.199763
O O9 0.868598 0.804310 0.086566
O O10 0.833817 0.783425 0.000000
O O11 0.582647 0.413660 0.144180
O O12 0.543977 0.331876 0.073592
O O13 0.572630 0.000000 0.278948
O O14 0.500000 0.000000 0.338813
O O15 0.000000 0.500000 0.424414
O O16 0.000000 0.394583 0.500000
O O17 0.500000 0.000000 0.775135
#
# Coordination Sequence:
#
# PCOD8283930 Si02
#       7
#    32  32  32  32  16  16  16
#     4   8  15  32  53  69  90 119 156 208 254 281
#     4  10  18  30  49  68  93 129 166 206 246 277
#     4   9  19  31  47  74  99 125 162 196 236 291
#     4  12  19  31  46  71 101 134 161 193 237 290
#     4  11  18  30  46  70 103 130 161 199 244 290
#     4  11  22  32  43  65 103 143 169 188 225 289
#     4   9  18  30  48  68  89 122 169 215 250 275
#
# _framework density 15.320838
#
# number of rings (size 3 to 8) (size 9 to 14) (size 15 to 20)
#    0.000    2.091    4.545    1.636    1.273    0.000 
#    1.636    0.000    0.000    0.000    0.000    3.182 
#    0.000    7.273    0.000    0.000    0.000    0.000 
#
# Total GULP energy -545169.745241 kJ/mol
# GULP energy per Si atom -12390.221483 kJ/mol
# Density = 1.528597 g / cm^3
# Si number density = 15.320838 Si / 1000 Ang^3
#
#
#
# Elastic Constant Matrix: (Units=GPa)
#
#
# Indices 1 2 3 4 5 6 
#
# 1 93.6355 54.0014 40.2516 0.0000 0.0000 0.0000
# 2 54.0014 130.4829 41.2740 0.0000 0.0000 0.0000
# 3 40.2516 41.2740 76.1636 0.0000 0.0000 0.0000
# 4 0.0000 0.0000 0.0000 14.4999 0.0000 0.0000
# 5 0.0000 0.0000 0.0000 0.0000 80.6075 0.0000
# 6 0.0000 0.0000 0.0000 0.0000 0.0000 12.3022
#
#
#
# Elastic Compliance Matrix: (Units=1/GPa)
#
#
# Indices 1 2 3 4 5 6 
#
# 1 0.015929 -0.004742 -0.005848 0.000000 0.000000 0.000000
# 2 -0.004742 0.010661 -0.003271 0.000000 0.000000 0.000000
# 3 -0.005848 -0.003271 0.017993 0.000000 0.000000 0.000000
# 4 0.000000 0.000000 0.000000 0.068966 0.000000 0.000000
# 5 0.000000 0.000000 0.000000 0.000000 0.012406 0.000000
# 6 0.000000 0.000000 0.000000 0.000000 0.000000 0.081287
#
#
# Mechanical properties :
#
#
# Convention : Reuss Voigt Hill
#
# Bulk Modulus (GPa) = 59.31367 63.48178 61.39772
# Shear Modulus (GPa) = 20.78271 32.46559 26.62415
#
# Velocity S-wave (km/s) = 3.68706 4.60831 4.17318
# Velocity P-wave (km/s) = 7.54482 8.35704 7.96130
#
# Compressibility (1/GPa) = 0.01685952
#
# Stress axis : x y z
#
# Youngs Moduli (GPa) = 62.77974 93.79790 55.57705
#
# Poissons Ratio (x) = 0.44482 0.32503
# Poissons Ratio (y) = 0.29772 0.18180
# Poissons Ratio (z) = 0.36715 0.30683
#
# Static dielectric constant tensor:
#      x y z
#    x 2.665490 0.000000 0.000000 
#    y 0.000000 3.450880 0.000000 
#    z 0.000000 0.000000 2.828350 
# 
# 
# High freq. dielectric constant tensor:
#      x y z
#    x 1.554930 0.000000 0.000000 
#    y 0.000000 1.601610 0.000000 
#    z 0.000000 0.000000 1.573630 
# 
# From -- ./inp_files/18156.got.cif
#   From: 2010.03.12/outbox.cif.g09.slc.cpg/sg69_10_cif.got.tgz:18156.got - 2010.04.10 23:52:46.
