data_PCOD8283751
_publ_section_title
;
Structure prediction by ZEFSAII (Michael W. Deem and Ramdas Pophale) SiO2 
 PCOD8283751
Probable space group: C C C A
;
_chemical_formula_sum "Si O2"
_cell_formula_units_Z 54
_cell_length_a 24.000000
_cell_length_b 15.000000
_cell_length_c 15.000000
_cell_angle_alpha 90.000000
_cell_angle_beta 90.000000
_cell_angle_gamma 90.000000
_cell_volume 5400.000000
_symmetry_space_group_name_H-M "C C C A"
_symmetry_group_IT_number 68
_space_group.IT_coordinate_system_code '2'
_symmetry_cell_setting 'orthorhombic'
loop_
_space_group_symop_operation_xyz
x,y,z
-x,1/2-y,z
x,1/2-y,1/2-z
-x,y,1/2-z
-x,-y,-z
x,1/2+y,-z
-x,1/2+y,1/2+z
x,-y,1/2+z
1/2+x,1/2+y,z
1/2-x,-y,z
1/2+x,-y,1/2-z
1/2-x,1/2+y,1/2-z
1/2-x,1/2-y,-z
1/2+x,y,-z
1/2-x,y,1/2+z
1/2+x,1/2-y,1/2+z
loop_
_atom_site_type_symbol
_atom_site_label
_atom_site_fract_x
_atom_site_fract_y
_atom_site_fract_z
Si Si1 0.116269 0.284651 0.490325
Si Si2 0.500000 0.750000 0.558805
Si Si3 0.131597 0.505494 0.701609
Si Si4 0.000000 0.750000 0.750000
Si Si5 0.813708 0.808736 0.662202
Si Si6 0.682577 0.319662 0.327057
Si Si7 0.435230 0.593171 0.357269
Si Si8 0.517264 0.942531 0.648004
O O1 0.157240 0.230827 0.425418
O O2 0.146260 0.300363 0.584770
O O3 0.100929 0.378110 0.442828
O O4 0.056568 0.234019 0.502178
O O5 0.508406 0.842233 0.612739
O O6 0.166508 0.588971 0.665257
O O7 0.172102 0.419531 0.711138
O O8 0.106182 0.537390 0.795023
O O9 0.081431 0.473407 0.636820
O O10 0.961794 0.682325 0.690503
O O11 0.830429 0.750000 0.750000
O O12 0.747357 0.807336 0.649047
O O13 0.664446 0.250000 0.250000
O O14 0.481237 0.523418 0.395349
O O15 0.500000 0.939695 0.750000
#
# Coordination Sequence:
#
# PCOD8283751 Si02
#       8
#    16   8  16   4  16  16  16  16
#     4  12  26  43  70 107 143 184 235 289 359 427
#     4  12  26  40  63  99 150 186 225 276 362 429
#     4  11  21  44  72 100 133 181 240 289 351 414
#     4  12  18  40  64 104 142 184 226 276 364 414
#     4  11  24  48  75  99 137 183 240 304 354 408
#     4  11  27  48  72 100 140 192 240 290 356 426
#     4  11  23  37  70 101 140 182 230 293 353 421
#     4  10  23  40  65  97 140 191 228 280 344 429
#
# _framework density 10.0
#
# number of rings (size 3 to 8) (size 9 to 14) (size 15 to 20)
#    0.000    0.889    5.185    2.444    6.222    1.778 
#    0.000    0.000    3.259    0.000    0.000    0.000 
#    0.000    0.000    0.000    0.000    0.000    0.000 
#
# Total GULP energy -669240.457906 kJ/mol
# GULP energy per Si atom -12393.341813 kJ/mol
# Density = 0.997724 g / cm^3
# Si number density = 10.000000 Si / 1000 Ang^3
#
#
#
# Elastic Constant Matrix: (Units=GPa)
#
#
# Indices 1 2 3 4 5 6 
#
# 1 144.9621 60.3698 60.6259 0.0000 0.0000 0.0000
# 2 60.3698 188.3167 59.3070 0.0000 0.0000 0.0000
# 3 60.6259 59.3070 114.2743 0.0000 0.0000 0.0000
# 4 0.0000 0.0000 0.0000 36.6101 0.0000 0.0000
# 5 0.0000 0.0000 0.0000 0.0000 38.0313 0.0000
# 6 0.0000 0.0000 0.0000 0.0000 0.0000 47.8203
#
#
#
# Elastic Compliance Matrix: (Units=1/GPa)
#
#
# Indices 1 2 3 4 5 6 
#
# 1 0.009303 -0.001707 -0.004050 0.000000 0.000000 0.000000
# 2 -0.001707 0.006661 -0.002551 0.000000 0.000000 0.000000
# 3 -0.004050 -0.002551 0.012223 0.000000 0.000000 0.000000
# 4 0.000000 0.000000 0.000000 0.027315 0.000000 0.000000
# 5 0.000000 0.000000 0.000000 0.000000 0.026294 0.000000
# 6 0.000000 0.000000 0.000000 0.000000 0.000000 0.020912
#
#
# Mechanical properties :
#
#
# Convention : Reuss Voigt Hill
#
# Bulk Modulus (GPa) = 86.41947 89.79539 88.10743
# Shear Modulus (GPa) = 40.59084 42.30904 41.44994
#
# Velocity S-wave (km/s) = 4.50993 4.60439 4.55741
# Velocity P-wave (km/s) = 8.39183 8.55935 8.47600
#
# Compressibility (1/GPa) = 0.01157147
#
# Stress axis : x y z
#
# Youngs Moduli (GPa) = 107.49455 150.12975 81.81034
#
# Poissons Ratio (x) = 0.25626 0.33129
# Poissons Ratio (y) = 0.18349 0.20873
# Poissons Ratio (z) = 0.43530 0.38303
#
# Static dielectric constant tensor:
#      x y z
#    x 4.031700 0.000000 0.000000 
#    y 0.000000 4.131580 0.000000 
#    z 0.000000 0.000000 3.707560 
# 
# 
# High freq. dielectric constant tensor:
#      x y z
#    x 1.804970 0.000000 0.000000 
#    y 0.000000 1.813460 0.000000 
#    z 0.000000 0.000000 1.782450 
# 
# From -- ./inp_files/25501.got.cif
#   From: 2010.03.12/outbox.ucp.g09.slc.cvg/sg68_13_cif.got.tgz:25501.got - 2010.05.04 19:52:14.
