data_PCOD8283574
_publ_section_title
;
Structure prediction by ZEFSAII (Michael W. Deem and Ramdas Pophale) SiO2 
 PCOD8283574
Probable space group: C C C A
;
_chemical_formula_sum "Si O2"
_cell_formula_units_Z 64
_cell_length_a 21.508940
_cell_length_b 7.830569
_cell_length_c 15.993382
_cell_angle_alpha 90.000000
_cell_angle_beta 90.000000
_cell_angle_gamma 90.000000
_cell_volume 2693.721169
_symmetry_space_group_name_H-M "C C C A"
_symmetry_group_IT_number 68
_space_group.IT_coordinate_system_code '2'
_symmetry_cell_setting 'orthorhombic'
loop_
_space_group_symop_operation_xyz
x,y,z
-x,1/2-y,z
x,1/2-y,1/2-z
-x,y,1/2-z
-x,-y,-z
x,1/2+y,-z
-x,1/2+y,1/2+z
x,-y,1/2+z
1/2+x,1/2+y,z
1/2-x,-y,z
1/2+x,-y,1/2-z
1/2-x,1/2+y,1/2-z
1/2-x,1/2-y,-z
1/2+x,y,-z
1/2-x,y,1/2+z
1/2+x,1/2-y,1/2+z
loop_
_atom_site_type_symbol
_atom_site_label
_atom_site_fract_x
_atom_site_fract_y
_atom_site_fract_z
Si Si1 0.137413 0.822916 0.581568
Si Si2 0.482279 0.442593 0.843867
Si Si3 0.250000 0.500000 0.343843
Si Si4 0.898360 0.436272 0.902018
Si Si5 0.337760 0.750000 0.750000
O O1 0.208330 0.876759 0.598056
O O2 0.130194 0.626087 0.608080
O O3 0.125241 0.838737 0.483305
O O4 0.091113 0.952618 0.633285
O O5 0.500000 0.250000 0.861494
O O6 0.500000 0.496746 0.750000
O O7 0.525996 0.556044 0.904617
O O8 0.294323 0.397117 0.283834
O O9 0.880990 0.324826 0.822188
#
# Coordination Sequence:
#
# PCOD8283574 Si02
#       5
#    16  16   8  16   8
#     4  11  24  43  68  98 136 176 217 273 332 399
#     4   9  19  39  67  98 131 169 215 269 326 382
#     4  12  26  44  66  96 134 176 222 270 332 398
#     4  11  24  44  69  98 131 172 224 277 335 392
#     4  12  26  44  69  98 131 178 226 278 332 398
#
# _framework density 23.758956000000001
#
# number of rings (size 3 to 8) (size 9 to 14) (size 15 to 20)
#    0.000    1.250    0.000    5.250    0.000    9.000 
#    0.000   10.625    0.000    0.000    0.000    0.000 
#    0.000    0.000    0.000    0.000    0.000    0.000 
#
# Total GULP energy -396810.696358 kJ/mol
# GULP energy per Si atom -12400.334261 kJ/mol
# Density = 2.370488 g / cm^3
# Si number density = 23.758956 Si / 1000 Ang^3
#
#
#
# Elastic Constant Matrix: (Units=GPa)
#
#
# Indices 1 2 3 4 5 6 
#
# 1 94.5929 15.9078 18.7077 0.0000 0.0000 0.0000
# 2 15.9078 79.5594 21.9836 0.0000 0.0000 0.0000
# 3 18.7077 21.9836 132.9076 0.0000 0.0000 0.0000
# 4 0.0000 0.0000 0.0000 31.0042 0.0000 0.0000
# 5 0.0000 0.0000 0.0000 0.0000 26.6744 0.0000
# 6 0.0000 0.0000 0.0000 0.0000 0.0000 -34.9769
#
#
#
# Elastic Compliance Matrix: (Units=1/GPa)
#
#
# Indices 1 2 3 4 5 6 
#
# 1 0.011136 -0.001879 -0.001257 0.000000 0.000000 0.000000
# 2 -0.001879 0.013488 -0.001967 0.000000 0.000000 0.000000
# 3 -0.001257 -0.001967 0.008026 0.000000 0.000000 0.000000
# 4 0.000000 0.000000 0.000000 0.032254 0.000000 0.000000
# 5 0.000000 0.000000 0.000000 0.000000 0.037489 0.000000
# 6 0.000000 0.000000 0.000000 0.000000 0.000000 -0.028590
#
#
# Mechanical properties :
#
#
# Convention : Reuss Voigt Hill
#
# Bulk Modulus (GPa) = 44.55211 46.69534 45.62372
# Shear Modulus (GPa) = 54.65054 21.23771 37.94412
#
# Velocity S-wave (km/s) = 4.80125 2.99303 4.00064
# Velocity P-wave (km/s) = 7.03764 5.62501 6.37060
#
# Compressibility (1/GPa) = 0.02244563
#
# Stress axis : x y z
#
# Youngs Moduli (GPa) = 89.79712 74.13782 124.59237
#
# Poissons Ratio (x) = 0.13934 0.15657
# Poissons Ratio (y) = 0.16877 0.24501
# Poissons Ratio (z) = 0.11284 0.14579
#
# Static dielectric constant tensor:
#      x y z
#    x 4.711940 0.000000 0.000000 
#    y 0.000000 4.301720 0.000000 
#    z 0.000000 0.000000 4.176610 
# 
# 
# High freq. dielectric constant tensor:
#      x y z
#    x 1.951370 0.000000 0.000000 
#    y 0.000000 1.946590 0.000000 
#    z 0.000000 0.000000 1.943090 
# 
# From -- ./inp_files/25034.got.cif
#   From: 2010.03.12/outbox.cif.g09.slc.cpg/sg68_13_cif.got.tgz:25034.got - 2010.04.10 23:14:56.
