data_PCOD8283016
_publ_section_title
;
Structure prediction by ZEFSAII (Michael W. Deem and Ramdas Pophale) SiO2 
 PCOD8283016
Probable space group: C C C A
;
_chemical_formula_sum "Si O2"
_cell_formula_units_Z 80
_cell_length_a 10.355979
_cell_length_b 14.268392
_cell_length_c 23.736699
_cell_angle_alpha 90.000000
_cell_angle_beta 90.000000
_cell_angle_gamma 90.000000
_cell_volume 3507.409840
_symmetry_space_group_name_H-M "C C C A"
_symmetry_group_IT_number 68
_space_group.IT_coordinate_system_code '2'
_symmetry_cell_setting 'orthorhombic'
loop_
_space_group_symop_operation_xyz
x,y,z
-x,1/2-y,z
x,1/2-y,1/2-z
-x,y,1/2-z
-x,-y,-z
x,1/2+y,-z
-x,1/2+y,1/2+z
x,-y,1/2+z
1/2+x,1/2+y,z
1/2-x,-y,z
1/2+x,-y,1/2-z
1/2-x,1/2+y,1/2-z
1/2-x,1/2-y,-z
1/2+x,y,-z
1/2-x,y,1/2+z
1/2+x,1/2-y,1/2+z
loop_
_atom_site_type_symbol
_atom_site_label
_atom_site_fract_x
_atom_site_fract_y
_atom_site_fract_z
Si Si1 0.038122 0.377140 0.419620
Si Si2 0.795829 0.768724 0.388657
Si Si3 0.188826 0.397957 0.167086
Si Si4 0.500000 0.949942 0.250000
Si Si5 0.616655 0.039749 0.353770
Si Si6 0.000000 0.750000 0.019054
O O1 0.152833 0.307186 0.401089
O O2 0.086261 0.485197 0.413157
O O3 0.918119 0.368428 0.378225
O O4 0.992294 0.345410 0.481497
O O5 0.795634 0.682885 0.343664
O O6 0.885411 0.849912 0.362444
O O7 0.868565 0.738091 0.445580
O O8 0.250000 0.500000 0.155972
O O9 0.125894 0.389317 0.230618
O O10 0.514993 0.014915 0.305040
O O11 0.750000 0.000000 0.329550
#
# Coordination Sequence:
#
# PCOD8283016 Si02
#       6
#    16  16  16   8  16   8
#     4  10  22  45  67  97 143 187 238 288 355 436
#     4  11  24  44  69 103 143 183 244 296 352 435
#     4  11  24  45  73 104 140 181 243 299 352 447
#     4  10  22  44  70  96 134 182 222 286 376 414
#     4   9  21  43  66  95 135 177 230 297 346 429
#     4  12  24  40  74 104 144 192 238 298 360 426
#
# _framework density 22.808854
#
# number of rings (size 3 to 8) (size 9 to 14) (size 15 to 20)
#    0.000    1.600    2.000    1.200    5.600    0.800 
#    0.000   28.000    0.000    0.000    0.000    0.000 
#    0.000    0.000    0.000    0.000    0.000    0.000 
#
# Total GULP energy -495526.072892 kJ/mol
# GULP energy per Si atom -12388.151822 kJ/mol
# Density = 2.275694 g / cm^3
# Si number density = 22.808854 Si / 1000 Ang^3
#
#
#
# Elastic Constant Matrix: (Units=GPa)
#
#
# Indices 1 2 3 4 5 6 
#
# 1 80.6563 41.2234 44.0193 0.0000 0.0000 0.0000
# 2 41.2234 186.5255 75.4797 0.0000 0.0000 0.0000
# 3 44.0193 75.4797 134.5992 0.0000 0.0000 0.0000
# 4 0.0000 0.0000 0.0000 19.8406 0.0000 0.0000
# 5 0.0000 0.0000 0.0000 0.0000 50.5603 0.0000
# 6 0.0000 0.0000 0.0000 0.0000 0.0000 32.1698
#
#
#
# Elastic Compliance Matrix: (Units=1/GPa)
#
#
# Indices 1 2 3 4 5 6 
#
# 1 0.015537 -0.001782 -0.004082 0.000000 0.000000 0.000000
# 2 -0.001782 0.007139 -0.003421 0.000000 0.000000 0.000000
# 3 -0.004082 -0.003421 0.010683 0.000000 0.000000 0.000000
# 4 0.000000 0.000000 0.000000 0.050402 0.000000 0.000000
# 5 0.000000 0.000000 0.000000 0.000000 0.019778 0.000000
# 6 0.000000 0.000000 0.000000 0.000000 0.000000 0.031085
#
#
# Mechanical properties :
#
#
# Convention : Reuss Voigt Hill
#
# Bulk Modulus (GPa) = 67.61523 80.35842 73.98683
# Shear Modulus (GPa) = 31.62098 36.58471 34.10284
#
# Velocity S-wave (km/s) = 3.72741 4.00930 3.87092
# Velocity P-wave (km/s) = 6.94503 7.53262 7.24478
#
# Compressibility (1/GPa) = 0.01478957
#
# Stress axis : x y z
#
# Youngs Moduli (GPa) = 64.36337 140.07049 93.60961
#
# Poissons Ratio (x) = 0.24960 0.38210
# Poissons Ratio (y) = 0.11469 0.32021
# Poissons Ratio (z) = 0.26272 0.47914
#
# Static dielectric constant tensor:
#      x y z
#    x 4.427860 0.000000 0.000000 
#    y 0.000000 4.359670 0.000000 
#    z 0.000000 0.000000 3.976010 
# 
# 
# High freq. dielectric constant tensor:
#      x y z
#    x 1.917440 0.000000 0.000000 
#    y 0.000000 1.897830 0.000000 
#    z 0.000000 0.000000 1.875190 
# 
# From -- ./inp_files/44172.got.cif
#   From: 2010.03.12/outbox.cif.g09.slc.cpg/sg68_23_cif.got.tgz:44172.got - 2010.04.10 23:14:56.
