data_PCOD8283810
_publ_section_title
;
Structure prediction by ZEFSAII (Michael W. Deem and Ramdas Pophale) SiO2 
 PCOD8283810
Probable space group: F M M M
;
_chemical_formula_sum "Si O2"
_cell_formula_units_Z 112
_cell_length_a 8.623214
_cell_length_b 30.202880
_cell_length_c 25.135647
_cell_angle_alpha 90.000000
_cell_angle_beta 90.000000
_cell_angle_gamma 90.000000
_cell_volume 6546.476146
_symmetry_space_group_name_H-M "F M M M"
_symmetry_group_IT_number 69
_symmetry_cell_setting 'orthorhombic'
loop_
_space_group_symop_operation_xyz
x,y,z
-x,-y,z
x,-y,-z
-x,y,-z
-x,-y,-z
x,y,-z
-x,y,z
x,-y,z
x,1/2+y,1/2+z
-x,1/2-y,1/2+z
x,1/2-y,1/2-z
-x,1/2+y,1/2-z
-x,1/2-y,1/2-z
x,1/2+y,1/2-z
-x,1/2+y,1/2+z
x,1/2-y,1/2+z
1/2+x,y,1/2+z
1/2-x,-y,1/2+z
1/2+x,-y,1/2-z
1/2-x,y,1/2-z
1/2-x,-y,1/2-z
1/2+x,y,1/2-z
1/2-x,y,1/2+z
1/2+x,-y,1/2+z
1/2+x,1/2+y,z
1/2-x,1/2-y,z
1/2+x,1/2-y,-z
1/2-x,1/2+y,-z
1/2-x,1/2-y,-z
1/2+x,1/2+y,-z
1/2-x,1/2+y,z
1/2+x,1/2-y,z
loop_
_atom_site_type_symbol
_atom_site_label
_atom_site_fract_x
_atom_site_fract_y
_atom_site_fract_z
Si Si1 0.678781 0.052151 0.390685
Si Si2 0.683633 0.705797 0.190747
Si Si3 0.317931 0.616168 0.691831
Si Si4 0.325362 0.552587 0.500000
O O1 0.500000 0.065048 0.383498
O O2 0.780060 0.074496 0.344899
O O3 0.735776 0.069829 0.447938
O O4 0.705625 0.000000 0.385576
O O5 0.500000 0.707420 0.190689
O O6 0.750000 0.705113 0.250000
O O7 0.750000 0.750000 0.161463
O O8 0.743763 0.660228 0.164309
O O9 0.500000 0.622910 0.697101
O O10 0.250000 0.606796 0.750000
O O11 0.327193 0.500000 0.500000
O O12 0.500000 0.571548 0.500000
#
# Coordination Sequence:
#
# PCOD8283810 Si02
#       4
#    32  32  32  16
#     4  10  20  34  51  71  96 127 162 200 241 284
#     4  10  17  28  45  66  92 122 157 195 236 280
#     4  11  21  33  48  69  98 130 163 198 239 288
#     4   9  17  31  51  73  94 119 156 201 243 281
#
# _framework density 17.108440000000002
#
# number of rings (size 3 to 8) (size 9 to 14) (size 15 to 20)
#    0.000    1.857    0.000    9.000    0.000    4.000 
#    0.000    0.000    0.000    0.000    0.000    1.000 
#    0.000    0.000    0.000    0.000    0.000    0.000 
#
# Total GULP energy -347152.601886 kJ/mol
# GULP energy per Si atom -12398.307210 kJ/mol
# Density = 1.706950 g / cm^3
# Si number density = 17.108440 Si / 1000 Ang^3
#
#
#
# Elastic Constant Matrix: (Units=GPa)
#
#
# Indices 1 2 3 4 5 6 
#
# 1 157.0022 43.0364 35.4082 0.0000 0.0000 0.0000
# 2 43.0364 68.1789 39.0090 0.0000 0.0000 0.0000
# 3 35.4082 39.0090 78.1733 0.0000 0.0000 0.0000
# 4 0.0000 0.0000 0.0000 1.5125 0.0000 0.0000
# 5 0.0000 0.0000 0.0000 0.0000 26.9877 0.0000
# 6 0.0000 0.0000 0.0000 0.0000 0.0000 30.2376
#
#
#
# Elastic Compliance Matrix: (Units=1/GPa)
#
#
# Indices 1 2 3 4 5 6 
#
# 1 0.007828 -0.004076 -0.001511 0.000000 0.000000 0.000000
# 2 -0.004076 0.022651 -0.009457 0.000000 0.000000 0.000000
# 3 -0.001511 -0.009457 0.018196 0.000000 0.000000 0.000000
# 4 0.000000 0.000000 0.000000 0.661154 0.000000 0.000000
# 5 0.000000 0.000000 0.000000 0.000000 0.037054 0.000000
# 6 0.000000 0.000000 0.000000 0.000000 0.000000 0.033071
#
#
# Mechanical properties :
#
#
# Convention : Reuss Voigt Hill
#
# Bulk Modulus (GPa) = 53.80518 59.80686 56.80602
# Shear Modulus (GPa) = 6.12567 24.14096 15.13332
#
# Velocity S-wave (km/s) = 1.89427 3.76048 2.97737
# Velocity P-wave (km/s) = 6.02512 7.34087 6.71530
#
# Compressibility (1/GPa) = 0.01858557
#
# Stress axis : x y z
#
# Youngs Moduli (GPa) = 127.75404 44.14814 54.95832
#
# Poissons Ratio (x) = 0.17996 0.08306
# Poissons Ratio (y) = 0.52075 0.51972
# Poissons Ratio (z) = 0.19309 0.41750
#
# Static dielectric constant tensor:
#      x y z
#    x 3.371170 0.000000 0.000000 
#    y 0.000000 3.796780 0.000000 
#    z 0.000000 0.000000 2.925050 
# 
# 
# High freq. dielectric constant tensor:
#      x y z
#    x 1.686220 0.000000 0.000000 
#    y 0.000000 1.656000 0.000000 
#    z 0.000000 0.000000 1.616890 
# 
# From -- ./inp_files/3723.got.cif
#   From: 2010.03.12/outbox.cif.g09.slc.cpg/sg69_2_cif.got.tgz:3723.got - 2010.04.10 23:52:46.
