data_PCOD8283710
_publ_section_title
;
Structure prediction by ZEFSAII (Michael W. Deem and Ramdas Pophale) SiO2 
 PCOD8283710
Probable space group: C C C A
;
_chemical_formula_sum "Si O2"
_cell_formula_units_Z 64
_cell_length_a 26.488175
_cell_length_b 21.549948
_cell_length_c 4.849755
_cell_angle_alpha 90.000000
_cell_angle_beta 90.000000
_cell_angle_gamma 90.000000
_cell_volume 2768.331300
_symmetry_space_group_name_H-M "C C C A"
_symmetry_group_IT_number 68
_space_group.IT_coordinate_system_code '2'
_symmetry_cell_setting 'orthorhombic'
loop_
_space_group_symop_operation_xyz
x,y,z
-x,1/2-y,z
x,1/2-y,1/2-z
-x,y,1/2-z
-x,-y,-z
x,1/2+y,-z
-x,1/2+y,1/2+z
x,-y,1/2+z
1/2+x,1/2+y,z
1/2-x,-y,z
1/2+x,-y,1/2-z
1/2-x,1/2+y,1/2-z
1/2-x,1/2-y,-z
1/2+x,y,-z
1/2-x,y,1/2+z
1/2+x,1/2-y,1/2+z
loop_
_atom_site_type_symbol
_atom_site_label
_atom_site_fract_x
_atom_site_fract_y
_atom_site_fract_z
Si Si1 0.966324 0.366776 0.990613
Si Si2 0.121943 0.458238 0.337250
Si Si3 0.590604 0.250000 0.250000
Si Si4 0.715705 0.628280 0.081117
Si Si5 0.341692 0.250000 0.750000
O O1 0.943456 0.304960 0.861613
O O2 0.000000 0.399050 0.750000
O O3 0.923148 0.412376 0.091444
O O4 0.000000 0.347318 0.250000
O O5 0.117808 0.519955 0.522403
O O6 0.175416 0.425418 0.373833
O O7 0.624406 0.223215 0.500602
O O8 0.765023 0.621040 0.270186
O O9 0.692203 0.695637 0.128057
#
# Coordination Sequence:
#
# PCOD8283710 Si02
#       5
#    16  16   8  16   8
#     4  12  27  48  75 110 145 191 241 299 367 432
#     4  12  28  49  74 103 146 194 248 299 351 424
#     4  12  25  45  78 105 152 189 230 301 373 434
#     4  12  26  46  75 108 144 188 239 300 366 430
#     4  12  24  45  77 107 150 191 233 297 376 438
#
# _framework density 23.118621999999998
#
# number of rings (size 3 to 8) (size 9 to 14) (size 15 to 20)
#    0.000    0.000    2.500    7.125    3.500    7.000 
#    0.000    0.000    0.000    0.000    0.000    0.000 
#    0.000    0.000    0.000    0.000    0.000    0.000 
#
# Total GULP energy -397073.623750 kJ/mol
# GULP energy per Si atom -12408.550742 kJ/mol
# Density = 2.306600 g / cm^3
# Si number density = 23.118622 Si / 1000 Ang^3
#
#
#
# Elastic Constant Matrix: (Units=GPa)
#
#
# Indices 1 2 3 4 5 6 
#
# 1 131.7146 49.8945 39.9993 0.0000 0.0000 0.0000
# 2 49.8945 108.6038 16.1719 0.0000 0.0000 0.0000
# 3 39.9993 16.1719 110.8252 0.0000 0.0000 0.0000
# 4 0.0000 0.0000 0.0000 40.1327 0.0000 0.0000
# 5 0.0000 0.0000 0.0000 0.0000 49.5489 0.0000
# 6 0.0000 0.0000 0.0000 0.0000 0.0000 44.2318
#
#
#
# Elastic Compliance Matrix: (Units=1/GPa)
#
#
# Indices 1 2 3 4 5 6 
#
# 1 0.010100 -0.004188 -0.003034 0.000000 0.000000 0.000000
# 2 -0.004188 0.011149 -0.000115 0.000000 0.000000 0.000000
# 3 -0.003034 -0.000115 0.010135 0.000000 0.000000 0.000000
# 4 0.000000 0.000000 0.000000 0.024917 0.000000 0.000000
# 5 0.000000 0.000000 0.000000 0.000000 0.020182 0.000000
# 6 0.000000 0.000000 0.000000 0.000000 0.000000 0.022608
#
#
# Mechanical properties :
#
#
# Convention : Reuss Voigt Hill
#
# Bulk Modulus (GPa) = 59.84855 62.58612 61.21734
# Shear Modulus (GPa) = 41.89801 43.12120 42.50961
#
# Velocity S-wave (km/s) = 4.26174 4.32350 4.29273
# Velocity P-wave (km/s) = 7.08240 7.21485 7.14893
#
# Compressibility (1/GPa) = 0.01670884
#
# Stress axis : x y z
#
# Youngs Moduli (GPa) = 99.00792 89.69280 98.66659
#
# Poissons Ratio (x) = 0.37567 0.29937
# Poissons Ratio (y) = 0.41468 0.01137
# Poissons Ratio (z) = 0.30041 0.01034
#
# Static dielectric constant tensor:
#      x y z
#    x 4.498810 0.000000 0.000000 
#    y 0.000000 4.073190 0.000000 
#    z 0.000000 0.000000 4.664870 
# 
# 
# High freq. dielectric constant tensor:
#      x y z
#    x 1.936470 0.000000 0.000000 
#    y 0.000000 1.908200 0.000000 
#    z 0.000000 0.000000 1.938710 
# 
# From -- ./inp_files/1865.got.cif
#   From: 2010.03.12/outbox.cif.g09.slc.cpg/sg68_1_cif.got.tgz:1865.got - 2010.04.10 23:14:56.
