data_PCOD8283219
_publ_section_title
;
Structure prediction by ZEFSAII (Michael W. Deem and Ramdas Pophale) SiO2 
 PCOD8283219
Probable space group: C C C A
;
_chemical_formula_sum "Si O2"
_cell_formula_units_Z 80
_cell_length_a 22.270320
_cell_length_b 18.988153
_cell_length_c 8.731636
_cell_angle_alpha 90.000000
_cell_angle_beta 90.000000
_cell_angle_gamma 90.000000
_cell_volume 3692.366505
_symmetry_space_group_name_H-M "C C C A"
_symmetry_group_IT_number 68
_space_group.IT_coordinate_system_code '2'
_symmetry_cell_setting 'orthorhombic'
loop_
_space_group_symop_operation_xyz
x,y,z
-x,1/2-y,z
x,1/2-y,1/2-z
-x,y,1/2-z
-x,-y,-z
x,1/2+y,-z
-x,1/2+y,1/2+z
x,-y,1/2+z
1/2+x,1/2+y,z
1/2-x,-y,z
1/2+x,-y,1/2-z
1/2-x,1/2+y,1/2-z
1/2-x,1/2-y,-z
1/2+x,y,-z
1/2-x,y,1/2+z
1/2+x,1/2-y,1/2+z
loop_
_atom_site_type_symbol
_atom_site_label
_atom_site_fract_x
_atom_site_fract_y
_atom_site_fract_z
Si Si1 0.932564 0.075456 0.796580
Si Si2 0.000000 0.372701 0.250000
Si Si3 0.828605 0.312479 0.021301
Si Si4 0.559916 0.290746 0.999313
Si Si5 0.403789 0.060530 0.542592
Si Si6 0.734971 0.250000 0.250000
O O1 0.926159 0.152579 0.868839
O O2 0.898351 0.071871 0.637879
O O3 0.000000 0.053942 0.750000
O O4 0.898571 0.021159 0.911421
O O5 0.949842 0.326526 0.334109
O O6 0.967711 0.417145 0.116629
O O7 0.848511 0.388984 0.088437
O O8 0.775046 0.293123 0.132839
O O9 0.885651 0.261265 0.028243
O O10 0.805082 0.306533 0.845659
O O11 0.500000 0.250000 0.051941
#
# Coordination Sequence:
#
# PCOD8283219 Si02
#       6
#    16   8  16  16  16   8
#     4  12  23  40  58  97 145 182 206 256 329 417
#     4  12  21  38  58  96 137 172 210 256 317 396
#     4  11  23  44  69  97 126 173 222 280 330 392
#     4  12  24  39  67 103 140 171 216 266 335 405
#     4  12  24  39  65  90 136 177 217 260 326 397
#     4  10  24  44  70  94 128 168 230 284 332 384
#
# _framework density 21.666322999999998
#
# number of rings (size 3 to 8) (size 9 to 14) (size 15 to 20)
#    0.000    0.400    5.000    4.500    0.000    2.000 
#    0.000    0.000    0.000   20.400    0.000    0.000 
#    0.000    0.000    0.000    0.000    0.000    0.000 
#
# Total GULP energy -495772.032080 kJ/mol
# GULP energy per Si atom -12394.300802 kJ/mol
# Density = 2.161701 g / cm^3
# Si number density = 21.666323 Si / 1000 Ang^3
#
#
#
# Elastic Constant Matrix: (Units=GPa)
#
#
# Indices 1 2 3 4 5 6 
#
# 1 72.4454 20.4371 7.9010 0.0000 0.0000 0.0000
# 2 20.4371 112.3406 23.5175 0.0000 0.0000 0.0000
# 3 7.9010 23.5175 105.9381 0.0000 0.0000 0.0000
# 4 0.0000 0.0000 0.0000 25.3127 0.0000 0.0000
# 5 0.0000 0.0000 0.0000 0.0000 33.5339 0.0000
# 6 0.0000 0.0000 0.0000 0.0000 0.0000 17.4135
#
#
#
# Elastic Compliance Matrix: (Units=1/GPa)
#
#
# Indices 1 2 3 4 5 6 
#
# 1 0.014578 -0.002543 -0.000523 0.000000 0.000000 0.000000
# 2 -0.002543 0.009779 -0.001981 0.000000 0.000000 0.000000
# 3 -0.000523 -0.001981 0.009918 0.000000 0.000000 0.000000
# 4 0.000000 0.000000 0.000000 0.039506 0.000000 0.000000
# 5 0.000000 0.000000 0.000000 0.000000 0.029821 0.000000
# 6 0.000000 0.000000 0.000000 0.000000 0.000000 0.057427
#
#
# Mechanical properties :
#
#
# Convention : Reuss Voigt Hill
#
# Bulk Modulus (GPa) = 41.35352 43.82615 42.58984
# Shear Modulus (GPa) = 27.90463 31.17659 29.54061
#
# Velocity S-wave (km/s) = 3.59266 3.79745 3.69648
# Velocity P-wave (km/s) = 6.02807 6.28484 6.15779
#
# Compressibility (1/GPa) = 0.02418174
#
# Stress axis : x y z
#
# Youngs Moduli (GPa) = 68.59753 102.26213 100.82400
#
# Poissons Ratio (x) = 0.26001 0.05271
# Poissons Ratio (y) = 0.17441 0.19975
# Poissons Ratio (z) = 0.03586 0.20260
#
# Static dielectric constant tensor:
#      x y z
#    x 3.944730 0.000000 0.000000 
#    y 0.000000 4.209960 0.000000 
#    z 0.000000 0.000000 4.311050 
# 
# 
# High freq. dielectric constant tensor:
#      x y z
#    x 1.823910 0.000000 0.000000 
#    y 0.000000 1.849260 0.000000 
#    z 0.000000 0.000000 1.874220 
# 
# From -- ./inp_files/8809.got.cif
#   From: 2010.03.12/outbox.cif.g09.slc.cpg/sg68_5_cif.got.tgz:8809.got - 2010.04.10 23:14:56.
