data_PCOD8283010
_publ_section_title
;
Structure prediction by ZEFSAII (Michael W. Deem and Ramdas Pophale) SiO2 
 PCOD8283010
Probable space group: C C C A
;
_chemical_formula_sum "Si O2"
_cell_formula_units_Z 92
_cell_length_a 8.081360
_cell_length_b 21.017599
_cell_length_c 25.357276
_cell_angle_alpha 90.000000
_cell_angle_beta 90.000000
_cell_angle_gamma 90.000000
_cell_volume 4306.953205
_symmetry_space_group_name_H-M "C C C A"
_symmetry_group_IT_number 68
_space_group.IT_coordinate_system_code '2'
_symmetry_cell_setting 'orthorhombic'
loop_
_space_group_symop_operation_xyz
x,y,z
-x,1/2-y,z
x,1/2-y,1/2-z
-x,y,1/2-z
-x,-y,-z
x,1/2+y,-z
-x,1/2+y,1/2+z
x,-y,1/2+z
1/2+x,1/2+y,z
1/2-x,-y,z
1/2+x,-y,1/2-z
1/2-x,1/2+y,1/2-z
1/2-x,1/2-y,-z
1/2+x,y,-z
1/2-x,y,1/2+z
1/2+x,1/2-y,1/2+z
loop_
_atom_site_type_symbol
_atom_site_label
_atom_site_fract_x
_atom_site_fract_y
_atom_site_fract_z
Si Si1 0.378365 0.052566 0.203370
Si Si2 0.708297 0.679580 0.164360
Si Si3 0.559029 0.010902 0.100313
Si Si4 0.000000 0.250000 0.250000
Si Si5 0.988126 0.125692 0.432058
Si Si6 0.370313 0.636722 0.545708
Si Si7 0.000000 0.250000 0.886898
O O1 0.500000 0.073068 0.250000
O O2 0.291458 0.114631 0.181585
O O3 0.479671 0.021712 0.156448
O O4 0.250000 0.000000 0.224909
O O5 0.609935 0.704504 0.214308
O O6 0.582432 0.666336 0.116377
O O7 0.843033 0.733067 0.149338
O O8 0.540435 0.070324 0.060765
O O9 0.750000 0.000000 0.111309
O O10 0.467018 0.950130 0.075233
O O11 0.885106 0.146763 0.483240
O O12 0.180394 0.141860 0.437855
O O13 0.469645 0.690108 0.576214
#
# Coordination Sequence:
#
# PCOD8283010 Si02
#       7
#    16  16  16   4  16  16   8
#     4  12  26  44  74 104 139 177 233 294 356 406
#     4  12  28  48  72 100 140 184 239 292 345 417
#     4  10  22  44  68 105 143 177 226 286 347 416
#     4  12  32  48  72  96 140 196 236 294 350 406
#     4  11  24  45  71 104 142 181 231 292 349 414
#     4  11  24  41  73 105 144 188 226 278 352 420
#     4  12  26  46  70 102 140 184 236 286 338 432
#
# _framework density 21.360807000000001
#
# number of rings (size 3 to 8) (size 9 to 14) (size 15 to 20)
#    0.000    0.696    3.478    3.130    3.652    6.261 
#    0.000    0.000    0.000    0.000    0.000    0.000 
#    0.000    0.000    0.000    0.000    0.000    0.000 
#
# Total GULP energy -570713.697699 kJ/mol
# GULP energy per Si atom -12406.819515 kJ/mol
# Density = 2.131219 g / cm^3
# Si number density = 21.360807 Si / 1000 Ang^3
#
#
#
# Elastic Constant Matrix: (Units=GPa)
#
#
# Indices 1 2 3 4 5 6 
#
# 1 72.1838 38.4464 58.6883 0.0000 0.0000 0.0000
# 2 38.4464 91.2623 35.1163 0.0000 0.0000 0.0000
# 3 58.6883 35.1163 145.6004 0.0000 0.0000 0.0000
# 4 0.0000 0.0000 0.0000 1.2590 0.0000 0.0000
# 5 0.0000 0.0000 0.0000 0.0000 71.2682 0.0000
# 6 0.0000 0.0000 0.0000 0.0000 0.0000 26.7222
#
#
#
# Elastic Compliance Matrix: (Units=1/GPa)
#
#
# Indices 1 2 3 4 5 6 
#
# 1 0.024154 -0.007087 -0.008027 0.000000 0.000000 0.000000
# 2 -0.007087 0.014158 -0.000558 0.000000 0.000000 0.000000
# 3 -0.008027 -0.000558 0.010238 0.000000 0.000000 0.000000
# 4 0.000000 0.000000 0.000000 0.794303 0.000000 0.000000
# 5 0.000000 0.000000 0.000000 0.000000 0.014032 0.000000
# 6 0.000000 0.000000 0.000000 0.000000 0.000000 0.037422
#
#
# Mechanical properties :
#
#
# Convention : Reuss Voigt Hill
#
# Bulk Modulus (GPa) = 58.11737 63.72760 60.92248
# Shear Modulus (GPa) = 5.36835 31.63623 18.50229
#
# Velocity S-wave (km/s) = 1.58702 3.85260 2.94629
# Velocity P-wave (km/s) = 5.53396 7.04902 6.33693
#
# Compressibility (1/GPa) = 0.01720656
#
# Stress axis : x y z
#
# Youngs Moduli (GPa) = 41.40047 70.63292 97.67417
#
# Poissons Ratio (x) = 0.50058 0.78401
# Poissons Ratio (y) = 0.29341 0.05450
# Poissons Ratio (z) = 0.33231 0.03941
#
# Static dielectric constant tensor:
#      x y z
#    x 3.901050 0.000000 0.000000 
#    y 0.000000 3.995300 0.000000 
#    z 0.000000 0.000000 3.932190 
# 
# 
# High freq. dielectric constant tensor:
#      x y z
#    x 1.852150 0.000000 0.000000 
#    y 0.000000 1.850230 0.000000 
#    z 0.000000 0.000000 1.846950 
# 
# From -- ./inp_files/43167.got.cif
#   From: 2010.03.12/outbox.cif.g09.slc.cpg/sg68_22_cif.got.tgz:43167.got - 2010.04.10 23:14:56.
