data_PCOD8283252
_publ_section_title
;
Structure prediction by ZEFSAII (Michael W. Deem and Ramdas Pophale) SiO2 
 PCOD8283252
Probable space group: C C C A
;
_chemical_formula_sum "Si O2"
_cell_formula_units_Z 72
_cell_length_a 8.797084
_cell_length_b 14.854119
_cell_length_c 25.131186
_cell_angle_alpha 90.000000
_cell_angle_beta 90.000000
_cell_angle_gamma 90.000000
_cell_volume 3283.965774
_symmetry_space_group_name_H-M "C C C A"
_symmetry_group_IT_number 68
_space_group.IT_coordinate_system_code '2'
_symmetry_cell_setting 'orthorhombic'
loop_
_space_group_symop_operation_xyz
x,y,z
-x,1/2-y,z
x,1/2-y,1/2-z
-x,y,1/2-z
-x,-y,-z
x,1/2+y,-z
-x,1/2+y,1/2+z
x,-y,1/2+z
1/2+x,1/2+y,z
1/2-x,-y,z
1/2+x,-y,1/2-z
1/2-x,1/2+y,1/2-z
1/2-x,1/2-y,-z
1/2+x,y,-z
1/2-x,y,1/2+z
1/2+x,1/2-y,1/2+z
loop_
_atom_site_type_symbol
_atom_site_label
_atom_site_fract_x
_atom_site_fract_y
_atom_site_fract_z
Si Si1 0.688271 0.905807 0.130145
Si Si2 0.500000 0.250000 0.493753
Si Si3 0.828794 0.855078 0.239780
Si Si4 0.161236 0.414536 0.339540
Si Si5 0.231039 0.221744 0.074660
O O1 0.792910 0.878259 0.179436
O O2 0.517871 0.919665 0.151618
O O3 0.705593 0.828979 0.084999
O O4 0.750000 0.000000 0.106172
O O5 0.388927 0.303600 0.454025
O O6 0.398682 0.187544 0.533218
O O7 0.816201 0.750000 0.250000
O O8 0.706715 0.904796 0.277697
O O9 0.000000 0.890479 0.250000
O O10 0.250000 0.500000 0.363902
O O11 0.224581 0.326837 0.369263
#
# Coordination Sequence:
#
# PCOD8283252 Si02
#       5
#    16   8  16  16  16
#     4  12  25  43  68 101 137 177 219 269 328 397
#     4  10  24  46  74  96 128 174 224 286 332 388
#     4  11  24  41  68 102 136 178 218 265 325 393
#     4  12  25  43  68 101 137 177 219 269 328 397
#     4  11  24  47  72  96 133 175 223 274 340 387
#
# _framework density 21.924710999999999
#
# number of rings (size 3 to 8) (size 9 to 14) (size 15 to 20)
#    0.000    0.667    4.444    2.667    6.222    0.889 
#    0.000    6.667    0.000    0.000    0.000    0.000 
#    0.000    0.000    0.000    0.000    0.000    0.000 
#
# Total GULP energy -446280.502686 kJ/mol
# GULP energy per Si atom -12396.680630 kJ/mol
# Density = 2.187481 g / cm^3
# Si number density = 21.924711 Si / 1000 Ang^3
#
#
#
# Elastic Constant Matrix: (Units=GPa)
#
#
# Indices 1 2 3 4 5 6 
#
# 1 148.6996 26.2070 35.2299 0.0000 0.0000 0.0000
# 2 26.2070 110.3645 14.5369 0.0000 0.0000 0.0000
# 3 35.2299 14.5369 80.3633 0.0000 0.0000 0.0000
# 4 0.0000 0.0000 0.0000 5.7783 0.0000 0.0000
# 5 0.0000 0.0000 0.0000 0.0000 30.4623 0.0000
# 6 0.0000 0.0000 0.0000 0.0000 0.0000 25.2940
#
#
#
# Elastic Compliance Matrix: (Units=1/GPa)
#
#
# Indices 1 2 3 4 5 6 
#
# 1 0.007716 -0.001420 -0.003126 0.000000 0.000000 0.000000
# 2 -0.001420 0.009544 -0.001104 0.000000 0.000000 0.000000
# 3 -0.003126 -0.001104 0.014013 0.000000 0.000000 0.000000
# 4 0.000000 0.000000 0.000000 0.173061 0.000000 0.000000
# 5 0.000000 0.000000 0.000000 0.000000 0.032827 0.000000
# 6 0.000000 0.000000 0.000000 0.000000 0.000000 0.039535
#
#
# Mechanical properties :
#
#
# Convention : Reuss Voigt Hill
#
# Bulk Modulus (GPa) = 50.06660 54.59722 52.33191
# Shear Modulus (GPa) = 16.96909 29.87051 23.41980
#
# Velocity S-wave (km/s) = 2.78505 3.69509 3.27187
# Velocity P-wave (km/s) = 5.76431 6.56971 6.18015
#
# Compressibility (1/GPa) = 0.01997340
#
# Stress axis : x y z
#
# Youngs Moduli (GPa) = 129.60387 104.78276 71.36081
#
# Poissons Ratio (x) = 0.14884 0.22304
# Poissons Ratio (y) = 0.18410 0.07875
# Poissons Ratio (z) = 0.40508 0.11564
#
# Static dielectric constant tensor:
#      x y z
#    x 4.233900 0.000000 0.000000 
#    y 0.000000 3.950280 0.000000 
#    z 0.000000 0.000000 3.888760 
# 
# 
# High freq. dielectric constant tensor:
#      x y z
#    x 1.884950 0.000000 0.000000 
#    y 0.000000 1.840520 0.000000 
#    z 0.000000 0.000000 1.863840 
# 
# From -- ./inp_files/5183.got.cif
#   From: 2010.03.12/outbox.cif.g09.slc.cpg/sg68_3_cif.got.tgz:5183.got - 2010.04.10 23:14:56.
