data_PCOD8283546
_publ_section_title
;
Structure prediction by ZEFSAII (Michael W. Deem and Ramdas Pophale) SiO2 
 PCOD8283546
Probable space group: C C C A
;
_chemical_formula_sum "Si O2"
_cell_formula_units_Z 80
_cell_length_a 12.708668
_cell_length_b 13.623525
_cell_length_c 21.675857
_cell_angle_alpha 90.000000
_cell_angle_beta 90.000000
_cell_angle_gamma 90.000000
_cell_volume 3752.889737
_symmetry_space_group_name_H-M "C C C A"
_symmetry_group_IT_number 68
_space_group.IT_coordinate_system_code '2'
_symmetry_cell_setting 'orthorhombic'
loop_
_space_group_symop_operation_xyz
x,y,z
-x,1/2-y,z
x,1/2-y,1/2-z
-x,y,1/2-z
-x,-y,-z
x,1/2+y,-z
-x,1/2+y,1/2+z
x,-y,1/2+z
1/2+x,1/2+y,z
1/2-x,-y,z
1/2+x,-y,1/2-z
1/2-x,1/2+y,1/2-z
1/2-x,1/2-y,-z
1/2+x,y,-z
1/2-x,y,1/2+z
1/2+x,1/2-y,1/2+z
loop_
_atom_site_type_symbol
_atom_site_label
_atom_site_fract_x
_atom_site_fract_y
_atom_site_fract_z
Si Si1 0.283356 0.863660 0.263923
Si Si2 0.250000 0.000000 0.372386
Si Si3 0.500000 0.466413 0.750000
Si Si4 0.619353 0.905861 0.836766
Si Si5 0.591957 0.437022 0.468761
Si Si6 0.000000 0.750000 0.401590
Si Si7 0.250000 0.000000 0.559851
O O1 0.271169 0.750000 0.250000
O O2 0.246011 0.900478 0.331054
O O3 0.402996 0.894239 0.257038
O O4 0.209827 0.916152 0.213913
O O5 0.143113 0.999082 0.412552
O O6 0.482087 0.534858 0.810491
O O7 0.585482 0.795761 0.854475
O O8 0.659462 0.949726 0.900611
O O9 0.500000 0.500000 0.500000
O O10 0.550752 0.332106 0.445696
O O11 0.687119 0.420452 0.517906
#
# Coordination Sequence:
#
# PCOD8283546 Si02
#       7
#    16   8   8  16  16   8   8
#     4  12  25  43  69 108 143 181 228 281 358 424
#     4  11  23  48  70  98 145 183 224 294 342 409
#     4  12  23  43  68 100 146 184 217 281 360 412
#     4  12  25  44  71 103 139 183 230 290 344 422
#     4  11  25  46  71  99 138 185 234 290 343 401
#     4  12  26  45  74 104 132 187 242 278 352 422
#     4  11  23  48  70  94 145 183 226 296 348 389
#
# _framework density 21.316905999999999
#
# number of rings (size 3 to 8) (size 9 to 14) (size 15 to 20)
#    0.000    0.400    6.000    2.700    2.800    0.800 
#    3.600    0.000    0.000    0.000    0.000    0.000 
#    0.000    0.000    0.000    0.000    0.000    0.000 
#
# Total GULP energy -495791.475758 kJ/mol
# GULP energy per Si atom -12394.786894 kJ/mol
# Density = 2.126839 g / cm^3
# Si number density = 21.316906 Si / 1000 Ang^3
#
#
#
# Elastic Constant Matrix: (Units=GPa)
#
#
# Indices 1 2 3 4 5 6 
#
# 1 111.2552 38.3808 71.9031 0.0000 0.0000 0.0000
# 2 38.3808 114.5310 53.9199 0.0000 0.0000 0.0000
# 3 71.9031 53.9199 146.5690 0.0000 0.0000 0.0000
# 4 0.0000 0.0000 0.0000 23.4228 0.0000 0.0000
# 5 0.0000 0.0000 0.0000 0.0000 56.3832 0.0000
# 6 0.0000 0.0000 0.0000 0.0000 0.0000 38.6839
#
#
#
# Elastic Compliance Matrix: (Units=1/GPa)
#
#
# Indices 1 2 3 4 5 6 
#
# 1 0.013427 -0.001691 -0.005965 0.000000 0.000000 0.000000
# 2 -0.001691 0.010773 -0.003134 0.000000 0.000000 0.000000
# 3 -0.005965 -0.003134 0.010902 0.000000 0.000000 0.000000
# 4 0.000000 0.000000 0.000000 0.042694 0.000000 0.000000
# 5 0.000000 0.000000 0.000000 0.000000 0.017736 0.000000
# 6 0.000000 0.000000 0.000000 0.000000 0.000000 0.025851
#
#
# Mechanical properties :
#
#
# Convention : Reuss Voigt Hill
#
# Bulk Modulus (GPa) = 73.95055 77.86253 75.90654
# Shear Modulus (GPa) = 33.90569 37.57474 35.74021
#
# Velocity S-wave (km/s) = 3.99250 4.20297 4.09909
# Velocity P-wave (km/s) = 7.48464 7.75621 7.62163
#
# Compressibility (1/GPa) = 0.01352255
#
# Stress axis : x y z
#
# Youngs Moduli (GPa) = 74.47861 92.82207 91.73001
#
# Poissons Ratio (x) = 0.15700 0.54713
# Poissons Ratio (y) = 0.12597 0.28744
# Poissons Ratio (z) = 0.44423 0.29086
#
# Static dielectric constant tensor:
#      x y z
#    x 4.094970 0.000000 0.000000 
#    y 0.000000 4.044530 0.000000 
#    z 0.000000 0.000000 4.178840 
# 
# 
# High freq. dielectric constant tensor:
#      x y z
#    x 1.860930 0.000000 0.000000 
#    y 0.000000 1.818770 0.000000 
#    z 0.000000 0.000000 1.852770 
# 
# From -- ./inp_files/44201.got.cif
#   From: 2010.03.12/outbox.cif.g09.slc.cpg/sg68_23_cif.got.tgz:44201.got - 2010.04.10 23:14:56.
