data_PCOD8283909
_publ_section_title
;
Structure prediction by ZEFSAII (Michael W. Deem and Ramdas Pophale) SiO2 
 PCOD8283909
Probable space group: F M M M
;
_chemical_formula_sum "Si O2"
_cell_formula_units_Z 152
_cell_length_a 14.073028
_cell_length_b 27.210011
_cell_length_c 26.536022
_cell_angle_alpha 90.000000
_cell_angle_beta 90.000000
_cell_angle_gamma 90.000000
_cell_volume 10161.365842
_symmetry_space_group_name_H-M "F M M M"
_symmetry_group_IT_number 69
_symmetry_cell_setting 'orthorhombic'
loop_
_space_group_symop_operation_xyz
x,y,z
-x,-y,z
x,-y,-z
-x,y,-z
-x,-y,-z
x,y,-z
-x,y,z
x,-y,z
x,1/2+y,1/2+z
-x,1/2-y,1/2+z
x,1/2-y,1/2-z
-x,1/2+y,1/2-z
-x,1/2-y,1/2-z
x,1/2+y,1/2-z
-x,1/2+y,1/2+z
x,1/2-y,1/2+z
1/2+x,y,1/2+z
1/2-x,-y,1/2+z
1/2+x,-y,1/2-z
1/2-x,y,1/2-z
1/2-x,-y,1/2-z
1/2+x,y,1/2-z
1/2-x,y,1/2+z
1/2+x,-y,1/2+z
1/2+x,1/2+y,z
1/2-x,1/2-y,z
1/2+x,1/2-y,-z
1/2-x,1/2+y,-z
1/2-x,1/2-y,-z
1/2+x,1/2+y,-z
1/2-x,1/2+y,z
1/2+x,1/2-y,z
loop_
_atom_site_type_symbol
_atom_site_label
_atom_site_fract_x
_atom_site_fract_y
_atom_site_fract_z
Si Si1 0.500000 0.288514 0.906630
Si Si2 0.710697 0.805969 0.301669
Si Si3 0.808962 0.849464 0.904787
Si Si4 0.210048 0.805530 0.500000
Si Si5 0.890389 0.055388 0.058579
Si Si6 0.500000 0.781402 0.000000
Si Si7 0.000000 0.716639 0.298160
O O1 0.408636 0.322463 0.911083
O O2 0.500000 0.250630 0.950584
O O3 0.500000 0.257836 0.853692
O O4 0.750000 0.829648 0.250000
O O5 0.750000 0.750000 0.306773
O O6 0.741825 0.835991 0.351517
O O7 0.597344 0.813647 0.296223
O O8 0.741819 0.832767 0.949754
O O9 0.826521 0.907939 0.907998
O O10 0.250000 0.750000 0.500000
O O11 0.096404 0.812165 0.500000
O O12 0.000000 0.060141 0.074571
O O13 0.854271 0.000000 0.068572
O O14 0.879100 0.069368 0.000000
O O15 0.000000 0.750000 0.250000
#
# Coordination Sequence:
#
# PCOD8283909 Si02
#       7
#    16  32  32  16  32   8  16
#     4  10  20  28  47  65  96 124 156 188 228 278
#     4  10  20  31  45  65  93 125 166 192 220 269
#     4  11  19  31  48  70  94 127 155 187 240 281
#     4  12  22  30  45  65  97 133 157 185 226 269
#     4   9  17  29  48  74 100 120 145 191 241 290
#     4  12  24  32  36  66 102 130 164 184 214 280
#     4  10  18  30  44  59  84 125 159 200 224 245
#
# _framework density 14.958619000000001
#
# number of rings (size 3 to 8) (size 9 to 14) (size 15 to 20)
#    0.000    1.684    6.316    1.263    2.947    0.000 
#    0.000    0.000    0.000    0.632    0.000    1.474 
#    0.000    0.000    0.000    0.000    0.000    0.000 
#
# Total GULP energy -470815.400353 kJ/mol
# GULP energy per Si atom -12389.878957 kJ/mol
# Density = 1.492457 g / cm^3
# Si number density = 14.958619 Si / 1000 Ang^3
#
#
#
# Elastic Constant Matrix: (Units=GPa)
#
#
# Indices 1 2 3 4 5 6 
#
# 1 87.5902 23.8898 42.3688 0.0000 0.0000 0.0000
# 2 23.8898 78.7368 48.1714 0.0000 0.0000 0.0000
# 3 42.3688 48.1714 148.5416 0.0000 0.0000 0.0000
# 4 0.0000 0.0000 0.0000 15.6311 0.0000 0.0000
# 5 0.0000 0.0000 0.0000 0.0000 24.0300 0.0000
# 6 0.0000 0.0000 0.0000 0.0000 0.0000 17.8709
#
#
#
# Elastic Compliance Matrix: (Units=1/GPa)
#
#
# Indices 1 2 3 4 5 6 
#
# 1 0.013537 -0.002177 -0.003155 0.000000 0.000000 0.000000
# 2 -0.002177 0.016194 -0.004631 0.000000 0.000000 0.000000
# 3 -0.003155 -0.004631 0.009134 0.000000 0.000000 0.000000
# 4 0.000000 0.000000 0.000000 0.063975 0.000000 0.000000
# 5 0.000000 0.000000 0.000000 0.000000 0.041615 0.000000
# 6 0.000000 0.000000 0.000000 0.000000 0.000000 0.055957
#
#
# Mechanical properties :
#
#
# Convention : Reuss Voigt Hill
#
# Bulk Modulus (GPa) = 52.80094 60.41430 56.60762
# Shear Modulus (GPa) = 22.06043 24.86896 23.46469
#
# Velocity S-wave (km/s) = 3.84443 4.08182 3.96490
# Velocity P-wave (km/s) = 7.42165 7.91772 7.67369
#
# Compressibility (1/GPa) = 0.01893906
#
# Stress axis : x y z
#
# Youngs Moduli (GPa) = 73.87299 61.75067 109.48334
#
# Poissons Ratio (x) = 0.13443 0.34544
# Poissons Ratio (y) = 0.16081 0.50699
# Poissons Ratio (z) = 0.23308 0.28595
#
# Static dielectric constant tensor:
#      x y z
#    x 2.407910 0.000000 0.000000 
#    y 0.000000 2.653910 0.000000 
#    z 0.000000 0.000000 3.247620 
# 
# 
# High freq. dielectric constant tensor:
#      x y z
#    x 1.567140 0.000000 0.000000 
#    y 0.000000 1.527020 0.000000 
#    z 0.000000 0.000000 1.586930 
# 
# From -- ./inp_files/41206.got.cif
#   From: 2010.03.12/outbox.cif.g09.slc.cpg/sg69_21_cif.got.tgz:41206.got - 2010.04.10 23:52:46.
