data_PCOD8283757
_publ_section_title
;
Structure prediction by ZEFSAII (Michael W. Deem and Ramdas Pophale) SiO2 
 PCOD8283757
Probable space group: F M M M
;
_chemical_formula_sum "Si O2"
_cell_formula_units_Z 104
_cell_length_a 21.323545
_cell_length_b 19.083606
_cell_length_c 14.602070
_cell_angle_alpha 90.000000
_cell_angle_beta 90.000000
_cell_angle_gamma 90.000000
_cell_volume 5942.022262
_symmetry_space_group_name_H-M "F M M M"
_symmetry_group_IT_number 69
_symmetry_cell_setting 'orthorhombic'
loop_
_space_group_symop_operation_xyz
x,y,z
-x,-y,z
x,-y,-z
-x,y,-z
-x,-y,-z
x,y,-z
-x,y,z
x,-y,z
x,1/2+y,1/2+z
-x,1/2-y,1/2+z
x,1/2-y,1/2-z
-x,1/2+y,1/2-z
-x,1/2-y,1/2-z
x,1/2+y,1/2-z
-x,1/2+y,1/2+z
x,1/2-y,1/2+z
1/2+x,y,1/2+z
1/2-x,-y,1/2+z
1/2+x,-y,1/2-z
1/2-x,y,1/2-z
1/2-x,-y,1/2-z
1/2+x,y,1/2-z
1/2-x,y,1/2+z
1/2+x,-y,1/2+z
1/2+x,1/2+y,z
1/2-x,1/2-y,z
1/2+x,1/2-y,-z
1/2-x,1/2+y,-z
1/2-x,1/2-y,-z
1/2+x,1/2+y,-z
1/2-x,1/2+y,z
1/2+x,1/2-y,z
loop_
_atom_site_type_symbol
_atom_site_label
_atom_site_fract_x
_atom_site_fract_y
_atom_site_fract_z
Si Si1 0.133517 0.500000 0.500000
Si Si2 0.148541 0.767881 0.150849
Si Si3 0.745433 0.500000 0.600055
Si Si4 0.733993 0.850726 0.894367
Si Si5 0.073805 0.651701 0.500000
O O1 0.178285 0.500000 0.590196
O O2 0.091447 0.569812 0.500000
O O3 0.119217 0.750000 0.250000
O O4 0.210743 0.815191 0.164175
O O5 0.170316 0.694284 0.105532
O O6 0.098138 0.808101 0.089983
O O7 0.712937 0.500000 0.500000
O O8 0.722671 0.571668 0.649253
O O9 0.758668 0.857668 0.000000
O O10 0.000000 0.657883 0.500000
#
# Coordination Sequence:
#
# PCOD8283757 Si02
#       5
#     8  32  16  32  16
#     4  10  17  36  54  78 102 138 175 228 260 306
#     4  11  20  33  52  79 108 137 173 219 263 314
#     4   8  14  25  52  78 106 137 166 204 263 322
#     4  10  15  30  53  78 110 140 165 208 267 320
#     4  12  23  38  57  74 102 146 184 221 265 304
#
# _framework density 17.502459000000002
#
# number of rings (size 3 to 8) (size 9 to 14) (size 15 to 20)
#    0.462    1.231    6.154    3.000    0.000    0.615 
#    0.000    4.615    0.000    0.000    0.000    2.154 
#    0.000    0.000    0.000    0.000    0.000    0.000 
#
# Total GULP energy -322147.725031 kJ/mol
# GULP energy per Si atom -12390.297117 kJ/mol
# Density = 1.746262 g / cm^3
# Si number density = 17.502459 Si / 1000 Ang^3
#
#
#
# Elastic Constant Matrix: (Units=GPa)
#
#
# Indices 1 2 3 4 5 6 
#
# 1 81.0659 60.6964 18.9392 0.0000 0.0000 0.0000
# 2 60.6964 196.1826 34.4235 0.0000 0.0000 0.0000
# 3 18.9392 34.4235 78.3913 0.0000 0.0000 0.0000
# 4 0.0000 0.0000 0.0000 -5.6238 0.0000 0.0000
# 5 0.0000 0.0000 0.0000 0.0000 8.2002 0.0000
# 6 0.0000 0.0000 0.0000 0.0000 0.0000 19.7300
#
#
#
# Elastic Compliance Matrix: (Units=1/GPa)
#
#
# Indices 1 2 3 4 5 6 
#
# 1 0.016303 -0.004716 -0.001868 0.000000 0.000000 0.000000
# 2 -0.004716 0.006887 -0.001885 0.000000 0.000000 0.000000
# 3 -0.001868 -0.001885 0.014035 0.000000 0.000000 0.000000
# 4 0.000000 0.000000 0.000000 -0.177815 0.000000 0.000000
# 5 0.000000 0.000000 0.000000 0.000000 0.121949 0.000000
# 6 0.000000 0.000000 0.000000 0.000000 0.000000 0.050684
#
#
# Mechanical properties :
#
#
# Convention : Reuss Voigt Hill
#
# Bulk Modulus (GPa) = 49.29035 64.86201 57.07618
# Shear Modulus (GPa) = 89.69569 20.56666 55.13117
#
# Velocity S-wave (km/s) = 7.16650 3.43165 5.61849
# Velocity P-wave (km/s) = 9.83369 7.26917 8.64703
#
# Compressibility (1/GPa) = 0.02028795
#
# Stress axis : x y z
#
# Youngs Moduli (GPa) = 61.33761 145.19742 71.24806
#
# Poissons Ratio (x) = 0.68479 0.13308
# Poissons Ratio (y) = 0.28928 0.13429
# Poissons Ratio (z) = 0.11457 0.27368
#
# Static dielectric constant tensor:
#      x y z
#    x 2.726250 0.000000 0.000000 
#    y 0.000000 3.669900 0.000000 
#    z 0.000000 0.000000 3.085900 
# 
# 
# High freq. dielectric constant tensor:
#      x y z
#    x 1.610670 0.000000 0.000000 
#    y 0.000000 1.703760 0.000000 
#    z 0.000000 0.000000 1.663840 
# 
# From -- ./inp_files/16195.got.cif
#   From: 2010.03.12/outbox.cif.g09.slc.cpg/sg69_9_cif.got.tgz:16195.got - 2010.04.10 23:52:46.
