data_PCOD8283892
_publ_section_title
;
Structure prediction by ZEFSAII (Michael W. Deem and Ramdas Pophale) SiO2 
 PCOD8283892
Probable space group: F M M M
;
_chemical_formula_sum "Si O2"
_cell_formula_units_Z 144
_cell_length_a 20.413080
_cell_length_b 21.816075
_cell_length_c 19.001902
_cell_angle_alpha 90.000000
_cell_angle_beta 90.000000
_cell_angle_gamma 90.000000
_cell_volume 8462.179425
_symmetry_space_group_name_H-M "F M M M"
_symmetry_group_IT_number 69
_symmetry_cell_setting 'orthorhombic'
loop_
_space_group_symop_operation_xyz
x,y,z
-x,-y,z
x,-y,-z
-x,y,-z
-x,-y,-z
x,y,-z
-x,y,z
x,-y,z
x,1/2+y,1/2+z
-x,1/2-y,1/2+z
x,1/2-y,1/2-z
-x,1/2+y,1/2-z
-x,1/2-y,1/2-z
x,1/2+y,1/2-z
-x,1/2+y,1/2+z
x,1/2-y,1/2+z
1/2+x,y,1/2+z
1/2-x,-y,1/2+z
1/2+x,-y,1/2-z
1/2-x,y,1/2-z
1/2-x,-y,1/2-z
1/2+x,y,1/2-z
1/2-x,y,1/2+z
1/2+x,-y,1/2+z
1/2+x,1/2+y,z
1/2-x,1/2-y,z
1/2+x,1/2-y,-z
1/2-x,1/2+y,-z
1/2-x,1/2-y,-z
1/2+x,1/2+y,-z
1/2-x,1/2+y,z
1/2+x,1/2-y,z
loop_
_atom_site_type_symbol
_atom_site_label
_atom_site_fract_x
_atom_site_fract_y
_atom_site_fract_z
Si Si1 0.000000 0.067840 0.582909
Si Si2 0.573194 0.761036 0.860632
Si Si3 0.182863 0.071576 0.289160
Si Si4 0.426469 0.650812 0.772172
Si Si5 0.866473 0.867711 0.579992
O O1 0.935278 0.103330 0.607388
O O2 0.000000 0.062911 0.500000
O O3 0.000000 0.000000 0.616869
O O4 0.500000 0.760982 0.893188
O O5 0.593217 0.691061 0.841645
O O6 0.575527 0.802147 0.791388
O O7 0.624114 0.793584 0.915023
O O8 0.250000 0.086184 0.250000
O O9 0.124532 0.095940 0.239226
O O10 0.186661 0.105618 0.365398
O O11 0.172429 0.000000 0.302416
O O12 0.500000 0.623645 0.780971
O O13 0.847893 0.886146 0.500000
#
# Coordination Sequence:
#
# PCOD8283892 Si02
#       5
#    16  32  32  32  32
#     4   9  16  24  38  67 104 134 156 181 226 295
#     4   8  13  25  44  68  97 125 154 192 236 287
#     4  10  21  34  47  67  99 137 174 212 254 299
#     4   8  15  28  47  67  88 124 169 204 239 284
#     4  10  18  29  47  74 104 132 160 195 248 312
#
# _framework density 17.016893
#
# number of rings (size 3 to 8) (size 9 to 14) (size 15 to 20)
#    0.000    3.000    1.111    2.000    1.556    1.778 
#    0.000    8.889    0.000    2.667    0.000    0.000 
#    0.000    0.000    0.000    9.778    0.000    0.444 
#
# Total GULP energy -446023.138567 kJ/mol
# GULP energy per Si atom -12389.531627 kJ/mol
# Density = 1.697816 g / cm^3
# Si number density = 17.016893 Si / 1000 Ang^3
#
#
#
# Elastic Constant Matrix: (Units=GPa)
#
#
# Indices 1 2 3 4 5 6 
#
# 1 74.1965 40.2461 40.5120 0.0000 0.0000 0.0000
# 2 40.2461 64.0596 44.3803 0.0000 0.0000 0.0000
# 3 40.5120 44.3803 75.5282 0.0000 0.0000 0.0000
# 4 0.0000 0.0000 0.0000 19.5914 0.0000 0.0000
# 5 0.0000 0.0000 0.0000 0.0000 19.9690 0.0000
# 6 0.0000 0.0000 0.0000 0.0000 0.0000 23.8764
#
#
#
# Elastic Compliance Matrix: (Units=1/GPa)
#
#
# Indices 1 2 3 4 5 6 
#
# 1 0.022051 -0.009545 -0.006219 0.000000 0.000000 0.000000
# 2 -0.009545 0.030460 -0.012779 0.000000 0.000000 0.000000
# 3 -0.006219 -0.012779 0.024085 0.000000 0.000000 0.000000
# 4 0.000000 0.000000 0.000000 0.051043 0.000000 0.000000
# 5 0.000000 0.000000 0.000000 0.000000 0.050078 0.000000
# 6 0.000000 0.000000 0.000000 0.000000 0.000000 0.041882
#
#
# Mechanical properties :
#
#
# Convention : Reuss Voigt Hill
#
# Bulk Modulus (GPa) = 51.25517 51.56234 51.40876
# Shear Modulus (GPa) = 17.65613 18.59707 18.12660
#
# Velocity S-wave (km/s) = 3.22462 3.30943 3.26730
# Velocity P-wave (km/s) = 6.63700 6.70593 6.67156
#
# Compressibility (1/GPa) = 0.01951023
#
# Stress axis : x y z
#
# Youngs Moduli (GPa) = 45.34959 32.82957 41.52044
#
# Poissons Ratio (x) = 0.31337 0.25821
# Poissons Ratio (y) = 0.43287 0.53057
# Poissons Ratio (z) = 0.28203 0.41952
#
# Static dielectric constant tensor:
#      x y z
#    x 3.004400 0.000000 0.000000 
#    y 0.000000 3.577540 0.000000 
#    z 0.000000 0.000000 3.200860 
# 
# 
# High freq. dielectric constant tensor:
#      x y z
#    x 1.623930 0.000000 0.000000 
#    y 0.000000 1.650110 0.000000 
#    z 0.000000 0.000000 1.630150 
# 
# From -- ./inp_files/22845.got.cif
#   From: 2010.03.12/outbox.cif.g09.slc.cpg/sg69_12_cif.got.tgz:22845.got - 2010.04.10 23:52:46.
