data_PCOD8283804
_publ_section_title
;
Structure prediction by ZEFSAII (Michael W. Deem and Ramdas Pophale) SiO2 
 PCOD8283804
Probable space group: F M M M
;
_chemical_formula_sum "Si O2"
_cell_formula_units_Z 160
_cell_length_a 20.666230
_cell_length_b 27.836524
_cell_length_c 19.043073
_cell_angle_alpha 90.000000
_cell_angle_beta 90.000000
_cell_angle_gamma 90.000000
_cell_volume 10955.023004
_symmetry_space_group_name_H-M "F M M M"
_symmetry_group_IT_number 69
_symmetry_cell_setting 'orthorhombic'
loop_
_space_group_symop_operation_xyz
x,y,z
-x,-y,z
x,-y,-z
-x,y,-z
-x,-y,-z
x,y,-z
-x,y,z
x,-y,z
x,1/2+y,1/2+z
-x,1/2-y,1/2+z
x,1/2-y,1/2-z
-x,1/2+y,1/2-z
-x,1/2-y,1/2-z
x,1/2+y,1/2-z
-x,1/2+y,1/2+z
x,1/2-y,1/2+z
1/2+x,y,1/2+z
1/2-x,-y,1/2+z
1/2+x,-y,1/2-z
1/2-x,y,1/2-z
1/2-x,-y,1/2-z
1/2+x,y,1/2-z
1/2-x,y,1/2+z
1/2+x,-y,1/2+z
1/2+x,1/2+y,z
1/2-x,1/2-y,z
1/2+x,1/2-y,-z
1/2-x,1/2+y,-z
1/2-x,1/2-y,-z
1/2+x,1/2+y,-z
1/2-x,1/2+y,z
1/2+x,1/2-y,z
loop_
_atom_site_type_symbol
_atom_site_label
_atom_site_fract_x
_atom_site_fract_y
_atom_site_fract_z
Si Si1 0.750000 0.667882 0.250000
Si Si2 0.623712 0.130527 0.184542
Si Si3 0.500000 0.831312 0.246238
Si Si4 0.250000 0.250000 0.639226
Si Si5 0.877677 0.717456 0.921640
Si Si6 0.074485 0.943765 0.579991
Si Si7 0.500000 0.742835 0.860742
O O1 0.689569 0.633318 0.269708
O O2 0.765446 0.702726 0.314990
O O3 0.563017 0.135017 0.237222
O O4 0.618827 0.173913 0.131124
O O5 0.619718 0.082294 0.137630
O O6 0.500000 0.786801 0.193329
O O7 0.500000 0.809077 0.323958
O O8 0.188875 0.245394 0.588946
O O9 0.936306 0.754240 0.908610
O O10 0.882116 0.696906 0.000000
O O11 0.096031 0.931308 0.500000
O O12 0.000000 0.927363 0.590490
O O13 0.081718 0.000000 0.593607
#
# Coordination Sequence:
#
# PCOD8283804 Si02
#       7
#    16  32  16  16  32  32  16
#     4   9  18  28  43  58  82 110 145 174 204 237
#     4  10  17  28  42  62  80 109 141 174 204 247
#     4   9  16  26  41  55  76 106 138 167 201 244
#     4   9  17  30  40  54  79 115 144 172 202 241
#     4  10  18  26  39  57  80 107 140 175 206 240
#     4   9  17  29  45  65  88 110 132 164 210 260
#     4   9  17  26  36  56  79 101 133 174 211 234
#
# _framework density 14.605172
#
# number of rings (size 3 to 8) (size 9 to 14) (size 15 to 20)
#    0.000    2.600    1.000    3.000    0.000    4.800 
#    0.000    0.500    0.000    0.000    0.000    0.000 
#    0.000    0.000    0.000    0.000    0.000   14.200 
#
# Total GULP energy -495819.765712 kJ/mol
# GULP energy per Si atom -12395.494143 kJ/mol
# Density = 1.457193 g / cm^3
# Si number density = 14.605172 Si / 1000 Ang^3
#
#
#
# Elastic Constant Matrix: (Units=GPa)
#
#
# Indices 1 2 3 4 5 6 
#
# 1 117.8198 34.2679 45.3614 0.0000 0.0000 0.0000
# 2 34.2679 46.3306 18.3550 0.0000 0.0000 0.0000
# 3 45.3614 18.3550 57.7834 0.0000 0.0000 0.0000
# 4 0.0000 0.0000 0.0000 15.7727 0.0000 0.0000
# 5 0.0000 0.0000 0.0000 0.0000 -6.5977 0.0000
# 6 0.0000 0.0000 0.0000 0.0000 0.0000 17.5716
#
#
#
# Elastic Compliance Matrix: (Units=1/GPa)
#
#
# Indices 1 2 3 4 5 6 
#
# 1 0.013798 -0.006766 -0.008683 0.000000 0.000000 0.000000
# 2 -0.006766 0.028009 -0.003586 0.000000 0.000000 0.000000
# 3 -0.008683 -0.003586 0.025261 0.000000 0.000000 0.000000
# 4 0.000000 0.000000 0.000000 0.063401 0.000000 0.000000
# 5 0.000000 0.000000 0.000000 0.000000 -0.151568 0.000000
# 6 0.000000 0.000000 0.000000 0.000000 0.000000 0.056910
#
#
# Mechanical properties :
#
#
# Convention : Reuss Voigt Hill
#
# Bulk Modulus (GPa) = 34.48318 46.43361 40.45840
# Shear Modulus (GPa) = 59.84733 13.61263 36.72998
#
# Velocity S-wave (km/s) = 6.40826 3.05625 5.02028
# Velocity P-wave (km/s) = 8.85527 6.65701 7.83363
#
# Compressibility (1/GPa) = 0.02899964
#
# Stress axis : x y z
#
# Youngs Moduli (GPa) = 72.47245 35.70298 39.58634
#
# Poissons Ratio (x) = 0.24156 0.34372
# Poissons Ratio (y) = 0.49034 0.14194
# Poissons Ratio (z) = 0.62927 0.12802
#
# Static dielectric constant tensor:
#      x y z
#    x 3.021960 0.000000 0.000000 
#    y 0.000000 2.574400 0.000000 
#    z 0.000000 0.000000 2.779510 
# 
# 
# High freq. dielectric constant tensor:
#      x y z
#    x 1.561540 0.000000 0.000000 
#    y 0.000000 1.521910 0.000000 
#    z 0.000000 0.000000 1.549380 
# 
# From -- ./inp_files/25123.got.cif
#   From: 2010.03.12/outbox.cif.g09.slc.cpg/sg69_13_cif.got.tgz:25123.got - 2010.04.10 23:52:46.
