data_PCOD8283599
_publ_section_title
;
Structure prediction by ZEFSAII (Michael W. Deem and Ramdas Pophale) SiO2 
 PCOD8283599
Probable space group: C C C A
;
_chemical_formula_sum "Si O2"
_cell_formula_units_Z 88
_cell_length_a 13.892046
_cell_length_b 23.568916
_cell_length_c 11.672910
_cell_angle_alpha 90.000000
_cell_angle_beta 90.000000
_cell_angle_gamma 90.000000
_cell_volume 3821.949623
_symmetry_space_group_name_H-M "C C C A"
_symmetry_group_IT_number 68
_space_group.IT_coordinate_system_code '2'
_symmetry_cell_setting 'orthorhombic'
loop_
_space_group_symop_operation_xyz
x,y,z
-x,1/2-y,z
x,1/2-y,1/2-z
-x,y,1/2-z
-x,-y,-z
x,1/2+y,-z
-x,1/2+y,1/2+z
x,-y,1/2+z
1/2+x,1/2+y,z
1/2-x,-y,z
1/2+x,-y,1/2-z
1/2-x,1/2+y,1/2-z
1/2-x,1/2-y,-z
1/2+x,y,-z
1/2-x,y,1/2+z
1/2+x,1/2-y,1/2+z
loop_
_atom_site_type_symbol
_atom_site_label
_atom_site_fract_x
_atom_site_fract_y
_atom_site_fract_z
Si Si1 0.803138 0.334708 0.887147
Si Si2 0.802184 0.250000 0.250000
Si Si3 0.887572 0.459060 0.244305
Si Si4 0.409591 0.651824 0.386563
Si Si5 0.393305 0.082046 0.206185
Si Si6 0.113760 0.387253 0.051818
O O1 0.774737 0.272782 0.842274
O O2 0.827997 0.374302 0.777895
O O3 0.707820 0.350004 0.956472
O O4 0.887510 0.334175 0.980710
O O5 0.870780 0.201214 0.303254
O O6 0.862489 0.408683 0.152925
O O7 0.840725 0.520209 0.212926
O O8 0.856564 0.441926 0.372530
O O9 0.000000 0.470310 0.250000
O O10 0.526189 0.646008 0.382286
O O11 0.500000 0.082147 0.250000
O O12 0.411897 0.096906 0.075420
#
# Coordination Sequence:
#
# PCOD8283599 Si02
#       6
#    16   8  16  16  16  16
#     4  12  26  46  72 106 144 186 240 299 351 426
#     4  12  26  49  71 106 140 186 251 298 347 420
#     4   9  22  42  71 107 138 185 237 284 351 431
#     4  11  24  47  72 101 145 186 239 298 355 413
#     4  11  24  46  75 103 149 188 224 292 364 422
#     4  11  24  45  71 108 141 186 238 282 359 428
#
# _framework density 23.024899000000001
#
# number of rings (size 3 to 8) (size 9 to 14) (size 15 to 20)
#    0.000    1.091    3.636    1.636    2.545    4.364 
#    0.000    0.455    0.000    0.000    0.000    0.000 
#    0.000    0.000    0.000    0.000    0.000    0.000 
#
# Total GULP energy -545266.816633 kJ/mol
# GULP energy per Si atom -12392.427651 kJ/mol
# Density = 2.297249 g / cm^3
# Si number density = 23.024899 Si / 1000 Ang^3
#
#
#
# Elastic Constant Matrix: (Units=GPa)
#
#
# Indices 1 2 3 4 5 6 
#
# 1 59.5806 22.0881 6.8553 0.0000 0.0000 0.0000
# 2 22.0881 121.1914 28.6090 0.0000 0.0000 0.0000
# 3 6.8553 28.6090 116.6990 0.0000 0.0000 0.0000
# 4 0.0000 0.0000 0.0000 15.2357 0.0000 0.0000
# 5 0.0000 0.0000 0.0000 0.0000 40.3908 0.0000
# 6 0.0000 0.0000 0.0000 0.0000 0.0000 20.1780
#
#
#
# Elastic Compliance Matrix: (Units=1/GPa)
#
#
# Indices 1 2 3 4 5 6 
#
# 1 0.018008 -0.003219 -0.000269 0.000000 0.000000 0.000000
# 2 -0.003219 0.009334 -0.002099 0.000000 0.000000 0.000000
# 3 -0.000269 -0.002099 0.009099 0.000000 0.000000 0.000000
# 4 0.000000 0.000000 0.000000 0.065635 0.000000 0.000000
# 5 0.000000 0.000000 0.000000 0.000000 0.024758 0.000000
# 6 0.000000 0.000000 0.000000 0.000000 0.000000 0.049559
#
#
# Mechanical properties :
#
#
# Convention : Reuss Voigt Hill
#
# Bulk Modulus (GPa) = 39.57564 45.84176 42.70870
# Shear Modulus (GPa) = 25.51160 31.15546 28.33353
#
# Velocity S-wave (km/s) = 3.33228 3.68247 3.51174
# Velocity P-wave (km/s) = 5.65959 6.16714 5.91881
#
# Compressibility (1/GPa) = 0.02526807
#
# Stress axis : x y z
#
# Youngs Moduli (GPa) = 55.53039 107.14028 109.89689
#
# Poissons Ratio (x) = 0.34485 0.02954
# Poissons Ratio (y) = 0.17873 0.23068
# Poissons Ratio (z) = 0.01493 0.22489
#
# Static dielectric constant tensor:
#      x y z
#    x 4.244120 0.000000 0.000000 
#    y 0.000000 4.537510 0.000000 
#    z 0.000000 0.000000 3.838310 
# 
# 
# High freq. dielectric constant tensor:
#      x y z
#    x 1.915430 0.000000 0.000000 
#    y 0.000000 1.903160 0.000000 
#    z 0.000000 0.000000 1.920930 
# 
# From -- ./inp_files/13313.got.cif
#   From: 2010.03.12/outbox.cif.g09.slc.cpg/sg68_7_cif.got.tgz:13313.got - 2010.04.10 23:14:56.
