data_PCOD8283339
_publ_section_title
;
Structure prediction by ZEFSAII (Michael W. Deem and Ramdas Pophale) SiO2 
 PCOD8283339
Probable space group: C C C A
;
_chemical_formula_sum "Si O2"
_cell_formula_units_Z 88
_cell_length_a 20.382695
_cell_length_b 22.972786
_cell_length_c 8.336209
_cell_angle_alpha 90.000000
_cell_angle_beta 90.000000
_cell_angle_gamma 90.000000
_cell_volume 3903.407276
_symmetry_space_group_name_H-M "C C C A"
_symmetry_group_IT_number 68
_space_group.IT_coordinate_system_code '2'
_symmetry_cell_setting 'orthorhombic'
loop_
_space_group_symop_operation_xyz
x,y,z
-x,1/2-y,z
x,1/2-y,1/2-z
-x,y,1/2-z
-x,-y,-z
x,1/2+y,-z
-x,1/2+y,1/2+z
x,-y,1/2+z
1/2+x,1/2+y,z
1/2-x,-y,z
1/2+x,-y,1/2-z
1/2-x,1/2+y,1/2-z
1/2-x,1/2-y,-z
1/2+x,y,-z
1/2-x,y,1/2+z
1/2+x,1/2-y,1/2+z
loop_
_atom_site_type_symbol
_atom_site_label
_atom_site_fract_x
_atom_site_fract_y
_atom_site_fract_z
Si Si1 0.431371 0.265058 0.072001
Si Si2 0.165927 0.038888 0.949903
Si Si3 0.041015 0.891907 0.416748
Si Si4 0.500000 0.142856 0.750000
Si Si5 0.863591 0.305566 0.336491
Si Si6 0.705975 0.075109 0.694747
O O1 0.500000 0.250000 0.977871
O O2 0.445124 0.250000 0.250000
O O3 0.415193 0.333541 0.062862
O O4 0.376062 0.220217 0.013140
O O5 0.091185 0.054553 0.908343
O O6 0.215466 0.070087 0.824224
O O7 0.172116 0.969124 0.931870
O O8 0.184145 0.058137 0.128097
O O9 0.000000 0.891361 0.250000
O O10 0.997644 0.895692 0.583016
O O11 0.567990 0.179520 0.755346
O O12 0.830253 0.250000 0.250000
O O13 0.814815 0.359489 0.346974
#
# Coordination Sequence:
#
# PCOD8283339 Si02
#       6
#    16  16  16   8  16  16
#     4  11  19  34  60  96 138 183 230 282 363 429
#     4  11  25  49  71 103 138 191 254 298 375 439
#     4  12  24  43  71 108 145 191 244 298 365 448
#     4  12  21  38  72  98 144 190 230 299 370 430
#     4  12  21  40  70 102 140 186 243 293 368 444
#     4  11  25  47  76  98 139 196 245 310 365 439
#
# _framework density 22.544405999999999
#
# number of rings (size 3 to 8) (size 9 to 14) (size 15 to 20)
#    0.000    0.545    7.273    2.455    0.000    5.818 
#    1.636    6.364    0.000    0.000    0.000    0.000 
#    0.000    0.000    0.000    0.000    0.000    0.000 
#
# Total GULP energy -545108.792868 kJ/mol
# GULP energy per Si atom -12388.836202 kJ/mol
# Density = 2.249309 g / cm^3
# Si number density = 22.544406 Si / 1000 Ang^3
#
#
#
# Elastic Constant Matrix: (Units=GPa)
#
#
# Indices 1 2 3 4 5 6 
#
# 1 60.3429 55.3838 32.2238 0.0000 0.0000 0.0000
# 2 55.3838 147.0317 37.3797 0.0000 0.0000 0.0000
# 3 32.2238 37.3797 146.9486 0.0000 0.0000 0.0000
# 4 0.0000 0.0000 0.0000 29.7574 0.0000 0.0000
# 5 0.0000 0.0000 0.0000 0.0000 34.8691 0.0000
# 6 0.0000 0.0000 0.0000 0.0000 0.0000 50.1828
#
#
#
# Elastic Compliance Matrix: (Units=1/GPa)
#
#
# Indices 1 2 3 4 5 6 
#
# 1 0.026964 -0.009252 -0.003559 0.000000 0.000000 0.000000
# 2 -0.009252 0.010446 -0.000628 0.000000 0.000000 0.000000
# 3 -0.003559 -0.000628 0.007745 0.000000 0.000000 0.000000
# 4 0.000000 0.000000 0.000000 0.033605 0.000000 0.000000
# 5 0.000000 0.000000 0.000000 0.000000 0.028679 0.000000
# 6 0.000000 0.000000 0.000000 0.000000 0.000000 0.019927
#
#
# Mechanical properties :
#
#
# Convention : Reuss Voigt Hill
#
# Bulk Modulus (GPa) = 54.71576 67.14422 60.92999
# Shear Modulus (GPa) = 31.18399 38.25092 34.71746
#
# Velocity S-wave (km/s) = 3.72321 4.12356 3.92849
# Velocity P-wave (km/s) = 6.54263 7.24703 6.90382
#
# Compressibility (1/GPa) = 0.01827627
#
# Stress axis : x y z
#
# Youngs Moduli (GPa) = 37.08588 95.72998 129.10762
#
# Poissons Ratio (x) = 0.88570 0.45955
# Poissons Ratio (y) = 0.34312 0.08112
# Poissons Ratio (z) = 0.13201 0.06015
#
# Static dielectric constant tensor:
#      x y z
#    x 3.773570 0.000000 0.000000 
#    y 0.000000 4.020390 0.000000 
#    z 0.000000 0.000000 4.365890 
# 
# 
# High freq. dielectric constant tensor:
#      x y z
#    x 1.848530 0.000000 0.000000 
#    y 0.000000 1.883790 0.000000 
#    z 0.000000 0.000000 1.914300 
# 
# From -- ./inp_files/7990.got.cif
#   From: 2010.03.12/outbox.cif.g09.slc.cpg/sg68_4_cif.got.tgz:7990.got - 2010.04.10 23:14:56.
