data_PCOD8283627
_publ_section_title
;
Structure prediction by ZEFSAII (Michael W. Deem and Ramdas Pophale) SiO2 
 PCOD8283627
Probable space group: C C C A
;
_chemical_formula_sum "Si O2"
_cell_formula_units_Z 56
_cell_length_a 17.668379
_cell_length_b 14.581853
_cell_length_c 9.378227
_cell_angle_alpha 90.000000
_cell_angle_beta 90.000000
_cell_angle_gamma 90.000000
_cell_volume 2416.184884
_symmetry_space_group_name_H-M "C C C A"
_symmetry_group_IT_number 68
_space_group.IT_coordinate_system_code '2'
_symmetry_cell_setting 'orthorhombic'
loop_
_space_group_symop_operation_xyz
x,y,z
-x,1/2-y,z
x,1/2-y,1/2-z
-x,y,1/2-z
-x,-y,-z
x,1/2+y,-z
-x,1/2+y,1/2+z
x,-y,1/2+z
1/2+x,1/2+y,z
1/2-x,-y,z
1/2+x,-y,1/2-z
1/2-x,1/2+y,1/2-z
1/2-x,1/2-y,-z
1/2+x,y,-z
1/2-x,y,1/2+z
1/2+x,1/2-y,1/2+z
loop_
_atom_site_type_symbol
_atom_site_label
_atom_site_fract_x
_atom_site_fract_y
_atom_site_fract_z
Si Si1 0.498276 0.405002 0.919715
Si Si2 0.360664 0.651533 0.592806
Si Si3 0.635753 0.147798 0.404457
Si Si4 0.750000 0.500000 0.499427
O O1 0.500000 0.415283 0.750000
O O2 0.500000 0.500000 0.000000
O O3 0.420997 0.355378 0.965053
O O4 0.572449 0.351573 0.972374
O O5 0.322739 0.753001 0.579813
O O6 0.401884 0.641801 0.746843
O O7 0.297466 0.572269 0.593275
O O8 0.693321 0.062413 0.408723
#
# Coordination Sequence:
#
# PCOD8283627 Si02
#       4
#    16  16  16   8
#     4  12  25  44  73 102 134 176 229 287 342 407
#     4  11  25  45  70 102 141 182 227 282 341 401
#     4  11  25  45  70 102 141 182 227 282 341 401
#     4  12  24  42  72 100 142 190 228 276 330 412
#
# _framework density 23.177033000000002
#
# number of rings (size 3 to 8) (size 9 to 14) (size 15 to 20)
#    0.000    0.571    2.857    5.143    0.000    6.857 
#    0.000    0.000    0.000    0.000    0.000    0.000 
#    0.000    0.000    0.000    0.000    0.000    0.000 
#
# Total GULP energy -346937.770157 kJ/mol
# GULP energy per Si atom -12390.634648 kJ/mol
# Density = 2.312428 g / cm^3
# Si number density = 23.177033 Si / 1000 Ang^3
#
#
#
# Elastic Constant Matrix: (Units=GPa)
#
#
# Indices 1 2 3 4 5 6 
#
# 1 70.2091 9.7209 14.1117 0.0000 0.0000 0.0000
# 2 9.7209 149.5366 15.6382 0.0000 0.0000 0.0000
# 3 14.1117 15.6382 161.6055 0.0000 0.0000 0.0000
# 4 0.0000 0.0000 0.0000 26.3672 0.0000 0.0000
# 5 0.0000 0.0000 0.0000 0.0000 17.3944 0.0000
# 6 0.0000 0.0000 0.0000 0.0000 0.0000 7.1210
#
#
#
# Elastic Compliance Matrix: (Units=1/GPa)
#
#
# Indices 1 2 3 4 5 6 
#
# 1 0.014597 -0.000824 -0.001195 0.000000 0.000000 0.000000
# 2 -0.000824 0.006802 -0.000586 0.000000 0.000000 0.000000
# 3 -0.001195 -0.000586 0.006349 0.000000 0.000000 0.000000
# 4 0.000000 0.000000 0.000000 0.037926 0.000000 0.000000
# 5 0.000000 0.000000 0.000000 0.000000 0.057490 0.000000
# 6 0.000000 0.000000 0.000000 0.000000 0.000000 0.140430
#
#
# Mechanical properties :
#
#
# Convention : Reuss Voigt Hill
#
# Bulk Modulus (GPa) = 44.36904 51.14365 47.75634
# Shear Modulus (GPa) = 18.09514 32.96854 25.53184
#
# Velocity S-wave (km/s) = 2.79720 3.77565 3.32264
# Velocity P-wave (km/s) = 5.44220 6.41263 5.94724
#
# Compressibility (1/GPa) = 0.02253824
#
# Stress axis : x y z
#
# Youngs Moduli (GPa) = 68.50519 147.01127 157.50550
#
# Poissons Ratio (x) = 0.12113 0.18821
# Poissons Ratio (y) = 0.05645 0.09234
# Poissons Ratio (z) = 0.08186 0.08619
#
# Static dielectric constant tensor:
#      x y z
#    x 4.157080 0.000000 0.000000 
#    y 0.000000 4.569270 0.000000 
#    z 0.000000 0.000000 4.163520 
# 
# 
# High freq. dielectric constant tensor:
#      x y z
#    x 1.893450 0.000000 0.000000 
#    y 0.000000 1.947830 0.000000 
#    z 0.000000 0.000000 1.915000 
# 
# From -- ./inp_files/6636.got.cif
#   From: 2010.03.12/outbox.cif.g09.slc.cpg/sg68_4_cif.got.tgz:6636.got - 2010.04.10 23:14:56.
