data_PCOD8283982
_publ_section_title
;
Structure prediction by ZEFSAII (Michael W. Deem and Ramdas Pophale) SiO2 
 PCOD8283982
Probable space group: F M M M
;
_chemical_formula_sum "Si O2"
_cell_formula_units_Z 232
_cell_length_a 26.763819
_cell_length_b 25.957365
_cell_length_c 20.086517
_cell_angle_alpha 90.000000
_cell_angle_beta 90.000000
_cell_angle_gamma 90.000000
_cell_volume 13954.469308
_symmetry_space_group_name_H-M "F M M M"
_symmetry_group_IT_number 69
_symmetry_cell_setting 'orthorhombic'
loop_
_space_group_symop_operation_xyz
x,y,z
-x,-y,z
x,-y,-z
-x,y,-z
-x,-y,-z
x,y,-z
-x,y,z
x,-y,z
x,1/2+y,1/2+z
-x,1/2-y,1/2+z
x,1/2-y,1/2-z
-x,1/2+y,1/2-z
-x,1/2-y,1/2-z
x,1/2+y,1/2-z
-x,1/2+y,1/2+z
x,1/2-y,1/2+z
1/2+x,y,1/2+z
1/2-x,-y,1/2+z
1/2+x,-y,1/2-z
1/2-x,y,1/2-z
1/2-x,-y,1/2-z
1/2+x,y,1/2-z
1/2-x,y,1/2+z
1/2+x,-y,1/2+z
1/2+x,1/2+y,z
1/2-x,1/2-y,z
1/2+x,1/2-y,-z
1/2-x,1/2+y,-z
1/2-x,1/2-y,-z
1/2+x,1/2+y,-z
1/2-x,1/2+y,z
1/2+x,1/2-y,z
loop_
_atom_site_type_symbol
_atom_site_label
_atom_site_fract_x
_atom_site_fract_y
_atom_site_fract_z
Si Si1 0.717064 0.557708 0.815168
Si Si2 0.942679 0.557204 0.798598
Si Si3 0.750000 0.750000 0.750000
Si Si4 0.747209 0.364236 0.075153
Si Si5 0.674907 0.207018 0.648139
Si Si6 0.633227 0.628653 0.236917
Si Si7 0.556397 0.379526 0.424779
Si Si8 0.650490 0.321936 0.376844
O O1 0.706586 0.500000 0.840519
O O2 0.750000 0.557451 0.750000
O O3 0.743762 0.587698 0.875169
O O4 0.665985 0.583718 0.794103
O O5 0.919059 0.500000 0.788683
O O6 0.919341 0.601303 0.751732
O O7 0.934585 0.572147 0.875980
O O8 0.000000 0.555727 0.778574
O O9 0.716889 0.787350 0.705024
O O10 0.703558 0.322218 0.088720
O O11 0.802349 0.339902 0.080232
O O12 0.739828 0.383997 0.000000
O O13 0.629855 0.173287 0.680680
O O14 0.651207 0.260168 0.624907
O O15 0.655831 0.653493 0.303857
O O16 0.562482 0.399884 0.500000
O O17 0.500000 0.357024 0.413654
O O18 0.597690 0.335844 0.410705
#
# Coordination Sequence:
#
# PCOD8283982 Si02
#       8
#    32  32   8  32  32  32  32  32
#     4  10  20  34  52  71  94 131 168 200 242 296
#     4   9  18  32  51  73  97 124 157 205 254 291
#     4  12  16  32  50  72  92 132 166 204 232 288
#     4  11  22  33  47  73 104 130 163 208 247 288
#     4  11  20  30  51  73 100 128 164 200 246 292
#     4  10  18  31  51  74  95 124 162 206 241 292
#     4   9  19  33  47  65  92 128 167 201 237 288
#     4  11  18  31  49  69  96 126 163 201 246 285
#
# _framework density 16.625498
#
# number of rings (size 3 to 8) (size 9 to 14) (size 15 to 20)
#    0.000    1.793    4.138    0.828    1.931    2.207 
#    0.000    2.069    0.000    4.966    0.000    0.000 
#    0.000    4.966    0.000   30.345    0.000    0.000 
#
# Total GULP energy -718946.240209 kJ/mol
# GULP energy per Si atom -12395.624831 kJ/mol
# Density = 1.658766 g / cm^3
# Si number density = 16.625498 Si / 1000 Ang^3
#
#
#
# Elastic Constant Matrix: (Units=GPa)
#
#
# Indices 1 2 3 4 5 6 
#
# 1 67.7607 40.3798 33.7468 0.0000 0.0000 0.0000
# 2 40.3798 123.0865 39.5809 0.0000 0.0000 0.0000
# 3 33.7468 39.5809 82.0768 0.0000 0.0000 0.0000
# 4 0.0000 0.0000 0.0000 20.0482 0.0000 0.0000
# 5 0.0000 0.0000 0.0000 0.0000 17.1719 0.0000
# 6 0.0000 0.0000 0.0000 0.0000 0.0000 24.8813
#
#
#
# Elastic Compliance Matrix: (Units=1/GPa)
#
#
# Indices 1 2 3 4 5 6 
#
# 1 0.020705 -0.004799 -0.006199 0.000000 0.000000 0.000000
# 2 -0.004799 0.010728 -0.003200 0.000000 0.000000 0.000000
# 3 -0.006199 -0.003200 0.016276 0.000000 0.000000 0.000000
# 4 0.000000 0.000000 0.000000 0.049880 0.000000 0.000000
# 5 0.000000 0.000000 0.000000 0.000000 0.058235 0.000000
# 6 0.000000 0.000000 0.000000 0.000000 0.000000 0.040191
#
#
# Mechanical properties :
#
#
# Convention : Reuss Voigt Hill
#
# Bulk Modulus (GPa) = 51.78049 55.59322 53.68686
# Shear Modulus (GPa) = 21.65936 23.03472 22.34704
#
# Velocity S-wave (km/s) = 3.61332 3.72628 3.67023
# Velocity P-wave (km/s) = 6.97287 7.21281 7.09386
#
# Compressibility (1/GPa) = 0.01931229
#
# Stress axis : x y z
#
# Youngs Moduli (GPa) = 48.29794 93.21533 61.44149
#
# Poissons Ratio (x) = 0.44735 0.38086
# Poissons Ratio (y) = 0.23179 0.19663
# Poissons Ratio (z) = 0.29938 0.29831
#
# Static dielectric constant tensor:
#      x y z
#    x 2.963890 0.000000 0.000000 
#    y 0.000000 3.289320 0.000000 
#    z 0.000000 0.000000 2.816720 
# 
# 
# High freq. dielectric constant tensor:
#      x y z
#    x 1.624760 0.000000 0.000000 
#    y 0.000000 1.642840 0.000000 
#    z 0.000000 0.000000 1.629550 
# 
# From -- ./inp_files/28105.got.cif
#   From: 2010.03.12/outbox.cif.g09.slc.cpg/sg69_15_cif.got.tgz:28105.got - 2010.04.10 23:52:46.
