data_PCOD8283227
_publ_section_title
;
Structure prediction by ZEFSAII (Michael W. Deem and Ramdas Pophale) SiO2 
 PCOD8283227
Probable space group: C C C A
;
_chemical_formula_sum "Si O2"
_cell_formula_units_Z 88
_cell_length_a 12.114190
_cell_length_b 24.501089
_cell_length_c 13.212070
_cell_angle_alpha 90.000000
_cell_angle_beta 90.000000
_cell_angle_gamma 90.000000
_cell_volume 3921.485692
_symmetry_space_group_name_H-M "C C C A"
_symmetry_group_IT_number 68
_space_group.IT_coordinate_system_code '2'
_symmetry_cell_setting 'orthorhombic'
loop_
_space_group_symop_operation_xyz
x,y,z
-x,1/2-y,z
x,1/2-y,1/2-z
-x,y,1/2-z
-x,-y,-z
x,1/2+y,-z
-x,1/2+y,1/2+z
x,-y,1/2+z
1/2+x,1/2+y,z
1/2-x,-y,z
1/2+x,-y,1/2-z
1/2-x,1/2+y,1/2-z
1/2-x,1/2-y,-z
1/2+x,y,-z
1/2-x,y,1/2+z
1/2+x,1/2-y,1/2+z
loop_
_atom_site_type_symbol
_atom_site_label
_atom_site_fract_x
_atom_site_fract_y
_atom_site_fract_z
Si Si1 0.135986 0.830919 0.949029
Si Si2 0.826684 0.807369 0.199881
Si Si3 0.457508 0.580667 0.429348
Si Si4 0.500000 0.250000 0.071504
Si Si5 0.719551 0.893573 0.869654
Si Si6 0.018458 0.537891 0.365602
O O1 0.214703 0.815284 0.859359
O O2 0.037760 0.868920 0.906933
O O3 0.214330 0.860345 0.027819
O O4 0.091417 0.776102 0.000144
O O5 0.806794 0.750000 0.250000
O O6 0.941732 0.799068 0.136757
O O7 0.832280 0.857713 0.278210
O O8 0.347477 0.590371 0.363383
O O9 0.510150 0.525255 0.384571
O O10 0.444747 0.573021 0.552680
O O11 0.647522 0.948522 0.883987
O O12 0.000000 0.555226 0.250000
#
# Coordination Sequence:
#
# PCOD8283227 Si02
#       6
#    16  16  16   8  16  16
#     4  11  26  43  71  97 141 183 226 299 355 420
#     4  12  27  43  70 104 136 187 239 290 355 437
#     4  10  24  48  65 104 143 175 236 298 355 425
#     4  12  25  48  69  98 144 186 243 292 351 436
#     4  11  25  43  71 103 137 183 237 290 361 423
#     4  10  24  44  75  99 136 188 239 286 359 432
#
# _framework density 22.440474999999999
#
# number of rings (size 3 to 8) (size 9 to 14) (size 15 to 20)
#    0.000    1.091    1.818    2.455   12.727    0.000 
#    0.000    1.818    0.000    0.000    0.000    0.000 
#    0.000    0.000    0.000    0.000    0.000    0.000 
#
# Total GULP energy -545318.502712 kJ/mol
# GULP energy per Si atom -12393.602334 kJ/mol
# Density = 2.238940 g / cm^3
# Si number density = 22.440475 Si / 1000 Ang^3
#
#
#
# Elastic Constant Matrix: (Units=GPa)
#
#
# Indices 1 2 3 4 5 6 
#
# 1 83.2500 15.5435 14.1121 0.0000 0.0000 0.0000
# 2 15.5435 68.5272 9.5162 0.0000 0.0000 0.0000
# 3 14.1121 9.5162 75.5388 0.0000 0.0000 0.0000
# 4 0.0000 0.0000 0.0000 3.9175 0.0000 0.0000
# 5 0.0000 0.0000 0.0000 0.0000 45.3951 0.0000
# 6 0.0000 0.0000 0.0000 0.0000 0.0000 32.4826
#
#
#
# Elastic Compliance Matrix: (Units=1/GPa)
#
#
# Indices 1 2 3 4 5 6 
#
# 1 0.012854 -0.002628 -0.002070 0.000000 0.000000 0.000000
# 2 -0.002628 0.015390 -0.001448 0.000000 0.000000 0.000000
# 3 -0.002070 -0.001448 0.013807 0.000000 0.000000 0.000000
# 4 0.000000 0.000000 0.000000 0.255263 0.000000 0.000000
# 5 0.000000 0.000000 0.000000 0.000000 0.022029 0.000000
# 6 0.000000 0.000000 0.000000 0.000000 0.000000 0.030786
#
#
# Mechanical properties :
#
#
# Convention : Reuss Voigt Hill
#
# Bulk Modulus (GPa) = 33.60353 33.96218 33.78286
# Shear Modulus (GPa) = 13.42859 28.90198 21.16528
#
# Velocity S-wave (km/s) = 2.44889 3.59268 3.07445
# Velocity P-wave (km/s) = 4.79616 5.69008 5.26214
#
# Compressibility (1/GPa) = 0.02975878
#
# Stress axis : x y z
#
# Youngs Moduli (GPa) = 77.79911 64.97774 72.42497
#
# Poissons Ratio (x) = 0.17076 0.14994
# Poissons Ratio (y) = 0.20446 0.10486
# Poissons Ratio (z) = 0.16106 0.09408
#
# Static dielectric constant tensor:
#      x y z
#    x 3.744440 0.000000 0.000000 
#    y 0.000000 4.023120 0.000000 
#    z 0.000000 0.000000 4.075720 
# 
# 
# High freq. dielectric constant tensor:
#      x y z
#    x 1.878340 0.000000 0.000000 
#    y 0.000000 1.893760 0.000000 
#    z 0.000000 0.000000 1.887120 
# 
# From -- ./inp_files/12042.got.cif
#   From: 2010.03.12/outbox.cif.g09.slc.cpg/sg68_7_cif.got.tgz:12042.got - 2010.04.10 23:14:56.
