data_PCOD8283424
_publ_section_title
;
Structure prediction by ZEFSAII (Michael W. Deem and Ramdas Pophale) SiO2 
 PCOD8283424
Probable space group: C C C A
;
_chemical_formula_sum "Si O2"
_cell_formula_units_Z 68
_cell_length_a 14.136236
_cell_length_b 11.977162
_cell_length_c 18.118642
_cell_angle_alpha 90.000000
_cell_angle_beta 90.000000
_cell_angle_gamma 90.000000
_cell_volume 3067.703309
_symmetry_space_group_name_H-M "C C C A"
_symmetry_group_IT_number 68
_space_group.IT_coordinate_system_code '2'
_symmetry_cell_setting 'orthorhombic'
loop_
_space_group_symop_operation_xyz
x,y,z
-x,1/2-y,z
x,1/2-y,1/2-z
-x,y,1/2-z
-x,-y,-z
x,1/2+y,-z
-x,1/2+y,1/2+z
x,-y,1/2+z
1/2+x,1/2+y,z
1/2-x,-y,z
1/2+x,-y,1/2-z
1/2-x,1/2+y,1/2-z
1/2-x,1/2-y,-z
1/2+x,y,-z
1/2-x,y,1/2+z
1/2+x,1/2-y,1/2+z
loop_
_atom_site_type_symbol
_atom_site_label
_atom_site_fract_x
_atom_site_fract_y
_atom_site_fract_z
Si Si1 0.891669 0.711906 0.960239
Si Si2 0.000000 0.750000 0.750000
Si Si3 0.366819 0.584993 0.174335
Si Si4 0.327927 0.627440 0.751244
Si Si5 0.233988 0.878303 0.083103
O O1 0.876024 0.594612 0.914770
O O2 0.832178 0.809564 0.918779
O O3 0.000000 0.750000 0.969209
O O4 0.848168 0.690067 0.041031
O O5 0.941271 0.676452 0.804490
O O6 0.394490 0.465388 0.211221
O O7 0.264527 0.626692 0.199906
O O8 0.375834 0.750000 0.750000
O O9 0.301655 0.596589 0.834164
O O10 0.250000 0.000000 0.046709
#
# Coordination Sequence:
#
# PCOD8283424 Si02
#       5
#    16   4  16  16  16
#     4  11  25  44  69 102 138 184 243 286 347 429
#     4  12  20  40  66 104 128 162 234 290 320 416
#     4  11  22  37  71  98 131 174 230 289 336 408
#     4  11  22  42  66 101 135 181 227 288 354 418
#     4  11  24  42  68  99 140 188 230 295 357 418
#
# _framework density 22.166419999999999
#
# number of rings (size 3 to 8) (size 9 to 14) (size 15 to 20)
#    0.000    0.941    7.059    0.000    3.294    0.941 
#    0.000    2.941    0.000    0.000    0.000    0.000 
#    0.000    0.000    0.000    0.000    0.000    0.000 
#
# Total GULP energy -421329.507981 kJ/mol
# GULP energy per Si atom -12392.044352 kJ/mol
# Density = 2.211597 g / cm^3
# Si number density = 22.166420 Si / 1000 Ang^3
#
#
#
# Elastic Constant Matrix: (Units=GPa)
#
#
# Indices 1 2 3 4 5 6 
#
# 1 107.7081 44.4764 51.8353 0.0000 0.0000 0.0000
# 2 44.4764 168.7994 23.3908 0.0000 0.0000 0.0000
# 3 51.8353 23.3908 86.3317 0.0000 0.0000 0.0000
# 4 0.0000 0.0000 0.0000 32.2715 0.0000 0.0000
# 5 0.0000 0.0000 0.0000 0.0000 13.7009 0.0000
# 6 0.0000 0.0000 0.0000 0.0000 0.0000 34.4624
#
#
#
# Elastic Compliance Matrix: (Units=1/GPa)
#
#
# Indices 1 2 3 4 5 6 
#
# 1 0.014107 -0.002643 -0.007754 0.000000 0.000000 0.000000
# 2 -0.002643 0.006650 -0.000215 0.000000 0.000000 0.000000
# 3 -0.007754 -0.000215 0.016297 0.000000 0.000000 0.000000
# 4 0.000000 0.000000 0.000000 0.030987 0.000000 0.000000
# 5 0.000000 0.000000 0.000000 0.000000 0.072988 0.000000
# 6 0.000000 0.000000 0.000000 0.000000 0.000000 0.029017
#
#
# Mechanical properties :
#
#
# Convention : Reuss Voigt Hill
#
# Bulk Modulus (GPa) = 63.16786 66.91602 65.04194
# Shear Modulus (GPa) = 25.43903 32.29608 28.86755
#
# Velocity S-wave (km/s) = 3.39136 3.82118 3.61267
# Velocity P-wave (km/s) = 6.62526 7.05139 6.84164
#
# Compressibility (1/GPa) = 0.01583084
#
# Stress axis : x y z
#
# Youngs Moduli (GPa) = 70.88469 150.36927 61.35938
#
# Poissons Ratio (x) = 0.39736 0.47580
# Poissons Ratio (y) = 0.18732 0.01320
# Poissons Ratio (z) = 0.54967 0.03236
#
# Static dielectric constant tensor:
#      x y z
#    x 3.815000 0.000000 0.000000 
#    y 0.000000 4.218010 0.000000 
#    z 0.000000 0.000000 4.076360 
# 
# 
# High freq. dielectric constant tensor:
#      x y z
#    x 1.847920 0.000000 0.000000 
#    y 0.000000 1.881480 0.000000 
#    z 0.000000 0.000000 1.881260 
# 
# From -- ./inp_files/38283.got.cif
#   From: 2010.03.12/outbox.cif.g09.slc.cpg/sg68_20_cif.got.tgz:38283.got - 2010.04.10 23:14:56.
