data_PCOD8283191
_publ_section_title
;
Structure prediction by ZEFSAII (Michael W. Deem and Ramdas Pophale) SiO2 
 PCOD8283191
Probable space group: C C C A
;
_chemical_formula_sum "Si O2"
_cell_formula_units_Z 96
_cell_length_a 13.933209
_cell_length_b 21.609000
_cell_length_c 14.772349
_cell_angle_alpha 90.000000
_cell_angle_beta 90.000000
_cell_angle_gamma 90.000000
_cell_volume 4447.698918
_symmetry_space_group_name_H-M "C C C A"
_symmetry_group_IT_number 68
_space_group.IT_coordinate_system_code '2'
_symmetry_cell_setting 'orthorhombic'
loop_
_space_group_symop_operation_xyz
x,y,z
-x,1/2-y,z
x,1/2-y,1/2-z
-x,y,1/2-z
-x,-y,-z
x,1/2+y,-z
-x,1/2+y,1/2+z
x,-y,1/2+z
1/2+x,1/2+y,z
1/2-x,-y,z
1/2+x,-y,1/2-z
1/2-x,1/2+y,1/2-z
1/2-x,1/2-y,-z
1/2+x,y,-z
1/2-x,y,1/2+z
1/2+x,1/2-y,1/2+z
loop_
_atom_site_type_symbol
_atom_site_label
_atom_site_fract_x
_atom_site_fract_y
_atom_site_fract_z
Si Si1 0.712405 0.845605 0.082597
Si Si2 0.386140 0.106619 0.097145
Si Si3 0.097355 0.273523 0.368549
Si Si4 0.580792 0.138404 0.029928
Si Si5 0.147979 0.473457 0.421146
Si Si6 0.212224 0.876536 0.719937
O O1 0.660893 0.779930 0.087018
O O2 0.826089 0.832827 0.077014
O O3 0.701188 0.887658 0.172818
O O4 0.675991 0.881910 0.994261
O O5 0.487859 0.142196 0.095496
O O6 0.322458 0.127442 0.183538
O O7 0.414422 0.033913 0.102840
O O8 0.057175 0.320254 0.443656
O O9 0.161685 0.310167 0.296141
O O10 0.000000 0.250000 0.320474
O O11 0.599302 0.067291 0.999517
O O12 0.250000 0.500000 0.454660
O O13 0.159161 0.432527 0.330304
#
# Coordination Sequence:
#
# PCOD8283191 Si02
#       6
#    16  16  16  16  16  16
#     4  12  23  40  67  93 130 172 210 259 336 369
#     4  11  22  43  66  93 130 167 217 265 313 386
#     4  11  22  42  66  97 125 166 214 272 309 386
#     4  11  22  39  70  93 123 171 213 258 330 377
#     4   9  18  42  62  88 130 161 210 270 303 369
#     4  10  24  41  63  97 133 167 212 267 319 381
#
# _framework density 21.584195000000001
#
# number of rings (size 3 to 8) (size 9 to 14) (size 15 to 20)
#    0.000    1.333    6.667    1.500    0.000    2.000 
#    9.000    0.000    7.333    2.000    0.000    0.000 
#    0.000    0.000    0.000    0.000    0.000    0.000 
#
# Total GULP energy -594974.924780 kJ/mol
# GULP energy per Si atom -12395.310933 kJ/mol
# Density = 2.153507 g / cm^3
# Si number density = 21.584195 Si / 1000 Ang^3
#
#
#
# Elastic Constant Matrix: (Units=GPa)
#
#
# Indices 1 2 3 4 5 6 
#
# 1 125.8447 31.6587 4.7572 0.0000 0.0000 0.0000
# 2 31.6587 88.9594 17.1662 0.0000 0.0000 0.0000
# 3 4.7572 17.1662 53.1429 0.0000 0.0000 0.0000
# 4 0.0000 0.0000 0.0000 7.1817 0.0000 0.0000
# 5 0.0000 0.0000 0.0000 0.0000 -7.3837 0.0000
# 6 0.0000 0.0000 0.0000 0.0000 0.0000 31.5126
#
#
#
# Elastic Compliance Matrix: (Units=1/GPa)
#
#
# Indices 1 2 3 4 5 6 
#
# 1 0.008730 -0.003153 0.000237 0.000000 0.000000 0.000000
# 2 -0.003153 0.013127 -0.003958 0.000000 0.000000 0.000000
# 3 0.000237 -0.003958 0.020075 0.000000 0.000000 0.000000
# 4 0.000000 0.000000 0.000000 0.139243 0.000000 0.000000
# 5 0.000000 0.000000 0.000000 0.000000 -0.135434 0.000000
# 6 0.000000 0.000000 0.000000 0.000000 0.000000 0.031733
#
#
# Mechanical properties :
#
#
# Convention : Reuss Voigt Hill
#
# Bulk Modulus (GPa) = 35.48097 41.67901 38.57999
# Shear Modulus (GPa) = 49.69360 20.55311 35.12336
#
# Velocity S-wave (km/s) = 4.80345 3.08917 4.03832
# Velocity P-wave (km/s) = 6.87301 5.66355 6.29738
#
# Compressibility (1/GPa) = 0.02818412
#
# Stress axis : x y z
#
# Youngs Moduli (GPa) = 114.54144 76.17996 49.81444
#
# Poissons Ratio (x) = 0.24017 -0.01180
# Poissons Ratio (y) = 0.36111 0.19717
# Poissons Ratio (z) = -0.02713 0.30152
#
# Static dielectric constant tensor:
#      x y z
#    x 3.966880 0.000000 0.000000 
#    y 0.000000 4.194590 0.000000 
#    z 0.000000 0.000000 3.631340 
# 
# 
# High freq. dielectric constant tensor:
#      x y z
#    x 1.851190 0.000000 0.000000 
#    y 0.000000 1.853280 0.000000 
#    z 0.000000 0.000000 1.826160 
# 
# From -- ./inp_files/22331.got.cif
#   From: 2010.03.12/outbox.cif.g09.slc.cpg/sg68_12_cif.got.tgz:22331.got - 2010.04.10 23:14:56.
