data_PCOD8283781
_publ_section_title
;
Structure prediction by ZEFSAII (Michael W. Deem and Ramdas Pophale) SiO2 
 PCOD8283781
Probable space group: F M M M
;
_chemical_formula_sum "Si O2"
_cell_formula_units_Z 192
_cell_length_a 18.407312
_cell_length_b 33.673800
_cell_length_c 24.509841
_cell_angle_alpha 90.000000
_cell_angle_beta 90.000000
_cell_angle_gamma 90.000000
_cell_volume 15192.281385
_symmetry_space_group_name_H-M "F M M M"
_symmetry_group_IT_number 69
_symmetry_cell_setting 'orthorhombic'
loop_
_space_group_symop_operation_xyz
x,y,z
-x,-y,z
x,-y,-z
-x,y,-z
-x,-y,-z
x,y,-z
-x,y,z
x,-y,z
x,1/2+y,1/2+z
-x,1/2-y,1/2+z
x,1/2-y,1/2-z
-x,1/2+y,1/2-z
-x,1/2-y,1/2-z
x,1/2+y,1/2-z
-x,1/2+y,1/2+z
x,1/2-y,1/2+z
1/2+x,y,1/2+z
1/2-x,-y,1/2+z
1/2+x,-y,1/2-z
1/2-x,y,1/2-z
1/2-x,-y,1/2-z
1/2+x,y,1/2-z
1/2-x,y,1/2+z
1/2+x,-y,1/2+z
1/2+x,1/2+y,z
1/2-x,1/2-y,z
1/2+x,1/2-y,-z
1/2-x,1/2+y,-z
1/2-x,1/2-y,-z
1/2+x,1/2+y,-z
1/2-x,1/2+y,z
1/2+x,1/2-y,z
loop_
_atom_site_type_symbol
_atom_site_label
_atom_site_fract_x
_atom_site_fract_y
_atom_site_fract_z
Si Si1 0.674408 0.838459 0.221622
Si Si2 0.174653 0.267565 0.136125
Si Si3 0.919409 0.316193 0.060981
Si Si4 0.913745 0.044825 0.439141
Si Si5 0.917004 0.111296 0.358155
Si Si6 0.419382 0.285275 0.792855
O O1 0.750000 0.851720 0.250000
O O2 0.688275 0.801372 0.181532
O O3 0.637418 0.876037 0.190782
O O4 0.618458 0.824215 0.267918
O O5 0.250000 0.250000 0.116423
O O6 0.136729 0.284024 0.082461
O O7 0.126624 0.230876 0.156795
O O8 0.917343 0.355030 0.096905
O O9 0.000000 0.297433 0.063400
O O10 0.897501 0.328332 0.000000
O O11 0.885069 0.057140 0.500000
O O12 0.885104 0.072639 0.389713
O O13 0.000000 0.048098 0.440066
O O14 0.888494 0.000000 0.426077
O O15 0.000000 0.104894 0.336154
O O16 0.500000 0.297685 0.812203
O O17 0.425237 0.250000 0.750000
#
# Coordination Sequence:
#
# PCOD8283781 Si02
#       6
#    32  32  32  32  32  32
#     4  10  17  25  36  50  70  95 121 152 187 214
#     4  10  17  25  37  50  67  90 119 156 190 217
#     4   9  17  27  37  50  70  94 118 145 180 220
#     4   8  13  22  38  59  79  97 116 139 169 205
#     4   9  16  25  38  55  74  94 119 147 175 211
#     4   9  16  24  36  50  65  87 119 157 191 219
#
# _framework density 12.637997
#
# number of rings (size 3 to 8) (size 9 to 14) (size 15 to 20)
#    0.000    2.833    1.667    2.000    0.000    6.333 
#    0.000    0.000    0.000    0.500    0.000    0.000 
#    0.000    0.000    0.000    0.000    0.000    0.000 
#
# Total GULP energy -594836.747269 kJ/mol
# GULP energy per Si atom -12392.432235 kJ/mol
# Density = 1.260923 g / cm^3
# Si number density = 12.637997 Si / 1000 Ang^3
#
#
#
# Elastic Constant Matrix: (Units=GPa)
#
#
# Indices 1 2 3 4 5 6 
#
# 1 81.1924 28.1934 33.0161 0.0000 0.0000 0.0000
# 2 28.1934 55.2880 24.3063 0.0000 0.0000 0.0000
# 3 33.0161 24.3063 49.1608 0.0000 0.0000 0.0000
# 4 0.0000 0.0000 0.0000 19.2200 0.0000 0.0000
# 5 0.0000 0.0000 0.0000 0.0000 6.2420 0.0000
# 6 0.0000 0.0000 0.0000 0.0000 0.0000 7.7246
#
#
#
# Elastic Compliance Matrix: (Units=1/GPa)
#
#
# Indices 1 2 3 4 5 6 
#
# 1 0.017933 -0.004919 -0.009612 0.000000 0.000000 0.000000
# 2 -0.004919 0.024460 -0.008790 0.000000 0.000000 0.000000
# 3 -0.009612 -0.008790 0.031142 0.000000 0.000000 0.000000
# 4 0.000000 0.000000 0.000000 0.052029 0.000000 0.000000
# 5 0.000000 0.000000 0.000000 0.000000 0.160205 0.000000
# 6 0.000000 0.000000 0.000000 0.000000 0.000000 0.129457
#
#
# Mechanical properties :
#
#
# Convention : Reuss Voigt Hill
#
# Bulk Modulus (GPa) = 37.18291 39.63033 38.40662
# Shear Modulus (GPa) = 10.61951 13.31234 11.96592
#
# Velocity S-wave (km/s) = 2.90191 3.24907 3.08038
# Velocity P-wave (km/s) = 6.38071 6.74547 6.56563
#
# Compressibility (1/GPa) = 0.02689408
#
# Stress axis : x y z
#
# Youngs Moduli (GPa) = 55.76310 40.88327 32.11061
#
# Poissons Ratio (x) = 0.20111 0.30863
# Poissons Ratio (y) = 0.27431 0.28225
# Poissons Ratio (z) = 0.53597 0.35936
#
# Static dielectric constant tensor:
#      x y z
#    x 2.568290 0.000000 0.000000 
#    y 0.000000 2.505150 0.000000 
#    z 0.000000 0.000000 2.546720 
# 
# 
# High freq. dielectric constant tensor:
#      x y z
#    x 1.465920 0.000000 0.000000 
#    y 0.000000 1.451670 0.000000 
#    z 0.000000 0.000000 1.466110 
# 
# From -- ./inp_files/33605.got.cif
#   From: 2010.03.12/outbox.cif.g09.slc.cpg/sg69_17_cif.got.tgz:33605.got - 2010.04.10 23:52:46.
