data_PCOD8283514
_publ_section_title
;
Structure prediction by ZEFSAII (Michael W. Deem and Ramdas Pophale) SiO2 
 PCOD8283514
Probable space group: C C C A
;
_chemical_formula_sum "Si O2"
_cell_formula_units_Z 112
_cell_length_a 13.984886
_cell_length_b 28.997613
_cell_length_c 14.762957
_cell_angle_alpha 90.000000
_cell_angle_beta 90.000000
_cell_angle_gamma 90.000000
_cell_volume 5986.797033
_symmetry_space_group_name_H-M "C C C A"
_symmetry_group_IT_number 68
_space_group.IT_coordinate_system_code '2'
_symmetry_cell_setting 'orthorhombic'
loop_
_space_group_symop_operation_xyz
x,y,z
-x,1/2-y,z
x,1/2-y,1/2-z
-x,y,1/2-z
-x,-y,-z
x,1/2+y,-z
-x,1/2+y,1/2+z
x,-y,1/2+z
1/2+x,1/2+y,z
1/2-x,-y,z
1/2+x,-y,1/2-z
1/2-x,1/2+y,1/2-z
1/2-x,1/2-y,-z
1/2+x,y,-z
1/2-x,y,1/2+z
1/2+x,1/2-y,1/2+z
loop_
_atom_site_type_symbol
_atom_site_label
_atom_site_fract_x
_atom_site_fract_y
_atom_site_fract_z
Si Si1 0.818776 0.894545 0.396043
Si Si2 0.596138 0.026471 0.694541
Si Si3 0.703386 0.064587 0.207087
Si Si4 0.468329 0.552869 0.006998
Si Si5 0.346212 0.887081 0.969389
Si Si6 0.888244 0.197947 0.844413
Si Si7 0.613271 0.799446 0.641759
O O1 0.826167 0.902789 0.288932
O O2 0.884261 0.934838 0.437580
O O3 0.713350 0.895249 0.438959
O O4 0.855437 0.842568 0.412198
O O5 0.500000 0.033464 0.750000
O O6 0.693643 0.045324 0.739185
O O7 0.578605 0.056619 0.605246
O O8 0.619244 0.972295 0.683950
O O9 0.712980 0.091587 0.113576
O O10 0.500000 0.500000 0.000000
O O11 0.552958 0.588838 0.989400
O O12 0.357253 0.833607 0.940039
O O13 0.846410 0.188866 0.742594
O O14 0.852124 0.247490 0.882910
O O15 0.001084 0.198315 0.845221
#
# Coordination Sequence:
#
# PCOD8283514 Si02
#       7
#    16  16  16  16  16  16  16
#     4  12  24  38  62  89 116 161 208 246 303 369
#     4  11  23  43  58  81 120 163 200 252 304 350
#     4  11  24  40  59  87 118 157 208 248 299 364
#     4  12  24  38  60  86 118 157 202 251 298 353
#     4  12  23  38  62  89 121 156 206 253 298 367
#     4   9  18  35  61  91 115 153 197 240 317 367
#     4   9  18  35  62  89 120 148 191 257 304 366
#
# _framework density 18.707833000000001
#
# number of rings (size 3 to 8) (size 9 to 14) (size 15 to 20)
#    0.000    1.143    5.714    2.571    0.000    2.286 
#    0.000    0.000    0.000    0.000    0.000    0.000 
#    0.000    4.571    0.000    0.000    0.000    0.000 
#
# Total GULP energy -693789.462332 kJ/mol
# GULP energy per Si atom -12389.097542 kJ/mol
# Density = 1.866525 g / cm^3
# Si number density = 18.707833 Si / 1000 Ang^3
#
#
#
# Elastic Constant Matrix: (Units=GPa)
#
#
# Indices 1 2 3 4 5 6 
#
# 1 72.9074 24.1402 17.6302 0.0000 0.0000 0.0000
# 2 24.1402 119.3844 31.7507 0.0000 0.0000 0.0000
# 3 17.6302 31.7507 72.1997 0.0000 0.0000 0.0000
# 4 0.0000 0.0000 0.0000 29.8641 0.0000 0.0000
# 5 0.0000 0.0000 0.0000 0.0000 27.6300 0.0000
# 6 0.0000 0.0000 0.0000 0.0000 0.0000 18.9587
#
#
#
# Elastic Compliance Matrix: (Units=1/GPa)
#
#
# Indices 1 2 3 4 5 6 
#
# 1 0.015139 -0.002353 -0.002662 0.000000 0.000000 0.000000
# 2 -0.002353 0.009852 -0.003758 0.000000 0.000000 0.000000
# 3 -0.002662 -0.003758 0.016153 0.000000 0.000000 0.000000
# 4 0.000000 0.000000 0.000000 0.033485 0.000000 0.000000
# 5 0.000000 0.000000 0.000000 0.000000 0.036192 0.000000
# 6 0.000000 0.000000 0.000000 0.000000 0.000000 0.052746
#
#
# Mechanical properties :
#
#
# Convention : Reuss Voigt Hill
#
# Bulk Modulus (GPa) = 42.37686 45.72597 44.05142
# Shear Modulus (GPa) = 26.45802 28.02192 27.23997
#
# Velocity S-wave (km/s) = 3.76476 3.87443 3.81999
# Velocity P-wave (km/s) = 6.44973 6.67160 6.56160
#
# Compressibility (1/GPa) = 0.02359779
#
# Stress axis : x y z
#
# Youngs Moduli (GPa) = 66.05503 101.50724 61.90814
#
# Poissons Ratio (x) = 0.23887 0.16479
# Poissons Ratio (y) = 0.15544 0.23263
# Poissons Ratio (z) = 0.17583 0.38143
#
# Static dielectric constant tensor:
#      x y z
#    x 3.265260 0.000000 0.000000 
#    y 0.000000 3.809390 0.000000 
#    z 0.000000 0.000000 3.650170 
# 
# 
# High freq. dielectric constant tensor:
#      x y z
#    x 1.715650 0.000000 0.000000 
#    y 0.000000 1.733070 0.000000 
#    z 0.000000 0.000000 1.716340 
# 
# From -- ./inp_files/21270.got.cif
#   From: 2010.03.12/outbox.cif.g09.slc.cpg/sg68_11_cif.got.tgz:21270.got - 2010.04.10 23:14:56.
