data_PCOD8283869
_publ_section_title
;
Structure prediction by ZEFSAII (Michael W. Deem and Ramdas Pophale) SiO2 
 PCOD8283869
Probable space group: F M M M
;
_chemical_formula_sum "Si O2"
_cell_formula_units_Z 128
_cell_length_a 10.001329
_cell_length_b 25.081310
_cell_length_c 31.234095
_cell_angle_alpha 90.000000
_cell_angle_beta 90.000000
_cell_angle_gamma 90.000000
_cell_volume 7834.961321
_symmetry_space_group_name_H-M "F M M M"
_symmetry_group_IT_number 69
_symmetry_cell_setting 'orthorhombic'
loop_
_space_group_symop_operation_xyz
x,y,z
-x,-y,z
x,-y,-z
-x,y,-z
-x,-y,-z
x,y,-z
-x,y,z
x,-y,z
x,1/2+y,1/2+z
-x,1/2-y,1/2+z
x,1/2-y,1/2-z
-x,1/2+y,1/2-z
-x,1/2-y,1/2-z
x,1/2+y,1/2-z
-x,1/2+y,1/2+z
x,1/2-y,1/2+z
1/2+x,y,1/2+z
1/2-x,-y,1/2+z
1/2+x,-y,1/2-z
1/2-x,y,1/2-z
1/2-x,-y,1/2-z
1/2+x,y,1/2-z
1/2-x,y,1/2+z
1/2+x,-y,1/2+z
1/2+x,1/2+y,z
1/2-x,1/2-y,z
1/2+x,1/2-y,-z
1/2-x,1/2+y,-z
1/2-x,1/2-y,-z
1/2+x,1/2+y,-z
1/2-x,1/2+y,z
1/2+x,1/2-y,z
loop_
_atom_site_type_symbol
_atom_site_label
_atom_site_fract_x
_atom_site_fract_y
_atom_site_fract_z
Si Si1 0.780067 0.436816 0.650633
Si Si2 0.646021 0.060434 0.000000
Si Si3 0.849012 0.607414 0.562066
Si Si4 0.149339 0.298335 0.500000
Si Si5 0.500000 0.937596 0.717644
Si Si6 0.500000 0.937215 0.812198
O O1 0.795760 0.500000 0.639201
O O2 0.831221 0.398424 0.612783
O O3 0.628978 0.419905 0.660844
O O4 0.867366 0.421278 0.691903
O O5 0.734359 0.071108 0.958202
O O6 0.500000 0.090837 0.000000
O O7 0.607235 0.000000 0.000000
O O8 0.826995 0.666815 0.543152
O O9 0.000000 0.588954 0.549522
O O10 0.250000 0.250000 0.500000
O O11 0.000000 0.274813 0.500000
O O12 0.500000 0.910429 0.764759
O O13 0.500000 0.000000 0.724670
O O14 0.500000 0.000000 0.806089
#
# Coordination Sequence:
#
# PCOD8283869 Si02
#       6
#    32  16  32  16  16  16
#     4  10  18  28  45  68  99 133 166 199 226 265
#     4  10  21  31  43  65  96 128 158 192 230 271
#     4  10  20  34  50  69  93 124 160 193 232 286
#     4   9  20  38  56  72  91 114 146 196 249 296
#     4   9  16  28  44  63  91 136 174 195 229 268
#     4   9  18  28  40  63  99 136 168 201 231 260
#
# _framework density 16.337031
#
# number of rings (size 3 to 8) (size 9 to 14) (size 15 to 20)
#    0.000    2.375    1.250    2.625    1.750    7.000 
#    0.000    0.000    0.000    0.000    0.000    0.000 
#    0.000    6.000    0.000    0.000    0.000    0.000 
#
# Total GULP energy -396513.180848 kJ/mol
# GULP energy per Si atom -12391.036901 kJ/mol
# Density = 1.629985 g / cm^3
# Si number density = 16.337031 Si / 1000 Ang^3
#
#
#
# Elastic Constant Matrix: (Units=GPa)
#
#
# Indices 1 2 3 4 5 6 
#
# 1 151.6813 37.7223 42.4909 0.0000 0.0000 0.0000
# 2 37.7223 51.0542 31.8510 0.0000 0.0000 0.0000
# 3 42.4909 31.8510 99.2858 0.0000 0.0000 0.0000
# 4 0.0000 0.0000 0.0000 11.3900 0.0000 0.0000
# 5 0.0000 0.0000 0.0000 0.0000 -11.8778 0.0000
# 6 0.0000 0.0000 0.0000 0.0000 0.0000 20.3743
#
#
#
# Elastic Compliance Matrix: (Units=1/GPa)
#
#
# Indices 1 2 3 4 5 6 
#
# 1 0.008383 -0.004946 -0.002001 0.000000 0.000000 0.000000
# 2 -0.004946 0.027406 -0.006675 0.000000 0.000000 0.000000
# 3 -0.002001 -0.006675 0.013070 0.000000 0.000000 0.000000
# 4 0.000000 0.000000 0.000000 0.087797 0.000000 0.000000
# 5 0.000000 0.000000 0.000000 0.000000 -0.084191 0.000000
# 6 0.000000 0.000000 0.000000 0.000000 0.000000 0.049081
#
#
# Mechanical properties :
#
#
# Convention : Reuss Voigt Hill
#
# Bulk Modulus (GPa) = 46.26493 58.46106 52.36300
# Shear Modulus (GPa) = 36.76603 16.64111 26.70357
#
# Velocity S-wave (km/s) = 4.74906 3.19503 4.04733
# Velocity P-wave (km/s) = 7.64539 7.03371 7.34592
#
# Compressibility (1/GPa) = 0.02161464
#
# Stress axis : x y z
#
# Youngs Moduli (GPa) = 119.28424 36.48883 76.51240
#
# Poissons Ratio (x) = 0.18046 0.15312
# Poissons Ratio (y) = 0.58994 0.51073
# Poissons Ratio (z) = 0.23871 0.24357
#
# Static dielectric constant tensor:
#      x y z
#    x 3.435080 0.000000 0.000000 
#    y 0.000000 2.501360 0.000000 
#    z 0.000000 0.000000 3.266060 
# 
# 
# High freq. dielectric constant tensor:
#      x y z
#    x 1.658060 0.000000 0.000000 
#    y 0.000000 1.551700 0.000000 
#    z 0.000000 0.000000 1.635200 
# 
# From -- ./inp_files/43779.got.cif
#   From: 2010.03.12/outbox.cif.g09.slc.cpg/sg69_22_cif.got.tgz:43779.got - 2010.04.10 23:52:46.
