data_PCOD8283287
_publ_section_title
;
Structure prediction by ZEFSAII (Michael W. Deem and Ramdas Pophale) SiO2 
 PCOD8283287
Probable space group: C C C A
;
_chemical_formula_sum "Si O2"
_cell_formula_units_Z 120
_cell_length_a 22.906736
_cell_length_b 19.333199
_cell_length_c 12.777716
_cell_angle_alpha 90.000000
_cell_angle_beta 90.000000
_cell_angle_gamma 90.000000
_cell_volume 5658.745512
_symmetry_space_group_name_H-M "C C C A"
_symmetry_group_IT_number 68
_space_group.IT_coordinate_system_code '2'
_symmetry_cell_setting 'orthorhombic'
loop_
_space_group_symop_operation_xyz
x,y,z
-x,1/2-y,z
x,1/2-y,1/2-z
-x,y,1/2-z
-x,-y,-z
x,1/2+y,-z
-x,1/2+y,1/2+z
x,-y,1/2+z
1/2+x,1/2+y,z
1/2-x,-y,z
1/2+x,-y,1/2-z
1/2-x,1/2+y,1/2-z
1/2-x,1/2-y,-z
1/2+x,y,-z
1/2-x,y,1/2+z
1/2+x,1/2-y,1/2+z
loop_
_atom_site_type_symbol
_atom_site_label
_atom_site_fract_x
_atom_site_fract_y
_atom_site_fract_z
Si Si1 0.470599 0.961537 0.855302
Si Si2 0.175566 0.621329 0.760387
Si Si3 0.925608 0.796545 0.850436
Si Si4 0.337048 0.467334 0.193301
Si Si5 0.016181 0.106408 0.447514
Si Si6 0.863701 0.176761 0.048183
Si Si7 0.250000 0.000000 0.476888
Si Si8 0.291154 0.382226 0.375046
O O1 0.500000 0.935146 0.750000
O O2 0.401747 0.966421 0.849068
O O3 0.496158 0.037173 0.881661
O O4 0.487769 0.903675 0.939342
O O5 0.115411 0.639390 0.818565
O O6 0.180126 0.539149 0.749238
O O7 0.177684 0.659115 0.647591
O O8 0.229442 0.646994 0.832593
O O9 0.939234 0.750000 0.750000
O O10 0.892496 0.752310 0.939623
O O11 0.986549 0.827282 0.892169
O O12 0.294765 0.456280 0.094487
O O13 0.329194 0.405348 0.275356
O O14 0.085259 0.119145 0.457103
O O15 0.825809 0.176298 0.941193
O O16 0.285352 0.946818 0.547393
#
# Coordination Sequence:
#
# PCOD8283287 Si02
#       8
#    16  16  16  16  16  16   8  16
#     4  11  24  38  64  99 135 162 202 274 333 397
#     4  11  21  38  60  96 125 161 213 265 322 376
#     4  10  25  41  67  93 125 170 217 273 316 377
#     4  12  21  38  58  97 128 161 212 256 328 396
#     4  11  23  42  65  99 129 171 211 267 341 385
#     4  11  23  42  61  90 127 167 217 266 305 388
#     4  12  20  34  60  94 120 168 200 260 328 386
#     4  12  22  37  65  89 131 172 208 263 327 386
#
# _framework density 21.206113999999999
#
# number of rings (size 3 to 8) (size 9 to 14) (size 15 to 20)
#    0.000    0.800    5.333    2.000    3.733    4.267 
#    0.000    0.000    0.000    4.800    0.000    0.000 
#    0.000    0.000    0.000    0.000    0.000    0.000 
#
# Total GULP energy -744334.194321 kJ/mol
# GULP energy per Si atom -12405.569905 kJ/mol
# Density = 2.115785 g / cm^3
# Si number density = 21.206114 Si / 1000 Ang^3
#
#
#
# Elastic Constant Matrix: (Units=GPa)
#
#
# Indices 1 2 3 4 5 6 
#
# 1 115.2761 16.6878 61.5652 0.0000 0.0000 0.0000
# 2 16.6878 45.4979 24.6682 0.0000 0.0000 0.0000
# 3 61.5652 24.6682 128.3751 0.0000 0.0000 0.0000
# 4 0.0000 0.0000 0.0000 28.9562 0.0000 0.0000
# 5 0.0000 0.0000 0.0000 0.0000 43.9938 0.0000
# 6 0.0000 0.0000 0.0000 0.0000 0.0000 25.9545
#
#
#
# Elastic Compliance Matrix: (Units=1/GPa)
#
#
# Indices 1 2 3 4 5 6 
#
# 1 0.011741 -0.001399 -0.005362 0.000000 0.000000 0.000000
# 2 -0.001399 0.024702 -0.004076 0.000000 0.000000 0.000000
# 3 -0.005362 -0.004076 0.011144 0.000000 0.000000 0.000000
# 4 0.000000 0.000000 0.000000 0.034535 0.000000 0.000000
# 5 0.000000 0.000000 0.000000 0.000000 0.022730 0.000000
# 6 0.000000 0.000000 0.000000 0.000000 0.000000 0.038529
#
#
# Mechanical properties :
#
#
# Convention : Reuss Voigt Hill
#
# Bulk Modulus (GPa) = 38.58949 54.99905 46.79427
# Shear Modulus (GPa) = 28.78649 32.19611 30.49130
#
# Velocity S-wave (km/s) = 3.68837 3.90070 3.79602
# Velocity P-wave (km/s) = 6.03122 6.80287 6.42863
#
# Compressibility (1/GPa) = 0.02591379
#
# Stress axis : x y z
#
# Youngs Moduli (GPa) = 85.17214 40.48258 89.73297
#
# Poissons Ratio (x) = 0.05665 0.48112
# Poissons Ratio (y) = 0.11918 0.36572
# Poissons Ratio (z) = 0.45667 0.16499
#
# Static dielectric constant tensor:
#      x y z
#    x 3.779950 0.000000 0.000000 
#    y 0.000000 3.656540 0.000000 
#    z 0.000000 0.000000 3.957490 
# 
# 
# High freq. dielectric constant tensor:
#      x y z
#    x 1.843930 0.000000 0.000000 
#    y 0.000000 1.802200 0.000000 
#    z 0.000000 0.000000 1.835580 
# 
# From -- ./inp_files/16604.got.cif
#   From: 2010.03.12/outbox.cif.g09.slc.cpg/sg68_9_cif.got.tgz:16604.got - 2010.04.10 23:14:56.
