data_PCOD8283144
_publ_section_title
;
Structure prediction by ZEFSAII (Michael W. Deem and Ramdas Pophale) SiO2 
 PCOD8283144
Probable space group: C C C A
;
_chemical_formula_sum "Si O2"
_cell_formula_units_Z 100
_cell_length_a 8.774710
_cell_length_b 20.004352
_cell_length_c 27.161713
_cell_angle_alpha 90.000000
_cell_angle_beta 90.000000
_cell_angle_gamma 90.000000
_cell_volume 4767.760333
_symmetry_space_group_name_H-M "C C C A"
_symmetry_group_IT_number 68
_space_group.IT_coordinate_system_code '2'
_symmetry_cell_setting 'orthorhombic'
loop_
_space_group_symop_operation_xyz
x,y,z
-x,1/2-y,z
x,1/2-y,1/2-z
-x,y,1/2-z
-x,-y,-z
x,1/2+y,-z
-x,1/2+y,1/2+z
x,-y,1/2+z
1/2+x,1/2+y,z
1/2-x,-y,z
1/2+x,-y,1/2-z
1/2-x,1/2+y,1/2-z
1/2-x,1/2-y,-z
1/2+x,y,-z
1/2-x,y,1/2+z
1/2+x,1/2-y,1/2+z
loop_
_atom_site_type_symbol
_atom_site_label
_atom_site_fract_x
_atom_site_fract_y
_atom_site_fract_z
Si Si1 0.617402 0.449842 0.294179
Si Si2 0.038081 0.622443 0.938009
Si Si3 0.000000 0.250000 0.130475
Si Si4 0.376972 0.874195 0.538863
Si Si5 0.705613 0.812980 0.670739
Si Si6 0.500000 0.750000 0.750000
Si Si7 0.570970 0.489793 0.112080
Si Si8 0.500000 0.250000 0.409139
O O1 0.500000 0.430128 0.250000
O O2 0.750000 0.500000 0.275482
O O3 0.719180 0.391639 0.319783
O O4 0.507077 0.477021 0.336158
O O5 0.200143 0.609442 0.962269
O O6 0.992432 0.557658 0.906714
O O7 0.043233 0.687635 0.903716
O O8 0.919527 0.627075 0.981933
O O9 0.135070 0.273392 0.166905
O O10 0.460162 0.929870 0.572818
O O11 0.400376 0.799237 0.558041
O O12 0.610988 0.793749 0.718046
O O13 0.612021 0.796702 0.621790
O O14 0.750000 0.500000 0.121548
#
# Coordination Sequence:
#
# PCOD8283144 Si02
#       8
#    16  16   8  16  16   4  16   8
#     4  12  25  46  71 104 135 182 230 287 358 428
#     4  11  25  40  63 100 137 184 233 289 341 416
#     4  12  25  43  65 104 138 176 228 290 351 406
#     4  11  23  40  65  94 137 182 236 284 345 413
#     4  11  24  45  71  99 138 177 228 287 353 419
#     4  10  24  46  74  96 128 182 230 270 358 438
#     4  10  23  44  67  96 137 182 233 292 351 414
#     4  11  21  41  70  94 130 186 227 284 344 424
#
# _framework density 20.974208999999998
#
# number of rings (size 3 to 8) (size 9 to 14) (size 15 to 20)
#    0.000    0.960    4.000    2.400    2.240    2.880 
#    5.760    0.000    0.000    0.000    0.000    0.000 
#    0.000    0.000    0.000    0.000    0.000    0.000 
#
# Total GULP energy -619802.600517 kJ/mol
# GULP energy per Si atom -12396.052010 kJ/mol
# Density = 2.092647 g / cm^3
# Si number density = 20.974209 Si / 1000 Ang^3
#
#
#
# Elastic Constant Matrix: (Units=GPa)
#
#
# Indices 1 2 3 4 5 6 
#
# 1 97.2258 31.9787 51.1593 0.0000 0.0000 0.0000
# 2 31.9787 139.5065 53.7678 0.0000 0.0000 0.0000
# 3 51.1593 53.7678 127.3938 0.0000 0.0000 0.0000
# 4 0.0000 0.0000 0.0000 37.8317 0.0000 0.0000
# 5 0.0000 0.0000 0.0000 0.0000 37.9602 0.0000
# 6 0.0000 0.0000 0.0000 0.0000 0.0000 33.7283
#
#
#
# Elastic Compliance Matrix: (Units=1/GPa)
#
#
# Indices 1 2 3 4 5 6 
#
# 1 0.013200 -0.001174 -0.004806 0.000000 0.000000 0.000000
# 2 -0.001174 0.008665 -0.003186 0.000000 0.000000 0.000000
# 3 -0.004806 -0.003186 0.011124 0.000000 0.000000 0.000000
# 4 0.000000 0.000000 0.000000 0.026433 0.000000 0.000000
# 5 0.000000 0.000000 0.000000 0.000000 0.026343 0.000000
# 6 0.000000 0.000000 0.000000 0.000000 0.000000 0.029649
#
#
# Mechanical properties :
#
#
# Convention : Reuss Voigt Hill
#
# Bulk Modulus (GPa) = 68.21728 70.88196 69.54962
# Shear Modulus (GPa) = 36.06709 37.05206 36.55957
#
# Velocity S-wave (km/s) = 4.15130 4.20760 4.17954
# Velocity P-wave (km/s) = 7.45471 7.58112 7.51818
#
# Compressibility (1/GPa) = 0.01465904
#
# Stress axis : x y z
#
# Youngs Moduli (GPa) = 75.75758 115.40650 89.89475
#
# Poissons Ratio (x) = 0.13545 0.43199
# Poissons Ratio (y) = 0.08891 0.28639
# Poissons Ratio (z) = 0.36406 0.36767
#
# Static dielectric constant tensor:
#      x y z
#    x 3.947240 0.000000 0.000000 
#    y 0.000000 4.214990 0.000000 
#    z 0.000000 0.000000 3.694500 
# 
# 
# High freq. dielectric constant tensor:
#      x y z
#    x 1.822370 0.000000 0.000000 
#    y 0.000000 1.837840 0.000000 
#    z 0.000000 0.000000 1.825160 
# 
# From -- ./inp_files/49485.got.cif
#   From: 2010.03.12/outbox.cif.g09.slc.cpg/sg68_25_cif.got.tgz:49485.got - 2010.04.10 23:14:56.
