data_PCOD8283787
_publ_section_title
;
Structure prediction by ZEFSAII (Michael W. Deem and Ramdas Pophale) SiO2 
 PCOD8283787
Probable space group: F M M M
;
_chemical_formula_sum "Si O2"
_cell_formula_units_Z 160
_cell_length_a 26.622812
_cell_length_b 20.706634
_cell_length_c 17.916036
_cell_angle_alpha 90.000000
_cell_angle_beta 90.000000
_cell_angle_gamma 90.000000
_cell_volume 9876.552099
_symmetry_space_group_name_H-M "F M M M"
_symmetry_group_IT_number 69
_symmetry_cell_setting 'orthorhombic'
loop_
_space_group_symop_operation_xyz
x,y,z
-x,-y,z
x,-y,-z
-x,y,-z
-x,-y,-z
x,y,-z
-x,y,z
x,-y,z
x,1/2+y,1/2+z
-x,1/2-y,1/2+z
x,1/2-y,1/2-z
-x,1/2+y,1/2-z
-x,1/2-y,1/2-z
x,1/2+y,1/2-z
-x,1/2+y,1/2+z
x,1/2-y,1/2+z
1/2+x,y,1/2+z
1/2-x,-y,1/2+z
1/2+x,-y,1/2-z
1/2-x,y,1/2-z
1/2-x,-y,1/2-z
1/2+x,y,1/2-z
1/2-x,y,1/2+z
1/2+x,-y,1/2+z
1/2+x,1/2+y,z
1/2-x,1/2-y,z
1/2+x,1/2-y,-z
1/2-x,1/2+y,-z
1/2-x,1/2-y,-z
1/2+x,1/2+y,-z
1/2-x,1/2+y,z
1/2+x,1/2-y,z
loop_
_atom_site_type_symbol
_atom_site_label
_atom_site_fract_x
_atom_site_fract_y
_atom_site_fract_z
Si Si1 0.866990 0.820353 0.727348
Si Si2 0.193572 0.812128 0.413780
Si Si3 0.700561 0.168007 0.632589
Si Si4 0.057818 0.925585 0.777758
Si Si5 0.618354 0.571933 0.918197
O O1 0.890046 0.750000 0.750000
O O2 0.852931 0.827479 0.640505
O O3 0.817851 0.828794 0.781064
O O4 0.908149 0.876338 0.731898
O O5 0.184176 0.833735 0.500000
O O6 0.240930 0.850890 0.377103
O O7 0.198691 0.735276 0.411224
O O8 0.665856 0.117738 0.590330
O O9 0.071970 0.913444 0.863889
O O10 0.000000 0.907944 0.765270
O O11 0.068580 0.000000 0.754076
O O12 0.639271 0.500000 0.904558
O O13 0.595247 0.580650 0.000000
#
# Coordination Sequence:
#
# PCOD8283787 Si02
#       5
#    32  32  32  32  32
#     4   9  18  30  46  67  90 115 146 183 217 254
#     4  10  17  26  44  66  89 118 149 181 212 246
#     4   9  16  28  43  64  92 120 146 169 206 259
#     4   9  18  32  48  64  84 114 149 182 220 266
#     4   9  16  26  42  65  92 116 138 171 215 263
#
# _framework density 16.199985000000002
#
# number of rings (size 3 to 8) (size 9 to 14) (size 15 to 20)
#    0.000    2.800    0.000    3.000    0.000    3.200 
#    0.000    3.000    0.000    7.200    0.000    1.400 
#    0.000    0.000    0.000    0.000    0.000    0.000 
#
# Total GULP energy -495524.427474 kJ/mol
# GULP energy per Si atom -12388.110687 kJ/mol
# Density = 1.616311 g / cm^3
# Si number density = 16.199985 Si / 1000 Ang^3
#
#
#
# Elastic Constant Matrix: (Units=GPa)
#
#
# Indices 1 2 3 4 5 6 
#
# 1 93.7863 57.2115 45.7891 0.0000 0.0000 0.0000
# 2 57.2115 64.4998 37.2840 0.0000 0.0000 0.0000
# 3 45.7891 37.2840 99.7907 0.0000 0.0000 0.0000
# 4 0.0000 0.0000 0.0000 18.2584 0.0000 0.0000
# 5 0.0000 0.0000 0.0000 0.0000 9.5012 0.0000
# 6 0.0000 0.0000 0.0000 0.0000 0.0000 27.0920
#
#
#
# Elastic Compliance Matrix: (Units=1/GPa)
#
#
# Indices 1 2 3 4 5 6 
#
# 1 0.024407 -0.019356 -0.003967 0.000000 0.000000 0.000000
# 2 -0.019356 0.035124 -0.004242 0.000000 0.000000 0.000000
# 3 -0.003967 -0.004242 0.013426 0.000000 0.000000 0.000000
# 4 0.000000 0.000000 0.000000 0.054769 0.000000 0.000000
# 5 0.000000 0.000000 0.000000 0.000000 0.105250 0.000000
# 6 0.000000 0.000000 0.000000 0.000000 0.000000 0.036911
#
#
# Mechanical properties :
#
#
# Convention : Reuss Voigt Hill
#
# Bulk Modulus (GPa) = 56.09247 59.84955 57.97101
# Shear Modulus (GPa) = 15.10751 18.82311 16.96531
#
# Velocity S-wave (km/s) = 3.05710 3.41239 3.23962
# Velocity P-wave (km/s) = 6.86741 7.24916 7.06087
#
# Compressibility (1/GPa) = 0.01782770
#
# Stress axis : x y z
#
# Youngs Moduli (GPa) = 40.97206 28.47020 74.48060
#
# Poissons Ratio (x) = 0.55106 0.29550
# Poissons Ratio (y) = 0.79304 0.31594
# Poissons Ratio (z) = 0.16256 0.12077
#
# Static dielectric constant tensor:
#      x y z
#    x 2.907820 0.000000 0.000000 
#    y 0.000000 3.051470 0.000000 
#    z 0.000000 0.000000 3.060710 
# 
# 
# High freq. dielectric constant tensor:
#      x y z
#    x 1.601020 0.000000 0.000000 
#    y 0.000000 1.611550 0.000000 
#    z 0.000000 0.000000 1.620420 
# 
# From -- ./inp_files/17744.got.cif
#   From: 2010.03.12/outbox.cif.g09.slc.cpg/sg69_9_cif.got.tgz:17744.got - 2010.04.10 23:52:46.
