data_PCOD8283699
_publ_section_title
;
Structure prediction by ZEFSAII (Michael W. Deem and Ramdas Pophale) SiO2 
 PCOD8283699
Probable space group: C C C A
;
_chemical_formula_sum "Si O2"
_cell_formula_units_Z 52
_cell_length_a 4.848145
_cell_length_b 19.861588
_cell_length_c 23.316602
_cell_angle_alpha 90.000000
_cell_angle_beta 90.000000
_cell_angle_gamma 90.000000
_cell_volume 2245.198942
_symmetry_space_group_name_H-M "C C C A"
_symmetry_group_IT_number 68
_space_group.IT_coordinate_system_code '2'
_symmetry_cell_setting 'orthorhombic'
loop_
_space_group_symop_operation_xyz
x,y,z
-x,1/2-y,z
x,1/2-y,1/2-z
-x,y,1/2-z
-x,-y,-z
x,1/2+y,-z
-x,1/2+y,1/2+z
x,-y,1/2+z
1/2+x,1/2+y,z
1/2-x,-y,z
1/2+x,-y,1/2-z
1/2-x,1/2+y,1/2-z
1/2-x,1/2-y,-z
1/2+x,y,-z
1/2-x,y,1/2+z
1/2+x,1/2-y,1/2+z
loop_
_atom_site_type_symbol
_atom_site_label
_atom_site_fract_x
_atom_site_fract_y
_atom_site_fract_z
Si Si1 0.750000 0.000000 0.957562
Si Si2 0.000000 0.250000 0.750000
Si Si3 0.882513 0.125104 0.881027
Si Si4 0.000000 0.250000 0.542208
Si Si5 0.867194 0.860163 0.693219
O O1 0.755691 0.065067 0.917652
O O2 0.500000 0.000000 0.000000
O O3 0.796707 0.207325 0.709911
O O4 0.013973 0.183047 0.919772
O O5 0.629666 0.157551 0.845935
O O6 0.132459 0.096225 0.840282
O O7 0.750000 0.250000 0.500000
O O8 0.000000 0.896165 0.750000
#
# Coordination Sequence:
#
# PCOD8283699 Si02
#       5
#     8   4  16   8  16
#     4  12  26  52  78 102 142 200 252 302 370 450
#     4  12  24  40  74 100 158 192 234 280 374 432
#     4  12  26  44  74 105 142 193 243 299 372 435
#     4  12  25  42  63 104 141 174 234 313 360 412
#     4  12  25  42  69 109 142 190 237 294 355 449
#
# _framework density 23.160532
#
# number of rings (size 3 to 8) (size 9 to 14) (size 15 to 20)
#    0.000    0.000    3.077    6.923    4.308    0.000 
#    0.000    3.077    3.385    0.000    0.000    0.000 
#    0.000    0.000    0.000    0.000    0.000    0.000 
#
# Total GULP energy -322284.165443 kJ/mol
# GULP energy per Si atom -12395.544825 kJ/mol
# Density = 2.310782 g / cm^3
# Si number density = 23.160532 Si / 1000 Ang^3
#
#
#
# Elastic Constant Matrix: (Units=GPa)
#
#
# Indices 1 2 3 4 5 6 
#
# 1 217.2899 35.1769 100.8210 0.0000 0.0000 0.0000
# 2 35.1769 107.5015 64.7773 0.0000 0.0000 0.0000
# 3 100.8210 64.7773 169.4413 0.0000 0.0000 0.0000
# 4 0.0000 0.0000 0.0000 40.8256 0.0000 0.0000
# 5 0.0000 0.0000 0.0000 0.0000 3.0407 0.0000
# 6 0.0000 0.0000 0.0000 0.0000 0.0000 31.6404
#
#
#
# Elastic Compliance Matrix: (Units=1/GPa)
#
#
# Indices 1 2 3 4 5 6 
#
# 1 0.006363 0.000259 -0.003885 0.000000 0.000000 0.000000
# 2 0.000259 0.012097 -0.004779 0.000000 0.000000 0.000000
# 3 -0.003885 -0.004779 0.010040 0.000000 0.000000 0.000000
# 4 0.000000 0.000000 0.000000 0.024494 0.000000 0.000000
# 5 0.000000 0.000000 0.000000 0.000000 0.328869 0.000000
# 6 0.000000 0.000000 0.000000 0.000000 0.000000 0.031605
#
#
# Mechanical properties :
#
#
# Convention : Reuss Voigt Hill
#
# Bulk Modulus (GPa) = 85.53940 99.53145 92.53543
# Shear Modulus (GPa) = 11.51609 34.66518 23.09064
#
# Velocity S-wave (km/s) = 2.23228 3.87296 3.16093
# Velocity P-wave (km/s) = 6.60739 7.94152 7.30497
#
# Compressibility (1/GPa) = 0.01169052
#
# Stress axis : x y z
#
# Youngs Moduli (GPa) = 157.16242 82.66508 99.59849
#
# Poissons Ratio (x) = -0.02140 0.38694
# Poissons Ratio (y) = -0.04069 0.47596
# Poissons Ratio (z) = 0.61058 0.39504
#
# Static dielectric constant tensor:
#      x y z
#    x 4.240530 0.000000 0.000000 
#    y 0.000000 3.793700 0.000000 
#    z 0.000000 0.000000 5.149250 
# 
# 
# High freq. dielectric constant tensor:
#      x y z
#    x 1.955820 0.000000 0.000000 
#    y 0.000000 1.868350 0.000000 
#    z 0.000000 0.000000 1.948050 
# 
# From -- ./inp_files/42001.got.cif
#   From: 2010.03.12/outbox.cif.g09.slc.cpg/sg68_22_cif.got.tgz:42001.got - 2010.04.10 23:14:56.
