data_PCOD8283078
_publ_section_title
;
Structure prediction by ZEFSAII (Michael W. Deem and Ramdas Pophale) SiO2 
 PCOD8283078
Probable space group: C C C A
;
_chemical_formula_sum "Si O2"
_cell_formula_units_Z 88
_cell_length_a 12.940933
_cell_length_b 23.692037
_cell_length_c 13.638933
_cell_angle_alpha 90.000000
_cell_angle_beta 90.000000
_cell_angle_gamma 90.000000
_cell_volume 4181.656806
_symmetry_space_group_name_H-M "C C C A"
_symmetry_group_IT_number 68
_space_group.IT_coordinate_system_code '2'
_symmetry_cell_setting 'orthorhombic'
loop_
_space_group_symop_operation_xyz
x,y,z
-x,1/2-y,z
x,1/2-y,1/2-z
-x,y,1/2-z
-x,-y,-z
x,1/2+y,-z
-x,1/2+y,1/2+z
x,-y,1/2+z
1/2+x,1/2+y,z
1/2-x,-y,z
1/2+x,-y,1/2-z
1/2-x,1/2+y,1/2-z
1/2-x,1/2-y,-z
1/2+x,y,-z
1/2-x,y,1/2+z
1/2+x,1/2-y,1/2+z
loop_
_atom_site_type_symbol
_atom_site_label
_atom_site_fract_x
_atom_site_fract_y
_atom_site_fract_z
Si Si1 0.469459 0.173719 0.522782
Si Si2 0.750000 0.500000 0.641877
Si Si3 0.832818 0.735383 0.919605
Si Si4 0.385978 0.425310 0.220381
Si Si5 0.085391 0.951736 0.498200
Si Si6 0.638722 0.700394 0.818954
O O1 0.399399 0.207394 0.604008
O O2 0.589545 0.187725 0.539275
O O3 0.464470 0.106880 0.533041
O O4 0.428780 0.197111 0.418225
O O5 0.694135 0.545126 0.709080
O O6 0.825903 0.534945 0.574036
O O7 0.762795 0.711113 0.831581
O O8 0.750000 0.750000 0.000000
O O9 0.500000 0.445106 0.250000
O O10 0.364379 0.444005 0.108810
O O11 0.373195 0.358626 0.237628
O O12 0.000000 0.000000 0.500000
O O13 0.593724 0.750000 0.750000
#
# Coordination Sequence:
#
# PCOD8283078 Si02
#       6
#    16   8  16  16  16  16
#     4   9  21  40  63  96 129 175 222 274 328 416
#     4  12  26  46  74  96 142 188 224 290 348 408
#     4   9  19  38  62  93 127 170 216 260 337 404
#     4  11  25  46  68 107 136 171 240 281 336 422
#     4  11  24  44  71 100 135 186 229 286 347 404
#     4  10  23  40  66  98 132 170 213 286 335 397
#
# _framework density 21.04429
#
# number of rings (size 3 to 8) (size 9 to 14) (size 15 to 20)
#    0.000    1.818    1.818    0.545    2.545   16.364 
#    0.000    1.818    0.000    0.000    0.000    0.000 
#    0.000    0.000    0.000    0.000    0.000    0.000 
#
# Total GULP energy -545412.534831 kJ/mol
# GULP energy per Si atom -12395.739428 kJ/mol
# Density = 2.099639 g / cm^3
# Si number density = 21.044290 Si / 1000 Ang^3
#
#
#
# Elastic Constant Matrix: (Units=GPa)
#
#
# Indices 1 2 3 4 5 6 
#
# 1 133.4140 54.0590 38.4107 0.0000 0.0000 0.0000
# 2 54.0590 166.5891 47.2409 0.0000 0.0000 0.0000
# 3 38.4107 47.2409 80.6490 0.0000 0.0000 0.0000
# 4 0.0000 0.0000 0.0000 37.6670 0.0000 0.0000
# 5 0.0000 0.0000 0.0000 0.0000 32.1665 0.0000
# 6 0.0000 0.0000 0.0000 0.0000 0.0000 32.1204
#
#
#
# Elastic Compliance Matrix: (Units=1/GPa)
#
#
# Indices 1 2 3 4 5 6 
#
# 1 0.009264 -0.002105 -0.003179 0.000000 0.000000 0.000000
# 2 -0.002105 0.007677 -0.003494 0.000000 0.000000 0.000000
# 3 -0.003179 -0.003494 0.015960 0.000000 0.000000 0.000000
# 4 0.000000 0.000000 0.000000 0.026548 0.000000 0.000000
# 5 0.000000 0.000000 0.000000 0.000000 0.031088 0.000000
# 6 0.000000 0.000000 0.000000 0.000000 0.000000 0.031133
#
#
# Mechanical properties :
#
#
# Convention : Reuss Voigt Hill
#
# Bulk Modulus (GPa) = 65.17010 73.34148 69.25579
# Shear Modulus (GPa) = 34.64020 36.45356 35.54688
#
# Velocity S-wave (km/s) = 4.06157 4.16652 4.11438
# Velocity P-wave (km/s) = 7.28220 7.62058 7.45331
#
# Compressibility (1/GPa) = 0.01534446
#
# Stress axis : x y z
#
# Youngs Moduli (GPa) = 107.95041 130.26538 62.65501
#
# Poissons Ratio (x) = 0.27414 0.19919
# Poissons Ratio (y) = 0.22718 0.21894
# Poissons Ratio (z) = 0.34320 0.45519
#
# Static dielectric constant tensor:
#      x y z
#    x 3.225780 0.000000 0.000000 
#    y 0.000000 4.061220 0.000000 
#    z 0.000000 0.000000 3.906860 
# 
# 
# High freq. dielectric constant tensor:
#      x y z
#    x 1.838900 0.000000 0.000000 
#    y 0.000000 1.834340 0.000000 
#    z 0.000000 0.000000 1.808700 
# 
# From -- ./inp_files/20946.got.cif
#   From: 2010.03.12/outbox.cif.g09.slc.cpg/sg68_11_cif.got.tgz:20946.got - 2010.04.10 23:14:56.
