data_PCOD8283871
_publ_section_title
;
Structure prediction by ZEFSAII (Michael W. Deem and Ramdas Pophale) SiO2 
 PCOD8283871
Probable space group: F M M M
;
_chemical_formula_sum "Si O2"
_cell_formula_units_Z 176
_cell_length_a 17.811773
_cell_length_b 28.537029
_cell_length_c 19.383041
_cell_angle_alpha 90.000000
_cell_angle_beta 90.000000
_cell_angle_gamma 90.000000
_cell_volume 9852.304427
_symmetry_space_group_name_H-M "F M M M"
_symmetry_group_IT_number 69
_symmetry_cell_setting 'orthorhombic'
loop_
_space_group_symop_operation_xyz
x,y,z
-x,-y,z
x,-y,-z
-x,y,-z
-x,-y,-z
x,y,-z
-x,y,z
x,-y,z
x,1/2+y,1/2+z
-x,1/2-y,1/2+z
x,1/2-y,1/2-z
-x,1/2+y,1/2-z
-x,1/2-y,1/2-z
x,1/2+y,1/2-z
-x,1/2+y,1/2+z
x,1/2-y,1/2+z
1/2+x,y,1/2+z
1/2-x,-y,1/2+z
1/2+x,-y,1/2-z
1/2-x,y,1/2-z
1/2-x,-y,1/2-z
1/2+x,y,1/2-z
1/2-x,y,1/2+z
1/2+x,-y,1/2+z
1/2+x,1/2+y,z
1/2-x,1/2-y,z
1/2+x,1/2-y,-z
1/2-x,1/2+y,-z
1/2-x,1/2-y,-z
1/2+x,1/2+y,-z
1/2-x,1/2+y,z
1/2+x,1/2-y,z
loop_
_atom_site_type_symbol
_atom_site_label
_atom_site_fract_x
_atom_site_fract_y
_atom_site_fract_z
Si Si1 0.911012 0.696058 0.668741
Si Si2 0.781288 0.448092 0.081233
Si Si3 0.914137 0.116614 0.580101
Si Si4 0.141651 0.612135 0.581979
Si Si5 0.000000 0.447692 0.581708
Si Si6 0.911539 0.699426 0.175376
O O1 0.864812 0.662484 0.618047
O O2 0.889019 0.683806 0.747531
O O3 0.881752 0.749010 0.654739
O O4 0.000000 0.690507 0.655281
O O5 0.773859 0.500000 0.114475
O O6 0.863429 0.428003 0.099707
O O7 0.716961 0.413302 0.108887
O O8 0.770741 0.452518 0.000000
O O9 0.906815 0.129403 0.500000
O O10 0.881862 0.161185 0.621385
O O11 0.000000 0.104533 0.600201
O O12 0.141095 0.620068 0.500000
O O13 0.073254 0.579680 0.607298
O O14 0.000000 0.500000 0.613642
O O15 0.000000 0.451205 0.500000
O O16 0.000000 0.703234 0.171777
#
# Coordination Sequence:
#
# PCOD8283871 Si02
#       6
#    32  32  32  32  16  32
#     4   9  16  29  48  71  98 131 165 191 228 284
#     4   9  18  32  49  70  98 127 155 196 248 292
#     4   9  17  31  52  75  92 115 158 205 247 289
#     4  10  18  28  45  72 100 128 162 196 231 272
#     4   9  16  26  42  65  94 126 161 194 220 262
#     4   8  16  30  49  71  96 127 159 196 242 284
#
# _framework density 17.863841000000001
#
# number of rings (size 3 to 8) (size 9 to 14) (size 15 to 20)
#    0.000    3.000    0.909    1.636    0.000    3.273 
#    0.000    5.455    0.000    8.727    0.000    0.000 
#    0.000    0.000    0.000    0.000    0.000    0.000 
#
# Total GULP energy -545410.368945 kJ/mol
# GULP energy per Si atom -12395.690203 kJ/mol
# Density = 1.782318 g / cm^3
# Si number density = 17.863841 Si / 1000 Ang^3
#
#
#
# Elastic Constant Matrix: (Units=GPa)
#
#
# Indices 1 2 3 4 5 6 
#
# 1 85.0825 52.8308 27.5533 0.0000 0.0000 0.0000
# 2 52.8308 139.2740 53.6184 0.0000 0.0000 0.0000
# 3 27.5533 53.6184 49.1802 0.0000 0.0000 0.0000
# 4 0.0000 0.0000 0.0000 7.5964 0.0000 0.0000
# 5 0.0000 0.0000 0.0000 0.0000 11.8823 0.0000
# 6 0.0000 0.0000 0.0000 0.0000 0.0000 25.2070
#
#
#
# Elastic Compliance Matrix: (Units=1/GPa)
#
#
# Indices 1 2 3 4 5 6 
#
# 1 0.015818 -0.004461 -0.003999 0.000000 0.000000 0.000000
# 2 -0.004461 0.013632 -0.012363 0.000000 0.000000 0.000000
# 3 -0.003999 -0.012363 0.036052 0.000000 0.000000 0.000000
# 4 0.000000 0.000000 0.000000 0.131641 0.000000 0.000000
# 5 0.000000 0.000000 0.000000 0.000000 0.084159 0.000000
# 6 0.000000 0.000000 0.000000 0.000000 0.000000 0.039672
#
#
# Mechanical properties :
#
#
# Convention : Reuss Voigt Hill
#
# Bulk Modulus (GPa) = 41.91579 60.17129 51.04354
# Shear Modulus (GPa) = 13.49274 18.23942 15.86608
#
# Velocity S-wave (km/s) = 2.75127 3.19881 2.98345
# Velocity P-wave (km/s) = 5.79721 6.88474 6.36425
#
# Compressibility (1/GPa) = 0.02385736
#
# Stress axis : x y z
#
# Youngs Moduli (GPa) = 63.21856 73.35861 27.73772
#
# Poissons Ratio (x) = 0.32724 0.11092
# Poissons Ratio (y) = 0.28201 0.34291
# Poissons Ratio (z) = 0.25279 0.90691
#
# Static dielectric constant tensor:
#      x y z
#    x 3.182750 0.000000 0.000000 
#    y 0.000000 3.812120 0.000000 
#    z 0.000000 0.000000 3.248450 
# 
# 
# High freq. dielectric constant tensor:
#      x y z
#    x 1.676020 0.000000 0.000000 
#    y 0.000000 1.699440 0.000000 
#    z 0.000000 0.000000 1.654760 
# 
# From -- ./inp_files/23572.got.cif
#   From: 2010.03.12/outbox.cif.g09.slc.cpg/sg69_12_cif.got.tgz:23572.got - 2010.04.10 23:52:46.
