data_PCOD8283979
_publ_section_title
;
Structure prediction by ZEFSAII (Michael W. Deem and Ramdas Pophale) SiO2 
 PCOD8283979
Probable space group: F M M M
;
_chemical_formula_sum "Si O2"
_cell_formula_units_Z 192
_cell_length_a 18.796298
_cell_length_b 17.948328
_cell_length_c 31.814049
_cell_angle_alpha 90.000000
_cell_angle_beta 90.000000
_cell_angle_gamma 90.000000
_cell_volume 10732.855070
_symmetry_space_group_name_H-M "F M M M"
_symmetry_group_IT_number 69
_symmetry_cell_setting 'orthorhombic'
loop_
_space_group_symop_operation_xyz
x,y,z
-x,-y,z
x,-y,-z
-x,y,-z
-x,-y,-z
x,y,-z
-x,y,z
x,-y,z
x,1/2+y,1/2+z
-x,1/2-y,1/2+z
x,1/2-y,1/2-z
-x,1/2+y,1/2-z
-x,1/2-y,1/2-z
x,1/2+y,1/2-z
-x,1/2+y,1/2+z
x,1/2-y,1/2+z
1/2+x,y,1/2+z
1/2-x,-y,1/2+z
1/2+x,-y,1/2-z
1/2-x,y,1/2-z
1/2-x,-y,1/2-z
1/2+x,y,1/2-z
1/2-x,y,1/2+z
1/2+x,-y,1/2+z
1/2+x,1/2+y,z
1/2-x,1/2-y,z
1/2+x,1/2-y,-z
1/2-x,1/2+y,-z
1/2-x,1/2-y,-z
1/2+x,1/2+y,-z
1/2-x,1/2+y,z
1/2+x,1/2-y,z
loop_
_atom_site_type_symbol
_atom_site_label
_atom_site_fract_x
_atom_site_fract_y
_atom_site_fract_z
Si Si1 0.080989 0.585716 0.753653
Si Si2 0.652738 0.355611 0.175382
Si Si3 0.080948 0.082347 0.096483
Si Si4 0.583135 0.774885 0.452998
Si Si5 0.305104 0.087220 0.175154
Si Si6 0.325288 0.280482 0.618870
O O1 0.091367 0.500000 0.739830
O O2 0.097885 0.637835 0.713761
O O3 0.133796 0.605459 0.791371
O O4 0.000000 0.600873 0.768294
O O5 0.630857 0.408253 0.136772
O O6 0.729326 0.383454 0.192510
O O7 0.651889 0.270399 0.158934
O O8 0.100514 0.139935 0.059686
O O9 0.000000 0.095033 0.111626
O O10 0.092199 0.000000 0.077727
O O11 0.612557 0.761314 0.500000
O O12 0.500000 0.757915 0.451141
O O13 0.620254 0.720342 0.419802
O O14 0.321971 0.133615 0.132944
O O15 0.302572 0.000000 0.164082
O O16 0.250000 0.250000 0.602024
#
# Coordination Sequence:
#
# PCOD8283979 Si02
#       6
#    32  32  32  32  32  32
#     4  10  20  32  47  70  99 129 162 198 235 277
#     4  10  18  31  50  71  97 127 159 195 234 278
#     4   9  16  26  44  72 103 131 157 187 227 278
#     4   9  18  32  50  72  97 126 158 191 233 286
#     4  10  20  34  51  69  92 126 164 199 238 280
#     4   9  20  35  51  73  97 122 156 197 238 281
#
# _framework density 17.888995999999999
#
# number of rings (size 3 to 8) (size 9 to 14) (size 15 to 20)
#    0.000    2.500    0.000    2.500    0.000    5.333 
#    0.000    5.000    0.000    0.500    0.000    1.167 
#    0.000    0.000    0.000    0.000    0.000    0.000 
#
# Total GULP energy -595163.824070 kJ/mol
# GULP energy per Si atom -12399.246335 kJ/mol
# Density = 1.784828 g / cm^3
# Si number density = 17.888996 Si / 1000 Ang^3
#
#
#
# Elastic Constant Matrix: (Units=GPa)
#
#
# Indices 1 2 3 4 5 6 
#
# 1 85.4551 17.1790 51.4711 0.0000 0.0000 0.0000
# 2 17.1790 71.1240 34.3703 0.0000 0.0000 0.0000
# 3 51.4711 34.3703 96.5205 0.0000 0.0000 0.0000
# 4 0.0000 0.0000 0.0000 16.4505 0.0000 0.0000
# 5 0.0000 0.0000 0.0000 0.0000 29.8967 0.0000
# 6 0.0000 0.0000 0.0000 0.0000 0.0000 23.7233
#
#
#
# Elastic Compliance Matrix: (Units=1/GPa)
#
#
# Indices 1 2 3 4 5 6 
#
# 1 0.017246 0.000337 -0.009317 0.000000 0.000000 0.000000
# 2 0.000337 0.016989 -0.006229 0.000000 0.000000 0.000000
# 3 -0.009317 -0.006229 0.017547 0.000000 0.000000 0.000000
# 4 0.000000 0.000000 0.000000 0.060789 0.000000 0.000000
# 5 0.000000 0.000000 0.000000 0.000000 0.033449 0.000000
# 6 0.000000 0.000000 0.000000 0.000000 0.000000 0.042153
#
#
# Mechanical properties :
#
#
# Convention : Reuss Voigt Hill
#
# Bulk Modulus (GPa) = 46.80871 51.01560 48.91216
# Shear Modulus (GPa) = 22.15226 24.01936 23.08581
#
# Velocity S-wave (km/s) = 3.52279 3.66825 3.59626
# Velocity P-wave (km/s) = 6.53986 6.82064 6.68173
#
# Compressibility (1/GPa) = 0.02136355
#
# Stress axis : x y z
#
# Youngs Moduli (GPa) = 57.98492 58.86218 56.99036
#
# Poissons Ratio (x) = -0.01982 0.53095
# Poissons Ratio (y) = -0.01952 0.35500
# Poissons Ratio (z) = 0.54022 0.36666
#
# Static dielectric constant tensor:
#      x y z
#    x 3.431460 0.000000 0.000000 
#    y 0.000000 3.238460 0.000000 
#    z 0.000000 0.000000 3.130090 
# 
# 
# High freq. dielectric constant tensor:
#      x y z
#    x 1.698870 0.000000 0.000000 
#    y 0.000000 1.680240 0.000000 
#    z 0.000000 0.000000 1.670820 
# 
# From -- ./inp_files/42758.got.cif
#   From: 2010.03.12/outbox.cif.g09.slc.cpg/sg69_22_cif.got.tgz:42758.got - 2010.04.10 23:52:46.
