data_PCOD8283964
_publ_section_title
;
Structure prediction by ZEFSAII (Michael W. Deem and Ramdas Pophale) SiO2 
 PCOD8283964
Probable space group: F M M M
;
_chemical_formula_sum "Si O2"
_cell_formula_units_Z 96
_cell_length_a 8.796116
_cell_length_b 24.467200
_cell_length_c 19.855271
_cell_angle_alpha 90.000000
_cell_angle_beta 90.000000
_cell_angle_gamma 90.000000
_cell_volume 4273.178544
_symmetry_space_group_name_H-M "F M M M"
_symmetry_group_IT_number 69
_symmetry_cell_setting 'orthorhombic'
loop_
_space_group_symop_operation_xyz
x,y,z
-x,-y,z
x,-y,-z
-x,y,-z
-x,-y,-z
x,y,-z
-x,y,z
x,-y,z
x,1/2+y,1/2+z
-x,1/2-y,1/2+z
x,1/2-y,1/2-z
-x,1/2+y,1/2-z
-x,1/2-y,1/2-z
x,1/2+y,1/2-z
-x,1/2+y,1/2+z
x,1/2-y,1/2+z
1/2+x,y,1/2+z
1/2-x,-y,1/2+z
1/2+x,-y,1/2-z
1/2-x,y,1/2-z
1/2-x,-y,1/2-z
1/2+x,y,1/2-z
1/2-x,y,1/2+z
1/2+x,-y,1/2+z
1/2+x,1/2+y,z
1/2-x,1/2-y,z
1/2+x,1/2-y,-z
1/2-x,1/2+y,-z
1/2-x,1/2-y,-z
1/2+x,1/2+y,-z
1/2-x,1/2+y,z
1/2+x,1/2-y,z
loop_
_atom_site_type_symbol
_atom_site_label
_atom_site_fract_x
_atom_site_fract_y
_atom_site_fract_z
Si Si1 0.826666 0.306730 0.632142
Si Si2 0.680674 0.000000 0.921341
Si Si3 0.825630 0.578725 0.317904
Si Si4 0.179793 0.190214 0.500000
O O1 0.750000 0.250000 0.657161
O O2 0.814747 0.355012 0.686390
O O3 0.744293 0.335585 0.568221
O O4 0.000000 0.291991 0.614109
O O5 0.743453 0.053791 0.883486
O O6 0.500000 0.000000 0.917470
O O7 0.732991 0.000000 0.000000
O O8 0.750000 0.555446 0.250000
O O9 0.000000 0.559887 0.320123
O O10 0.250000 0.250000 0.500000
O O11 0.000000 0.187925 0.500000
#
# Coordination Sequence:
#
# PCOD8283964 Si02
#       4
#    32  16  32  16
#     4  10  21  37  59  91 129 172 216 262 318 379
#     4  11  26  47  72 101 129 163 214 271 328 387
#     4  11  25  44  68  96 132 175 217 266 324 387
#     4  10  18  30  52  81 118 163 208 260 312 366
#
# _framework density 22.465713000000001
#
# number of rings (size 3 to 8) (size 9 to 14) (size 15 to 20)
#    0.000    1.500    0.000    6.500    2.333    7.333 
#    0.000    3.333    0.000    0.000    0.000    0.000 
#    0.000    0.000    0.000    0.000    0.000    0.000 
#
# Total GULP energy -297403.184720 kJ/mol
# GULP energy per Si atom -12391.799363 kJ/mol
# Density = 2.241458 g / cm^3
# Si number density = 22.465713 Si / 1000 Ang^3
#
#
#
# Elastic Constant Matrix: (Units=GPa)
#
#
# Indices 1 2 3 4 5 6 
#
# 1 184.5482 42.7370 63.2093 0.0000 0.0000 0.0000
# 2 42.7370 125.5121 32.9519 0.0000 0.0000 0.0000
# 3 63.2093 32.9519 134.8011 0.0000 0.0000 0.0000
# 4 0.0000 0.0000 0.0000 8.4821 0.0000 0.0000
# 5 0.0000 0.0000 0.0000 0.0000 32.2986 0.0000
# 6 0.0000 0.0000 0.0000 0.0000 0.0000 31.2484
#
#
#
# Elastic Compliance Matrix: (Units=1/GPa)
#
#
# Indices 1 2 3 4 5 6 
#
# 1 0.006731 -0.001564 -0.002774 0.000000 0.000000 0.000000
# 2 -0.001564 0.008877 -0.001437 0.000000 0.000000 0.000000
# 3 -0.002774 -0.001437 0.009070 0.000000 0.000000 0.000000
# 4 0.000000 0.000000 0.000000 0.117895 0.000000 0.000000
# 5 0.000000 0.000000 0.000000 0.000000 0.030961 0.000000
# 6 0.000000 0.000000 0.000000 0.000000 0.000000 0.032002
#
#
# Mechanical properties :
#
#
# Convention : Reuss Voigt Hill
#
# Bulk Modulus (GPa) = 76.16446 80.29532 78.22989
# Shear Modulus (GPa) = 22.57731 34.80336 28.69034
#
# Velocity S-wave (km/s) = 3.17356 3.94023 3.57749
# Velocity P-wave (km/s) = 6.88511 7.51794 7.20847
#
# Compressibility (1/GPa) = 0.01312948
#
# Stress axis : x y z
#
# Youngs Moduli (GPa) = 148.57026 112.65098 110.25024
#
# Poissons Ratio (x) = 0.17614 0.30583
# Poissons Ratio (y) = 0.23230 0.15841
# Poissons Ratio (z) = 0.41212 0.16186
#
# Static dielectric constant tensor:
#      x y z
#    x 4.115460 0.000000 0.000000 
#    y 0.000000 3.851860 0.000000 
#    z 0.000000 0.000000 6.386890 
# 
# 
# High freq. dielectric constant tensor:
#      x y z
#    x 1.897590 0.000000 0.000000 
#    y 0.000000 1.888570 0.000000 
#    z 0.000000 0.000000 1.880270 
# 
# From -- ./inp_files/28451.got.cif
#   From: 2010.03.12/outbox.cif.g09.slc.cpg/sg69_15_cif.got.tgz:28451.got - 2010.04.10 23:52:46.
