data_PCOD8283830
_publ_section_title
;
Structure prediction by ZEFSAII (Michael W. Deem and Ramdas Pophale) SiO2 
 PCOD8283830
Probable space group: F M M M
;
_chemical_formula_sum "Si O2"
_cell_formula_units_Z 136
_cell_length_a 16.687285
_cell_length_b 22.110720
_cell_length_c 17.518658
_cell_angle_alpha 90.000000
_cell_angle_beta 90.000000
_cell_angle_gamma 90.000000
_cell_volume 6463.822211
_symmetry_space_group_name_H-M "F M M M"
_symmetry_group_IT_number 69
_symmetry_cell_setting 'orthorhombic'
loop_
_space_group_symop_operation_xyz
x,y,z
-x,-y,z
x,-y,-z
-x,y,-z
-x,-y,-z
x,y,-z
-x,y,z
x,-y,z
x,1/2+y,1/2+z
-x,1/2-y,1/2+z
x,1/2-y,1/2-z
-x,1/2+y,1/2-z
-x,1/2-y,1/2-z
x,1/2+y,1/2-z
-x,1/2+y,1/2+z
x,1/2-y,1/2+z
1/2+x,y,1/2+z
1/2-x,-y,1/2+z
1/2+x,-y,1/2-z
1/2-x,y,1/2-z
1/2-x,-y,1/2-z
1/2+x,y,1/2-z
1/2-x,y,1/2+z
1/2+x,-y,1/2+z
1/2+x,1/2+y,z
1/2-x,1/2-y,z
1/2+x,1/2-y,-z
1/2-x,1/2+y,-z
1/2-x,1/2-y,-z
1/2+x,1/2+y,-z
1/2-x,1/2+y,z
1/2+x,1/2-y,z
loop_
_atom_site_type_symbol
_atom_site_label
_atom_site_fract_x
_atom_site_fract_y
_atom_site_fract_z
Si Si1 0.908120 0.340310 0.409476
Si Si2 0.500000 0.625513 0.589861
Si Si3 0.352651 0.208592 0.910937
Si Si4 0.257007 0.884031 0.660229
Si Si5 0.681161 0.500000 0.582752
Si Si6 0.000000 0.000000 0.391107
O O1 0.899580 0.347301 0.500000
O O2 0.880679 0.273837 0.382042
O O3 0.850018 0.388135 0.366834
O O4 0.000000 0.351967 0.384414
O O5 0.500000 0.605465 0.500000
O O6 0.576830 0.663501 0.609766
O O7 0.500000 0.566674 0.647299
O O8 0.274865 0.181589 0.868906
O O9 0.332480 0.210386 0.000000
O O10 0.250000 0.887638 0.750000
O O11 0.207311 0.939804 0.626809
O O12 0.723530 0.500000 0.500000
O O13 0.585966 0.500000 0.566048
#
# Coordination Sequence:
#
# PCOD8283830 Si02
#       6
#    32  16  32  32  16   8
#     4  10  21  41  67  93 124 169 225 271 303 360
#     4  10  17  30  56  96 122 144 194 260 320 363
#     4  10  19  36  64  93 123 161 211 263 306 361
#     4  12  26  42  59  91 133 168 206 254 330 393
#     4  12  24  43  70  94 119 158 212 269 315 378
#     4  12  21  34  66 100 120 144 197 270 335 370
#
# _framework density 21.040182000000001
#
# number of rings (size 3 to 8) (size 9 to 14) (size 15 to 20)
#    0.000    1.176    3.529    4.235    0.000    3.765 
#    4.235    1.765    0.000    2.118    0.000    0.000 
#    0.000    0.000    0.000    0.000    0.000    0.000 
#
# Total GULP energy -421231.549925 kJ/mol
# GULP energy per Si atom -12389.163233 kJ/mol
# Density = 2.099229 g / cm^3
# Si number density = 21.040182 Si / 1000 Ang^3
#
#
#
# Elastic Constant Matrix: (Units=GPa)
#
#
# Indices 1 2 3 4 5 6 
#
# 1 168.5573 45.8666 45.2324 0.0000 0.0000 0.0000
# 2 45.8666 71.9530 21.3356 0.0000 0.0000 0.0000
# 3 45.2324 21.3356 86.7722 0.0000 0.0000 0.0000
# 4 0.0000 0.0000 0.0000 -34.5587 0.0000 0.0000
# 5 0.0000 0.0000 0.0000 0.0000 31.6818 0.0000
# 6 0.0000 0.0000 0.0000 0.0000 0.0000 38.7744
#
#
#
# Elastic Compliance Matrix: (Units=1/GPa)
#
#
# Indices 1 2 3 4 5 6 
#
# 1 0.007881 -0.004105 -0.003099 0.000000 0.000000 0.000000
# 2 -0.004105 0.017129 -0.002072 0.000000 0.000000 0.000000
# 3 -0.003099 -0.002072 0.013649 0.000000 0.000000 0.000000
# 4 0.000000 0.000000 0.000000 -0.028936 0.000000 0.000000
# 5 0.000000 0.000000 0.000000 0.000000 0.031564 0.000000
# 6 0.000000 0.000000 0.000000 0.000000 0.000000 0.025790
#
#
# Mechanical properties :
#
#
# Convention : Reuss Voigt Hill
#
# Bulk Modulus (GPa) = 49.73166 61.35020 55.54093
# Shear Modulus (GPa) = 54.15242 21.50271 37.82757
#
# Velocity S-wave (km/s) = 5.07873 3.20032 4.24473
# Velocity P-wave (km/s) = 7.62097 6.54812 7.10482
#
# Compressibility (1/GPa) = 0.02010792
#
# Stress axis : x y z
#
# Youngs Moduli (GPa) = 126.88153 58.38024 73.26378
#
# Poissons Ratio (x) = 0.23966 0.22705
# Poissons Ratio (y) = 0.52086 0.15179
# Poissons Ratio (z) = 0.39321 0.12095
#
# Static dielectric constant tensor:
#      x y z
#    x 4.086050 0.000000 0.000000 
#    y 0.000000 3.981590 0.000000 
#    z 0.000000 0.000000 3.317450 
# 
# 
# High freq. dielectric constant tensor:
#      x y z
#    x 1.848720 0.000000 0.000000 
#    y 0.000000 1.828120 0.000000 
#    z 0.000000 0.000000 1.776520 
# 
# From -- ./inp_files/22630.got.cif
#   From: 2010.03.12/outbox.cif.g09.slc.cpg/sg69_12_cif.got.tgz:22630.got - 2010.04.10 23:52:46.
