data_PCOD8283989
_publ_section_title
;
Structure prediction by ZEFSAII (Michael W. Deem and Ramdas Pophale) SiO2 
 PCOD8283989
Probable space group: F M M M
;
_chemical_formula_sum "Si O2"
_cell_formula_units_Z 192
_cell_length_a 16.866998
_cell_length_b 17.505749
_cell_length_c 34.305384
_cell_angle_alpha 90.000000
_cell_angle_beta 90.000000
_cell_angle_gamma 90.000000
_cell_volume 10129.331295
_symmetry_space_group_name_H-M "F M M M"
_symmetry_group_IT_number 69
_symmetry_cell_setting 'orthorhombic'
loop_
_space_group_symop_operation_xyz
x,y,z
-x,-y,z
x,-y,-z
-x,y,-z
-x,-y,-z
x,y,-z
-x,y,z
x,-y,z
x,1/2+y,1/2+z
-x,1/2-y,1/2+z
x,1/2-y,1/2-z
-x,1/2+y,1/2-z
-x,1/2-y,1/2-z
x,1/2+y,1/2-z
-x,1/2+y,1/2+z
x,1/2-y,1/2+z
1/2+x,y,1/2+z
1/2-x,-y,1/2+z
1/2+x,-y,1/2-z
1/2-x,y,1/2-z
1/2-x,-y,1/2-z
1/2+x,y,1/2-z
1/2-x,y,1/2+z
1/2+x,-y,1/2+z
1/2+x,1/2+y,z
1/2-x,1/2-y,z
1/2+x,1/2-y,-z
1/2-x,1/2+y,-z
1/2-x,1/2-y,-z
1/2+x,1/2+y,-z
1/2-x,1/2+y,z
1/2+x,1/2-y,z
loop_
_atom_site_type_symbol
_atom_site_label
_atom_site_fract_x
_atom_site_fract_y
_atom_site_fract_z
Si Si1 0.092152 0.212378 0.709628
Si Si2 0.594218 0.337519 0.543289
Si Si3 0.782130 0.413106 0.793384
Si Si4 0.593869 0.322041 0.075918
Si Si5 0.317299 0.188587 0.651506
Si Si6 0.094129 0.913594 0.000000
Si Si7 0.412489 0.500000 0.546569
O O1 0.120805 0.250000 0.750000
O O2 0.136111 0.132534 0.703130
O O3 0.112311 0.270592 0.675117
O O4 0.000000 0.193827 0.709786
O O5 0.627479 0.320214 0.500000
O O6 0.500000 0.345816 0.540632
O O7 0.616791 0.267403 0.570971
O O8 0.629481 0.419431 0.559317
O O9 0.799681 0.500000 0.805009
O O10 0.750000 0.405817 0.750000
O O11 0.717281 0.380117 0.823020
O O12 0.500000 0.333490 0.082191
O O13 0.643360 0.349407 0.113270
O O14 0.624017 0.369911 0.038607
O O15 0.250000 0.250000 0.640752
O O16 0.000000 0.913427 0.000000
O O17 0.127660 0.000000 0.000000
O O18 0.500000 0.500000 0.565138
O O19 0.417671 0.500000 0.500000
#
# Coordination Sequence:
#
# PCOD8283989 Si02
#       7
#    32  32  32  32  32  16  16
#     4  10  19  34  59  86 112 144 186 234 281 336
#     4   8  12  21  40  66  94 130 174 219 271 328
#     4  10  20  36  58  83 114 152 188 225 281 349
#     4  10  18  31  52  78 107 141 189 239 281 339
#     4  10  21  35  56  81 110 147 192 233 286 338
#     4   9  18  32  51  75 103 141 183 229 293 349
#     4   7  10  16  32  62  94 124 165 212 261 319
#
# _framework density 18.954854000000001
#
# number of rings (size 3 to 8) (size 9 to 14) (size 15 to 20)
#    0.000    2.667    2.500    1.500    0.000    1.000 
#    0.000    0.417    7.333    1.500    0.000    0.000 
#    0.000    0.000    0.000    0.000    0.000    9.333 
#
# Total GULP energy -594903.993793 kJ/mol
# GULP energy per Si atom -12393.833204 kJ/mol
# Density = 1.891171 g / cm^3
# Si number density = 18.954854 Si / 1000 Ang^3
#
#
#
# Elastic Constant Matrix: (Units=GPa)
#
#
# Indices 1 2 3 4 5 6 
#
# 1 48.1225 41.5429 37.7790 0.0000 0.0000 0.0000
# 2 41.5429 151.9660 58.4385 0.0000 0.0000 0.0000
# 3 37.7790 58.4385 123.5493 0.0000 0.0000 0.0000
# 4 0.0000 0.0000 0.0000 -16.6944 0.0000 0.0000
# 5 0.0000 0.0000 0.0000 0.0000 25.0328 0.0000
# 6 0.0000 0.0000 0.0000 0.0000 0.0000 9.9748
#
#
#
# Elastic Compliance Matrix: (Units=1/GPa)
#
#
# Indices 1 2 3 4 5 6 
#
# 1 0.031189 -0.005939 -0.006728 0.000000 0.000000 0.000000
# 2 -0.005939 0.009174 -0.002523 0.000000 0.000000 0.000000
# 3 -0.006728 -0.002523 0.011345 0.000000 0.000000 0.000000
# 4 0.000000 0.000000 0.000000 -0.059900 0.000000 0.000000
# 5 0.000000 0.000000 0.000000 0.000000 0.039948 0.000000
# 6 0.000000 0.000000 0.000000 0.000000 0.000000 0.100253
#
#
# Mechanical properties :
#
#
# Convention : Reuss Voigt Hill
#
# Bulk Modulus (GPa) = 46.88757 66.57317 56.73037
# Shear Modulus (GPa) = 29.49894 16.05447 22.77671
#
# Velocity S-wave (km/s) = 3.94924 2.91346 3.47021
# Velocity P-wave (km/s) = 6.75170 6.82025 6.78607
#
# Compressibility (1/GPa) = 0.02132761
#
# Stress axis : x y z
#
# Youngs Moduli (GPa) = 32.06260 108.99989 88.14638
#
# Poissons Ratio (x) = 0.64734 0.59304
# Poissons Ratio (y) = 0.19042 0.22243
# Poissons Ratio (z) = 0.21571 0.27505
#
# Static dielectric constant tensor:
#      x y z
#    x 3.041390 0.000000 0.000000 
#    y 0.000000 3.756110 0.000000 
#    z 0.000000 0.000000 3.377360 
# 
# 
# High freq. dielectric constant tensor:
#      x y z
#    x 1.702540 0.000000 0.000000 
#    y 0.000000 1.740420 0.000000 
#    z 0.000000 0.000000 1.727300 
# 
# From -- ./inp_files/46397.got.cif
#   From: 2010.03.12/outbox.cif.g09.slc.cpg/sg69_24_cif.got.tgz:46397.got - 2010.04.10 23:52:46.
