data_PCOD8283603
_publ_section_title
;
Structure prediction by ZEFSAII (Michael W. Deem and Ramdas Pophale) SiO2 
 PCOD8283603
Probable space group: C C C A
;
_chemical_formula_sum "Si O2"
_cell_formula_units_Z 104
_cell_length_a 8.840141
_cell_length_b 18.722529
_cell_length_c 28.096837
_cell_angle_alpha 90.000000
_cell_angle_beta 90.000000
_cell_angle_gamma 90.000000
_cell_volume 4650.301767
_symmetry_space_group_name_H-M "C C C A"
_symmetry_group_IT_number 68
_space_group.IT_coordinate_system_code '2'
_symmetry_cell_setting 'orthorhombic'
loop_
_space_group_symop_operation_xyz
x,y,z
-x,1/2-y,z
x,1/2-y,1/2-z
-x,y,1/2-z
-x,-y,-z
x,1/2+y,-z
-x,1/2+y,1/2+z
x,-y,1/2+z
1/2+x,1/2+y,z
1/2-x,-y,z
1/2+x,-y,1/2-z
1/2-x,1/2+y,1/2-z
1/2-x,1/2-y,-z
1/2+x,y,-z
1/2-x,y,1/2+z
1/2+x,1/2-y,1/2+z
loop_
_atom_site_type_symbol
_atom_site_label
_atom_site_fract_x
_atom_site_fract_y
_atom_site_fract_z
Si Si1 0.143468 0.368958 0.850562
Si Si2 0.171873 0.067903 0.065322
Si Si3 0.314948 0.920541 0.824119
Si Si4 0.193609 0.825370 0.482839
Si Si5 0.673130 0.666303 0.242099
Si Si6 0.000000 0.250000 0.591666
Si Si7 0.839851 0.928845 0.581867
O O1 0.216274 0.415079 0.891945
O O2 0.267309 0.357446 0.809409
O O3 0.995669 0.412429 0.832273
O O4 0.113137 0.290592 0.872849
O O5 0.012127 0.047738 0.088786
O O6 0.250000 0.000000 0.038835
O O7 0.136538 0.131613 0.028671
O O8 0.280082 0.871217 0.779888
O O9 0.227221 0.892162 0.870645
O O10 0.250000 0.000000 0.814201
O O11 0.250000 0.750000 0.500000
O O12 0.067528 0.812202 0.442382
O O13 0.329012 0.870822 0.460044
O O14 0.690118 0.750000 0.250000
O O15 0.500000 0.641604 0.250000
O O16 0.750000 0.000000 0.568305
#
# Coordination Sequence:
#
# PCOD8283603 Si02
#       7
#    16  16  16  16  16   8  16
#     4  12  25  47  74 104 147 190 242 295 361 434
#     4  12  27  44  69 104 143 193 243 298 365 425
#     4  11  24  45  74 106 141 188 238 296 356 426
#     4  12  25  44  70 101 144 188 242 304 354 426
#     4  11  26  46  72 109 147 188 236 294 360 429
#     4  12  24  46  71 106 144 192 249 296 360 436
#     4  11  25  45  70  99 141 189 238 299 361 418
#
# _framework density 22.364142000000001
#
# number of rings (size 3 to 8) (size 9 to 14) (size 15 to 20)
#    0.000    0.462    3.077    5.538    0.000    3.692 
#    0.000    0.000    0.000    0.000    0.000    0.000 
#    0.000    0.000    0.000    0.000    0.000    0.000 
#
# Total GULP energy -644705.342520 kJ/mol
# GULP energy per Si atom -12398.179664 kJ/mol
# Density = 2.231324 g / cm^3
# Si number density = 22.364142 Si / 1000 Ang^3
#
#
#
# Elastic Constant Matrix: (Units=GPa)
#
#
# Indices 1 2 3 4 5 6 
#
# 1 155.2999 48.1934 54.9201 0.0000 0.0000 0.0000
# 2 48.1934 118.0705 55.0717 0.0000 0.0000 0.0000
# 3 54.9201 55.0717 130.4353 0.0000 0.0000 0.0000
# 4 0.0000 0.0000 0.0000 39.4153 0.0000 0.0000
# 5 0.0000 0.0000 0.0000 0.0000 30.6989 0.0000
# 6 0.0000 0.0000 0.0000 0.0000 0.0000 29.2985
#
#
#
# Elastic Compliance Matrix: (Units=1/GPa)
#
#
# Indices 1 2 3 4 5 6 
#
# 1 0.007963 -0.002100 -0.002466 0.000000 0.000000 0.000000
# 2 -0.002100 0.011100 -0.003803 0.000000 0.000000 0.000000
# 3 -0.002466 -0.003803 0.010311 0.000000 0.000000 0.000000
# 4 0.000000 0.000000 0.000000 0.025371 0.000000 0.000000
# 5 0.000000 0.000000 0.000000 0.000000 0.032575 0.000000
# 6 0.000000 0.000000 0.000000 0.000000 0.000000 0.034131
#
#
# Mechanical properties :
#
#
# Convention : Reuss Voigt Hill
#
# Bulk Modulus (GPa) = 79.13632 80.01955 79.57794
# Shear Modulus (GPa) = 35.11235 36.25723 35.68479
#
# Velocity S-wave (km/s) = 3.96666 4.03081 3.99886
# Velocity P-wave (km/s) = 7.51275 7.58427 7.54859
#
# Compressibility (1/GPa) = 0.01263642
#
# Stress axis : x y z
#
# Youngs Moduli (GPa) = 125.58138 90.08782 96.98848
#
# Poissons Ratio (x) = 0.18918 0.23919
# Poissons Ratio (y) = 0.26372 0.36880
# Poissons Ratio (z) = 0.30971 0.34256
#
# Static dielectric constant tensor:
#      x y z
#    x 3.592840 0.000000 0.000000 
#    y 0.000000 4.181090 0.000000 
#    z 0.000000 0.000000 4.233660 
# 
# 
# High freq. dielectric constant tensor:
#      x y z
#    x 1.887120 0.000000 0.000000 
#    y 0.000000 1.889010 0.000000 
#    z 0.000000 0.000000 1.893080 
# 
# From -- ./inp_files/49450.got.cif
#   From: 2010.03.12/outbox.cif.g09.slc.cpg/sg68_25_cif.got.tgz:49450.got - 2010.04.10 23:14:56.
