data_PCOD8283625
_publ_section_title
;
Structure prediction by ZEFSAII (Michael W. Deem and Ramdas Pophale) SiO2 
 PCOD8283625
Probable space group: C C C A
;
_chemical_formula_sum "Si O2"
_cell_formula_units_Z 116
_cell_length_a 26.256488
_cell_length_b 22.646598
_cell_length_c 8.901159
_cell_angle_alpha 90.000000
_cell_angle_beta 90.000000
_cell_angle_gamma 90.000000
_cell_volume 5292.808310
_symmetry_space_group_name_H-M "C C C A"
_symmetry_group_IT_number 68
_space_group.IT_coordinate_system_code '2'
_symmetry_cell_setting 'orthorhombic'
loop_
_space_group_symop_operation_xyz
x,y,z
-x,1/2-y,z
x,1/2-y,1/2-z
-x,y,1/2-z
-x,-y,-z
x,1/2+y,-z
-x,1/2+y,1/2+z
x,-y,1/2+z
1/2+x,1/2+y,z
1/2-x,-y,z
1/2+x,-y,1/2-z
1/2-x,1/2+y,1/2-z
1/2-x,1/2-y,-z
1/2+x,y,-z
1/2-x,y,1/2+z
1/2+x,1/2-y,1/2+z
loop_
_atom_site_type_symbol
_atom_site_label
_atom_site_fract_x
_atom_site_fract_y
_atom_site_fract_z
Si Si1 0.066406 0.139224 0.521537
Si Si2 0.633894 0.185901 0.239474
Si Si3 0.914383 0.592436 0.712482
Si Si4 0.297192 0.071330 0.326349
Si Si5 0.500000 0.250000 0.750000
Si Si6 0.456248 0.324674 0.008531
Si Si7 0.035291 0.476762 0.869694
Si Si8 0.306226 0.448686 0.823033
O O1 0.113133 0.174468 0.592377
O O2 0.066184 0.137711 0.340693
O O3 0.075168 0.071240 0.571419
O O4 0.012772 0.166727 0.577792
O O5 0.662445 0.250000 0.250000
O O6 0.670847 0.132308 0.190719
O O7 0.584854 0.195897 0.131197
O O8 0.935287 0.612944 0.551541
O O9 0.936063 0.526619 0.727658
O O10 0.853662 0.592562 0.715652
O O11 0.295572 0.051686 0.499367
O O12 0.239890 0.081582 0.267829
O O13 0.318200 0.016122 0.228441
O O14 0.460653 0.282609 0.862942
O O15 0.000000 0.442674 0.750000
O O16 0.000000 0.500000 0.000000
#
# Coordination Sequence:
#
# PCOD8283625 Si02
#       8
#    16  16  16  16   4  16  16  16
#     4  12  25  41  67  95 145 191 228 284 345 416
#     4  12  28  47  71 102 142 186 240 290 350 417
#     4  12  24  40  65 102 136 181 229 285 350 422
#     4  11  25  49  74 108 137 178 229 296 360 426
#     4  12  24  40  74  88 140 188 250 292 322 420
#     4  12  23  45  63  99 136 189 239 286 333 413
#     4  12  22  37  59  98 144 179 217 278 348 412
#     4  11  25  44  78 105 140 174 231 295 364 430
#
# _framework density 21.916532
#
# number of rings (size 3 to 8) (size 9 to 14) (size 15 to 20)
#    0.000    0.276    5.517    4.552    5.793    0.552 
#    0.000    0.690    1.517    0.000    0.000    0.000 
#    0.000    0.000    0.000    0.000    0.000    0.000 
#
# Total GULP energy -718725.326504 kJ/mol
# GULP energy per Si atom -12391.815974 kJ/mol
# Density = 2.186665 g / cm^3
# Si number density = 21.916532 Si / 1000 Ang^3
#
#
#
# Elastic Constant Matrix: (Units=GPa)
#
#
# Indices 1 2 3 4 5 6 
#
# 1 100.3043 30.1245 24.5732 0.0000 0.0000 0.0000
# 2 30.1245 110.9310 34.0957 0.0000 0.0000 0.0000
# 3 24.5732 34.0957 115.7041 0.0000 0.0000 0.0000
# 4 0.0000 0.0000 0.0000 32.0711 0.0000 0.0000
# 5 0.0000 0.0000 0.0000 0.0000 31.4692 0.0000
# 6 0.0000 0.0000 0.0000 0.0000 0.0000 30.4873
#
#
#
# Elastic Compliance Matrix: (Units=1/GPa)
#
#
# Indices 1 2 3 4 5 6 
#
# 1 0.011124 -0.002523 -0.001619 0.000000 0.000000 0.000000
# 2 -0.002523 0.010485 -0.002554 0.000000 0.000000 0.000000
# 3 -0.001619 -0.002554 0.009739 0.000000 0.000000 0.000000
# 4 0.000000 0.000000 0.000000 0.031181 0.000000 0.000000
# 5 0.000000 0.000000 0.000000 0.000000 0.031777 0.000000
# 6 0.000000 0.000000 0.000000 0.000000 0.000000 0.032801
#
#
# Mechanical properties :
#
#
# Convention : Reuss Voigt Hill
#
# Bulk Modulus (GPa) = 55.69176 56.05846 55.87511
# Shear Modulus (GPa) = 34.13351 34.68193 34.40772
#
# Velocity S-wave (km/s) = 3.95071 3.98232 3.96655
# Velocity P-wave (km/s) = 6.80271 6.83951 6.82113
#
# Compressibility (1/GPa) = 0.01795598
#
# Stress axis : x y z
#
# Youngs Moduli (GPa) = 89.89492 95.37664 102.67876
#
# Poissons Ratio (x) = 0.24066 0.16623
# Poissons Ratio (y) = 0.22683 0.26222
# Poissons Ratio (z) = 0.14554 0.24357
#
# Static dielectric constant tensor:
#      x y z
#    x 3.980290 0.000000 0.000000 
#    y 0.000000 4.227940 0.000000 
#    z 0.000000 0.000000 0.705950 
# 
# 
# High freq. dielectric constant tensor:
#      x y z
#    x 1.839440 0.000000 0.000000 
#    y 0.000000 1.860600 0.000000 
#    z 0.000000 0.000000 1.880590 
# 
# From -- ./inp_files/9162.got.cif
#   From: 2010.03.12/outbox.cif.g09.slc.cpg/sg68_5_cif.got.tgz:9162.got - 2010.04.10 23:14:56.
