data_PCOD8283793
_publ_section_title
;
Structure prediction by ZEFSAII (Michael W. Deem and Ramdas Pophale) SiO2 
 PCOD8283793
Probable space group: F M M M
;
_chemical_formula_sum "Si O2"
_cell_formula_units_Z 208
_cell_length_a 27.338445
_cell_length_b 28.108284
_cell_length_c 18.175952
_cell_angle_alpha 90.000000
_cell_angle_beta 90.000000
_cell_angle_gamma 90.000000
_cell_volume 13967.069959
_symmetry_space_group_name_H-M "F M M M"
_symmetry_group_IT_number 69
_symmetry_cell_setting 'orthorhombic'
loop_
_space_group_symop_operation_xyz
x,y,z
-x,-y,z
x,-y,-z
-x,y,-z
-x,-y,-z
x,y,-z
-x,y,z
x,-y,z
x,1/2+y,1/2+z
-x,1/2-y,1/2+z
x,1/2-y,1/2-z
-x,1/2+y,1/2-z
-x,1/2-y,1/2-z
x,1/2+y,1/2-z
-x,1/2+y,1/2+z
x,1/2-y,1/2+z
1/2+x,y,1/2+z
1/2-x,-y,1/2+z
1/2+x,-y,1/2-z
1/2-x,y,1/2-z
1/2-x,-y,1/2-z
1/2+x,y,1/2-z
1/2-x,y,1/2+z
1/2+x,-y,1/2+z
1/2+x,1/2+y,z
1/2-x,1/2-y,z
1/2+x,1/2-y,-z
1/2-x,1/2+y,-z
1/2-x,1/2-y,-z
1/2+x,1/2+y,-z
1/2-x,1/2+y,z
1/2+x,1/2-y,z
loop_
_atom_site_type_symbol
_atom_site_label
_atom_site_fract_x
_atom_site_fract_y
_atom_site_fract_z
Si Si1 0.556417 0.556678 0.659512
Si Si2 0.786880 0.053069 0.182278
Si Si3 0.771099 0.301803 0.581130
Si Si4 0.354132 0.893794 0.784292
Si Si5 0.784776 0.395080 0.083636
Si Si6 0.806867 0.196540 0.230888
Si Si7 0.557154 0.948923 0.000000
O O1 0.500000 0.566085 0.680048
O O2 0.568025 0.500000 0.666122
O O3 0.589537 0.589398 0.712469
O O4 0.569500 0.576749 0.577133
O O5 0.750000 0.053571 0.250000
O O6 0.834021 0.080997 0.211018
O O7 0.764306 0.078006 0.110273
O O8 0.802018 0.000000 0.159749
O O9 0.795379 0.303898 0.500000
O O10 0.750000 0.250000 0.598997
O O11 0.725933 0.338677 0.586055
O O12 0.811964 0.312254 0.642951
O O13 0.328482 0.909353 0.861143
O O14 0.345106 0.837385 0.773282
O O15 0.798078 0.410934 0.000000
O O16 0.821426 0.250000 0.250000
O O17 0.750000 0.184272 0.250000
O O18 0.500000 0.959154 0.000000
O O19 0.584206 0.000000 0.000000
#
# Coordination Sequence:
#
# PCOD8283793 Si02
#       7
#    32  32  32  32  32  32  16
#     4   9  18  31  46  64  86 113 149 193 235 272
#     4   9  17  29  41  55  82 116 145 174 212 259
#     4  10  17  27  43  62  87 119 152 184 213 249
#     4  11  18  28  45  64  85 116 154 186 220 270
#     4  10  19  28  39  61  91 118 147 182 215 259
#     4  11  17  29  45  65  91 122 150 181 223 265
#     4   7  12  26  44  60  82 111 138 174 228 277
#
# _framework density 14.892172
#
# number of rings (size 3 to 8) (size 9 to 14) (size 15 to 20)
#    0.000    2.231    4.615    1.846    1.077    0.923 
#    0.000    0.000    0.000    0.462    0.000    0.000 
#    0.000    2.462    0.000    8.462    0.000    0.000 
#
# Total GULP energy -644201.687425 kJ/mol
# GULP energy per Si atom -12388.493989 kJ/mol
# Density = 1.485828 g / cm^3
# Si number density = 14.892172 Si / 1000 Ang^3
#
#
#
# Elastic Constant Matrix: (Units=GPa)
#
#
# Indices 1 2 3 4 5 6 
#
# 1 65.1133 34.6152 26.3021 0.0000 0.0000 0.0000
# 2 34.6152 83.4722 18.0693 0.0000 0.0000 0.0000
# 3 26.3021 18.0693 81.2206 0.0000 0.0000 0.0000
# 4 0.0000 0.0000 0.0000 -32.5648 0.0000 0.0000
# 5 0.0000 0.0000 0.0000 0.0000 15.3836 0.0000
# 6 0.0000 0.0000 0.0000 0.0000 0.0000 17.6114
#
#
#
# Elastic Compliance Matrix: (Units=1/GPa)
#
#
# Indices 1 2 3 4 5 6 
#
# 1 0.021653 -0.007839 -0.005268 0.000000 0.000000 0.000000
# 2 -0.007839 0.015424 -0.000893 0.000000 0.000000 0.000000
# 3 -0.005268 -0.000893 0.014217 0.000000 0.000000 0.000000
# 4 0.000000 0.000000 0.000000 -0.030708 0.000000 0.000000
# 5 0.000000 0.000000 0.000000 0.000000 0.065004 0.000000
# 6 0.000000 0.000000 0.000000 0.000000 0.000000 0.056782
#
#
# Mechanical properties :
#
#
# Convention : Reuss Voigt Hill
#
# Bulk Modulus (GPa) = 42.92932 43.08655 43.00794
# Shear Modulus (GPa) = 28.06834 10.14067 19.10450
#
# Velocity S-wave (km/s) = 4.34611 2.61231 3.58558
# Velocity P-wave (km/s) = 7.35352 6.17204 6.78853
#
# Compressibility (1/GPa) = 0.02329410
#
# Stress axis : x y z
#
# Youngs Moduli (GPa) = 46.18258 64.83370 70.33938
#
# Poissons Ratio (x) = 0.50823 0.37056
# Poissons Ratio (y) = 0.36202 0.06280
# Poissons Ratio (z) = 0.24329 0.05789
#
# Static dielectric constant tensor:
#      x y z
#    x 2.463590 0.000000 0.000000 
#    y 0.000000 2.895900 0.000000 
#    z 0.000000 0.000000 3.130760 
# 
# 
# High freq. dielectric constant tensor:
#      x y z
#    x 1.509380 0.000000 0.000000 
#    y 0.000000 1.569420 0.000000 
#    z 0.000000 0.000000 1.574190 
# 
# From -- ./inp_files/27122.got.cif
#   From: 2010.03.12/outbox.cif.g09.slc.cpg/sg69_14_cif.got.tgz:27122.got - 2010.04.10 23:52:46.
