data_PCOD8283173
_publ_section_title
;
Structure prediction by ZEFSAII (Michael W. Deem and Ramdas Pophale) SiO2 
 PCOD8283173
Probable space group: C C C A
;
_chemical_formula_sum "Si O2"
_cell_formula_units_Z 60
_cell_length_a 9.818871
_cell_length_b 9.195942
_cell_length_c 28.412414
_cell_angle_alpha 90.000000
_cell_angle_beta 90.000000
_cell_angle_gamma 90.000000
_cell_volume 2565.463924
_symmetry_space_group_name_H-M "C C C A"
_symmetry_group_IT_number 68
_space_group.IT_coordinate_system_code '2'
_symmetry_cell_setting 'orthorhombic'
loop_
_space_group_symop_operation_xyz
x,y,z
-x,1/2-y,z
x,1/2-y,1/2-z
-x,y,1/2-z
-x,-y,-z
x,1/2+y,-z
-x,1/2+y,1/2+z
x,-y,1/2+z
1/2+x,1/2+y,z
1/2-x,-y,z
1/2+x,-y,1/2-z
1/2-x,1/2+y,1/2-z
1/2-x,1/2-y,-z
1/2+x,y,-z
1/2-x,y,1/2+z
1/2+x,1/2-y,1/2+z
loop_
_atom_site_type_symbol
_atom_site_label
_atom_site_fract_x
_atom_site_fract_y
_atom_site_fract_z
Si Si1 0.202243 0.739801 0.437440
Si Si2 0.500000 0.250000 0.146230
Si Si3 0.596648 0.461331 0.826414
Si Si4 0.500000 0.250000 0.750000
Si Si5 0.000000 0.750000 0.902987
Si Si6 0.750000 0.000000 0.503273
O O1 0.366376 0.724971 0.434323
O O2 0.155266 0.603588 0.470062
O O3 0.162498 0.892144 0.462831
O O4 0.133334 0.732819 0.386497
O O5 0.485076 0.387724 0.181064
O O6 0.750000 0.500000 0.839361
O O7 0.594496 0.355047 0.781348
O O8 0.523685 0.390391 0.870835
#
# Coordination Sequence:
#
# PCOD8283173 Si02
#       6
#    16   8  16   4   8   8
#     4  11  23  40  63  98 134 188 234 288 335 398
#     4  12  24  42  74  99 134 186 236 275 338 408
#     4  11  24  47  71 106 135 178 218 279 336 415
#     4  10  28  46  72 104 144 166 212 276 348 410
#     4  11  22  44  70  96 142 180 236 284 330 400
#     4  10  24  38  60  94 144 182 232 296 346 374
#
# _framework density 23.387581999999998
#
# number of rings (size 3 to 8) (size 9 to 14) (size 15 to 20)
#    0.000    1.067    2.667    3.200    0.000    9.067 
#    0.000    0.000    0.000    0.000    0.000    0.000 
#    0.000    0.000    0.000    0.000    0.000    0.000 
#
# Total GULP energy -371862.506606 kJ/mol
# GULP energy per Si atom -12395.416887 kJ/mol
# Density = 2.333435 g / cm^3
# Si number density = 23.387582 Si / 1000 Ang^3
#
#
#
# Elastic Constant Matrix: (Units=GPa)
#
#
# Indices 1 2 3 4 5 6 
#
# 1 123.5667 33.4135 23.8194 0.0000 0.0000 0.0000
# 2 33.4135 207.9360 57.9744 0.0000 0.0000 0.0000
# 3 23.8194 57.9744 89.6367 0.0000 0.0000 0.0000
# 4 0.0000 0.0000 0.0000 37.3673 0.0000 0.0000
# 5 0.0000 0.0000 0.0000 0.0000 7.4318 0.0000
# 6 0.0000 0.0000 0.0000 0.0000 0.0000 22.8961
#
#
#
# Elastic Compliance Matrix: (Units=1/GPa)
#
#
# Indices 1 2 3 4 5 6 
#
# 1 0.008670 -0.000916 -0.001712 0.000000 0.000000 0.000000
# 2 -0.000916 0.005964 -0.003614 0.000000 0.000000 0.000000
# 3 -0.001712 -0.003614 0.013948 0.000000 0.000000 0.000000
# 4 0.000000 0.000000 0.000000 0.026761 0.000000 0.000000
# 5 0.000000 0.000000 0.000000 0.000000 0.134557 0.000000
# 6 0.000000 0.000000 0.000000 0.000000 0.000000 0.043676
#
#
# Mechanical properties :
#
#
# Convention : Reuss Voigt Hill
#
# Bulk Modulus (GPa) = 62.11281 72.39487 67.25384
# Shear Modulus (GPa) = 19.88652 33.93451 26.91051
#
# Velocity S-wave (km/s) = 2.91916 3.81328 3.39578
# Velocity P-wave (km/s) = 6.16260 7.09998 6.64784
#
# Compressibility (1/GPa) = 0.01609974
#
# Stress axis : x y z
#
# Youngs Moduli (GPa) = 115.33452 167.67387 71.69324
#
# Poissons Ratio (x) = 0.15360 0.12270
# Poissons Ratio (y) = 0.10565 0.25909
# Poissons Ratio (z) = 0.19740 0.60595
#
# Static dielectric constant tensor:
#      x y z
#    x 3.878030 0.000000 0.000000 
#    y 0.000000 4.957640 0.000000 
#    z 0.000000 0.000000 4.037630 
# 
# 
# High freq. dielectric constant tensor:
#      x y z
#    x 1.895510 0.000000 0.000000 
#    y 0.000000 1.956880 0.000000 
#    z 0.000000 0.000000 1.915430 
# 
# From -- ./inp_files/53751.got.cif
#   From: 2010.03.12/outbox.cif.g09.slc.cpg/sg68_27_cif.got.tgz:53751.got - 2010.04.10 23:14:56.
