data_PCOD8283952
_publ_section_title
;
Structure prediction by ZEFSAII (Michael W. Deem and Ramdas Pophale) SiO2 
 PCOD8283952
Probable space group: F M M M
;
_chemical_formula_sum "Si O2"
_cell_formula_units_Z 208
_cell_length_a 25.198811
_cell_length_b 26.092038
_cell_length_c 17.403601
_cell_angle_alpha 90.000000
_cell_angle_beta 90.000000
_cell_angle_gamma 90.000000
_cell_volume 11442.664630
_symmetry_space_group_name_H-M "F M M M"
_symmetry_group_IT_number 69
_symmetry_cell_setting 'orthorhombic'
loop_
_space_group_symop_operation_xyz
x,y,z
-x,-y,z
x,-y,-z
-x,y,-z
-x,-y,-z
x,y,-z
-x,y,z
x,-y,z
x,1/2+y,1/2+z
-x,1/2-y,1/2+z
x,1/2-y,1/2-z
-x,1/2+y,1/2-z
-x,1/2-y,1/2-z
x,1/2+y,1/2-z
-x,1/2+y,1/2+z
x,1/2-y,1/2+z
1/2+x,y,1/2+z
1/2-x,-y,1/2+z
1/2+x,-y,1/2-z
1/2-x,y,1/2-z
1/2-x,-y,1/2-z
1/2+x,y,1/2-z
1/2-x,y,1/2+z
1/2+x,-y,1/2+z
1/2+x,1/2+y,z
1/2-x,1/2-y,z
1/2+x,1/2-y,-z
1/2-x,1/2+y,-z
1/2-x,1/2-y,-z
1/2+x,1/2+y,-z
1/2-x,1/2+y,z
1/2+x,1/2-y,z
loop_
_atom_site_type_symbol
_atom_site_label
_atom_site_fract_x
_atom_site_fract_y
_atom_site_fract_z
Si Si1 0.000000 0.560605 0.915235
Si Si2 0.108000 0.939565 0.667764
Si Si3 0.893583 0.783862 0.318818
Si Si4 0.559695 0.370503 0.221623
Si Si5 0.276981 0.699380 0.911094
Si Si6 0.822717 0.139276 0.410461
Si Si7 0.103166 0.309410 0.590516
O O1 0.946176 0.578579 0.874240
O O2 0.000000 0.500000 0.919349
O O3 0.000000 0.584930 0.000000
O O4 0.100589 0.915757 0.752856
O O5 0.158775 0.915334 0.624178
O O6 0.116688 0.000000 0.671037
O O7 0.867740 0.750000 0.250000
O O8 0.935779 0.822462 0.280473
O O9 0.849364 0.814378 0.365171
O O10 0.920998 0.745129 0.380618
O O11 0.500000 0.391691 0.223993
O O12 0.573342 0.355339 0.134187
O O13 0.250000 0.750000 0.872906
O O14 0.240392 0.648596 0.899050
O O15 0.335723 0.688730 0.879302
O O16 0.284969 0.711976 0.000000
O O17 0.838303 0.141641 0.500000
O O18 0.095124 0.316911 0.500000
#
# Coordination Sequence:
#
# PCOD8283952 Si02
#       7
#    16  32  32  32  32  32  32
#     4   9  16  28  50  78 102 127 169 217 254 304
#     4  10  20  35  54  77 104 138 174 214 269 327
#     4   9  18  30  46  72 105 141 174 209 256 315
#     4  10  21  36  52  73 105 142 176 217 271 325
#     4   9  16  29  51  77 106 139 174 216 260 306
#     4  10  18  30  51  77 108 139 171 215 264 310
#     4  10  19  33  54  77 103 137 182 225 259 306
#
# _framework density 18.177585000000001
#
# number of rings (size 3 to 8) (size 9 to 14) (size 15 to 20)
#    0.000    2.385    2.308    0.923    0.000    4.000 
#    0.000    9.231    0.000    2.308    0.000    3.231 
#    0.000    0.000    0.000    0.000    0.000    0.000 
#
# Total GULP energy -644341.165242 kJ/mol
# GULP energy per Si atom -12391.176255 kJ/mol
# Density = 1.813621 g / cm^3
# Si number density = 18.177585 Si / 1000 Ang^3
#
#
#
# Elastic Constant Matrix: (Units=GPa)
#
#
# Indices 1 2 3 4 5 6 
#
# 1 57.5495 23.7766 14.5263 0.0000 0.0000 0.0000
# 2 23.7766 100.4884 40.8796 0.0000 0.0000 0.0000
# 3 14.5263 40.8796 97.2733 0.0000 0.0000 0.0000
# 4 0.0000 0.0000 0.0000 19.5088 0.0000 0.0000
# 5 0.0000 0.0000 0.0000 0.0000 21.5017 0.0000
# 6 0.0000 0.0000 0.0000 0.0000 0.0000 22.1714
#
#
#
# Elastic Compliance Matrix: (Units=1/GPa)
#
#
# Indices 1 2 3 4 5 6 
#
# 1 0.019368 -0.004108 -0.001166 0.000000 0.000000 0.000000
# 2 -0.004108 0.012875 -0.004797 0.000000 0.000000 0.000000
# 3 -0.001166 -0.004797 0.012470 0.000000 0.000000 0.000000
# 4 0.000000 0.000000 0.000000 0.051259 0.000000 0.000000
# 5 0.000000 0.000000 0.000000 0.000000 0.046508 0.000000
# 6 0.000000 0.000000 0.000000 0.000000 0.000000 0.045103
#
#
# Mechanical properties :
#
#
# Convention : Reuss Voigt Hill
#
# Bulk Modulus (GPa) = 40.69897 45.96403 43.33150
# Shear Modulus (GPa) = 23.15708 24.37829 23.76769
#
# Velocity S-wave (km/s) = 3.57310 3.66610 3.61990
# Velocity P-wave (km/s) = 6.28179 6.57734 6.43127
#
# Compressibility (1/GPa) = 0.02457065
#
# Stress axis : x y z
#
# Youngs Moduli (GPa) = 51.63159 77.66939 80.18931
#
# Poissons Ratio (x) = 0.31910 0.09348
# Poissons Ratio (y) = 0.21213 0.38469
# Poissons Ratio (z) = 0.06019 0.37260
#
# Static dielectric constant tensor:
#      x y z
#    x 3.295540 0.000000 0.000000 
#    y 0.000000 3.185600 0.000000 
#    z 0.000000 0.000000 3.408110 
# 
# 
# High freq. dielectric constant tensor:
#      x y z
#    x 1.686840 0.000000 0.000000 
#    y 0.000000 1.679760 0.000000 
#    z 0.000000 0.000000 1.702320 
# 
# From -- ./inp_files/27086.got.cif
#   From: 2010.03.12/outbox.cif.g09.slc.cpg/sg69_14_cif.got.tgz:27086.got - 2010.04.10 23:52:46.
