data_PCOD8283111
_publ_section_title
;
Structure prediction by ZEFSAII (Michael W. Deem and Ramdas Pophale) SiO2 
 PCOD8283111
Probable space group: C C C A
;
_chemical_formula_sum "Si O2"
_cell_formula_units_Z 104
_cell_length_a 17.488684
_cell_length_b 19.401128
_cell_length_c 14.160467
_cell_angle_alpha 90.000000
_cell_angle_beta 90.000000
_cell_angle_gamma 90.000000
_cell_volume 4804.649240
_symmetry_space_group_name_H-M "C C C A"
_symmetry_group_IT_number 68
_space_group.IT_coordinate_system_code '2'
_symmetry_cell_setting 'orthorhombic'
loop_
_space_group_symop_operation_xyz
x,y,z
-x,1/2-y,z
x,1/2-y,1/2-z
-x,y,1/2-z
-x,-y,-z
x,1/2+y,-z
-x,1/2+y,1/2+z
x,-y,1/2+z
1/2+x,1/2+y,z
1/2-x,-y,z
1/2+x,-y,1/2-z
1/2-x,1/2+y,1/2-z
1/2-x,1/2-y,-z
1/2+x,y,-z
1/2-x,y,1/2+z
1/2+x,1/2-y,1/2+z
loop_
_atom_site_type_symbol
_atom_site_label
_atom_site_fract_x
_atom_site_fract_y
_atom_site_fract_z
Si Si1 0.933445 0.357788 0.014797
Si Si2 0.937386 0.111673 0.688429
Si Si3 0.333207 0.265980 0.463732
Si Si4 0.663705 0.488306 0.793369
Si Si5 0.661599 0.017395 0.928218
Si Si6 0.628592 0.750000 0.750000
Si Si7 0.903619 0.899666 0.548837
O O1 0.970546 0.367720 0.911967
O O2 0.897991 0.281097 0.015199
O O3 0.861605 0.406597 0.037765
O O4 0.010007 0.373631 0.075663
O O5 0.919313 0.179974 0.748946
O O6 0.000000 0.070650 0.750000
O O7 0.868332 0.060595 0.669678
O O8 0.250000 0.250000 0.500000
O O9 0.325991 0.254376 0.349903
O O10 0.353479 0.342645 0.495652
O O11 0.750000 0.500000 0.820347
O O12 0.648437 0.481089 0.683147
O O13 0.631066 0.422188 0.849605
O O14 0.750000 0.000000 0.954091
O O15 0.602201 0.965191 0.978262
#
# Coordination Sequence:
#
# PCOD8283111 Si02
#       7
#    16  16  16  16  16   8  16
#     4  11  24  41  65  99 135 174 221 286 346 410
#     4  11  22  39  68 101 134 169 226 284 345 396
#     4  11  25  45  70  98 136 177 230 285 352 412
#     4  11  26  40  67  97 137 182 232 275 340 417
#     4  11  23  42  66  97 135 180 230 277 337 407
#     4  10  23  42  72 100 133 170 230 290 345 402
#     4  12  24  43  68  99 138 177 228 285 348 408
#
# _framework density 21.645700000000001
#
# number of rings (size 3 to 8) (size 9 to 14) (size 15 to 20)
#    0.000    0.923    1.538    5.308    6.462    3.692 
#    0.000    0.000    0.000    1.846    0.000    0.000 
#    0.000    0.000    0.000    0.000    0.000    0.000 
#
# Total GULP energy -644351.369522 kJ/mol
# GULP energy per Si atom -12391.372491 kJ/mol
# Density = 2.159643 g / cm^3
# Si number density = 21.645700 Si / 1000 Ang^3
#
#
#
# Elastic Constant Matrix: (Units=GPa)
#
#
# Indices 1 2 3 4 5 6 
#
# 1 102.7489 8.1237 19.4835 0.0000 0.0000 0.0000
# 2 8.1237 88.7437 9.5638 0.0000 0.0000 0.0000
# 3 19.4835 9.5638 89.6707 0.0000 0.0000 0.0000
# 4 0.0000 0.0000 0.0000 40.0689 0.0000 0.0000
# 5 0.0000 0.0000 0.0000 0.0000 26.7961 0.0000
# 6 0.0000 0.0000 0.0000 0.0000 0.0000 45.9135
#
#
#
# Elastic Compliance Matrix: (Units=1/GPa)
#
#
# Indices 1 2 3 4 5 6 
#
# 1 0.010194 -0.000703 -0.002140 0.000000 0.000000 0.000000
# 2 -0.000703 0.011448 -0.001068 0.000000 0.000000 0.000000
# 3 -0.002140 -0.001068 0.011731 0.000000 0.000000 0.000000
# 4 0.000000 0.000000 0.000000 0.024957 0.000000 0.000000
# 5 0.000000 0.000000 0.000000 0.000000 0.037319 0.000000
# 6 0.000000 0.000000 0.000000 0.000000 0.000000 0.021780
#
#
# Mechanical properties :
#
#
# Convention : Reuss Voigt Hill
#
# Bulk Modulus (GPa) = 39.13767 39.50060 39.31914
# Shear Modulus (GPa) = 37.37841 38.82184 38.10013
#
# Velocity S-wave (km/s) = 4.16002 4.23958 4.19999
# Velocity P-wave (km/s) = 6.41831 6.50029 6.45943
#
# Compressibility (1/GPa) = 0.02555083
#
# Stress axis : x y z
#
# Youngs Moduli (GPa) = 98.09894 87.35265 85.24545
#
# Poissons Ratio (x) = 0.06137 0.18242
# Poissons Ratio (y) = 0.06892 0.09107
# Poissons Ratio (z) = 0.20993 0.09332
#
# Static dielectric constant tensor:
#      x y z
#    x 3.937270 0.000000 0.000000 
#    y 0.000000 4.272440 0.000000 
#    z 0.000000 0.000000 3.995640 
# 
# 
# High freq. dielectric constant tensor:
#      x y z
#    x 1.853370 0.000000 0.000000 
#    y 0.000000 1.854620 0.000000 
#    z 0.000000 0.000000 1.855130 
# 
# From -- ./inp_files/23803.got.cif
#   From: 2010.03.12/outbox.cif.g09.slc.cpg/sg68_12_cif.got.tgz:23803.got - 2010.04.10 23:14:56.
