data_PCOD8283530
_publ_section_title
;
Structure prediction by ZEFSAII (Michael W. Deem and Ramdas Pophale) SiO2 
 PCOD8283530
Probable space group: C C C A
;
_chemical_formula_sum "Si O2"
_cell_formula_units_Z 112
_cell_length_a 15.364838
_cell_length_b 27.150900
_cell_length_c 10.913184
_cell_angle_alpha 90.000000
_cell_angle_beta 90.000000
_cell_angle_gamma 90.000000
_cell_volume 4552.644021
_symmetry_space_group_name_H-M "C C C A"
_symmetry_group_IT_number 68
_space_group.IT_coordinate_system_code '2'
_symmetry_cell_setting 'orthorhombic'
loop_
_space_group_symop_operation_xyz
x,y,z
-x,1/2-y,z
x,1/2-y,1/2-z
-x,y,1/2-z
-x,-y,-z
x,1/2+y,-z
-x,1/2+y,1/2+z
x,-y,1/2+z
1/2+x,1/2+y,z
1/2-x,-y,z
1/2+x,-y,1/2-z
1/2-x,1/2+y,1/2-z
1/2-x,1/2-y,-z
1/2+x,y,-z
1/2-x,y,1/2+z
1/2+x,1/2-y,1/2+z
loop_
_atom_site_type_symbol
_atom_site_label
_atom_site_fract_x
_atom_site_fract_y
_atom_site_fract_z
Si Si1 0.458009 0.800083 0.947623
Si Si2 0.456162 0.040101 0.870436
Si Si3 0.629267 0.046708 0.017518
Si Si4 0.900934 0.354896 0.401010
Si Si5 0.266098 0.383788 0.419285
Si Si6 0.345198 0.297542 0.815192
Si Si7 0.594946 0.117784 0.222248
O O1 0.500000 0.750000 0.897558
O O2 0.530510 0.839039 0.993863
O O3 0.393655 0.784728 0.058215
O O4 0.409807 0.825955 0.831662
O O5 0.500000 0.014956 0.750000
O O6 0.419476 0.093042 0.836724
O O7 0.372969 0.008579 0.924375
O O8 0.532423 0.050331 0.966102
O O9 0.643545 0.087085 0.119961
O O10 0.708192 0.064953 0.927810
O O11 0.801974 0.360132 0.453702
O O12 0.910456 0.315821 0.291216
O O13 0.219805 0.341706 0.341077
O O14 0.353903 0.394131 0.345990
O O15 0.299492 0.250000 0.750000
O O16 0.500000 0.096788 0.250000
#
# Coordination Sequence:
#
# PCOD8283530 Si02
#       7
#    16  16  16  16  16  16  16
#     4  12  24  45  73 107 141 201 266 323 389 484
#     4  11  23  44  76 108 142 190 252 321 387 476
#     4  11  24  45  72 107 144 193 253 307 397 465
#     4  12  24  44  69 104 149 199 258 318 393 468
#     4  12  26  46  70 106 156 202 250 327 392 471
#     4  12  26  43  73 104 147 202 259 327 398 463
#     4  12  24  48  73 106 153 203 255 321 390 480
#
# _framework density 24.601089999999999
#
# number of rings (size 3 to 8) (size 9 to 14) (size 15 to 20)
#    0.000    0.286    5.714    3.429    0.000    3.714 
#    0.000    1.429    0.000    0.000    0.000    0.000 
#    0.000    0.000    0.000    0.000    0.000    0.000 
#
# Total GULP energy -693746.067835 kJ/mol
# GULP energy per Si atom -12388.322640 kJ/mol
# Density = 2.454510 g / cm^3
# Si number density = 24.601090 Si / 1000 Ang^3
#
#
#
# Elastic Constant Matrix: (Units=GPa)
#
#
# Indices 1 2 3 4 5 6 
#
# 1 96.2958 27.8563 23.5070 0.0000 0.0000 0.0000
# 2 27.8563 120.0237 29.0895 0.0000 0.0000 0.0000
# 3 23.5070 29.0895 72.4666 0.0000 0.0000 0.0000
# 4 0.0000 0.0000 0.0000 10.2391 0.0000 0.0000
# 5 0.0000 0.0000 0.0000 0.0000 43.7851 0.0000
# 6 0.0000 0.0000 0.0000 0.0000 0.0000 30.5364
#
#
#
# Elastic Compliance Matrix: (Units=1/GPa)
#
#
# Indices 1 2 3 4 5 6 
#
# 1 0.011691 -0.001988 -0.002994 0.000000 0.000000 0.000000
# 2 -0.001988 0.009568 -0.003196 0.000000 0.000000 0.000000
# 3 -0.002994 -0.003196 0.016054 0.000000 0.000000 0.000000
# 4 0.000000 0.000000 0.000000 0.097665 0.000000 0.000000
# 5 0.000000 0.000000 0.000000 0.000000 0.022839 0.000000
# 6 0.000000 0.000000 0.000000 0.000000 0.000000 0.032748
#
#
# Mechanical properties :
#
#
# Convention : Reuss Voigt Hill
#
# Bulk Modulus (GPa) = 47.71860 49.96576 48.84218
# Shear Modulus (GPa) = 23.37493 30.80101 27.08797
#
# Velocity S-wave (km/s) = 3.08581 3.54223 3.32186
# Velocity P-wave (km/s) = 5.66880 6.08969 5.88301
#
# Compressibility (1/GPa) = 0.02095619
#
# Stress axis : x y z
#
# Youngs Moduli (GPa) = 85.53891 104.52004 62.29092
#
# Poissons Ratio (x) = 0.20774 0.18652
# Poissons Ratio (y) = 0.17001 0.19907
# Poissons Ratio (z) = 0.25614 0.33403
#
# Static dielectric constant tensor:
#      x y z
#    x 4.264630 0.000000 0.000000 
#    y 0.000000 4.495050 0.000000 
#    z 0.000000 0.000000 4.630040 
# 
# 
# High freq. dielectric constant tensor:
#      x y z
#    x 1.964740 0.000000 0.000000 
#    y 0.000000 1.976340 0.000000 
#    z 0.000000 0.000000 1.988820 
# 
# From -- ./inp_files/13612.got.cif
#   From: 2010.03.12/outbox.cif.g09.slc.cpg/sg68_7_cif.got.tgz:13612.got - 2010.04.10 23:14:56.
