data_PCOD8283667
_publ_section_title
;
Structure prediction by ZEFSAII (Michael W. Deem and Ramdas Pophale) SiO2 
 PCOD8283667
Probable space group: C C C A
;
_chemical_formula_sum "Si O2"
_cell_formula_units_Z 56
_cell_length_a 16.046510
_cell_length_b 9.005851
_cell_length_c 16.643045
_cell_angle_alpha 90.000000
_cell_angle_beta 90.000000
_cell_angle_gamma 90.000000
_cell_volume 2405.127677
_symmetry_space_group_name_H-M "C C C A"
_symmetry_group_IT_number 68
_space_group.IT_coordinate_system_code '2'
_symmetry_cell_setting 'orthorhombic'
loop_
_space_group_symop_operation_xyz
x,y,z
-x,1/2-y,z
x,1/2-y,1/2-z
-x,y,1/2-z
-x,-y,-z
x,1/2+y,-z
-x,1/2+y,1/2+z
x,-y,1/2+z
1/2+x,1/2+y,z
1/2-x,-y,z
1/2+x,-y,1/2-z
1/2-x,1/2+y,1/2-z
1/2-x,1/2-y,-z
1/2+x,y,-z
1/2-x,y,1/2+z
1/2+x,1/2-y,1/2+z
loop_
_atom_site_type_symbol
_atom_site_label
_atom_site_fract_x
_atom_site_fract_y
_atom_site_fract_z
Si Si1 0.815514 0.187325 0.940054
Si Si2 0.750000 0.500000 0.195435
Si Si3 0.914559 0.584936 0.782246
Si Si4 0.413216 0.477060 0.043192
O O1 0.768491 0.148253 0.856978
O O2 0.890744 0.307898 0.930478
O O3 0.750000 0.250000 0.000000
O O4 0.847494 0.032925 0.977187
O O5 0.831246 0.490824 0.250375
O O6 0.916041 0.750000 0.750000
O O7 0.912614 0.581642 0.878558
O O8 0.000000 0.505286 0.750000
O O9 0.500000 0.500000 0.000000
#
# Coordination Sequence:
#
# PCOD8283667 Si02
#       4
#    16   8  16  16
#     4  12  25  45  75 107 145 193 256 308 387 464
#     4  12  26  46  76 110 154 196 260 324 392 464
#     4  11  28  46  73 107 154 199 251 316 399 460
#     4  12  27  47  75 110 148 199 256 321 385 474
#
# _framework density 23.283588000000002
#
# number of rings (size 3 to 8) (size 9 to 14) (size 15 to 20)
#    0.000    0.286    2.857    4.286   16.000    0.000 
#    0.000    1.429    0.000    0.000    0.000    0.000 
#    0.000    0.000    0.000    0.000    0.000    0.000 
#
# Total GULP energy -347161.102402 kJ/mol
# GULP energy per Si atom -12398.610800 kJ/mol
# Density = 2.323059 g / cm^3
# Si number density = 23.283588 Si / 1000 Ang^3
#
#
#
# Elastic Constant Matrix: (Units=GPa)
#
#
# Indices 1 2 3 4 5 6 
#
# 1 187.7232 30.4131 60.0292 0.0000 0.0000 0.0000
# 2 30.4131 97.8293 29.2378 0.0000 0.0000 0.0000
# 3 60.0292 29.2378 143.1400 0.0000 0.0000 0.0000
# 4 0.0000 0.0000 0.0000 34.8073 0.0000 0.0000
# 5 0.0000 0.0000 0.0000 0.0000 51.1281 0.0000
# 6 0.0000 0.0000 0.0000 0.0000 0.0000 46.0956
#
#
#
# Elastic Compliance Matrix: (Units=1/GPa)
#
#
# Indices 1 2 3 4 5 6 
#
# 1 0.006291 -0.001243 -0.002384 0.000000 0.000000 0.000000
# 2 -0.001243 0.011132 -0.001753 0.000000 0.000000 0.000000
# 3 -0.002384 -0.001753 0.008344 0.000000 0.000000 0.000000
# 4 0.000000 0.000000 0.000000 0.028730 0.000000 0.000000
# 5 0.000000 0.000000 0.000000 0.000000 0.019559 0.000000
# 6 0.000000 0.000000 0.000000 0.000000 0.000000 0.021694
#
#
# Mechanical properties :
#
#
# Convention : Reuss Voigt Hill
#
# Bulk Modulus (GPa) = 66.63489 74.22806 70.43147
# Shear Modulus (GPa) = 44.83839 47.00702 45.92270
#
# Velocity S-wave (km/s) = 4.39310 4.49808 4.44590
# Velocity P-wave (km/s) = 7.37654 7.67634 7.52793
#
# Compressibility (1/GPa) = 0.01500715
#
# Stress axis : x y z
#
# Youngs Moduli (GPa) = 158.96169 89.83024 119.84589
#
# Poissons Ratio (x) = 0.11167 0.28575
# Poissons Ratio (y) = 0.19761 0.21003
# Poissons Ratio (z) = 0.37901 0.15743
#
# Static dielectric constant tensor:
#      x y z
#    x 4.950940 0.000000 0.000000 
#    y 0.000000 4.664540 0.000000 
#    z 0.000000 0.000000 4.310720 
# 
# 
# High freq. dielectric constant tensor:
#      x y z
#    x 1.948100 0.000000 0.000000 
#    y 0.000000 1.909990 0.000000 
#    z 0.000000 0.000000 1.927550 
# 
# From -- ./inp_files/21595.got.cif
#   From: 2010.03.12/outbox.cif.g09.slc.cpg/sg68_11_cif.got.tgz:21595.got - 2010.04.10 23:14:56.
