data_PCOD8283446
_publ_section_title
;
Structure prediction by ZEFSAII (Michael W. Deem and Ramdas Pophale) SiO2 
 PCOD8283446
Probable space group: C C C A
;
_chemical_formula_sum "Si O2"
_cell_formula_units_Z 80
_cell_length_a 11.280611
_cell_length_b 23.299541
_cell_length_c 13.915055
_cell_angle_alpha 90.000000
_cell_angle_beta 90.000000
_cell_angle_gamma 90.000000
_cell_volume 3657.336465
_symmetry_space_group_name_H-M "C C C A"
_symmetry_group_IT_number 68
_space_group.IT_coordinate_system_code '2'
_symmetry_cell_setting 'orthorhombic'
loop_
_space_group_symop_operation_xyz
x,y,z
-x,1/2-y,z
x,1/2-y,1/2-z
-x,y,1/2-z
-x,-y,-z
x,1/2+y,-z
-x,1/2+y,1/2+z
x,-y,1/2+z
1/2+x,1/2+y,z
1/2-x,-y,z
1/2+x,-y,1/2-z
1/2-x,1/2+y,1/2-z
1/2-x,1/2-y,-z
1/2+x,y,-z
1/2-x,y,1/2+z
1/2+x,1/2-y,1/2+z
loop_
_atom_site_type_symbol
_atom_site_label
_atom_site_fract_x
_atom_site_fract_y
_atom_site_fract_z
Si Si1 0.000000 0.250000 0.750000
Si Si2 0.352671 0.907937 0.641257
Si Si3 0.321972 0.199202 0.612343
Si Si4 0.877265 0.575619 0.355193
Si Si5 0.000000 0.750000 0.750000
Si Si6 0.750000 0.500000 0.496479
Si Si7 0.665209 0.307222 0.399365
O O1 0.930881 0.207073 0.681114
O O2 0.279894 0.847621 0.639353
O O3 0.491834 0.898891 0.620600
O O4 0.351169 0.940621 0.744395
O O5 0.297460 0.949054 0.561795
O O6 0.424734 0.203179 0.690378
O O7 0.382853 0.189911 0.508858
O O8 0.270614 0.263104 0.611029
O O9 0.853773 0.522252 0.425634
O O10 0.788065 0.628509 0.377636
#
# Coordination Sequence:
#
# PCOD8283446 Si02
#       7
#     4  16  16  16   4   8  16
#     4  12  20  36  68 100 130 168 224 260 344 414
#     4  11  24  45  68  96 135 176 225 273 339 409
#     4  11  24  43  65 100 141 174 218 276 343 412
#     4  11  23  43  71  96 129 181 223 275 337 403
#     4  12  24  40  64 108 146 172 220 280 348 410
#     4  12  24  46  64 102 132 170 234 292 326 386
#     4  11  22  41  66  97 131 174 216 273 334 418
#
# _framework density 21.873843000000001
#
# number of rings (size 3 to 8) (size 9 to 14) (size 15 to 20)
#    0.000    0.800    2.000    7.200    0.000    1.600 
#    3.600    2.000    0.000    0.000    0.000    0.000 
#    0.000    0.000    0.000    0.000    0.000    0.000 
#
# Total GULP energy -495659.128008 kJ/mol
# GULP energy per Si atom -12391.478200 kJ/mol
# Density = 2.182406 g / cm^3
# Si number density = 21.873843 Si / 1000 Ang^3
#
#
#
# Elastic Constant Matrix: (Units=GPa)
#
#
# Indices 1 2 3 4 5 6 
#
# 1 91.6308 36.8485 66.3221 0.0000 0.0000 0.0000
# 2 36.8485 96.8340 33.6614 0.0000 0.0000 0.0000
# 3 66.3221 33.6614 161.9716 0.0000 0.0000 0.0000
# 4 0.0000 0.0000 0.0000 30.3917 0.0000 0.0000
# 5 0.0000 0.0000 0.0000 0.0000 46.9609 0.0000
# 6 0.0000 0.0000 0.0000 0.0000 0.0000 30.8394
#
#
#
# Elastic Compliance Matrix: (Units=1/GPa)
#
#
# Indices 1 2 3 4 5 6 
#
# 1 0.017079 -0.004385 -0.006082 0.000000 0.000000 0.000000
# 2 -0.004385 0.012257 -0.000752 0.000000 0.000000 0.000000
# 3 -0.006082 -0.000752 0.008821 0.000000 0.000000 0.000000
# 4 0.000000 0.000000 0.000000 0.032904 0.000000 0.000000
# 5 0.000000 0.000000 0.000000 0.000000 0.021294 0.000000
# 6 0.000000 0.000000 0.000000 0.000000 0.000000 0.032426
#
#
# Mechanical properties :
#
#
# Convention : Reuss Voigt Hill
#
# Bulk Modulus (GPa) = 63.61728 69.34450 66.48089
# Shear Modulus (GPa) = 32.79613 35.87870 34.33741
#
# Velocity S-wave (km/s) = 3.87632 4.05440 3.96636
# Velocity P-wave (km/s) = 7.01294 7.32724 7.17181
#
# Compressibility (1/GPa) = 0.01571900
#
# Stress axis : x y z
#
# Youngs Moduli (GPa) = 58.55221 81.58691 113.37202
#
# Poissons Ratio (x) = 0.35775 0.68952
# Poissons Ratio (y) = 0.25674 0.08523
# Poissons Ratio (z) = 0.35611 0.06134
#
# Static dielectric constant tensor:
#      x y z
#    x 3.769340 0.000000 0.000000 
#    y 0.000000 4.430830 0.000000 
#    z 0.000000 0.000000 4.543760 
# 
# 
# High freq. dielectric constant tensor:
#      x y z
#    x 1.835010 0.000000 0.000000 
#    y 0.000000 1.860470 0.000000 
#    z 0.000000 0.000000 1.893380 
# 
# From -- ./inp_files/20939.got.cif
#   From: 2010.03.12/outbox.cif.g09.slc.cpg/sg68_11_cif.got.tgz:20939.got - 2010.04.10 23:14:56.
