data_PCOD8283435
_publ_section_title
;
Structure prediction by ZEFSAII (Michael W. Deem and Ramdas Pophale) SiO2 
 PCOD8283435
Probable space group: C C C A
;
_chemical_formula_sum "Si O2"
_cell_formula_units_Z 104
_cell_length_a 29.803139
_cell_length_b 8.667603
_cell_length_c 18.414797
_cell_angle_alpha 90.000000
_cell_angle_beta 90.000000
_cell_angle_gamma 90.000000
_cell_volume 4756.943084
_symmetry_space_group_name_H-M "C C C A"
_symmetry_group_IT_number 68
_space_group.IT_coordinate_system_code '2'
_symmetry_cell_setting 'orthorhombic'
loop_
_space_group_symop_operation_xyz
x,y,z
-x,1/2-y,z
x,1/2-y,1/2-z
-x,y,1/2-z
-x,-y,-z
x,1/2+y,-z
-x,1/2+y,1/2+z
x,-y,1/2+z
1/2+x,1/2+y,z
1/2-x,-y,z
1/2+x,-y,1/2-z
1/2-x,1/2+y,1/2-z
1/2-x,1/2-y,-z
1/2+x,y,-z
1/2-x,y,1/2+z
1/2+x,1/2-y,1/2+z
loop_
_atom_site_type_symbol
_atom_site_label
_atom_site_fract_x
_atom_site_fract_y
_atom_site_fract_z
Si Si1 0.082691 0.921700 0.088494
Si Si2 0.832399 0.813873 0.322962
Si Si3 0.331447 0.946851 0.923231
Si Si4 0.495227 0.068157 0.668296
Si Si5 0.707818 0.223397 0.950097
Si Si6 0.429429 0.574776 0.566702
Si Si7 0.750000 0.000000 0.337885
O O1 0.132735 0.902154 0.123063
O O2 0.061065 0.756960 0.069134
O O3 0.054269 0.013670 0.147593
O O4 0.078535 0.020433 0.015493
O O5 0.856795 0.750000 0.250000
O O6 0.808786 0.673828 0.367581
O O7 0.790281 0.917253 0.294047
O O8 0.382404 0.963329 0.894336
O O9 0.309103 0.113066 0.920980
O O10 0.329777 0.869961 0.003850
O O11 0.500000 0.250000 0.667228
O O12 0.500000 0.003481 0.750000
O O13 0.530772 0.005590 0.610023
O O14 0.721824 0.121720 0.883324
O O15 0.750000 0.250000 0.000000
#
# Coordination Sequence:
#
# PCOD8283435 Si02
#       7
#    16  16  16  16  16  16   8
#     4  11  24  44  74  99 146 175 241 295 351 430
#     4  11  27  45  66  97 139 192 237 289 360 432
#     4  11  22  39  66  98 136 172 231 285 342 419
#     4  11  26  45  70 103 145 186 230 286 357 430
#     4  12  20  37  67 100 133 174 230 296 358 404
#     4  11  23  41  70 105 130 184 229 291 350 411
#     4  12  24  40  64  96 134 176 236 290 350 422
#
# _framework density 21.862780000000001
#
# number of rings (size 3 to 8) (size 9 to 14) (size 15 to 20)
#    0.000    0.769    3.077    4.615    4.308    3.077 
#    0.000    0.000    3.385    0.000    0.000    0.000 
#    0.000    0.000    0.000    0.000    0.000    0.000 
#
# Total GULP energy -644410.686452 kJ/mol
# GULP energy per Si atom -12392.513201 kJ/mol
# Density = 2.181302 g / cm^3
# Si number density = 21.862780 Si / 1000 Ang^3
#
#
#
# Elastic Constant Matrix: (Units=GPa)
#
#
# Indices 1 2 3 4 5 6 
#
# 1 98.7148 39.2779 30.2503 0.0000 0.0000 0.0000
# 2 39.2779 126.2630 33.1611 0.0000 0.0000 0.0000
# 3 30.2503 33.1611 112.0364 0.0000 0.0000 0.0000
# 4 0.0000 0.0000 0.0000 11.3760 0.0000 0.0000
# 5 0.0000 0.0000 0.0000 0.0000 117.4180 0.0000
# 6 0.0000 0.0000 0.0000 0.0000 0.0000 38.3419
#
#
#
# Elastic Compliance Matrix: (Units=1/GPa)
#
#
# Indices 1 2 3 4 5 6 
#
# 1 0.012099 -0.003151 -0.002334 0.000000 0.000000 0.000000
# 2 -0.003151 0.009408 -0.001934 0.000000 0.000000 0.000000
# 3 -0.002334 -0.001934 0.010128 0.000000 0.000000 0.000000
# 4 0.000000 0.000000 0.000000 0.087904 0.000000 0.000000
# 5 0.000000 0.000000 0.000000 0.000000 0.008517 0.000000
# 6 0.000000 0.000000 0.000000 0.000000 0.000000 0.026081
#
#
# Mechanical properties :
#
#
# Convention : Reuss Voigt Hill
#
# Bulk Modulus (GPa) = 59.53199 60.26586 59.89892
# Shear Modulus (GPa) = 28.64105 49.04886 38.84496
#
# Velocity S-wave (km/s) = 3.62337 4.74168 4.21974
# Velocity P-wave (km/s) = 6.69283 7.58969 7.15533
#
# Compressibility (1/GPa) = 0.01679769
#
# Stress axis : x y z
#
# Youngs Moduli (GPa) = 82.65038 106.29226 98.73292
#
# Poissons Ratio (x) = 0.33490 0.23047
# Poissons Ratio (y) = 0.26041 0.19094
# Poissons Ratio (z) = 0.19293 0.20556
#
# Static dielectric constant tensor:
#      x y z
#    x 4.502540 0.000000 0.000000 
#    y 0.000000 4.172550 0.000000 
#    z 0.000000 0.000000 3.914370 
# 
# 
# High freq. dielectric constant tensor:
#      x y z
#    x 1.865160 0.000000 0.000000 
#    y 0.000000 1.874300 0.000000 
#    z 0.000000 0.000000 1.848520 
# 
# From -- ./inp_files/41572.got.cif
#   From: 2010.03.12/outbox.cif.g09.slc.cpg/sg68_21_cif.got.tgz:41572.got - 2010.04.10 23:14:56.
