data_PCOD8283788
_publ_section_title
;
Structure prediction by ZEFSAII (Michael W. Deem and Ramdas Pophale) SiO2 
 PCOD8283788
Probable space group: F M M M
;
_chemical_formula_sum "Si O2"
_cell_formula_units_Z 192
_cell_length_a 22.178214
_cell_length_b 27.696792
_cell_length_c 22.226351
_cell_angle_alpha 90.000000
_cell_angle_beta 90.000000
_cell_angle_gamma 90.000000
_cell_volume 13652.877945
_symmetry_space_group_name_H-M "F M M M"
_symmetry_group_IT_number 69
_symmetry_cell_setting 'orthorhombic'
loop_
_space_group_symop_operation_xyz
x,y,z
-x,-y,z
x,-y,-z
-x,y,-z
-x,-y,-z
x,y,-z
-x,y,z
x,-y,z
x,1/2+y,1/2+z
-x,1/2-y,1/2+z
x,1/2-y,1/2-z
-x,1/2+y,1/2-z
-x,1/2-y,1/2-z
x,1/2+y,1/2-z
-x,1/2+y,1/2+z
x,1/2-y,1/2+z
1/2+x,y,1/2+z
1/2-x,-y,1/2+z
1/2+x,-y,1/2-z
1/2-x,y,1/2-z
1/2-x,-y,1/2-z
1/2+x,y,1/2-z
1/2-x,y,1/2+z
1/2+x,-y,1/2+z
1/2+x,1/2+y,z
1/2-x,1/2-y,z
1/2+x,1/2-y,-z
1/2-x,1/2+y,-z
1/2-x,1/2-y,-z
1/2+x,1/2+y,-z
1/2-x,1/2+y,z
1/2+x,1/2-y,z
loop_
_atom_site_type_symbol
_atom_site_label
_atom_site_fract_x
_atom_site_fract_y
_atom_site_fract_z
Si Si1 0.434613 0.192310 0.756553
Si Si2 0.657090 0.719728 0.655762
Si Si3 0.888180 0.857362 0.139283
Si Si4 0.276886 0.815170 0.684361
Si Si5 0.571078 0.554658 0.932629
Si Si6 0.568923 0.730383 0.070117
O O1 0.500000 0.176677 0.782780
O O2 0.435003 0.250000 0.750000
O O3 0.379362 0.182090 0.801771
O O4 0.426565 0.161782 0.695773
O O5 0.676394 0.769835 0.689269
O O6 0.720739 0.694397 0.638740
O O7 0.613672 0.730401 0.599670
O O8 0.816818 0.857890 0.156173
O O9 0.901627 0.911663 0.119309
O O10 0.905543 0.822892 0.083442
O O11 0.250000 0.826638 0.750000
O O12 0.500000 0.560778 0.931562
O O13 0.589807 0.500000 0.916620
O O14 0.594570 0.567794 0.000000
O O15 0.500000 0.735906 0.094494
O O16 0.570462 0.739940 0.000000
#
# Coordination Sequence:
#
# PCOD8283788 Si02
#       6
#    32  32  32  32  32  32
#     4  11  17  23  38  61  85 106 139 184 216 248
#     4  10  17  27  39  55  78 114 151 170 203 248
#     4  11  19  27  43  64  84 108 145 179 216 254
#     4  10  17  27  40  57  81 114 141 171 205 244
#     4   9  18  33  50  66  87 113 140 177 224 265
#     4  10  19  28  38  55  83 114 142 179 216 246
#
# _framework density 14.062969000000001
#
# number of rings (size 3 to 8) (size 9 to 14) (size 15 to 20)
#    0.000    1.833    5.000    4.000    0.000    1.333 
#    0.000    7.500    0.000    0.500    0.000    0.000 
#    0.000    0.000    0.000    0.000    0.000    0.167 
#
# Total GULP energy -594647.324649 kJ/mol
# GULP energy per Si atom -12388.485930 kJ/mol
# Density = 1.403096 g / cm^3
# Si number density = 14.062969 Si / 1000 Ang^3
#
#
#
# Elastic Constant Matrix: (Units=GPa)
#
#
# Indices 1 2 3 4 5 6 
#
# 1 112.8278 33.6025 40.4881 0.0000 0.0000 0.0000
# 2 33.6025 63.1404 38.4965 0.0000 0.0000 0.0000
# 3 40.4881 38.4965 67.1261 0.0000 0.0000 0.0000
# 4 0.0000 0.0000 0.0000 21.5698 0.0000 0.0000
# 5 0.0000 0.0000 0.0000 0.0000 20.9211 0.0000
# 6 0.0000 0.0000 0.0000 0.0000 0.0000 18.7189
#
#
#
# Elastic Compliance Matrix: (Units=1/GPa)
#
#
# Indices 1 2 3 4 5 6 
#
# 1 0.011658 -0.002948 -0.005341 0.000000 0.000000 0.000000
# 2 -0.002948 0.025098 -0.012616 0.000000 0.000000 0.000000
# 3 -0.005341 -0.012616 0.025354 0.000000 0.000000 0.000000
# 4 0.000000 0.000000 0.000000 0.046361 0.000000 0.000000
# 5 0.000000 0.000000 0.000000 0.000000 0.047799 0.000000
# 6 0.000000 0.000000 0.000000 0.000000 0.000000 0.053422
#
#
# Mechanical properties :
#
#
# Convention : Reuss Voigt Hill
#
# Bulk Modulus (GPa) = 49.25891 52.02982 50.64436
# Shear Modulus (GPa) = 19.35982 20.94246 20.15114
#
# Velocity S-wave (km/s) = 3.71435 3.86319 3.78950
# Velocity P-wave (km/s) = 7.31428 7.54832 7.43222
#
# Compressibility (1/GPa) = 0.02030090
#
# Stress axis : x y z
#
# Youngs Moduli (GPa) = 85.78151 39.84349 39.44168
#
# Poissons Ratio (x) = 0.11744 0.21066
# Poissons Ratio (y) = 0.25285 0.49759
# Poissons Ratio (z) = 0.45816 0.50266
#
# Static dielectric constant tensor:
#      x y z
#    x 3.218250 0.000000 0.000000 
#    y 0.000000 2.421930 0.000000 
#    z 0.000000 0.000000 2.700340 
# 
# 
# High freq. dielectric constant tensor:
#      x y z
#    x 1.556850 0.000000 0.000000 
#    y 0.000000 1.474970 0.000000 
#    z 0.000000 0.000000 1.523790 
# 
# From -- ./inp_files/37481.got.cif
#   From: 2010.03.12/outbox.cif.g09.slc.cpg/sg69_19_cif.got.tgz:37481.got - 2010.04.10 23:52:46.
