data_PCOD8283936
_publ_section_title
;
Structure prediction by ZEFSAII (Michael W. Deem and Ramdas Pophale) SiO2 
 PCOD8283936
Probable space group: F M M M
;
_chemical_formula_sum "Si O2"
_cell_formula_units_Z 144
_cell_length_a 27.260385
_cell_length_b 32.325152
_cell_length_c 8.668007
_cell_angle_alpha 90.000000
_cell_angle_beta 90.000000
_cell_angle_gamma 90.000000
_cell_volume 7638.213865
_symmetry_space_group_name_H-M "F M M M"
_symmetry_group_IT_number 69
_symmetry_cell_setting 'orthorhombic'
loop_
_space_group_symop_operation_xyz
x,y,z
-x,-y,z
x,-y,-z
-x,y,-z
-x,-y,-z
x,y,-z
-x,y,z
x,-y,z
x,1/2+y,1/2+z
-x,1/2-y,1/2+z
x,1/2-y,1/2-z
-x,1/2+y,1/2-z
-x,1/2-y,1/2-z
x,1/2+y,1/2-z
-x,1/2+y,1/2+z
x,1/2-y,1/2+z
1/2+x,y,1/2+z
1/2-x,-y,1/2+z
1/2+x,-y,1/2-z
1/2-x,y,1/2-z
1/2-x,-y,1/2-z
1/2+x,y,1/2-z
1/2-x,y,1/2+z
1/2+x,-y,1/2+z
1/2+x,1/2+y,z
1/2-x,1/2-y,z
1/2+x,1/2-y,-z
1/2-x,1/2+y,-z
1/2-x,1/2-y,-z
1/2+x,1/2+y,-z
1/2-x,1/2+y,z
1/2+x,1/2-y,z
loop_
_atom_site_type_symbol
_atom_site_label
_atom_site_fract_x
_atom_site_fract_y
_atom_site_fract_z
Si Si1 0.195787 0.000000 0.315419
Si Si2 0.697825 0.332967 0.682734
Si Si3 0.944830 0.870044 0.319919
Si Si4 0.895580 0.292917 0.681829
Si Si5 0.148896 0.916535 0.318344
O O1 0.250000 0.000000 0.250000
O O2 0.167143 0.040063 0.247799
O O3 0.197826 0.000000 0.500000
O O4 0.698602 0.329639 0.500000
O O5 0.750000 0.320162 0.750000
O O6 0.657850 0.301324 0.747018
O O7 0.684112 0.379410 0.738452
O O8 0.936731 0.859947 0.500000
O O9 0.934263 0.828358 0.226521
O O10 0.907169 0.906284 0.267668
O O11 0.000000 0.885330 0.285464
O O12 0.891135 0.289950 0.500000
O O13 0.915773 0.250000 0.750000
O O14 0.151977 0.920376 0.500000
#
# Coordination Sequence:
#
# PCOD8283936 Si02
#       5
#    16  32  32  32  32
#     4  10  18  30  49  75 107 139 172 208 249 296
#     4  10  19  33  51  73 102 137 175 212 255 304
#     4   9  18  35  56  75  99 133 170 210 258 307
#     4  11  22  36  53  75 102 131 167 211 257 305
#     4   8  16  30  49  74 104 135 169 210 251 297
#
# _framework density 18.852575999999999
#
# number of rings (size 3 to 8) (size 9 to 14) (size 15 to 20)
#    0.000    2.444    0.000    4.667    0.000    1.333 
#    0.000    7.222    0.000    3.333    0.000    0.000 
#    0.000    8.000    0.000    0.000    0.000    0.000 
#
# Total GULP energy -446360.306141 kJ/mol
# GULP energy per Si atom -12398.897393 kJ/mol
# Density = 1.880967 g / cm^3
# Si number density = 18.852576 Si / 1000 Ang^3
#
#
#
# Elastic Constant Matrix: (Units=GPa)
#
#
# Indices 1 2 3 4 5 6 
#
# 1 128.3309 40.3971 26.2594 -0.0732 0.2869 0.1751
# 2 40.3971 114.2390 22.8015 -0.0327 0.1212 0.0817
# 3 26.2594 22.8015 74.1099 -0.0723 0.1631 0.1450
# 4 -0.0732 -0.0327 -0.0723 19.1716 0.0653 0.0438
# 5 0.2869 0.1212 0.1631 0.0653 26.2478 -0.1638
# 6 0.1751 0.0817 0.1450 0.0438 -0.1638 16.2709
#
#
#
# Elastic Compliance Matrix: (Units=1/GPa)
#
#
# Indices 1 2 3 4 5 6 
#
# 1 0.009151 -0.002758 -0.002393 0.000022 -0.000073 -0.000064
# 2 -0.002758 0.010158 -0.002148 -0.000001 -0.000003 -0.000002
# 3 -0.002393 -0.002148 0.015003 0.000044 -0.000058 -0.000098
# 4 0.000022 -0.000001 0.000044 0.052162 -0.000131 -0.000142
# 5 -0.000073 -0.000003 -0.000058 -0.000131 0.038102 0.000385
# 6 -0.000064 -0.000002 -0.000098 -0.000142 0.000385 0.061465
#
#
# Mechanical properties :
#
#
# Convention : Reuss Voigt Hill
#
# Bulk Modulus (GPa) = 50.73016 55.06619 52.89817
# Shear Modulus (GPa) = 24.13017 27.48618 25.80817
#
# Velocity S-wave (km/s) = 3.58151 3.82246 3.70394
# Velocity P-wave (km/s) = 6.63854 6.98239 6.81264
#
# Compressibility (1/GPa) = 0.01971214
#
# Stress axis : x y z
#
# Youngs Moduli (GPa) = 109.28307 98.44870 66.65433
#
# Poissons Ratio (x) = 0.27152 0.15953
# Poissons Ratio (y) = 0.30140 0.14317
# Poissons Ratio (z) = 0.26156 0.21146
#
# Static dielectric constant tensor:
#      x y z
#    x 3.591500 0.000020 0.000040 
#    y 0.000020 3.685060 -0.000070 
#    z 0.000040 -0.000070 3.232070 
# 
# 
# High freq. dielectric constant tensor:
#      x y z
#    x 1.735000 0.000000 0.000010 
#    y 0.000000 1.725970 -0.000010 
#    z 0.000010 -0.000010 1.713910 
# 
# From -- ./inp_files/5555.got.cif
#   From: 2010.03.12/outbox.cif.g09.slc.cpg/sg69_3_cif.got.tgz:5555.got - 2010.04.10 23:52:46.
