data_PCOD8283994
_publ_section_title
;
Structure prediction by ZEFSAII (Michael W. Deem and Ramdas Pophale) SiO2 
 PCOD8283994
Probable space group: F M M M
;
_chemical_formula_sum "Si O2"
_cell_formula_units_Z 208
_cell_length_a 34.200604
_cell_length_b 17.922834
_cell_length_c 17.920545
_cell_angle_alpha 90.000000
_cell_angle_beta 90.000000
_cell_angle_gamma 90.000000
_cell_volume 10984.787797
_symmetry_space_group_name_H-M "F M M M"
_symmetry_group_IT_number 69
_symmetry_cell_setting 'orthorhombic'
loop_
_space_group_symop_operation_xyz
x,y,z
-x,-y,z
x,-y,-z
-x,y,-z
-x,-y,-z
x,y,-z
-x,y,z
x,-y,z
x,1/2+y,1/2+z
-x,1/2-y,1/2+z
x,1/2-y,1/2-z
-x,1/2+y,1/2-z
-x,1/2-y,1/2-z
x,1/2+y,1/2-z
-x,1/2+y,1/2+z
x,1/2-y,1/2+z
1/2+x,y,1/2+z
1/2-x,-y,1/2+z
1/2+x,-y,1/2-z
1/2-x,y,1/2-z
1/2-x,-y,1/2-z
1/2+x,y,1/2-z
1/2-x,y,1/2+z
1/2+x,-y,1/2+z
1/2+x,1/2+y,z
1/2-x,1/2-y,z
1/2+x,1/2-y,-z
1/2-x,1/2+y,-z
1/2-x,1/2-y,-z
1/2+x,1/2+y,-z
1/2-x,1/2+y,z
1/2+x,1/2-y,z
loop_
_atom_site_type_symbol
_atom_site_label
_atom_site_fract_x
_atom_site_fract_y
_atom_site_fract_z
Si Si1 0.043318 0.500000 0.411461
Si Si2 0.174459 0.656921 0.832725
Si Si3 0.956169 0.789172 0.411666
Si Si4 0.749054 0.838669 0.415873
Si Si5 0.910271 0.644035 0.588630
Si Si6 0.396904 0.414355 0.413668
Si Si7 0.170409 0.330097 0.341471
O O1 0.041251 0.500000 0.500000
O O2 0.064927 0.573798 0.383368
O O3 0.000000 0.500000 0.376981
O O4 0.215832 0.628785 0.865687
O O5 0.140892 0.604675 0.865349
O O6 0.175433 0.649250 0.744383
O O7 0.166877 0.741949 0.856587
O O8 0.959341 0.783205 0.500000
O O9 0.932204 0.717897 0.381256
O O10 0.933569 0.864198 0.387360
O O11 0.000000 0.790372 0.377314
O O12 0.754011 0.868392 0.500000
O O13 0.750000 0.750000 0.412516
O O14 0.707531 0.865692 0.383716
O O15 0.904955 0.646764 0.500000
O O16 0.868334 0.633096 0.626017
O O17 0.386860 0.397980 0.500000
O O18 0.408830 0.500000 0.400844
#
# Coordination Sequence:
#
# PCOD8283994 Si02
#       7
#    16  32  32  32  32  32  32
#     4   9  18  32  52  80 109 138 177 223 268 317
#     4  10  19  33  51  76 109 143 176 219 265 321
#     4   9  17  30  52  81 107 133 172 226 280 325
#     4   9  17  29  51  81 109 137 176 222 265 312
#     4  10  18  31  53  79 108 141 179 221 266 320
#     4  10  20  34  54  78 104 140 185 230 276 324
#     4  10  19  31  52  80 108 142 178 216 265 323
#
# _framework density 18.935276000000002
#
# number of rings (size 3 to 8) (size 9 to 14) (size 15 to 20)
#    0.000    2.385    1.538    1.846    0.000    5.231 
#    1.385    1.538    1.692    3.692    0.000    0.000 
#    0.000    0.000    0.000    0.000    0.000    0.000 
#
# Total GULP energy -644850.797409 kJ/mol
# GULP energy per Si atom -12400.976873 kJ/mol
# Density = 1.889218 g / cm^3
# Si number density = 18.935276 Si / 1000 Ang^3
#
#
#
# Elastic Constant Matrix: (Units=GPa)
#
#
# Indices 1 2 3 4 5 6 
#
# 1 193.4384 62.4030 52.0588 0.0000 0.0000 0.0000
# 2 62.4030 99.8268 31.2290 0.0000 0.0000 0.0000
# 3 52.0588 31.2290 63.1435 0.0000 0.0000 0.0000
# 4 0.0000 0.0000 0.0000 13.3593 0.0000 0.0000
# 5 0.0000 0.0000 0.0000 0.0000 6.6561 0.0000
# 6 0.0000 0.0000 0.0000 0.0000 0.0000 23.2810
#
#
#
# Elastic Compliance Matrix: (Units=1/GPa)
#
#
# Indices 1 2 3 4 5 6 
#
# 1 0.007430 -0.003228 -0.004529 0.000000 0.000000 0.000000
# 2 -0.003228 0.013253 -0.003894 0.000000 0.000000 0.000000
# 3 -0.004529 -0.003894 0.021497 0.000000 0.000000 0.000000
# 4 0.000000 0.000000 0.000000 0.074854 0.000000 0.000000
# 5 0.000000 0.000000 0.000000 0.000000 0.150239 0.000000
# 6 0.000000 0.000000 0.000000 0.000000 0.000000 0.042953
#
#
# Mechanical properties :
#
#
# Convention : Reuss Voigt Hill
#
# Bulk Modulus (GPa) = 52.96963 71.97670 62.47316
# Shear Modulus (GPa) = 14.71369 22.70712 18.71041
#
# Velocity S-wave (km/s) = 2.79059 3.46670 3.14685
# Velocity P-wave (km/s) = 6.19822 7.35653 6.80207
#
# Compressibility (1/GPa) = 0.01887874
#
# Stress axis : x y z
#
# Youngs Moduli (GPa) = 134.59457 75.45479 46.51870
#
# Poissons Ratio (x) = 0.24353 0.21069
# Poissons Ratio (y) = 0.43441 0.18113
# Poissons Ratio (z) = 0.60961 0.29379
#
# Static dielectric constant tensor:
#      x y z
#    x 3.688110 0.000000 0.000000 
#    y 0.000000 3.261600 0.000000 
#    z 0.000000 0.000000 3.191020 
# 
# 
# High freq. dielectric constant tensor:
#      x y z
#    x 1.752600 0.000000 0.000000 
#    y 0.000000 1.709870 0.000000 
#    z 0.000000 0.000000 1.709340 
# 
# From -- ./inp_files/34021.got.cif
#   From: 2010.03.12/outbox.cif.g09.slc.cpg/sg69_18_cif.got.tgz:34021.got - 2010.04.10 23:52:46.
