data_PCOD8283085
_publ_section_title
;
Structure prediction by ZEFSAII (Michael W. Deem and Ramdas Pophale) SiO2 
 PCOD8283085
Probable space group: C C C A
;
_chemical_formula_sum "Si O2"
_cell_formula_units_Z 96
_cell_length_a 8.457557
_cell_length_b 24.425343
_cell_length_c 22.752788
_cell_angle_alpha 90.000000
_cell_angle_beta 90.000000
_cell_angle_gamma 90.000000
_cell_volume 4700.242064
_symmetry_space_group_name_H-M "C C C A"
_symmetry_group_IT_number 68
_space_group.IT_coordinate_system_code '2'
_symmetry_cell_setting 'orthorhombic'
loop_
_space_group_symop_operation_xyz
x,y,z
-x,1/2-y,z
x,1/2-y,1/2-z
-x,y,1/2-z
-x,-y,-z
x,1/2+y,-z
-x,1/2+y,1/2+z
x,-y,1/2+z
1/2+x,1/2+y,z
1/2-x,-y,z
1/2+x,-y,1/2-z
1/2-x,1/2+y,1/2-z
1/2-x,1/2-y,-z
1/2+x,y,-z
1/2-x,y,1/2+z
1/2+x,1/2-y,1/2+z
loop_
_atom_site_type_symbol
_atom_site_label
_atom_site_fract_x
_atom_site_fract_y
_atom_site_fract_z
Si Si1 0.183361 0.835959 0.739928
Si Si2 0.681182 0.240107 0.169643
Si Si3 0.244255 0.798850 0.954840
Si Si4 0.195802 0.060587 0.570333
Si Si5 0.028061 0.624128 0.984227
Si Si6 0.150107 0.445547 0.793867
O O1 0.269332 0.815872 0.798779
O O2 0.216444 0.792232 0.688948
O O3 0.243315 0.895460 0.724856
O O4 0.000000 0.840122 0.750000
O O5 0.500000 0.250000 0.184831
O O6 0.713874 0.233907 0.102448
O O7 0.375516 0.844399 0.965971
O O8 0.250000 0.750000 0.000000
O O9 0.077927 0.830708 0.950861
O O10 0.354712 0.097926 0.564697
O O11 0.115992 0.062336 0.635750
O O12 0.071936 0.078958 0.520218
O O13 0.250000 0.000000 0.554198
O O14 0.250000 0.500000 0.783836
O O15 0.000000 0.448102 0.750000
#
# Coordination Sequence:
#
# PCOD8283085 Si02
#       6
#    16  16  16  16  16  16
#     4  11  25  41  65  92 129 172 225 277 335 412
#     4  11  23  40  63  94 129 177 219 274 341 404
#     4  11  24  38  63  96 137 172 222 274 341 404
#     4  10  23  44  71  97 134 173 226 285 341 402
#     4  10  23  41  65 101 130 180 219 278 342 407
#     4  11  25  46  71  99 135 177 227 286 347 407
#
# _framework density 20.424481
#
# number of rings (size 3 to 8) (size 9 to 14) (size 15 to 20)
#    0.000    1.333    0.000    5.500   11.667    1.333 
#    0.000    0.833    0.000    0.000    0.000    0.000 
#    0.000    0.000    0.000    0.000    0.000    0.000 
#
# Total GULP energy -595048.503761 kJ/mol
# GULP energy per Si atom -12396.843828 kJ/mol
# Density = 2.037799 g / cm^3
# Si number density = 20.424481 Si / 1000 Ang^3
#
#
#
# Elastic Constant Matrix: (Units=GPa)
#
#
# Indices 1 2 3 4 5 6 
#
# 1 66.5104 4.5109 11.5037 0.0000 0.0000 0.0000
# 2 4.5109 112.5447 24.5888 0.0000 0.0000 0.0000
# 3 11.5037 24.5888 79.5207 0.0000 0.0000 0.0000
# 4 0.0000 0.0000 0.0000 17.5402 0.0000 0.0000
# 5 0.0000 0.0000 0.0000 0.0000 29.2615 0.0000
# 6 0.0000 0.0000 0.0000 0.0000 0.0000 43.2228
#
#
#
# Elastic Compliance Matrix: (Units=1/GPa)
#
#
# Indices 1 2 3 4 5 6 
#
# 1 0.015423 -0.000140 -0.002188 0.000000 0.000000 0.000000
# 2 -0.000140 0.009530 -0.002927 0.000000 0.000000 0.000000
# 3 -0.002188 -0.002927 0.013797 0.000000 0.000000 0.000000
# 4 0.000000 0.000000 0.000000 0.057012 0.000000 0.000000
# 5 0.000000 0.000000 0.000000 0.000000 0.034175 0.000000
# 6 0.000000 0.000000 0.000000 0.000000 0.000000 0.023136
#
#
# Mechanical properties :
#
#
# Convention : Reuss Voigt Hill
#
# Bulk Modulus (GPa) = 35.40943 37.75363 36.58153
# Shear Modulus (GPa) = 28.90244 32.53639 30.71942
#
# Velocity S-wave (km/s) = 3.76585 3.99558 3.88241
# Velocity P-wave (km/s) = 6.02355 6.30959 6.16823
#
# Compressibility (1/GPa) = 0.02824106
#
# Stress axis : x y z
#
# Youngs Moduli (GPa) = 64.83759 104.92756 72.48066
#
# Poissons Ratio (x) = 0.01471 0.15857
# Poissons Ratio (y) = 0.00909 0.21212
# Poissons Ratio (z) = 0.14185 0.30708
#
# Static dielectric constant tensor:
#      x y z
#    x 3.918130 0.000000 0.000000 
#    y 0.000000 3.815540 0.000000 
#    z 0.000000 0.000000 4.042430 
# 
# 
# High freq. dielectric constant tensor:
#      x y z
#    x 1.808180 0.000000 0.000000 
#    y 0.000000 1.817440 0.000000 
#    z 0.000000 0.000000 1.800270 
# 
# From -- ./inp_files/36474.got.cif
#   From: 2010.03.12/outbox.cif.g09.slc.cpg/sg68_19_cif.got.tgz:36474.got - 2010.04.10 23:14:56.
