data_PCOD8283605
_publ_section_title
;
Structure prediction by ZEFSAII (Michael W. Deem and Ramdas Pophale) SiO2 
 PCOD8283605
Probable space group: C C C A
;
_chemical_formula_sum "Si O2"
_cell_formula_units_Z 88
_cell_length_a 12.338791
_cell_length_b 11.676795
_cell_length_c 27.885267
_cell_angle_alpha 90.000000
_cell_angle_beta 90.000000
_cell_angle_gamma 90.000000
_cell_volume 4017.640478
_symmetry_space_group_name_H-M "C C C A"
_symmetry_group_IT_number 68
_space_group.IT_coordinate_system_code '2'
_symmetry_cell_setting 'orthorhombic'
loop_
_space_group_symop_operation_xyz
x,y,z
-x,1/2-y,z
x,1/2-y,1/2-z
-x,y,1/2-z
-x,-y,-z
x,1/2+y,-z
-x,1/2+y,1/2+z
x,-y,1/2+z
1/2+x,1/2+y,z
1/2-x,-y,z
1/2+x,-y,1/2-z
1/2-x,1/2+y,1/2-z
1/2-x,1/2-y,-z
1/2+x,y,-z
1/2-x,y,1/2+z
1/2+x,1/2-y,1/2+z
loop_
_atom_site_type_symbol
_atom_site_label
_atom_site_fract_x
_atom_site_fract_y
_atom_site_fract_z
Si Si1 0.634035 0.447908 0.044370
Si Si2 0.797333 0.383443 0.362089
Si Si3 0.750000 0.500000 0.680877
Si Si4 0.116449 0.195572 0.630527
Si Si5 0.885490 0.118809 0.242453
Si Si6 0.048133 0.868921 0.947776
O O1 0.750000 0.500000 0.056873
O O2 0.611828 0.330469 0.073721
O O3 0.545945 0.540054 0.061222
O O4 0.628925 0.417759 0.988200
O O5 0.750000 0.500000 0.384353
O O6 0.705505 0.288945 0.357178
O O7 0.842622 0.412939 0.309846
O O8 0.890917 0.342219 0.398023
O O9 0.843026 0.427890 0.652185
O O10 0.804479 0.591456 0.715117
O O11 0.000000 0.250000 0.647777
O O12 0.907538 0.250000 0.250000
O O13 0.000000 0.052811 0.250000
O O14 0.000000 0.750000 0.966770
#
# Coordination Sequence:
#
# PCOD8283605 Si02
#       6
#    16  16   8  16  16  16
#     4  11  24  46  70 105 144 187 235 298 355 433
#     4  12  26  46  69 104 140 188 240 299 359 436
#     4  12  26  48  72 108 142 190 240 308 366 430
#     4  12  27  45  76 107 146 187 241 299 367 436
#     4  11  26  45  71  99 141 184 237 295 359 428
#     4  11  26  42  71 102 142 189 236 288 364 430
#
# _framework density 21.903404999999999
#
# number of rings (size 3 to 8) (size 9 to 14) (size 15 to 20)
#    0.000    0.545    3.636    3.273    7.636    5.818 
#    0.000    0.909    0.000    0.000    0.000    0.000 
#    0.000    0.000    0.000    0.000    0.000    0.000 
#
# Total GULP energy -545488.979647 kJ/mol
# GULP energy per Si atom -12397.476810 kJ/mol
# Density = 2.185355 g / cm^3
# Si number density = 21.903405 Si / 1000 Ang^3
#
#
#
# Elastic Constant Matrix: (Units=GPa)
#
#
# Indices 1 2 3 4 5 6 
#
# 1 144.2072 41.6887 58.0685 0.0000 0.0000 0.0000
# 2 41.6887 93.5255 28.3805 0.0000 0.0000 0.0000
# 3 58.0685 28.3805 107.7374 0.0000 0.0000 0.0000
# 4 0.0000 0.0000 0.0000 -7.4362 0.0000 0.0000
# 5 0.0000 0.0000 0.0000 0.0000 -203.6730 0.0000
# 6 0.0000 0.0000 0.0000 0.0000 0.0000 33.3114
#
#
#
# Elastic Compliance Matrix: (Units=1/GPa)
#
#
# Indices 1 2 3 4 5 6 
#
# 1 0.009541 -0.002926 -0.004371 0.000000 0.000000 0.000000
# 2 -0.002926 0.012519 -0.001721 0.000000 0.000000 0.000000
# 3 -0.004371 -0.001721 0.012091 0.000000 0.000000 0.000000
# 4 0.000000 0.000000 0.000000 -0.134477 0.000000 0.000000
# 5 0.000000 0.000000 0.000000 0.000000 -0.004910 0.000000
# 6 0.000000 0.000000 0.000000 0.000000 0.000000 0.030020
#
#
# Mechanical properties :
#
#
# Convention : Reuss Voigt Hill
#
# Bulk Modulus (GPa) = 62.05696 66.86060 64.45878
# Shear Modulus (GPa) = -96.50876 -21.07072 -58.78974
#
# Velocity S-wave (km/s) = -6.64505 -3.10495 -5.18640
# Velocity P-wave (km/s) = 5.52105 4.21155 2.52437
#
# Compressibility (1/GPa) = 0.01611423
#
# Stress axis : x y z
#
# Youngs Moduli (GPa) = 104.81470 79.88040 82.70502
#
# Poissons Ratio (x) = 0.23375 0.36154
# Poissons Ratio (y) = 0.30671 0.14230
# Poissons Ratio (z) = 0.45819 0.13744
#
# Static dielectric constant tensor:
#      x y z
#    x 3.828330 0.000000 0.000000 
#    y 0.000000 3.946880 0.000000 
#    z 0.000000 0.000000 3.889090 
# 
# 
# High freq. dielectric constant tensor:
#      x y z
#    x 1.873670 0.000000 0.000000 
#    y 0.000000 1.865910 0.000000 
#    z 0.000000 0.000000 1.867100 
# 
# From -- ./inp_files/54594.got.cif
#   From: 2010.03.12/outbox.cif.g09.slc.cpg/sg68_28_cif.got.tgz:54594.got - 2010.04.10 23:14:56.
