data_PCOD8283217
_publ_section_title
;
Structure prediction by ZEFSAII (Michael W. Deem and Ramdas Pophale) SiO2 
 PCOD8283217
Probable space group: C C C A
;
_chemical_formula_sum "Si O2"
_cell_formula_units_Z 48
_cell_length_a 11.915432
_cell_length_b 10.335824
_cell_length_c 16.874709
_cell_angle_alpha 90.000000
_cell_angle_beta 90.000000
_cell_angle_gamma 90.000000
_cell_volume 2078.218422
_symmetry_space_group_name_H-M "C C C A"
_symmetry_group_IT_number 68
_space_group.IT_coordinate_system_code '2'
_symmetry_cell_setting 'orthorhombic'
loop_
_space_group_symop_operation_xyz
x,y,z
-x,1/2-y,z
x,1/2-y,1/2-z
-x,y,1/2-z
-x,-y,-z
x,1/2+y,-z
-x,1/2+y,1/2+z
x,-y,1/2+z
1/2+x,1/2+y,z
1/2-x,-y,z
1/2+x,-y,1/2-z
1/2-x,1/2+y,1/2-z
1/2-x,1/2-y,-z
1/2+x,y,-z
1/2-x,y,1/2+z
1/2+x,1/2-y,1/2+z
loop_
_atom_site_type_symbol
_atom_site_label
_atom_site_fract_x
_atom_site_fract_y
_atom_site_fract_z
Si Si1 0.866590 0.948730 0.080960
Si Si2 0.211398 0.203731 0.660879
Si Si3 0.099518 0.549297 0.895440
O O1 0.864126 0.797802 0.105343
O O2 0.750000 0.000000 0.116583
O O3 0.871849 0.965947 0.987418
O O4 0.965885 0.036178 0.119007
O O5 0.207771 0.250000 0.750000
O O6 0.342756 0.184439 0.633270
O O7 0.153126 0.065711 0.654775
#
# Coordination Sequence:
#
# PCOD8283217 Si02
#       3
#    16  16  16
#     4  11  23  42  71  98 136 178 232 293 340 414
#     4  11  24  45  68  98 142 181 228 289 356 423
#     4  10  24  44  68 101 133 183 243 276 350 427
#
# _framework density 23.096706000000001
#
# number of rings (size 3 to 8) (size 9 to 14) (size 15 to 20)
#    0.000    1.333    3.333    2.000    4.667    4.000 
#    0.000    1.667    0.000    0.000    0.000    0.000 
#    0.000    0.000    0.000    0.000    0.000    0.000 
#
# Total GULP energy -297387.509220 kJ/mol
# GULP energy per Si atom -12391.146217 kJ/mol
# Density = 2.304414 g / cm^3
# Si number density = 23.096706 Si / 1000 Ang^3
#
#
#
# Elastic Constant Matrix: (Units=GPa)
#
#
# Indices 1 2 3 4 5 6 
#
# 1 194.3782 40.3523 52.8176 0.0000 0.0000 0.0000
# 2 40.3523 60.0811 39.9352 0.0000 0.0000 0.0000
# 3 52.8176 39.9352 104.5769 0.0000 0.0000 0.0000
# 4 0.0000 0.0000 0.0000 42.9216 0.0000 0.0000
# 5 0.0000 0.0000 0.0000 0.0000 22.9073 0.0000
# 6 0.0000 0.0000 0.0000 0.0000 0.0000 49.4669
#
#
#
# Elastic Compliance Matrix: (Units=1/GPa)
#
#
# Indices 1 2 3 4 5 6 
#
# 1 0.006305 -0.002838 -0.002100 0.000000 0.000000 0.000000
# 2 -0.002838 0.023584 -0.007573 0.000000 0.000000 0.000000
# 3 -0.002100 -0.007573 0.013515 0.000000 0.000000 0.000000
# 4 0.000000 0.000000 0.000000 0.023298 0.000000 0.000000
# 5 0.000000 0.000000 0.000000 0.000000 0.043654 0.000000
# 6 0.000000 0.000000 0.000000 0.000000 0.000000 0.020216
#
#
# Mechanical properties :
#
#
# Convention : Reuss Voigt Hill
#
# Bulk Modulus (GPa) = 54.40406 69.47182 61.93794
# Shear Modulus (GPa) = 30.91753 38.12122 34.51938
#
# Velocity S-wave (km/s) = 3.66267 4.06705 3.87015
# Velocity P-wave (km/s) = 6.44150 7.22485 6.84439
#
# Compressibility (1/GPa) = 0.01838098
#
# Stress axis : x y z
#
# Youngs Moduli (GPa) = 158.61604 42.40200 73.99253
#
# Poissons Ratio (x) = 0.12035 0.15541
# Poissons Ratio (y) = 0.45019 0.56031
# Poissons Ratio (z) = 0.33314 0.32109
#
# Static dielectric constant tensor:
#      x y z
#    x 5.063160 0.000000 0.000000 
#    y 0.000000 4.578870 0.000000 
#    z 0.000000 0.000000 3.776910 
# 
# 
# High freq. dielectric constant tensor:
#      x y z
#    x 1.929920 0.000000 0.000000 
#    y 0.000000 1.908450 0.000000 
#    z 0.000000 0.000000 1.896010 
# 
# From -- ./inp_files/21451.got.cif
#   From: 2010.03.12/outbox.cif.g09.slc.cpg/sg68_11_cif.got.tgz:21451.got - 2010.04.10 23:14:56.
