data_PCOD8283447
_publ_section_title
;
Structure prediction by ZEFSAII (Michael W. Deem and Ramdas Pophale) SiO2 
 PCOD8283447
Probable space group: C C C A
;
_chemical_formula_sum "Si O2"
_cell_formula_units_Z 72
_cell_length_a 17.281383
_cell_length_b 14.964393
_cell_length_c 13.447566
_cell_angle_alpha 90.000000
_cell_angle_beta 90.000000
_cell_angle_gamma 90.000000
_cell_volume 3477.613276
_symmetry_space_group_name_H-M "C C C A"
_symmetry_group_IT_number 68
_space_group.IT_coordinate_system_code '2'
_symmetry_cell_setting 'orthorhombic'
loop_
_space_group_symop_operation_xyz
x,y,z
-x,1/2-y,z
x,1/2-y,1/2-z
-x,y,1/2-z
-x,-y,-z
x,1/2+y,-z
-x,1/2+y,1/2+z
x,-y,1/2+z
1/2+x,1/2+y,z
1/2-x,-y,z
1/2+x,-y,1/2-z
1/2-x,1/2+y,1/2-z
1/2-x,1/2-y,-z
1/2+x,y,-z
1/2-x,y,1/2+z
1/2+x,1/2-y,1/2+z
loop_
_atom_site_type_symbol
_atom_site_label
_atom_site_fract_x
_atom_site_fract_y
_atom_site_fract_z
Si Si1 0.500000 0.750000 0.250000
Si Si2 0.391022 0.630348 0.114758
Si Si3 0.271798 0.208718 0.353218
Si Si4 0.664738 0.963472 0.725708
Si Si5 0.388143 0.645994 0.895120
Si Si6 0.000000 0.750000 0.250000
O O1 0.446638 0.691551 0.179013
O O2 0.306027 0.672222 0.096953
O O3 0.389130 0.534227 0.168727
O O4 0.424031 0.620141 0.002358
O O5 0.243480 0.250000 0.250000
O O6 0.334046 0.129047 0.336361
O O7 0.315485 0.286434 0.414060
O O8 0.636938 0.945236 0.838829
O O9 0.750000 0.000000 0.735303
O O10 0.450153 0.689113 0.822349
#
# Coordination Sequence:
#
# PCOD8283447 Si02
#       6
#     4  16  16  16  16   4
#     4  12  26  44  56  90 142 166 194 252 310 388
#     4  11  23  41  63  93 126 166 207 248 319 367
#     4   9  17  40  68  91 121 158 208 266 298 357
#     4   9  20  39  64  96 125 148 209 272 299 353
#     4  11  22  41  68  90 121 169 209 253 312 364
#     4  12  22  40  64  90 128 156 218 248 290 388
#
# _framework density 20.703855000000001
#
# number of rings (size 3 to 8) (size 9 to 14) (size 15 to 20)
#    0.000    1.778    4.444    1.333    0.000    3.556 
#    4.000    2.222    0.000    0.000    0.000    0.000 
#    0.000    0.000    0.000    0.000    0.000    0.000 
#
# Total GULP energy -446205.647767 kJ/mol
# GULP energy per Si atom -12394.601327 kJ/mol
# Density = 2.065673 g / cm^3
# Si number density = 20.703855 Si / 1000 Ang^3
#
#
#
# Elastic Constant Matrix: (Units=GPa)
#
#
# Indices 1 2 3 4 5 6 
#
# 1 57.3514 29.5545 36.6626 0.0000 0.0000 0.0000
# 2 29.5545 123.2052 75.7715 0.0000 0.0000 0.0000
# 3 36.6626 75.7715 175.7834 0.0000 0.0000 0.0000
# 4 0.0000 0.0000 0.0000 18.2728 0.0000 0.0000
# 5 0.0000 0.0000 0.0000 0.0000 209.6234 0.0000
# 6 0.0000 0.0000 0.0000 0.0000 0.0000 26.0444
#
#
#
# Elastic Compliance Matrix: (Units=1/GPa)
#
#
# Indices 1 2 3 4 5 6 
#
# 1 0.021001 -0.003190 -0.003005 0.000000 0.000000 0.000000
# 2 -0.003190 0.011529 -0.004304 0.000000 0.000000 0.000000
# 3 -0.003005 -0.004304 0.008171 0.000000 0.000000 0.000000
# 4 0.000000 0.000000 0.000000 0.054726 0.000000 0.000000
# 5 0.000000 0.000000 0.000000 0.000000 0.004770 0.000000
# 6 0.000000 0.000000 0.000000 0.000000 0.000000 0.038396
#
#
# Mechanical properties :
#
#
# Convention : Reuss Voigt Hill
#
# Bulk Modulus (GPa) = 50.75423 71.14636 60.95030
# Shear Modulus (GPa) = 30.09163 65.07822 47.58492
#
# Velocity S-wave (km/s) = 3.81653 5.61259 4.79932
# Velocity P-wave (km/s) = 6.63240 8.74299 7.75979
#
# Compressibility (1/GPa) = 0.01970279
#
# Stress axis : x y z
#
# Youngs Moduli (GPa) = 47.61634 86.73954 122.38433
#
# Poissons Ratio (x) = 0.27666 0.36780
# Poissons Ratio (y) = 0.15187 0.52677
# Poissons Ratio (z) = 0.14310 0.37335
#
# Static dielectric constant tensor:
#      x y z
#    x 3.686700 0.000000 0.000000 
#    y 0.000000 4.435390 0.000000 
#    z 0.000000 0.000000 3.774560 
# 
# 
# High freq. dielectric constant tensor:
#      x y z
#    x 1.798590 0.000000 0.000000 
#    y 0.000000 1.812080 0.000000 
#    z 0.000000 0.000000 1.811610 
# 
# From -- ./inp_files/23386.got.cif
#   From: 2010.03.12/outbox.cif.g09.slc.cpg/sg68_12_cif.got.tgz:23386.got - 2010.04.10 23:14:56.
