data_PCOD8283657
_publ_section_title
;
Structure prediction by ZEFSAII (Michael W. Deem and Ramdas Pophale) SiO2 
 PCOD8283657
Probable space group: C C C A
;
_chemical_formula_sum "Si O2"
_cell_formula_units_Z 48
_cell_length_a 21.861686
_cell_length_b 10.273201
_cell_length_c 9.432393
_cell_angle_alpha 90.000000
_cell_angle_beta 90.000000
_cell_angle_gamma 90.000000
_cell_volume 2118.416376
_symmetry_space_group_name_H-M "C C C A"
_symmetry_group_IT_number 68
_space_group.IT_coordinate_system_code '2'
_symmetry_cell_setting 'orthorhombic'
loop_
_space_group_symop_operation_xyz
x,y,z
-x,1/2-y,z
x,1/2-y,1/2-z
-x,y,1/2-z
-x,-y,-z
x,1/2+y,-z
-x,1/2+y,1/2+z
x,-y,1/2+z
1/2+x,1/2+y,z
1/2-x,-y,z
1/2+x,-y,1/2-z
1/2-x,1/2+y,1/2-z
1/2-x,1/2-y,-z
1/2+x,y,-z
1/2-x,y,1/2+z
1/2+x,1/2-y,1/2+z
loop_
_atom_site_type_symbol
_atom_site_label
_atom_site_fract_x
_atom_site_fract_y
_atom_site_fract_z
Si Si1 0.864037 0.432545 0.936885
Si Si2 0.750000 0.000000 0.389043
Si Si3 0.068038 0.899014 0.713409
Si Si4 0.704388 0.750000 0.750000
O O1 0.883808 0.515702 0.800703
O O2 0.839340 0.293637 0.880214
O O3 0.809748 0.507169 0.014892
O O4 0.920315 0.414568 0.045269
O O5 0.748598 0.130191 0.292991
O O6 0.077635 0.750000 0.750000
O O7 0.000000 0.947306 0.750000
#
# Coordination Sequence:
#
# PCOD8283657 Si02
#       4
#    16   8  16   8
#     4  12  25  47  74 106 145 187 243 296 362 430
#     4  12  26  46  76 106 150 186 240 300 362 436
#     4  11  26  47  73 102 143 190 243 297 356 422
#     4  12  26  46  73 112 143 194 232 296 370 432
#
# _framework density 22.658435999999998
#
# number of rings (size 3 to 8) (size 9 to 14) (size 15 to 20)
#    0.000    0.333    3.333    5.000    2.333    0.000 
#    0.000    0.000    0.000    0.000    0.000    0.000 
#    0.000    0.000    0.000    0.000    0.000    0.000 
#
# Total GULP energy -297737.789884 kJ/mol
# GULP energy per Si atom -12405.741245 kJ/mol
# Density = 2.260686 g / cm^3
# Si number density = 22.658436 Si / 1000 Ang^3
#
#
#
# Elastic Constant Matrix: (Units=GPa)
#
#
# Indices 1 2 3 4 5 6 
#
# 1 97.1347 38.4595 36.9607 0.0000 0.0000 0.0000
# 2 38.4595 131.3846 44.1944 0.0000 0.0000 0.0000
# 3 36.9607 44.1944 133.8081 0.0000 0.0000 0.0000
# 4 0.0000 0.0000 0.0000 40.7390 0.0000 0.0000
# 5 0.0000 0.0000 0.0000 0.0000 15.1109 0.0000
# 6 0.0000 0.0000 0.0000 0.0000 0.0000 30.3426
#
#
#
# Elastic Compliance Matrix: (Units=1/GPa)
#
#
# Indices 1 2 3 4 5 6 
#
# 1 0.012342 -0.002774 -0.002493 0.000000 0.000000 0.000000
# 2 -0.002774 0.009186 -0.002268 0.000000 0.000000 0.000000
# 3 -0.002493 -0.002268 0.008911 0.000000 0.000000 0.000000
# 4 0.000000 0.000000 0.000000 0.024546 0.000000 0.000000
# 5 0.000000 0.000000 0.000000 0.000000 0.066177 0.000000
# 6 0.000000 0.000000 0.000000 0.000000 0.000000 0.032957
#
#
# Mechanical properties :
#
#
# Convention : Reuss Voigt Hill
#
# Bulk Modulus (GPa) = 65.06414 66.83962 65.95188
# Shear Modulus (GPa) = 28.68412 33.41936 31.05174
#
# Velocity S-wave (km/s) = 3.56186 3.84463 3.70594
# Velocity P-wave (km/s) = 6.75968 7.01934 6.89073
#
# Compressibility (1/GPa) = 0.01536945
#
# Stress axis : x y z
#
# Youngs Moduli (GPa) = 81.02431 108.85968 112.22148
#
# Poissons Ratio (x) = 0.30201 0.27975
# Poissons Ratio (y) = 0.22478 0.25449
# Poissons Ratio (z) = 0.20198 0.24686
#
# Static dielectric constant tensor:
#      x y z
#    x 4.117850 0.000000 0.000000 
#    y 0.000000 3.968380 0.000000 
#    z 0.000000 0.000000 4.305150 
# 
# 
# High freq. dielectric constant tensor:
#      x y z
#    x 1.893590 0.000000 0.000000 
#    y 0.000000 1.894920 0.000000 
#    z 0.000000 0.000000 1.911580 
# 
# From -- ./inp_files/3752.got.cif
#   From: 2010.03.12/outbox.cif.g09.slc.cpg/sg68_2_cif.got.tgz:3752.got - 2010.04.10 23:14:56.
