data_PCOD8283861
_publ_section_title
;
Structure prediction by ZEFSAII (Michael W. Deem and Ramdas Pophale) SiO2 
 PCOD8283861
Probable space group: F M M M
;
_chemical_formula_sum "Si O2"
_cell_formula_units_Z 144
_cell_length_a 20.661370
_cell_length_b 18.660177
_cell_length_c 22.761467
_cell_angle_alpha 90.000000
_cell_angle_beta 90.000000
_cell_angle_gamma 90.000000
_cell_volume 8775.565726
_symmetry_space_group_name_H-M "F M M M"
_symmetry_group_IT_number 69
_symmetry_cell_setting 'orthorhombic'
loop_
_space_group_symop_operation_xyz
x,y,z
-x,-y,z
x,-y,-z
-x,y,-z
-x,-y,-z
x,y,-z
-x,y,z
x,-y,z
x,1/2+y,1/2+z
-x,1/2-y,1/2+z
x,1/2-y,1/2-z
-x,1/2+y,1/2-z
-x,1/2-y,1/2-z
x,1/2+y,1/2-z
-x,1/2+y,1/2+z
x,1/2-y,1/2+z
1/2+x,y,1/2+z
1/2-x,-y,1/2+z
1/2+x,-y,1/2-z
1/2-x,y,1/2-z
1/2-x,-y,1/2-z
1/2+x,y,1/2-z
1/2-x,y,1/2+z
1/2+x,-y,1/2+z
1/2+x,1/2+y,z
1/2-x,1/2-y,z
1/2+x,1/2-y,-z
1/2-x,1/2+y,-z
1/2-x,1/2-y,-z
1/2+x,1/2+y,-z
1/2-x,1/2+y,z
1/2+x,1/2-y,z
loop_
_atom_site_type_symbol
_atom_site_label
_atom_site_fract_x
_atom_site_fract_y
_atom_site_fract_z
Si Si1 0.250000 0.638519 0.250000
Si Si2 0.000000 0.245410 0.849825
Si Si3 0.123066 0.817318 0.105518
Si Si4 0.750000 0.250000 0.147577
Si Si5 0.877060 0.421590 0.287450
Si Si6 0.500000 0.362856 0.259403
Si Si7 0.577781 0.085831 0.500000
O O1 0.235631 0.684190 0.191192
O O2 0.189213 0.586066 0.252453
O O3 0.937512 0.236991 0.891981
O O4 0.000000 0.323956 0.822055
O O5 0.000000 0.189589 0.796435
O O6 0.189828 0.771005 0.104236
O O7 0.121787 0.860226 0.165198
O O8 0.113009 0.875520 0.054383
O O9 0.881690 0.500000 0.316757
O O10 0.936534 0.412108 0.242744
O O11 0.500000 0.098334 0.500000
O O12 0.592183 0.000000 0.500000
#
# Coordination Sequence:
#
# PCOD8283861 Si02
#       7
#    16  16  32  16  32  16  16
#     4   9  17  30  46  68  95 127 154 190 228 285
#     4   9  16  29  45  64  88 118 153 190 237 275
#     4  10  19  32  48  68  92 125 158 201 235 283
#     4   9  18  31  50  70  94 121 160 193 240 274
#     4  10  18  28  43  66  95 127 157 185 228 281
#     4   9  17  26  42  64  89 118 154 193 225 271
#     4  11  22  35  50  70  96 126 159 196 241 291
#
# _framework density 16.409198
#
# number of rings (size 3 to 8) (size 9 to 14) (size 15 to 20)
#    0.000    2.333    1.111    2.667    0.000    5.778 
#    0.000    0.000    0.000    0.000    0.000    0.000 
#    0.000    0.000    0.000    8.778    0.000    0.111 
#
# Total GULP energy -446024.555633 kJ/mol
# GULP energy per Si atom -12389.570990 kJ/mol
# Density = 1.637185 g / cm^3
# Si number density = 16.409198 Si / 1000 Ang^3
#
#
#
# Elastic Constant Matrix: (Units=GPa)
#
#
# Indices 1 2 3 4 5 6 
#
# 1 157.0767 51.0825 38.5803 0.0000 0.0000 0.0000
# 2 51.0825 64.2128 14.5651 0.0000 0.0000 0.0000
# 3 38.5803 14.5651 46.5948 0.0000 0.0000 0.0000
# 4 0.0000 0.0000 0.0000 762.1698 0.0000 0.0000
# 5 0.0000 0.0000 0.0000 0.0000 20.6150 0.0000
# 6 0.0000 0.0000 0.0000 0.0000 0.0000 -48.6192
#
#
#
# Elastic Compliance Matrix: (Units=1/GPa)
#
#
# Indices 1 2 3 4 5 6 
#
# 1 0.010039 -0.006567 -0.006260 0.000000 0.000000 0.000000
# 2 -0.006567 0.021057 -0.001145 0.000000 0.000000 0.000000
# 3 -0.006260 -0.001145 0.027003 0.000000 0.000000 0.000000
# 4 0.000000 0.000000 0.000000 0.001312 0.000000 0.000000
# 5 0.000000 0.000000 0.000000 0.000000 0.048508 0.000000
# 6 0.000000 0.000000 0.000000 0.000000 0.000000 -0.020568
#
#
# Mechanical properties :
#
#
# Convention : Reuss Voigt Hill
#
# Bulk Modulus (GPa) = 33.16109 52.92667 43.04388
# Shear Modulus (GPa) = 39.88955 157.74355 98.81655
#
# Velocity S-wave (km/s) = 4.93579 9.81529 7.76859
# Velocity P-wave (km/s) = 7.26192 12.67980 10.33230
#
# Compressibility (1/GPa) = 0.03015582
#
# Stress axis : x y z
#
# Youngs Moduli (GPa) = 99.60810 47.49056 37.03336
#
# Poissons Ratio (x) = 0.31185 0.23182
# Poissons Ratio (y) = 0.65409 0.04240
# Poissons Ratio (z) = 0.62353 0.05438
#
# Static dielectric constant tensor:
#      x y z
#    x 3.554840 0.000000 0.000000 
#    y 0.000000 2.979180 0.000000 
#    z 0.000000 0.000000 2.825030 
# 
# 
# High freq. dielectric constant tensor:
#      x y z
#    x 1.649580 0.000000 0.000000 
#    y 0.000000 1.621540 0.000000 
#    z 0.000000 0.000000 1.590850 
# 
# From -- ./inp_files/24850.got.cif
#   From: 2010.03.12/outbox.cif.g09.slc.cpg/sg69_13_cif.got.tgz:24850.got - 2010.04.10 23:52:46.
