data_PCOD8283168
_publ_section_title
;
Structure prediction by ZEFSAII (Michael W. Deem and Ramdas Pophale) SiO2 
 PCOD8283168
Probable space group: C C C A
;
_chemical_formula_sum "Si O2"
_cell_formula_units_Z 100
_cell_length_a 14.417944
_cell_length_b 21.930311
_cell_length_c 14.698507
_cell_angle_alpha 90.000000
_cell_angle_beta 90.000000
_cell_angle_gamma 90.000000
_cell_volume 4647.520868
_symmetry_space_group_name_H-M "C C C A"
_symmetry_group_IT_number 68
_space_group.IT_coordinate_system_code '2'
_symmetry_cell_setting 'orthorhombic'
loop_
_space_group_symop_operation_xyz
x,y,z
-x,1/2-y,z
x,1/2-y,1/2-z
-x,y,1/2-z
-x,-y,-z
x,1/2+y,-z
-x,1/2+y,1/2+z
x,-y,1/2+z
1/2+x,1/2+y,z
1/2-x,-y,z
1/2+x,-y,1/2-z
1/2-x,1/2+y,1/2-z
1/2-x,1/2-y,-z
1/2+x,y,-z
1/2-x,y,1/2+z
1/2+x,1/2-y,1/2+z
loop_
_atom_site_type_symbol
_atom_site_label
_atom_site_fract_x
_atom_site_fract_y
_atom_site_fract_z
Si Si1 0.500000 0.750000 0.250000
Si Si2 0.153396 0.480155 0.978196
Si Si3 0.476540 0.588718 0.500166
Si Si4 0.082116 0.851246 0.317494
Si Si5 0.807962 0.624836 0.149366
Si Si6 0.120237 0.313203 0.393971
Si Si7 0.108116 0.257165 0.939922
O O1 0.569252 0.790577 0.306307
O O2 0.250000 0.500000 0.030159
O O3 0.095840 0.540735 0.957939
O O4 0.184345 0.443869 0.887970
O O5 0.080734 0.433589 0.026593
O O6 0.457459 0.599337 0.608998
O O7 0.458615 0.651523 0.450340
O O8 0.161943 0.880543 0.254496
O O9 0.132712 0.792674 0.362453
O O10 0.000000 0.829735 0.250000
O O11 0.702485 0.644996 0.141289
O O12 0.869750 0.674086 0.092049
O O13 0.157902 0.260148 0.463177
O O14 0.000000 0.250000 0.957959
#
# Coordination Sequence:
#
# PCOD8283168 Si02
#       7
#     4  16  16  16  16  16  16
#     4  12  28  44  64  96 136 180 220 264 350 420
#     4  11  22  43  73  93 129 179 230 272 326 405
#     4  10  23  46  71  94 136 182 221 276 344 398
#     4  11  21  38  67 105 132 165 219 282 338 398
#     4  12  23  40  70  99 133 171 229 287 325 399
#     4  11  25  46  63  95 137 180 222 275 341 411
#     4  11  21  39  67  96 134 176 215 269 351 404
#
# _framework density 21.516848
#
# number of rings (size 3 to 8) (size 9 to 14) (size 15 to 20)
#    0.000    0.960    5.600    1.920    2.240    0.000 
#    2.880    4.000    0.000    0.000    0.000    0.000 
#    0.000    0.000    0.000    0.000    0.000    0.000 
#
# Total GULP energy -619470.753472 kJ/mol
# GULP energy per Si atom -12389.415069 kJ/mol
# Density = 2.146788 g / cm^3
# Si number density = 21.516848 Si / 1000 Ang^3
#
#
#
# Elastic Constant Matrix: (Units=GPa)
#
#
# Indices 1 2 3 4 5 6 
#
# 1 129.3684 29.3670 46.0226 0.0000 0.0000 0.0000
# 2 29.3670 100.5305 46.6084 0.0000 0.0000 0.0000
# 3 46.0226 46.6084 122.9299 0.0000 0.0000 0.0000
# 4 0.0000 0.0000 0.0000 15.8840 0.0000 0.0000
# 5 0.0000 0.0000 0.0000 0.0000 15.1375 0.0000
# 6 0.0000 0.0000 0.0000 0.0000 0.0000 36.8935
#
#
#
# Elastic Compliance Matrix: (Units=1/GPa)
#
#
# Indices 1 2 3 4 5 6 
#
# 1 0.009056 -0.001303 -0.002897 0.000000 0.000000 0.000000
# 2 -0.001303 0.012256 -0.004159 0.000000 0.000000 0.000000
# 3 -0.002897 -0.004159 0.010796 0.000000 0.000000 0.000000
# 4 0.000000 0.000000 0.000000 0.062956 0.000000 0.000000
# 5 0.000000 0.000000 0.000000 0.000000 0.066061 0.000000
# 6 0.000000 0.000000 0.000000 0.000000 0.000000 0.027105
#
#
# Mechanical properties :
#
#
# Convention : Reuss Voigt Hill
#
# Bulk Modulus (GPa) = 64.97063 66.31387 65.64225
# Shear Modulus (GPa) = 23.80074 28.97174 26.38624
#
# Velocity S-wave (km/s) = 3.32948 3.67341 3.50566
# Velocity P-wave (km/s) = 6.71129 6.99130 6.85273
#
# Compressibility (1/GPa) = 0.01539157
#
# Stress axis : x y z
#
# Youngs Moduli (GPa) = 110.42429 81.59258 92.62639
#
# Poissons Ratio (x) = 0.10628 0.26830
# Poissons Ratio (y) = 0.14383 0.38525
# Poissons Ratio (z) = 0.31985 0.33936
#
# Static dielectric constant tensor:
#      x y z
#    x 4.092490 0.000000 0.000000 
#    y 0.000000 4.195660 0.000000 
#    z 0.000000 0.000000 3.214950 
# 
# 
# High freq. dielectric constant tensor:
#      x y z
#    x 1.856270 0.000000 0.000000 
#    y 0.000000 1.849700 0.000000 
#    z 0.000000 0.000000 1.817820 
# 
# From -- ./inp_files/22547.got.cif
#   From: 2010.03.12/outbox.cif.g09.slc.cpg/sg68_12_cif.got.tgz:22547.got - 2010.04.10 23:14:56.
