data_PCOD8283993
_publ_section_title
;
Structure prediction by ZEFSAII (Michael W. Deem and Ramdas Pophale) SiO2 
 PCOD8283993
Probable space group: F M M M
;
_chemical_formula_sum "Si O2"
_cell_formula_units_Z 160
_cell_length_a 16.172555
_cell_length_b 29.807483
_cell_length_c 16.441977
_cell_angle_alpha 90.000000
_cell_angle_beta 90.000000
_cell_angle_gamma 90.000000
_cell_volume 7926.071360
_symmetry_space_group_name_H-M "F M M M"
_symmetry_group_IT_number 69
_symmetry_cell_setting 'orthorhombic'
loop_
_space_group_symop_operation_xyz
x,y,z
-x,-y,z
x,-y,-z
-x,y,-z
-x,-y,-z
x,y,-z
-x,y,z
x,-y,z
x,1/2+y,1/2+z
-x,1/2-y,1/2+z
x,1/2-y,1/2-z
-x,1/2+y,1/2-z
-x,1/2-y,1/2-z
x,1/2+y,1/2-z
-x,1/2+y,1/2+z
x,1/2-y,1/2+z
1/2+x,y,1/2+z
1/2-x,-y,1/2+z
1/2+x,-y,1/2-z
1/2-x,y,1/2-z
1/2-x,-y,1/2-z
1/2+x,y,1/2-z
1/2-x,y,1/2+z
1/2+x,-y,1/2+z
1/2+x,1/2+y,z
1/2-x,1/2-y,z
1/2+x,1/2-y,-z
1/2-x,1/2+y,-z
1/2-x,1/2-y,-z
1/2+x,1/2+y,-z
1/2-x,1/2+y,z
1/2+x,1/2-y,z
loop_
_atom_site_type_symbol
_atom_site_label
_atom_site_fract_x
_atom_site_fract_y
_atom_site_fract_z
Si Si1 0.828449 0.548958 0.691443
Si Si2 0.000000 0.370839 0.903157
Si Si3 0.903359 0.713367 0.405823
Si Si4 0.208265 0.855908 0.161246
Si Si5 0.500000 0.050494 0.215546
Si Si6 0.642866 0.690852 0.407651
O O1 0.835436 0.500000 0.646073
O O2 0.750000 0.545376 0.750000
O O3 0.810208 0.592319 0.634675
O O4 0.915930 0.559587 0.734340
O O5 0.000000 0.419787 0.864683
O O6 0.921550 0.343742 0.867841
O O7 0.000000 0.377531 0.000000
O O8 0.879990 0.703240 0.500000
O O9 0.875914 0.672580 0.346641
O O10 0.859858 0.758875 0.371348
O O11 0.000000 0.719987 0.395528
O O12 0.250000 0.853158 0.250000
O O13 0.267636 0.831501 0.097189
O O14 0.500000 0.000000 0.183296
O O15 0.614559 0.696979 0.500000
#
# Coordination Sequence:
#
# PCOD8283993 Si02
#       6
#    32  16  32  32  16  32
#     4   9  19  36  56  78 109 146 183 224 275 344
#     4  10  18  31  53  77 105 138 183 233 271 319
#     4  10  21  39  59  79 110 156 197 227 271 340
#     4  11  22  35  55  86 113 141 187 237 286 324
#     4  10  20  35  55  77 108 149 181 219 285 342
#     4  10  20  37  56  77 109 152 190 220 271 339
#
# _framework density 20.186546
#
# number of rings (size 3 to 8) (size 9 to 14) (size 15 to 20)
#    0.000    2.000    1.000    3.600    1.400    3.400 
#    1.800    1.000    0.000    3.600    0.000    1.400 
#    0.000    0.000    0.000    0.000    0.000    0.000 
#
# Total GULP energy -495575.683172 kJ/mol
# GULP energy per Si atom -12389.392079 kJ/mol
# Density = 2.014060 g / cm^3
# Si number density = 20.186546 Si / 1000 Ang^3
#
#
#
# Elastic Constant Matrix: (Units=GPa)
#
#
# Indices 1 2 3 4 5 6 
#
# 1 106.9879 49.5583 13.1721 0.0000 0.0000 0.0000
# 2 49.5583 221.5197 38.1424 0.0000 0.0000 0.0000
# 3 13.1721 38.1424 29.1398 0.0000 0.0000 0.0000
# 4 0.0000 0.0000 0.0000 23.2943 0.0000 0.0000
# 5 0.0000 0.0000 0.0000 0.0000 24.9447 0.0000
# 6 0.0000 0.0000 0.0000 0.0000 0.0000 37.0926
#
#
#
# Elastic Compliance Matrix: (Units=1/GPa)
#
#
# Indices 1 2 3 4 5 6 
#
# 1 0.010532 -0.001984 -0.002164 0.000000 0.000000 0.000000
# 2 -0.001984 0.006201 -0.007221 0.000000 0.000000 0.000000
# 3 -0.002164 -0.007221 0.044747 0.000000 0.000000 0.000000
# 4 0.000000 0.000000 0.000000 0.042929 0.000000 0.000000
# 5 0.000000 0.000000 0.000000 0.000000 0.040089 0.000000
# 6 0.000000 0.000000 0.000000 0.000000 0.000000 0.026960
#
#
# Mechanical properties :
#
#
# Convention : Reuss Voigt Hill
#
# Bulk Modulus (GPa) = 25.81088 62.15478 43.98283
# Shear Modulus (GPa) = 24.14183 34.18463 29.16323
#
# Velocity S-wave (km/s) = 3.46198 4.11960 3.80503
# Velocity P-wave (km/s) = 5.36604 7.31336 6.41403
#
# Compressibility (1/GPa) = 0.03874335
#
# Stress axis : x y z
#
# Youngs Moduli (GPa) = 94.94742 161.25638 22.34782
#
# Poissons Ratio (x) = 0.31986 0.04837
# Poissons Ratio (y) = 0.18833 0.16136
# Poissons Ratio (z) = 0.20551 1.16436
#
# Static dielectric constant tensor:
#      x y z
#    x 3.881570 0.000000 0.000000 
#    y 0.000000 4.215380 0.000000 
#    z 0.000000 0.000000 3.089610 
# 
# 
# High freq. dielectric constant tensor:
#      x y z
#    x 1.810240 0.000000 0.000000 
#    y 0.000000 1.812380 0.000000 
#    z 0.000000 0.000000 1.726340 
# 
# From -- ./inp_files/15664.got.cif
#   From: 2010.03.12/outbox.cif.g09.slc.cpg/sg69_8_cif.got.tgz:15664.got - 2010.04.10 23:52:46.
