data_PCOD8283540
_publ_section_title
;
Structure prediction by ZEFSAII (Michael W. Deem and Ramdas Pophale) SiO2 
 PCOD8283540
Probable space group: C C C A
;
_chemical_formula_sum "Si O2"
_cell_formula_units_Z 68
_cell_length_a 18.928755
_cell_length_b 13.499087
_cell_length_c 12.030309
_cell_angle_alpha 90.000000
_cell_angle_beta 90.000000
_cell_angle_gamma 90.000000
_cell_volume 3073.995510
_symmetry_space_group_name_H-M "C C C A"
_symmetry_group_IT_number 68
_space_group.IT_coordinate_system_code '2'
_symmetry_cell_setting 'orthorhombic'
loop_
_space_group_symop_operation_xyz
x,y,z
-x,1/2-y,z
x,1/2-y,1/2-z
-x,y,1/2-z
-x,-y,-z
x,1/2+y,-z
-x,1/2+y,1/2+z
x,-y,1/2+z
1/2+x,1/2+y,z
1/2-x,-y,z
1/2+x,-y,1/2-z
1/2-x,1/2+y,1/2-z
1/2-x,1/2-y,-z
1/2+x,y,-z
1/2-x,y,1/2+z
1/2+x,1/2-y,1/2+z
loop_
_atom_site_type_symbol
_atom_site_label
_atom_site_fract_x
_atom_site_fract_y
_atom_site_fract_z
Si Si1 0.784587 0.098810 0.476794
Si Si2 0.435793 0.898737 0.085293
Si Si3 0.000000 0.750000 0.750000
Si Si4 0.334497 0.279335 0.374998
Si Si5 0.478786 0.885736 0.625649
O O1 0.854174 0.069314 0.408795
O O2 0.727908 0.141943 0.390826
O O3 0.811662 0.179096 0.564121
O O4 0.750000 0.000000 0.533049
O O5 0.447671 0.814046 0.175236
O O6 0.477789 0.995726 0.122628
O O7 0.460131 0.857595 0.963477
O O8 0.344097 0.250000 0.250000
O O9 0.407336 0.331067 0.415433
O O10 0.500000 0.850521 0.750000
#
# Coordination Sequence:
#
# PCOD8283540 Si02
#       5
#    16  16   4  16  16
#     4  11  24  46  66  99 140 180 228 288 353 427
#     4  11  24  42  70 104 140 185 233 297 355 423
#     4  12  24  44  70 112 142 188 238 294 360 424
#     4  11  25  44  69 102 132 183 232 287 351 422
#     4  11  23  46  72 101 139 184 245 293 352 419
#
# _framework density 22.121047999999998
#
# number of rings (size 3 to 8) (size 9 to 14) (size 15 to 20)
#    0.000    0.941    3.529    2.824    1.647    3.294 
#    4.235    0.000    0.000    0.000    0.000    0.000 
#    0.000    0.000    0.000    0.000    0.000    0.000 
#
# Total GULP energy -421466.615168 kJ/mol
# GULP energy per Si atom -12396.076917 kJ/mol
# Density = 2.207070 g / cm^3
# Si number density = 22.121048 Si / 1000 Ang^3
#
#
#
# Elastic Constant Matrix: (Units=GPa)
#
#
# Indices 1 2 3 4 5 6 
#
# 1 159.3982 49.8015 38.2919 0.0000 0.0000 0.0000
# 2 49.8015 125.2459 44.5873 0.0000 0.0000 0.0000
# 3 38.2919 44.5873 97.9680 0.0000 0.0000 0.0000
# 4 0.0000 0.0000 0.0000 32.4267 0.0000 0.0000
# 5 0.0000 0.0000 0.0000 0.0000 34.3812 0.0000
# 6 0.0000 0.0000 0.0000 0.0000 0.0000 46.8009
#
#
#
# Elastic Compliance Matrix: (Units=1/GPa)
#
#
# Indices 1 2 3 4 5 6 
#
# 1 0.007438 -0.002294 -0.001863 0.000000 0.000000 0.000000
# 2 -0.002294 0.010236 -0.003762 0.000000 0.000000 0.000000
# 3 -0.001863 -0.003762 0.012648 0.000000 0.000000 0.000000
# 4 0.000000 0.000000 0.000000 0.030839 0.000000 0.000000
# 5 0.000000 0.000000 0.000000 0.000000 0.029086 0.000000
# 6 0.000000 0.000000 0.000000 0.000000 0.000000 0.021367
#
#
# Mechanical properties :
#
#
# Convention : Reuss Voigt Hill
#
# Bulk Modulus (GPa) = 69.04554 71.99706 70.52130
# Shear Modulus (GPa) = 37.79891 39.38383 38.59137
#
# Velocity S-wave (km/s) = 4.13816 4.22403 4.18132
# Velocity P-wave (km/s) = 7.35615 7.51049 7.43372
#
# Compressibility (1/GPa) = 0.01448319
#
# Stress axis : x y z
#
# Youngs Moduli (GPa) = 134.44523 97.69670 79.06604
#
# Poissons Ratio (x) = 0.22415 0.14730
# Poissons Ratio (y) = 0.30846 0.29743
# Poissons Ratio (z) = 0.25047 0.36751
#
# Static dielectric constant tensor:
#      x y z
#    x 4.208380 0.000000 0.000000 
#    y 0.000000 4.282890 0.000000 
#    z 0.000000 0.000000 3.777790 
# 
# 
# High freq. dielectric constant tensor:
#      x y z
#    x 1.884880 0.000000 0.000000 
#    y 0.000000 1.900520 0.000000 
#    z 0.000000 0.000000 1.848690 
# 
# From -- ./inp_files/15249.got.cif
#   From: 2010.03.12/outbox.cif.g09.slc.cpg/sg68_8_cif.got.tgz:15249.got - 2010.04.10 23:14:56.
