data_PCOD8283395
_publ_section_title
;
Structure prediction by ZEFSAII (Michael W. Deem and Ramdas Pophale) SiO2 
 PCOD8283395
Probable space group: C C C A
;
_chemical_formula_sum "Si O2"
_cell_formula_units_Z 64
_cell_length_a 31.974666
_cell_length_b 8.471418
_cell_length_c 10.806965
_cell_angle_alpha 90.000000
_cell_angle_beta 90.000000
_cell_angle_gamma 90.000000
_cell_volume 2927.290835
_symmetry_space_group_name_H-M "C C C A"
_symmetry_group_IT_number 68
_space_group.IT_coordinate_system_code '2'
_symmetry_cell_setting 'orthorhombic'
loop_
_space_group_symop_operation_xyz
x,y,z
-x,1/2-y,z
x,1/2-y,1/2-z
-x,y,1/2-z
-x,-y,-z
x,1/2+y,-z
-x,1/2+y,1/2+z
x,-y,1/2+z
1/2+x,1/2+y,z
1/2-x,-y,z
1/2+x,-y,1/2-z
1/2-x,1/2+y,1/2-z
1/2-x,1/2-y,-z
1/2+x,y,-z
1/2-x,y,1/2+z
1/2+x,1/2-y,1/2+z
loop_
_atom_site_type_symbol
_atom_site_label
_atom_site_fract_x
_atom_site_fract_y
_atom_site_fract_z
Si Si1 0.970532 0.125004 0.432263
Si Si2 0.296361 0.935172 0.877926
Si Si3 0.327436 0.900325 0.617940
Si Si4 0.923408 0.164154 0.870652
O O1 0.943127 0.237946 0.518641
O O2 0.000000 0.250000 0.356399
O O3 0.938461 0.018455 0.354195
O O4 0.000000 0.000000 0.500000
O O5 0.318166 0.991312 0.748306
O O6 0.295131 0.745675 0.886805
O O7 0.250000 0.000000 0.883537
O O8 0.322128 0.992299 0.997635
O O9 0.373778 0.830559 0.617550
O O10 0.939659 0.250000 0.750000
#
# Coordination Sequence:
#
# PCOD8283395 Si02
#       4
#    16  16  16  16
#     4   9  21  40  64  95 124 163 216 272 337 399
#     4  11  23  42  66  96 135 173 227 279 336 400
#     4  11  24  42  66  99 132 179 225 275 345 395
#     4  11  21  41  67  89 135 171 218 279 336 402
#
# _framework density 21.863219999999998
#
# number of rings (size 3 to 8) (size 9 to 14) (size 15 to 20)
#    0.000    1.500    2.500    3.000    0.000    7.500 
#    0.000    8.750    0.000    0.000    0.000    0.000 
#    0.000    0.000    0.000    0.000    0.000    0.000 
#
# Total GULP energy -396490.434066 kJ/mol
# GULP energy per Si atom -12390.326065 kJ/mol
# Density = 2.181346 g / cm^3
# Si number density = 21.863220 Si / 1000 Ang^3
#
#
#
# Elastic Constant Matrix: (Units=GPa)
#
#
# Indices 1 2 3 4 5 6 
#
# 1 85.5324 31.2613 18.3462 0.0000 0.0000 0.0000
# 2 31.2613 118.5127 44.8431 0.0000 0.0000 0.0000
# 3 18.3462 44.8431 156.5561 0.0000 0.0000 0.0000
# 4 0.0000 0.0000 0.0000 35.9588 0.0000 0.0000
# 5 0.0000 0.0000 0.0000 0.0000 -806.7328 0.0000
# 6 0.0000 0.0000 0.0000 0.0000 0.0000 31.1172
#
#
#
# Elastic Compliance Matrix: (Units=1/GPa)
#
#
# Indices 1 2 3 4 5 6 
#
# 1 0.012990 -0.003197 -0.000607 0.000000 0.000000 0.000000
# 2 -0.003197 0.010250 -0.002561 0.000000 0.000000 0.000000
# 3 -0.000607 -0.002561 0.007192 0.000000 0.000000 0.000000
# 4 0.000000 0.000000 0.000000 0.027810 0.000000 0.000000
# 5 0.000000 0.000000 0.000000 0.000000 -0.001240 0.000000
# 6 0.000000 0.000000 0.000000 0.000000 0.000000 0.032137
#
#
# Mechanical properties :
#
#
# Convention : Reuss Voigt Hill
#
# Bulk Modulus (GPa) = 56.48829 61.05582 58.77205
# Shear Modulus (GPa) = 46.39502 -130.18799 -41.89648
#
# Velocity S-wave (km/s) = 4.61158 -7.72501 -4.38231
# Velocity P-wave (km/s) = 7.36538 7.18198 1.15496
#
# Compressibility (1/GPa) = 0.01770278
#
# Stress axis : x y z
#
# Youngs Moduli (GPa) = 76.98197 97.55689 139.03862
#
# Poissons Ratio (x) = 0.31189 0.08433
# Poissons Ratio (y) = 0.24611 0.35614
# Poissons Ratio (z) = 0.04669 0.24989
#
# Static dielectric constant tensor:
#      x y z
#    x 4.078030 0.000000 0.000000 
#    y 0.000000 4.877780 0.000000 
#    z 0.000000 0.000000 4.103250 
# 
# 
# High freq. dielectric constant tensor:
#      x y z
#    x 1.870310 0.000000 0.000000 
#    y 0.000000 1.865850 0.000000 
#    z 0.000000 0.000000 1.855040 
# 
# From -- ./inp_files/10733.got.cif
#   From: 2010.03.12/outbox.cif.g09.slc.cpg/sg68_6_cif.got.tgz:10733.got - 2010.04.10 23:14:56.
