data_PCOD8283355
_publ_section_title
;
Structure prediction by ZEFSAII (Michael W. Deem and Ramdas Pophale) SiO2 
 PCOD8283355
Probable space group: C C C A
;
_chemical_formula_sum "Si O2"
_cell_formula_units_Z 88
_cell_length_a 17.642699
_cell_length_b 15.091806
_cell_length_c 16.796111
_cell_angle_alpha 90.000000
_cell_angle_beta 90.000000
_cell_angle_gamma 90.000000
_cell_volume 4472.135717
_symmetry_space_group_name_H-M "C C C A"
_symmetry_group_IT_number 68
_space_group.IT_coordinate_system_code '2'
_symmetry_cell_setting 'orthorhombic'
loop_
_space_group_symop_operation_xyz
x,y,z
-x,1/2-y,z
x,1/2-y,1/2-z
-x,y,1/2-z
-x,-y,-z
x,1/2+y,-z
-x,1/2+y,1/2+z
x,-y,1/2+z
1/2+x,1/2+y,z
1/2-x,-y,z
1/2+x,-y,1/2-z
1/2-x,1/2+y,1/2-z
1/2-x,1/2-y,-z
1/2+x,y,-z
1/2-x,y,1/2+z
1/2+x,1/2-y,1/2+z
loop_
_atom_site_type_symbol
_atom_site_label
_atom_site_fract_x
_atom_site_fract_y
_atom_site_fract_z
Si Si1 0.750000 0.000000 0.812022
Si Si2 0.771124 0.332433 0.300067
Si Si3 0.616255 0.260580 0.342864
Si Si4 0.032088 0.071463 0.839662
Si Si5 0.164842 0.539097 0.594012
Si Si6 0.616810 0.433822 0.084741
O O1 0.748373 0.087758 0.759449
O O2 0.823683 0.006659 0.867416
O O3 0.803816 0.250000 0.250000
O O4 0.698473 0.304872 0.352214
O O5 0.832929 0.364440 0.364171
O O6 0.601305 0.250000 0.250000
O O7 0.549997 0.328125 0.370296
O O8 0.617809 0.169568 0.391365
O O9 0.000000 0.069629 0.750000
O O10 0.967281 0.030238 0.896040
O O11 0.110221 0.018097 0.848994
O O12 0.250000 0.500000 0.592567
O O13 0.131027 0.551338 0.507533
#
# Coordination Sequence:
#
# PCOD8283355 Si02
#       6
#     8  16  16  16  16  16
#     4  12  20  40  66  98 130 172 222 264 322 404
#     4  11  21  40  67  96 126 176 227 264 317 395
#     4  11  20  39  68  99 124 165 222 283 322 376
#     4  12  23  43  73  96 130 171 229 278 321 392
#     4  12  25  44  64  98 140 174 210 268 342 402
#     4  12  25  39  66 101 135 167 215 281 337 382
#
# _framework density 19.677399000000001
#
# number of rings (size 3 to 8) (size 9 to 14) (size 15 to 20)
#    0.000    0.364    9.091    2.182    0.000    0.727 
#    3.273    0.000    4.000    1.091    0.000    0.000 
#    0.000    0.000    0.000    0.000    0.000    0.000 
#
# Total GULP energy -545346.033736 kJ/mol
# GULP energy per Si atom -12394.228039 kJ/mol
# Density = 1.963261 g / cm^3
# Si number density = 19.677399 Si / 1000 Ang^3
#
#
#
# Elastic Constant Matrix: (Units=GPa)
#
#
# Indices 1 2 3 4 5 6 
#
# 1 124.0102 31.3121 30.8864 0.0000 0.0000 0.0000
# 2 31.3121 84.9339 21.3655 0.0000 0.0000 0.0000
# 3 30.8864 21.3655 83.7644 0.0000 0.0000 0.0000
# 4 0.0000 0.0000 0.0000 28.4426 0.0000 0.0000
# 5 0.0000 0.0000 0.0000 0.0000 22.1781 0.0000
# 6 0.0000 0.0000 0.0000 0.0000 0.0000 29.7225
#
#
#
# Elastic Compliance Matrix: (Units=1/GPa)
#
#
# Indices 1 2 3 4 5 6 
#
# 1 0.009460 -0.002789 -0.002777 0.000000 0.000000 0.000000
# 2 -0.002789 0.013403 -0.002390 0.000000 0.000000 0.000000
# 3 -0.002777 -0.002390 0.013572 0.000000 0.000000 0.000000
# 4 0.000000 0.000000 0.000000 0.035158 0.000000 0.000000
# 5 0.000000 0.000000 0.000000 0.000000 0.045090 0.000000
# 6 0.000000 0.000000 0.000000 0.000000 0.000000 0.033645
#
#
# Mechanical properties :
#
#
# Convention : Reuss Voigt Hill
#
# Bulk Modulus (GPa) = 48.72636 51.09295 49.90965
# Shear Modulus (GPa) = 28.88832 30.01161 29.44996
#
# Velocity S-wave (km/s) = 3.83573 3.90959 3.87284
# Velocity P-wave (km/s) = 6.66584 6.81187 6.73925
#
# Compressibility (1/GPa) = 0.02052277
#
# Stress axis : x y z
#
# Youngs Moduli (GPa) = 105.71257 74.60821 73.68227
#
# Poissons Ratio (x) = 0.20808 0.20459
# Poissons Ratio (y) = 0.29483 0.17613
# Poissons Ratio (z) = 0.29353 0.17834
#
# Static dielectric constant tensor:
#      x y z
#    x 4.004550 0.000000 0.000000 
#    y 0.000000 4.694780 0.000000 
#    z 0.000000 0.000000 3.634990 
# 
# 
# High freq. dielectric constant tensor:
#      x y z
#    x 1.777420 0.000000 0.000000 
#    y 0.000000 1.766100 0.000000 
#    z 0.000000 0.000000 1.756990 
# 
# From -- ./inp_files/30917.got.cif
#   From: 2010.03.12/outbox.cif.g09.slc.cpg/sg68_16_cif.got.tgz:30917.got - 2010.04.10 23:14:56.
