data_PCOD8283931
_publ_section_title
;
Structure prediction by ZEFSAII (Michael W. Deem and Ramdas Pophale) SiO2 
 PCOD8283931
Probable space group: F M M M
;
_chemical_formula_sum "Si O2"
_cell_formula_units_Z 112
_cell_length_a 36.616153
_cell_length_b 19.114516
_cell_length_c 8.849203
_cell_angle_alpha 90.000000
_cell_angle_beta 90.000000
_cell_angle_gamma 90.000000
_cell_volume 6193.557555
_symmetry_space_group_name_H-M "F M M M"
_symmetry_group_IT_number 69
_symmetry_cell_setting 'orthorhombic'
loop_
_space_group_symop_operation_xyz
x,y,z
-x,-y,z
x,-y,-z
-x,y,-z
-x,-y,-z
x,y,-z
-x,y,z
x,-y,z
x,1/2+y,1/2+z
-x,1/2-y,1/2+z
x,1/2-y,1/2-z
-x,1/2+y,1/2-z
-x,1/2-y,1/2-z
x,1/2+y,1/2-z
-x,1/2+y,1/2+z
x,1/2-y,1/2+z
1/2+x,y,1/2+z
1/2-x,-y,1/2+z
1/2+x,-y,1/2-z
1/2-x,y,1/2-z
1/2-x,-y,1/2-z
1/2+x,y,1/2-z
1/2-x,y,1/2+z
1/2+x,-y,1/2+z
1/2+x,1/2+y,z
1/2-x,1/2-y,z
1/2+x,1/2-y,-z
1/2-x,1/2+y,-z
1/2-x,1/2-y,-z
1/2+x,1/2+y,-z
1/2-x,1/2+y,z
1/2+x,1/2-y,z
loop_
_atom_site_type_symbol
_atom_site_label
_atom_site_fract_x
_atom_site_fract_y
_atom_site_fract_z
Si Si1 0.927096 0.325992 0.320207
Si Si2 0.140744 0.079309 0.822680
Si Si3 0.286011 0.916685 0.170080
Si Si4 0.500000 0.672842 0.319014
O O1 0.931948 0.320047 0.500000
O O2 0.920129 0.250000 0.250000
O O3 0.893441 0.374374 0.272427
O O4 0.963130 0.362527 0.246394
O O5 0.177260 0.111331 0.748903
O O6 0.133612 0.000000 0.767144
O O7 0.146777 0.081542 0.000000
O O8 0.250000 0.885525 0.250000
O O9 0.285270 0.000000 0.179799
O O10 0.285909 0.889196 0.000000
O O11 0.500000 0.672931 0.500000
O O12 0.500000 0.750000 0.250000
#
# Coordination Sequence:
#
# PCOD8283931 Si02
#       4
#    32  32  32  16
#     4  10  19  32  51  72  95 123 156 194 234 278
#     4   9  18  32  49  70  96 125 157 193 233 277
#     4   9  16  26  43  67  94 124 157 193 231 273
#     4  10  18  30  49  70  93 121 157 197 231 272
#
# _framework density 18.083306
#
# number of rings (size 3 to 8) (size 9 to 14) (size 15 to 20)
#    0.000    2.571    0.000    4.714    0.000    5.714 
#    0.000    0.714    0.000    5.143    0.000    6.000 
#    0.000    0.000    0.000    0.000    0.000    0.000 
#
# Total GULP energy -347103.365529 kJ/mol
# GULP energy per Si atom -12396.548769 kJ/mol
# Density = 1.804215 g / cm^3
# Si number density = 18.083306 Si / 1000 Ang^3
#
#
#
# Elastic Constant Matrix: (Units=GPa)
#
#
# Indices 1 2 3 4 5 6 
#
# 1 220.0999 55.4252 83.6322 0.0000 0.0000 0.0000
# 2 55.4252 41.1682 27.4338 0.0000 0.0000 0.0000
# 3 83.6322 27.4338 96.9078 0.0000 0.0000 0.0000
# 4 0.0000 0.0000 0.0000 16.9334 0.0000 0.0000
# 5 0.0000 0.0000 0.0000 0.0000 39.3968 0.0000
# 6 0.0000 0.0000 0.0000 0.0000 0.0000 6.6605
#
#
#
# Elastic Compliance Matrix: (Units=1/GPa)
#
#
# Indices 1 2 3 4 5 6 
#
# 1 0.008493 -0.008073 -0.005044 0.000000 0.000000 0.000000
# 2 -0.008073 0.037612 -0.003681 0.000000 0.000000 0.000000
# 3 -0.005044 -0.003681 0.015714 0.000000 0.000000 0.000000
# 4 0.000000 0.000000 0.000000 0.059055 0.000000 0.000000
# 5 0.000000 0.000000 0.000000 0.000000 0.025383 0.000000
# 6 0.000000 0.000000 0.000000 0.000000 0.000000 0.150138
#
#
# Mechanical properties :
#
#
# Convention : Reuss Voigt Hill
#
# Bulk Modulus (GPa) = 35.43126 76.79538 56.11332
# Shear Modulus (GPa) = 14.73198 25.37713 20.05455
#
# Velocity S-wave (km/s) = 2.85734 3.75019 3.33379
# Velocity P-wave (km/s) = 5.52465 7.83018 6.77619
#
# Compressibility (1/GPa) = 0.02822367
#
# Stress axis : x y z
#
# Youngs Moduli (GPa) = 117.74556 26.58742 63.63682
#
# Poissons Ratio (x) = 0.21463 0.32099
# Poissons Ratio (y) = 0.95053 0.23423
# Poissons Ratio (z) = 0.59392 0.09786
#
# Static dielectric constant tensor:
#      x y z
#    x 3.963620 0.000000 0.000000 
#    y 0.000000 2.888540 0.000000 
#    z 0.000000 0.000000 3.404430 
# 
# 
# High freq. dielectric constant tensor:
#      x y z
#    x 1.726130 0.000000 0.000000 
#    y 0.000000 1.637800 0.000000 
#    z 0.000000 0.000000 1.711550 
# 
# From -- ./inp_files/3705.got.cif
#   From: 2010.03.12/outbox.cif.g09.slc.cpg/sg69_2_cif.got.tgz:3705.got - 2010.04.10 23:52:46.
