data_PCOD8283703
_publ_section_title
;
Structure prediction by ZEFSAII (Michael W. Deem and Ramdas Pophale) SiO2 
 PCOD8283703
Probable space group: C C C A
;
_chemical_formula_sum "Si O2"
_cell_formula_units_Z 64
_cell_length_a 8.873258
_cell_length_b 16.282693
_cell_length_c 19.891883
_cell_angle_alpha 90.000000
_cell_angle_beta 90.000000
_cell_angle_gamma 90.000000
_cell_volume 2873.989916
_symmetry_space_group_name_H-M "C C C A"
_symmetry_group_IT_number 68
_space_group.IT_coordinate_system_code '2'
_symmetry_cell_setting 'orthorhombic'
loop_
_space_group_symop_operation_xyz
x,y,z
-x,1/2-y,z
x,1/2-y,1/2-z
-x,y,1/2-z
-x,-y,-z
x,1/2+y,-z
-x,1/2+y,1/2+z
x,-y,1/2+z
1/2+x,1/2+y,z
1/2-x,-y,z
1/2+x,-y,1/2-z
1/2-x,1/2+y,1/2-z
1/2-x,1/2-y,-z
1/2+x,y,-z
1/2-x,y,1/2+z
1/2+x,1/2-y,1/2+z
loop_
_atom_site_type_symbol
_atom_site_label
_atom_site_fract_x
_atom_site_fract_y
_atom_site_fract_z
Si Si1 0.593690 0.665003 0.058612
Si Si2 0.294326 0.410869 0.544591
Si Si3 0.344648 0.352646 0.174705
Si Si4 0.682590 0.659055 0.674989
O O1 0.500000 0.750000 0.068218
O O2 0.473310 0.596147 0.038251
O O3 0.682731 0.633392 0.125022
O O4 0.713004 0.663275 0.996943
O O5 0.250000 0.500000 0.516498
O O6 0.258180 0.401917 0.623324
O O7 0.285772 0.373734 0.249708
O O8 0.325642 0.256117 0.167604
O O9 0.517542 0.377309 0.157644
#
# Coordination Sequence:
#
# PCOD8283703 Si02
#       4
#    16  16  16  16
#     4  12  24  41  67  97 123 172 227 270 310 386
#     4  12  26  42  60  93 136 172 209 272 334 384
#     4   9  19  39  64  92 129 161 205 265 330 385
#     4   9  19  38  66  95 120 163 213 268 319 378
#
# _framework density 22.268695000000001
#
# number of rings (size 3 to 8) (size 9 to 14) (size 15 to 20)
#    0.000    1.500    2.500    4.500    3.500    1.000 
#    0.000    6.250    0.000    0.000    0.000    0.000 
#    0.000    0.000    0.000    0.000    0.000    0.000 
#
# Total GULP energy -396549.042264 kJ/mol
# GULP energy per Si atom -12392.157571 kJ/mol
# Density = 2.221801 g / cm^3
# Si number density = 22.268695 Si / 1000 Ang^3
#
#
#
# Elastic Constant Matrix: (Units=GPa)
#
#
# Indices 1 2 3 4 5 6 
#
# 1 146.0830 19.0389 71.0574 0.0000 0.0000 0.0000
# 2 19.0389 44.8107 12.9777 0.0000 0.0000 0.0000
# 3 71.0574 12.9777 132.2722 0.0000 0.0000 0.0000
# 4 0.0000 0.0000 0.0000 18.6348 0.0000 0.0000
# 5 0.0000 0.0000 0.0000 0.0000 50.1006 0.0000
# 6 0.0000 0.0000 0.0000 0.0000 0.0000 27.4196
#
#
#
# Elastic Compliance Matrix: (Units=1/GPa)
#
#
# Indices 1 2 3 4 5 6 
#
# 1 0.009563 -0.002651 -0.004877 0.000000 0.000000 0.000000
# 2 -0.002651 0.023703 -0.000902 0.000000 0.000000 0.000000
# 3 -0.004877 -0.000902 0.010269 0.000000 0.000000 0.000000
# 4 0.000000 0.000000 0.000000 0.053663 0.000000 0.000000
# 5 0.000000 0.000000 0.000000 0.000000 0.019960 0.000000
# 6 0.000000 0.000000 0.000000 0.000000 0.000000 0.036470
#
#
# Mechanical properties :
#
#
# Convention : Reuss Voigt Hill
#
# Bulk Modulus (GPa) = 37.48676 58.81266 48.14971
# Shear Modulus (GPa) = 27.87374 33.90378 30.88876
#
# Velocity S-wave (km/s) = 3.54178 3.90614 3.72841
# Velocity P-wave (km/s) = 5.79620 6.84191 6.34065
#
# Compressibility (1/GPa) = 0.02667608
#
# Stress axis : x y z
#
# Youngs Moduli (GPa) = 104.56594 42.18794 97.38232
#
# Poissons Ratio (x) = 0.11183 0.47497
# Poissons Ratio (y) = 0.27717 0.08781
# Poissons Ratio (z) = 0.51001 0.03804
#
# Static dielectric constant tensor:
#      x y z
#    x 4.517210 0.000000 0.000000 
#    y 0.000000 3.520600 0.000000 
#    z 0.000000 0.000000 4.322500 
# 
# 
# High freq. dielectric constant tensor:
#      x y z
#    x 1.888390 0.000000 0.000000 
#    y 0.000000 1.837270 0.000000 
#    z 0.000000 0.000000 1.882780 
# 
# From -- ./inp_files/35773.got.cif
#   From: 2010.03.12/outbox.cif.g09.slc.cpg/sg68_18_cif.got.tgz:35773.got - 2010.04.10 23:14:56.
