data_PCOD8283500
_publ_section_title
;
Structure prediction by ZEFSAII (Michael W. Deem and Ramdas Pophale) SiO2 
 PCOD8283500
Probable space group: C C C A
;
_chemical_formula_sum "Si O2"
_cell_formula_units_Z 96
_cell_length_a 11.041842
_cell_length_b 23.050284
_cell_length_c 17.036092
_cell_angle_alpha 90.000000
_cell_angle_beta 90.000000
_cell_angle_gamma 90.000000
_cell_volume 4335.985147
_symmetry_space_group_name_H-M "C C C A"
_symmetry_group_IT_number 68
_space_group.IT_coordinate_system_code '2'
_symmetry_cell_setting 'orthorhombic'
loop_
_space_group_symop_operation_xyz
x,y,z
-x,1/2-y,z
x,1/2-y,1/2-z
-x,y,1/2-z
-x,-y,-z
x,1/2+y,-z
-x,1/2+y,1/2+z
x,-y,1/2+z
1/2+x,1/2+y,z
1/2-x,-y,z
1/2+x,-y,1/2-z
1/2-x,1/2+y,1/2-z
1/2-x,1/2-y,-z
1/2+x,y,-z
1/2-x,y,1/2+z
1/2+x,1/2-y,1/2+z
loop_
_atom_site_type_symbol
_atom_site_label
_atom_site_fract_x
_atom_site_fract_y
_atom_site_fract_z
Si Si1 0.461158 0.093034 0.122299
Si Si2 0.540588 0.470427 0.668016
Si Si3 0.152023 0.949392 0.964147
Si Si4 0.223773 0.123903 0.184046
Si Si5 0.633047 0.743853 0.157553
Si Si6 0.725773 0.143313 0.137305
O O1 0.357747 0.135527 0.152043
O O2 0.582582 0.130728 0.131954
O O3 0.440298 0.038728 0.181633
O O4 0.435330 0.067425 0.035823
O O5 0.500000 0.441384 0.750000
O O6 0.435431 0.470647 0.604053
O O7 0.661968 0.434176 0.646715
O O8 0.218846 0.892236 0.934470
O O9 0.250000 0.000000 0.984296
O O10 0.159548 0.177141 0.141150
O O11 0.221124 0.122753 0.278868
O O12 0.500000 0.750000 0.119065
O O13 0.628328 0.750000 0.250000
O O14 0.733442 0.789446 0.123825
#
# Coordination Sequence:
#
# PCOD8283500 Si02
#       6
#    16  16  16  16  16  16
#     4  12  27  40  65  98 144 177 219 279 352 407
#     4  12  23  40  70  99 134 177 229 279 333 405
#     4  12  25  43  65  97 140 187 224 274 346 412
#     4  11  23  41  69 104 130 175 230 283 342 401
#     4   9  20  40  71 100 128 169 227 288 338 401
#     4  11  23  44  68  97 133 176 234 282 335 410
#
# _framework density 22.140297
#
# number of rings (size 3 to 8) (size 9 to 14) (size 15 to 20)
#    0.000    0.833    3.333    4.500    4.667    0.667 
#    0.000    3.333    3.667    0.000    0.000    0.000 
#    0.000    0.000    0.000    0.000    0.000    0.000 
#
# Total GULP energy -594679.668489 kJ/mol
# GULP energy per Si atom -12389.159760 kJ/mol
# Density = 2.208990 g / cm^3
# Si number density = 22.140297 Si / 1000 Ang^3
#
#
#
# Elastic Constant Matrix: (Units=GPa)
#
#
# Indices 1 2 3 4 5 6 
#
# 1 163.3529 73.5170 19.3549 0.0000 0.0000 0.0000
# 2 73.5170 116.9130 26.8854 0.0000 0.0000 0.0000
# 3 19.3549 26.8854 70.3852 0.0000 0.0000 0.0000
# 4 0.0000 0.0000 0.0000 13.9012 0.0000 0.0000
# 5 0.0000 0.0000 0.0000 0.0000 32.8403 0.0000
# 6 0.0000 0.0000 0.0000 0.0000 0.0000 56.7635
#
#
#
# Elastic Compliance Matrix: (Units=1/GPa)
#
#
# Indices 1 2 3 4 5 6 
#
# 1 0.008545 -0.005298 -0.000326 0.000000 0.000000 0.000000
# 2 -0.005298 0.012662 -0.003380 0.000000 0.000000 0.000000
# 3 -0.000326 -0.003380 0.015588 0.000000 0.000000 0.000000
# 4 0.000000 0.000000 0.000000 0.071936 0.000000 0.000000
# 5 0.000000 0.000000 0.000000 0.000000 0.030450 0.000000
# 6 0.000000 0.000000 0.000000 0.000000 0.000000 0.017617
#
#
# Mechanical properties :
#
#
# Convention : Reuss Voigt Hill
#
# Bulk Modulus (GPa) = 53.22698 65.57396 59.40047
# Shear Modulus (GPa) = 27.61381 36.09392 31.85386
#
# Velocity S-wave (km/s) = 3.53543 4.04200 3.79717
# Velocity P-wave (km/s) = 6.38425 7.17394 6.79059
#
# Compressibility (1/GPa) = 0.01878746
#
# Stress axis : x y z
#
# Youngs Moduli (GPa) = 117.03073 78.97558 64.15141
#
# Poissons Ratio (x) = 0.41842 0.02091
# Poissons Ratio (y) = 0.62005 0.21681
# Poissons Ratio (z) = 0.03814 0.26691
#
# Static dielectric constant tensor:
#      x y z
#    x 4.346540 0.000000 0.000000 
#    y 0.000000 4.264690 0.000000 
#    z 0.000000 0.000000 3.850050 
# 
# 
# High freq. dielectric constant tensor:
#      x y z
#    x 1.886720 0.000000 0.000000 
#    y 0.000000 1.867940 0.000000 
#    z 0.000000 0.000000 1.855550 
# 
# From -- ./inp_files/29796.got.cif
#   From: 2010.03.12/outbox.cif.g09.slc.cpg/sg68_15_cif.got.tgz:29796.got - 2010.04.10 23:14:56.
