data_PCOD8283612
_publ_section_title
;
Structure prediction by ZEFSAII (Michael W. Deem and Ramdas Pophale) SiO2 
 PCOD8283612
Probable space group: C C C A
;
_chemical_formula_sum "Si O2"
_cell_formula_units_Z 60
_cell_length_a 17.738419
_cell_length_b 11.273113
_cell_length_c 13.746346
_cell_angle_alpha 90.000000
_cell_angle_beta 90.000000
_cell_angle_gamma 90.000000
_cell_volume 2748.818345
_symmetry_space_group_name_H-M "C C C A"
_symmetry_group_IT_number 68
_space_group.IT_coordinate_system_code '2'
_symmetry_cell_setting 'orthorhombic'
loop_
_space_group_symop_operation_xyz
x,y,z
-x,1/2-y,z
x,1/2-y,1/2-z
-x,y,1/2-z
-x,-y,-z
x,1/2+y,-z
-x,1/2+y,1/2+z
x,-y,1/2+z
1/2+x,1/2+y,z
1/2-x,-y,z
1/2+x,-y,1/2-z
1/2-x,1/2+y,1/2-z
1/2-x,1/2-y,-z
1/2+x,y,-z
1/2-x,y,1/2+z
1/2+x,1/2-y,1/2+z
loop_
_atom_site_type_symbol
_atom_site_label
_atom_site_fract_x
_atom_site_fract_y
_atom_site_fract_z
Si Si1 0.317093 0.832246 0.528713
Si Si2 0.620503 0.070677 0.666799
Si Si3 0.750000 0.500000 0.688877
Si Si4 0.000000 0.750000 0.750000
Si Si5 0.918556 0.695454 0.343913
O O1 0.250000 0.750000 0.500000
O O2 0.343034 0.911567 0.438717
O O3 0.381284 0.738580 0.556812
O O4 0.296676 0.912275 0.620765
O O5 0.688956 0.071320 0.745191
O O6 0.556087 0.168754 0.686016
O O7 0.578112 0.945666 0.663971
O O8 0.874418 0.750000 0.250000
O O9 0.000000 0.750000 0.343697
#
# Coordination Sequence:
#
# PCOD8283612 Si02
#       5
#    16  16   8   4  16
#     4  12  26  44  75 109 144 197 250 300 372 454
#     4  12  27  47  76 110 151 195 251 311 384 446
#     4  12  24  48  74 106 154 196 246 316 366 452
#     4  12  28  48  74 116 158 190 256 330 380 452
#     4  11  24  47  73 103 146 197 240 298 375 444
#
# _framework density 21.827562
#
# number of rings (size 3 to 8) (size 9 to 14) (size 15 to 20)
#    0.000    0.267    2.667    7.200    1.867    1.067 
#    0.000    0.000    0.000    0.000    0.000    0.000 
#    0.000    0.000    0.000    0.000    0.000    0.000 
#
# Total GULP energy -371937.618266 kJ/mol
# GULP energy per Si atom -12397.920609 kJ/mol
# Density = 2.177788 g / cm^3
# Si number density = 21.827562 Si / 1000 Ang^3
#
#
#
# Elastic Constant Matrix: (Units=GPa)
#
#
# Indices 1 2 3 4 5 6 
#
# 1 129.7773 64.1594 72.3144 0.0000 0.0000 0.0000
# 2 64.1594 164.7200 66.2406 0.0000 0.0000 0.0000
# 3 72.3144 66.2406 148.3333 0.0000 0.0000 0.0000
# 4 0.0000 0.0000 0.0000 45.9224 0.0000 0.0000
# 5 0.0000 0.0000 0.0000 0.0000 22.4011 0.0000
# 6 0.0000 0.0000 0.0000 0.0000 0.0000 49.8022
#
#
#
# Elastic Compliance Matrix: (Units=1/GPa)
#
#
# Indices 1 2 3 4 5 6 
#
# 1 0.011493 -0.002710 -0.004393 0.000000 0.000000 0.000000
# 2 -0.002710 0.008039 -0.002269 0.000000 0.000000 0.000000
# 3 -0.004393 -0.002269 0.009896 0.000000 0.000000 0.000000
# 4 0.000000 0.000000 0.000000 0.021776 0.000000 0.000000
# 5 0.000000 0.000000 0.000000 0.000000 0.044641 0.000000
# 6 0.000000 0.000000 0.000000 0.000000 0.000000 0.020079
#
#
# Mechanical properties :
#
#
# Convention : Reuss Voigt Hill
#
# Bulk Modulus (GPa) = 93.58883 94.25104 93.91994
# Shear Modulus (GPa) = 36.17188 39.63288 37.90238
#
# Velocity S-wave (km/s) = 4.07525 4.26576 4.17159
# Velocity P-wave (km/s) = 8.06926 8.21802 8.14398
#
# Compressibility (1/GPa) = 0.01068504
#
# Stress axis : x y z
#
# Youngs Moduli (GPa) = 87.00889 124.39626 101.04879
#
# Poissons Ratio (x) = 0.33713 0.44388
# Poissons Ratio (y) = 0.23580 0.22924
# Poissons Ratio (z) = 0.38221 0.28221
#
# Static dielectric constant tensor:
#      x y z
#    x 3.985290 0.000000 0.000000 
#    y 0.000000 3.919380 0.000000 
#    z 0.000000 0.000000 5.123570 
# 
# 
# High freq. dielectric constant tensor:
#      x y z
#    x 1.868770 0.000000 0.000000 
#    y 0.000000 1.872920 0.000000 
#    z 0.000000 0.000000 1.871860 
# 
# From -- ./inp_files/11583.got.cif
#   From: 2010.03.12/outbox.cif.g09.slc.cpg/sg68_6_cif.got.tgz:11583.got - 2010.04.10 23:14:56.
