data_PCOD8283188
_publ_section_title
;
Structure prediction by ZEFSAII (Michael W. Deem and Ramdas Pophale) SiO2 
 PCOD8283188
Probable space group: C C C A
;
_chemical_formula_sum "Si O2"
_cell_formula_units_Z 56
_cell_length_a 10.552241
_cell_length_b 24.952608
_cell_length_c 9.857933
_cell_angle_alpha 90.000000
_cell_angle_beta 90.000000
_cell_angle_gamma 90.000000
_cell_volume 2595.652248
_symmetry_space_group_name_H-M "C C C A"
_symmetry_group_IT_number 68
_space_group.IT_coordinate_system_code '2'
_symmetry_cell_setting 'orthorhombic'
loop_
_space_group_symop_operation_xyz
x,y,z
-x,1/2-y,z
x,1/2-y,1/2-z
-x,y,1/2-z
-x,-y,-z
x,1/2+y,-z
-x,1/2+y,1/2+z
x,-y,1/2+z
1/2+x,1/2+y,z
1/2-x,-y,z
1/2+x,-y,1/2-z
1/2-x,1/2+y,1/2-z
1/2-x,1/2-y,-z
1/2+x,y,-z
1/2-x,y,1/2+z
1/2+x,1/2-y,1/2+z
loop_
_atom_site_type_symbol
_atom_site_label
_atom_site_fract_x
_atom_site_fract_y
_atom_site_fract_z
Si Si1 0.638552 0.269867 0.098409
Si Si2 0.137036 0.932605 0.781846
Si Si3 0.500000 0.535099 0.750000
Si Si4 0.841875 0.104706 0.925883
O O1 0.500000 0.250000 0.048591
O O2 0.668264 0.250000 0.250000
O O3 0.633825 0.333451 0.098380
O O4 0.750000 0.250000 0.000000
O O5 0.224806 0.915879 0.659804
O O6 0.000000 0.906520 0.750000
O O7 0.191571 0.907856 0.919307
O O8 0.120505 0.997736 0.791546
O O9 0.467105 0.572163 0.879125
#
# Coordination Sequence:
#
# PCOD8283188 Si02
#       4
#    16  16   8  16
#     4  11  26  46  72 106 139 188 247 299 367 433
#     4  10  27  41  68 104 138 183 239 277 369 430
#     4  10  24  40  71  98 143 180 240 276 358 430
#     4  12  24  46  71  95 149 183 231 303 354 424
#
# _framework density 21.574539999999999
#
# number of rings (size 3 to 8) (size 9 to 14) (size 15 to 20)
#    0.857    0.286    0.000    5.143    8.000    2.857 
#    0.000    0.000    0.000    0.000    0.000    0.000 
#    0.000    0.000    0.000    0.000    0.000    0.000 
#
# Total GULP energy -347212.615266 kJ/mol
# GULP energy per Si atom -12400.450545 kJ/mol
# Density = 2.152544 g / cm^3
# Si number density = 21.574540 Si / 1000 Ang^3
#
#
#
# Elastic Constant Matrix: (Units=GPa)
#
#
# Indices 1 2 3 4 5 6 
#
# 1 151.2550 63.4824 74.9050 0.0000 0.0000 0.0000
# 2 63.4824 192.1402 58.2187 0.0000 0.0000 0.0000
# 3 74.9050 58.2187 169.3888 0.0000 0.0000 0.0000
# 4 0.0000 0.0000 0.0000 17.5709 0.0000 0.0000
# 5 0.0000 0.0000 0.0000 0.0000 37.6055 0.0000
# 6 0.0000 0.0000 0.0000 0.0000 0.0000 33.8993
#
#
#
# Elastic Compliance Matrix: (Units=1/GPa)
#
#
# Indices 1 2 3 4 5 6 
#
# 1 0.009103 -0.001996 -0.003339 0.000000 0.000000 0.000000
# 2 -0.001996 0.006247 -0.001265 0.000000 0.000000 0.000000
# 3 -0.003339 -0.001265 0.007815 0.000000 0.000000 0.000000
# 4 0.000000 0.000000 0.000000 0.056912 0.000000 0.000000
# 5 0.000000 0.000000 0.000000 0.000000 0.026592 0.000000
# 6 0.000000 0.000000 0.000000 0.000000 0.000000 0.029499
#
#
# Mechanical properties :
#
#
# Convention : Reuss Voigt Hill
#
# Bulk Modulus (GPa) = 100.34737 100.66625 100.50681
# Shear Modulus (GPa) = 32.74630 38.89365 35.81998
#
# Velocity S-wave (km/s) = 3.90015 4.25049 4.07909
# Velocity P-wave (km/s) = 8.17890 8.41724 8.29893
#
# Compressibility (1/GPa) = 0.00996538
#
# Stress axis : x y z
#
# Youngs Moduli (GPa) = 109.85796 160.07500 127.96043
#
# Poissons Ratio (x) = 0.31945 0.42731
# Poissons Ratio (y) = 0.21924 0.16182
# Poissons Ratio (z) = 0.36686 0.20243
#
# Static dielectric constant tensor:
#      x y z
#    x 4.048680 0.000000 0.000000 
#    y 0.000000 4.011090 0.000000 
#    z 0.000000 0.000000 4.169810 
# 
# 
# High freq. dielectric constant tensor:
#      x y z
#    x 1.860730 0.000000 0.000000 
#    y 0.000000 1.855030 0.000000 
#    z 0.000000 0.000000 1.848320 
# 
# From -- ./inp_files/3913.got.cif
#   From: 2010.03.12/outbox.cif.g09.slc.cpg/sg68_2_cif.got.tgz:3913.got - 2010.04.10 23:14:56.
