data_PCOD8283635
_publ_section_title
;
Structure prediction by ZEFSAII (Michael W. Deem and Ramdas Pophale) SiO2 
 PCOD8283635
Probable space group: C C C A
;
_chemical_formula_sum "Si O2"
_cell_formula_units_Z 56
_cell_length_a 24.974698
_cell_length_b 9.331015
_cell_length_c 11.284401
_cell_angle_alpha 90.000000
_cell_angle_beta 90.000000
_cell_angle_gamma 90.000000
_cell_volume 2629.708703
_symmetry_space_group_name_H-M "C C C A"
_symmetry_group_IT_number 68
_space_group.IT_coordinate_system_code '2'
_symmetry_cell_setting 'orthorhombic'
loop_
_space_group_symop_operation_xyz
x,y,z
-x,1/2-y,z
x,1/2-y,1/2-z
-x,y,1/2-z
-x,-y,-z
x,1/2+y,-z
-x,1/2+y,1/2+z
x,-y,1/2+z
1/2+x,1/2+y,z
1/2-x,-y,z
1/2+x,-y,1/2-z
1/2-x,1/2+y,1/2-z
1/2-x,1/2-y,-z
1/2+x,y,-z
1/2-x,y,1/2+z
1/2+x,1/2-y,1/2+z
loop_
_atom_site_type_symbol
_atom_site_label
_atom_site_fract_x
_atom_site_fract_y
_atom_site_fract_z
Si Si1 0.937854 0.242514 0.611461
Si Si2 0.616405 0.538100 0.439942
Si Si3 0.642403 0.250000 0.750000
Si Si4 0.286915 0.379389 0.953197
O O1 0.925307 0.250000 0.750000
O O2 0.899318 0.359548 0.549715
O O3 0.000000 0.250000 0.580861
O O4 0.925963 0.087304 0.559963
O O5 0.608915 0.626069 0.316360
O O6 0.675647 0.464052 0.450651
O O7 0.676969 0.180206 0.851206
O O8 0.250000 0.500000 0.895124
O O9 0.250000 0.250000 0.000000
#
# Coordination Sequence:
#
# PCOD8283635 Si02
#       4
#    16  16   8  16
#     4  11  25  46  73 100 137 180 229 285 348 407
#     4  12  24  48  69 105 139 177 232 286 341 412
#     4  12  26  42  73  98 140 182 227 278 348 392
#     4  12  25  44  65  99 137 183 228 276 334 402
#
# _framework density 21.295134999999998
#
# number of rings (size 3 to 8) (size 9 to 14) (size 15 to 20)
#    0.000    0.286    5.714    2.571    4.000    0.000 
#    2.571    0.000    0.000    0.000    0.000    0.000 
#    0.000    0.000    0.000    0.000    0.000    0.000 
#
# Total GULP energy -346977.503493 kJ/mol
# GULP energy per Si atom -12392.053696 kJ/mol
# Density = 2.124667 g / cm^3
# Si number density = 21.295135 Si / 1000 Ang^3
#
#
#
# Elastic Constant Matrix: (Units=GPa)
#
#
# Indices 1 2 3 4 5 6 
#
# 1 100.8146 62.5634 32.4501 0.0000 0.0000 0.0000
# 2 62.5634 178.4858 55.3026 0.0000 0.0000 0.0000
# 3 32.4501 55.3026 101.5754 0.0000 0.0000 0.0000
# 4 0.0000 0.0000 0.0000 48.6184 0.0000 0.0000
# 5 0.0000 0.0000 0.0000 0.0000 69.0348 0.0000
# 6 0.0000 0.0000 0.0000 0.0000 0.0000 50.3931
#
#
#
# Elastic Compliance Matrix: (Units=1/GPa)
#
#
# Indices 1 2 3 4 5 6 
#
# 1 0.013010 -0.003937 -0.002013 0.000000 0.000000 0.000000
# 2 -0.003937 0.007931 -0.003060 0.000000 0.000000 0.000000
# 3 -0.002013 -0.003060 0.012154 0.000000 0.000000 0.000000
# 4 0.000000 0.000000 0.000000 0.020568 0.000000 0.000000
# 5 0.000000 0.000000 0.000000 0.000000 0.014485 0.000000
# 6 0.000000 0.000000 0.000000 0.000000 0.000000 0.019844
#
#
# Mechanical properties :
#
#
# Convention : Reuss Voigt Hill
#
# Bulk Modulus (GPa) = 66.33406 75.72311 71.02858
# Shear Modulus (GPa) = 45.02971 48.97991 47.00481
#
# Velocity S-wave (km/s) = 4.60342 4.80109 4.70329
# Velocity P-wave (km/s) = 7.71186 8.14678 7.93230
#
# Compressibility (1/GPa) = 0.01507521
#
# Stress axis : x y z
#
# Youngs Moduli (GPa) = 76.86307 126.09111 82.27631
#
# Poissons Ratio (x) = 0.49637 0.16562
# Poissons Ratio (y) = 0.30258 0.25179
# Poissons Ratio (z) = 0.15473 0.38587
#
# Static dielectric constant tensor:
#      x y z
#    x 3.904600 0.000000 0.000000 
#    y 0.000000 3.972490 0.000000 
#    z 0.000000 0.000000 4.238470 
# 
# 
# High freq. dielectric constant tensor:
#      x y z
#    x 1.835880 0.000000 0.000000 
#    y 0.000000 1.872300 0.000000 
#    z 0.000000 0.000000 1.827370 
# 
# From -- ./inp_files/10552.got.cif
#   From: 2010.03.12/outbox.cif.g09.slc.cpg/sg68_6_cif.got.tgz:10552.got - 2010.04.10 23:14:56.
