data_PCOD8283344
_publ_section_title
;
Structure prediction by ZEFSAII (Michael W. Deem and Ramdas Pophale) SiO2 
 PCOD8283344
Probable space group: C C C A
;
_chemical_formula_sum "Si O2"
_cell_formula_units_Z 96
_cell_length_a 13.288494
_cell_length_b 15.329175
_cell_length_c 20.747776
_cell_angle_alpha 90.000000
_cell_angle_beta 90.000000
_cell_angle_gamma 90.000000
_cell_volume 4226.356205
_symmetry_space_group_name_H-M "C C C A"
_symmetry_group_IT_number 68
_space_group.IT_coordinate_system_code '2'
_symmetry_cell_setting 'orthorhombic'
loop_
_space_group_symop_operation_xyz
x,y,z
-x,1/2-y,z
x,1/2-y,1/2-z
-x,y,1/2-z
-x,-y,-z
x,1/2+y,-z
-x,1/2+y,1/2+z
x,-y,1/2+z
1/2+x,1/2+y,z
1/2-x,-y,z
1/2+x,-y,1/2-z
1/2-x,1/2+y,1/2-z
1/2-x,1/2-y,-z
1/2+x,y,-z
1/2-x,y,1/2+z
1/2+x,1/2-y,1/2+z
loop_
_atom_site_type_symbol
_atom_site_label
_atom_site_fract_x
_atom_site_fract_y
_atom_site_fract_z
Si Si1 0.656752 0.390785 0.603770
Si Si2 0.759508 0.593897 0.970548
Si Si3 0.182161 0.300714 0.813381
Si Si4 0.549373 0.536481 0.686636
Si Si5 0.419352 0.159149 0.393144
Si Si6 0.982465 0.895257 0.514076
O O1 0.731690 0.416293 0.545926
O O2 0.715314 0.319685 0.646876
O O3 0.620997 0.472282 0.646752
O O4 0.554965 0.356917 0.569592
O O5 0.750000 0.500000 0.937995
O O6 0.688465 0.653982 0.928232
O O7 0.871840 0.628113 0.962562
O O8 0.218066 0.250000 0.750000
O O9 0.125512 0.387644 0.791520
O O10 0.094584 0.247316 0.851783
O O11 0.500000 0.491449 0.750000
O O12 0.452977 0.574890 0.648258
O O13 0.502489 0.162339 0.449754
O O14 0.000000 0.000000 0.500000
#
# Coordination Sequence:
#
# PCOD8283344 Si02
#       6
#    16  16  16  16  16  16
#     4  11  24  44  71 101 134 180 234 286 357 414
#     4  11  19  39  68 102 137 173 225 294 342 417
#     4  12  26  45  64  99 145 179 228 296 347 416
#     4  12  23  43  71 102 128 184 243 287 339 420
#     4  11  23  40  67 100 136 175 221 289 351 399
#     4  11  20  39  70 101 135 173 228 291 340 418
#
# _framework density 22.714601999999999
#
# number of rings (size 3 to 8) (size 9 to 14) (size 15 to 20)
#    0.000    0.667    6.667    3.000    0.000    2.667 
#    6.000    2.500    0.000    0.000    0.000    0.000 
#    0.000    0.000    0.000    0.000    0.000    0.000 
#
# Total GULP energy -594759.359392 kJ/mol
# GULP energy per Si atom -12390.819987 kJ/mol
# Density = 2.266290 g / cm^3
# Si number density = 22.714602 Si / 1000 Ang^3
#
#
#
# Elastic Constant Matrix: (Units=GPa)
#
#
# Indices 1 2 3 4 5 6 
#
# 1 158.6826 13.9657 41.8760 0.0000 0.0000 0.0000
# 2 13.9657 63.0738 33.2657 0.0000 0.0000 0.0000
# 3 41.8760 33.2657 108.1944 0.0000 0.0000 0.0000
# 4 0.0000 0.0000 0.0000 24.2343 0.0000 0.0000
# 5 0.0000 0.0000 0.0000 0.0000 18.4819 0.0000
# 6 0.0000 0.0000 0.0000 0.0000 0.0000 37.4258
#
#
#
# Elastic Compliance Matrix: (Units=1/GPa)
#
#
# Indices 1 2 3 4 5 6 
#
# 1 0.007020 -0.000145 -0.002672 0.000000 0.000000 0.000000
# 2 -0.000145 0.018926 -0.005763 0.000000 0.000000 0.000000
# 3 -0.002672 -0.005763 0.012049 0.000000 0.000000 0.000000
# 4 0.000000 0.000000 0.000000 0.041264 0.000000 0.000000
# 5 0.000000 0.000000 0.000000 0.000000 0.054107 0.000000
# 6 0.000000 0.000000 0.000000 0.000000 0.000000 0.026720
#
#
# Mechanical properties :
#
#
# Convention : Reuss Voigt Hill
#
# Bulk Modulus (GPa) = 47.99805 56.46283 52.23044
# Shear Modulus (GPa) = 27.14585 32.08464 29.61525
#
# Velocity S-wave (km/s) = 3.46075 3.76242 3.61473
# Velocity P-wave (km/s) = 6.09474 6.61709 6.36128
#
# Compressibility (1/GPa) = 0.02083418
#
# Stress axis : x y z
#
# Youngs Moduli (GPa) = 142.45232 52.83754 82.99534
#
# Poissons Ratio (x) = 0.00765 0.22180
# Poissons Ratio (y) = 0.02063 0.47830
# Poissons Ratio (z) = 0.38070 0.30450
#
# Static dielectric constant tensor:
#      x y z
#    x 4.219510 0.000000 0.000000 
#    y 0.000000 3.775800 0.000000 
#    z 0.000000 0.000000 4.166800 
# 
# 
# High freq. dielectric constant tensor:
#      x y z
#    x 1.910830 0.000000 0.000000 
#    y 0.000000 1.871720 0.000000 
#    z 0.000000 0.000000 1.895390 
# 
# From -- ./inp_files/38561.got.cif
#   From: 2010.03.12/outbox.cif.g09.slc.cpg/sg68_20_cif.got.tgz:38561.got - 2010.04.10 23:14:56.
