data_PCOD8283908
_publ_section_title
;
Structure prediction by ZEFSAII (Michael W. Deem and Ramdas Pophale) SiO2 
 PCOD8283908
Probable space group: F M M M
;
_chemical_formula_sum "Si O2"
_cell_formula_units_Z 120
_cell_length_a 27.285552
_cell_length_b 14.393149
_cell_length_c 15.932836
_cell_angle_alpha 90.000000
_cell_angle_beta 90.000000
_cell_angle_gamma 90.000000
_cell_volume 6257.223265
_symmetry_space_group_name_H-M "F M M M"
_symmetry_group_IT_number 69
_symmetry_cell_setting 'orthorhombic'
loop_
_space_group_symop_operation_xyz
x,y,z
-x,-y,z
x,-y,-z
-x,y,-z
-x,-y,-z
x,y,-z
-x,y,z
x,-y,z
x,1/2+y,1/2+z
-x,1/2-y,1/2+z
x,1/2-y,1/2-z
-x,1/2+y,1/2-z
-x,1/2-y,1/2-z
x,1/2+y,1/2-z
-x,1/2+y,1/2+z
x,1/2-y,1/2+z
1/2+x,y,1/2+z
1/2-x,-y,1/2+z
1/2+x,-y,1/2-z
1/2-x,y,1/2-z
1/2-x,-y,1/2-z
1/2+x,y,1/2-z
1/2-x,y,1/2+z
1/2+x,-y,1/2+z
1/2+x,1/2+y,z
1/2-x,1/2-y,z
1/2+x,1/2-y,-z
1/2-x,1/2+y,-z
1/2-x,1/2-y,-z
1/2+x,1/2+y,-z
1/2-x,1/2+y,z
1/2+x,1/2-y,z
loop_
_atom_site_type_symbol
_atom_site_label
_atom_site_fract_x
_atom_site_fract_y
_atom_site_fract_z
Si Si1 0.613794 0.297341 0.669979
Si Si2 0.917908 0.000000 0.500000
Si Si3 0.854484 0.000000 0.659268
Si Si4 0.700874 0.307761 0.093808
Si Si5 0.245812 0.000000 0.900709
Si Si6 0.945933 0.803329 0.500000
O O1 0.586757 0.250000 0.750000
O O2 0.624932 0.403736 0.698664
O O3 0.664463 0.242321 0.657337
O O4 0.582296 0.279285 0.585944
O O5 0.877304 0.000000 0.569457
O O6 0.954057 0.913495 0.500000
O O7 0.795624 0.000000 0.653303
O O8 0.750000 0.250000 0.091600
O O9 0.712962 0.411750 0.124963
O O10 0.677935 0.310370 0.000000
O O11 0.258564 0.000000 0.000000
O O12 0.000000 0.756288 0.500000
#
# Coordination Sequence:
#
# PCOD8283908 Si02
#       6
#    32   8  16  32  16  16
#     4  11  23  38  59  87 120 156 193 243 293 350
#     4   8  17  30  62  90 112 134 178 248 307 360
#     4  10  18  34  54  85 119 154 192 236 296 335
#     4  10  19  32  53  81 119 159 198 227 272 342
#     4  10  18  29  54  83 117 167 200 235 277 334
#     4  10  21  40  64  88 113 145 191 248 306 357
#
# _framework density 19.177837
#
# number of rings (size 3 to 8) (size 9 to 14) (size 15 to 20)
#    0.000    1.867    4.667    0.200    0.000    2.133 
#    0.000    1.333    0.000    0.000    0.000    6.533 
#    0.000    0.000    0.000    0.000    0.000    0.000 
#
# Total GULP energy -371654.097734 kJ/mol
# GULP energy per Si atom -12388.469924 kJ/mol
# Density = 1.913419 g / cm^3
# Si number density = 19.177837 Si / 1000 Ang^3
#
#
#
# Elastic Constant Matrix: (Units=GPa)
#
#
# Indices 1 2 3 4 5 6 
#
# 1 76.7982 31.8939 33.3664 0.0000 0.0000 0.0000
# 2 31.8939 145.1999 45.5250 0.0000 0.0000 0.0000
# 3 33.3664 45.5250 103.4391 0.0000 0.0000 0.0000
# 4 0.0000 0.0000 0.0000 30.4901 0.0000 0.0000
# 5 0.0000 0.0000 0.0000 0.0000 9.3440 0.0000
# 6 0.0000 0.0000 0.0000 0.0000 0.0000 8.8011
#
#
#
# Elastic Compliance Matrix: (Units=1/GPa)
#
#
# Indices 1 2 3 4 5 6 
#
# 1 0.015706 -0.002159 -0.004116 0.000000 0.000000 0.000000
# 2 -0.002159 0.008286 -0.002950 0.000000 0.000000 0.000000
# 3 -0.004116 -0.002950 0.012294 0.000000 0.000000 0.000000
# 4 0.000000 0.000000 0.000000 0.032798 0.000000 0.000000
# 5 0.000000 0.000000 0.000000 0.000000 0.107020 0.000000
# 6 0.000000 0.000000 0.000000 0.000000 0.000000 0.113622
#
#
# Mechanical properties :
#
#
# Convention : Reuss Voigt Hill
#
# Bulk Modulus (GPa) = 56.07032 60.77863 58.42447
# Shear Modulus (GPa) = 15.91735 24.03719 19.97727
#
# Velocity S-wave (km/s) = 2.88407 3.54416 3.23102
# Velocity P-wave (km/s) = 6.35539 6.96484 6.66708
#
# Compressibility (1/GPa) = 0.01783475
#
# Stress axis : x y z
#
# Youngs Moduli (GPa) = 63.66918 120.67909 81.34243
#
# Poissons Ratio (x) = 0.26060 0.33480
# Poissons Ratio (y) = 0.13749 0.23999
# Poissons Ratio (z) = 0.26206 0.35605
#
# Static dielectric constant tensor:
#      x y z
#    x 3.141980 0.000000 0.000000 
#    y 0.000000 4.247480 0.000000 
#    z 0.000000 0.000000 3.503270 
# 
# 
# High freq. dielectric constant tensor:
#      x y z
#    x 1.714340 0.000000 0.000000 
#    y 0.000000 1.752430 0.000000 
#    z 0.000000 0.000000 1.737900 
# 
# From -- ./inp_files/14474.got.cif
#   From: 2010.03.12/outbox.cif.g09.slc.cpg/sg69_8_cif.got.tgz:14474.got - 2010.04.10 23:52:46.
