data_PCOD8283025
_publ_section_title
;
Structure prediction by ZEFSAII (Michael W. Deem and Ramdas Pophale) SiO2 
 PCOD8283025
Probable space group: C C C A
;
_chemical_formula_sum "Si O2"
_cell_formula_units_Z 64
_cell_length_a 12.804732
_cell_length_b 16.577059
_cell_length_c 13.254622
_cell_angle_alpha 90.000000
_cell_angle_beta 90.000000
_cell_angle_gamma 90.000000
_cell_volume 2813.489659
_symmetry_space_group_name_H-M "C C C A"
_symmetry_group_IT_number 68
_space_group.IT_coordinate_system_code '2'
_symmetry_cell_setting 'orthorhombic'
loop_
_space_group_symop_operation_xyz
x,y,z
-x,1/2-y,z
x,1/2-y,1/2-z
-x,y,1/2-z
-x,-y,-z
x,1/2+y,-z
-x,1/2+y,1/2+z
x,-y,1/2+z
1/2+x,1/2+y,z
1/2-x,-y,z
1/2+x,-y,1/2-z
1/2-x,1/2+y,1/2-z
1/2-x,1/2-y,-z
1/2+x,y,-z
1/2-x,y,1/2+z
1/2+x,1/2-y,1/2+z
loop_
_atom_site_type_symbol
_atom_site_label
_atom_site_fract_x
_atom_site_fract_y
_atom_site_fract_z
Si Si1 0.213137 0.168746 0.124142
Si Si2 0.066554 0.081647 0.990373
Si Si3 0.375721 0.680438 0.040342
Si Si4 0.768006 0.411975 0.824932
O O1 0.131303 0.243559 0.117393
O O2 0.256091 0.152887 0.235910
O O3 0.156552 0.088873 0.076777
O O4 0.313581 0.198771 0.062238
O O5 0.119030 0.092066 0.880013
O O6 0.993073 0.159250 0.008529
O O7 0.000000 0.000000 0.000000
O O8 0.323635 0.602671 0.093947
O O9 0.750000 0.500000 0.778298
#
# Coordination Sequence:
#
# PCOD8283025 Si02
#       4
#    16  16  16  16
#     4  10  24  41  69  96 139 183 233 291 358 422
#     4  11  23  42  68  98 141 184 234 290 358 425
#     4  10  22  45  65  97 138 184 230 294 355 422
#     4  11  23  40  67 102 139 182 232 293 357 426
#
# _framework density 22.747551000000001
#
# number of rings (size 3 to 8) (size 9 to 14) (size 15 to 20)
#    0.000    1.500    2.500    1.500    3.500    2.000 
#    0.000    2.500    0.000    9.000    0.000    0.000 
#    0.000    0.000    0.000    0.000    0.000    0.000 
#
# Total GULP energy -396615.078517 kJ/mol
# GULP energy per Si atom -12394.221204 kJ/mol
# Density = 2.269578 g / cm^3
# Si number density = 22.747551 Si / 1000 Ang^3
#
#
#
# Elastic Constant Matrix: (Units=GPa)
#
#
# Indices 1 2 3 4 5 6 
#
# 1 119.2530 45.2172 69.2195 0.0000 0.0000 0.0000
# 2 45.2172 107.8076 49.7762 0.0000 0.0000 0.0000
# 3 69.2195 49.7762 136.5330 0.0000 0.0000 0.0000
# 4 0.0000 0.0000 0.0000 35.5704 0.0000 0.0000
# 5 0.0000 0.0000 0.0000 0.0000 32.3578 0.0000
# 6 0.0000 0.0000 0.0000 0.0000 0.0000 41.2038
#
#
#
# Elastic Compliance Matrix: (Units=1/GPa)
#
#
# Indices 1 2 3 4 5 6 
#
# 1 0.012546 -0.002796 -0.005341 0.000000 0.000000 0.000000
# 2 -0.002796 0.011776 -0.002876 0.000000 0.000000 0.000000
# 3 -0.005341 -0.002876 0.011081 0.000000 0.000000 0.000000
# 4 0.000000 0.000000 0.000000 0.028113 0.000000 0.000000
# 5 0.000000 0.000000 0.000000 0.000000 0.030904 0.000000
# 6 0.000000 0.000000 0.000000 0.000000 0.000000 0.024270
#
#
# Mechanical properties :
#
#
# Convention : Reuss Voigt Hill
#
# Bulk Modulus (GPa) = 74.75624 76.89104 75.82364
# Shear Modulus (GPa) = 34.44118 35.11844 34.77981
#
# Velocity S-wave (km/s) = 3.89532 3.93343 3.91442
# Velocity P-wave (km/s) = 7.29151 7.38271 7.33725
#
# Compressibility (1/GPa) = 0.01337681
#
# Stress axis : x y z
#
# Youngs Moduli (GPa) = 79.70697 84.91646 90.24814
#
# Poissons Ratio (x) = 0.23743 0.48203
# Poissons Ratio (y) = 0.22286 0.25954
# Poissons Ratio (z) = 0.42573 0.24420
#
# Static dielectric constant tensor:
#      x y z
#    x 4.099500 0.000000 0.000000 
#    y 0.000000 4.082730 0.000000 
#    z 0.000000 0.000000 3.817400 
# 
# 
# High freq. dielectric constant tensor:
#      x y z
#    x 1.895190 0.000000 0.000000 
#    y 0.000000 1.909570 0.000000 
#    z 0.000000 0.000000 1.878760 
# 
# From -- ./inp_files/12800.got.cif
#   From: 2010.03.12/outbox.cif.g09.slc.cpg/sg68_7_cif.got.tgz:12800.got - 2010.04.10 23:14:56.
