data_PCOD8283812
_publ_section_title
;
Structure prediction by ZEFSAII (Michael W. Deem and Ramdas Pophale) SiO2 
 PCOD8283812
Probable space group: F M M M
;
_chemical_formula_sum "Si O2"
_cell_formula_units_Z 112
_cell_length_a 8.636499
_cell_length_b 36.917209
_cell_length_c 18.636015
_cell_angle_alpha 90.000000
_cell_angle_beta 90.000000
_cell_angle_gamma 90.000000
_cell_volume 5941.822016
_symmetry_space_group_name_H-M "F M M M"
_symmetry_group_IT_number 69
_symmetry_cell_setting 'orthorhombic'
loop_
_space_group_symop_operation_xyz
x,y,z
-x,-y,z
x,-y,-z
-x,y,-z
-x,-y,-z
x,y,-z
-x,y,z
x,-y,z
x,1/2+y,1/2+z
-x,1/2-y,1/2+z
x,1/2-y,1/2-z
-x,1/2+y,1/2-z
-x,1/2-y,1/2-z
x,1/2+y,1/2-z
-x,1/2+y,1/2+z
x,1/2-y,1/2+z
1/2+x,y,1/2+z
1/2-x,-y,1/2+z
1/2+x,-y,1/2-z
1/2-x,y,1/2-z
1/2-x,-y,1/2-z
1/2+x,y,1/2-z
1/2-x,y,1/2+z
1/2+x,-y,1/2+z
1/2+x,1/2+y,z
1/2-x,1/2-y,z
1/2+x,1/2-y,-z
1/2-x,1/2+y,-z
1/2-x,1/2-y,-z
1/2+x,1/2+y,-z
1/2-x,1/2+y,z
1/2+x,1/2-y,z
loop_
_atom_site_type_symbol
_atom_site_label
_atom_site_fract_x
_atom_site_fract_y
_atom_site_fract_z
Si Si1 0.183183 0.713908 0.329860
Si Si2 0.677106 0.078214 0.585516
Si Si3 0.680605 0.859034 0.172035
Si Si4 0.682862 0.000000 0.578183
O O1 0.250000 0.713165 0.250000
O O2 0.250000 0.750000 0.369406
O O3 0.241612 0.676473 0.365508
O O4 0.000000 0.715673 0.329968
O O5 0.695936 0.078958 0.500000
O O6 0.500000 0.087048 0.607180
O O7 0.790657 0.107122 0.620555
O O8 0.727494 0.038166 0.616340
O O9 0.500000 0.851755 0.180472
O O10 0.750000 0.867363 0.250000
O O11 0.500000 0.000000 0.567370
O O12 0.762504 0.000000 0.500000
#
# Coordination Sequence:
#
# PCOD8283812 Si02
#       4
#    32  32  32  16
#     4  10  17  28  46  69  96 126 162 201 243 288
#     4   9  17  32  54  77 100 128 163 202 246 296
#     4  11  21  33  49  72 102 133 167 205 247 291
#     4   7  12  26  50  75  96 123 161 201 240 289
#
# _framework density 18.849437999999999
#
# number of rings (size 3 to 8) (size 9 to 14) (size 15 to 20)
#    0.000    2.429    0.000    9.429    0.000    0.571 
#    0.000    1.429    0.000    3.429    0.000    0.000 
#    0.000    0.000    0.000    0.000    0.000    0.000 
#
# Total GULP energy -346898.507375 kJ/mol
# GULP energy per Si atom -12389.232406 kJ/mol
# Density = 1.880654 g / cm^3
# Si number density = 18.849438 Si / 1000 Ang^3
#
#
#
# Elastic Constant Matrix: (Units=GPa)
#
#
# Indices 1 2 3 4 5 6 
#
# 1 139.0494 58.5888 17.4679 0.0000 0.0000 0.0000
# 2 58.5888 191.2926 31.5435 0.0000 0.0000 0.0000
# 3 17.4679 31.5435 24.9127 0.0000 0.0000 0.0000
# 4 0.0000 0.0000 0.0000 85.3301 0.0000 0.0000
# 5 0.0000 0.0000 0.0000 0.0000 17.4512 0.0000
# 6 0.0000 0.0000 0.0000 0.0000 0.0000 26.5785
#
#
#
# Elastic Compliance Matrix: (Units=1/GPa)
#
#
# Indices 1 2 3 4 5 6 
#
# 1 0.008474 -0.002042 -0.003356 0.000000 0.000000 0.000000
# 2 -0.002042 0.007099 -0.007557 0.000000 0.000000 0.000000
# 3 -0.003356 -0.007557 0.052062 0.000000 0.000000 0.000000
# 4 0.000000 0.000000 0.000000 0.011719 0.000000 0.000000
# 5 0.000000 0.000000 0.000000 0.000000 0.057303 0.000000
# 6 0.000000 0.000000 0.000000 0.000000 0.000000 0.037624
#
#
# Mechanical properties :
#
#
# Convention : Reuss Voigt Hill
#
# Bulk Modulus (GPa) = 23.96666 63.38390 43.67528
# Shear Modulus (GPa) = 23.35374 42.38225 32.86799
#
# Velocity S-wave (km/s) = 3.52371 4.74694 4.18031
# Velocity P-wave (km/s) = 5.41274 7.98398 6.82062
#
# Compressibility (1/GPa) = 0.04172463
#
# Stress axis : x y z
#
# Youngs Moduli (GPa) = 118.01298 140.86308 19.20802
#
# Poissons Ratio (x) = 0.28763 0.06446
# Poissons Ratio (y) = 0.24097 0.14515
# Poissons Ratio (z) = 0.39606 1.06449
#
# Static dielectric constant tensor:
#      x y z
#    x 3.326830 0.000000 0.000000 
#    y 0.000000 4.642850 0.000000 
#    z 0.000000 0.000000 2.792480 
# 
# 
# High freq. dielectric constant tensor:
#      x y z
#    x 1.726980 0.000000 0.000000 
#    y 0.000000 1.769140 0.000000 
#    z 0.000000 0.000000 1.659290 
# 
# From -- ./inp_files/34590.got.cif
#   From: 2010.03.12/outbox.cif.g09.slc.cpg/sg69_18_cif.got.tgz:34590.got - 2010.04.10 23:52:46.
