data_PCOD8283484
_publ_section_title
;
Structure prediction by ZEFSAII (Michael W. Deem and Ramdas Pophale) SiO2 
 PCOD8283484
Probable space group: C C C A
;
_chemical_formula_sum "Si O2"
_cell_formula_units_Z 80
_cell_length_a 26.069217
_cell_length_b 15.505059
_cell_length_c 9.311442
_cell_angle_alpha 90.000000
_cell_angle_beta 90.000000
_cell_angle_gamma 90.000000
_cell_volume 3763.729064
_symmetry_space_group_name_H-M "C C C A"
_symmetry_group_IT_number 68
_space_group.IT_coordinate_system_code '2'
_symmetry_cell_setting 'orthorhombic'
loop_
_space_group_symop_operation_xyz
x,y,z
-x,1/2-y,z
x,1/2-y,1/2-z
-x,y,1/2-z
-x,-y,-z
x,1/2+y,-z
-x,1/2+y,1/2+z
x,-y,1/2+z
1/2+x,1/2+y,z
1/2-x,-y,z
1/2+x,-y,1/2-z
1/2-x,1/2+y,1/2-z
1/2-x,1/2-y,-z
1/2+x,y,-z
1/2-x,y,1/2+z
1/2+x,1/2-y,1/2+z
loop_
_atom_site_type_symbol
_atom_site_label
_atom_site_fract_x
_atom_site_fract_y
_atom_site_fract_z
Si Si1 0.637648 0.410554 0.033360
Si Si2 0.397558 0.152782 0.727795
Si Si3 0.963247 0.005128 0.867093
Si Si4 0.809458 0.907800 0.956456
Si Si5 0.718877 0.345864 0.229837
O O1 0.583031 0.429696 0.105340
O O2 0.672628 0.494528 0.037201
O O3 0.667379 0.341080 0.131678
O O4 0.630817 0.379090 0.871538
O O5 0.418692 0.250000 0.750000
O O6 0.444111 0.089288 0.685728
O O7 0.355922 0.152525 0.599446
O O8 0.000000 0.048221 0.750000
O O9 0.000000 0.000000 0.000000
O O10 0.762098 0.902259 0.847658
O O11 0.792861 0.883650 0.115276
O O12 0.740536 0.250000 0.250000
#
# Coordination Sequence:
#
# PCOD8283484 Si02
#       5
#    16  16  16  16  16
#     4  11  24  42  65  94 128 172 221 267 327 398
#     4  11  23  42  68  96 132 170 222 276 337 389
#     4  11  23  44  68  93 127 170 223 276 330 397
#     4  11  23  40  64  94 132 176 215 262 321 400
#     4  12  24  40  64  96 136 167 214 267 329 387
#
# _framework density 21.255514000000002
#
# number of rings (size 3 to 8) (size 9 to 14) (size 15 to 20)
#    0.000    0.800    2.000    6.600    2.800    2.000 
#    0.000    0.000    0.000    0.000    0.000    0.000 
#    0.000    0.000    0.000    0.000    0.000    0.000 
#
# Total GULP energy -496047.861408 kJ/mol
# GULP energy per Si atom -12401.196535 kJ/mol
# Density = 2.120714 g / cm^3
# Si number density = 21.255514 Si / 1000 Ang^3
#
#
#
# Elastic Constant Matrix: (Units=GPa)
#
#
# Indices 1 2 3 4 5 6 
#
# 1 111.4390 29.6377 58.4284 0.0000 0.0000 0.0000
# 2 29.6377 60.5131 21.9045 0.0000 0.0000 0.0000
# 3 58.4284 21.9045 162.9365 0.0000 0.0000 0.0000
# 4 0.0000 0.0000 0.0000 25.3256 0.0000 0.0000
# 5 0.0000 0.0000 0.0000 0.0000 65.5783 0.0000
# 6 0.0000 0.0000 0.0000 0.0000 0.0000 26.4874
#
#
#
# Elastic Compliance Matrix: (Units=1/GPa)
#
#
# Indices 1 2 3 4 5 6 
#
# 1 0.012159 -0.004601 -0.003742 0.000000 0.000000 0.000000
# 2 -0.004601 0.019111 -0.000919 0.000000 0.000000 0.000000
# 3 -0.003742 -0.000919 0.007603 0.000000 0.000000 0.000000
# 4 0.000000 0.000000 0.000000 0.039486 0.000000 0.000000
# 5 0.000000 0.000000 0.000000 0.000000 0.015249 0.000000
# 6 0.000000 0.000000 0.000000 0.000000 0.000000 0.037754
#
#
# Mechanical properties :
#
#
# Convention : Reuss Voigt Hill
#
# Bulk Modulus (GPa) = 49.14137 61.64777 55.39457
# Shear Modulus (GPa) = 31.91456 38.47278 35.19367
#
# Velocity S-wave (km/s) = 3.87909 4.25904 4.07350
# Velocity P-wave (km/s) = 6.57515 7.29740 6.94567
#
# Compressibility (1/GPa) = 0.02034945
#
# Stress axis : x y z
#
# Youngs Moduli (GPa) = 82.24457 52.32454 131.53221
#
# Poissons Ratio (x) = 0.24073 0.49214
# Poissons Ratio (y) = 0.37838 0.12094
# Poissons Ratio (z) = 0.30773 0.04811
#
# Static dielectric constant tensor:
#      x y z
#    x 5.381970 0.000000 0.000000 
#    y 0.000000 4.371730 0.000000 
#    z 0.000000 0.000000 4.088870 
# 
# 
# High freq. dielectric constant tensor:
#      x y z
#    x 1.845210 0.000000 0.000000 
#    y 0.000000 1.820240 0.000000 
#    z 0.000000 0.000000 1.855740 
# 
# From -- ./inp_files/8758.got.cif
#   From: 2010.03.12/outbox.cif.g09.slc.cpg/sg68_5_cif.got.tgz:8758.got - 2010.04.10 23:14:56.
