data_PCOD8283880
_publ_section_title
;
Structure prediction by ZEFSAII (Michael W. Deem and Ramdas Pophale) SiO2 
 PCOD8283880
Probable space group: F M M M
;
_chemical_formula_sum "Si O2"
_cell_formula_units_Z 120
_cell_length_a 26.607792
_cell_length_b 14.137523
_cell_length_c 17.305825
_cell_angle_alpha 90.000000
_cell_angle_beta 90.000000
_cell_angle_gamma 90.000000
_cell_volume 6509.902275
_symmetry_space_group_name_H-M "F M M M"
_symmetry_group_IT_number 69
_symmetry_cell_setting 'orthorhombic'
loop_
_space_group_symop_operation_xyz
x,y,z
-x,-y,z
x,-y,-z
-x,y,-z
-x,-y,-z
x,y,-z
-x,y,z
x,-y,z
x,1/2+y,1/2+z
-x,1/2-y,1/2+z
x,1/2-y,1/2-z
-x,1/2+y,1/2-z
-x,1/2-y,1/2-z
x,1/2+y,1/2-z
-x,1/2+y,1/2+z
x,1/2-y,1/2+z
1/2+x,y,1/2+z
1/2-x,-y,1/2+z
1/2+x,-y,1/2-z
1/2-x,y,1/2-z
1/2-x,-y,1/2-z
1/2+x,y,1/2-z
1/2-x,y,1/2+z
1/2+x,-y,1/2+z
1/2+x,1/2+y,z
1/2-x,1/2-y,z
1/2+x,1/2-y,-z
1/2-x,1/2+y,-z
1/2-x,1/2-y,-z
1/2+x,1/2+y,-z
1/2-x,1/2+y,z
1/2+x,1/2-y,z
loop_
_atom_site_type_symbol
_atom_site_label
_atom_site_fract_x
_atom_site_fract_y
_atom_site_fract_z
Si Si1 0.000000 0.210171 0.838562
Si Si2 0.500000 0.500000 0.808294
Si Si3 0.702559 0.685588 0.410068
Si Si4 0.403235 0.500000 0.296312
Si Si5 0.294130 0.500000 0.309708
Si Si6 0.601216 0.709394 0.663083
O O1 0.000000 0.250000 0.750000
O O2 0.000000 0.097757 0.854186
O O3 0.051489 0.246883 0.877504
O O4 0.447989 0.500000 0.763201
O O5 0.699374 0.662085 0.500000
O O6 0.750000 0.750000 0.389943
O O7 0.709830 0.589998 0.363886
O O8 0.651288 0.738537 0.383481
O O9 0.346556 0.500000 0.260901
O O10 0.407271 0.596443 0.345007
O O11 0.250000 0.500000 0.250000
O O12 0.606747 0.750000 0.750000
#
# Coordination Sequence:
#
# PCOD8283880 Si02
#       6
#    16   8  32  16  16  32
#     4  10  18  28  49  80 109 140 173 231 275 327
#     4  12  16  28  46  74 122 134 168 216 300 310
#     4  10  23  39  56  78 114 151 183 229 286 336
#     4  10  18  29  47  79 105 139 165 221 280 317
#     4  10  23  35  58  86 109 142 190 233 276 328
#     4  10  19  32  53  80 108 137 186 227 274 331
#
# _framework density 18.433457000000001
#
# number of rings (size 3 to 8) (size 9 to 14) (size 15 to 20)
#    0.000    1.867    5.333    0.400    7.467    0.000 
#    0.000    0.667    0.000    0.000    0.000   10.267 
#    0.000    0.000    0.000    0.000    0.000    0.000 
#
# Total GULP energy -371642.019368 kJ/mol
# GULP energy per Si atom -12388.067312 kJ/mol
# Density = 1.839150 g / cm^3
# Si number density = 18.433457 Si / 1000 Ang^3
#
#
#
# Elastic Constant Matrix: (Units=GPa)
#
#
# Indices 1 2 3 4 5 6 
#
# 1 230.7032 77.3279 59.7509 0.0000 0.0000 0.0000
# 2 77.3279 132.8597 28.9583 0.0000 0.0000 0.0000
# 3 59.7509 28.9583 50.2207 0.0000 0.0000 0.0000
# 4 0.0000 0.0000 0.0000 44.9452 0.0000 0.0000
# 5 0.0000 0.0000 0.0000 0.0000 17.4459 0.0000
# 6 0.0000 0.0000 0.0000 0.0000 0.0000 32.2926
#
#
#
# Elastic Compliance Matrix: (Units=1/GPa)
#
#
# Indices 1 2 3 4 5 6 
#
# 1 0.006955 -0.002567 -0.006794 0.000000 0.000000 0.000000
# 2 -0.002567 0.009556 -0.002456 0.000000 0.000000 0.000000
# 3 -0.006794 -0.002456 0.029412 0.000000 0.000000 0.000000
# 4 0.000000 0.000000 0.000000 0.022249 0.000000 0.000000
# 5 0.000000 0.000000 0.000000 0.000000 0.057320 0.000000
# 6 0.000000 0.000000 0.000000 0.000000 0.000000 0.030967
#
#
# Mechanical properties :
#
#
# Convention : Reuss Voigt Hill
#
# Bulk Modulus (GPa) = 44.86731 82.87309 63.87020
# Shear Modulus (GPa) = 26.66336 35.45316 31.05826
#
# Velocity S-wave (km/s) = 3.80737 4.39031 4.10919
# Velocity P-wave (km/s) = 6.61219 8.41162 7.56559
#
# Compressibility (1/GPa) = 0.02228794
#
# Stress axis : x y z
#
# Youngs Moduli (GPa) = 143.78908 104.64513 33.99972
#
# Poissons Ratio (x) = 0.26861 0.23100
# Poissons Ratio (y) = 0.36909 0.08351
# Poissons Ratio (z) = 0.97694 0.25703
#
# Static dielectric constant tensor:
#      x y z
#    x 4.183220 0.000000 0.000000 
#    y 0.000000 3.917000 0.000000 
#    z 0.000000 0.000000 2.887730 
# 
# 
# High freq. dielectric constant tensor:
#      x y z
#    x 1.753340 0.000000 0.000000 
#    y 0.000000 1.729430 0.000000 
#    z 0.000000 0.000000 1.649290 
# 
# From -- ./inp_files/32462.got.cif
#   From: 2010.03.12/outbox.cif.g09.slc.cpg/sg69_17_cif.got.tgz:32462.got - 2010.04.10 23:52:46.
