data_PCOD8283998
_publ_section_title
;
Structure prediction by ZEFSAII (Michael W. Deem and Ramdas Pophale) SiO2 
 PCOD8283998
Probable space group: F M M M
;
_chemical_formula_sum "Si O2"
_cell_formula_units_Z 160
_cell_length_a 15.667544
_cell_length_b 19.661352
_cell_length_c 27.366320
_cell_angle_alpha 90.000000
_cell_angle_beta 90.000000
_cell_angle_gamma 90.000000
_cell_volume 8430.060714
_symmetry_space_group_name_H-M "F M M M"
_symmetry_group_IT_number 69
_symmetry_cell_setting 'orthorhombic'
loop_
_space_group_symop_operation_xyz
x,y,z
-x,-y,z
x,-y,-z
-x,y,-z
-x,-y,-z
x,y,-z
-x,y,z
x,-y,z
x,1/2+y,1/2+z
-x,1/2-y,1/2+z
x,1/2-y,1/2-z
-x,1/2+y,1/2-z
-x,1/2-y,1/2-z
x,1/2+y,1/2-z
-x,1/2+y,1/2+z
x,1/2-y,1/2+z
1/2+x,y,1/2+z
1/2-x,-y,1/2+z
1/2+x,-y,1/2-z
1/2-x,y,1/2-z
1/2-x,-y,1/2-z
1/2+x,y,1/2-z
1/2-x,y,1/2+z
1/2+x,-y,1/2+z
1/2+x,1/2+y,z
1/2-x,1/2-y,z
1/2+x,1/2-y,-z
1/2-x,1/2+y,-z
1/2-x,1/2-y,-z
1/2+x,1/2+y,-z
1/2-x,1/2+y,z
1/2+x,1/2-y,z
loop_
_atom_site_type_symbol
_atom_site_label
_atom_site_fract_x
_atom_site_fract_y
_atom_site_fract_z
Si Si1 0.653782 0.186787 0.619286
Si Si2 0.000000 0.846043 0.445299
Si Si3 0.838773 0.157285 0.382887
Si Si4 0.832642 0.421419 0.783620
Si Si5 0.000000 0.815714 0.054529
Si Si6 0.404430 0.315136 0.221714
O O1 0.743716 0.166656 0.593756
O O2 0.635173 0.266285 0.631056
O O3 0.583024 0.156951 0.582848
O O4 0.648154 0.158277 0.674430
O O5 0.912770 0.871914 0.418689
O O6 0.000000 0.876843 0.500000
O O7 0.000000 0.765215 0.448345
O O8 0.824801 0.106087 0.338420
O O9 0.857589 0.500000 0.785871
O O10 0.750000 0.408306 0.750000
O O11 0.908267 0.378771 0.758616
O O12 0.000000 0.846623 0.000000
O O13 0.500000 0.295711 0.205039
O O14 0.362797 0.250000 0.250000
#
# Coordination Sequence:
#
# PCOD8283998 Si02
#       6
#    32  16  32  32  16  32
#     4  10  18  31  53  81 105 143 183 219 272 335
#     4   9  20  36  54  78 108 140 185 238 284 331
#     4  10  20  33  54  76 108 145 184 226 273 326
#     4  11  23  36  51  78 116 151 183 225 279 329
#     4   9  18  32  50  80 115 133 165 231 291 335
#     4  11  21  32  54  80 112 147 184 226 268 328
#
# _framework density 18.979697999999999
#
# number of rings (size 3 to 8) (size 9 to 14) (size 15 to 20)
#    0.000    1.800    5.000    0.000    1.400    1.600 
#    0.000    4.000    0.000    1.200    0.000    0.000 
#    0.000    4.000    0.000    0.000    0.000    0.000 
#
# Total GULP energy -495583.685692 kJ/mol
# GULP energy per Si atom -12389.592142 kJ/mol
# Density = 1.893650 g / cm^3
# Si number density = 18.979698 Si / 1000 Ang^3
#
#
#
# Elastic Constant Matrix: (Units=GPa)
#
#
# Indices 1 2 3 4 5 6 
#
# 1 130.4046 23.5803 66.1871 0.0000 0.0000 0.0000
# 2 23.5803 70.8347 35.4619 0.0000 0.0000 0.0000
# 3 66.1871 35.4619 134.1714 0.0000 0.0000 0.0000
# 4 0.0000 0.0000 0.0000 12.8169 0.0000 0.0000
# 5 0.0000 0.0000 0.0000 0.0000 28.7058 0.0000
# 6 0.0000 0.0000 0.0000 0.0000 0.0000 8.6796
#
#
#
# Elastic Compliance Matrix: (Units=1/GPa)
#
#
# Indices 1 2 3 4 5 6 
#
# 1 0.010293 -0.001019 -0.004808 0.000000 0.000000 0.000000
# 2 -0.001019 0.016371 -0.003824 0.000000 0.000000 0.000000
# 3 -0.004808 -0.003824 0.010836 0.000000 0.000000 0.000000
# 4 0.000000 0.000000 0.000000 0.078022 0.000000 0.000000
# 5 0.000000 0.000000 0.000000 0.000000 0.034836 0.000000
# 6 0.000000 0.000000 0.000000 0.000000 0.000000 0.115213
#
#
# Mechanical properties :
#
#
# Convention : Reuss Voigt Hill
#
# Bulk Modulus (GPa) = 54.95487 65.09659 60.02573
# Shear Modulus (GPa) = 17.18568 24.05257 20.61912
#
# Velocity S-wave (km/s) = 3.01238 3.56375 3.29960
# Velocity P-wave (km/s) = 6.41223 7.16283 6.79790
#
# Compressibility (1/GPa) = 0.01819675
#
# Stress axis : x y z
#
# Youngs Moduli (GPa) = 97.15152 61.08300 92.28682
#
# Poissons Ratio (x) = 0.06227 0.44374
# Poissons Ratio (y) = 0.09903 0.35291
# Poissons Ratio (z) = 0.46713 0.23359
#
# Static dielectric constant tensor:
#      x y z
#    x 3.581120 0.000000 0.000000 
#    y 0.000000 3.002020 0.000000 
#    z 0.000000 0.000000 3.474370 
# 
# 
# High freq. dielectric constant tensor:
#      x y z
#    x 1.749150 0.000000 0.000000 
#    y 0.000000 1.681920 0.000000 
#    z 0.000000 0.000000 1.729040 
# 
# From -- ./inp_files/41956.got.cif
#   From: 2010.03.12/outbox.cif.g09.slc.cpg/sg69_21_cif.got.tgz:41956.got - 2010.04.10 23:52:46.
