data_PCOD8283749
_publ_section_title
;
Structure prediction by ZEFSAII (Michael W. Deem and Ramdas Pophale) SiO2 
 PCOD8283749
Probable space group: C C C A
;
_chemical_formula_sum "Si O2"
_cell_formula_units_Z 68
_cell_length_a 8.942488
_cell_length_b 19.240404
_cell_length_c 21.012296
_cell_angle_alpha 90.000000
_cell_angle_beta 90.000000
_cell_angle_gamma 90.000000
_cell_volume 3615.314333
_symmetry_space_group_name_H-M "C C C A"
_symmetry_group_IT_number 68
_space_group.IT_coordinate_system_code '2'
_symmetry_cell_setting 'orthorhombic'
loop_
_space_group_symop_operation_xyz
x,y,z
-x,1/2-y,z
x,1/2-y,1/2-z
-x,y,1/2-z
-x,-y,-z
x,1/2+y,-z
-x,1/2+y,1/2+z
x,-y,1/2+z
1/2+x,1/2+y,z
1/2-x,-y,z
1/2+x,-y,1/2-z
1/2-x,1/2+y,1/2-z
1/2-x,1/2-y,-z
1/2+x,y,-z
1/2-x,y,1/2+z
1/2+x,1/2-y,1/2+z
loop_
_atom_site_type_symbol
_atom_site_label
_atom_site_fract_x
_atom_site_fract_y
_atom_site_fract_z
Si Si1 0.682334 0.073369 0.678733
Si Si2 0.178707 0.170438 0.062106
Si Si3 0.144212 0.121323 0.190206
Si Si4 0.324142 0.671145 0.065200
Si Si5 0.000000 0.250000 0.250000
O O1 0.742064 0.093640 0.750068
O O2 0.501977 0.072448 0.681903
O O3 0.735876 0.129573 0.626680
O O4 0.750000 0.000000 0.658197
O O5 0.234327 0.124870 0.123487
O O6 0.231785 0.249782 0.071389
O O7 0.000853 0.165110 0.058151
O O8 0.251260 0.138345 0.998631
O O9 0.096074 0.201243 0.203572
#
# Coordination Sequence:
#
# PCOD8283749 Si02
#       5
#    16  16  16  16   4
#     4   9  17  30  44  64  91 122 154 191 232 276
#     4   9  16  30  49  73  91 117 155 197 240 274
#     4   9  16  28  49  69  89 118 161 201 233 277
#     4   9  17  29  49  70  97 120 149 194 239 283
#     4   8  12  24  48  72  84 106 156 212 240 258
#
# _framework density 18.808875
#
# number of rings (size 3 to 8) (size 9 to 14) (size 15 to 20)
#    0.000    3.294    0.000    4.235    0.000    0.000 
#    0.000   10.588    0.000    0.000    0.000    6.588 
#    0.000    0.000    0.000    0.000    0.000    0.000 
#
# Total GULP energy -421261.721155 kJ/mol
# GULP energy per Si atom -12390.050622 kJ/mol
# Density = 1.876606 g / cm^3
# Si number density = 18.808875 Si / 1000 Ang^3
#
#
#
# Elastic Constant Matrix: (Units=GPa)
#
#
# Indices 1 2 3 4 5 6 
#
# 1 18.6150 25.4912 29.6477 0.0000 0.0000 0.0000
# 2 25.4912 78.1820 40.4069 0.0000 0.0000 0.0000
# 3 29.6477 40.4069 201.1578 0.0000 0.0000 0.0000
# 4 0.0000 0.0000 0.0000 17.3480 0.0000 0.0000
# 5 0.0000 0.0000 0.0000 0.0000 29.8915 0.0000
# 6 0.0000 0.0000 0.0000 0.0000 0.0000 13.4494
#
#
#
# Elastic Compliance Matrix: (Units=1/GPa)
#
#
# Indices 1 2 3 4 5 6 
#
# 1 0.113658 -0.031690 -0.010386 0.000000 0.000000 0.000000
# 2 -0.031690 0.023108 0.000029 0.000000 0.000000 0.000000
# 3 -0.010386 0.000029 0.006496 0.000000 0.000000 0.000000
# 4 0.000000 0.000000 0.000000 0.057644 0.000000 0.000000
# 5 0.000000 0.000000 0.000000 0.000000 0.033454 0.000000
# 6 0.000000 0.000000 0.000000 0.000000 0.000000 0.074353
#
#
# Mechanical properties :
#
#
# Convention : Reuss Voigt Hill
#
# Bulk Modulus (GPa) = 16.90105 54.33846 35.61975
# Shear Modulus (GPa) = 12.12031 25.63171 18.87601
#
# Velocity S-wave (km/s) = 2.54124 3.69554 3.17135
# Velocity P-wave (km/s) = 4.19711 6.86745 5.69112
#
# Compressibility (1/GPa) = 0.05916793
#
# Stress axis : x y z
#
# Youngs Moduli (GPa) = 8.79831 43.27431 153.93771
#
# Poissons Ratio (x) = 1.37138 1.59877
# Poissons Ratio (y) = 0.27882 -0.00445
# Poissons Ratio (z) = 0.09138 -0.00125
#
# Static dielectric constant tensor:
#      x y z
#    x 2.919930 0.000000 0.000000 
#    y 0.000000 3.202950 0.000000 
#    z 0.000000 0.000000 4.116640 
# 
# 
# High freq. dielectric constant tensor:
#      x y z
#    x 1.667820 0.000000 0.000000 
#    y 0.000000 1.703710 0.000000 
#    z 0.000000 0.000000 1.763780 
# 
# From -- ./inp_files/37206.got.cif
#   From: 2010.03.12/outbox.cif.g09.slc.cpg/sg68_19_cif.got.tgz:37206.got - 2010.04.10 23:14:56.
