data_PCOD8283775
_publ_section_title
;
Structure prediction by ZEFSAII (Michael W. Deem and Ramdas Pophale) SiO2 
 PCOD8283775
Probable space group: F M M M
;
_chemical_formula_sum "Si O2"
_cell_formula_units_Z 104
_cell_length_a 27.655891
_cell_length_b 9.521072
_cell_length_c 26.274573
_cell_angle_alpha 90.000000
_cell_angle_beta 90.000000
_cell_angle_gamma 90.000000
_cell_volume 6918.455806
_symmetry_space_group_name_H-M "F M M M"
_symmetry_group_IT_number 69
_symmetry_cell_setting 'orthorhombic'
loop_
_space_group_symop_operation_xyz
x,y,z
-x,-y,z
x,-y,-z
-x,y,-z
-x,-y,-z
x,y,-z
-x,y,z
x,-y,z
x,1/2+y,1/2+z
-x,1/2-y,1/2+z
x,1/2-y,1/2-z
-x,1/2+y,1/2-z
-x,1/2-y,1/2-z
x,1/2+y,1/2-z
-x,1/2+y,1/2+z
x,1/2-y,1/2+z
1/2+x,y,1/2+z
1/2-x,-y,1/2+z
1/2+x,-y,1/2-z
1/2-x,y,1/2-z
1/2-x,-y,1/2-z
1/2+x,y,1/2-z
1/2-x,y,1/2+z
1/2+x,-y,1/2+z
1/2+x,1/2+y,z
1/2-x,1/2-y,z
1/2+x,1/2-y,-z
1/2-x,1/2+y,-z
1/2-x,1/2-y,-z
1/2+x,1/2+y,-z
1/2-x,1/2+y,z
1/2+x,1/2-y,z
loop_
_atom_site_type_symbol
_atom_site_label
_atom_site_fract_x
_atom_site_fract_y
_atom_site_fract_z
Si Si1 0.408619 0.000000 0.831861
Si Si2 0.443333 0.291903 0.858970
Si Si3 0.401353 0.500000 0.219005
Si Si4 0.312625 0.000000 0.217285
Si Si5 0.250000 0.250000 0.250000
Si Si6 0.556899 0.000000 0.443973
O O1 0.428938 0.869153 0.863049
O O2 0.428912 0.000000 0.773710
O O3 0.349799 0.000000 0.830458
O O4 0.500000 0.314778 0.849608
O O5 0.415311 0.360380 0.811537
O O6 0.427087 0.363004 0.912004
O O7 0.343473 0.500000 0.229666
O O8 0.281537 0.855949 0.214781
O O9 0.500000 0.000000 0.451341
O O10 0.581734 0.000000 0.500000
#
# Coordination Sequence:
#
# PCOD8283775 Si02
#       6
#    16  32  16  16   8  16
#     4  10  19  28  38  62  93 110 140 172 221 229
#     4  10  18  27  42  61  83 119 150 174 202 244
#     4   9  18  29  39  58  89 117 147 163 213 231
#     4   9  19  28  41  58  81 116 140 173 210 231
#     4  10  16  30  44  54  74 114 158 166 192 262
#     4   8  16  31  45  56  75 108 152 186 209 238
#
# _framework density 15.032256
#
# number of rings (size 3 to 8) (size 9 to 14) (size 15 to 20)
#    0.923    1.692    0.000    4.615    0.000    3.692 
#    0.000    0.769    0.000    3.692    0.000    0.000 
#    0.000    0.000    0.000  312.923    0.000    0.000 
#
# Total GULP energy -322187.636205 kJ/mol
# GULP energy per Si atom -12391.832162 kJ/mol
# Density = 1.499804 g / cm^3
# Si number density = 15.032256 Si / 1000 Ang^3
#
#
#
# Elastic Constant Matrix: (Units=GPa)
#
#
# Indices 1 2 3 4 5 6 
#
# 1 60.4986 28.1072 20.6583 0.0000 0.0000 0.0000
# 2 28.1072 141.0704 49.2720 0.0000 0.0000 -0.0001
# 3 20.6583 49.2720 92.7368 0.0000 0.0000 0.0000
# 4 0.0000 0.0000 0.0000 3.6948 0.0000 0.0000
# 5 0.0000 0.0000 0.0000 0.0000 2.7994 0.0000
# 6 0.0000 -0.0001 0.0000 0.0000 0.0000 27.9644
#
#
#
# Elastic Compliance Matrix: (Units=1/GPa)
#
#
# Indices 1 2 3 4 5 6 
#
# 1 0.018747 -0.002795 -0.002691 0.000000 0.000000 0.000000
# 2 -0.002795 0.009121 -0.004223 0.000000 0.000000 0.000000
# 3 -0.002691 -0.004223 0.013626 0.000000 0.000000 0.000000
# 4 0.000000 0.000000 0.000000 0.270649 0.000000 0.000000
# 5 0.000000 0.000000 0.000000 0.000000 0.357222 0.000000
# 6 0.000000 0.000000 0.000000 0.000000 0.000000 0.035760
#
#
# Mechanical properties :
#
#
# Convention : Reuss Voigt Hill
#
# Bulk Modulus (GPa) = 45.29990 54.48678 49.89334
# Shear Modulus (GPa) = 6.83152 19.97628 13.40390
#
# Velocity S-wave (km/s) = 2.13411 3.64935 2.98933
# Velocity P-wave (km/s) = 6.02272 7.35407 6.72144
#
# Compressibility (1/GPa) = 0.02207510
#
# Stress axis : x y z
#
# Youngs Moduli (GPa) = 53.34229 109.64129 73.38654
#
# Poissons Ratio (x) = 0.30648 0.19748
# Poissons Ratio (y) = 0.14911 0.30993
# Poissons Ratio (z) = 0.14354 0.46304
#
# Static dielectric constant tensor:
#      x y z
#    x 2.771490 0.000000 0.000000 
#    y 0.000000 2.950250 0.000000 
#    z 0.000000 0.000000 2.744140 
# 
# 
# High freq. dielectric constant tensor:
#      x y z
#    x 1.556280 0.000000 0.000000 
#    y 0.000000 1.592610 0.000000 
#    z 0.000000 0.000000 1.532770 
# 
# From -- ./inp_files/43398.got.cif
#   From: 2010.03.12/outbox.cif.g09.slc.cpg/sg69_22_cif.got.tgz:43398.got - 2010.04.10 23:52:46.
