data_PCOD8283031
_publ_section_title
;
Structure prediction by ZEFSAII (Michael W. Deem and Ramdas Pophale) SiO2 
 PCOD8283031
Probable space group: C C C A
;
_chemical_formula_sum "Si O2"
_cell_formula_units_Z 96
_cell_length_a 24.480864
_cell_length_b 20.596113
_cell_length_c 9.591019
_cell_angle_alpha 90.000000
_cell_angle_beta 90.000000
_cell_angle_gamma 90.000000
_cell_volume 4835.893841
_symmetry_space_group_name_H-M "C C C A"
_symmetry_group_IT_number 68
_space_group.IT_coordinate_system_code '2'
_symmetry_cell_setting 'orthorhombic'
loop_
_space_group_symop_operation_xyz
x,y,z
-x,1/2-y,z
x,1/2-y,1/2-z
-x,y,1/2-z
-x,-y,-z
x,1/2+y,-z
-x,1/2+y,1/2+z
x,-y,1/2+z
1/2+x,1/2+y,z
1/2-x,-y,z
1/2+x,-y,1/2-z
1/2-x,1/2+y,1/2-z
1/2-x,1/2-y,-z
1/2+x,y,-z
1/2-x,y,1/2+z
1/2+x,1/2-y,1/2+z
loop_
_atom_site_type_symbol
_atom_site_label
_atom_site_fract_x
_atom_site_fract_y
_atom_site_fract_z
Si Si1 0.804763 0.538889 0.233968
Si Si2 0.642460 0.088658 0.772384
Si Si3 0.199864 0.136379 0.965758
Si Si4 0.441881 0.309468 0.826764
Si Si5 0.319455 0.354490 0.493827
Si Si6 0.891032 0.264859 0.904409
O O1 0.750000 0.500000 0.194544
O O2 0.855966 0.489573 0.211642
O O3 0.800013 0.565668 0.391730
O O4 0.813329 0.601736 0.141507
O O5 0.583277 0.119199 0.804675
O O6 0.658236 0.100125 0.614334
O O7 0.684938 0.125319 0.872977
O O8 0.155922 0.181325 0.888239
O O9 0.259170 0.171096 0.962257
O O10 0.409020 0.250000 0.750000
O O11 0.500000 0.311883 0.750000
O O12 0.439688 0.290989 0.992679
O O13 0.362669 0.297923 0.470202
O O14 0.915303 0.250000 0.750000
#
# Coordination Sequence:
#
# PCOD8283031 Si02
#       6
#    16  16  16  16  16  16
#     4  12  22  36  56  85 135 181 215 240 300 378
#     4  11  23  35  61  90 120 169 216 256 297 377
#     4  11  22  36  56  87 135 178 210 248 300 376
#     4  10  22  45  70  90 111 157 216 271 331 371
#     4  12  21  37  56  89 133 175 211 247 305 373
#     4  11  23  40  61  96 127 160 208 273 323 374
#
# _framework density 19.851552000000002
#
# number of rings (size 3 to 8) (size 9 to 14) (size 15 to 20)
#    0.000    0.833    6.667    1.500    0.000    0.000 
#    0.000    1.667    0.000    9.000    0.000    0.000 
#    0.000    0.000    0.000    0.000    0.000    0.000 
#
# Total GULP energy -594847.040088 kJ/mol
# GULP energy per Si atom -12392.646668 kJ/mol
# Density = 1.980637 g / cm^3
# Si number density = 19.851552 Si / 1000 Ang^3
#
#
#
# Elastic Constant Matrix: (Units=GPa)
#
#
# Indices 1 2 3 4 5 6 
#
# 1 92.1788 39.1942 44.2618 0.0000 0.0000 0.0000
# 2 39.1942 90.5027 17.3894 0.0000 0.0000 0.0000
# 3 44.2618 17.3894 108.5414 0.0000 0.0000 0.0000
# 4 0.0000 0.0000 0.0000 25.0204 0.0000 0.0000
# 5 0.0000 0.0000 0.0000 0.0000 19.7874 0.0000
# 6 0.0000 0.0000 0.0000 0.0000 0.0000 21.5362
#
#
#
# Elastic Compliance Matrix: (Units=1/GPa)
#
#
# Indices 1 2 3 4 5 6 
#
# 1 0.016031 -0.005867 -0.005597 0.000000 0.000000 0.000000
# 2 -0.005867 0.013548 0.000222 0.000000 0.000000 0.000000
# 3 -0.005597 0.000222 0.011460 0.000000 0.000000 0.000000
# 4 0.000000 0.000000 0.000000 0.039967 0.000000 0.000000
# 5 0.000000 0.000000 0.000000 0.000000 0.050537 0.000000
# 6 0.000000 0.000000 0.000000 0.000000 0.000000 0.046433
#
#
# Mechanical properties :
#
#
# Convention : Reuss Voigt Hill
#
# Bulk Modulus (GPa) = 53.89682 54.76818 54.33250
# Shear Modulus (GPa) = 24.19604 25.96062 25.07833
#
# Velocity S-wave (km/s) = 3.49499 3.62019 3.55814
# Velocity P-wave (km/s) = 6.59511 6.71737 6.65652
#
# Compressibility (1/GPa) = 0.01855397
#
# Stress axis : x y z
#
# Youngs Moduli (GPa) = 62.38019 73.81398 87.26032
#
# Poissons Ratio (x) = 0.43307 0.48841
# Poissons Ratio (y) = 0.36598 -0.01937
# Poissons Ratio (z) = 0.34915 -0.01639
#
# Static dielectric constant tensor:
#      x y z
#    x 3.283000 0.000000 0.000000 
#    y 0.000000 4.062970 0.000000 
#    z 0.000000 0.000000 3.768340 
# 
# 
# High freq. dielectric constant tensor:
#      x y z
#    x 1.729110 0.000000 0.000000 
#    y 0.000000 1.776750 0.000000 
#    z 0.000000 0.000000 1.795570 
# 
# From -- ./inp_files/8901.got.cif
#   From: 2010.03.12/outbox.cif.g09.slc.cpg/sg68_5_cif.got.tgz:8901.got - 2010.04.10 23:14:56.
