data_PCOD8283590
_publ_section_title
;
Structure prediction by ZEFSAII (Michael W. Deem and Ramdas Pophale) SiO2 
 PCOD8283590
Probable space group: C C C A
;
_chemical_formula_sum "Si O2"
_cell_formula_units_Z 116
_cell_length_a 20.766358
_cell_length_b 9.417722
_cell_length_c 25.444454
_cell_angle_alpha 90.000000
_cell_angle_beta 90.000000
_cell_angle_gamma 90.000000
_cell_volume 4976.217328
_symmetry_space_group_name_H-M "C C C A"
_symmetry_group_IT_number 68
_space_group.IT_coordinate_system_code '2'
_symmetry_cell_setting 'orthorhombic'
loop_
_space_group_symop_operation_xyz
x,y,z
-x,1/2-y,z
x,1/2-y,1/2-z
-x,y,1/2-z
-x,-y,-z
x,1/2+y,-z
-x,1/2+y,1/2+z
x,-y,1/2+z
1/2+x,1/2+y,z
1/2-x,-y,z
1/2+x,-y,1/2-z
1/2-x,1/2+y,1/2-z
1/2-x,1/2-y,-z
1/2+x,y,-z
1/2-x,y,1/2+z
1/2+x,1/2-y,1/2+z
loop_
_atom_site_type_symbol
_atom_site_label
_atom_site_fract_x
_atom_site_fract_y
_atom_site_fract_z
Si Si1 0.079165 0.598551 0.833158
Si Si2 0.073935 0.219943 0.689862
Si Si3 0.810927 0.820915 0.027125
Si Si4 0.893174 0.439586 0.504234
Si Si5 0.307467 0.706383 0.189183
Si Si6 0.000156 0.403661 0.065743
Si Si7 0.000000 0.250000 0.250000
Si Si8 0.317200 0.114824 0.353728
O O1 0.098060 0.435226 0.826981
O O2 0.143453 0.693523 0.844719
O O3 0.021185 0.619613 0.874503
O O4 0.047391 0.645418 0.779465
O O5 0.091515 0.250000 0.750000
O O6 0.111090 0.328658 0.652679
O O7 0.000000 0.250000 0.677871
O O8 0.796088 0.879817 0.085268
O O9 0.831748 0.957123 0.992750
O O10 0.750000 0.750000 0.000000
O O11 0.870706 0.713101 0.024423
O O12 0.950191 0.483946 0.542969
O O13 0.925026 0.449649 0.444958
O O14 0.318289 0.750000 0.250000
O O15 0.317826 0.541492 0.172565
O O16 0.232103 0.726023 0.175100
O O17 0.000000 0.250000 0.036724
#
# Coordination Sequence:
#
# PCOD8283590 Si02
#       8
#    16  16  16  16  16  16   4  16
#     4  12  26  43  74 108 148 199 254 310 387 466
#     4  11  25  45  72 108 154 195 246 321 391 463
#     4  12  28  48  76 107 151 202 256 323 385 462
#     4  11  26  48  74 105 146 191 256 314 387 455
#     4  11  26  49  79 110 149 202 258 317 389 473
#     4  11  24  44  73 108 141 193 246 318 379 457
#     4  12  24  40  66 108 144 188 244 300 364 450
#     4  11  28  48  76 110 151 202 256 322 391 463
#
# _framework density 23.310880000000001
#
# number of rings (size 3 to 8) (size 9 to 14) (size 15 to 20)
#    0.000    0.690    2.759    3.310   11.586    1.655 
#    2.483    0.000    0.000    0.000    0.000    0.000 
#    0.000    0.000    0.000    0.000    0.000    0.000 
#
# Total GULP energy -718721.239566 kJ/mol
# GULP energy per Si atom -12391.745510 kJ/mol
# Density = 2.325782 g / cm^3
# Si number density = 23.310880 Si / 1000 Ang^3
#
#
#
# Elastic Constant Matrix: (Units=GPa)
#
#
# Indices 1 2 3 4 5 6 
#
# 1 111.4726 45.6653 38.1122 0.0000 0.0000 0.0000
# 2 45.6653 133.8777 44.2029 0.0000 0.0000 0.0000
# 3 38.1122 44.2029 104.7617 0.0000 0.0000 0.0000
# 4 0.0000 0.0000 0.0000 30.4982 0.0000 0.0000
# 5 0.0000 0.0000 0.0000 0.0000 21.9202 0.0000
# 6 0.0000 0.0000 0.0000 0.0000 0.0000 49.1308
#
#
#
# Elastic Compliance Matrix: (Units=1/GPa)
#
#
# Indices 1 2 3 4 5 6 
#
# 1 0.011110 -0.002852 -0.002838 0.000000 0.000000 0.000000
# 2 -0.002852 0.009411 -0.002933 0.000000 0.000000 0.000000
# 3 -0.002838 -0.002933 0.011816 0.000000 0.000000 0.000000
# 4 0.000000 0.000000 0.000000 0.032789 0.000000 0.000000
# 5 0.000000 0.000000 0.000000 0.000000 0.045620 0.000000
# 6 0.000000 0.000000 0.000000 0.000000 0.000000 0.020354
#
#
# Mechanical properties :
#
#
# Convention : Reuss Voigt Hill
#
# Bulk Modulus (GPa) = 66.27424 67.34143 66.80783
# Shear Modulus (GPa) = 32.59969 35.11862 33.85916
#
# Velocity S-wave (km/s) = 3.74368 3.88562 3.81531
# Velocity P-wave (km/s) = 6.86871 7.00584 6.93761
#
# Compressibility (1/GPa) = 0.01508882
#
# Stress axis : x y z
#
# Youngs Moduli (GPa) = 90.01171 106.25998 84.63398
#
# Poissons Ratio (x) = 0.30309 0.24020
# Poissons Ratio (y) = 0.25675 0.24824
# Poissons Ratio (z) = 0.25547 0.31167
#
# Static dielectric constant tensor:
#      x y z
#    x 4.576830 0.000000 0.000000 
#    y 0.000000 4.510080 0.000000 
#    z 0.000000 0.000000 4.505440 
# 
# 
# High freq. dielectric constant tensor:
#      x y z
#    x 1.938150 0.000000 0.000000 
#    y 0.000000 1.935430 0.000000 
#    z 0.000000 0.000000 1.910640 
# 
# From -- ./inp_files/52215.got.cif
#   From: 2010.03.12/outbox.cif.g09.slc.cpg/sg68_27_cif.got.tgz:52215.got - 2010.04.10 23:14:56.
