data_PCOD8283975
_publ_section_title
;
Structure prediction by ZEFSAII (Michael W. Deem and Ramdas Pophale) SiO2 
 PCOD8283975
Probable space group: F M M M
;
_chemical_formula_sum "Si O2"
_cell_formula_units_Z 128
_cell_length_a 19.091239
_cell_length_b 16.728202
_cell_length_c 23.511022
_cell_angle_alpha 90.000000
_cell_angle_beta 90.000000
_cell_angle_gamma 90.000000
_cell_volume 7508.529416
_symmetry_space_group_name_H-M "F M M M"
_symmetry_group_IT_number 69
_symmetry_cell_setting 'orthorhombic'
loop_
_space_group_symop_operation_xyz
x,y,z
-x,-y,z
x,-y,-z
-x,y,-z
-x,-y,-z
x,y,-z
-x,y,z
x,-y,z
x,1/2+y,1/2+z
-x,1/2-y,1/2+z
x,1/2-y,1/2-z
-x,1/2+y,1/2-z
-x,1/2-y,1/2-z
x,1/2+y,1/2-z
-x,1/2+y,1/2+z
x,1/2-y,1/2+z
1/2+x,y,1/2+z
1/2-x,-y,1/2+z
1/2+x,-y,1/2-z
1/2-x,y,1/2-z
1/2-x,-y,1/2-z
1/2+x,y,1/2-z
1/2-x,y,1/2+z
1/2+x,-y,1/2+z
1/2+x,1/2+y,z
1/2-x,1/2-y,z
1/2+x,1/2-y,-z
1/2-x,1/2+y,-z
1/2-x,1/2-y,-z
1/2+x,1/2+y,-z
1/2-x,1/2+y,z
1/2+x,1/2-y,z
loop_
_atom_site_type_symbol
_atom_site_label
_atom_site_fract_x
_atom_site_fract_y
_atom_site_fract_z
Si Si1 0.353566 0.657800 0.764964
Si Si2 0.735146 0.407145 0.665316
Si Si3 0.000000 0.095059 0.381980
Si Si4 0.357703 0.904841 0.936498
Si Si5 0.000000 0.905350 0.748103
O O1 0.349676 0.750000 0.750000
O O2 0.324917 0.604890 0.712734
O O3 0.304823 0.643031 0.820160
O O4 0.432137 0.630648 0.779454
O O5 0.754939 0.500000 0.663302
O O6 0.705304 0.376974 0.604696
O O7 0.068441 0.129654 0.413672
O O8 0.000000 0.124636 0.317019
O O9 0.000000 0.000000 0.383551
O O10 0.362248 0.000000 0.936176
O O11 0.343485 0.872088 0.000000
O O12 0.000000 0.000000 0.753690
#
# Coordination Sequence:
#
# PCOD8283975 Si02
#       5
#    32  32  16  32  16
#     4  11  21  32  47  69 100 129 161 198 241 284
#     4  10  18  31  49  70  96 131 164 196 235 281
#     4   9  15  25  42  68  97 122 150 190 239 287
#     4   9  16  26  44  71  98 123 158 201 242 281
#     4  11  19  32  51  73  94 125 162 195 240 296
#
# _framework density 17.047280000000001
#
# number of rings (size 3 to 8) (size 9 to 14) (size 15 to 20)
#    0.000    2.000    2.500    5.250    0.000    1.500 
#    0.000    0.000    0.000    3.000    0.000    0.875 
#    0.000    5.000    0.000    0.000    0.000    0.000 
#
# Total GULP energy -396789.586862 kJ/mol
# GULP energy per Si atom -12399.674589 kJ/mol
# Density = 1.700848 g / cm^3
# Si number density = 17.047280 Si / 1000 Ang^3
#
#
#
# Elastic Constant Matrix: (Units=GPa)
#
#
# Indices 1 2 3 4 5 6 
#
# 1 161.4503 40.8333 67.4985 0.0000 0.0000 0.0000
# 2 40.8333 62.9512 17.9679 0.0000 0.0000 0.0000
# 3 67.4985 17.9679 100.4583 0.0000 0.0000 0.0000
# 4 0.0000 0.0000 0.0000 5.1005 0.0000 0.0000
# 5 0.0000 0.0000 0.0000 0.0000 27.3200 0.0000
# 6 0.0000 0.0000 0.0000 0.0000 0.0000 18.7090
#
#
#
# Elastic Compliance Matrix: (Units=1/GPa)
#
#
# Indices 1 2 3 4 5 6 
#
# 1 0.009780 -0.004709 -0.005729 0.000000 0.000000 0.000000
# 2 -0.004709 0.019007 -0.000236 0.000000 0.000000 0.000000
# 3 -0.005729 -0.000236 0.013846 0.000000 0.000000 0.000000
# 4 0.000000 0.000000 0.000000 0.196058 0.000000 0.000000
# 5 0.000000 0.000000 0.000000 0.000000 0.036603 0.000000
# 6 0.000000 0.000000 0.000000 0.000000 0.000000 0.053450
#
#
# Mechanical properties :
#
#
# Convention : Reuss Voigt Hill
#
# Bulk Modulus (GPa) = 46.97952 64.16213 55.57083
# Shear Modulus (GPa) = 13.99829 23.46324 18.73077
#
# Velocity S-wave (km/s) = 2.86867 3.71396 3.31834
# Velocity P-wave (km/s) = 6.21213 7.49071 6.88118
#
# Compressibility (1/GPa) = 0.02128587
#
# Stress axis : x y z
#
# Youngs Moduli (GPa) = 102.25084 52.61267 72.22353
#
# Poissons Ratio (x) = 0.24773 0.41377
# Poissons Ratio (y) = 0.48145 0.01703
# Poissons Ratio (z) = 0.58579 0.01241
#
# Static dielectric constant tensor:
#      x y z
#    x 3.404190 0.000000 0.000000 
#    y 0.000000 2.823930 0.000000 
#    z 0.000000 0.000000 3.251740 
# 
# 
# High freq. dielectric constant tensor:
#      x y z
#    x 1.664280 0.000000 0.000000 
#    y 0.000000 1.622730 0.000000 
#    z 0.000000 0.000000 1.633740 
# 
# From -- ./inp_files/15330.got.cif
#   From: 2010.03.12/outbox.cif.g09.slc.cpg/sg69_8_cif.got.tgz:15330.got - 2010.04.10 23:52:46.
