data_PCOD8283947
_publ_section_title
;
Structure prediction by ZEFSAII (Michael W. Deem and Ramdas Pophale) SiO2 
 PCOD8283947
Probable space group: F M M M
;
_chemical_formula_sum "Si O2"
_cell_formula_units_Z 120
_cell_length_a 31.352105
_cell_length_b 18.746602
_cell_length_c 10.629704
_cell_angle_alpha 90.000000
_cell_angle_beta 90.000000
_cell_angle_gamma 90.000000
_cell_volume 6247.559994
_symmetry_space_group_name_H-M "F M M M"
_symmetry_group_IT_number 69
_symmetry_cell_setting 'orthorhombic'
loop_
_space_group_symop_operation_xyz
x,y,z
-x,-y,z
x,-y,-z
-x,y,-z
-x,-y,-z
x,y,-z
-x,y,z
x,-y,z
x,1/2+y,1/2+z
-x,1/2-y,1/2+z
x,1/2-y,1/2-z
-x,1/2+y,1/2-z
-x,1/2-y,1/2-z
x,1/2+y,1/2-z
-x,1/2+y,1/2+z
x,1/2-y,1/2+z
1/2+x,y,1/2+z
1/2-x,-y,1/2+z
1/2+x,-y,1/2-z
1/2-x,y,1/2-z
1/2-x,-y,1/2-z
1/2+x,y,1/2-z
1/2-x,y,1/2+z
1/2+x,-y,1/2+z
1/2+x,1/2+y,z
1/2-x,1/2-y,z
1/2+x,1/2-y,-z
1/2-x,1/2+y,-z
1/2-x,1/2-y,-z
1/2+x,1/2+y,-z
1/2-x,1/2+y,z
1/2+x,1/2-y,z
loop_
_atom_site_type_symbol
_atom_site_label
_atom_site_fract_x
_atom_site_fract_y
_atom_site_fract_z
Si Si1 0.909733 0.330467 0.751293
Si Si2 0.048577 0.164290 0.500000
Si Si3 0.450834 0.834247 0.500000
Si Si4 0.750000 0.750000 0.250000
Si Si5 0.821455 0.847524 0.641044
Si Si6 0.783490 0.000000 0.360473
O O1 0.927065 0.250000 0.750000
O O2 0.929149 0.368699 0.875239
O O3 0.926925 0.366886 0.623009
O O4 0.858254 0.330392 0.757813
O O5 0.053492 0.249318 0.500000
O O6 0.000000 0.139459 0.500000
O O7 0.500000 0.858703 0.500000
O O8 0.779287 0.800942 0.334939
O O9 0.837553 0.829180 0.500000
O O10 0.812581 0.930941 0.654350
O O11 0.750000 0.000000 0.250000
O O12 0.761649 0.000000 0.500000
#
# Coordination Sequence:
#
# PCOD8283947 Si02
#       6
#    32  16  16   8  32  16
#     4  10  18  30  50  76 111 142 181 230 271 329
#     4   9  16  28  48  73 106 145 177 220 282 337
#     4   9  18  30  46  77 112 143 175 220 284 335
#     4  12  22  34  60  82 118 144 188 236 290 328
#     4  11  22  38  56  84 112 151 190 231 280 333
#     4  10  22  42  60  78 111 150 194 232 275 334
#
# _framework density 19.207498999999999
#
# number of rings (size 3 to 8) (size 9 to 14) (size 15 to 20)
#    0.000    1.867    4.000    1.200    0.000    3.200 
#    4.800    0.000    0.000    0.000    0.000    5.600 
#    0.000    0.000    0.000    0.000    0.000    0.000 
#
# Total GULP energy -371901.449464 kJ/mol
# GULP energy per Si atom -12396.714982 kJ/mol
# Density = 1.916378 g / cm^3
# Si number density = 19.207499 Si / 1000 Ang^3
#
#
#
# Elastic Constant Matrix: (Units=GPa)
#
#
# Indices 1 2 3 4 5 6 
#
# 1 132.7719 14.1460 79.4383 0.0000 0.0000 0.0000
# 2 14.1460 56.0499 19.5311 0.0000 0.0000 0.0000
# 3 79.4383 19.5311 180.0656 0.0000 0.0000 0.0000
# 4 0.0000 0.0000 0.0000 14.3762 0.0000 0.0000
# 5 0.0000 0.0000 0.0000 0.0000 44.5382 0.0000
# 6 0.0000 0.0000 0.0000 0.0000 0.0000 6.6839
#
#
#
# Elastic Compliance Matrix: (Units=1/GPa)
#
#
# Indices 1 2 3 4 5 6 
#
# 1 0.010292 -0.001055 -0.004426 0.000000 0.000000 0.000000
# 2 -0.001055 0.018650 -0.001557 0.000000 0.000000 0.000000
# 3 -0.004426 -0.001557 0.007675 0.000000 0.000000 0.000000
# 4 0.000000 0.000000 0.000000 0.069560 0.000000 0.000000
# 5 0.000000 0.000000 0.000000 0.000000 0.022453 0.000000
# 6 0.000000 0.000000 0.000000 0.000000 0.000000 0.149614
#
#
# Mechanical properties :
#
#
# Convention : Reuss Voigt Hill
#
# Bulk Modulus (GPa) = 44.36537 66.12426 55.24482
# Shear Modulus (GPa) = 16.67585 30.17111 23.42348
#
# Velocity S-wave (km/s) = 2.94971 3.96763 3.49592
# Velocity P-wave (km/s) = 5.89484 7.44919 6.71713
#
# Compressibility (1/GPa) = 0.02254010
#
# Stress axis : x y z
#
# Youngs Moduli (GPa) = 97.15969 53.61858 130.29139
#
# Poissons Ratio (x) = 0.05658 0.57669
# Poissons Ratio (y) = 0.10253 0.20291
# Poissons Ratio (z) = 0.43004 0.08350
#
# Static dielectric constant tensor:
#      x y z
#    x 3.393200 0.000000 0.000000 
#    y 0.000000 3.009880 0.000000 
#    z 0.000000 0.000000 3.932580 
# 
# 
# High freq. dielectric constant tensor:
#      x y z
#    x 1.749840 0.000000 0.000000 
#    y 0.000000 1.688800 0.000000 
#    z 0.000000 0.000000 1.764670 
# 
# From -- ./inp_files/12139.got.cif
#   From: 2010.03.12/outbox.cif.g09.slc.cpg/sg69_7_cif.got.tgz:12139.got - 2010.04.10 23:52:46.
