data_PCOD8283688
_publ_section_title
;
Structure prediction by ZEFSAII (Michael W. Deem and Ramdas Pophale) SiO2 
 PCOD8283688
Probable space group: C C C A
;
_chemical_formula_sum "Si O2"
_cell_formula_units_Z 112
_cell_length_a 27.358005
_cell_length_b 14.410650
_cell_length_c 14.426297
_cell_angle_alpha 90.000000
_cell_angle_beta 90.000000
_cell_angle_gamma 90.000000
_cell_volume 5687.519044
_symmetry_space_group_name_H-M "C C C A"
_symmetry_group_IT_number 68
_space_group.IT_coordinate_system_code '2'
_symmetry_cell_setting 'orthorhombic'
loop_
_space_group_symop_operation_xyz
x,y,z
-x,1/2-y,z
x,1/2-y,1/2-z
-x,y,1/2-z
-x,-y,-z
x,1/2+y,-z
-x,1/2+y,1/2+z
x,-y,1/2+z
1/2+x,1/2+y,z
1/2-x,-y,z
1/2+x,-y,1/2-z
1/2-x,1/2+y,1/2-z
1/2-x,1/2-y,-z
1/2+x,y,-z
1/2-x,y,1/2+z
1/2+x,1/2-y,1/2+z
loop_
_atom_site_type_symbol
_atom_site_label
_atom_site_fract_x
_atom_site_fract_y
_atom_site_fract_z
Si Si1 0.707072 0.317423 0.834523
Si Si2 0.687006 0.626856 0.885068
Si Si3 0.945281 0.752709 0.595308
Si Si4 0.054065 0.100821 0.241108
Si Si5 0.151828 0.485536 0.252945
Si Si6 0.808221 0.492998 0.547898
Si Si7 0.650529 0.290049 0.006475
O O1 0.720321 0.250000 0.750000
O O2 0.754897 0.364966 0.876343
O O3 0.670905 0.400145 0.808219
O O4 0.680555 0.257248 0.914772
O O5 0.666719 0.584865 0.789241
O O6 0.671156 0.560071 0.968742
O O7 0.663908 0.727329 0.904853
O O8 0.939828 0.829019 0.674414
O O9 0.936029 0.653235 0.643713
O O10 0.907192 0.777319 0.513609
O O11 0.000000 0.750000 0.552395
O O12 0.093003 0.017844 0.246287
O O13 0.000000 0.056871 0.250000
O O14 0.174378 0.471372 0.353324
O O15 0.750000 0.500000 0.546512
O O16 0.832071 0.393071 0.530461
#
# Coordination Sequence:
#
# PCOD8283688 Si02
#       7
#    16  16  16  16  16  16  16
#     4  12  23  39  64  89 118 165 215 256 313 368
#     4  12  25  41  58  93 126 167 211 257 308 382
#     4   9  17  34  61  91 117 153 211 272 320 371
#     4   9  17  34  61  90 117 153 209 271 320 364
#     4  12  24  39  62  88 129 162 210 260 313 371
#     4  12  24  41  59  88 127 169 206 257 307 375
#     4  12  24  39  62  87 130 166 208 257 319 371
#
# _framework density 19.692242
#
# number of rings (size 3 to 8) (size 9 to 14) (size 15 to 20)
#    0.000    0.857    4.286    5.143    4.000    0.000 
#    0.000    1.429    0.000    5.143    0.000    2.000 
#    0.000    0.000    0.000    0.000    0.000    0.000 
#
# Total GULP energy -694428.803423 kJ/mol
# GULP energy per Si atom -12400.514347 kJ/mol
# Density = 1.964742 g / cm^3
# Si number density = 19.692242 Si / 1000 Ang^3
#
#
#
# Elastic Constant Matrix: (Units=GPa)
#
#
# Indices 1 2 3 4 5 6 
#
# 1 143.6253 33.7202 24.5426 0.0000 0.0000 0.0000
# 2 33.7202 75.0963 15.9126 0.0000 0.0000 0.0000
# 3 24.5426 15.9126 57.5835 0.0000 0.0000 0.0000
# 4 0.0000 0.0000 0.0000 29.9366 0.0000 0.0000
# 5 0.0000 0.0000 0.0000 0.0000 16.4246 0.0000
# 6 0.0000 0.0000 0.0000 0.0000 0.0000 17.2753
#
#
#
# Elastic Compliance Matrix: (Units=1/GPa)
#
#
# Indices 1 2 3 4 5 6 
#
# 1 0.008137 -0.003100 -0.002611 0.000000 0.000000 0.000000
# 2 -0.003100 0.015326 -0.002914 0.000000 0.000000 0.000000
# 3 -0.002611 -0.002914 0.019284 0.000000 0.000000 0.000000
# 4 0.000000 0.000000 0.000000 0.033404 0.000000 0.000000
# 5 0.000000 0.000000 0.000000 0.000000 0.060884 0.000000
# 6 0.000000 0.000000 0.000000 0.000000 0.000000 0.057886
#
#
# Mechanical properties :
#
#
# Convention : Reuss Voigt Hill
#
# Bulk Modulus (GPa) = 39.22157 47.18398 43.20277
# Shear Modulus (GPa) = 22.65828 26.20262 24.43045
#
# Velocity S-wave (km/s) = 3.39576 3.65170 3.52605
# Velocity P-wave (km/s) = 5.94436 6.46472 6.20999
#
# Compressibility (1/GPa) = 0.02549618
#
# Stress axis : x y z
#
# Youngs Moduli (GPa) = 122.90089 65.24964 51.85600
#
# Poissons Ratio (x) = 0.20229 0.13541
# Poissons Ratio (y) = 0.38103 0.15110
# Poissons Ratio (z) = 0.32092 0.19012
#
# Static dielectric constant tensor:
#      x y z
#    x 3.782320 0.000000 0.000000 
#    y 0.000000 3.464520 0.000000 
#    z 0.000000 0.000000 3.694720 
# 
# 
# High freq. dielectric constant tensor:
#      x y z
#    x 1.767070 0.000000 0.000000 
#    y 0.000000 1.752540 0.000000 
#    z 0.000000 0.000000 1.760300 
# 
# From -- ./inp_files/22738.got.cif
#   From: 2010.03.12/outbox.cif.g09.slc.cpg/sg68_12_cif.got.tgz:22738.got - 2010.04.10 23:14:56.
