data_PCOD8283316
_publ_section_title
;
Structure prediction by ZEFSAII (Michael W. Deem and Ramdas Pophale) SiO2 
 PCOD8283316
Probable space group: C C C A
;
_chemical_formula_sum "Si O2"
_cell_formula_units_Z 88
_cell_length_a 26.924608
_cell_length_b 5.456888
_cell_length_c 27.587151
_cell_angle_alpha 90.000000
_cell_angle_beta 90.000000
_cell_angle_gamma 90.000000
_cell_volume 4053.230306
_symmetry_space_group_name_H-M "C C C A"
_symmetry_group_IT_number 68
_space_group.IT_coordinate_system_code '2'
_symmetry_cell_setting 'orthorhombic'
loop_
_space_group_symop_operation_xyz
x,y,z
-x,1/2-y,z
x,1/2-y,1/2-z
-x,y,1/2-z
-x,-y,-z
x,1/2+y,-z
-x,1/2+y,1/2+z
x,-y,1/2+z
1/2+x,1/2+y,z
1/2-x,-y,z
1/2+x,-y,1/2-z
1/2-x,1/2+y,1/2-z
1/2-x,1/2-y,-z
1/2+x,y,-z
1/2-x,y,1/2+z
1/2+x,1/2-y,1/2+z
loop_
_atom_site_type_symbol
_atom_site_label
_atom_site_fract_x
_atom_site_fract_y
_atom_site_fract_z
Si Si1 0.750000 0.500000 0.859911
Si Si2 0.750000 0.500000 0.578087
Si Si3 0.097434 0.477290 0.370880
Si Si4 0.146815 0.988326 0.028334
Si Si5 0.500000 0.250000 0.653946
Si Si6 0.561982 0.625684 0.799166
Si Si7 0.340130 0.666561 0.198383
O O1 0.750290 0.750485 0.890553
O O2 0.700607 0.507866 0.826807
O O3 0.795864 0.490608 0.541980
O O4 0.113789 0.545463 0.424267
O O5 0.077172 0.716022 0.345171
O O6 0.144772 0.377257 0.340338
O O7 0.050848 0.289367 0.376336
O O8 0.133959 0.250254 0.004032
O O9 0.488828 0.482882 0.687893
O O10 0.547317 0.750000 0.750000
O O11 0.609017 0.460201 0.786596
O O12 0.316731 0.750000 0.250000
#
# Coordination Sequence:
#
# PCOD8283316 Si02
#       7
#     8   8  16  16   8  16  16
#     4  12  26  42  76 106 152 196 244 282 370 432
#     4  12  24  48  74 108 140 188 240 316 358 428
#     4  11  24  47  69 101 145 184 240 297 363 427
#     4  12  27  47  77 106 140 188 242 305 371 430
#     4  10  26  41  72 104 140 186 238 302 363 428
#     4  11  23  43  71 102 145 191 243 295 362 433
#     4  11  24  43  65 103 147 198 237 288 352 440
#
# _framework density 21.711079000000002
#
# number of rings (size 3 to 8) (size 9 to 14) (size 15 to 20)
#    0.000    0.727    3.636    3.273    5.091    3.636 
#    0.000    0.909    0.000    0.000    0.000    0.000 
#    0.000    0.000    0.000    0.000    0.000    0.000 
#
# Total GULP energy -545472.214429 kJ/mol
# GULP energy per Si atom -12397.095782 kJ/mol
# Density = 2.166166 g / cm^3
# Si number density = 21.711079 Si / 1000 Ang^3
#
#
#
# Elastic Constant Matrix: (Units=GPa)
#
#
# Indices 1 2 3 4 5 6 
#
# 1 95.4915 25.2692 42.8469 0.0000 0.0000 0.0000
# 2 25.2692 134.0663 59.7376 0.0000 0.0000 0.0000
# 3 42.8469 59.7376 145.2796 0.0000 0.0000 0.0000
# 4 0.0000 0.0000 0.0000 39.9944 0.0000 0.0000
# 5 0.0000 0.0000 0.0000 0.0000 83.5492 0.0000
# 6 0.0000 0.0000 0.0000 0.0000 0.0000 32.4226
#
#
#
# Elastic Compliance Matrix: (Units=1/GPa)
#
#
# Indices 1 2 3 4 5 6 
#
# 1 0.012148 -0.000849 -0.003234 0.000000 0.000000 0.000000
# 2 -0.000849 0.009191 -0.003529 0.000000 0.000000 0.000000
# 3 -0.003234 -0.003529 0.009288 0.000000 0.000000 0.000000
# 4 0.000000 0.000000 0.000000 0.025003 0.000000 0.000000
# 5 0.000000 0.000000 0.000000 0.000000 0.011969 0.000000
# 6 0.000000 0.000000 0.000000 0.000000 0.000000 0.030843
#
#
# Mechanical properties :
#
#
# Convention : Reuss Voigt Hill
#
# Bulk Modulus (GPa) = 64.91756 70.06056 67.48906
# Shear Modulus (GPa) = 42.08745 47.65884 44.87314
#
# Velocity S-wave (km/s) = 4.40764 4.69031 4.55117
# Velocity P-wave (km/s) = 7.47453 7.85313 7.66617
#
# Compressibility (1/GPa) = 0.01540415
#
# Stress axis : x y z
#
# Youngs Moduli (GPa) = 82.32024 108.79626 107.66434
#
# Poissons Ratio (x) = 0.09234 0.34815
# Poissons Ratio (y) = 0.06987 0.37996
# Poissons Ratio (z) = 0.26620 0.38396
#
# Static dielectric constant tensor:
#      x y z
#    x 4.130500 0.000000 0.000000 
#    y 0.000000 4.319150 0.000000 
#    z 0.000000 0.000000 3.844930 
# 
# 
# High freq. dielectric constant tensor:
#      x y z
#    x 1.869360 0.000000 0.000000 
#    y 0.000000 1.863980 0.000000 
#    z 0.000000 0.000000 1.847780 
# 
# From -- ./inp_files/47497.got.cif
#   From: 2010.03.12/outbox.cif.g09.slc.cpg/sg68_24_cif.got.tgz:47497.got - 2010.04.10 23:14:56.
