data_PCOD8283661
_publ_section_title
;
Structure prediction by ZEFSAII (Michael W. Deem and Ramdas Pophale) SiO2 
 PCOD8283661
Probable space group: C C C A
;
_chemical_formula_sum "Si O2"
_cell_formula_units_Z 72
_cell_length_a 9.335644
_cell_length_b 24.895810
_cell_length_c 14.116728
_cell_angle_alpha 90.000000
_cell_angle_beta 90.000000
_cell_angle_gamma 90.000000
_cell_volume 3280.987607
_symmetry_space_group_name_H-M "C C C A"
_symmetry_group_IT_number 68
_space_group.IT_coordinate_system_code '2'
_symmetry_cell_setting 'orthorhombic'
loop_
_space_group_symop_operation_xyz
x,y,z
-x,1/2-y,z
x,1/2-y,1/2-z
-x,y,1/2-z
-x,-y,-z
x,1/2+y,-z
-x,1/2+y,1/2+z
x,-y,1/2+z
1/2+x,1/2+y,z
1/2-x,-y,z
1/2+x,-y,1/2-z
1/2-x,1/2+y,1/2-z
1/2-x,1/2-y,-z
1/2+x,y,-z
1/2-x,y,1/2+z
1/2+x,1/2-y,1/2+z
loop_
_atom_site_type_symbol
_atom_site_label
_atom_site_fract_x
_atom_site_fract_y
_atom_site_fract_z
Si Si1 0.939232 0.865892 0.885014
Si Si2 0.405244 0.511319 0.412091
Si Si3 0.000000 0.568327 0.250000
Si Si4 0.261858 0.147650 0.793152
Si Si5 0.634543 0.786417 0.550157
O O1 0.901178 0.927861 0.877705
O O2 0.837576 0.836481 0.806574
O O3 0.108866 0.866563 0.864802
O O4 0.906809 0.838445 0.986069
O O5 0.500000 0.500000 0.500000
O O6 0.250000 0.500000 0.450487
O O7 0.451542 0.470452 0.332225
O O8 0.139274 0.602551 0.219220
O O9 0.185065 0.197320 0.844718
O O10 0.500000 0.750000 0.568123
O O11 0.750000 0.750000 0.500000
#
# Coordination Sequence:
#
# PCOD8283661 Si02
#       5
#    16  16   8  16  16
#     4  11  26  49  73 110 151 196 250 309 374 452
#     4  12  28  45  76 110 155 201 246 299 376 446
#     4  12  26  48  75 116 149 194 248 306 374 454
#     4  11  26  48  77 105 151 193 251 309 376 453
#     4  12  27  50  76 108 146 194 255 314 380 444
#
# _framework density 21.944613
#
# number of rings (size 3 to 8) (size 9 to 14) (size 15 to 20)
#    0.000    0.444    4.444    2.667    9.333    0.889 
#    0.000    0.000    0.000    0.000    0.000    0.000 
#    0.000    0.000    0.000    0.000    0.000    0.000 
#
# Total GULP energy -446176.205383 kJ/mol
# GULP energy per Si atom -12393.783483 kJ/mol
# Density = 2.189467 g / cm^3
# Si number density = 21.944613 Si / 1000 Ang^3
#
#
#
# Elastic Constant Matrix: (Units=GPa)
#
#
# Indices 1 2 3 4 5 6 
#
# 1 191.1680 66.6392 66.4380 0.0000 0.0000 0.0000
# 2 66.6392 117.7996 53.7242 0.0000 0.0000 0.0000
# 3 66.4380 53.7242 127.0272 0.0000 0.0000 0.0000
# 4 0.0000 0.0000 0.0000 51.3040 0.0000 0.0000
# 5 0.0000 0.0000 0.0000 0.0000 43.8790 0.0000
# 6 0.0000 0.0000 0.0000 0.0000 0.0000 37.3951
#
#
#
# Elastic Compliance Matrix: (Units=1/GPa)
#
#
# Indices 1 2 3 4 5 6 
#
# 1 0.007102 -0.002879 -0.002497 0.000000 0.000000 0.000000
# 2 -0.002879 0.011685 -0.003436 0.000000 0.000000 0.000000
# 3 -0.002497 -0.003436 0.010632 0.000000 0.000000 0.000000
# 4 0.000000 0.000000 0.000000 0.019492 0.000000 0.000000
# 5 0.000000 0.000000 0.000000 0.000000 0.022790 0.000000
# 6 0.000000 0.000000 0.000000 0.000000 0.000000 0.026741
#
#
# Mechanical properties :
#
#
# Convention : Reuss Voigt Hill
#
# Bulk Modulus (GPa) = 84.78615 89.95527 87.37071
# Shear Modulus (GPa) = 41.66750 43.12853 42.39801
#
# Velocity S-wave (km/s) = 4.36220 4.43802 4.40027
# Velocity P-wave (km/s) = 8.00575 8.20624 8.10661
#
# Compressibility (1/GPa) = 0.01179438
#
# Stress axis : x y z
#
# Youngs Moduli (GPa) = 140.79703 85.58186 94.05916
#
# Poissons Ratio (x) = 0.24639 0.23487
# Poissons Ratio (y) = 0.40535 0.32320
# Poissons Ratio (z) = 0.35158 0.29407
#
# Static dielectric constant tensor:
#      x y z
#    x 4.476110 0.000000 0.000000 
#    y 0.000000 4.021490 0.000000 
#    z 0.000000 0.000000 3.712430 
# 
# 
# High freq. dielectric constant tensor:
#      x y z
#    x 1.896890 0.000000 0.000000 
#    y 0.000000 1.864200 0.000000 
#    z 0.000000 0.000000 1.871040 
# 
# From -- ./inp_files/19460.got.cif
#   From: 2010.03.12/outbox.cif.g09.slc.cpg/sg68_10_cif.got.tgz:19460.got - 2010.04.10 23:14:56.
