data_PCOD8283552
_publ_section_title
;
Structure prediction by ZEFSAII (Michael W. Deem and Ramdas Pophale) SiO2 
 PCOD8283552
Probable space group: C C C A
;
_chemical_formula_sum "Si O2"
_cell_formula_units_Z 88
_cell_length_a 5.046240
_cell_length_b 25.976776
_cell_length_c 29.986038
_cell_angle_alpha 90.000000
_cell_angle_beta 90.000000
_cell_angle_gamma 90.000000
_cell_volume 3930.721174
_symmetry_space_group_name_H-M "C C C A"
_symmetry_group_IT_number 68
_space_group.IT_coordinate_system_code '2'
_symmetry_cell_setting 'orthorhombic'
loop_
_space_group_symop_operation_xyz
x,y,z
-x,1/2-y,z
x,1/2-y,1/2-z
-x,y,1/2-z
-x,-y,-z
x,1/2+y,-z
-x,1/2+y,1/2+z
x,-y,1/2+z
1/2+x,1/2+y,z
1/2-x,-y,z
1/2+x,-y,1/2-z
1/2-x,1/2+y,1/2-z
1/2-x,1/2-y,-z
1/2+x,y,-z
1/2-x,y,1/2+z
1/2+x,1/2-y,1/2+z
loop_
_atom_site_type_symbol
_atom_site_label
_atom_site_fract_x
_atom_site_fract_y
_atom_site_fract_z
Si Si1 0.500000 0.374944 0.250000
Si Si2 0.226529 0.345523 0.125613
Si Si3 0.500000 0.184567 0.750000
Si Si4 0.282126 0.399138 0.339855
Si Si5 0.750000 0.500000 0.609122
Si Si6 0.250000 0.000000 0.447602
Si Si7 0.721069 0.885812 0.526465
Si Si8 0.000000 0.750000 0.830308
O O1 0.746681 0.343788 0.272039
O O2 0.352424 0.407955 0.287954
O O3 0.528202 0.355885 0.139338
O O4 0.204317 0.359874 0.073466
O O5 0.177654 0.284955 0.136563
O O6 0.019372 0.381297 0.152840
O O7 0.642240 0.213346 0.792591
O O8 0.349914 0.453080 0.361565
O O9 0.501933 0.481954 0.580615
O O10 0.188001 0.948373 0.475082
O O11 0.437979 0.866272 0.509046
#
# Coordination Sequence:
#
# PCOD8283552 Si02
#       8
#     8  16   8  16   8   8  16   8
#     4  12  22  43  65 101 136 179 217 287 330 392
#     4  12  25  44  67  97 136 176 222 275 350 402
#     4  11  24  40  69 103 136 159 239 292 328 381
#     4  12  23  43  65  97 138 181 218 273 334 406
#     4  12  22  41  67  98 134 182 224 260 333 415
#     4  12  22  41  71 100 128 168 228 282 339 399
#     4  12  24  43  66 101 134 168 222 283 340 405
#     4  11  24  44  70 104 130 180 224 284 340 399
#
# _framework density 22.387748999999999
#
# number of rings (size 3 to 8) (size 9 to 14) (size 15 to 20)
#    0.000    0.182    7.273    2.727    0.000    3.636 
#    0.000    4.545    0.000    0.000    0.000    0.000 
#    0.000    0.000    0.000    0.000    0.000    0.000 
#
# Total GULP energy -545117.965951 kJ/mol
# GULP energy per Si atom -12389.044681 kJ/mol
# Density = 2.233679 g / cm^3
# Si number density = 22.387749 Si / 1000 Ang^3
#
#
#
# Elastic Constant Matrix: (Units=GPa)
#
#
# Indices 1 2 3 4 5 6 
#
# 1 109.9904 12.7512 29.3877 0.0000 0.0000 0.0000
# 2 12.7512 70.4191 23.5260 0.0000 0.0000 0.0000
# 3 29.3877 23.5260 121.3019 0.0000 0.0000 0.0000
# 4 0.0000 0.0000 0.0000 64.5350 0.0000 0.0000
# 5 0.0000 0.0000 0.0000 0.0000 41.0556 0.0000
# 6 0.0000 0.0000 0.0000 0.0000 0.0000 24.8018
#
#
#
# Elastic Compliance Matrix: (Units=1/GPa)
#
#
# Indices 1 2 3 4 5 6 
#
# 1 0.009793 -0.001049 -0.002169 0.000000 0.000000 0.000000
# 2 -0.001049 0.015297 -0.002713 0.000000 0.000000 0.000000
# 3 -0.002169 -0.002713 0.009296 0.000000 0.000000 0.000000
# 4 0.000000 0.000000 0.000000 0.015495 0.000000 0.000000
# 5 0.000000 0.000000 0.000000 0.000000 0.024357 0.000000
# 6 0.000000 0.000000 0.000000 0.000000 0.000000 0.040320
#
#
# Mechanical properties :
#
#
# Convention : Reuss Voigt Hill
#
# Bulk Modulus (GPa) = 44.39641 48.11569 46.25605
# Shear Modulus (GPa) = 37.33390 41.81492 39.57441
#
# Velocity S-wave (km/s) = 4.08806 4.32645 4.20894
# Velocity P-wave (km/s) = 6.49282 6.81881 6.65781
#
# Compressibility (1/GPa) = 0.02252434
#
# Stress axis : x y z
#
# Youngs Moduli (GPa) = 102.11568 65.37297 107.57861
#
# Poissons Ratio (x) = 0.06855 0.23335
# Poissons Ratio (y) = 0.10708 0.29183
# Poissons Ratio (z) = 0.22150 0.17734
#
# Static dielectric constant tensor:
#      x y z
#    x 3.761130 0.000000 0.000000 
#    y 0.000000 4.045330 0.000000 
#    z 0.000000 0.000000 4.172370 
# 
# 
# High freq. dielectric constant tensor:
#      x y z
#    x 1.893050 0.000000 0.000000 
#    y 0.000000 1.851260 0.000000 
#    z 0.000000 0.000000 1.895510 
# 
# From -- ./inp_files/53424.got.cif
#   From: 2010.03.12/outbox.cif.g09.slc.cpg/sg68_27_cif.got.tgz:53424.got - 2010.04.10 23:14:56.
