data_PCOD8283895
_publ_section_title
;
Structure prediction by ZEFSAII (Michael W. Deem and Ramdas Pophale) SiO2 
 PCOD8283895
Probable space group: F M M M
;
_chemical_formula_sum "Si O2"
_cell_formula_units_Z 192
_cell_length_a 29.599000
_cell_length_b 19.520365
_cell_length_c 18.648250
_cell_angle_alpha 90.000000
_cell_angle_beta 90.000000
_cell_angle_gamma 90.000000
_cell_volume 10774.647119
_symmetry_space_group_name_H-M "F M M M"
_symmetry_group_IT_number 69
_symmetry_cell_setting 'orthorhombic'
loop_
_space_group_symop_operation_xyz
x,y,z
-x,-y,z
x,-y,-z
-x,y,-z
-x,-y,-z
x,y,-z
-x,y,z
x,-y,z
x,1/2+y,1/2+z
-x,1/2-y,1/2+z
x,1/2-y,1/2-z
-x,1/2+y,1/2-z
-x,1/2-y,1/2-z
x,1/2+y,1/2-z
-x,1/2+y,1/2+z
x,1/2-y,1/2+z
1/2+x,y,1/2+z
1/2-x,-y,1/2+z
1/2+x,-y,1/2-z
1/2-x,y,1/2-z
1/2-x,-y,1/2-z
1/2+x,y,1/2-z
1/2-x,y,1/2+z
1/2+x,-y,1/2+z
1/2+x,1/2+y,z
1/2-x,1/2-y,z
1/2+x,1/2-y,-z
1/2-x,1/2+y,-z
1/2-x,1/2-y,-z
1/2+x,1/2+y,-z
1/2-x,1/2+y,z
1/2+x,1/2-y,z
loop_
_atom_site_type_symbol
_atom_site_label
_atom_site_fract_x
_atom_site_fract_y
_atom_site_fract_z
Si Si1 0.365225 0.805595 0.342380
Si Si2 0.630184 0.652518 0.318622
Si Si3 0.048015 0.806855 0.919618
Si Si4 0.223009 0.419841 0.821089
Si Si5 0.949385 0.144225 0.418981
Si Si6 0.273554 0.678643 0.084370
O O1 0.358223 0.724372 0.357384
O O2 0.378570 0.826274 0.262635
O O3 0.408013 0.838098 0.382939
O O4 0.319299 0.837554 0.372136
O O5 0.670285 0.597794 0.317386
O O6 0.587104 0.618087 0.359640
O O7 0.050238 0.725448 0.916132
O O8 0.000000 0.830152 0.883737
O O9 0.048397 0.833856 0.000000
O O10 0.229726 0.500000 0.831300
O O11 0.250000 0.394108 0.750000
O O12 0.240854 0.382557 0.892303
O O13 0.935860 0.120188 0.500000
O O14 0.000000 0.116502 0.400427
O O15 0.250000 0.750000 0.106967
O O16 0.283240 0.676362 0.000000
#
# Coordination Sequence:
#
# PCOD8283895 Si02
#       6
#    32  32  32  32  32  32
#     4  10  18  29  48  76 104 132 172 219 260 311
#     4  10  19  30  51  75 100 137 174 217 265 310
#     4   8  14  25  41  65 102 139 164 199 256 315
#     4  11  23  39  56  74 104 144 180 220 270 323
#     4   8  15  28  46  71 104 138 172 212 261 318
#     4  11  22  35  55  79 105 138 174 220 271 320
#
# _framework density 17.819610000000001
#
# number of rings (size 3 to 8) (size 9 to 14) (size 15 to 20)
#    0.000    2.333    3.333    1.500    0.000    2.667 
#    0.000    3.333    0.000    0.500    0.000    1.167 
#    0.000    0.667    0.000    5.667    0.000    2.500 
#
# Total GULP energy -594694.383533 kJ/mol
# GULP energy per Si atom -12389.466324 kJ/mol
# Density = 1.777905 g / cm^3
# Si number density = 17.819610 Si / 1000 Ang^3
#
#
#
# Elastic Constant Matrix: (Units=GPa)
#
#
# Indices 1 2 3 4 5 6 
#
# 1 147.8551 22.6528 60.2361 0.0000 0.0000 0.0000
# 2 22.6528 42.4520 20.1847 0.0000 0.0000 0.0000
# 3 60.2361 20.1847 80.6285 0.0000 0.0000 0.0000
# 4 0.0000 0.0000 0.0000 10.8849 0.0000 0.0000
# 5 0.0000 0.0000 0.0000 0.0000 40.0708 0.0000
# 6 0.0000 0.0000 0.0000 0.0000 0.0000 10.4319
#
#
#
# Elastic Compliance Matrix: (Units=1/GPa)
#
#
# Indices 1 2 3 4 5 6 
#
# 1 0.009870 -0.001999 -0.006873 0.000000 0.000000 0.000000
# 2 -0.001999 0.027143 -0.005302 0.000000 0.000000 0.000000
# 3 -0.006873 -0.005302 0.018865 0.000000 0.000000 0.000000
# 4 0.000000 0.000000 0.000000 0.091870 0.000000 0.000000
# 5 0.000000 0.000000 0.000000 0.000000 0.024956 0.000000
# 6 0.000000 0.000000 0.000000 0.000000 0.000000 0.095860
#
#
# Mechanical properties :
#
#
# Convention : Reuss Voigt Hill
#
# Bulk Modulus (GPa) = 36.32359 53.00921 44.66640
# Shear Modulus (GPa) = 16.33519 23.46833 19.90176
#
# Velocity S-wave (km/s) = 3.03099 3.63298 3.34555
# Velocity P-wave (km/s) = 5.71642 6.88551 6.32802
#
# Compressibility (1/GPa) = 0.02753032
#
# Stress axis : x y z
#
# Youngs Moduli (GPa) = 101.32022 36.84125 53.00905
#
# Poissons Ratio (x) = 0.07363 0.36434
# Poissons Ratio (y) = 0.20250 0.28106
# Poissons Ratio (z) = 0.69639 0.19533
#
# Static dielectric constant tensor:
#      x y z
#    x 3.712480 0.000000 0.000000 
#    y 0.000000 2.750080 0.000000 
#    z 0.000000 0.000000 3.365530 
# 
# 
# High freq. dielectric constant tensor:
#      x y z
#    x 1.708630 0.000000 0.000000 
#    y 0.000000 1.624680 0.000000 
#    z 0.000000 0.000000 1.689540 
# 
# From -- ./inp_files/33557.got.cif
#   From: 2010.03.12/outbox.cif.g09.slc.cpg/sg69_17_cif.got.tgz:33557.got - 2010.04.10 23:52:46.
