data_PCOD8283075
_publ_section_title
;
Structure prediction by ZEFSAII (Michael W. Deem and Ramdas Pophale) SiO2 
 PCOD8283075
Probable space group: C C C A
;
_chemical_formula_sum "Si O2"
_cell_formula_units_Z 64
_cell_length_a 7.471890
_cell_length_b 12.234083
_cell_length_c 31.607259
_cell_angle_alpha 90.000000
_cell_angle_beta 90.000000
_cell_angle_gamma 90.000000
_cell_volume 2889.273986
_symmetry_space_group_name_H-M "C C C A"
_symmetry_group_IT_number 68
_space_group.IT_coordinate_system_code '2'
_symmetry_cell_setting 'orthorhombic'
loop_
_space_group_symop_operation_xyz
x,y,z
-x,1/2-y,z
x,1/2-y,1/2-z
-x,y,1/2-z
-x,-y,-z
x,1/2+y,-z
-x,1/2+y,1/2+z
x,-y,1/2+z
1/2+x,1/2+y,z
1/2-x,-y,z
1/2+x,-y,1/2-z
1/2-x,1/2+y,1/2-z
1/2-x,1/2-y,-z
1/2+x,y,-z
1/2-x,y,1/2+z
1/2+x,1/2-y,1/2+z
loop_
_atom_site_type_symbol
_atom_site_label
_atom_site_fract_x
_atom_site_fract_y
_atom_site_fract_z
Si Si1 0.067809 0.869751 0.451028
Si Si2 0.296933 0.730251 0.298528
Si Si3 0.879975 0.905896 0.142580
Si Si4 0.750000 0.000000 0.331989
Si Si5 0.750000 0.500000 0.018756
O O1 0.165840 0.871879 0.405521
O O2 0.000000 0.750000 0.460479
O O3 0.910922 0.961027 0.451428
O O4 0.205134 0.897619 0.488389
O O5 0.500000 0.750000 0.312314
O O6 0.251009 0.750000 0.250000
O O7 0.156980 0.799293 0.327760
O O8 0.287238 0.600759 0.301869
O O9 0.750000 0.000000 0.159524
O O10 0.079875 0.956637 0.141099
#
# Coordination Sequence:
#
# PCOD8283075 Si02
#       5
#    16  16  16   8   8
#     4  11  22  42  66  95 136 177 223 285 338 408
#     4  11  26  45  72 103 134 182 233 288 355 420
#     4  12  25  46  70 103 140 183 236 285 349 419
#     4  12  25  44  71  96 138 180 226 288 345 416
#     4  10  23  40  65 100 128 180 230 272 351 404
#
# _framework density 22.150895999999999
#
# number of rings (size 3 to 8) (size 9 to 14) (size 15 to 20)
#    0.000    0.750    3.750    3.750    1.750    2.000 
#    0.000    1.250    0.000    0.000    0.000    0.000 
#    0.000    0.000    0.000    0.000    0.000    0.000 
#
# Total GULP energy -396606.394057 kJ/mol
# GULP energy per Si atom -12393.949814 kJ/mol
# Density = 2.210048 g / cm^3
# Si number density = 22.150896 Si / 1000 Ang^3
#
#
#
# Elastic Constant Matrix: (Units=GPa)
#
#
# Indices 1 2 3 4 5 6 
#
# 1 98.5767 27.5470 22.1609 0.0000 0.0000 0.0000
# 2 27.5470 169.0753 49.3947 0.0000 0.0000 0.0000
# 3 22.1609 49.3947 126.3833 0.0000 0.0000 0.0000
# 4 0.0000 0.0000 0.0000 184.2409 0.0000 0.0000
# 5 0.0000 0.0000 0.0000 0.0000 36.4331 0.0000
# 6 0.0000 0.0000 0.0000 0.0000 0.0000 39.8596
#
#
#
# Elastic Compliance Matrix: (Units=1/GPa)
#
#
# Indices 1 2 3 4 5 6 
#
# 1 0.010833 -0.001366 -0.001366 0.000000 0.000000 0.000000
# 2 -0.001366 0.006849 -0.002437 0.000000 0.000000 0.000000
# 3 -0.001366 -0.002437 0.009104 0.000000 0.000000 0.000000
# 4 0.000000 0.000000 0.000000 0.005428 0.000000 0.000000
# 5 0.000000 0.000000 0.000000 0.000000 0.027448 0.000000
# 6 0.000000 0.000000 0.000000 0.000000 0.000000 0.025088
#
#
# Mechanical properties :
#
#
# Convention : Reuss Voigt Hill
#
# Bulk Modulus (GPa) = 60.79511 65.80450 63.29980
# Shear Modulus (GPa) = 49.71610 71.76892 60.74251
#
# Velocity S-wave (km/s) = 4.74268 5.69828 5.24230
# Velocity P-wave (km/s) = 7.58262 8.54785 8.07966
#
# Compressibility (1/GPa) = 0.01644869
#
# Stress axis : x y z
#
# Youngs Moduli (GPa) = 92.30936 146.00357 109.83592
#
# Poissons Ratio (x) = 0.19945 0.15000
# Poissons Ratio (y) = 0.12610 0.26771
# Poissons Ratio (z) = 0.12606 0.35586
#
# Static dielectric constant tensor:
#      x y z
#    x 3.688080 0.000000 0.000000 
#    y 0.000000 4.088760 0.000000 
#    z 0.000000 0.000000 3.698770 
# 
# 
# High freq. dielectric constant tensor:
#      x y z
#    x 1.877610 0.000000 0.000000 
#    y 0.000000 1.888030 0.000000 
#    z 0.000000 0.000000 1.865950 
# 
# From -- ./inp_files/53802.got.cif
#   From: 2010.03.12/outbox.cif.g09.slc.cpg/sg68_27_cif.got.tgz:53802.got - 2010.04.10 23:14:56.
