data_PCOD8283468
_publ_section_title
;
Structure prediction by ZEFSAII (Michael W. Deem and Ramdas Pophale) SiO2 
 PCOD8283468
Probable space group: C C C A
;
_chemical_formula_sum "Si O2"
_cell_formula_units_Z 52
_cell_length_a 16.388971
_cell_length_b 10.288347
_cell_length_c 14.160944
_cell_angle_alpha 90.000000
_cell_angle_beta 90.000000
_cell_angle_gamma 90.000000
_cell_volume 2387.753529
_symmetry_space_group_name_H-M "C C C A"
_symmetry_group_IT_number 68
_space_group.IT_coordinate_system_code '2'
_symmetry_cell_setting 'orthorhombic'
loop_
_space_group_symop_operation_xyz
x,y,z
-x,1/2-y,z
x,1/2-y,1/2-z
-x,y,1/2-z
-x,-y,-z
x,1/2+y,-z
-x,1/2+y,1/2+z
x,-y,1/2+z
1/2+x,1/2+y,z
1/2-x,-y,z
1/2+x,-y,1/2-z
1/2-x,1/2+y,1/2-z
1/2-x,1/2-y,-z
1/2+x,y,-z
1/2-x,y,1/2+z
1/2+x,1/2-y,1/2+z
loop_
_atom_site_type_symbol
_atom_site_label
_atom_site_fract_x
_atom_site_fract_y
_atom_site_fract_z
Si Si1 0.581625 0.048853 0.376890
Si Si2 0.500000 0.750000 0.750000
Si Si3 0.439395 0.130252 0.925075
Si Si4 0.311874 0.109974 0.763485
O O1 0.565631 0.168845 0.309032
O O2 0.612304 0.099279 0.479498
O O3 0.492245 0.991455 0.393166
O O4 0.645830 0.946856 0.331843
O O5 0.500000 0.250000 0.942101
O O6 0.377698 0.152834 0.840475
O O7 0.266286 0.250000 0.750000
O O8 0.250000 0.000000 0.801682
#
# Coordination Sequence:
#
# PCOD8283468 Si02
#       4
#    16   4  16  16
#     4  11  24  40  71 103 134 176 236 295 341 408
#     4  12  20  36  66 104 138 156 228 296 340 392
#     4  11  22  44  73 103 129 181 240 290 343 413
#     4  12  27  46  68 100 148 190 229 284 358 422
#
# _framework density 21.777791000000001
#
# number of rings (size 3 to 8) (size 9 to 14) (size 15 to 20)
#    0.000    0.615    7.692    0.000    2.154    1.231 
#    0.000    3.077    0.000    0.000    0.000    0.000 
#    0.000    0.000    0.000    0.000    0.000    0.000 
#
# Total GULP energy -322249.367881 kJ/mol
# GULP energy per Si atom -12394.206457 kJ/mol
# Density = 2.172822 g / cm^3
# Si number density = 21.777791 Si / 1000 Ang^3
#
#
#
# Elastic Constant Matrix: (Units=GPa)
#
#
# Indices 1 2 3 4 5 6 
#
# 1 51.2686 32.5406 23.5657 0.0000 0.0000 0.0000
# 2 32.5406 159.3103 50.8702 0.0000 0.0000 0.0000
# 3 23.5657 50.8702 116.7478 0.0000 0.0000 0.0000
# 4 0.0000 0.0000 0.0000 22.4651 0.0000 0.0000
# 5 0.0000 0.0000 0.0000 0.0000 5.2374 0.0000
# 6 0.0000 0.0000 0.0000 0.0000 0.0000 33.5824
#
#
#
# Elastic Compliance Matrix: (Units=1/GPa)
#
#
# Indices 1 2 3 4 5 6 
#
# 1 0.023313 -0.003786 -0.003056 0.000000 0.000000 0.000000
# 2 -0.003786 0.007906 -0.002681 0.000000 0.000000 0.000000
# 3 -0.003056 -0.002681 0.010350 0.000000 0.000000 0.000000
# 4 0.000000 0.000000 0.000000 0.044514 0.000000 0.000000
# 5 0.000000 0.000000 0.000000 0.000000 0.190933 0.000000
# 6 0.000000 0.000000 0.000000 0.000000 0.000000 0.029777
#
#
# Mechanical properties :
#
#
# Convention : Reuss Voigt Hill
#
# Bulk Modulus (GPa) = 44.39726 60.14220 52.26973
# Shear Modulus (GPa) = 14.99935 26.94699 20.97317
#
# Velocity S-wave (km/s) = 2.62724 3.52143 3.10668
# Velocity P-wave (km/s) = 5.44371 6.64908 6.07635
#
# Compressibility (1/GPa) = 0.02252391
#
# Stress axis : x y z
#
# Youngs Moduli (GPa) = 42.89475 126.47949 96.61421
#
# Poissons Ratio (x) = 0.47886 0.29526
# Poissons Ratio (y) = 0.16240 0.25901
# Poissons Ratio (z) = 0.13109 0.33907
#
# Static dielectric constant tensor:
#      x y z
#    x 3.525350 0.000000 0.000000 
#    y 0.000000 4.245450 0.000000 
#    z 0.000000 0.000000 4.265480 
# 
# 
# High freq. dielectric constant tensor:
#      x y z
#    x 1.818230 0.000000 0.000000 
#    y 0.000000 1.881240 0.000000 
#    z 0.000000 0.000000 1.865960 
# 
# From -- ./inp_files/20122.got.cif
#   From: 2010.03.12/outbox.cif.g09.slc.cpg/sg68_11_cif.got.tgz:20122.got - 2010.04.10 23:14:56.
