data_PCOD8283647
_publ_section_title
;
Structure prediction by ZEFSAII (Michael W. Deem and Ramdas Pophale) SiO2 
 PCOD8283647
Probable space group: C C C A
;
_chemical_formula_sum "Si O2"
_cell_formula_units_Z 80
_cell_length_a 16.856321
_cell_length_b 7.551041
_cell_length_c 27.367093
_cell_angle_alpha 90.000000
_cell_angle_beta 90.000000
_cell_angle_gamma 90.000000
_cell_volume 3483.359431
_symmetry_space_group_name_H-M "C C C A"
_symmetry_group_IT_number 68
_space_group.IT_coordinate_system_code '2'
_symmetry_cell_setting 'orthorhombic'
loop_
_space_group_symop_operation_xyz
x,y,z
-x,1/2-y,z
x,1/2-y,1/2-z
-x,y,1/2-z
-x,-y,-z
x,1/2+y,-z
-x,1/2+y,1/2+z
x,-y,1/2+z
1/2+x,1/2+y,z
1/2-x,-y,z
1/2+x,-y,1/2-z
1/2-x,1/2+y,1/2-z
1/2-x,1/2-y,-z
1/2+x,y,-z
1/2-x,y,1/2+z
1/2+x,1/2-y,1/2+z
loop_
_atom_site_type_symbol
_atom_site_label
_atom_site_fract_x
_atom_site_fract_y
_atom_site_fract_z
Si Si1 0.416601 0.349638 0.955509
Si Si2 0.413891 0.693350 0.194354
Si Si3 0.842007 0.497886 0.948292
Si Si4 0.911820 0.822689 0.147514
Si Si5 0.339624 0.518738 0.366842
O O1 0.500000 0.250000 0.956011
O O2 0.403032 0.492517 0.912257
O O3 0.353148 0.204481 0.939208
O O4 0.398180 0.437523 0.007169
O O5 0.500000 0.750000 0.174134
O O6 0.403717 0.750000 0.250000
O O7 0.406091 0.481357 0.187130
O O8 0.348250 0.800022 0.163748
O O9 0.750000 0.500000 0.961514
O O10 0.869332 0.385112 0.902228
O O11 0.861230 0.653209 0.166440
O O12 0.000000 0.750000 0.139296
O O13 0.250000 0.500000 0.385975
#
# Coordination Sequence:
#
# PCOD8283647 Si02
#       5
#    16  16  16  16  16
#     4  12  23  42  66  98 147 189 246 295 342 423
#     4  11  25  50  75 103 137 178 236 296 350 432
#     4  12  24  40  64 102 145 190 238 298 353 418
#     4  12  24  44  74 102 139 187 235 286 361 427
#     4  12  25  45  70 106 144 185 232 296 360 423
#
# _framework density 22.966335999999998
#
# number of rings (size 3 to 8) (size 9 to 14) (size 15 to 20)
#    0.000    0.200    4.000    6.600    0.000    0.800 
#    3.600    0.000    0.000    0.000    0.000    0.000 
#    0.000    0.000    0.000    0.000    0.000    0.000 
#
# Total GULP energy -495804.364768 kJ/mol
# GULP energy per Si atom -12395.109119 kJ/mol
# Density = 2.291406 g / cm^3
# Si number density = 22.966336 Si / 1000 Ang^3
#
#
#
# Elastic Constant Matrix: (Units=GPa)
#
#
# Indices 1 2 3 4 5 6 
#
# 1 114.6723 29.6459 45.6808 0.0000 0.0000 0.0000
# 2 29.6459 140.3644 34.9916 0.0000 0.0000 0.0000
# 3 45.6808 34.9916 103.8697 0.0000 0.0000 0.0000
# 4 0.0000 0.0000 0.0000 31.5729 0.0000 0.0000
# 5 0.0000 0.0000 0.0000 0.0000 18.3194 0.0000
# 6 0.0000 0.0000 0.0000 0.0000 0.0000 38.0558
#
#
#
# Elastic Compliance Matrix: (Units=1/GPa)
#
#
# Indices 1 2 3 4 5 6 
#
# 1 0.010753 -0.001192 -0.004327 0.000000 0.000000 0.000000
# 2 -0.001192 0.007910 -0.002140 0.000000 0.000000 0.000000
# 3 -0.004327 -0.002140 0.012252 0.000000 0.000000 0.000000
# 4 0.000000 0.000000 0.000000 0.031673 0.000000 0.000000
# 5 0.000000 0.000000 0.000000 0.000000 0.054587 0.000000
# 6 0.000000 0.000000 0.000000 0.000000 0.000000 0.026277
#
#
# Mechanical properties :
#
#
# Convention : Reuss Voigt Hill
#
# Bulk Modulus (GPa) = 64.12618 64.39366 64.25992
# Shear Modulus (GPa) = 30.49374 34.16217 32.32795
#
# Velocity S-wave (km/s) = 3.64779 3.86098 3.75590
# Velocity P-wave (km/s) = 6.76198 6.92643 6.84469
#
# Compressibility (1/GPa) = 0.01559425
#
# Stress axis : x y z
#
# Youngs Moduli (GPa) = 93.00145 126.42737 81.62254
#
# Poissons Ratio (x) = 0.15074 0.35320
# Poissons Ratio (y) = 0.11088 0.17469
# Poissons Ratio (z) = 0.40244 0.27059
#
# Static dielectric constant tensor:
#      x y z
#    x 4.293280 0.000000 0.000000 
#    y 0.000000 6.231160 0.000000 
#    z 0.000000 0.000000 3.874010 
# 
# 
# High freq. dielectric constant tensor:
#      x y z
#    x 1.910530 0.000000 0.000000 
#    y 0.000000 1.937100 0.000000 
#    z 0.000000 0.000000 1.886630 
# 
# From -- ./inp_files/55544.got.cif
#   From: 2010.03.12/outbox.cif.g09.slc.cpg/sg68_28_cif.got.tgz:55544.got - 2010.04.10 23:14:56.
