data_PCOD8283032
_publ_section_title
;
Structure prediction by ZEFSAII (Michael W. Deem and Ramdas Pophale) SiO2 
 PCOD8283032
Probable space group: C C C A
;
_chemical_formula_sum "Si O2"
_cell_formula_units_Z 40
_cell_length_a 7.210890
_cell_length_b 11.250388
_cell_length_c 19.396248
_cell_angle_alpha 90.000000
_cell_angle_beta 90.000000
_cell_angle_gamma 90.000000
_cell_volume 1573.526638
_symmetry_space_group_name_H-M "C C C A"
_symmetry_group_IT_number 68
_space_group.IT_coordinate_system_code '2'
_symmetry_cell_setting 'orthorhombic'
loop_
_space_group_symop_operation_xyz
x,y,z
-x,1/2-y,z
x,1/2-y,1/2-z
-x,y,1/2-z
-x,-y,-z
x,1/2+y,-z
-x,1/2+y,1/2+z
x,-y,1/2+z
1/2+x,1/2+y,z
1/2-x,-y,z
1/2+x,-y,1/2-z
1/2-x,1/2+y,1/2-z
1/2-x,1/2-y,-z
1/2+x,y,-z
1/2-x,y,1/2+z
1/2+x,1/2-y,1/2+z
loop_
_atom_site_type_symbol
_atom_site_label
_atom_site_fract_x
_atom_site_fract_y
_atom_site_fract_z
Si Si1 0.338221 0.122334 0.198233
Si Si2 0.537759 0.993745 0.080261
Si Si3 0.500000 0.250000 0.650384
O O1 0.500000 0.161640 0.250000
O O2 0.423730 0.094737 0.121859
O O3 0.189307 0.233004 0.195433
O O4 0.250000 0.000000 0.227830
O O5 0.750000 0.000000 0.099316
O O6 0.478990 0.864049 0.103166
O O7 0.500000 0.000000 0.000000
#
# Coordination Sequence:
#
# PCOD8283032 Si02
#       3
#    16  16   8
#     4  10  22  45  71 103 147 189 243 305 363 440
#     4  11  24  44  71 104 143 187 243 306 361 434
#     4  10  24  46  73 104 141 194 242 292 376 438
#
# _framework density 25.420604000000001
#
# number of rings (size 3 to 8) (size 9 to 14) (size 15 to 20)
#    0.000    1.600    0.000    4.800    0.000    8.000 
#    0.000   54.000    0.000    0.000    0.000    0.000 
#    0.000    0.000    0.000    0.000    0.000    0.000 
#
# Total GULP energy -247821.352741 kJ/mol
# GULP energy per Si atom -12391.067637 kJ/mol
# Density = 2.536275 g / cm^3
# Si number density = 25.420604 Si / 1000 Ang^3
#
#
#
# Elastic Constant Matrix: (Units=GPa)
#
#
# Indices 1 2 3 4 5 6 
#
# 1 222.2995 51.2408 71.1922 0.0000 0.0000 0.0000
# 2 51.2408 92.0509 49.9218 0.0000 0.0000 0.0000
# 3 71.1922 49.9218 203.0236 0.0000 0.0000 0.0000
# 4 0.0000 0.0000 0.0000 -32.4743 0.0000 0.0000
# 5 0.0000 0.0000 0.0000 0.0000 49.3191 0.0000
# 6 0.0000 0.0000 0.0000 0.0000 0.0000 64.0610
#
#
#
# Elastic Compliance Matrix: (Units=1/GPa)
#
#
# Indices 1 2 3 4 5 6 
#
# 1 0.005462 -0.002310 -0.001347 0.000000 0.000000 0.000000
# 2 -0.002310 0.013512 -0.002512 0.000000 0.000000 0.000000
# 3 -0.001347 -0.002512 0.006016 0.000000 0.000000 0.000000
# 4 0.000000 0.000000 0.000000 -0.030794 0.000000 0.000000
# 5 0.000000 0.000000 0.000000 0.000000 0.020276 0.000000
# 6 0.000000 0.000000 0.000000 0.000000 0.000000 0.015610
#
#
# Mechanical properties :
#
#
# Convention : Reuss Voigt Hill
#
# Bulk Modulus (GPa) = 79.04829 95.78707 87.41768
# Shear Modulus (GPa) = 107.20550 39.18246 73.19398
#
# Velocity S-wave (km/s) = 6.50109 3.93028 5.37175
# Velocity P-wave (km/s) = 9.35500 7.63930 8.54034
#
# Compressibility (1/GPa) = 0.01265049
#
# Stress axis : x y z
#
# Youngs Moduli (GPa) = 183.06944 74.00836 166.22803
#
# Poissons Ratio (x) = 0.17095 0.22398
# Poissons Ratio (y) = 0.42288 0.41765
# Poissons Ratio (z) = 0.24668 0.18594
#
# Static dielectric constant tensor:
#      x y z
#    x 5.018300 0.000000 0.000000 
#    y 0.000000 4.781400 0.000000 
#    z 0.000000 0.000000 4.584080 
# 
# 
# High freq. dielectric constant tensor:
#      x y z
#    x 2.050390 0.000000 0.000000 
#    y 0.000000 2.019580 0.000000 
#    z 0.000000 0.000000 2.022330 
# 
# From -- ./inp_files/27276.got.cif
#   From: 2010.03.12/outbox.cif.g09.slc.cpg/sg68_14_cif.got.tgz:27276.got - 2010.04.10 23:14:56.
