data_PCOD8283566
_publ_section_title
;
Structure prediction by ZEFSAII (Michael W. Deem and Ramdas Pophale) SiO2 
 PCOD8283566
Probable space group: C C C A
;
_chemical_formula_sum "Si O2"
_cell_formula_units_Z 52
_cell_length_a 11.972704
_cell_length_b 20.249093
_cell_length_c 9.417715
_cell_angle_alpha 90.000000
_cell_angle_beta 90.000000
_cell_angle_gamma 90.000000
_cell_volume 2283.196890
_symmetry_space_group_name_H-M "C C C A"
_symmetry_group_IT_number 68
_space_group.IT_coordinate_system_code '2'
_symmetry_cell_setting 'orthorhombic'
loop_
_space_group_symop_operation_xyz
x,y,z
-x,1/2-y,z
x,1/2-y,1/2-z
-x,y,1/2-z
-x,-y,-z
x,1/2+y,-z
-x,1/2+y,1/2+z
x,-y,1/2+z
1/2+x,1/2+y,z
1/2-x,-y,z
1/2+x,-y,1/2-z
1/2-x,1/2+y,1/2-z
1/2-x,1/2-y,-z
1/2+x,y,-z
1/2-x,y,1/2+z
1/2+x,1/2-y,1/2+z
loop_
_atom_site_type_symbol
_atom_site_label
_atom_site_fract_x
_atom_site_fract_y
_atom_site_fract_z
Si Si1 0.190051 0.687570 0.926995
Si Si2 0.214105 0.601671 0.178230
Si Si3 0.576184 0.021520 0.631748
Si Si4 0.500000 0.250000 0.750000
O O1 0.268555 0.648133 0.815308
O O2 0.076741 0.705594 0.848960
O O3 0.250000 0.750000 0.000000
O O4 0.151811 0.641506 0.055103
O O5 0.328074 0.575407 0.101291
O O6 0.132956 0.540906 0.213100
O O7 0.500000 0.055994 0.750000
O O8 0.500000 0.000000 0.500000
#
# Coordination Sequence:
#
# PCOD8283566 Si02
#       4
#    16  16  16   4
#     4  12  25  47  70 102 142 188 240 297 348 421
#     4  11  25  43  70 103 144 180 234 299 348 422
#     4  11  24  42  69 105 139 186 231 285 364 428
#     4  12  28  44  74  98 136 196 238 280 370 406
#
# _framework density 22.775082999999999
#
# number of rings (size 3 to 8) (size 9 to 14) (size 15 to 20)
#    0.000    0.615    3.077    3.692    6.462    7.385 
#    0.000    1.538    0.000    0.000    0.000    0.000 
#    0.000    0.000    0.000    0.000    0.000    0.000 
#
# Total GULP energy -322238.322357 kJ/mol
# GULP energy per Si atom -12393.781629 kJ/mol
# Density = 2.272325 g / cm^3
# Si number density = 22.775083 Si / 1000 Ang^3
#
#
#
# Elastic Constant Matrix: (Units=GPa)
#
#
# Indices 1 2 3 4 5 6 
#
# 1 97.1092 32.7357 22.8663 0.0000 0.0000 0.0000
# 2 32.7357 103.9349 38.0184 0.0000 0.0000 0.0000
# 3 22.8663 38.0184 116.2497 0.0000 0.0000 0.0000
# 4 0.0000 0.0000 0.0000 56.2496 0.0000 0.0000
# 5 0.0000 0.0000 0.0000 0.0000 44.7845 0.0000
# 6 0.0000 0.0000 0.0000 0.0000 0.0000 31.6236
#
#
#
# Elastic Compliance Matrix: (Units=1/GPa)
#
#
# Indices 1 2 3 4 5 6 
#
# 1 0.011677 -0.003223 -0.001243 0.000000 0.000000 0.000000
# 2 -0.003223 0.011819 -0.003231 0.000000 0.000000 0.000000
# 3 -0.001243 -0.003231 0.009903 0.000000 0.000000 0.000000
# 4 0.000000 0.000000 0.000000 0.017778 0.000000 0.000000
# 5 0.000000 0.000000 0.000000 0.000000 0.022329 0.000000
# 6 0.000000 0.000000 0.000000 0.000000 0.000000 0.031622
#
#
# Mechanical properties :
#
#
# Convention : Reuss Voigt Hill
#
# Bulk Modulus (GPa) = 55.54140 56.05939 55.80039
# Shear Modulus (GPa) = 39.51839 41.44310 40.48074
#
# Velocity S-wave (km/s) = 4.17004 4.27038 4.22051
# Velocity P-wave (km/s) = 6.90113 6.99876 6.95012
#
# Compressibility (1/GPa) = 0.01800459
#
# Stress axis : x y z
#
# Youngs Moduli (GPa) = 85.63946 84.61295 100.97616
#
# Poissons Ratio (x) = 0.27273 0.12548
# Poissons Ratio (y) = 0.27603 0.32627
# Poissons Ratio (z) = 0.10643 0.27340
#
# Static dielectric constant tensor:
#      x y z
#    x 4.037440 0.000000 0.000000 
#    y 0.000000 4.402080 0.000000 
#    z 0.000000 0.000000 4.156500 
# 
# 
# High freq. dielectric constant tensor:
#      x y z
#    x 1.896980 0.000000 0.000000 
#    y 0.000000 1.913970 0.000000 
#    z 0.000000 0.000000 1.907830 
# 
# From -- ./inp_files/3813.got.cif
#   From: 2010.03.12/outbox.cif.g09.slc.cpg/sg68_2_cif.got.tgz:3813.got - 2010.04.10 23:14:56.
