data_PCOD8283857
_publ_section_title
;
Structure prediction by ZEFSAII (Michael W. Deem and Ramdas Pophale) SiO2 
 PCOD8283857
Probable space group: F M M M
;
_chemical_formula_sum "Si O2"
_cell_formula_units_Z 112
_cell_length_a 8.551447
_cell_length_b 25.974174
_cell_length_c 29.218376
_cell_angle_alpha 90.000000
_cell_angle_beta 90.000000
_cell_angle_gamma 90.000000
_cell_volume 6489.891370
_symmetry_space_group_name_H-M "F M M M"
_symmetry_group_IT_number 69
_symmetry_cell_setting 'orthorhombic'
loop_
_space_group_symop_operation_xyz
x,y,z
-x,-y,z
x,-y,-z
-x,y,-z
-x,-y,-z
x,y,-z
-x,y,z
x,-y,z
x,1/2+y,1/2+z
-x,1/2-y,1/2+z
x,1/2-y,1/2-z
-x,1/2+y,1/2-z
-x,1/2-y,1/2-z
x,1/2+y,1/2-z
-x,1/2+y,1/2+z
x,1/2-y,1/2+z
1/2+x,y,1/2+z
1/2-x,-y,1/2+z
1/2+x,-y,1/2-z
1/2-x,y,1/2-z
1/2-x,-y,1/2-z
1/2+x,y,1/2-z
1/2-x,y,1/2+z
1/2+x,-y,1/2+z
1/2+x,1/2+y,z
1/2-x,1/2-y,z
1/2+x,1/2-y,-z
1/2-x,1/2+y,-z
1/2-x,1/2-y,-z
1/2+x,1/2+y,-z
1/2-x,1/2+y,z
1/2+x,1/2-y,z
loop_
_atom_site_type_symbol
_atom_site_label
_atom_site_fract_x
_atom_site_fract_y
_atom_site_fract_z
Si Si1 0.814344 0.304419 0.199992
Si Si2 0.814043 0.941795 0.450140
Si Si3 0.313964 0.401486 0.643897
Si Si4 0.185656 0.000000 0.300619
O O1 0.750000 0.317516 0.250000
O O2 0.750000 0.250000 0.181960
O O3 0.752367 0.348193 0.165338
O O4 0.000000 0.302298 0.202431
O O5 0.755846 0.921070 0.500000
O O6 0.750897 0.906437 0.408468
O O7 0.000000 0.942196 0.449168
O O8 0.753387 0.000000 0.442758
O O9 0.500000 0.402256 0.644541
O O10 0.250434 0.449464 0.673409
O O11 0.250000 0.000000 0.250000
O O12 0.000000 0.000000 0.299427
#
# Coordination Sequence:
#
# PCOD8283857 Si02
#       4
#    32  32  32  16
#     4  10  19  31  46  63  85 115 150 184 214 250
#     4   8  12  20  37  61  88 114 139 170 212 259
#     4   9  16  26  41  62  88 115 140 173 218 259
#     4  10  18  28  41  61  91 117 138 168 211 262
#
# _framework density 17.257607
#
# number of rings (size 3 to 8) (size 9 to 14) (size 15 to 20)
#    0.000    2.857    1.429    3.429    0.000    0.000 
#    0.000    1.429    0.000    0.857    0.000    0.000 
#    0.000   10.286    0.000    0.000    0.000    1.143 
#
# Total GULP energy -346988.218426 kJ/mol
# GULP energy per Si atom -12392.436372 kJ/mol
# Density = 1.721833 g / cm^3
# Si number density = 17.257607 Si / 1000 Ang^3
#
#
#
# Elastic Constant Matrix: (Units=GPa)
#
#
# Indices 1 2 3 4 5 6 
#
# 1 25.4319 18.3600 13.3048 0.0000 0.0000 0.0000
# 2 18.3600 147.8597 104.0462 0.0000 0.0000 0.0000
# 3 13.3048 104.0462 179.3668 0.0000 0.0000 0.0000
# 4 0.0000 0.0000 0.0000 30.0928 0.0000 0.0000
# 5 0.0000 0.0000 0.0000 0.0000 12.9085 0.0000
# 6 0.0000 0.0000 0.0000 0.0000 0.0000 11.3629
#
#
#
# Elastic Compliance Matrix: (Units=1/GPa)
#
#
# Indices 1 2 3 4 5 6 
#
# 1 0.043195 -0.005253 -0.000157 0.000000 0.000000 0.000000
# 2 -0.005253 0.012067 -0.006610 0.000000 0.000000 0.000000
# 3 -0.000157 -0.006610 0.009421 0.000000 0.000000 0.000000
# 4 0.000000 0.000000 0.000000 0.033231 0.000000 0.000000
# 5 0.000000 0.000000 0.000000 0.000000 0.077469 0.000000
# 6 0.000000 0.000000 0.000000 0.000000 0.000000 0.088006
#
#
# Mechanical properties :
#
#
# Convention : Reuss Voigt Hill
#
# Bulk Modulus (GPa) = 24.60453 69.34228 46.97340
# Shear Modulus (GPa) = 16.61265 25.33599 20.97432
#
# Velocity S-wave (km/s) = 3.10599 3.83574 3.48999
# Velocity P-wave (km/s) = 5.21067 7.73855 6.59683
#
# Compressibility (1/GPa) = 0.04064293
#
# Stress axis : x y z
#
# Youngs Moduli (GPa) = 23.15075 82.87205 106.14497
#
# Poissons Ratio (x) = 0.43535 0.01664
# Poissons Ratio (y) = 0.12162 0.70162
# Poissons Ratio (z) = 0.00363 0.54778
#
# Static dielectric constant tensor:
#      x y z
#    x 2.742720 0.000000 0.000000 
#    y 0.000000 3.384000 0.000000 
#    z 0.000000 0.000000 3.727670 
# 
# 
# High freq. dielectric constant tensor:
#      x y z
#    x 1.619430 0.000000 0.000000 
#    y 0.000000 1.651900 0.000000 
#    z 0.000000 0.000000 1.675320 
# 
# From -- ./inp_files/3742.got.cif
#   From: 2010.03.12/outbox.cif.g09.slc.cpg/sg69_2_cif.got.tgz:3742.got - 2010.04.10 23:52:46.
