data_PCOD8283403
_publ_section_title
;
Structure prediction by ZEFSAII (Michael W. Deem and Ramdas Pophale) SiO2 
 PCOD8283403
Probable space group: C C C A
;
_chemical_formula_sum "Si O2"
_cell_formula_units_Z 76
_cell_length_a 13.780448
_cell_length_b 22.367552
_cell_length_c 11.594915
_cell_angle_alpha 90.000000
_cell_angle_beta 90.000000
_cell_angle_gamma 90.000000
_cell_volume 3573.957317
_symmetry_space_group_name_H-M "C C C A"
_symmetry_group_IT_number 68
_space_group.IT_coordinate_system_code '2'
_symmetry_cell_setting 'orthorhombic'
loop_
_space_group_symop_operation_xyz
x,y,z
-x,1/2-y,z
x,1/2-y,1/2-z
-x,y,1/2-z
-x,-y,-z
x,1/2+y,-z
-x,1/2+y,1/2+z
x,-y,1/2+z
1/2+x,1/2+y,z
1/2-x,-y,z
1/2+x,-y,1/2-z
1/2-x,1/2+y,1/2-z
1/2-x,1/2-y,-z
1/2+x,y,-z
1/2-x,y,1/2+z
1/2+x,1/2-y,1/2+z
loop_
_atom_site_type_symbol
_atom_site_label
_atom_site_fract_x
_atom_site_fract_y
_atom_site_fract_z
Si Si1 0.655593 0.283041 0.871330
Si Si2 0.126187 0.308638 0.561633
Si Si3 0.615660 0.587303 0.346828
Si Si4 0.750000 0.500000 0.970579
Si Si5 0.000000 0.250000 0.750000
Si Si6 0.407693 0.925316 0.085628
O O1 0.645636 0.250000 0.750000
O O2 0.764563 0.302742 0.895928
O O3 0.596718 0.344484 0.884715
O O4 0.606729 0.240745 0.964969
O O5 0.103315 0.373591 0.509701
O O6 0.061329 0.295677 0.672788
O O7 0.712429 0.555541 0.394056
O O8 0.631550 0.593433 0.210285
O O9 0.519383 0.553197 0.394064
O O10 0.658257 0.519159 0.047152
#
# Coordination Sequence:
#
# PCOD8283403 Si02
#       6
#    16  16  16   8   4  16
#     4  11  21  42  72  97 134 183 221 281 344 407
#     4  11  23  40  65 100 140 174 224 280 347 406
#     4  11  24  43  68  97 133 174 234 276 336 410
#     4  12  24  46  68  94 136 178 222 292 334 392
#     4  12  24  40  58 108 144 170 224 286 346 420
#     4  11  24  44  67  99 131 178 228 274 338 406
#
# _framework density 21.264942999999999
#
# number of rings (size 3 to 8) (size 9 to 14) (size 15 to 20)
#    0.000    0.842    5.263    2.526    0.000    0.000 
#    3.789    2.105    0.000    0.000    0.000    0.000 
#    0.000    0.000    0.000    0.000    0.000    0.000 
#
# Total GULP energy -471107.056700 kJ/mol
# GULP energy per Si atom -12397.554124 kJ/mol
# Density = 2.121654 g / cm^3
# Si number density = 21.264943 Si / 1000 Ang^3
#
#
#
# Elastic Constant Matrix: (Units=GPa)
#
#
# Indices 1 2 3 4 5 6 
#
# 1 72.3068 21.6893 50.5001 0.0000 0.0000 0.0000
# 2 21.6893 93.4431 39.5311 0.0000 0.0000 0.0000
# 3 50.5001 39.5311 124.3981 0.0000 0.0000 0.0000
# 4 0.0000 0.0000 0.0000 35.3112 0.0000 0.0000
# 5 0.0000 0.0000 0.0000 0.0000 41.0434 0.0000
# 6 0.0000 0.0000 0.0000 0.0000 0.0000 31.4882
#
#
#
# Elastic Compliance Matrix: (Units=1/GPa)
#
#
# Indices 1 2 3 4 5 6 
#
# 1 0.019451 -0.001357 -0.007465 0.000000 0.000000 0.000000
# 2 -0.001357 0.012458 -0.003408 0.000000 0.000000 0.000000
# 3 -0.007465 -0.003408 0.012152 0.000000 0.000000 0.000000
# 4 0.000000 0.000000 0.000000 0.028320 0.000000 0.000000
# 5 0.000000 0.000000 0.000000 0.000000 0.024364 0.000000
# 6 0.000000 0.000000 0.000000 0.000000 0.000000 0.031758
#
#
# Mechanical properties :
#
#
# Convention : Reuss Voigt Hill
#
# Bulk Modulus (GPa) = 51.01669 57.06545 54.04107
# Shear Modulus (GPa) = 31.34859 33.46374 32.40617
#
# Velocity S-wave (km/s) = 3.84369 3.97124 3.90798
# Velocity P-wave (km/s) = 6.61374 6.92253 6.76990
#
# Compressibility (1/GPa) = 0.01960143
#
# Stress axis : x y z
#
# Youngs Moduli (GPa) = 51.41251 80.26669 82.28948
#
# Poissons Ratio (x) = 0.10890 0.61429
# Poissons Ratio (y) = 0.06975 0.28047
# Poissons Ratio (z) = 0.38379 0.27357
#
# Static dielectric constant tensor:
#      x y z
#    x 3.889740 0.000000 0.000000 
#    y 0.000000 3.724000 0.000000 
#    z 0.000000 0.000000 3.914790 
# 
# 
# High freq. dielectric constant tensor:
#      x y z
#    x 1.847770 0.000000 0.000000 
#    y 0.000000 1.829060 0.000000 
#    z 0.000000 0.000000 1.841740 
# 
# From -- ./inp_files/13227.got.cif
#   From: 2010.03.12/outbox.cif.g09.slc.cpg/sg68_7_cif.got.tgz:13227.got - 2010.04.10 23:14:56.
