data_PCOD8283987
_publ_section_title
;
Structure prediction by ZEFSAII (Michael W. Deem and Ramdas Pophale) SiO2 
 PCOD8283987
Probable space group: F M M M
;
_chemical_formula_sum "Si O2"
_cell_formula_units_Z 208
_cell_length_a 16.520973
_cell_length_b 27.689674
_cell_length_c 25.418581
_cell_angle_alpha 90.000000
_cell_angle_beta 90.000000
_cell_angle_gamma 90.000000
_cell_volume 11627.993127
_symmetry_space_group_name_H-M "F M M M"
_symmetry_group_IT_number 69
_symmetry_cell_setting 'orthorhombic'
loop_
_space_group_symop_operation_xyz
x,y,z
-x,-y,z
x,-y,-z
-x,y,-z
-x,-y,-z
x,y,-z
-x,y,z
x,-y,z
x,1/2+y,1/2+z
-x,1/2-y,1/2+z
x,1/2-y,1/2-z
-x,1/2+y,1/2-z
-x,1/2-y,1/2-z
x,1/2+y,1/2-z
-x,1/2+y,1/2+z
x,1/2-y,1/2+z
1/2+x,y,1/2+z
1/2-x,-y,1/2+z
1/2+x,-y,1/2-z
1/2-x,y,1/2-z
1/2-x,-y,1/2-z
1/2+x,y,1/2-z
1/2-x,y,1/2+z
1/2+x,-y,1/2+z
1/2+x,1/2+y,z
1/2-x,1/2-y,z
1/2+x,1/2-y,-z
1/2-x,1/2+y,-z
1/2-x,1/2-y,-z
1/2+x,1/2+y,-z
1/2-x,1/2+y,z
1/2+x,1/2-y,z
loop_
_atom_site_type_symbol
_atom_site_label
_atom_site_fract_x
_atom_site_fract_y
_atom_site_fract_z
Si Si1 0.821515 0.182882 0.061903
Si Si2 0.853468 0.287835 0.938083
Si Si3 0.500000 0.654219 0.440468
Si Si4 0.665561 0.055100 0.163307
Si Si5 0.000000 0.946566 0.399089
Si Si6 0.592865 0.056461 0.271747
Si Si7 0.832044 0.411617 0.376565
Si Si8 0.594044 0.000000 0.562475
O O1 0.873176 0.231464 0.073924
O O2 0.732107 0.194474 0.083866
O O3 0.855648 0.138322 0.095171
O O4 0.823825 0.169813 0.000000
O O5 0.921539 0.322488 0.912422
O O6 0.847512 0.294984 0.000000
O O7 0.500000 0.672674 0.500000
O O8 0.500000 0.596137 0.441510
O O9 0.579666 0.060167 0.135243
O O10 0.650703 0.071803 0.223387
O O11 0.735424 0.085776 0.134668
O O12 0.695779 0.000000 0.162699
O O13 0.000000 0.000000 0.425841
O O14 0.500000 0.067977 0.257503
O O15 0.619486 0.086956 0.322101
O O16 0.603864 0.000000 0.284776
O O17 0.860436 0.453418 0.415572
O O18 0.500000 0.000000 0.580411
O O19 0.601855 0.000000 0.500000
#
# Coordination Sequence:
#
# PCOD8283987 Si02
#       8
#    32  32  16  32  16  32  32  16
#     4   9  18  33  52  76 105 136 173 225 267 304
#     4   8  16  33  53  72 100 135 178 223 263 301
#     4  10  18  31  52  77 105 140 175 211 254 318
#     4  10  19  34  52  77 106 142 180 225 268 316
#     4  10  20  33  52  79 117 145 168 208 273 333
#     4  10  19  34  53  74 106 143 181 228 274 313
#     4  12  20  32  55  82 103 140 188 222 262 324
#     4  11  24  40  49  69 117 159 178 203 262 329
#
# _framework density 17.887867
#
# number of rings (size 3 to 8) (size 9 to 14) (size 15 to 20)
#    0.000    2.077    2.308    3.231    0.000    1.385 
#    2.769    0.769    0.000    0.000    0.000   19.385 
#    0.000    0.000    0.000    0.000    0.000    0.000 
#
# Total GULP energy -644518.725362 kJ/mol
# GULP energy per Si atom -12394.590872 kJ/mol
# Density = 1.784715 g / cm^3
# Si number density = 17.887867 Si / 1000 Ang^3
#
#
#
# Elastic Constant Matrix: (Units=GPa)
#
#
# Indices 1 2 3 4 5 6 
#
# 1 83.3663 32.3846 23.4182 0.0000 0.0000 0.0000
# 2 32.3846 119.1686 33.7757 0.0000 0.0000 0.0000
# 3 23.4182 33.7757 59.3363 0.0000 0.0000 0.0000
# 4 0.0000 0.0000 0.0000 17.8634 0.0000 0.0000
# 5 0.0000 0.0000 0.0000 0.0000 21.8254 0.0000
# 6 0.0000 0.0000 0.0000 0.0000 0.0000 16.5895
#
#
#
# Elastic Compliance Matrix: (Units=1/GPa)
#
#
# Indices 1 2 3 4 5 6 
#
# 1 0.014186 -0.002705 -0.004059 0.000000 0.000000 0.000000
# 2 -0.002705 0.010521 -0.004922 0.000000 0.000000 0.000000
# 3 -0.004059 -0.004922 0.021257 0.000000 0.000000 0.000000
# 4 0.000000 0.000000 0.000000 0.055981 0.000000 0.000000
# 5 0.000000 0.000000 0.000000 0.000000 0.045818 0.000000
# 6 0.000000 0.000000 0.000000 0.000000 0.000000 0.060279
#
#
# Mechanical properties :
#
#
# Convention : Reuss Voigt Hill
#
# Bulk Modulus (GPa) = 44.26117 49.00312 46.63214
# Shear Modulus (GPa) = 20.92539 22.74183 21.83361
#
# Velocity S-wave (km/s) = 3.42396 3.56948 3.49747
# Velocity P-wave (km/s) = 6.35836 6.66650 6.51425
#
# Compressibility (1/GPa) = 0.02259317
#
# Stress axis : x y z
#
# Youngs Moduli (GPa) = 70.49117 95.04449 47.04410
#
# Poissons Ratio (x) = 0.25706 0.19097
# Poissons Ratio (y) = 0.19065 0.23153
# Poissons Ratio (z) = 0.28614 0.46777
#
# Static dielectric constant tensor:
#      x y z
#    x 3.614500 0.000000 0.000000 
#    y 0.000000 3.254980 0.000000 
#    z 0.000000 0.000000 3.081050 
# 
# 
# High freq. dielectric constant tensor:
#      x y z
#    x 1.703020 0.000000 0.000000 
#    y 0.000000 1.676470 0.000000 
#    z 0.000000 0.000000 1.664850 
# 
# From -- ./inp_files/42147.got.cif
#   From: 2010.03.12/outbox.cif.g09.slc.cpg/sg69_22_cif.got.tgz:42147.got - 2010.04.10 23:52:46.
