data_PCOD8283818
_publ_section_title
;
Structure prediction by ZEFSAII (Michael W. Deem and Ramdas Pophale) SiO2 
 PCOD8283818
Probable space group: F M M M
;
_chemical_formula_sum "Si O2"
_cell_formula_units_Z 208
_cell_length_a 17.027192
_cell_length_b 22.931965
_cell_length_c 28.190016
_cell_angle_alpha 90.000000
_cell_angle_beta 90.000000
_cell_angle_gamma 90.000000
_cell_volume 11007.270160
_symmetry_space_group_name_H-M "F M M M"
_symmetry_group_IT_number 69
_symmetry_cell_setting 'orthorhombic'
loop_
_space_group_symop_operation_xyz
x,y,z
-x,-y,z
x,-y,-z
-x,y,-z
-x,-y,-z
x,y,-z
-x,y,z
x,-y,z
x,1/2+y,1/2+z
-x,1/2-y,1/2+z
x,1/2-y,1/2-z
-x,1/2+y,1/2-z
-x,1/2-y,1/2-z
x,1/2+y,1/2-z
-x,1/2+y,1/2+z
x,1/2-y,1/2+z
1/2+x,y,1/2+z
1/2-x,-y,1/2+z
1/2+x,-y,1/2-z
1/2-x,y,1/2-z
1/2-x,-y,1/2-z
1/2+x,y,1/2-z
1/2-x,y,1/2+z
1/2+x,-y,1/2+z
1/2+x,1/2+y,z
1/2-x,1/2-y,z
1/2+x,1/2-y,-z
1/2-x,1/2+y,-z
1/2-x,1/2-y,-z
1/2+x,1/2+y,-z
1/2-x,1/2+y,z
1/2+x,1/2-y,z
loop_
_atom_site_type_symbol
_atom_site_label
_atom_site_fract_x
_atom_site_fract_y
_atom_site_fract_z
Si Si1 0.156208 0.932382 0.900111
Si Si2 0.910812 0.240689 0.302101
Si Si3 0.410486 0.870987 0.682030
Si Si4 0.000000 0.430484 0.448150
Si Si5 0.092344 0.563354 0.226200
Si Si6 0.821531 0.432065 0.055454
Si Si7 0.592910 0.867498 0.862572
O O1 0.157371 0.900385 0.849608
O O2 0.078553 0.906198 0.924370
O O3 0.230665 0.919727 0.932914
O O4 0.146939 0.000000 0.889731
O O5 0.869851 0.250000 0.250000
O O6 0.907577 0.302482 0.328137
O O7 0.874083 0.193095 0.338821
O O8 0.000000 0.219231 0.291986
O O9 0.500000 0.894309 0.672084
O O10 0.384750 0.887285 0.735625
O O11 0.000000 0.500000 0.449112
O O12 0.000000 0.403664 0.500000
O O13 0.130132 0.500000 0.238147
O O14 0.120071 0.582531 0.174054
O O15 0.000000 0.557016 0.225201
O O16 0.843174 0.500000 0.066492
O O17 0.871029 0.385964 0.086675
O O18 0.836505 0.418719 0.000000
O O19 0.500000 0.863207 0.870288
#
# Coordination Sequence:
#
# PCOD8283818 Si02
#       7
#    32  32  32  16  32  32  32
#     4  10  19  32  51  79 111 141 174 217 277 339
#     4   9  16  30  53  81 109 143 186 223 265 321
#     4  10  17  28  50  80 113 142 176 215 264 328
#     4   9  16  28  50  76 101 132 172 212 255 324
#     4   9  16  25  44  76 111 141 171 213 267 326
#     4  10  22  39  57  78 108 145 186 238 293 333
#     4  10  19  34  56  80 107 145 190 233 271 322
#
# _framework density 18.896601
#
# number of rings (size 3 to 8) (size 9 to 14) (size 15 to 20)
#    0.000    2.385    2.308    1.385    0.000    3.692 
#    0.000    2.308    0.000    6.462    0.000    0.000 
#    0.000    0.000    0.000    0.000    0.000    0.000 
#
# Total GULP energy -644262.484796 kJ/mol
# GULP energy per Si atom -12389.663169 kJ/mol
# Density = 1.885359 g / cm^3
# Si number density = 18.896601 Si / 1000 Ang^3
#
#
#
# Elastic Constant Matrix: (Units=GPa)
#
#
# Indices 1 2 3 4 5 6 
#
# 1 47.4785 30.6562 37.2636 0.0000 0.0000 0.0000
# 2 30.6562 102.5148 56.1107 0.0000 0.0000 0.0000
# 3 37.2636 56.1107 138.1633 0.0000 0.0000 0.0000
# 4 0.0000 0.0000 0.0000 28.4074 0.0000 0.0000
# 5 0.0000 0.0000 0.0000 0.0000 25.1949 0.0000
# 6 0.0000 0.0000 0.0000 0.0000 0.0000 16.1296
#
#
#
# Elastic Compliance Matrix: (Units=1/GPa)
#
#
# Indices 1 2 3 4 5 6 
#
# 1 0.029065 -0.005659 -0.005541 0.000000 0.000000 0.000000
# 2 -0.005659 0.013645 -0.004015 0.000000 0.000000 0.000000
# 3 -0.005541 -0.004015 0.010363 0.000000 0.000000 0.000000
# 4 0.000000 0.000000 0.000000 0.035202 0.000000 0.000000
# 5 0.000000 0.000000 0.000000 0.000000 0.039691 0.000000
# 6 0.000000 0.000000 0.000000 0.000000 0.000000 0.061998
#
#
# Mechanical properties :
#
#
# Convention : Reuss Voigt Hill
#
# Bulk Modulus (GPa) = 44.16448 59.57973 51.87211
# Shear Modulus (GPa) = 21.93564 24.88812 23.41188
#
# Velocity S-wave (km/s) = 3.41078 3.63308 3.52369
# Velocity P-wave (km/s) = 6.23968 7.01404 6.63817
#
# Compressibility (1/GPa) = 0.02264263
#
# Stress axis : x y z
#
# Youngs Moduli (GPa) = 34.40597 73.28938 96.49898
#
# Poissons Ratio (x) = 0.41473 0.53468
# Poissons Ratio (y) = 0.19470 0.38745
# Poissons Ratio (z) = 0.19064 0.29426
#
# Static dielectric constant tensor:
#      x y z
#    x 3.131130 0.000000 0.000000 
#    y 0.000000 3.466000 0.000000 
#    z 0.000000 0.000000 3.543340 
# 
# 
# High freq. dielectric constant tensor:
#      x y z
#    x 1.693810 0.000000 0.000000 
#    y 0.000000 1.721610 0.000000 
#    z 0.000000 0.000000 1.733050 
# 
# From -- ./inp_files/42104.got.cif
#   From: 2010.03.12/outbox.cif.g09.slc.cpg/sg69_22_cif.got.tgz:42104.got - 2010.04.10 23:52:46.
