data_PCOD8283069
_publ_section_title
;
Structure prediction by ZEFSAII (Michael W. Deem and Ramdas Pophale) SiO2 
 PCOD8283069
Probable space group: C C C A
;
_chemical_formula_sum "Si O2"
_cell_formula_units_Z 108
_cell_length_a 20.554056
_cell_length_b 10.549527
_cell_length_c 25.523259
_cell_angle_alpha 90.000000
_cell_angle_beta 90.000000
_cell_angle_gamma 90.000000
_cell_volume 5534.350381
_symmetry_space_group_name_H-M "C C C A"
_symmetry_group_IT_number 68
_space_group.IT_coordinate_system_code '2'
_symmetry_cell_setting 'orthorhombic'
loop_
_space_group_symop_operation_xyz
x,y,z
-x,1/2-y,z
x,1/2-y,1/2-z
-x,y,1/2-z
-x,-y,-z
x,1/2+y,-z
-x,1/2+y,1/2+z
x,-y,1/2+z
1/2+x,1/2+y,z
1/2-x,-y,z
1/2+x,-y,1/2-z
1/2-x,1/2+y,1/2-z
1/2-x,1/2-y,-z
1/2+x,y,-z
1/2-x,y,1/2+z
1/2+x,1/2-y,1/2+z
loop_
_atom_site_type_symbol
_atom_site_label
_atom_site_fract_x
_atom_site_fract_y
_atom_site_fract_z
Si Si1 0.427231 0.418831 0.885579
Si Si2 0.688365 0.428854 0.067345
Si Si3 0.000000 0.750000 0.250000
Si Si4 0.859261 0.656406 0.423904
Si Si5 0.546707 0.443643 0.334946
Si Si6 0.575934 0.281950 0.805901
Si Si7 0.463172 0.868190 0.007122
Si Si8 0.250000 0.500000 0.534027
O O1 0.374754 0.489770 0.920733
O O2 0.474382 0.517147 0.854658
O O3 0.392819 0.314877 0.847911
O O4 0.464846 0.341655 0.930536
O O5 0.750000 0.500000 0.095152
O O6 0.670597 0.292543 0.089899
O O7 0.704741 0.413928 0.004926
O O8 0.957363 0.656625 0.287005
O O9 0.912467 0.620682 0.380743
O O10 0.891932 0.637479 0.480947
O O11 0.795347 0.571384 0.424872
O O12 0.586093 0.569632 0.317573
O O13 0.500000 0.250000 0.806106
O O14 0.607829 0.250000 0.750000
O O15 0.500000 0.750000 0.979959
O O16 0.500000 0.000000 0.000000
#
# Coordination Sequence:
#
# PCOD8283069 Si02
#       8
#    16  16   4  16  16  16  16   8
#     4  11  20  39  63  93 128 167 210 263 336 389
#     4  10  23  40  58  87 125 180 218 257 315 387
#     4  12  24  40  62  96 140 160 208 274 340 404
#     4  12  24  39  62  92 134 169 221 263 322 394
#     4  11  23  37  63 101 125 167 208 272 340 385
#     4   9  19  36  59  89 125 160 209 259 318 394
#     4  12  23  35  57  93 137 168 205 262 329 403
#     4  10  24  42  58  86 130 174 224 250 300 384
#
# _framework density 19.514485000000001
#
# number of rings (size 3 to 8) (size 9 to 14) (size 15 to 20)
#    0.444    0.741    2.963    5.333    1.037    1.185 
#    0.000    0.000    0.000    0.000   30.815    0.000 
#    0.000    0.000    0.000    0.000    0.000    0.000 
#
# Total GULP energy -668977.895726 kJ/mol
# GULP energy per Si atom -12388.479550 kJ/mol
# Density = 1.947007 g / cm^3
# Si number density = 19.514485 Si / 1000 Ang^3
#
#
#
# Elastic Constant Matrix: (Units=GPa)
#
#
# Indices 1 2 3 4 5 6 
#
# 1 73.5314 45.9048 21.4960 0.0000 0.0000 0.0000
# 2 45.9048 143.6328 44.9593 0.0000 0.0000 0.0000
# 3 21.4960 44.9593 114.3866 0.0000 0.0000 0.0000
# 4 0.0000 0.0000 0.0000 30.4588 0.0000 0.0000
# 5 0.0000 0.0000 0.0000 0.0000 13.8498 0.0000
# 6 0.0000 0.0000 0.0000 0.0000 0.0000 28.6594
#
#
#
# Elastic Compliance Matrix: (Units=1/GPa)
#
#
# Indices 1 2 3 4 5 6 
#
# 1 0.017137 -0.005096 -0.001218 0.000000 0.000000 0.000000
# 2 -0.005096 0.009454 -0.002758 0.000000 0.000000 0.000000
# 3 -0.001218 -0.002758 0.010055 0.000000 0.000000 0.000000
# 4 0.000000 0.000000 0.000000 0.032831 0.000000 0.000000
# 5 0.000000 0.000000 0.000000 0.000000 0.072203 0.000000
# 6 0.000000 0.000000 0.000000 0.000000 0.000000 0.034893
#
#
# Mechanical properties :
#
#
# Convention : Reuss Voigt Hill
#
# Bulk Modulus (GPa) = 54.04544 61.80790 57.92667
# Shear Modulus (GPa) = 24.88998 29.20631 27.04815
#
# Velocity S-wave (km/s) = 3.57524 3.87285 3.72701
# Velocity P-wave (km/s) = 6.69315 7.19307 6.94761
#
# Compressibility (1/GPa) = 0.01850295
#
# Stress axis : x y z
#
# Youngs Moduli (GPa) = 58.35391 105.77304 99.45069
#
# Poissons Ratio (x) = 0.53900 0.12108
# Poissons Ratio (y) = 0.29736 0.27432
# Poissons Ratio (z) = 0.07105 0.29176
#
# Static dielectric constant tensor:
#      x y z
#    x 3.331200 0.000000 0.000000 
#    y 0.000000 3.782230 0.000000 
#    z 0.000000 0.000000 3.692490 
# 
# 
# High freq. dielectric constant tensor:
#      x y z
#    x 1.729450 0.000000 0.000000 
#    y 0.000000 1.776830 0.000000 
#    z 0.000000 0.000000 1.749950 
# 
# From -- ./inp_files/46690.got.cif
#   From: 2010.03.12/outbox.cif.g09.slc.cpg/sg68_24_cif.got.tgz:46690.got - 2010.04.10 23:14:56.
