data_PCOD8283466
_publ_section_title
;
Structure prediction by ZEFSAII (Michael W. Deem and Ramdas Pophale) SiO2 
 PCOD8283466
Probable space group: C C C A
;
_chemical_formula_sum "Si O2"
_cell_formula_units_Z 88
_cell_length_a 13.402105
_cell_length_b 11.791436
_cell_length_c 26.414093
_cell_angle_alpha 90.000000
_cell_angle_beta 90.000000
_cell_angle_gamma 90.000000
_cell_volume 4174.220791
_symmetry_space_group_name_H-M "C C C A"
_symmetry_group_IT_number 68
_space_group.IT_coordinate_system_code '2'
_symmetry_cell_setting 'orthorhombic'
loop_
_space_group_symop_operation_xyz
x,y,z
-x,1/2-y,z
x,1/2-y,1/2-z
-x,y,1/2-z
-x,-y,-z
x,1/2+y,-z
-x,1/2+y,1/2+z
x,-y,1/2+z
1/2+x,1/2+y,z
1/2-x,-y,z
1/2+x,-y,1/2-z
1/2-x,1/2+y,1/2-z
1/2-x,1/2-y,-z
1/2+x,y,-z
1/2-x,y,1/2+z
1/2+x,1/2-y,1/2+z
loop_
_atom_site_type_symbol
_atom_site_label
_atom_site_fract_x
_atom_site_fract_y
_atom_site_fract_z
Si Si1 0.750000 0.000000 0.031856
Si Si2 0.100997 0.326166 0.884282
Si Si3 0.500000 0.250000 0.597395
Si Si4 0.208430 0.669993 0.617498
Si Si5 0.250000 0.000000 0.795603
Si Si6 0.579446 0.034806 0.960468
Si Si7 0.389436 0.366609 0.268746
O O1 0.805397 0.089391 0.068559
O O2 0.676025 0.065199 0.993911
O O3 0.201931 0.256216 0.895899
O O4 0.097722 0.432545 0.921472
O O5 0.111986 0.379415 0.828857
O O6 0.000000 0.250000 0.889105
O O7 0.598924 0.220939 0.629869
O O8 0.538284 0.353325 0.564502
O O9 0.235349 0.608004 0.669139
O O10 0.341232 0.975878 0.757838
O O11 0.500000 0.000000 0.000000
O O12 0.335492 0.250000 0.250000
O O13 0.500000 0.362184 0.250000
#
# Coordination Sequence:
#
# PCOD8283466 Si02
#       7
#     8  16   8  16   8  16  16
#     4  11  24  45  68  98 136 189 236 285 354 416
#     4  12  25  45  76 103 136 190 246 290 353 432
#     4  12  28  44  64 107 148 172 233 286 360 418
#     4  11  25  44  72 101 142 184 235 294 353 426
#     4  11  24  45  70 104 140 185 232 299 360 412
#     4  12  27  43  69 103 139 184 232 293 352 419
#     4  11  22  44  72 101 134 179 238 290 347 429
#
# _framework density 21.081779000000001
#
# number of rings (size 3 to 8) (size 9 to 14) (size 15 to 20)
#    0.000    0.545    5.455    2.182    8.909    3.636 
#    0.000    0.000    0.000    1.091    0.000    0.000 
#    0.000    0.000    0.000    0.000    0.000    0.000 
#
# Total GULP energy -545279.320953 kJ/mol
# GULP energy per Si atom -12392.711840 kJ/mol
# Density = 2.103380 g / cm^3
# Si number density = 21.081779 Si / 1000 Ang^3
#
#
#
# Elastic Constant Matrix: (Units=GPa)
#
#
# Indices 1 2 3 4 5 6 
#
# 1 137.5158 39.8040 32.2605 0.0000 0.0000 0.0000
# 2 39.8040 108.2807 47.7321 0.0000 0.0000 0.0000
# 3 32.2605 47.7321 130.2995 0.0000 0.0000 0.0000
# 4 0.0000 0.0000 0.0000 -32.0814 0.0000 0.0000
# 5 0.0000 0.0000 0.0000 0.0000 37.2794 0.0000
# 6 0.0000 0.0000 0.0000 0.0000 0.0000 -824.5076
#
#
#
# Elastic Compliance Matrix: (Units=1/GPa)
#
#
# Indices 1 2 3 4 5 6 
#
# 1 0.008271 -0.002549 -0.001114 0.000000 0.000000 0.000000
# 2 -0.002549 0.011800 -0.003691 0.000000 0.000000 0.000000
# 3 -0.001114 -0.003691 0.009303 0.000000 0.000000 0.000000
# 4 0.000000 0.000000 0.000000 -0.031171 0.000000 0.000000
# 5 0.000000 0.000000 0.000000 0.000000 0.026824 0.000000
# 6 0.000000 0.000000 0.000000 0.000000 0.000000 -0.001213
#
#
# Mechanical properties :
#
#
# Convention : Reuss Voigt Hill
#
# Bulk Modulus (GPa) = 68.19371 68.40991 68.30181
# Shear Modulus (GPa) = 115.17639 -146.77530 -15.79946
#
# Velocity S-wave (km/s) = 7.39944 -8.35302 -2.74055
# Velocity P-wave (km/s) = 10.26741 7.77885 4.73863
#
# Compressibility (1/GPa) = 0.01466411
#
# Stress axis : x y z
#
# Youngs Moduli (GPa) = 120.90220 84.74847 107.49640
#
# Poissons Ratio (x) = 0.21606 0.11974
# Poissons Ratio (y) = 0.30823 0.39680
# Poissons Ratio (z) = 0.13467 0.31283
#
# Static dielectric constant tensor:
#      x y z
#    x 4.126090 0.000000 0.000000 
#    y 0.000000 0.463240 0.000000 
#    z 0.000000 0.000000 2.558710 
# 
# 
# High freq. dielectric constant tensor:
#      x y z
#    x 1.840980 0.000000 0.000000 
#    y 0.000000 1.823560 0.000000 
#    z 0.000000 0.000000 1.836170 
# 
# From -- ./inp_files/45351.got.cif
#   From: 2010.03.12/outbox.cif.g09.slc.cpg/sg68_23_cif.got.tgz:45351.got - 2010.04.10 23:14:56.
