data_PCOD8283027
_publ_section_title
;
Structure prediction by ZEFSAII (Michael W. Deem and Ramdas Pophale) SiO2 
 PCOD8283027
Probable space group: C C C A
;
_chemical_formula_sum "Si O2"
_cell_formula_units_Z 88
_cell_length_a 12.689506
_cell_length_b 19.285489
_cell_length_c 17.095241
_cell_angle_alpha 90.000000
_cell_angle_beta 90.000000
_cell_angle_gamma 90.000000
_cell_volume 4183.604277
_symmetry_space_group_name_H-M "C C C A"
_symmetry_group_IT_number 68
_space_group.IT_coordinate_system_code '2'
_symmetry_cell_setting 'orthorhombic'
loop_
_space_group_symop_operation_xyz
x,y,z
-x,1/2-y,z
x,1/2-y,1/2-z
-x,y,1/2-z
-x,-y,-z
x,1/2+y,-z
-x,1/2+y,1/2+z
x,-y,1/2+z
1/2+x,1/2+y,z
1/2-x,-y,z
1/2+x,-y,1/2-z
1/2-x,1/2+y,1/2-z
1/2-x,1/2-y,-z
1/2+x,y,-z
1/2-x,y,1/2+z
1/2+x,1/2-y,1/2+z
loop_
_atom_site_type_symbol
_atom_site_label
_atom_site_fract_x
_atom_site_fract_y
_atom_site_fract_z
Si Si1 0.857260 0.959107 0.417304
Si Si2 0.000000 0.250000 0.945454
Si Si3 0.806344 0.696389 0.360325
Si Si4 0.042334 0.419950 0.332748
Si Si5 0.264812 0.348512 0.309400
Si Si6 0.886085 0.358679 0.448943
O O1 0.846830 0.896001 0.356194
O O2 0.890056 0.929301 0.501280
O O3 0.750000 0.000000 0.427686
O O4 0.944889 0.012257 0.386458
O O5 0.073655 0.200591 0.891746
O O6 0.075614 0.294949 0.999366
O O7 0.760397 0.772881 0.347354
O O8 0.805196 0.653535 0.279686
O O9 0.733613 0.656776 0.423003
O O10 0.149062 0.379075 0.316884
O O11 0.000000 0.446021 0.250000
O O12 0.960294 0.367643 0.373476
#
# Coordination Sequence:
#
# PCOD8283027 Si02
#       6
#    16   8  16  16  16  16
#     4  10  24  43  66  92 139 174 219 280 323 400
#     4  12  26  39  71 102 136 170 216 284 349 398
#     4  11  24  43  69  98 134 173 218 285 337 399
#     4  11  23  44  67  98 130 185 226 268 331 400
#     4  10  22  45  66  97 136 173 225 275 335 394
#     4  12  24  44  67 103 133 173 223 274 340 400
#
# _framework density 21.034495
#
# number of rings (size 3 to 8) (size 9 to 14) (size 15 to 20)
#    0.000    1.091    3.636    2.182    5.091    2.909 
#    3.273    0.000    0.000    0.000    0.000    0.000 
#    0.000    0.000    0.000    0.000    0.000    0.000 
#
# Total GULP energy -545817.238753 kJ/mol
# GULP energy per Si atom -12404.937244 kJ/mol
# Density = 2.098662 g / cm^3
# Si number density = 21.034495 Si / 1000 Ang^3
#
#
#
# Elastic Constant Matrix: (Units=GPa)
#
#
# Indices 1 2 3 4 5 6 
#
# 1 100.4737 9.6632 50.5395 0.0000 0.0000 0.0000
# 2 9.6632 62.5683 30.8197 0.0000 0.0000 0.0000
# 3 50.5395 30.8197 125.1612 0.0000 0.0000 0.0000
# 4 0.0000 0.0000 0.0000 30.1766 0.0000 0.0000
# 5 0.0000 0.0000 0.0000 0.0000 34.7317 0.0000
# 6 0.0000 0.0000 0.0000 0.0000 0.0000 18.3819
#
#
#
# Elastic Compliance Matrix: (Units=1/GPa)
#
#
# Indices 1 2 3 4 5 6 
#
# 1 0.012512 0.000633 -0.005208 0.000000 0.000000 0.000000
# 2 0.000633 0.018221 -0.004742 0.000000 0.000000 0.000000
# 3 -0.005208 -0.004742 0.011260 0.000000 0.000000 0.000000
# 4 0.000000 0.000000 0.000000 0.033138 0.000000 0.000000
# 5 0.000000 0.000000 0.000000 0.000000 0.028792 0.000000
# 6 0.000000 0.000000 0.000000 0.000000 0.000000 0.054401
#
#
# Mechanical properties :
#
#
# Convention : Reuss Voigt Hill
#
# Bulk Modulus (GPa) = 42.81145 52.24976 47.53061
# Shear Modulus (GPa) = 27.06429 29.80342 28.43385
#
# Velocity S-wave (km/s) = 3.59090 3.76823 3.68063
# Velocity P-wave (km/s) = 6.13106 6.62018 6.38031
#
# Compressibility (1/GPa) = 0.02335823
#
# Stress axis : x y z
#
# Youngs Moduli (GPa) = 79.92538 54.88259 88.80673
#
# Poissons Ratio (x) = -0.03474 0.46251
# Poissons Ratio (y) = -0.05060 0.42115
# Poissons Ratio (z) = 0.41625 0.26027
#
# Static dielectric constant tensor:
#      x y z
#    x 3.737990 0.000000 0.000000 
#    y 0.000000 3.894020 0.000000 
#    z 0.000000 0.000000 4.034900 
# 
# 
# High freq. dielectric constant tensor:
#      x y z
#    x 1.823870 0.000000 0.000000 
#    y 0.000000 1.824010 0.000000 
#    z 0.000000 0.000000 1.838690 
# 
# From -- ./inp_files/29646.got.cif
#   From: 2010.03.12/outbox.cif.g09.slc.cpg/sg68_15_cif.got.tgz:29646.got - 2010.04.10 23:14:56.
