data_PCOD8283189
_publ_section_title
;
Structure prediction by ZEFSAII (Michael W. Deem and Ramdas Pophale) SiO2 
 PCOD8283189
Probable space group: C C C A
;
_chemical_formula_sum "Si O2"
_cell_formula_units_Z 100
_cell_length_a 10.178292
_cell_length_b 19.456862
_cell_length_c 26.453175
_cell_angle_alpha 90.000000
_cell_angle_beta 90.000000
_cell_angle_gamma 90.000000
_cell_volume 5238.723894
_symmetry_space_group_name_H-M "C C C A"
_symmetry_group_IT_number 68
_space_group.IT_coordinate_system_code '2'
_symmetry_cell_setting 'orthorhombic'
loop_
_space_group_symop_operation_xyz
x,y,z
-x,1/2-y,z
x,1/2-y,1/2-z
-x,y,1/2-z
-x,-y,-z
x,1/2+y,-z
-x,1/2+y,1/2+z
x,-y,1/2+z
1/2+x,1/2+y,z
1/2-x,-y,z
1/2+x,-y,1/2-z
1/2-x,1/2+y,1/2-z
1/2-x,1/2-y,-z
1/2+x,y,-z
1/2-x,y,1/2+z
1/2+x,1/2-y,1/2+z
loop_
_atom_site_type_symbol
_atom_site_label
_atom_site_fract_x
_atom_site_fract_y
_atom_site_fract_z
Si Si1 0.356413 0.053879 0.185554
Si Si2 0.258864 0.830180 0.617395
Si Si3 0.482209 0.831970 0.417452
Si Si4 0.650093 0.557342 0.805137
Si Si5 0.807593 0.686773 0.831331
Si Si6 0.624473 0.204220 0.483898
Si Si7 0.500000 0.750000 0.250000
O O1 0.317274 0.126945 0.163154
O O2 0.508178 0.038974 0.170645
O O3 0.350104 0.054266 0.245254
O O4 0.250000 0.000000 0.163446
O O5 0.246507 0.754785 0.641675
O O6 0.353289 0.833741 0.568948
O O7 0.124466 0.863131 0.595021
O O8 0.500000 0.750000 0.416982
O O9 0.388987 0.856569 0.372452
O O10 0.415654 0.850560 0.471721
O O11 0.750000 0.500000 0.826812
O O12 0.689446 0.636304 0.816633
O O13 0.905060 0.702842 0.784367
O O14 0.500000 0.250000 0.473093
O O15 0.750000 0.250000 0.500000
#
# Coordination Sequence:
#
# PCOD8283189 Si02
#       7
#    16  16  16  16  16  16   4
#     4  10  24  43  61  83 118 164 199 244 305 358
#     4  11  21  37  61  91 123 151 202 253 299 359
#     4   9  18  34  52  87 119 152 196 236 290 363
#     4  10  24  41  59  86 119 158 205 243 292 368
#     4  11  21  33  57  92 121 155 201 241 300 349
#     4  11  19  34  56  86 121 157 192 246 300 359
#     4  12  20  32  56  90 128 164 188 252 308 350
#
# _framework density 19.088619000000001
#
# number of rings (size 3 to 8) (size 9 to 14) (size 15 to 20)
#    0.000    1.600    7.200    0.960    4.480    1.280 
#    0.000    1.600    0.000    1.920    0.000    0.000 
#    0.000    0.000    0.000    0.000    0.000    0.000 
#
# Total GULP energy -619465.572923 kJ/mol
# GULP energy per Si atom -12389.311458 kJ/mol
# Density = 1.904517 g / cm^3
# Si number density = 19.088619 Si / 1000 Ang^3
#
#
#
# Elastic Constant Matrix: (Units=GPa)
#
#
# Indices 1 2 3 4 5 6 
#
# 1 157.5395 50.3844 36.7874 0.0000 0.0000 0.0000
# 2 50.3844 65.9675 23.0804 0.0000 0.0000 0.0000
# 3 36.7874 23.0804 55.8694 0.0000 0.0000 0.0000
# 4 0.0000 0.0000 0.0000 11.7009 0.0000 0.0000
# 5 0.0000 0.0000 0.0000 0.0000 30.9609 0.0000
# 6 0.0000 0.0000 0.0000 0.0000 0.0000 27.6972
#
#
#
# Elastic Compliance Matrix: (Units=1/GPa)
#
#
# Indices 1 2 3 4 5 6 
#
# 1 0.008979 -0.005598 -0.003599 0.000000 0.000000 0.000000
# 2 -0.005598 0.021211 -0.005076 0.000000 0.000000 0.000000
# 3 -0.003599 -0.005076 0.022366 0.000000 0.000000 0.000000
# 4 0.000000 0.000000 0.000000 0.085463 0.000000 0.000000
# 5 0.000000 0.000000 0.000000 0.000000 0.032299 0.000000
# 6 0.000000 0.000000 0.000000 0.000000 0.000000 0.036105
#
#
# Mechanical properties :
#
#
# Convention : Reuss Voigt Hill
#
# Bulk Modulus (GPa) = 41.65326 55.54230 48.59778
# Shear Modulus (GPa) = 20.57849 25.34677 22.96263
#
# Velocity S-wave (km/s) = 3.28693 3.64792 3.47212
# Velocity P-wave (km/s) = 6.02275 6.84860 6.44891
#
# Compressibility (1/GPa) = 0.02400772
#
# Stress axis : x y z
#
# Youngs Moduli (GPa) = 111.37686 47.14555 44.71097
#
# Poissons Ratio (x) = 0.26394 0.16092
# Poissons Ratio (y) = 0.62352 0.22697
# Poissons Ratio (z) = 0.40087 0.23932
#
# Static dielectric constant tensor:
#      x y z
#    x 3.979910 0.000000 0.000000 
#    y 0.000000 3.041330 0.000000 
#    z 0.000000 0.000000 3.878170 
# 
# 
# High freq. dielectric constant tensor:
#      x y z
#    x 1.761680 0.000000 0.000000 
#    y 0.000000 1.689220 0.000000 
#    z 0.000000 0.000000 1.748170 
# 
# From -- ./inp_files/49438.got.cif
#   From: 2010.03.12/outbox.cif.g09.slc.cpg/sg68_25_cif.got.tgz:49438.got - 2010.04.10 23:14:56.
