data_PCOD8283023
_publ_section_title
;
Structure prediction by ZEFSAII (Michael W. Deem and Ramdas Pophale) SiO2 
 PCOD8283023
Probable space group: C C C A
;
_chemical_formula_sum "Si O2"
_cell_formula_units_Z 72
_cell_length_a 27.780715
_cell_length_b 9.179452
_cell_length_c 13.250893
_cell_angle_alpha 90.000000
_cell_angle_beta 90.000000
_cell_angle_gamma 90.000000
_cell_volume 3379.133279
_symmetry_space_group_name_H-M "C C C A"
_symmetry_group_IT_number 68
_space_group.IT_coordinate_system_code '2'
_symmetry_cell_setting 'orthorhombic'
loop_
_space_group_symop_operation_xyz
x,y,z
-x,1/2-y,z
x,1/2-y,1/2-z
-x,y,1/2-z
-x,-y,-z
x,1/2+y,-z
-x,1/2+y,1/2+z
x,-y,1/2+z
1/2+x,1/2+y,z
1/2-x,-y,z
1/2+x,-y,1/2-z
1/2-x,1/2+y,1/2-z
1/2-x,1/2-y,-z
1/2+x,y,-z
1/2-x,y,1/2+z
1/2+x,1/2-y,1/2+z
loop_
_atom_site_type_symbol
_atom_site_label
_atom_site_fract_x
_atom_site_fract_y
_atom_site_fract_z
Si Si1 0.965979 0.624814 0.464929
Si Si2 0.093737 0.827703 0.653419
Si Si3 0.556399 0.914891 0.739181
Si Si4 0.796495 0.247873 0.366672
Si Si5 0.750000 0.500000 0.496480
O O1 0.936391 0.701796 0.553326
O O2 0.931221 0.555118 0.379407
O O3 0.000000 0.750000 0.414211
O O4 0.000000 0.500000 0.500000
O O5 0.068874 0.750000 0.750000
O O6 0.146304 0.764630 0.636484
O O7 0.090771 0.998750 0.683057
O O8 0.571205 0.750000 0.750000
O O9 0.500000 0.953798 0.750000
O O10 0.776751 0.250000 0.250000
O O11 0.782924 0.398888 0.423471
O O12 0.779101 0.107222 0.429391
#
# Coordination Sequence:
#
# PCOD8283023 Si02
#       5
#    16  16  16  16   8
#     4  12  22  35  58  81 118 175 221 265 320 370
#     4  11  25  39  60  92 130 165 227 280 324 395
#     4  11  21  39  56  82 122 172 226 275 322 379
#     4  10  23  44  68 103 133 172 216 275 349 414
#     4  10  22  44  76  96 136 168 216 272 356 426
#
# _framework density 21.307237000000001
#
# number of rings (size 3 to 8) (size 9 to 14) (size 15 to 20)
#    0.000    1.111    4.444    2.000    0.000    7.111 
#    0.000    5.556    0.000    0.000    0.000    0.000 
#    0.000    0.000    0.000    0.000    0.000    0.000 
#
# Total GULP energy -446004.676754 kJ/mol
# GULP energy per Si atom -12389.018799 kJ/mol
# Density = 2.125874 g / cm^3
# Si number density = 21.307237 Si / 1000 Ang^3
#
#
#
# Elastic Constant Matrix: (Units=GPa)
#
#
# Indices 1 2 3 4 5 6 
#
# 1 70.4952 35.9537 41.7306 0.0000 0.0000 0.0000
# 2 35.9537 111.7888 34.0434 0.0000 0.0000 0.0000
# 3 41.7306 34.0434 165.1331 0.0000 0.0000 0.0000
# 4 0.0000 0.0000 0.0000 44.8713 0.0000 0.0000
# 5 0.0000 0.0000 0.0000 0.0000 31.0236 0.0000
# 6 0.0000 0.0000 0.0000 0.0000 0.0000 28.8671
#
#
#
# Elastic Compliance Matrix: (Units=1/GPa)
#
#
# Indices 1 2 3 4 5 6 
#
# 1 0.018936 -0.004943 -0.003766 0.000000 0.000000 0.000000
# 2 -0.004943 0.010835 -0.000985 0.000000 0.000000 0.000000
# 3 -0.003766 -0.000985 0.007210 0.000000 0.000000 0.000000
# 4 0.000000 0.000000 0.000000 0.022286 0.000000 0.000000
# 5 0.000000 0.000000 0.000000 0.000000 0.032234 0.000000
# 6 0.000000 0.000000 0.000000 0.000000 0.000000 0.034641
#
#
# Mechanical properties :
#
#
# Convention : Reuss Voigt Hill
#
# Bulk Modulus (GPa) = 56.83912 63.43027 60.13469
# Shear Modulus (GPa) = 33.02618 36.66502 34.84560
#
# Velocity S-wave (km/s) = 3.94127 4.15273 4.04838
# Velocity P-wave (km/s) = 6.88806 7.26825 7.08071
#
# Compressibility (1/GPa) = 0.01759352
#
# Stress axis : x y z
#
# Youngs Moduli (GPa) = 52.80957 92.29237 138.68781
#
# Poissons Ratio (x) = 0.45623 0.52232
# Poissons Ratio (y) = 0.26105 0.13654
# Poissons Ratio (z) = 0.19889 0.09086
#
# Static dielectric constant tensor:
#      x y z
#    x 3.852330 0.000000 0.000000 
#    y 0.000000 3.894750 0.000000 
#    z 0.000000 0.000000 4.644780 
# 
# 
# High freq. dielectric constant tensor:
#      x y z
#    x 1.788960 0.000000 0.000000 
#    y 0.000000 1.853470 0.000000 
#    z 0.000000 0.000000 1.874180 
# 
# From -- ./inp_files/19465.got.cif
#   From: 2010.03.12/outbox.cif.g09.slc.cpg/sg68_10_cif.got.tgz:19465.got - 2010.04.10 23:14:56.
