data_PCOD8283534
_publ_section_title
;
Structure prediction by ZEFSAII (Michael W. Deem and Ramdas Pophale) SiO2 
 PCOD8283534
Probable space group: C C C A
;
_chemical_formula_sum "Si O2"
_cell_formula_units_Z 80
_cell_length_a 10.603854
_cell_length_b 15.419648
_cell_length_c 22.532350
_cell_angle_alpha 90.000000
_cell_angle_beta 90.000000
_cell_angle_gamma 90.000000
_cell_volume 3684.212637
_symmetry_space_group_name_H-M "C C C A"
_symmetry_group_IT_number 68
_space_group.IT_coordinate_system_code '2'
_symmetry_cell_setting 'orthorhombic'
loop_
_space_group_symop_operation_xyz
x,y,z
-x,1/2-y,z
x,1/2-y,1/2-z
-x,y,1/2-z
-x,-y,-z
x,1/2+y,-z
-x,1/2+y,1/2+z
x,-y,1/2+z
1/2+x,1/2+y,z
1/2-x,-y,z
1/2+x,-y,1/2-z
1/2-x,1/2+y,1/2-z
1/2-x,1/2-y,-z
1/2+x,y,-z
1/2-x,y,1/2+z
1/2+x,1/2-y,1/2+z
loop_
_atom_site_type_symbol
_atom_site_label
_atom_site_fract_x
_atom_site_fract_y
_atom_site_fract_z
Si Si1 0.500000 0.250000 0.108121
Si Si2 0.250000 0.500000 0.846354
Si Si3 0.363681 0.139356 0.724213
Si Si4 0.581433 0.075042 0.437588
Si Si5 0.232678 0.701409 0.659963
Si Si6 0.861329 0.439258 0.430032
O O1 0.509444 0.334063 0.066139
O O2 0.624010 0.229595 0.146419
O O3 0.353455 0.454846 0.804851
O O4 0.313570 0.573867 0.886576
O O5 0.500000 0.152903 0.750000
O O6 0.344273 0.211121 0.673262
O O7 0.263968 0.146277 0.778742
O O8 0.654221 0.077593 0.500010
O O9 0.494431 0.990295 0.424763
O O10 0.155528 0.649144 0.608148
O O11 0.750000 0.500000 0.406503
#
# Coordination Sequence:
#
# PCOD8283534 Si02
#       6
#     8   8  16  16  16  16
#     4  12  24  45  68 102 140 179 230 284 358 400
#     4  12  24  46  72 100 140 178 232 288 348 416
#     4  11  26  46  69 101 137 182 235 282 347 414
#     4  11  25  45  68 106 137 181 228 286 346 421
#     4  11  24  45  69  98 138 179 230 289 339 412
#     4  11  23  45  73  99 142 179 232 283 346 416
#
# _framework density 21.714275000000001
#
# number of rings (size 3 to 8) (size 9 to 14) (size 15 to 20)
#    0.000    0.800    5.000    2.400    1.400    4.000 
#   10.800    0.000    0.000    0.000    0.000    0.000 
#    0.000    0.000    0.000    0.000    0.000    0.000 
#
# Total GULP energy -495726.492952 kJ/mol
# GULP energy per Si atom -12393.162324 kJ/mol
# Density = 2.166485 g / cm^3
# Si number density = 21.714275 Si / 1000 Ang^3
#
#
#
# Elastic Constant Matrix: (Units=GPa)
#
#
# Indices 1 2 3 4 5 6 
#
# 1 101.7121 45.5827 44.5708 0.0000 0.0000 0.0000
# 2 45.5827 124.2920 68.9594 0.0000 0.0000 0.0000
# 3 44.5708 68.9594 117.2452 0.0000 0.0000 0.0000
# 4 0.0000 0.0000 0.0000 39.9840 0.0000 0.0000
# 5 0.0000 0.0000 0.0000 0.0000 31.7295 0.0000
# 6 0.0000 0.0000 0.0000 0.0000 0.0000 39.7886
#
#
#
# Elastic Compliance Matrix: (Units=1/GPa)
#
#
# Indices 1 2 3 4 5 6 
#
# 1 0.012455 -0.002881 -0.003040 0.000000 0.000000 0.000000
# 2 -0.002881 0.012609 -0.006321 0.000000 0.000000 0.000000
# 3 -0.003040 -0.006321 0.013403 0.000000 0.000000 0.000000
# 4 0.000000 0.000000 0.000000 0.025010 0.000000 0.000000
# 5 0.000000 0.000000 0.000000 0.000000 0.031516 0.000000
# 6 0.000000 0.000000 0.000000 0.000000 0.000000 0.025133
#
#
# Mechanical properties :
#
#
# Convention : Reuss Voigt Hill
#
# Bulk Modulus (GPa) = 71.51897 73.49722 72.50810
# Shear Modulus (GPa) = 33.49598 34.57618 34.03608
#
# Velocity S-wave (km/s) = 3.93183 3.99472 3.96340
# Velocity P-wave (km/s) = 7.32259 7.42953 7.37625
#
# Compressibility (1/GPa) = 0.01398230
#
# Stress axis : x y z
#
# Youngs Moduli (GPa) = 80.28863 79.30748 74.61158
#
# Poissons Ratio (x) = 0.22848 0.22685
# Poissons Ratio (y) = 0.23130 0.47162
# Poissons Ratio (z) = 0.24411 0.50131
#
# Static dielectric constant tensor:
#      x y z
#    x 3.841960 0.000000 0.000000 
#    y 0.000000 4.073350 0.000000 
#    z 0.000000 0.000000 4.105750 
# 
# 
# High freq. dielectric constant tensor:
#      x y z
#    x 1.852110 0.000000 0.000000 
#    y 0.000000 1.859630 0.000000 
#    z 0.000000 0.000000 1.857820 
# 
# From -- ./inp_files/44159.got.cif
#   From: 2010.03.12/outbox.cif.g09.slc.cpg/sg68_23_cif.got.tgz:44159.got - 2010.04.10 23:14:56.
