data_PCOD8283611
_publ_section_title
;
Structure prediction by ZEFSAII (Michael W. Deem and Ramdas Pophale) SiO2 
 PCOD8283611
Probable space group: C C C A
;
_chemical_formula_sum "Si O2"
_cell_formula_units_Z 100
_cell_length_a 15.453178
_cell_length_b 16.139338
_cell_length_c 14.206760
_cell_angle_alpha 90.000000
_cell_angle_beta 90.000000
_cell_angle_gamma 90.000000
_cell_volume 3543.223665
_symmetry_space_group_name_H-M "C C C A"
_symmetry_group_IT_number 68
_space_group.IT_coordinate_system_code '2'
_symmetry_cell_setting 'orthorhombic'
loop_
_space_group_symop_operation_xyz
x,y,z
-x,1/2-y,z
x,1/2-y,1/2-z
-x,y,1/2-z
-x,-y,-z
x,1/2+y,-z
-x,1/2+y,1/2+z
x,-y,1/2+z
1/2+x,1/2+y,z
1/2-x,-y,z
1/2+x,-y,1/2-z
1/2-x,1/2+y,1/2-z
1/2-x,1/2-y,-z
1/2+x,y,-z
1/2-x,y,1/2+z
1/2+x,1/2-y,1/2+z
loop_
_atom_site_type_symbol
_atom_site_label
_atom_site_fract_x
_atom_site_fract_y
_atom_site_fract_z
Si Si1 0.254790 0.098526 0.520608
Si Si2 0.761262 0.596109 0.809721
Si Si3 0.446417 0.651050 0.623747
Si Si4 0.439089 0.970391 0.335903
Si Si5 0.934331 0.143198 0.416431
Si Si6 0.862530 0.181936 0.839684
Si Si7 0.000000 0.750000 0.750000
O O1 0.268754 0.128325 0.413199
O O2 0.334887 0.118439 0.587352
O O3 0.171919 0.150230 0.558866
O O4 0.250000 0.000000 0.522293
O O5 0.750000 0.500000 0.786525
O O6 0.867049 0.599684 0.811459
O O7 0.711578 0.649643 0.731943
O O8 0.399731 0.560081 0.630636
O O9 0.454926 0.685676 0.517232
O O10 0.381650 0.718163 0.673175
O O11 0.541306 0.642648 0.672818
O O12 0.500000 0.988415 0.250000
O O13 0.500227 0.934692 0.417790
O O14 0.943023 0.196129 0.321561
#
# Coordination Sequence:
#
# PCOD8283611 Si02
#       7
#    16  16  16  16  16  16   4
#     4  11  24  48  84 123 168 221 287 356 437 520
#     4  11  24  46  80 123 169 225 284 354 429 513
#     4  11  25  47  81 120 171 229 283 351 439 513
#     4  12  24  48  87 126 163 225 287 349 425 525
#     4  12  26  51  86 122 165 224 284 355 424 518
#     4  11  24  47  77 121 177 221 278 362 430 515
#     4  12  28  52  80 128 162 220 292 344 424 516
#
# _framework density 28.222885000000002
#
# number of rings (size 3 to 8) (size 9 to 14) (size 15 to 20)
#    0.000    0.640    0.800    7.680    0.000    0.640 
#    0.000   16.000    7.040    5.760    0.000    0.000 
#    0.000    0.000    0.000    0.000    0.000    0.000 
#
# Total GULP energy -619426.372414 kJ/mol
# GULP energy per Si atom -12388.527448 kJ/mol
# Density = 2.815865 g / cm^3
# Si number density = 28.222885 Si / 1000 Ang^3
#
#
#
# Elastic Constant Matrix: (Units=GPa)
#
#
# Indices 1 2 3 4 5 6 
#
# 1 183.0556 73.1511 85.8924 0.0000 0.0000 0.0000
# 2 73.1511 153.9642 62.5975 0.0000 0.0000 0.0000
# 3 85.8924 62.5975 163.8649 0.0000 0.0000 0.0000
# 4 0.0000 0.0000 0.0000 -273.6356 0.0000 0.0000
# 5 0.0000 0.0000 0.0000 0.0000 56.4762 0.0000
# 6 0.0000 0.0000 0.0000 0.0000 0.0000 52.4039
#
#
#
# Elastic Compliance Matrix: (Units=1/GPa)
#
#
# Indices 1 2 3 4 5 6 
#
# 1 0.007967 -0.002471 -0.003232 0.000000 0.000000 0.000000
# 2 -0.002471 0.008456 -0.001935 0.000000 0.000000 0.000000
# 3 -0.003232 -0.001935 0.008536 0.000000 0.000000 0.000000
# 4 0.000000 0.000000 0.000000 -0.003654 0.000000 0.000000
# 5 0.000000 0.000000 0.000000 0.000000 0.017707 0.000000
# 6 0.000000 0.000000 0.000000 0.000000 0.000000 0.019083
#
#
# Mechanical properties :
#
#
# Convention : Reuss Voigt Hill
#
# Bulk Modulus (GPa) = 103.27961 104.90744 104.09352
# Shear Modulus (GPa) = 65.27727 -14.33485 25.47121
#
# Velocity S-wave (km/s) = 4.81450 -2.25614 3.00743
# Velocity P-wave (km/s) = 8.22068 5.51950 7.00159
#
# Compressibility (1/GPa) = 0.00968245
#
# Stress axis : x y z
#
# Youngs Moduli (GPa) = 125.52108 118.26247 117.15388
#
# Poissons Ratio (x) = 0.29224 0.37863
# Poissons Ratio (y) = 0.31018 0.22668
# Poissons Ratio (z) = 0.40567 0.22882
#
# Static dielectric constant tensor:
#      x y z
#    x 5.934140 0.000000 0.000000 
#    y 0.000000 5.259040 0.000000 
#    z 0.000000 0.000000 4.959710 
# 
# 
# High freq. dielectric constant tensor:
#      x y z
#    x 2.173720 0.000000 0.000000 
#    y 0.000000 2.132500 0.000000 
#    z 0.000000 0.000000 2.171060 
# 
# From -- ./inp_files/22534.got.cif
#   From: 2010.03.12/outbox.cif.g09.slc.cpg/sg68_12_cif.got.tgz:22534.got - 2010.04.10 23:14:56.
