data_PCOD8283523
_publ_section_title
;
Structure prediction by ZEFSAII (Michael W. Deem and Ramdas Pophale) SiO2 
 PCOD8283523
Probable space group: C C C A
;
_chemical_formula_sum "Si O2"
_cell_formula_units_Z 64
_cell_length_a 9.715022
_cell_length_b 17.321285
_cell_length_c 19.791527
_cell_angle_alpha 90.000000
_cell_angle_beta 90.000000
_cell_angle_gamma 90.000000
_cell_volume 3330.452156
_symmetry_space_group_name_H-M "C C C A"
_symmetry_group_IT_number 68
_space_group.IT_coordinate_system_code '2'
_symmetry_cell_setting 'orthorhombic'
loop_
_space_group_symop_operation_xyz
x,y,z
-x,1/2-y,z
x,1/2-y,1/2-z
-x,y,1/2-z
-x,-y,-z
x,1/2+y,-z
-x,1/2+y,1/2+z
x,-y,1/2+z
1/2+x,1/2+y,z
1/2-x,-y,z
1/2+x,-y,1/2-z
1/2-x,1/2+y,1/2-z
1/2-x,1/2-y,-z
1/2+x,y,-z
1/2-x,y,1/2+z
1/2+x,1/2-y,1/2+z
loop_
_atom_site_type_symbol
_atom_site_label
_atom_site_fract_x
_atom_site_fract_y
_atom_site_fract_z
Si Si1 0.642251 0.713830 0.322933
Si Si2 0.393520 0.467392 0.693083
Si Si3 0.393922 0.035710 0.449021
Si Si4 0.348229 0.784947 0.942665
O O1 0.500000 0.750000 0.351602
O O2 0.677536 0.750000 0.250000
O O3 0.617116 0.623171 0.319100
O O4 0.770406 0.730775 0.371904
O O5 0.500000 0.489214 0.750000
O O6 0.250000 0.500000 0.719426
O O7 0.440673 0.511894 0.625895
O O8 0.376155 0.126233 0.457187
O O9 0.500000 0.000000 0.500000
O O10 0.250000 0.000000 0.468452
O O11 0.500000 0.750000 0.940657
O O12 0.250000 0.750000 0.000000
#
# Coordination Sequence:
#
# PCOD8283523 Si02
#       4
#    16  16  16  16
#     4  11  23  44  70  96 134 180 222 272 340 401
#     4  11  23  44  69  97 135 174 223 275 328 401
#     4  11  24  44  66  95 136 172 218 272 328 396
#     4  12  26  43  69 102 134 175 226 281 333 401
#
# _framework density 19.216609999999999
#
# number of rings (size 3 to 8) (size 9 to 14) (size 15 to 20)
#    0.000    0.750    7.500    2.250    3.500    3.500 
#    0.000    0.000    0.000    0.000    0.000    0.000 
#    0.000    0.000    0.000    0.000    0.000    0.000 
#
# Total GULP energy -396778.548149 kJ/mol
# GULP energy per Si atom -12399.329630 kJ/mol
# Density = 1.917287 g / cm^3
# Si number density = 19.216610 Si / 1000 Ang^3
#
#
#
# Elastic Constant Matrix: (Units=GPa)
#
#
# Indices 1 2 3 4 5 6 
#
# 1 187.3935 74.3029 105.1572 0.0000 0.0000 0.0000
# 2 74.3029 180.8149 60.8302 0.0000 0.0000 0.0000
# 3 105.1572 60.8302 149.7659 0.0000 0.0000 0.0000
# 4 0.0000 0.0000 0.0000 33.0193 0.0000 0.0000
# 5 0.0000 0.0000 0.0000 0.0000 59.1616 0.0000
# 6 0.0000 0.0000 0.0000 0.0000 0.0000 36.6049
#
#
#
# Elastic Compliance Matrix: (Units=1/GPa)
#
#
# Indices 1 2 3 4 5 6 
#
# 1 0.009331 -0.001888 -0.005785 0.000000 0.000000 0.000000
# 2 -0.001888 0.006788 -0.001431 0.000000 0.000000 0.000000
# 3 -0.005785 -0.001431 0.011320 0.000000 0.000000 0.000000
# 4 0.000000 0.000000 0.000000 0.030285 0.000000 0.000000
# 5 0.000000 0.000000 0.000000 0.000000 0.016903 0.000000
# 6 0.000000 0.000000 0.000000 0.000000 0.000000 0.027319
#
#
# Mechanical properties :
#
#
# Convention : Reuss Voigt Hill
#
# Bulk Modulus (GPa) = 108.33509 110.95055 109.64282
# Shear Modulus (GPa) = 40.57372 44.26944 42.42158
#
# Velocity S-wave (km/s) = 4.59997 4.80490 4.70355
# Velocity P-wave (km/s) = 9.20386 9.41514 9.31010
#
# Compressibility (1/GPa) = 0.00923062
#
# Stress axis : x y z
#
# Youngs Moduli (GPa) = 107.16490 147.31905 88.33707
#
# Poissons Ratio (x) = 0.27820 0.51103
# Poissons Ratio (y) = 0.20237 0.12642
# Poissons Ratio (z) = 0.61995 0.21084
#
# Static dielectric constant tensor:
#      x y z
#    x 3.388120 0.000000 0.000000 
#    y 0.000000 3.957710 0.000000 
#    z 0.000000 0.000000 1.360190 
# 
# 
# High freq. dielectric constant tensor:
#      x y z
#    x 1.760880 0.000000 0.000000 
#    y 0.000000 1.768890 0.000000 
#    z 0.000000 0.000000 1.754680 
# 
# From -- ./inp_files/35733.got.cif
#   From: 2010.03.12/outbox.cif.g09.slc.cpg/sg68_18_cif.got.tgz:35733.got - 2010.04.10 23:14:56.
