data_PCOD8283598
_publ_section_title
;
Structure prediction by ZEFSAII (Michael W. Deem and Ramdas Pophale) SiO2 
 PCOD8283598
Probable space group: C C C A
;
_chemical_formula_sum "Si O2"
_cell_formula_units_Z 48
_cell_length_a 8.444669
_cell_length_b 24.480147
_cell_length_c 9.970345
_cell_angle_alpha 90.000000
_cell_angle_beta 90.000000
_cell_angle_gamma 90.000000
_cell_volume 2061.136903
_symmetry_space_group_name_H-M "C C C A"
_symmetry_group_IT_number 68
_space_group.IT_coordinate_system_code '2'
_symmetry_cell_setting 'orthorhombic'
loop_
_space_group_symop_operation_xyz
x,y,z
-x,1/2-y,z
x,1/2-y,1/2-z
-x,y,1/2-z
-x,-y,-z
x,1/2+y,-z
-x,1/2+y,1/2+z
x,-y,1/2+z
1/2+x,1/2+y,z
1/2-x,-y,z
1/2+x,-y,1/2-z
1/2-x,1/2+y,1/2-z
1/2-x,1/2-y,-z
1/2+x,y,-z
1/2-x,y,1/2+z
1/2+x,1/2-y,1/2+z
loop_
_atom_site_type_symbol
_atom_site_label
_atom_site_fract_x
_atom_site_fract_y
_atom_site_fract_z
Si Si1 0.894229 0.100244 0.119709
Si Si2 0.328069 0.775212 0.375155
Si Si3 0.564658 0.547672 0.900952
O O1 0.819817 0.159682 0.133804
O O2 0.755338 0.054137 0.109970
O O3 0.000000 0.085401 0.250000
O O4 0.996229 0.100487 0.981186
O O5 0.500000 0.750000 0.370411
O O6 0.231893 0.750000 0.250000
O O7 0.250000 0.750000 0.500000
O O8 0.500000 0.542123 0.750000
O O9 0.500000 0.500000 0.000000
#
# Coordination Sequence:
#
# PCOD8283598 Si02
#       3
#    16  16  16
#     4  12  25  48  76 108 154 204 258 322 389 463
#     4  11  24  45  70 108 154 200 261 310 376 459
#     4  12  28  48  75 109 148 200 262 326 402 469
#
# _framework density 23.288118000000001
#
# number of rings (size 3 to 8) (size 9 to 14) (size 15 to 20)
#    0.000    0.333    3.333    6.000    4.667    3.333 
#    0.000    0.000    0.000    0.000    0.000    0.000 
#    0.000    0.000    0.000    0.000    0.000    0.000 
#
# Total GULP energy -297357.908002 kJ/mol
# GULP energy per Si atom -12389.912833 kJ/mol
# Density = 2.323511 g / cm^3
# Si number density = 23.288118 Si / 1000 Ang^3
#
#
#
# Elastic Constant Matrix: (Units=GPa)
#
#
# Indices 1 2 3 4 5 6 
#
# 1 136.3201 35.6723 84.7608 0.0000 0.0000 0.0000
# 2 35.6723 146.5274 62.3386 0.0000 0.0000 0.0000
# 3 84.7608 62.3386 270.7442 0.0000 0.0000 0.0000
# 4 0.0000 0.0000 0.0000 43.3514 0.0000 0.0000
# 5 0.0000 0.0000 0.0000 0.0000 48.1363 0.0000
# 6 0.0000 0.0000 0.0000 0.0000 0.0000 32.6285
#
#
#
# Elastic Compliance Matrix: (Units=1/GPa)
#
#
# Indices 1 2 3 4 5 6 
#
# 1 0.009276 -0.001134 -0.002643 0.000000 0.000000 0.000000
# 2 -0.001134 0.007704 -0.001419 0.000000 0.000000 0.000000
# 3 -0.002643 -0.001419 0.004848 0.000000 0.000000 0.000000
# 4 0.000000 0.000000 0.000000 0.023067 0.000000 0.000000
# 5 0.000000 0.000000 0.000000 0.000000 0.020774 0.000000
# 6 0.000000 0.000000 0.000000 0.000000 0.000000 0.030648
#
#
# Mechanical properties :
#
#
# Convention : Reuss Voigt Hill
#
# Bulk Modulus (GPa) = 87.43995 102.12613 94.78304
# Shear Modulus (GPa) = 45.24041 49.54456 47.39249
#
# Velocity S-wave (km/s) = 4.41232 4.61744 4.51605
# Velocity P-wave (km/s) = 7.97412 8.50742 8.24509
#
# Compressibility (1/GPa) = 0.01143642
#
# Stress axis : x y z
#
# Youngs Moduli (GPa) = 107.80952 129.79640 206.28693
#
# Poissons Ratio (x) = 0.14716 0.54518
# Poissons Ratio (y) = 0.12223 0.29272
# Poissons Ratio (z) = 0.28492 0.18418
#
# Static dielectric constant tensor:
#      x y z
#    x 4.449090 0.000000 0.000000 
#    y 0.000000 4.524420 0.000000 
#    z 0.000000 0.000000 4.553500 
# 
# 
# High freq. dielectric constant tensor:
#      x y z
#    x 1.919370 0.000000 0.000000 
#    y 0.000000 1.937600 0.000000 
#    z 0.000000 0.000000 1.950980 
# 
# From -- ./inp_files/3280.got.cif
#   From: 2010.03.12/outbox.cif.g09.slc.cpg/sg68_2_cif.got.tgz:3280.got - 2010.04.10 23:14:56.
