data_PCOD8283337
_publ_section_title
;
Structure prediction by ZEFSAII (Michael W. Deem and Ramdas Pophale) SiO2 
 PCOD8283337
Probable space group: C C C A
;
_chemical_formula_sum "Si O2"
_cell_formula_units_Z 84
_cell_length_a 24.056086
_cell_length_b 17.457658
_cell_length_c 9.893491
_cell_angle_alpha 90.000000
_cell_angle_beta 90.000000
_cell_angle_gamma 90.000000
_cell_volume 4154.899391
_symmetry_space_group_name_H-M "C C C A"
_symmetry_group_IT_number 68
_space_group.IT_coordinate_system_code '2'
_symmetry_cell_setting 'orthorhombic'
loop_
_space_group_symop_operation_xyz
x,y,z
-x,1/2-y,z
x,1/2-y,1/2-z
-x,y,1/2-z
-x,-y,-z
x,1/2+y,-z
-x,1/2+y,1/2+z
x,-y,1/2+z
1/2+x,1/2+y,z
1/2-x,-y,z
1/2+x,-y,1/2-z
1/2-x,1/2+y,1/2-z
1/2-x,1/2-y,-z
1/2+x,y,-z
1/2-x,y,1/2+z
1/2+x,1/2-y,1/2+z
loop_
_atom_site_type_symbol
_atom_site_label
_atom_site_fract_x
_atom_site_fract_y
_atom_site_fract_z
Si Si1 0.771068 0.301645 0.126822
Si Si2 0.841701 0.840537 0.277530
Si Si3 0.009824 0.430749 0.400611
Si Si4 0.572071 0.816880 0.971842
Si Si5 0.381874 0.349442 0.989656
Si Si6 0.000000 0.250000 0.750000
O O1 0.792165 0.250000 0.250000
O O2 0.722592 0.357621 0.185782
O O3 0.823137 0.354245 0.087265
O O4 0.750000 0.250000 0.000000
O O5 0.846621 0.750000 0.250000
O O6 0.875475 0.864715 0.413106
O O7 0.867637 0.878267 0.142560
O O8 0.073388 0.404993 0.422208
O O9 0.000000 0.460921 0.250000
O O10 0.000000 0.500000 0.500000
O O11 0.964506 0.362741 0.420124
O O12 0.535316 0.807126 0.839090
O O13 0.592406 0.735482 0.028200
#
# Coordination Sequence:
#
# PCOD8283337 Si02
#       6
#    16  16  16  16  16   4
#     4  11  19  32  56  98 137 159 200 262 322 376
#     4   9  17  32  59  97 123 165 196 245 326 368
#     4  12  30  45  61  91 126 172 219 268 328 380
#     4  11  19  35  64  92 124 159 211 258 318 382
#     4  11  21  38  64  96 130 163 205 263 320 383
#     4  12  16  32  66  92 116 168 204 264 310 380
#
# _framework density 20.217096000000002
#
# number of rings (size 3 to 8) (size 9 to 14) (size 15 to 20)
#    0.000    1.143   10.476    0.000    6.667    0.762 
#    0.000    0.000    0.000    1.143    0.000    0.000 
#    0.000    0.000    0.000    0.000    0.000    0.000 
#
# Total GULP energy -520402.040214 kJ/mol
# GULP energy per Si atom -12390.524767 kJ/mol
# Density = 2.017108 g / cm^3
# Si number density = 20.217096 Si / 1000 Ang^3
#
#
#
# Elastic Constant Matrix: (Units=GPa)
#
#
# Indices 1 2 3 4 5 6 
#
# 1 159.1899 33.5519 48.7949 0.0000 0.0000 0.0000
# 2 33.5519 43.8955 29.8474 0.0000 0.0000 0.0000
# 3 48.7949 29.8474 123.9197 0.0000 0.0000 0.0000
# 4 0.0000 0.0000 0.0000 25.3310 0.0000 0.0000
# 5 0.0000 0.0000 0.0000 0.0000 49.6503 0.0000
# 6 0.0000 0.0000 0.0000 0.0000 0.0000 12.7562
#
#
#
# Elastic Compliance Matrix: (Units=1/GPa)
#
#
# Indices 1 2 3 4 5 6 
#
# 1 0.007872 -0.004675 -0.001974 0.000000 0.000000 0.000000
# 2 -0.004675 0.030020 -0.005390 0.000000 0.000000 0.000000
# 3 -0.001974 -0.005390 0.010145 0.000000 0.000000 0.000000
# 4 0.000000 0.000000 0.000000 0.039477 0.000000 0.000000
# 5 0.000000 0.000000 0.000000 0.000000 0.020141 0.000000
# 6 0.000000 0.000000 0.000000 0.000000 0.000000 0.078393
#
#
# Mechanical properties :
#
#
# Convention : Reuss Voigt Hill
#
# Bulk Modulus (GPa) = 41.73644 61.26595 51.50119
# Shear Modulus (GPa) = 22.92403 31.86823 27.39613
#
# Velocity S-wave (km/s) = 3.37099 3.97457 3.68516
# Velocity P-wave (km/s) = 5.98668 7.17167 6.60580
#
# Compressibility (1/GPa) = 0.02395988
#
# Stress axis : x y z
#
# Youngs Moduli (GPa) = 127.03038 33.31159 98.57005
#
# Poissons Ratio (x) = 0.15573 0.19455
# Poissons Ratio (y) = 0.59388 0.53126
# Poissons Ratio (z) = 0.25072 0.17954
#
# Static dielectric constant tensor:
#      x y z
#    x 4.492950 0.000000 0.000000 
#    y 0.000000 2.999910 0.000000 
#    z 0.000000 0.000000 3.544460 
# 
# 
# High freq. dielectric constant tensor:
#      x y z
#    x 1.819060 0.000000 0.000000 
#    y 0.000000 1.709410 0.000000 
#    z 0.000000 0.000000 1.799160 
# 
# From -- ./inp_files/7959.got.cif
#   From: 2010.03.12/outbox.cif.g09.slc.cpg/sg68_4_cif.got.tgz:7959.got - 2010.04.10 23:14:56.
