data_PCOD8283302
_publ_section_title
;
Structure prediction by ZEFSAII (Michael W. Deem and Ramdas Pophale) SiO2 
 PCOD8283302
Probable space group: C C C A
;
_chemical_formula_sum "Si O2"
_cell_formula_units_Z 64
_cell_length_a 8.064608
_cell_length_b 21.102504
_cell_length_c 16.396782
_cell_angle_alpha 90.000000
_cell_angle_beta 90.000000
_cell_angle_gamma 90.000000
_cell_volume 2790.460480
_symmetry_space_group_name_H-M "C C C A"
_symmetry_group_IT_number 68
_space_group.IT_coordinate_system_code '2'
_symmetry_cell_setting 'orthorhombic'
loop_
_space_group_symop_operation_xyz
x,y,z
-x,1/2-y,z
x,1/2-y,1/2-z
-x,y,1/2-z
-x,-y,-z
x,1/2+y,-z
-x,1/2+y,1/2+z
x,-y,1/2+z
1/2+x,1/2+y,z
1/2-x,-y,z
1/2+x,-y,1/2-z
1/2-x,1/2+y,1/2-z
1/2-x,1/2-y,-z
1/2+x,y,-z
1/2-x,y,1/2+z
1/2+x,1/2-y,1/2+z
loop_
_atom_site_type_symbol
_atom_site_label
_atom_site_fract_x
_atom_site_fract_y
_atom_site_fract_z
Si Si1 0.000000 0.250000 0.619982
Si Si2 0.855891 0.561732 0.914151
Si Si3 0.000000 0.102736 0.250000
Si Si4 0.591469 0.141022 0.012030
Si Si5 0.659581 0.293511 0.653631
O O1 0.021916 0.186674 0.565990
O O2 0.828276 0.253145 0.672048
O O3 0.750000 0.500000 0.935754
O O4 0.738417 0.622408 0.926255
O O5 0.924124 0.558584 0.821560
O O6 0.002277 0.576191 0.979771
O O7 0.147673 0.145804 0.213225
O O8 0.661240 0.182549 0.938553
O O9 0.500000 0.250000 0.670461
#
# Coordination Sequence:
#
# PCOD8283302 Si02
#       5
#     8  16   8  16  16
#     4  12  20  38  71 107 132 174 222 286 350 419
#     4  11  24  46  69  95 132 184 230 286 339 398
#     4  10  25  46  60  96 146 187 224 282 352 404
#     4  11  21  40  70 104 130 166 233 287 343 402
#     4  11  22  40  67  99 149 176 217 284 353 417
#
# _framework density 22.935282999999998
#
# number of rings (size 3 to 8) (size 9 to 14) (size 15 to 20)
#    0.000    1.000    3.750    4.875    0.000    0.000 
#    4.500   11.250    0.000    0.000    0.000    0.000 
#    0.000    0.000    0.000    0.000    0.000    0.000 
#
# Total GULP energy -396485.362832 kJ/mol
# GULP energy per Si atom -12390.167589 kJ/mol
# Density = 2.288308 g / cm^3
# Si number density = 22.935283 Si / 1000 Ang^3
#
#
#
# Elastic Constant Matrix: (Units=GPa)
#
#
# Indices 1 2 3 4 5 6 
#
# 1 133.8772 8.8590 6.5474 0.0000 0.0000 0.0000
# 2 8.8590 43.4527 4.0343 0.0000 0.0000 0.0000
# 3 6.5474 4.0343 78.3786 0.0000 0.0000 0.0000
# 4 0.0000 0.0000 0.0000 14.9679 0.0000 0.0000
# 5 0.0000 0.0000 0.0000 0.0000 10.1202 0.0000
# 6 0.0000 0.0000 0.0000 0.0000 0.0000 40.4023
#
#
#
# Elastic Compliance Matrix: (Units=1/GPa)
#
#
# Indices 1 2 3 4 5 6 
#
# 1 0.007596 -0.001497 -0.000557 0.000000 0.000000 0.000000
# 2 -0.001497 0.023419 -0.001080 0.000000 0.000000 0.000000
# 3 -0.000557 -0.001080 0.012861 0.000000 0.000000 0.000000
# 4 0.000000 0.000000 0.000000 0.066810 0.000000 0.000000
# 5 0.000000 0.000000 0.000000 0.000000 0.098812 0.000000
# 6 0.000000 0.000000 0.000000 0.000000 0.000000 0.024751
#
#
# Mechanical properties :
#
#
# Convention : Reuss Voigt Hill
#
# Bulk Modulus (GPa) = 26.59136 32.73222 29.66179
# Shear Modulus (GPa) = 19.75869 28.84927 24.30398
#
# Velocity S-wave (km/s) = 2.93831 3.55047 3.25880
# Velocity P-wave (km/s) = 4.80945 5.57767 5.20774
#
# Compressibility (1/GPa) = 0.03760620
#
# Stress axis : x y z
#
# Youngs Moduli (GPa) = 131.65092 42.70032 77.75589
#
# Poissons Ratio (x) = 0.06392 0.04335
# Poissons Ratio (y) = 0.19706 0.08401
# Poissons Ratio (z) = 0.07339 0.04613
#
# Static dielectric constant tensor:
#      x y z
#    x 3.884560 0.000000 0.000000 
#    y 0.000000 4.178010 0.000000 
#    z 0.000000 0.000000 4.075790 
# 
# 
# High freq. dielectric constant tensor:
#      x y z
#    x 1.913780 0.000000 0.000000 
#    y 0.000000 1.886020 0.000000 
#    z 0.000000 0.000000 1.907930 
# 
# From -- ./inp_files/19272.got.cif
#   From: 2010.03.12/outbox.cif.g09.slc.cpg/sg68_10_cif.got.tgz:19272.got - 2010.04.10 23:14:56.
