data_PCOD8283164
_publ_section_title
;
Structure prediction by ZEFSAII (Michael W. Deem and Ramdas Pophale) SiO2 
 PCOD8283164
Probable space group: C C C A
;
_chemical_formula_sum "Si O2"
_cell_formula_units_Z 64
_cell_length_a 12.008698
_cell_length_b 15.532072
_cell_length_c 13.812626
_cell_angle_alpha 90.000000
_cell_angle_beta 90.000000
_cell_angle_gamma 90.000000
_cell_volume 2576.330476
_symmetry_space_group_name_H-M "C C C A"
_symmetry_group_IT_number 68
_space_group.IT_coordinate_system_code '2'
_symmetry_cell_setting 'orthorhombic'
loop_
_space_group_symop_operation_xyz
x,y,z
-x,1/2-y,z
x,1/2-y,1/2-z
-x,y,1/2-z
-x,-y,-z
x,1/2+y,-z
-x,1/2+y,1/2+z
x,-y,1/2+z
1/2+x,1/2+y,z
1/2-x,-y,z
1/2+x,-y,1/2-z
1/2-x,1/2+y,1/2-z
1/2-x,1/2-y,-z
1/2+x,y,-z
1/2-x,y,1/2+z
1/2+x,1/2-y,1/2+z
loop_
_atom_site_type_symbol
_atom_site_label
_atom_site_fract_x
_atom_site_fract_y
_atom_site_fract_z
Si Si1 0.628702 0.009570 0.877308
Si Si2 0.611899 0.201374 0.906561
Si Si3 0.750000 0.000000 0.562279
Si Si4 0.810770 0.820123 0.124075
Si Si5 0.000000 0.620702 0.250000
O O1 0.592694 0.107708 0.860671
O O2 0.750000 0.000000 0.826723
O O3 0.640983 0.989740 0.992806
O O4 0.541743 0.941489 0.835710
O O5 0.500000 0.250000 0.881473
O O6 0.717148 0.248074 0.854998
O O7 0.632682 0.198433 0.021072
O O8 0.756322 0.084742 0.627797
O O9 0.904671 0.817205 0.207311
#
# Coordination Sequence:
#
# PCOD8283164 Si02
#       5
#    16  16   8  16   8
#     4   9  23  45  64 102 139 186 237 290 359 442
#     4  10  23  45  76  99 141 195 250 287 354 450
#     4   8  20  42  74  88 138 192 250 280 344 468
#     4  10  24  42  73 106 144 185 246 305 360 428
#     4  12  26  40  76 106 148 184 236 316 375 407
#
# _framework density 24.841532999999998
#
# number of rings (size 3 to 8) (size 9 to 14) (size 15 to 20)
#    0.750    1.500    0.000    0.000    8.750    2.000 
#    0.000    8.750    0.000    0.000    0.000    0.000 
#    0.000    0.000    0.000    0.000    0.000    0.000 
#
# Total GULP energy -396746.671751 kJ/mol
# GULP energy per Si atom -12398.333492 kJ/mol
# Density = 2.478499 g / cm^3
# Si number density = 24.841533 Si / 1000 Ang^3
#
#
#
# Elastic Constant Matrix: (Units=GPa)
#
#
# Indices 1 2 3 4 5 6 
#
# 1 141.3385 69.3893 36.6354 0.0000 0.0000 0.0000
# 2 69.3893 109.7363 38.5461 0.0000 0.0000 0.0000
# 3 36.6354 38.5461 62.9569 0.0000 0.0000 0.0000
# 4 0.0000 0.0000 0.0000 22.1326 0.0000 0.0000
# 5 0.0000 0.0000 0.0000 0.0000 38.4586 0.0000
# 6 0.0000 0.0000 0.0000 0.0000 0.0000 46.1042
#
#
#
# Elastic Compliance Matrix: (Units=1/GPa)
#
#
# Indices 1 2 3 4 5 6 
#
# 1 0.010591 -0.005774 -0.002628 0.000000 0.000000 0.000000
# 2 -0.005774 0.014757 -0.005675 0.000000 0.000000 0.000000
# 3 -0.002628 -0.005675 0.020888 0.000000 0.000000 0.000000
# 4 0.000000 0.000000 0.000000 0.045182 0.000000 0.000000
# 5 0.000000 0.000000 0.000000 0.000000 0.026002 0.000000
# 6 0.000000 0.000000 0.000000 0.000000 0.000000 0.021690
#
#
# Mechanical properties :
#
#
# Convention : Reuss Voigt Hill
#
# Bulk Modulus (GPa) = 55.30423 67.01925 61.16174
# Shear Modulus (GPa) = 28.85296 32.63645 30.74471
#
# Velocity S-wave (km/s) = 3.41175 3.62855 3.52182
# Velocity P-wave (km/s) = 6.15070 6.67776 6.41964
#
# Compressibility (1/GPa) = 0.01808180
#
# Stress axis : x y z
#
# Youngs Moduli (GPa) = 94.41925 67.76293 47.87452
#
# Poissons Ratio (x) = 0.39126 0.12581
# Poissons Ratio (y) = 0.54517 0.27171
# Poissons Ratio (z) = 0.24812 0.38458
#
# Static dielectric constant tensor:
#      x y z
#    x 4.339110 0.000000 0.000000 
#    y 0.000000 4.508610 0.000000 
#    z 0.000000 0.000000 4.085830 
# 
# 
# High freq. dielectric constant tensor:
#      x y z
#    x 1.981660 0.000000 0.000000 
#    y 0.000000 2.003530 0.000000 
#    z 0.000000 0.000000 1.969680 
# 
# From -- ./inp_files/20511.got.cif
#   From: 2010.03.12/outbox.cif.g09.slc.cpg/sg68_11_cif.got.tgz:20511.got - 2010.04.10 23:14:56.
