data_PCOD8283311
_publ_section_title
;
Structure prediction by ZEFSAII (Michael W. Deem and Ramdas Pophale) SiO2 
 PCOD8283311
Probable space group: C C C A
;
_chemical_formula_sum "Si O2"
_cell_formula_units_Z 88
_cell_length_a 10.800629
_cell_length_b 15.635845
_cell_length_c 22.806762
_cell_angle_alpha 90.000000
_cell_angle_beta 90.000000
_cell_angle_gamma 90.000000
_cell_volume 3851.536656
_symmetry_space_group_name_H-M "C C C A"
_symmetry_group_IT_number 68
_space_group.IT_coordinate_system_code '2'
_symmetry_cell_setting 'orthorhombic'
loop_
_space_group_symop_operation_xyz
x,y,z
-x,1/2-y,z
x,1/2-y,1/2-z
-x,y,1/2-z
-x,-y,-z
x,1/2+y,-z
-x,1/2+y,1/2+z
x,-y,1/2+z
1/2+x,1/2+y,z
1/2-x,-y,z
1/2+x,-y,1/2-z
1/2-x,1/2+y,1/2-z
1/2-x,1/2-y,-z
1/2+x,y,-z
1/2-x,y,1/2+z
1/2+x,1/2-y,1/2+z
loop_
_atom_site_type_symbol
_atom_site_label
_atom_site_fract_x
_atom_site_fract_y
_atom_site_fract_z
Si Si1 0.860579 0.937565 0.727104
Si Si2 0.250000 0.500000 0.495781
Si Si3 0.340063 0.393905 0.600244
Si Si4 0.000000 0.750000 0.461336
Si Si5 0.244148 0.250000 0.250000
Si Si6 0.599204 0.641294 0.060544
Si Si7 0.695795 0.732937 0.624643
O O1 0.855674 0.954820 0.656869
O O2 0.837696 0.835789 0.738434
O O3 0.000000 0.961990 0.750000
O O4 0.750000 0.000000 0.753697
O O5 0.328767 0.440125 0.538144
O O6 0.350899 0.547071 0.454923
O O7 0.468956 0.346013 0.592068
O O8 0.224035 0.331215 0.608061
O O9 0.094416 0.806057 0.499694
O O10 0.085191 0.695755 0.415860
O O11 0.331909 0.270487 0.305819
O O12 0.686098 0.676594 0.111141
#
# Coordination Sequence:
#
# PCOD8283311 Si02
#       7
#    16   8  16   8   8  16  16
#     4  11  24  48  74 104 139 188 245 303 356 426
#     4  12  24  40  60 104 142 172 216 282 362 410
#     4  11  22  43  68  93 136 182 222 283 355 418
#     4  12  22  39  70  95 138 176 222 290 350 412
#     4  10  25  49  74 102 139 196 241 288 355 432
#     4  12  23  41  68 100 131 177 231 281 342 424
#     4  11  23  44  69  99 132 180 237 281 343 419
#
# _framework density 22.848023999999999
#
# number of rings (size 3 to 8) (size 9 to 14) (size 15 to 20)
#    0.000    0.727    4.545    3.545    0.000    3.273 
#   16.364    0.000    0.000    0.000    0.000    0.000 
#    0.000    0.000    0.000    0.000    0.000    0.000 
#
# Total GULP energy -545084.910878 kJ/mol
# GULP energy per Si atom -12388.293429 kJ/mol
# Density = 2.279602 g / cm^3
# Si number density = 22.848024 Si / 1000 Ang^3
#
#
#
# Elastic Constant Matrix: (Units=GPa)
#
#
# Indices 1 2 3 4 5 6 
#
# 1 79.5074 15.3640 20.7918 0.0000 0.0000 0.0000
# 2 15.3640 79.0034 20.9443 0.0000 0.0000 0.0000
# 3 20.7918 20.9443 132.5726 0.0000 0.0000 0.0000
# 4 0.0000 0.0000 0.0000 92.2142 0.0000 0.0000
# 5 0.0000 0.0000 0.0000 0.0000 32.5786 0.0000
# 6 0.0000 0.0000 0.0000 0.0000 0.0000 35.4518
#
#
#
# Elastic Compliance Matrix: (Units=1/GPa)
#
#
# Indices 1 2 3 4 5 6 
#
# 1 0.013456 -0.002147 -0.001771 0.000000 0.000000 0.000000
# 2 -0.002147 0.013554 -0.001804 0.000000 0.000000 0.000000
# 3 -0.001771 -0.001804 0.008106 0.000000 0.000000 0.000000
# 4 0.000000 0.000000 0.000000 0.010844 0.000000 0.000000
# 5 0.000000 0.000000 0.000000 0.000000 0.030695 0.000000
# 6 0.000000 0.000000 0.000000 0.000000 0.000000 0.028207
#
#
# Mechanical properties :
#
#
# Convention : Reuss Voigt Hill
#
# Bulk Modulus (GPa) = 42.24844 45.03152 43.63998
# Shear Modulus (GPa) = 40.25865 47.64784 43.95324
#
# Velocity S-wave (km/s) = 4.20219 4.57160 4.39078
# Velocity P-wave (km/s) = 6.48659 6.90058 6.69678
#
# Compressibility (1/GPa) = 0.02366951
#
# Stress axis : x y z
#
# Youngs Moduli (GPa) = 74.31900 73.78091 123.36729
#
# Poissons Ratio (x) = 0.15842 0.21849
# Poissons Ratio (y) = 0.15958 0.22262
# Poissons Ratio (z) = 0.13162 0.13314
#
# Static dielectric constant tensor:
#      x y z
#    x 3.672310 0.000000 0.000000 
#    y 0.000000 4.050360 0.000000 
#    z 0.000000 0.000000 4.373800 
# 
# 
# High freq. dielectric constant tensor:
#      x y z
#    x 1.897990 0.000000 0.000000 
#    y 0.000000 1.882670 0.000000 
#    z 0.000000 0.000000 1.915680 
# 
# From -- ./inp_files/44280.got.cif
#   From: 2010.03.12/outbox.cif.g09.slc.cpg/sg68_23_cif.got.tgz:44280.got - 2010.04.10 23:14:56.
