data_PCOD8283955
_publ_section_title
;
Structure prediction by ZEFSAII (Michael W. Deem and Ramdas Pophale) SiO2 
 PCOD8283955
Probable space group: F M M M
;
_chemical_formula_sum "Si O2"
_cell_formula_units_Z 168
_cell_length_a 28.996091
_cell_length_b 21.381339
_cell_length_c 14.533549
_cell_angle_alpha 90.000000
_cell_angle_beta 90.000000
_cell_angle_gamma 90.000000
_cell_volume 9010.440694
_symmetry_space_group_name_H-M "F M M M"
_symmetry_group_IT_number 69
_symmetry_cell_setting 'orthorhombic'
loop_
_space_group_symop_operation_xyz
x,y,z
-x,-y,z
x,-y,-z
-x,y,-z
-x,-y,-z
x,y,-z
-x,y,z
x,-y,z
x,1/2+y,1/2+z
-x,1/2-y,1/2+z
x,1/2-y,1/2-z
-x,1/2+y,1/2-z
-x,1/2-y,1/2-z
x,1/2+y,1/2-z
-x,1/2+y,1/2+z
x,1/2-y,1/2+z
1/2+x,y,1/2+z
1/2-x,-y,1/2+z
1/2+x,-y,1/2-z
1/2-x,y,1/2-z
1/2-x,-y,1/2-z
1/2+x,y,1/2-z
1/2-x,y,1/2+z
1/2+x,-y,1/2+z
1/2+x,1/2+y,z
1/2-x,1/2-y,z
1/2+x,1/2-y,-z
1/2-x,1/2+y,-z
1/2-x,1/2-y,-z
1/2+x,1/2+y,-z
1/2-x,1/2+y,z
1/2+x,1/2-y,z
loop_
_atom_site_type_symbol
_atom_site_label
_atom_site_fract_x
_atom_site_fract_y
_atom_site_fract_z
Si Si1 0.205837 0.162343 0.398741
Si Si2 0.551111 0.426161 0.244118
Si Si3 0.250000 0.250000 0.250000
Si Si4 0.775284 0.929651 0.846896
Si Si5 0.875837 0.926175 0.102402
Si Si6 0.377173 0.928911 0.106266
O O1 0.197120 0.194167 0.500000
O O2 0.216123 0.210919 0.316697
O O3 0.249627 0.117173 0.415409
O O4 0.162917 0.119495 0.368289
O O5 0.500000 0.395670 0.243986
O O6 0.546695 0.500000 0.233135
O O7 0.581014 0.398317 0.159259
O O8 0.576912 0.409548 0.338907
O O9 0.750000 0.921850 0.750000
O O10 0.828913 0.909731 0.842506
O O11 0.770919 0.000000 0.885337
O O12 0.881173 0.000000 0.095178
O O13 0.875233 0.896603 0.000000
O O14 0.361321 0.000000 0.133599
O O15 0.390433 0.925696 0.000000
#
# Coordination Sequence:
#
# PCOD8283955 Si02
#       6
#    32  32   8  32  32  32
#     4  11  22  37  55  74 103 139 175 214 260 312
#     4   9  17  28  44  70 105 140 169 201 251 314
#     4  12  26  40  50  74 102 144 182 222 252 302
#     4  10  18  30  51  78 106 136 170 214 263 311
#     4   9  17  27  40  64  99 136 173 207 243 297
#     4   9  18  33  54  80 107 135 170 212 260 312
#
# _framework density 18.645036999999999
#
# number of rings (size 3 to 8) (size 9 to 14) (size 15 to 20)
#    0.000    2.286    0.952    2.571    0.000    5.714 
#    0.000    3.810    0.000    0.000    0.000    0.667 
#    0.000    0.000    0.000    0.000    0.000    0.000 
#
# Total GULP energy -520458.090807 kJ/mol
# GULP energy per Si atom -12391.859305 kJ/mol
# Density = 1.860260 g / cm^3
# Si number density = 18.645037 Si / 1000 Ang^3
#
#
#
# Elastic Constant Matrix: (Units=GPa)
#
#
# Indices 1 2 3 4 5 6 
#
# 1 171.1621 37.0544 76.2612 0.0000 0.0000 0.0000
# 2 37.0544 47.6988 37.8613 0.0000 0.0000 0.0000
# 3 76.2612 37.8613 136.6317 0.0000 0.0000 0.0000
# 4 0.0000 0.0000 0.0000 6.5183 0.0000 0.0000
# 5 0.0000 0.0000 0.0000 0.0000 24.5207 0.0000
# 6 0.0000 0.0000 0.0000 0.0000 0.0000 6.7445
#
#
#
# Elastic Compliance Matrix: (Units=1/GPa)
#
#
# Indices 1 2 3 4 5 6 
#
# 1 0.008211 -0.003514 -0.003609 0.000000 0.000000 0.000000
# 2 -0.003514 0.028380 -0.005903 0.000000 0.000000 0.000000
# 3 -0.003609 -0.005903 0.010969 0.000000 0.000000 0.000000
# 4 0.000000 0.000000 0.000000 0.153414 0.000000 0.000000
# 5 0.000000 0.000000 0.000000 0.000000 0.040782 0.000000
# 6 0.000000 0.000000 0.000000 0.000000 0.000000 0.148269
#
#
# Mechanical properties :
#
#
# Convention : Reuss Voigt Hill
#
# Bulk Modulus (GPa) = 46.49400 73.09403 59.79401
# Shear Modulus (GPa) = 11.81343 21.17776 16.49559
#
# Velocity S-wave (km/s) = 2.51986 3.37388 2.97765
# Velocity P-wave (km/s) = 5.78419 7.38007 6.63032
#
# Compressibility (1/GPa) = 0.02150815
#
# Stress axis : x y z
#
# Youngs Moduli (GPa) = 121.78327 35.23591 91.16338
#
# Poissons Ratio (x) = 0.12381 0.32905
# Poissons Ratio (y) = 0.42793 0.53814
# Poissons Ratio (z) = 0.43957 0.20800
#
# Static dielectric constant tensor:
#      x y z
#    x 3.591910 0.000000 0.000000 
#    y 0.000000 3.013380 0.000000 
#    z 0.000000 0.000000 3.644720 
# 
# 
# High freq. dielectric constant tensor:
#      x y z
#    x 1.717140 0.000000 0.000000 
#    y 0.000000 1.655370 0.000000 
#    z 0.000000 0.000000 1.744570 
# 
# From -- ./inp_files/19717.got.cif
#   From: 2010.03.12/outbox.cif.g09.slc.cpg/sg69_10_cif.got.tgz:19717.got - 2010.04.10 23:52:46.
