data_PCOD8283680
_publ_section_title
;
Structure prediction by ZEFSAII (Michael W. Deem and Ramdas Pophale) SiO2 
 PCOD8283680
Probable space group: C C C A
;
_chemical_formula_sum "Si O2"
_cell_formula_units_Z 72
_cell_length_a 21.543958
_cell_length_b 4.868585
_cell_length_c 29.930645
_cell_angle_alpha 90.000000
_cell_angle_beta 90.000000
_cell_angle_gamma 90.000000
_cell_volume 3139.383175
_symmetry_space_group_name_H-M "C C C A"
_symmetry_group_IT_number 68
_space_group.IT_coordinate_system_code '2'
_symmetry_cell_setting 'orthorhombic'
loop_
_space_group_symop_operation_xyz
x,y,z
-x,1/2-y,z
x,1/2-y,1/2-z
-x,y,1/2-z
-x,-y,-z
x,1/2+y,-z
-x,1/2+y,1/2+z
x,-y,1/2+z
1/2+x,1/2+y,z
1/2-x,-y,z
1/2+x,-y,1/2-z
1/2-x,1/2+y,1/2-z
1/2-x,1/2-y,-z
1/2+x,y,-z
1/2-x,y,1/2+z
1/2+x,1/2-y,1/2+z
loop_
_atom_site_type_symbol
_atom_site_label
_atom_site_fract_x
_atom_site_fract_y
_atom_site_fract_z
Si Si1 0.371305 0.094696 0.835986
Si Si2 0.629551 0.313287 0.470759
Si Si3 0.820064 0.577950 0.117241
Si Si4 0.500000 0.750000 0.574862
Si Si5 0.794033 0.750000 0.750000
Si Si6 0.500000 0.750000 0.137119
O O1 0.355595 0.288502 0.878560
O O2 0.338269 0.193189 0.791500
O O3 0.445671 0.126307 0.831182
O O4 0.349021 0.786075 0.846082
O O5 0.643641 0.621314 0.486516
O O6 0.674675 0.218329 0.431028
O O7 0.558030 0.315875 0.456266
O O8 0.750000 0.500000 0.128924
O O9 0.522223 0.497386 0.605387
O O10 0.750000 0.500000 0.737197
#
# Coordination Sequence:
#
# PCOD8283680 Si02
#       6
#    16  16  16   8   8   8
#     4  12  24  45  70 101 134 174 226 273 342 405
#     4  12  24  40  64  97 129 176 230 284 340 397
#     4  12  25  44  68  94 135 184 226 275 339 409
#     4  12  22  43  64  97 131 176 227 279 342 405
#     4  12  26  45  72 105 138 172 220 274 320 404
#     4  12  22  42  72  96 133 174 221 280 336 412
#
# _framework density 22.934442000000001
#
# number of rings (size 3 to 8) (size 9 to 14) (size 15 to 20)
#    0.000    0.000    4.444    7.333    0.000    1.333 
#    0.000    0.000    0.000    5.333    0.000    0.000 
#    0.000    0.000    0.000    0.000    0.000    0.000 
#
# Total GULP energy -446455.475751 kJ/mol
# GULP energy per Si atom -12401.540993 kJ/mol
# Density = 2.288224 g / cm^3
# Si number density = 22.934442 Si / 1000 Ang^3
#
#
#
# Elastic Constant Matrix: (Units=GPa)
#
#
# Indices 1 2 3 4 5 6 
#
# 1 134.3249 21.9289 22.1171 0.0000 0.0000 0.0000
# 2 21.9289 86.9835 -0.0931 0.0000 0.0000 0.0000
# 3 22.1171 -0.0931 84.7982 0.0000 0.0000 0.0000
# 4 0.0000 0.0000 0.0000 29.8955 0.0000 0.0000
# 5 0.0000 0.0000 0.0000 0.0000 41.3308 0.0000
# 6 0.0000 0.0000 0.0000 0.0000 0.0000 39.5372
#
#
#
# Elastic Compliance Matrix: (Units=1/GPa)
#
#
# Indices 1 2 3 4 5 6 
#
# 1 0.008129 -0.002052 -0.002122 0.000000 0.000000 0.000000
# 2 -0.002052 0.012014 0.000548 0.000000 0.000000 0.000000
# 3 -0.002122 0.000548 0.012347 0.000000 0.000000 0.000000
# 4 0.000000 0.000000 0.000000 0.033450 0.000000 0.000000
# 5 0.000000 0.000000 0.000000 0.000000 0.024195 0.000000
# 6 0.000000 0.000000 0.000000 0.000000 0.000000 0.025293
#
#
# Mechanical properties :
#
#
# Convention : Reuss Voigt Hill
#
# Bulk Modulus (GPa) = 39.62190 43.77914 41.70052
# Shear Modulus (GPa) = 38.14111 39.62962 38.88536
#
# Velocity S-wave (km/s) = 4.08247 4.16137 4.12211
# Velocity P-wave (km/s) = 6.28775 6.49766 6.39357
#
# Compressibility (1/GPa) = 0.02523857
#
# Stress axis : x y z
#
# Youngs Moduli (GPa) = 123.01565 83.23452 80.99207
#
# Poissons Ratio (x) = 0.17077 0.17190
# Poissons Ratio (y) = 0.25238 -0.04441
# Poissons Ratio (z) = 0.26110 -0.04564
#
# Static dielectric constant tensor:
#      x y z
#    x 4.192100 0.000000 0.000000 
#    y 0.000000 4.665620 0.000000 
#    z 0.000000 0.000000 3.908510 
# 
# 
# High freq. dielectric constant tensor:
#      x y z
#    x 1.911240 0.000000 0.000000 
#    y 0.000000 1.927590 0.000000 
#    z 0.000000 0.000000 1.891480 
# 
# From -- ./inp_files/52056.got.cif
#   From: 2010.03.12/outbox.cif.g09.slc.cpg/sg68_27_cif.got.tgz:52056.got - 2010.04.10 23:14:56.
