data_PCOD8283977
_publ_section_title
;
Structure prediction by ZEFSAII (Michael W. Deem and Ramdas Pophale) SiO2 
 PCOD8283977
Probable space group: F M M M
;
_chemical_formula_sum "Si O2"
_cell_formula_units_Z 208
_cell_length_a 26.432578
_cell_length_b 28.444451
_cell_length_c 16.741249
_cell_angle_alpha 90.000000
_cell_angle_beta 90.000000
_cell_angle_gamma 90.000000
_cell_volume 12587.078315
_symmetry_space_group_name_H-M "F M M M"
_symmetry_group_IT_number 69
_symmetry_cell_setting 'orthorhombic'
loop_
_space_group_symop_operation_xyz
x,y,z
-x,-y,z
x,-y,-z
-x,y,-z
-x,-y,-z
x,y,-z
-x,y,z
x,-y,z
x,1/2+y,1/2+z
-x,1/2-y,1/2+z
x,1/2-y,1/2-z
-x,1/2+y,1/2-z
-x,1/2-y,1/2-z
x,1/2+y,1/2-z
-x,1/2+y,1/2+z
x,1/2-y,1/2+z
1/2+x,y,1/2+z
1/2-x,-y,1/2+z
1/2+x,-y,1/2-z
1/2-x,y,1/2-z
1/2-x,-y,1/2-z
1/2+x,y,1/2-z
1/2-x,y,1/2+z
1/2+x,-y,1/2+z
1/2+x,1/2+y,z
1/2-x,1/2-y,z
1/2+x,1/2-y,-z
1/2-x,1/2+y,-z
1/2-x,1/2-y,-z
1/2+x,1/2+y,-z
1/2-x,1/2+y,z
1/2+x,1/2-y,z
loop_
_atom_site_type_symbol
_atom_site_label
_atom_site_fract_x
_atom_site_fract_y
_atom_site_fract_z
Si Si1 0.296321 0.630904 0.695903
Si Si2 0.559079 0.278998 0.908472
Si Si3 0.356570 0.298801 0.798063
Si Si4 0.557459 0.000000 0.905551
Si Si5 0.945030 0.171927 0.407240
Si Si6 0.767027 0.802308 0.086524
Si Si7 0.624465 0.588096 0.594849
O O1 0.250000 0.610302 0.750000
O O2 0.340521 0.656214 0.746272
O O3 0.273573 0.670183 0.638592
O O4 0.322387 0.588951 0.643955
O O5 0.500000 0.288061 0.896427
O O6 0.588343 0.307459 0.838922
O O7 0.573606 0.224661 0.891017
O O8 0.574300 0.292229 0.000000
O O9 0.352690 0.250000 0.750000
O O10 0.321170 0.298376 0.874404
O O11 0.589056 0.045263 0.876969
O O12 0.500000 0.000000 0.869696
O O13 0.552714 0.000000 0.000000
O O14 0.952589 0.163059 0.500000
O O15 0.903393 0.135651 0.376435
O O16 0.000000 0.163228 0.366151
O O17 0.750000 0.750000 0.074180
O O18 0.771499 0.827319 0.000000
O O19 0.635642 0.585866 0.500000
#
# Coordination Sequence:
#
# PCOD8283977 Si02
#       7
#    32  32  32  16  32  32  32
#     4  10  21  32  44  63  94 122 155 195 239 263
#     4   9  18  31  44  59  82 118 161 195 225 268
#     4  11  19  29  42  61  89 118 151 197 240 267
#     4   9  18  32  53  78  98 114 138 181 230 277
#     4   8  14  24  40  62  85 108 139 181 222 264
#     4  10  19  30  45  62  83 119 165 201 232 266
#     4  10  18  31  50  70  91 118 151 182 224 284
#
# _framework density 16.524884
#
# number of rings (size 3 to 8) (size 9 to 14) (size 15 to 20)
#    0.000    2.385    1.538    3.231    0.000    2.154 
#    0.000    1.923    0.000    0.000    0.000    0.000 
#    0.000    0.000    0.000    0.000    0.000   30.154 
#
# Total GULP energy -644266.145497 kJ/mol
# GULP energy per Si atom -12389.733567 kJ/mol
# Density = 1.648727 g / cm^3
# Si number density = 16.524884 Si / 1000 Ang^3
#
#
#
# Elastic Constant Matrix: (Units=GPa)
#
#
# Indices 1 2 3 4 5 6 
#
# 1 105.6309 41.0641 55.0684 0.0000 0.0000 0.0000
# 2 41.0641 30.6551 23.7291 0.0000 0.0000 0.0000
# 3 55.0684 23.7291 78.8117 0.0000 0.0000 0.0000
# 4 0.0000 0.0000 0.0000 12.4136 0.0000 0.0000
# 5 0.0000 0.0000 0.0000 0.0000 34.2373 0.0000
# 6 0.0000 0.0000 0.0000 0.0000 0.0000 28.6859
#
#
#
# Elastic Compliance Matrix: (Units=1/GPa)
#
#
# Indices 1 2 3 4 5 6 
#
# 1 0.024006 -0.025000 -0.009247 0.000000 0.000000 0.000000
# 2 -0.025000 0.068569 -0.003177 0.000000 0.000000 0.000000
# 3 -0.009247 -0.003177 0.020106 0.000000 0.000000 0.000000
# 4 0.000000 0.000000 0.000000 0.080557 0.000000 0.000000
# 5 0.000000 0.000000 0.000000 0.000000 0.029208 0.000000
# 6 0.000000 0.000000 0.000000 0.000000 0.000000 0.034860
#
#
# Mechanical properties :
#
#
# Convention : Reuss Voigt Hill
#
# Bulk Modulus (GPa) = 26.43130 50.53564 38.48347
# Shear Modulus (GPa) = 14.50262 21.41643 17.95952
#
# Velocity S-wave (km/s) = 2.96568 3.60392 3.30027
# Velocity P-wave (km/s) = 5.26845 6.92572 6.15314
#
# Compressibility (1/GPa) = 0.03783393
#
# Stress axis : x y z
#
# Youngs Moduli (GPa) = 41.65557 14.58386 49.73626
#
# Poissons Ratio (x) = 0.36460 0.45991
# Poissons Ratio (y) = 1.04139 0.15800
# Poissons Ratio (z) = 0.38518 0.04633
#
# Static dielectric constant tensor:
#      x y z
#    x 3.402250 0.000000 0.000000 
#    y 0.000000 2.749580 0.000000 
#    z 0.000000 0.000000 3.196130 
# 
# 
# High freq. dielectric constant tensor:
#      x y z
#    x 1.650580 0.000000 0.000000 
#    y 0.000000 1.578010 0.000000 
#    z 0.000000 0.000000 1.629270 
# 
# From -- ./inp_files/26175.got.cif
#   From: 2010.03.12/outbox.cif.g09.slc.cpg/sg69_14_cif.got.tgz:26175.got - 2010.04.10 23:52:46.
