data_PCOD8283136
_publ_section_title
;
Structure prediction by ZEFSAII (Michael W. Deem and Ramdas Pophale) SiO2 
 PCOD8283136
Probable space group: C C C A
;
_chemical_formula_sum "Si O2"
_cell_formula_units_Z 112
_cell_length_a 13.083379
_cell_length_b 11.835148
_cell_length_c 33.005034
_cell_angle_alpha 90.000000
_cell_angle_beta 90.000000
_cell_angle_gamma 90.000000
_cell_volume 5110.622468
_symmetry_space_group_name_H-M "C C C A"
_symmetry_group_IT_number 68
_space_group.IT_coordinate_system_code '2'
_symmetry_cell_setting 'orthorhombic'
loop_
_space_group_symop_operation_xyz
x,y,z
-x,1/2-y,z
x,1/2-y,1/2-z
-x,y,1/2-z
-x,-y,-z
x,1/2+y,-z
-x,1/2+y,1/2+z
x,-y,1/2+z
1/2+x,1/2+y,z
1/2-x,-y,z
1/2+x,-y,1/2-z
1/2-x,1/2+y,1/2-z
1/2-x,1/2-y,-z
1/2+x,y,-z
1/2-x,y,1/2+z
1/2+x,1/2-y,1/2+z
loop_
_atom_site_type_symbol
_atom_site_label
_atom_site_fract_x
_atom_site_fract_y
_atom_site_fract_z
Si Si1 0.898191 0.678934 0.582619
Si Si2 0.568017 0.850710 0.575494
Si Si3 0.065868 0.524602 0.367261
Si Si4 0.713756 0.774731 0.870442
Si Si5 0.426906 0.479687 0.211896
Si Si6 0.804916 0.122779 0.498410
Si Si7 0.761585 0.173704 0.212236
O O1 0.898156 0.601157 0.623047
O O2 0.793630 0.745664 0.592522
O O3 0.885082 0.623200 0.538576
O O4 0.000000 0.750000 0.581897
O O5 0.500000 0.750000 0.556615
O O6 0.497523 0.950783 0.591647
O O7 0.623194 0.809252 0.616729
O O8 0.639912 0.897860 0.540806
O O9 0.166807 0.600801 0.365123
O O10 0.998772 0.534215 0.326991
O O11 0.765767 0.745729 0.828288
O O12 0.500000 0.495937 0.250000
O O13 0.353808 0.371854 0.218302
O O14 0.350317 0.583089 0.206947
O O15 0.750000 0.250000 0.500000
O O16 0.750000 0.000000 0.491872
O O17 0.791708 0.250000 0.250000
#
# Coordination Sequence:
#
# PCOD8283136 Si02
#       7
#    16  16  16  16  16  16  16
#     4  12  27  45  70 102 144 187 237 291 362 427
#     4  10  23  43  73 101 138 182 237 291 358 423
#     4  11  24  43  73 103 132 184 231 296 354 434
#     4  11  22  45  71 100 136 178 233 289 358 429
#     4  11  25  44  66  99 136 176 233 287 355 426
#     4  12  27  46  73 105 147 194 244 302 365 433
#     4  11  25  43  68  97 135 180 229 289 352 425
#
# _framework density 21.915139
#
# number of rings (size 3 to 8) (size 9 to 14) (size 15 to 20)
#    0.000    0.857    2.857    3.429    6.000    3.429 
#    0.000    0.000    0.000    0.000    0.000    0.000 
#    0.000    0.000    0.000    0.000    0.000    0.000 
#
# Total GULP energy -693887.464537 kJ/mol
# GULP energy per Si atom -12390.847581 kJ/mol
# Density = 2.186526 g / cm^3
# Si number density = 21.915139 Si / 1000 Ang^3
#
#
#
# Elastic Constant Matrix: (Units=GPa)
#
#
# Indices 1 2 3 4 5 6 
#
# 1 112.9251 34.6536 47.9735 0.0000 0.0000 0.0000
# 2 34.6536 95.3526 33.9827 0.0000 0.0000 0.0000
# 3 47.9735 33.9827 135.9173 0.0000 0.0000 0.0000
# 4 0.0000 0.0000 0.0000 10.4949 0.0000 0.0000
# 5 0.0000 0.0000 0.0000 0.0000 95.4353 0.0000
# 6 0.0000 0.0000 0.0000 0.0000 0.0000 31.3648
#
#
#
# Elastic Compliance Matrix: (Units=1/GPa)
#
#
# Indices 1 2 3 4 5 6 
#
# 1 0.011101 -0.002896 -0.003194 0.000000 0.000000 0.000000
# 2 -0.002896 0.012269 -0.002045 0.000000 0.000000 0.000000
# 3 -0.003194 -0.002045 0.008996 0.000000 0.000000 0.000000
# 4 0.000000 0.000000 0.000000 0.095284 0.000000 0.000000
# 5 0.000000 0.000000 0.000000 0.000000 0.010478 0.000000
# 6 0.000000 0.000000 0.000000 0.000000 0.000000 0.031883
#
#
# Mechanical properties :
#
#
# Convention : Reuss Voigt Hill
#
# Bulk Modulus (GPa) = 62.13086 64.15716 63.14401
# Shear Modulus (GPa) = 26.08954 42.63134 34.36044
#
# Velocity S-wave (km/s) = 3.45408 4.41533 3.96395
# Velocity P-wave (km/s) = 6.65731 7.43857 7.05876
#
# Compressibility (1/GPa) = 0.01609506
#
# Stress axis : x y z
#
# Youngs Moduli (GPa) = 90.08101 81.50737 111.15793
#
# Poissons Ratio (x) = 0.23605 0.35506
# Poissons Ratio (y) = 0.26088 0.22735
# Poissons Ratio (z) = 0.28773 0.16671
#
# Static dielectric constant tensor:
#      x y z
#    x 4.567880 0.000000 0.000000 
#    y 0.000000 4.099840 0.000000 
#    z 0.000000 0.000000 3.903440 
# 
# 
# High freq. dielectric constant tensor:
#      x y z
#    x 1.875680 0.000000 0.000000 
#    y 0.000000 1.860250 0.000000 
#    z 0.000000 0.000000 1.875760 
# 
# From -- ./inp_files/55267.got.cif
#   From: 2010.03.12/outbox.cif.g09.slc.cpg/sg68_28_cif.got.tgz:55267.got - 2010.04.10 23:14:56.
