data_PCOD8283410
_publ_section_title
;
Structure prediction by ZEFSAII (Michael W. Deem and Ramdas Pophale) SiO2 
 PCOD8283410
Probable space group: C C C A
;
_chemical_formula_sum "Si O2"
_cell_formula_units_Z 48
_cell_length_a 16.998476
_cell_length_b 9.645574
_cell_length_c 13.158614
_cell_angle_alpha 90.000000
_cell_angle_beta 90.000000
_cell_angle_gamma 90.000000
_cell_volume 2157.487117
_symmetry_space_group_name_H-M "C C C A"
_symmetry_group_IT_number 68
_space_group.IT_coordinate_system_code '2'
_symmetry_cell_setting 'orthorhombic'
loop_
_space_group_symop_operation_xyz
x,y,z
-x,1/2-y,z
x,1/2-y,1/2-z
-x,y,1/2-z
-x,-y,-z
x,1/2+y,-z
-x,1/2+y,1/2+z
x,-y,1/2+z
1/2+x,1/2+y,z
1/2-x,-y,z
1/2+x,-y,1/2-z
1/2-x,1/2+y,1/2-z
1/2-x,1/2-y,-z
1/2+x,y,-z
1/2-x,y,1/2+z
1/2+x,1/2-y,1/2+z
loop_
_atom_site_type_symbol
_atom_site_label
_atom_site_fract_x
_atom_site_fract_y
_atom_site_fract_z
Si Si1 0.946422 0.129689 0.028673
Si Si2 0.676911 0.598286 0.293396
Si Si3 0.415583 0.376081 0.305100
O O1 0.913776 0.177740 0.920302
O O2 0.000000 0.250000 0.078119
O O3 0.875570 0.100179 0.105109
O O4 0.000000 0.000000 0.000000
O O5 0.699691 0.750000 0.250000
O O6 0.750000 0.500000 0.320617
O O7 0.628858 0.522250 0.203431
O O8 0.369522 0.250000 0.250000
O O9 0.500000 0.393599 0.250000
#
# Coordination Sequence:
#
# PCOD8283410 Si02
#       3
#    16  16  16
#     4  12  23  41  74 108 136 187 250 296 354 438
#     4  12  28  46  70 106 154 194 242 303 373 429
#     4  11  21  43  72 102 144 186 238 298 367 429
#
# _framework density 22.248106
#
# number of rings (size 3 to 8) (size 9 to 14) (size 15 to 20)
#    0.000    0.333    6.667    3.000    0.000    1.333 
#    0.000   10.000    0.000    0.000    0.000    0.000 
#    0.000    0.000    0.000    0.000    0.000    0.000 
#
# Total GULP energy -297403.524752 kJ/mol
# GULP energy per Si atom -12391.813531 kJ/mol
# Density = 2.219747 g / cm^3
# Si number density = 22.248106 Si / 1000 Ang^3
#
#
#
# Elastic Constant Matrix: (Units=GPa)
#
#
# Indices 1 2 3 4 5 6 
#
# 1 126.1187 72.4810 56.7129 0.0000 0.0000 0.0000
# 2 72.4810 178.2265 34.0234 0.0000 0.0000 0.0000
# 3 56.7129 34.0234 122.1212 0.0000 0.0000 0.0000
# 4 0.0000 0.0000 0.0000 34.9036 0.0000 0.0000
# 5 0.0000 0.0000 0.0000 0.0000 28.3556 0.0000
# 6 0.0000 0.0000 0.0000 0.0000 0.0000 50.5398
#
#
#
# Elastic Compliance Matrix: (Units=1/GPa)
#
#
# Indices 1 2 3 4 5 6 
#
# 1 0.012385 -0.004160 -0.004593 0.000000 0.000000 0.000000
# 2 -0.004160 0.007323 -0.000108 0.000000 0.000000 0.000000
# 3 -0.004593 -0.000108 0.010352 0.000000 0.000000 0.000000
# 4 0.000000 0.000000 0.000000 0.028650 0.000000 0.000000
# 5 0.000000 0.000000 0.000000 0.000000 0.035266 0.000000
# 6 0.000000 0.000000 0.000000 0.000000 0.000000 0.019786
#
#
# Mechanical properties :
#
#
# Convention : Reuss Voigt Hill
#
# Bulk Modulus (GPa) = 81.05096 83.65567 82.35332
# Shear Modulus (GPa) = 36.87384 40.30977 38.59180
#
# Velocity S-wave (km/s) = 4.07552 4.26118 4.16938
# Velocity P-wave (km/s) = 7.65873 7.86721 7.76367
#
# Compressibility (1/GPa) = 0.01233792
#
# Stress axis : x y z
#
# Youngs Moduli (GPa) = 80.74292 136.55025 96.60365
#
# Poissons Ratio (x) = 0.56805 0.44366
# Poissons Ratio (y) = 0.33589 0.01047
# Poissons Ratio (z) = 0.37082 0.01480
#
# Static dielectric constant tensor:
#      x y z
#    x 3.368350 0.000000 0.000000 
#    y 0.000000 4.671130 0.000000 
#    z 0.000000 0.000000 5.553560 
# 
# 
# High freq. dielectric constant tensor:
#      x y z
#    x 1.862330 0.000000 0.000000 
#    y 0.000000 1.903400 0.000000 
#    z 0.000000 0.000000 1.877090 
# 
# From -- ./inp_files/11247.got.cif
#   From: 2010.03.12/outbox.cif.g09.slc.cpg/sg68_6_cif.got.tgz:11247.got - 2010.04.10 23:14:56.
