data_PCOD8283595
_publ_section_title
;
Structure prediction by ZEFSAII (Michael W. Deem and Ramdas Pophale) SiO2 
 PCOD8283595
Probable space group: C C C A
;
_chemical_formula_sum "Si O2"
_cell_formula_units_Z 96
_cell_length_a 25.325119
_cell_length_b 18.382892
_cell_length_c 9.379361
_cell_angle_alpha 90.000000
_cell_angle_beta 90.000000
_cell_angle_gamma 90.000000
_cell_volume 4366.551454
_symmetry_space_group_name_H-M "C C C A"
_symmetry_group_IT_number 68
_space_group.IT_coordinate_system_code '2'
_symmetry_cell_setting 'orthorhombic'
loop_
_space_group_symop_operation_xyz
x,y,z
-x,1/2-y,z
x,1/2-y,1/2-z
-x,y,1/2-z
-x,-y,-z
x,1/2+y,-z
-x,1/2+y,1/2+z
x,-y,1/2+z
1/2+x,1/2+y,z
1/2-x,-y,z
1/2+x,-y,1/2-z
1/2-x,1/2+y,1/2-z
1/2-x,1/2-y,-z
1/2+x,y,-z
1/2-x,y,1/2+z
1/2+x,1/2-y,1/2+z
loop_
_atom_site_type_symbol
_atom_site_label
_atom_site_fract_x
_atom_site_fract_y
_atom_site_fract_z
Si Si1 0.555039 0.895549 0.409714
Si Si2 0.210460 0.713756 0.106049
Si Si3 0.410387 0.768578 0.912201
Si Si4 0.868788 0.526746 0.065089
Si Si5 0.799543 0.547881 0.336207
Si Si6 0.062480 0.862115 0.903516
O O1 0.573489 0.850956 0.549061
O O2 0.572887 0.852839 0.265587
O O3 0.492179 0.906322 0.420071
O O4 0.581990 0.974072 0.405583
O O5 0.227893 0.750000 0.250000
O O6 0.151779 0.737771 0.063291
O O7 0.218997 0.627525 0.116813
O O8 0.250000 0.750000 0.000000
O O9 0.426740 0.750000 0.750000
O O10 0.441754 0.716079 0.020637
O O11 0.843861 0.553855 0.213551
O O12 0.823192 0.488307 0.976639
O O13 0.889612 0.596037 0.978851
O O14 0.750000 0.500000 0.282701
#
# Coordination Sequence:
#
# PCOD8283595 Si02
#       6
#    16  16  16  16  16  16
#     4  11  24  45  67 104 138 186 235 287 357 428
#     4  11  27  46  70 102 139 181 240 293 356 425
#     4  11  24  45  68 101 142 181 236 295 354 424
#     4  12  24  48  69 102 143 182 235 293 358 425
#     4  12  28  46  75 103 143 188 240 298 364 430
#     4  11  25  42  71  99 141 187 232 290 356 427
#
# _framework density 21.985313999999999
#
# number of rings (size 3 to 8) (size 9 to 14) (size 15 to 20)
#    0.000    0.667    3.333    4.000    7.000    4.000 
#    0.000    0.000    0.000    0.000    0.000    0.000 
#    0.000    0.000    0.000    0.000    0.000    0.000 
#
# Total GULP energy -595456.331519 kJ/mol
# GULP energy per Si atom -12405.340240 kJ/mol
# Density = 2.193527 g / cm^3
# Si number density = 21.985314 Si / 1000 Ang^3
#
#
#
# Elastic Constant Matrix: (Units=GPa)
#
#
# Indices 1 2 3 4 5 6 
#
# 1 89.9045 30.7012 37.1298 0.0000 0.0000 0.0000
# 2 30.7012 110.1519 30.8612 0.0000 0.0000 0.0000
# 3 37.1298 30.8612 98.6981 0.0000 0.0000 0.0000
# 4 0.0000 0.0000 0.0000 41.5802 0.0000 0.0000
# 5 0.0000 0.0000 0.0000 0.0000 43.3193 0.0000
# 6 0.0000 0.0000 0.0000 0.0000 0.0000 26.4242
#
#
#
# Elastic Compliance Matrix: (Units=1/GPa)
#
#
# Indices 1 2 3 4 5 6 
#
# 1 0.013829 -0.002627 -0.004381 0.000000 0.000000 0.000000
# 2 -0.002627 0.010449 -0.002279 0.000000 0.000000 0.000000
# 3 -0.004381 -0.002279 0.012493 0.000000 0.000000 0.000000
# 4 0.000000 0.000000 0.000000 0.024050 0.000000 0.000000
# 5 0.000000 0.000000 0.000000 0.000000 0.023084 0.000000
# 6 0.000000 0.000000 0.000000 0.000000 0.000000 0.037844
#
#
# Mechanical properties :
#
#
# Convention : Reuss Voigt Hill
#
# Bulk Modulus (GPa) = 54.95452 55.12655 55.04053
# Shear Modulus (GPa) = 34.15551 35.60225 34.87888
#
# Velocity S-wave (km/s) = 3.94580 4.02850 3.98736
# Velocity P-wave (km/s) = 6.76826 6.83865 6.80355
#
# Compressibility (1/GPa) = 0.01819687
#
# Stress axis : x y z
#
# Youngs Moduli (GPa) = 72.30987 95.70240 80.04701
#
# Poissons Ratio (x) = 0.25141 0.35070
# Poissons Ratio (y) = 0.18996 0.18242
# Poissons Ratio (z) = 0.31680 0.21810
#
# Static dielectric constant tensor:
#      x y z
#    x 3.945980 0.000000 0.000000 
#    y 0.000000 -25.401070 0.000000 
#    z 0.000000 0.000000 4.063970 
# 
# 
# High freq. dielectric constant tensor:
#      x y z
#    x 1.870650 0.000000 0.000000 
#    y 0.000000 1.867890 0.000000 
#    z 0.000000 0.000000 1.876090 
# 
# From -- ./inp_files/8907.got.cif
#   From: 2010.03.12/outbox.cif.g09.slc.cpg/sg68_5_cif.got.tgz:8907.got - 2010.04.10 23:14:56.
