data_PCOD8283322
_publ_section_title
;
Structure prediction by ZEFSAII (Michael W. Deem and Ramdas Pophale) SiO2 
 PCOD8283322
Probable space group: C C C A
;
_chemical_formula_sum "Si O2"
_cell_formula_units_Z 64
_cell_length_a 24.987396
_cell_length_b 9.188696
_cell_length_c 12.498692
_cell_angle_alpha 90.000000
_cell_angle_beta 90.000000
_cell_angle_gamma 90.000000
_cell_volume 2869.719502
_symmetry_space_group_name_H-M "C C C A"
_symmetry_group_IT_number 68
_space_group.IT_coordinate_system_code '2'
_symmetry_cell_setting 'orthorhombic'
loop_
_space_group_symop_operation_xyz
x,y,z
-x,1/2-y,z
x,1/2-y,1/2-z
-x,y,1/2-z
-x,-y,-z
x,1/2+y,-z
-x,1/2+y,1/2+z
x,-y,1/2+z
1/2+x,1/2+y,z
1/2-x,-y,z
1/2+x,-y,1/2-z
1/2-x,1/2+y,1/2-z
1/2-x,1/2-y,-z
1/2+x,y,-z
1/2-x,y,1/2+z
1/2+x,1/2-y,1/2+z
loop_
_atom_site_type_symbol
_atom_site_label
_atom_site_fract_x
_atom_site_fract_y
_atom_site_fract_z
Si Si1 0.000000 0.750000 0.750000
Si Si2 0.000000 0.250000 0.750000
Si Si3 0.161235 0.960007 0.925636
Si Si4 0.790158 0.329833 0.077934
Si Si5 0.960064 0.001045 0.602327
Si Si6 0.250000 0.000000 0.761895
O O1 0.965364 0.855007 0.673438
O O2 0.965879 0.354291 0.826681
O O3 0.161284 0.785525 0.911086
O O4 0.100760 0.012876 0.934578
O O5 0.196963 0.034051 0.832087
O O6 0.188781 0.014645 0.035798
O O7 0.762047 0.357561 0.191106
O O8 0.750000 0.250000 0.000000
O O9 0.000000 0.000000 0.500000
#
# Coordination Sequence:
#
# PCOD8283322 Si02
#       6
#     4   4  16  16  16   8
#     4  10  26  50  72 106 140 186 258 302 368 446
#     4  10  26  50  72 110 140 190 262 294 384 434
#     4  12  28  43  75 104 143 195 238 295 369 434
#     4  12  24  46  65 108 146 184 235 287 359 436
#     4  11  27  49  75 106 147 193 246 316 365 439
#     4  12  24  44  70 102 148 180 238 294 350 438
#
# _framework density 22.301831
#
# number of rings (size 3 to 8) (size 9 to 14) (size 15 to 20)
#    0.000    0.500    5.000    1.500   10.500    4.000 
#    0.000    0.000    0.000    0.000    0.000    0.000 
#    0.000    0.000    0.000    0.000    0.000    0.000 
#
# Total GULP energy -396535.091204 kJ/mol
# GULP energy per Si atom -12391.721600 kJ/mol
# Density = 2.225107 g / cm^3
# Si number density = 22.301831 Si / 1000 Ang^3
#
#
#
# Elastic Constant Matrix: (Units=GPa)
#
#
# Indices 1 2 3 4 5 6 
#
# 1 152.0473 25.3295 58.4690 0.0000 0.0000 0.0000
# 2 25.3295 143.3722 47.1986 0.0000 0.0000 0.0000
# 3 58.4690 47.1986 123.2603 0.0000 0.0000 0.0000
# 4 0.0000 0.0000 0.0000 53.5429 0.0000 0.0000
# 5 0.0000 0.0000 0.0000 0.0000 24.7432 0.0000
# 6 0.0000 0.0000 0.0000 0.0000 0.0000 25.7237
#
#
#
# Elastic Compliance Matrix: (Units=1/GPa)
#
#
# Indices 1 2 3 4 5 6 
#
# 1 0.008049 -0.000189 -0.003746 0.000000 0.000000 0.000000
# 2 -0.000189 0.007985 -0.002968 0.000000 0.000000 0.000000
# 3 -0.003746 -0.002968 0.011026 0.000000 0.000000 0.000000
# 4 0.000000 0.000000 0.000000 0.018677 0.000000 0.000000
# 5 0.000000 0.000000 0.000000 0.000000 0.040415 0.000000
# 6 0.000000 0.000000 0.000000 0.000000 0.000000 0.038875
#
#
# Mechanical properties :
#
#
# Convention : Reuss Voigt Hill
#
# Bulk Modulus (GPa) = 75.44323 75.63046 75.53685
# Shear Modulus (GPa) = 34.90391 39.98078 37.44234
#
# Velocity S-wave (km/s) = 3.96039 4.23864 4.10187
# Velocity P-wave (km/s) = 7.40369 7.61187 7.50850
#
# Compressibility (1/GPa) = 0.01325500
#
# Stress axis : x y z
#
# Youngs Moduli (GPa) = 124.24334 125.22936 90.69304
#
# Poissons Ratio (x) = 0.02366 0.33970
# Poissons Ratio (y) = 0.02347 0.26919
# Poissons Ratio (z) = 0.46537 0.37170
#
# Static dielectric constant tensor:
#      x y z
#    x 3.786000 0.000000 0.000000 
#    y 0.000000 -1.359850 0.000000 
#    z 0.000000 0.000000 4.541350 
# 
# 
# High freq. dielectric constant tensor:
#      x y z
#    x 1.861230 0.000000 0.000000 
#    y 0.000000 1.900650 0.000000 
#    z 0.000000 0.000000 1.893320 
# 
# From -- ./inp_files/17495.got.cif
#   From: 2010.03.12/outbox.cif.g09.slc.cpg/sg68_9_cif.got.tgz:17495.got - 2010.04.10 23:14:56.
