data_PCOD8283495
_publ_section_title
;
Structure prediction by ZEFSAII (Michael W. Deem and Ramdas Pophale) SiO2 
 PCOD8283495
Probable space group: C C C A
;
_chemical_formula_sum "Si O2"
_cell_formula_units_Z 64
_cell_length_a 12.585635
_cell_length_b 12.451165
_cell_length_c 18.066434
_cell_angle_alpha 90.000000
_cell_angle_beta 90.000000
_cell_angle_gamma 90.000000
_cell_volume 2831.115319
_symmetry_space_group_name_H-M "C C C A"
_symmetry_group_IT_number 68
_space_group.IT_coordinate_system_code '2'
_symmetry_cell_setting 'orthorhombic'
loop_
_space_group_symop_operation_xyz
x,y,z
-x,1/2-y,z
x,1/2-y,1/2-z
-x,y,1/2-z
-x,-y,-z
x,1/2+y,-z
-x,1/2+y,1/2+z
x,-y,1/2+z
1/2+x,1/2+y,z
1/2-x,-y,z
1/2+x,-y,1/2-z
1/2-x,1/2+y,1/2-z
1/2-x,1/2-y,-z
1/2+x,y,-z
1/2-x,y,1/2+z
1/2+x,1/2-y,1/2+z
loop_
_atom_site_type_symbol
_atom_site_label
_atom_site_fract_x
_atom_site_fract_y
_atom_site_fract_z
Si Si1 0.645686 0.557186 0.695360
Si Si2 0.393703 0.813067 0.441807
Si Si3 0.919373 0.530414 0.359154
Si Si4 0.334308 0.753426 0.597873
O O1 0.750000 0.500000 0.661853
O O2 0.542160 0.506932 0.657610
O O3 0.645998 0.539641 0.783092
O O4 0.645094 0.683687 0.674669
O O5 0.500000 0.750000 0.416210
O O6 0.385851 0.821375 0.530626
O O7 0.292287 0.749874 0.410936
O O8 0.382522 0.932273 0.409375
O O9 0.894835 0.639655 0.403259
#
# Coordination Sequence:
#
# PCOD8283495 Si02
#       4
#    16  16  16  16
#     4  11  23  41  66  95 127 166 211 262 320 383
#     4  11  24  42  65  95 130 167 210 264 322 380
#     4  11  24  43  65  93 129 168 212 263 319 380
#     4  11  24  41  67  95 126 168 213 263 317 383
#
# _framework density 22.605931999999999
#
# number of rings (size 3 to 8) (size 9 to 14) (size 15 to 20)
#    0.000    1.000    0.000    6.750    0.000   10.000 
#    0.000    7.500    0.000    0.000    0.000    0.000 
#    0.000    0.000    0.000    0.000    0.000    0.000 
#
# Total GULP energy -396832.272217 kJ/mol
# GULP energy per Si atom -12401.008507 kJ/mol
# Density = 2.255448 g / cm^3
# Si number density = 22.605932 Si / 1000 Ang^3
#
#
#
# Elastic Constant Matrix: (Units=GPa)
#
#
# Indices 1 2 3 4 5 6 
#
# 1 129.5364 29.4630 44.1947 0.0000 0.0000 0.0000
# 2 29.4630 153.4035 81.9493 0.0000 0.0000 0.0000
# 3 44.1947 81.9493 127.1857 0.0000 0.0000 0.0000
# 4 0.0000 0.0000 0.0000 46.5134 0.0000 0.0000
# 5 0.0000 0.0000 0.0000 0.0000 25.0966 0.0000
# 6 0.0000 0.0000 0.0000 0.0000 0.0000 31.3287
#
#
#
# Elastic Compliance Matrix: (Units=1/GPa)
#
#
# Indices 1 2 3 4 5 6 
#
# 1 0.008759 -0.000086 -0.002988 0.000000 0.000000 0.000000
# 2 -0.000086 0.009941 -0.006375 0.000000 0.000000 0.000000
# 3 -0.002988 -0.006375 0.013009 0.000000 0.000000 0.000000
# 4 0.000000 0.000000 0.000000 0.021499 0.000000 0.000000
# 5 0.000000 0.000000 0.000000 0.000000 0.039846 0.000000
# 6 0.000000 0.000000 0.000000 0.000000 0.000000 0.031920
#
#
# Mechanical properties :
#
#
# Convention : Reuss Voigt Hill
#
# Bulk Modulus (GPa) = 78.06670 80.14883 79.10777
# Shear Modulus (GPa) = 33.75128 37.55564 35.65346
#
# Velocity S-wave (km/s) = 3.86816 4.08035 3.97567
# Velocity P-wave (km/s) = 7.38640 7.59807 7.49299
#
# Compressibility (1/GPa) = 0.01280956
#
# Stress axis : x y z
#
# Youngs Moduli (GPa) = 114.16985 100.59272 76.87146
#
# Poissons Ratio (x) = 0.00865 0.22971
# Poissons Ratio (y) = 0.00981 0.49009
# Poissons Ratio (z) = 0.34116 0.64132
#
# Static dielectric constant tensor:
#      x y z
#    x 4.360810 0.000000 0.000000 
#    y 0.000000 3.798930 0.000000 
#    z 0.000000 0.000000 3.986990 
# 
# 
# High freq. dielectric constant tensor:
#      x y z
#    x 1.920570 0.000000 0.000000 
#    y 0.000000 1.880920 0.000000 
#    z 0.000000 0.000000 1.886340 
# 
# From -- ./inp_files/29126.got.cif
#   From: 2010.03.12/outbox.cif.g09.slc.cpg/sg68_15_cif.got.tgz:29126.got - 2010.04.10 23:14:56.
