data_PCOD8283544
_publ_section_title
;
Structure prediction by ZEFSAII (Michael W. Deem and Ramdas Pophale) SiO2 
 PCOD8283544
Probable space group: C C C A
;
_chemical_formula_sum "Si O2"
_cell_formula_units_Z 108
_cell_length_a 31.966652
_cell_length_b 11.682304
_cell_length_c 12.512183
_cell_angle_alpha 90.000000
_cell_angle_beta 90.000000
_cell_angle_gamma 90.000000
_cell_volume 4672.601502
_symmetry_space_group_name_H-M "C C C A"
_symmetry_group_IT_number 68
_space_group.IT_coordinate_system_code '2'
_symmetry_cell_setting 'orthorhombic'
loop_
_space_group_symop_operation_xyz
x,y,z
-x,1/2-y,z
x,1/2-y,1/2-z
-x,y,1/2-z
-x,-y,-z
x,1/2+y,-z
-x,1/2+y,1/2+z
x,-y,1/2+z
1/2+x,1/2+y,z
1/2-x,-y,z
1/2+x,-y,1/2-z
1/2-x,1/2+y,1/2-z
1/2-x,1/2-y,-z
1/2+x,y,-z
1/2-x,y,1/2+z
1/2+x,1/2-y,1/2+z
loop_
_atom_site_type_symbol
_atom_site_label
_atom_site_fract_x
_atom_site_fract_y
_atom_site_fract_z
Si Si1 0.000000 0.750000 0.250000
Si Si2 0.888740 0.679875 0.956870
Si Si3 0.132298 0.513837 0.732090
Si Si4 0.175756 0.144511 0.092586
Si Si5 0.040822 0.311514 0.363733
Si Si6 0.711830 0.081997 0.122470
Si Si7 0.239315 0.250000 0.250000
Si Si8 0.438207 0.426431 0.350177
O O1 0.027604 0.671056 0.328686
O O2 0.883145 0.604617 0.852670
O O3 0.843379 0.743380 0.968988
O O4 0.920966 0.782817 0.940279
O O5 0.906604 0.602829 0.052222
O O6 0.139234 0.574635 0.847537
O O7 0.172709 0.444851 0.697102
O O8 0.092877 0.429618 0.748225
O O9 0.209049 0.164505 0.186884
O O10 0.198387 0.071592 0.000779
O O11 0.047895 0.250000 0.250000
O O12 0.037724 0.450433 0.360909
O O13 0.000000 0.250000 0.414539
O O14 0.730265 0.203216 0.157631
O O15 0.750000 0.000000 0.146582
#
# Coordination Sequence:
#
# PCOD8283544 Si02
#       8
#     4  16  16  16  16  16   8  16
#     4  12  32  54  70 116 174 192 248 342 398 454
#     4  12  25  47  77 109 142 196 255 306 377 459
#     4  12  25  49  75 107 152 198 254 317 377 460
#     4  12  24  48  75 107 150 197 257 313 381 457
#     4  11  23  47  78 106 141 194 245 303 377 458
#     4  12  28  44  75 109 147 202 247 316 387 452
#     4  12  26  47  70 110 153 189 250 316 379 460
#     4  12  29  48  78 112 153 200 249 317 390 463
#
# _framework density 23.113464
#
# number of rings (size 3 to 8) (size 9 to 14) (size 15 to 20)
#    0.000    0.148    5.926    2.222    7.259    0.593 
#    0.000    0.000    0.000    0.000    0.000    0.000 
#    0.000    0.000    0.000    0.000    0.000    0.000 
#
# Total GULP energy -669198.539418 kJ/mol
# GULP energy per Si atom -12392.565545 kJ/mol
# Density = 2.306086 g / cm^3
# Si number density = 23.113464 Si / 1000 Ang^3
#
#
#
# Elastic Constant Matrix: (Units=GPa)
#
#
# Indices 1 2 3 4 5 6 
#
# 1 128.3223 41.9511 28.2036 0.0000 0.0000 0.0000
# 2 41.9511 99.3190 15.3767 0.0000 0.0000 0.0000
# 3 28.2036 15.3767 58.5118 0.0000 0.0000 0.0000
# 4 0.0000 0.0000 0.0000 71.6870 0.0000 0.0000
# 5 0.0000 0.0000 0.0000 0.0000 51.8773 0.0000
# 6 0.0000 0.0000 0.0000 0.0000 0.0000 7.9254
#
#
#
# Elastic Compliance Matrix: (Units=1/GPa)
#
#
# Indices 1 2 3 4 5 6 
#
# 1 0.009784 -0.003547 -0.003784 0.000000 0.000000 0.000000
# 2 -0.003547 0.011781 -0.001386 0.000000 0.000000 0.000000
# 3 -0.003784 -0.001386 0.019279 0.000000 0.000000 0.000000
# 4 0.000000 0.000000 0.000000 0.013950 0.000000 0.000000
# 5 0.000000 0.000000 0.000000 0.000000 0.019276 0.000000
# 6 0.000000 0.000000 0.000000 0.000000 0.000000 0.126176
#
#
# Mechanical properties :
#
#
# Convention : Reuss Voigt Hill
#
# Bulk Modulus (GPa) = 42.71725 50.80174 46.75949
# Shear Modulus (GPa) = 22.17454 39.67271 30.92363
#
# Velocity S-wave (km/s) = 3.10074 4.14748 3.66171
# Velocity P-wave (km/s) = 5.59832 6.70540 6.17671
#
# Compressibility (1/GPa) = 0.02340975
#
# Stress axis : x y z
#
# Youngs Moduli (GPa) = 102.20686 84.87985 51.87026
#
# Poissons Ratio (x) = 0.30105 0.19628
# Poissons Ratio (y) = 0.36251 0.07192
# Poissons Ratio (z) = 0.38675 0.11768
#
# Static dielectric constant tensor:
#      x y z
#    x 4.734540 0.000000 0.000000 
#    y 0.000000 4.113280 0.000000 
#    z 0.000000 0.000000 4.057600 
# 
# 
# High freq. dielectric constant tensor:
#      x y z
#    x 1.938130 0.000000 0.000000 
#    y 0.000000 1.908820 0.000000 
#    z 0.000000 0.000000 1.905280 
# 
# From -- ./inp_files/26468.got.cif
#   From: 2010.03.12/outbox.cif.g09.slc.cpg/sg68_14_cif.got.tgz:26468.got - 2010.04.10 23:14:56.
