data_PCOD8283471
_publ_section_title
;
Structure prediction by ZEFSAII (Michael W. Deem and Ramdas Pophale) SiO2 
 PCOD8283471
Probable space group: C C C A
;
_chemical_formula_sum "Si O2"
_cell_formula_units_Z 104
_cell_length_a 17.452146
_cell_length_b 19.036212
_cell_length_c 14.216264
_cell_angle_alpha 90.000000
_cell_angle_beta 90.000000
_cell_angle_gamma 90.000000
_cell_volume 4722.966337
_symmetry_space_group_name_H-M "C C C A"
_symmetry_group_IT_number 68
_space_group.IT_coordinate_system_code '2'
_symmetry_cell_setting 'orthorhombic'
loop_
_space_group_symop_operation_xyz
x,y,z
-x,1/2-y,z
x,1/2-y,1/2-z
-x,y,1/2-z
-x,-y,-z
x,1/2+y,-z
-x,1/2+y,1/2+z
x,-y,1/2+z
1/2+x,1/2+y,z
1/2-x,-y,z
1/2+x,-y,1/2-z
1/2-x,1/2+y,1/2-z
1/2-x,1/2-y,-z
1/2+x,y,-z
1/2-x,y,1/2+z
1/2+x,1/2-y,1/2+z
loop_
_atom_site_type_symbol
_atom_site_label
_atom_site_fract_x
_atom_site_fract_y
_atom_site_fract_z
Si Si1 0.109500 0.923647 0.907594
Si Si2 0.567505 0.919181 0.896256
Si Si3 0.802644 0.750000 0.750000
Si Si4 0.822223 0.866607 0.256021
Si Si5 0.250000 0.000000 0.326558
Si Si6 0.441385 0.191664 0.391699
Si Si7 0.500000 0.479157 0.750000
Si Si8 0.412812 0.761882 0.417651
O O1 0.052442 0.932988 0.819554
O O2 0.108067 0.842441 0.936484
O O3 0.194350 0.951642 0.888711
O O4 0.085580 0.960464 0.006407
O O5 0.636509 0.868031 0.858516
O O6 0.489434 0.877533 0.915883
O O7 0.556237 0.974218 0.812436
O O8 0.754080 0.679109 0.750260
O O9 0.855431 0.734747 0.660713
O O10 0.801919 0.947343 0.233899
O O11 0.878946 0.829127 0.183761
O O12 0.500000 0.250000 0.351104
O O13 0.399506 0.219180 0.485818
O O14 0.500000 0.750000 0.383605
#
# Coordination Sequence:
#
# PCOD8283471 Si02
#       8
#    16  16   8  16   8  16   8  16
#     4  12  26  47  75 108 150 196 253 310 384 464
#     4  12  23  47  75 110 138 195 251 310 376 445
#     4  12  27  42  71 110 148 198 254 304 393 460
#     4  12  26  45  75 107 152 198 247 312 385 457
#     4  12  26  52  66 108 164 200 240 308 388 478
#     4  11  22  45  75 108 143 185 252 319 371 438
#     4  12  26  46  76 102 146 192 256 312 376 450
#     4  11  25  46  72 106 144 189 253 319 379 445
#
# _framework density 22.020059
#
# number of rings (size 3 to 8) (size 9 to 14) (size 15 to 20)
#    0.000    0.308    7.692    1.615    2.154    3.077 
#    0.000    0.000    0.000    0.000    0.000    0.000 
#    0.000    0.000    0.000    0.000    0.000    0.000 
#
# Total GULP energy -644652.921383 kJ/mol
# GULP energy per Si atom -12397.171565 kJ/mol
# Density = 2.196994 g / cm^3
# Si number density = 22.020059 Si / 1000 Ang^3
#
#
#
# Elastic Constant Matrix: (Units=GPa)
#
#
# Indices 1 2 3 4 5 6 
#
# 1 122.5765 30.3079 68.0602 0.0000 0.0000 0.0000
# 2 30.3079 79.0477 47.2092 0.0000 0.0000 0.0000
# 3 68.0602 47.2092 169.0628 0.0000 0.0000 0.0000
# 4 0.0000 0.0000 0.0000 539.4402 0.0000 0.0000
# 5 0.0000 0.0000 0.0000 0.0000 77.6019 0.0000
# 6 0.0000 0.0000 0.0000 0.0000 0.0000 9.9818
#
#
#
# Elastic Compliance Matrix: (Units=1/GPa)
#
#
# Indices 1 2 3 4 5 6 
#
# 1 0.010725 -0.001841 -0.003804 0.000000 0.000000 0.000000
# 2 -0.001841 0.015498 -0.003587 0.000000 0.000000 0.000000
# 3 -0.003804 -0.003587 0.008448 0.000000 0.000000 0.000000
# 4 0.000000 0.000000 0.000000 0.001854 0.000000 0.000000
# 5 0.000000 0.000000 0.000000 0.000000 0.012886 0.000000
# 6 0.000000 0.000000 0.000000 0.000000 0.000000 0.100182
#
#
# Mechanical properties :
#
#
# Convention : Reuss Voigt Hill
#
# Bulk Modulus (GPa) = 61.69295 73.53795 67.61545
# Shear Modulus (GPa) = 28.82526 140.41210 84.61868
#
# Velocity S-wave (km/s) = 3.62200 7.99400 6.20576
# Velocity P-wave (km/s) = 6.75051 10.89375 9.06209
#
# Compressibility (1/GPa) = 0.01620931
#
# Stress axis : x y z
#
# Youngs Moduli (GPa) = 93.23766 64.52271 118.37330
#
# Poissons Ratio (x) = 0.11875 0.45026
# Poissons Ratio (y) = 0.17160 0.42459
# Poissons Ratio (z) = 0.35465 0.23143
#
# Static dielectric constant tensor:
#      x y z
#    x 4.191240 0.000000 0.000000 
#    y 0.000000 4.016260 0.000000 
#    z 0.000000 0.000000 4.332080 
# 
# 
# High freq. dielectric constant tensor:
#      x y z
#    x 1.872440 0.000000 0.000000 
#    y 0.000000 1.868470 0.000000 
#    z 0.000000 0.000000 1.875100 
# 
# From -- ./inp_files/23845.got.cif
#   From: 2010.03.12/outbox.cif.g09.slc.cpg/sg68_12_cif.got.tgz:23845.got - 2010.04.10 23:14:56.
