data_PCOD8283289
_publ_section_title
;
Structure prediction by ZEFSAII (Michael W. Deem and Ramdas Pophale) SiO2 
 PCOD8283289
Probable space group: C C C A
;
_chemical_formula_sum "Si O2"
_cell_formula_units_Z 48
_cell_length_a 14.910355
_cell_length_b 12.315977
_cell_length_c 11.104929
_cell_angle_alpha 90.000000
_cell_angle_beta 90.000000
_cell_angle_gamma 90.000000
_cell_volume 2039.260180
_symmetry_space_group_name_H-M "C C C A"
_symmetry_group_IT_number 68
_space_group.IT_coordinate_system_code '2'
_symmetry_cell_setting 'orthorhombic'
loop_
_space_group_symop_operation_xyz
x,y,z
-x,1/2-y,z
x,1/2-y,1/2-z
-x,y,1/2-z
-x,-y,-z
x,1/2+y,-z
-x,1/2+y,1/2+z
x,-y,1/2+z
1/2+x,1/2+y,z
1/2-x,-y,z
1/2+x,-y,1/2-z
1/2-x,1/2+y,1/2-z
1/2-x,1/2-y,-z
1/2+x,y,-z
1/2-x,y,1/2+z
1/2+x,1/2-y,1/2+z
loop_
_atom_site_type_symbol
_atom_site_label
_atom_site_fract_x
_atom_site_fract_y
_atom_site_fract_z
Si Si1 0.845653 0.272812 0.942915
Si Si2 0.095769 0.150278 0.185692
Si Si3 0.394893 0.412260 0.274693
O O1 0.840173 0.360255 0.835489
O O2 0.882725 0.158183 0.895324
O O3 0.750000 0.250000 0.000000
O O4 0.911931 0.322192 0.044305
O O5 0.150685 0.250000 0.250000
O O6 0.000000 0.144629 0.250000
O O7 0.143666 0.033825 0.203479
O O8 0.500000 0.413724 0.250000
#
# Coordination Sequence:
#
# PCOD8283289 Si02
#       3
#    16  16  16
#     4  11  25  45  67 104 144 180 227 284 356 419
#     4  10  25  43  72 103 133 179 240 284 339 410
#     4  10  25  48  74  98 136 189 231 288 347 406
#
# _framework density 23.537946000000002
#
# number of rings (size 3 to 8) (size 9 to 14) (size 15 to 20)
#    0.000    1.667    0.000    2.000   18.667    4.000 
#    0.000    0.000    0.000    0.000    0.000    0.000 
#    0.000    0.000    0.000    0.000    0.000    0.000 
#
# Total GULP energy -297497.980102 kJ/mol
# GULP energy per Si atom -12395.749171 kJ/mol
# Density = 2.348437 g / cm^3
# Si number density = 23.537946 Si / 1000 Ang^3
#
#
#
# Elastic Constant Matrix: (Units=GPa)
#
#
# Indices 1 2 3 4 5 6 
#
# 1 75.4503 30.3751 46.3083 0.0000 0.0000 0.0000
# 2 30.3751 284.8660 107.6397 0.0000 0.0000 0.0000
# 3 46.3083 107.6397 176.5481 0.0000 0.0000 0.0000
# 4 0.0000 0.0000 0.0000 32.4541 0.0000 0.0000
# 5 0.0000 0.0000 0.0000 0.0000 40.6762 0.0000
# 6 0.0000 0.0000 0.0000 0.0000 0.0000 10.1235
#
#
#
# Elastic Compliance Matrix: (Units=1/GPa)
#
#
# Indices 1 2 3 4 5 6 
#
# 1 0.015802 -0.000154 -0.004051 0.000000 0.000000 0.000000
# 2 -0.000154 0.004563 -0.002741 0.000000 0.000000 0.000000
# 3 -0.004051 -0.002741 0.008398 0.000000 0.000000 0.000000
# 4 0.000000 0.000000 0.000000 0.030813 0.000000 0.000000
# 5 0.000000 0.000000 0.000000 0.000000 0.024584 0.000000
# 6 0.000000 0.000000 0.000000 0.000000 0.000000 0.098780
#
#
# Mechanical properties :
#
#
# Convention : Reuss Voigt Hill
#
# Bulk Modulus (GPa) = 67.24976 100.61228 83.93102
# Shear Modulus (GPa) = 24.77832 40.15352 32.46592
#
# Velocity S-wave (km/s) = 3.24805 4.13474 3.71792
# Velocity P-wave (km/s) = 6.53447 8.10138 7.35974
#
# Compressibility (1/GPa) = 0.01486994
#
# Stress axis : x y z
#
# Youngs Moduli (GPa) = 63.28281 219.16672 119.07488
#
# Poissons Ratio (x) = 0.03383 0.48234
# Poissons Ratio (y) = 0.00977 0.32643
# Poissons Ratio (z) = 0.25634 0.60082
#
# Static dielectric constant tensor:
#      x y z
#    x 5.651980 0.000000 0.000000 
#    y 0.000000 6.011400 0.000000 
#    z 0.000000 0.000000 4.536020 
# 
# 
# High freq. dielectric constant tensor:
#      x y z
#    x 1.908140 0.000000 0.000000 
#    y 0.000000 1.955600 0.000000 
#    z 0.000000 0.000000 1.943420 
# 
# From -- ./inp_files/13849.got.cif
#   From: 2010.03.12/outbox.cif.g09.slc.cpg/sg68_7_cif.got.tgz:13849.got - 2010.04.10 23:14:56.
