data_PCOD8283082
_publ_section_title
;
Structure prediction by ZEFSAII (Michael W. Deem and Ramdas Pophale) SiO2 
 PCOD8283082
Probable space group: C C C A
;
_chemical_formula_sum "Si O2"
_cell_formula_units_Z 72
_cell_length_a 8.930600
_cell_length_b 20.300110
_cell_length_c 15.721568
_cell_angle_alpha 90.000000
_cell_angle_beta 90.000000
_cell_angle_gamma 90.000000
_cell_volume 2850.197059
_symmetry_space_group_name_H-M "C C C A"
_symmetry_group_IT_number 68
_space_group.IT_coordinate_system_code '2'
_symmetry_cell_setting 'orthorhombic'
loop_
_space_group_symop_operation_xyz
x,y,z
-x,1/2-y,z
x,1/2-y,1/2-z
-x,y,1/2-z
-x,-y,-z
x,1/2+y,-z
-x,1/2+y,1/2+z
x,-y,1/2+z
1/2+x,1/2+y,z
1/2-x,-y,z
1/2+x,-y,1/2-z
1/2-x,1/2+y,1/2-z
1/2-x,1/2-y,-z
1/2+x,y,-z
1/2-x,y,1/2+z
1/2+x,1/2-y,1/2+z
loop_
_atom_site_type_symbol
_atom_site_label
_atom_site_fract_x
_atom_site_fract_y
_atom_site_fract_z
Si Si1 0.465408 0.109031 0.862698
Si Si2 0.027620 0.398400 0.556188
Si Si3 0.250000 0.000000 0.372520
Si Si4 0.211095 0.650957 0.321031
Si Si5 0.216843 0.298080 0.640142
O O1 0.624432 0.116486 0.815482
O O2 0.389781 0.180780 0.858839
O O3 0.355198 0.052445 0.819813
O O4 0.470950 0.090903 0.961667
O O5 0.893395 0.398893 0.625905
O O6 0.136798 0.458979 0.570336
O O7 0.120568 0.329908 0.563958
O O8 0.212676 0.720076 0.371801
O O9 0.148386 0.670301 0.227863
#
# Coordination Sequence:
#
# PCOD8283082 Si02
#       5
#    16  16   8  16  16
#     4  11  23  40  64  91 122 163 209 254 300 361
#     4  11  23  40  64  91 122 163 209 254 300 361
#     4  10  24  44  60  88 126 160 208 260 308 350
#     4  11  22  40  66  92 128 165 195 247 316 371
#     4  10  23  41  61  95 132 159 194 248 316 374
#
# _framework density 25.261412
#
# number of rings (size 3 to 8) (size 9 to 14) (size 15 to 20)
#    0.000    1.333    0.000    6.000    0.000    9.778 
#    0.000   17.778    0.000    2.667    0.000    0.000 
#    0.000    0.000    0.000    0.000    0.000    0.000 
#
# Total GULP energy -446062.132529 kJ/mol
# GULP energy per Si atom -12390.614792 kJ/mol
# Density = 2.520392 g / cm^3
# Si number density = 25.261412 Si / 1000 Ang^3
#
#
#
# Elastic Constant Matrix: (Units=GPa)
#
#
# Indices 1 2 3 4 5 6 
#
# 1 124.7948 40.5635 16.2283 0.0000 0.0000 0.0000
# 2 40.5635 118.7230 12.4183 0.0000 0.0000 0.0000
# 3 16.2283 12.4183 42.4169 0.0000 0.0000 0.0000
# 4 0.0000 0.0000 0.0000 20.0395 0.0000 0.0000
# 5 0.0000 0.0000 0.0000 0.0000 -642.5046 0.0000
# 6 0.0000 0.0000 0.0000 0.0000 0.0000 46.5965
#
#
#
# Elastic Compliance Matrix: (Units=1/GPa)
#
#
# Indices 1 2 3 4 5 6 
#
# 1 0.009307 -0.002896 -0.002713 0.000000 0.000000 0.000000
# 2 -0.002896 0.009590 -0.001700 0.000000 0.000000 0.000000
# 3 -0.002713 -0.001700 0.025111 0.000000 0.000000 0.000000
# 4 0.000000 0.000000 0.000000 0.049901 0.000000 0.000000
# 5 0.000000 0.000000 0.000000 0.000000 -0.001556 0.000000
# 6 0.000000 0.000000 0.000000 0.000000 0.000000 0.021461
#
#
# Mechanical properties :
#
#
# Convention : Reuss Voigt Hill
#
# Bulk Modulus (GPa) = 34.02405 47.15055 40.58730
# Shear Modulus (GPa) = 36.17181 -100.72541 -32.27680
#
# Velocity S-wave (km/s) = 3.78815 -6.32138 -3.57839
# Velocity P-wave (km/s) = 5.71240 5.87998 0.98557
#
# Compressibility (1/GPa) = 0.02939098
#
# Stress axis : x y z
#
# Youngs Moduli (GPa) = 107.44201 104.27222 39.82308
#
# Poissons Ratio (x) = 0.30200 0.10804
# Poissons Ratio (y) = 0.31118 0.06769
# Poissons Ratio (z) = 0.29149 0.17723
#
# Static dielectric constant tensor:
#      x y z
#    x 4.804160 0.000000 0.000000 
#    y 0.000000 4.673190 0.000000 
#    z 0.000000 0.000000 4.313660 
# 
# 
# High freq. dielectric constant tensor:
#      x y z
#    x 2.025480 0.000000 0.000000 
#    y 0.000000 2.005730 0.000000 
#    z 0.000000 0.000000 1.989730 
# 
# From -- ./inp_files/28124.got.cif
#   From: 2010.03.12/outbox.cif.g09.slc.cpg/sg68_15_cif.got.tgz:28124.got - 2010.04.10 23:14:56.
