data_PCOD8283580
_publ_section_title
;
Structure prediction by ZEFSAII (Michael W. Deem and Ramdas Pophale) SiO2 
 PCOD8283580
Probable space group: C C C A
;
_chemical_formula_sum "Si O2"
_cell_formula_units_Z 88
_cell_length_a 25.737702
_cell_length_b 15.489628
_cell_length_c 10.298893
_cell_angle_alpha 90.000000
_cell_angle_beta 90.000000
_cell_angle_gamma 90.000000
_cell_volume 4105.833200
_symmetry_space_group_name_H-M "C C C A"
_symmetry_group_IT_number 68
_space_group.IT_coordinate_system_code '2'
_symmetry_cell_setting 'orthorhombic'
loop_
_space_group_symop_operation_xyz
x,y,z
-x,1/2-y,z
x,1/2-y,1/2-z
-x,y,1/2-z
-x,-y,-z
x,1/2+y,-z
-x,1/2+y,1/2+z
x,-y,1/2+z
1/2+x,1/2+y,z
1/2-x,-y,z
1/2+x,-y,1/2-z
1/2-x,1/2+y,1/2-z
1/2-x,1/2-y,-z
1/2+x,y,-z
1/2-x,y,1/2+z
1/2+x,1/2-y,1/2+z
loop_
_atom_site_type_symbol
_atom_site_label
_atom_site_fract_x
_atom_site_fract_y
_atom_site_fract_z
Si Si1 0.711592 0.919739 0.345557
Si Si2 0.557319 0.534813 0.528024
Si Si3 0.381242 0.497943 0.226945
Si Si4 0.729405 0.250000 0.250000
Si Si5 0.348662 0.160151 0.420072
Si Si6 0.943706 0.269854 0.598407
O O1 0.672508 0.949911 0.233342
O O2 0.737587 0.833110 0.291597
O O3 0.677533 0.900473 0.472861
O O4 0.750000 0.000000 0.377091
O O5 0.500000 0.500000 0.500000
O O6 0.587659 0.531458 0.395203
O O7 0.584989 0.481723 0.643669
O O8 0.562559 0.630123 0.579340
O O9 0.367221 0.397294 0.203067
O O10 0.693978 0.271338 0.373630
O O11 0.398957 0.213240 0.473266
O O12 0.941596 0.250000 0.750000
O O13 0.000000 0.250000 0.537472
#
# Coordination Sequence:
#
# PCOD8283580 Si02
#       6
#    16  16  16   8  16  16
#     4  12  29  46  74 107 149 201 251 317 377 444
#     4  12  26  46  76 108 146 193 245 310 380 449
#     4  12  25  47  74 106 148 190 249 307 376 447
#     4  12  26  46  71 106 145 194 254 310 382 442
#     4  12  24  47  73 105 148 191 254 306 375 450
#     4  11  24  43  75 106 144 191 246 302 374 457
#
# _framework density 21.432921
#
# number of rings (size 3 to 8) (size 9 to 14) (size 15 to 20)
#    0.000    0.182    6.364    2.182    7.636    0.000 
#    0.000    0.000    0.000    0.000    0.000    0.000 
#    0.000    0.000    0.000    0.000    0.000    0.000 
#
# Total GULP energy -545476.927716 kJ/mol
# GULP energy per Si atom -12397.202903 kJ/mol
# Density = 2.138414 g / cm^3
# Si number density = 21.432921 Si / 1000 Ang^3
#
#
#
# Elastic Constant Matrix: (Units=GPa)
#
#
# Indices 1 2 3 4 5 6 
#
# 1 181.7326 86.5783 69.9144 0.0000 0.0000 0.0000
# 2 86.5783 141.4873 27.9190 0.0000 0.0000 0.0000
# 3 69.9144 27.9190 79.9410 0.0000 0.0000 0.0000
# 4 0.0000 0.0000 0.0000 20.6483 0.0000 0.0000
# 5 0.0000 0.0000 0.0000 0.0000 61.2724 0.0000
# 6 0.0000 0.0000 0.0000 0.0000 0.0000 52.5160
#
#
#
# Elastic Compliance Matrix: (Units=1/GPa)
#
#
# Indices 1 2 3 4 5 6 
#
# 1 0.010958 -0.005171 -0.007778 0.000000 0.000000 0.000000
# 2 -0.005171 0.010031 0.001019 0.000000 0.000000 0.000000
# 3 -0.007778 0.001019 0.018956 0.000000 0.000000 0.000000
# 4 0.000000 0.000000 0.000000 0.048430 0.000000 0.000000
# 5 0.000000 0.000000 0.000000 0.000000 0.016321 0.000000
# 6 0.000000 0.000000 0.000000 0.000000 0.000000 0.019042
#
#
# Mechanical properties :
#
#
# Convention : Reuss Voigt Hill
#
# Bulk Modulus (GPa) = 62.16831 85.77604 73.97218
# Shear Modulus (GPa) = 32.68866 41.47061 37.07964
#
# Velocity S-wave (km/s) = 3.90957 4.40352 4.16388
# Velocity P-wave (km/s) = 7.03197 8.12172 7.59641
#
# Compressibility (1/GPa) = 0.01608537
#
# Stress axis : x y z
#
# Youngs Moduli (GPa) = 91.25612 99.69359 52.75459
#
# Poissons Ratio (x) = 0.51549 0.41032
# Poissons Ratio (y) = 0.47186 -0.05376
# Poissons Ratio (z) = 0.70978 -0.10159
#
# Static dielectric constant tensor:
#      x y z
#    x 4.597370 0.000000 0.000000 
#    y 0.000000 4.059740 0.000000 
#    z 0.000000 0.000000 3.753140 
# 
# 
# High freq. dielectric constant tensor:
#      x y z
#    x 1.868270 0.000000 0.000000 
#    y 0.000000 1.853920 0.000000 
#    z 0.000000 0.000000 1.824810 
# 
# From -- ./inp_files/16326.got.cif
#   From: 2010.03.12/outbox.cif.g09.slc.cpg/sg68_9_cif.got.tgz:16326.got - 2010.04.10 23:14:56.
