data_PCOD8283364
_publ_section_title
;
Structure prediction by ZEFSAII (Michael W. Deem and Ramdas Pophale) SiO2 
 PCOD8283364
Probable space group: C C C A
;
_chemical_formula_sum "Si O2"
_cell_formula_units_Z 96
_cell_length_a 24.142498
_cell_length_b 20.366188
_cell_length_c 8.755160
_cell_angle_alpha 90.000000
_cell_angle_beta 90.000000
_cell_angle_gamma 90.000000
_cell_volume 4304.830338
_symmetry_space_group_name_H-M "C C C A"
_symmetry_group_IT_number 68
_space_group.IT_coordinate_system_code '2'
_symmetry_cell_setting 'orthorhombic'
loop_
_space_group_symop_operation_xyz
x,y,z
-x,1/2-y,z
x,1/2-y,1/2-z
-x,y,1/2-z
-x,-y,-z
x,1/2+y,-z
-x,1/2+y,1/2+z
x,-y,1/2+z
1/2+x,1/2+y,z
1/2-x,-y,z
1/2+x,-y,1/2-z
1/2-x,1/2+y,1/2-z
1/2-x,1/2-y,-z
1/2+x,y,-z
1/2-x,y,1/2+z
1/2+x,1/2-y,1/2+z
loop_
_atom_site_type_symbol
_atom_site_label
_atom_site_fract_x
_atom_site_fract_y
_atom_site_fract_z
Si Si1 0.132694 0.933555 0.833205
Si Si2 0.132725 0.432413 0.813842
Si Si3 0.093265 0.308207 0.353927
Si Si4 0.245051 0.892805 0.310008
Si Si5 0.941908 0.321254 0.817527
Si Si6 0.285817 0.193896 0.569610
O O1 0.103676 0.873907 0.743766
O O2 0.199544 0.936244 0.822076
O O3 0.109651 0.000503 0.759614
O O4 0.115541 0.929780 0.009532
O O5 0.199110 0.429176 0.792493
O O6 0.106566 0.370544 0.728141
O O7 0.067761 0.250000 0.250000
O O8 0.052712 0.320107 0.497608
O O9 0.151117 0.281992 0.423643
O O10 0.262917 0.822697 0.237395
O O11 0.219208 0.874570 0.474551
O O12 0.927189 0.250000 0.750000
O O13 0.000000 0.346572 0.750000
O O14 0.250000 0.250000 0.500000
#
# Coordination Sequence:
#
# PCOD8283364 Si02
#       6
#    16  16  16  16  16  16
#     4  11  25  41  64 103 136 184 227 279 350 418
#     4  12  24  43  67  93 138 182 232 287 346 415
#     4  11  23  43  69 101 143 175 227 289 351 417
#     4  11  22  35  59  92 140 181 226 270 342 417
#     4  11  26  48  74 103 132 177 235 297 361 410
#     4  11  21  34  55  99 136 183 224 272 333 423
#
# _framework density 22.300529999999998
#
# number of rings (size 3 to 8) (size 9 to 14) (size 15 to 20)
#    0.000    0.833    3.333    5.000    4.667    1.333 
#    0.000    9.167    0.000    0.000    0.000    0.000 
#    0.000    0.000    0.000    0.000    0.000    0.000 
#
# Total GULP energy -595344.014937 kJ/mol
# GULP energy per Si atom -12403.000311 kJ/mol
# Density = 2.224977 g / cm^3
# Si number density = 22.300530 Si / 1000 Ang^3
#
#
#
# Elastic Constant Matrix: (Units=GPa)
#
#
# Indices 1 2 3 4 5 6 
#
# 1 55.1387 21.1451 31.4330 0.0000 0.0000 0.0000
# 2 21.1451 107.7813 41.6181 0.0000 0.0000 0.0000
# 3 31.4330 41.6181 163.6888 0.0000 0.0000 0.0000
# 4 0.0000 0.0000 0.0000 39.7195 0.0000 0.0000
# 5 0.0000 0.0000 0.0000 0.0000 31.7135 0.0000
# 6 0.0000 0.0000 0.0000 0.0000 0.0000 15.4433
#
#
#
# Elastic Compliance Matrix: (Units=1/GPa)
#
#
# Indices 1 2 3 4 5 6 
#
# 1 0.021132 -0.002860 -0.003331 0.000000 0.000000 0.000000
# 2 -0.002860 0.010675 -0.002165 0.000000 0.000000 0.000000
# 3 -0.003331 -0.002165 0.007299 0.000000 0.000000 0.000000
# 4 0.000000 0.000000 0.000000 0.025177 0.000000 0.000000
# 5 0.000000 0.000000 0.000000 0.000000 0.031532 0.000000
# 6 0.000000 0.000000 0.000000 0.000000 0.000000 0.064753
#
#
# Mechanical properties :
#
#
# Convention : Reuss Voigt Hill
#
# Bulk Modulus (GPa) = 44.65286 57.22236 50.93761
# Shear Modulus (GPa) = 27.06456 32.86943 29.96699
#
# Velocity S-wave (km/s) = 3.48750 3.84335 3.66974
# Velocity P-wave (km/s) = 6.02358 6.73873 6.39116
#
# Compressibility (1/GPa) = 0.02239498
#
# Stress axis : x y z
#
# Youngs Moduli (GPa) = 47.32270 93.67647 137.00081
#
# Poissons Ratio (x) = 0.26787 0.45633
# Poissons Ratio (y) = 0.13532 0.29661
# Poissons Ratio (z) = 0.15762 0.20281
#
# Static dielectric constant tensor:
#      x y z
#    x 3.696060 0.000000 0.000000 
#    y 0.000000 3.917970 0.000000 
#    z 0.000000 0.000000 4.382850 
# 
# 
# High freq. dielectric constant tensor:
#      x y z
#    x 1.844100 0.000000 0.000000 
#    y 0.000000 1.879490 0.000000 
#    z 0.000000 0.000000 1.901210 
# 
# From -- ./inp_files/8929.got.cif
#   From: 2010.03.12/outbox.cif.g09.slc.cpg/sg68_5_cif.got.tgz:8929.got - 2010.04.10 23:14:56.
