data_PCOD8283972
_publ_section_title
;
Structure prediction by ZEFSAII (Michael W. Deem and Ramdas Pophale) SiO2 
 PCOD8283972
Probable space group: F M M M
;
_chemical_formula_sum "Si O2"
_cell_formula_units_Z 176
_cell_length_a 15.200467
_cell_length_b 27.645543
_cell_length_c 24.540621
_cell_angle_alpha 90.000000
_cell_angle_beta 90.000000
_cell_angle_gamma 90.000000
_cell_volume 10312.586486
_symmetry_space_group_name_H-M "F M M M"
_symmetry_group_IT_number 69
_symmetry_cell_setting 'orthorhombic'
loop_
_space_group_symop_operation_xyz
x,y,z
-x,-y,z
x,-y,-z
-x,y,-z
-x,-y,-z
x,y,-z
-x,y,z
x,-y,z
x,1/2+y,1/2+z
-x,1/2-y,1/2+z
x,1/2-y,1/2-z
-x,1/2+y,1/2-z
-x,1/2-y,1/2-z
x,1/2+y,1/2-z
-x,1/2+y,1/2+z
x,1/2-y,1/2+z
1/2+x,y,1/2+z
1/2-x,-y,1/2+z
1/2+x,-y,1/2-z
1/2-x,y,1/2-z
1/2-x,-y,1/2-z
1/2+x,y,1/2-z
1/2-x,y,1/2+z
1/2+x,-y,1/2+z
1/2+x,1/2+y,z
1/2-x,1/2-y,z
1/2+x,1/2-y,-z
1/2-x,1/2+y,-z
1/2-x,1/2-y,-z
1/2+x,1/2+y,-z
1/2-x,1/2+y,z
1/2+x,1/2-y,z
loop_
_atom_site_type_symbol
_atom_site_label
_atom_site_fract_x
_atom_site_fract_y
_atom_site_fract_z
Si Si1 0.239674 0.555677 0.688584
Si Si2 0.657114 0.146594 0.061923
Si Si3 0.598647 0.053495 0.112026
Si Si4 0.602868 0.557054 0.000000
Si Si5 0.837573 0.382516 0.599699
Si Si6 0.000000 0.322309 0.434471
Si Si7 0.000000 0.289798 0.935648
O O1 0.207396 0.500000 0.687373
O O2 0.250000 0.574669 0.750000
O O3 0.335320 0.561879 0.661894
O O4 0.167278 0.588423 0.656878
O O5 0.616990 0.092541 0.065032
O O6 0.749290 0.149286 0.093525
O O7 0.587983 0.184721 0.088226
O O8 0.676439 0.160394 0.000000
O O9 0.500000 0.059342 0.135124
O O10 0.612349 0.000000 0.086578
O O11 0.652820 0.577383 0.947423
O O12 0.612316 0.500000 0.000000
O O13 0.500000 0.572948 0.000000
O O14 0.916943 0.345162 0.595857
O O15 0.000000 0.266056 0.420270
O O16 0.000000 0.331411 0.500000
O O17 0.000000 0.298829 0.000000
#
# Coordination Sequence:
#
# PCOD8283972 Si02
#       7
#    32  32  32  16  32  16  16
#     4   9  19  35  51  73 104 135 175 217 253 307
#     4  10  18  31  48  73 105 137 171 203 249 318
#     4   9  17  29  47  70  98 132 163 203 256 304
#     4  11  20  32  50  76 114 148 174 205 256 323
#     4  11  19  34  53  75 104 142 172 214 264 310
#     4  11  20  36  52  76 112 136 175 227 263 318
#     4   9  20  32  49  73 105 141 173 214 262 310
#
# _framework density 17.066523
#
# number of rings (size 3 to 8) (size 9 to 14) (size 15 to 20)
#    0.000    2.091    3.636    0.545    0.000    1.818 
#    1.636    3.636    0.000    0.000    0.000   15.273 
#    0.000    0.000    0.000    0.000    0.000    0.000 
#
# Total GULP energy -545447.745455 kJ/mol
# GULP energy per Si atom -12396.539669 kJ/mol
# Density = 1.702768 g / cm^3
# Si number density = 17.066523 Si / 1000 Ang^3
#
#
#
# Elastic Constant Matrix: (Units=GPa)
#
#
# Indices 1 2 3 4 5 6 
#
# 1 119.9673 61.5913 25.1005 0.0000 0.0000 0.0000
# 2 61.5913 115.5929 36.6379 0.0000 0.0000 0.0000
# 3 25.1005 36.6379 79.0209 0.0000 0.0000 0.0000
# 4 0.0000 0.0000 0.0000 17.5056 0.0000 0.0000
# 5 0.0000 0.0000 0.0000 0.0000 12.6355 0.0000
# 6 0.0000 0.0000 0.0000 0.0000 0.0000 22.6224
#
#
#
# Elastic Compliance Matrix: (Units=1/GPa)
#
#
# Indices 1 2 3 4 5 6 
#
# 1 0.011536 -0.005844 -0.000955 0.000000 0.000000 0.000000
# 2 -0.005844 0.013102 -0.004218 0.000000 0.000000 0.000000
# 3 -0.000955 -0.004218 0.014914 0.000000 0.000000 0.000000
# 4 0.000000 0.000000 0.000000 0.057125 0.000000 0.000000
# 5 0.000000 0.000000 0.000000 0.000000 0.079142 0.000000
# 6 0.000000 0.000000 0.000000 0.000000 0.000000 0.044204
#
#
# Mechanical properties :
#
#
# Convention : Reuss Voigt Hill
#
# Bulk Modulus (GPa) = 57.08577 62.36004 59.72290
# Shear Modulus (GPa) = 20.16977 23.30278 21.73628
#
# Velocity S-wave (km/s) = 3.44151 3.69915 3.57265
# Velocity P-wave (km/s) = 7.02236 7.40700 7.21725
#
# Compressibility (1/GPa) = 0.01751750
#
# Stress axis : x y z
#
# Youngs Moduli (GPa) = 86.68797 76.32480 67.05123
#
# Poissons Ratio (x) = 0.44604 0.06401
# Poissons Ratio (y) = 0.50660 0.28285
# Poissons Ratio (z) = 0.08276 0.32197
#
# Static dielectric constant tensor:
#      x y z
#    x 3.404810 0.000000 0.000000 
#    y 0.000000 3.209190 0.000000 
#    z 0.000000 0.000000 2.870330 
# 
# 
# High freq. dielectric constant tensor:
#      x y z
#    x 1.671670 0.000000 0.000000 
#    y 0.000000 1.654190 0.000000 
#    z 0.000000 0.000000 1.613830 
# 
# From -- ./inp_files/41270.got.cif
#   From: 2010.03.12/outbox.cif.g09.slc.cpg/sg69_21_cif.got.tgz:41270.got - 2010.04.10 23:52:46.
