data_PCOD8283388
_publ_section_title
;
Structure prediction by ZEFSAII (Michael W. Deem and Ramdas Pophale) SiO2 
 PCOD8283388
Probable space group: C C C A
;
_chemical_formula_sum "Si O2"
_cell_formula_units_Z 80
_cell_length_a 26.585472
_cell_length_b 15.246424
_cell_length_c 8.805258
_cell_angle_alpha 90.000000
_cell_angle_beta 90.000000
_cell_angle_gamma 90.000000
_cell_volume 3569.064972
_symmetry_space_group_name_H-M "C C C A"
_symmetry_group_IT_number 68
_space_group.IT_coordinate_system_code '2'
_symmetry_cell_setting 'orthorhombic'
loop_
_space_group_symop_operation_xyz
x,y,z
-x,1/2-y,z
x,1/2-y,1/2-z
-x,y,1/2-z
-x,-y,-z
x,1/2+y,-z
-x,1/2+y,1/2+z
x,-y,1/2+z
1/2+x,1/2+y,z
1/2-x,-y,z
1/2+x,-y,1/2-z
1/2-x,1/2+y,1/2-z
1/2-x,1/2-y,-z
1/2+x,y,-z
1/2-x,y,1/2+z
1/2+x,1/2-y,1/2+z
loop_
_atom_site_type_symbol
_atom_site_label
_atom_site_fract_x
_atom_site_fract_y
_atom_site_fract_z
Si Si1 0.444413 0.555008 0.316159
Si Si2 0.102333 0.593277 0.505467
Si Si3 0.786953 0.328863 0.138605
Si Si4 0.394695 0.283493 0.920563
Si Si5 0.285804 0.420034 0.561762
O O1 0.500000 0.558549 0.250000
O O2 0.434472 0.461918 0.396704
O O3 0.406108 0.566241 0.179144
O O4 0.434860 0.636179 0.435388
O O5 0.091692 0.697831 0.476917
O O6 0.160585 0.569604 0.477320
O O7 0.775187 0.250000 0.250000
O O8 0.838663 0.318201 0.042353
O O9 0.791890 0.410583 0.256702
O O10 0.741659 0.337188 0.018190
O O11 0.394299 0.250000 0.750000
O O12 0.250000 0.500000 0.521044
#
# Coordination Sequence:
#
# PCOD8283388 Si02
#       5
#    16  16  16  16  16
#     4  11  23  44  71  98 125 169 224 279 337 400
#     4  11  24  43  66  97 136 171 221 281 332 400
#     4  11  21  40  61  90 131 176 222 260 320 395
#     4   9  19  41  65  90 130 176 216 262 328 402
#     4  12  24  37  62  95 133 175 220 271 329 393
#
# _framework density 22.414835
#
# number of rings (size 3 to 8) (size 9 to 14) (size 15 to 20)
#    0.000    1.200    6.000    3.000    2.800    3.600 
#    0.000    1.000    0.000    1.200    0.000    0.000 
#    0.000    0.000    0.000    0.000    0.000    0.000 
#
# Total GULP energy -495775.364889 kJ/mol
# GULP energy per Si atom -12394.384122 kJ/mol
# Density = 2.236382 g / cm^3
# Si number density = 22.414835 Si / 1000 Ang^3
#
#
#
# Elastic Constant Matrix: (Units=GPa)
#
#
# Indices 1 2 3 4 5 6 
#
# 1 135.6588 89.7467 24.6331 0.0000 0.0000 0.0000
# 2 89.7467 152.4228 38.5516 0.0000 0.0000 0.0000
# 3 24.6331 38.5516 47.6909 0.0000 0.0000 0.0000
# 4 0.0000 0.0000 0.0000 28.5046 0.0000 0.0000
# 5 0.0000 0.0000 0.0000 0.0000 18.2813 0.0000
# 6 0.0000 0.0000 0.0000 0.0000 0.0000 29.7731
#
#
#
# Elastic Compliance Matrix: (Units=1/GPa)
#
#
# Indices 1 2 3 4 5 6 
#
# 1 0.012089 -0.006962 -0.000616 0.000000 0.000000 0.000000
# 2 -0.006962 0.012256 -0.006312 0.000000 0.000000 0.000000
# 3 -0.000616 -0.006312 0.026389 0.000000 0.000000 0.000000
# 4 0.000000 0.000000 0.000000 0.035082 0.000000 0.000000
# 5 0.000000 0.000000 0.000000 0.000000 0.054701 0.000000
# 6 0.000000 0.000000 0.000000 0.000000 0.000000 0.033587
#
#
# Mechanical properties :
#
#
# Convention : Reuss Voigt Hill
#
# Bulk Modulus (GPa) = 43.56483 71.29280 57.42881
# Shear Modulus (GPa) = 23.86219 27.50120 25.68169
#
# Velocity S-wave (km/s) = 3.26632 3.50654 3.38856
# Velocity P-wave (km/s) = 5.80543 6.94763 6.40205
#
# Compressibility (1/GPa) = 0.02295430
#
# Stress axis : x y z
#
# Youngs Moduli (GPa) = 82.71737 81.58943 37.89503
#
# Poissons Ratio (x) = 0.56806 0.02335
# Poissons Ratio (y) = 0.57591 0.23918
# Poissons Ratio (z) = 0.05097 0.51495
#
# Static dielectric constant tensor:
#      x y z
#    x 3.992580 0.000000 0.000000 
#    y 0.000000 4.613410 0.000000 
#    z 0.000000 0.000000 3.806140 
# 
# 
# High freq. dielectric constant tensor:
#      x y z
#    x 1.879520 0.000000 0.000000 
#    y 0.000000 1.899590 0.000000 
#    z 0.000000 0.000000 1.844090 
# 
# From -- ./inp_files/8792.got.cif
#   From: 2010.03.12/outbox.cif.g09.slc.cpg/sg68_5_cif.got.tgz:8792.got - 2010.04.10 23:14:56.
