data_PCOD8283458
_publ_section_title
;
Structure prediction by ZEFSAII (Michael W. Deem and Ramdas Pophale) SiO2 
 PCOD8283458
Probable space group: C C C A
;
_chemical_formula_sum "Si O2"
_cell_formula_units_Z 72
_cell_length_a 12.386627
_cell_length_b 16.195043
_cell_length_c 16.588062
_cell_angle_alpha 90.000000
_cell_angle_beta 90.000000
_cell_angle_gamma 90.000000
_cell_volume 3327.597698
_symmetry_space_group_name_H-M "C C C A"
_symmetry_group_IT_number 68
_space_group.IT_coordinate_system_code '2'
_symmetry_cell_setting 'orthorhombic'
loop_
_space_group_symop_operation_xyz
x,y,z
-x,1/2-y,z
x,1/2-y,1/2-z
-x,y,1/2-z
-x,-y,-z
x,1/2+y,-z
-x,1/2+y,1/2+z
x,-y,1/2+z
1/2+x,1/2+y,z
1/2-x,-y,z
1/2+x,-y,1/2-z
1/2-x,1/2+y,1/2-z
1/2-x,1/2-y,-z
1/2+x,y,-z
1/2-x,y,1/2+z
1/2+x,1/2-y,1/2+z
loop_
_atom_site_type_symbol
_atom_site_label
_atom_site_fract_x
_atom_site_fract_y
_atom_site_fract_z
Si Si1 0.451129 0.340014 0.898597
Si Si2 0.002022 0.652697 0.421752
Si Si3 0.169776 0.936761 0.311920
Si Si4 0.228667 0.404421 0.853310
Si Si5 0.000000 0.551840 0.750000
O O1 0.500000 0.250000 0.884589
O O2 0.320970 0.345075 0.891760
O O3 0.505892 0.396703 0.831688
O O4 0.486610 0.373313 0.985828
O O5 0.901345 0.615865 0.372220
O O6 0.000000 0.750000 0.409586
O O7 0.114752 0.618449 0.392150
O O8 0.231366 0.882409 0.243541
O O9 0.250000 0.000000 0.359897
O O10 0.103239 0.993405 0.248777
O O11 0.250000 0.500000 0.874309
#
# Coordination Sequence:
#
# PCOD8283458 Si02
#       5
#    16  16  16  16   8
#     4  11  26  44  68 104 142 181 226 286 348 414
#     4  11  26  45  70 104 142 176 230 287 348 414
#     4  11  22  42  70 102 132 183 234 282 341 406
#     4  11  22  46  69  99 143 179 230 286 338 412
#     4  12  21  44  67  96 136 180 234 272 333 412
#
# _framework density 21.637229999999999
#
# number of rings (size 3 to 8) (size 9 to 14) (size 15 to 20)
#    0.000    0.889    6.667    0.333    0.000   13.333 
#    4.000    0.000    0.000    0.000    0.000    0.000 
#    0.000    0.000    0.000    0.000    0.000    0.000 
#
# Total GULP energy -446211.847758 kJ/mol
# GULP energy per Si atom -12394.773549 kJ/mol
# Density = 2.158798 g / cm^3
# Si number density = 21.637230 Si / 1000 Ang^3
#
#
#
# Elastic Constant Matrix: (Units=GPa)
#
#
# Indices 1 2 3 4 5 6 
#
# 1 118.8613 53.9695 41.6415 0.0000 0.0000 0.0000
# 2 53.9695 104.2696 68.9271 0.0000 0.0000 0.0000
# 3 41.6415 68.9271 150.6326 0.0000 0.0000 0.0000
# 4 0.0000 0.0000 0.0000 81.2449 0.0000 0.0000
# 5 0.0000 0.0000 0.0000 0.0000 16.2800 0.0000
# 6 0.0000 0.0000 0.0000 0.0000 0.0000 47.3756
#
#
#
# Elastic Compliance Matrix: (Units=1/GPa)
#
#
# Indices 1 2 3 4 5 6 
#
# 1 0.011039 -0.005299 -0.000627 0.000000 0.000000 0.000000
# 2 -0.005299 0.016294 -0.005991 0.000000 0.000000 0.000000
# 3 -0.000627 -0.005991 0.009553 0.000000 0.000000 0.000000
# 4 0.000000 0.000000 0.000000 0.012308 0.000000 0.000000
# 5 0.000000 0.000000 0.000000 0.000000 0.061425 0.000000
# 6 0.000000 0.000000 0.000000 0.000000 0.000000 0.021108
#
#
# Mechanical properties :
#
#
# Convention : Reuss Voigt Hill
#
# Bulk Modulus (GPa) = 76.61635 78.09330 77.35483
# Shear Modulus (GPa) = 31.26729 42.92846 37.09788
#
# Velocity S-wave (km/s) = 3.80553 4.45905 4.14519
# Velocity P-wave (km/s) = 7.40242 7.91715 7.66411
#
# Compressibility (1/GPa) = 0.01305204
#
# Stress axis : x y z
#
# Youngs Moduli (GPa) = 90.58828 61.37375 104.67733
#
# Poissons Ratio (x) = 0.32525 0.06560
# Poissons Ratio (y) = 0.48007 0.62709
# Poissons Ratio (z) = 0.05677 0.36767
#
# Static dielectric constant tensor:
#      x y z
#    x 4.128640 0.000000 0.000000 
#    y 0.000000 3.922740 0.000000 
#    z 0.000000 0.000000 3.934760 
# 
# 
# High freq. dielectric constant tensor:
#      x y z
#    x 1.874730 0.000000 0.000000 
#    y 0.000000 1.841370 0.000000 
#    z 0.000000 0.000000 1.853880 
# 
# From -- ./inp_files/29404.got.cif
#   From: 2010.03.12/outbox.cif.g09.slc.cpg/sg68_15_cif.got.tgz:29404.got - 2010.04.10 23:14:56.
