data_PCOD8283143
_publ_section_title
;
Structure prediction by ZEFSAII (Michael W. Deem and Ramdas Pophale) SiO2 
 PCOD8283143
Probable space group: C C C A
;
_chemical_formula_sum "Si O2"
_cell_formula_units_Z 104
_cell_length_a 16.487060
_cell_length_b 11.310566
_cell_length_c 25.276247
_cell_angle_alpha 90.000000
_cell_angle_beta 90.000000
_cell_angle_gamma 90.000000
_cell_volume 4713.463490
_symmetry_space_group_name_H-M "C C C A"
_symmetry_group_IT_number 68
_space_group.IT_coordinate_system_code '2'
_symmetry_cell_setting 'orthorhombic'
loop_
_space_group_symop_operation_xyz
x,y,z
-x,1/2-y,z
x,1/2-y,1/2-z
-x,y,1/2-z
-x,-y,-z
x,1/2+y,-z
-x,1/2+y,1/2+z
x,-y,1/2+z
1/2+x,1/2+y,z
1/2-x,-y,z
1/2+x,-y,1/2-z
1/2-x,1/2+y,1/2-z
1/2-x,1/2-y,-z
1/2+x,y,-z
1/2-x,y,1/2+z
1/2+x,1/2-y,1/2+z
loop_
_atom_site_type_symbol
_atom_site_label
_atom_site_fract_x
_atom_site_fract_y
_atom_site_fract_z
Si Si1 0.250000 0.500000 0.033261
Si Si2 0.000000 0.750000 0.444373
Si Si3 0.085455 0.990011 0.220976
Si Si4 0.118027 0.871412 0.904790
Si Si5 0.453896 0.994524 0.599892
Si Si6 0.699978 0.110142 0.699781
Si Si7 0.866642 0.849241 0.976050
Si Si8 0.830628 0.250000 0.750000
O O1 0.173378 0.471110 0.069283
O O2 0.221555 0.615451 0.999643
O O3 0.026717 0.644042 0.405670
O O4 0.073016 0.800068 0.479439
O O5 0.079848 0.016867 0.158739
O O6 0.112797 0.855038 0.229611
O O7 0.000000 0.010250 0.250000
O O8 0.152962 0.078709 0.245434
O O9 0.133295 0.853486 0.842756
O O10 0.138993 0.747187 0.930667
O O11 0.026961 0.914889 0.911583
O O12 0.393084 0.028265 0.552564
O O13 0.768220 0.210962 0.704215
O O14 0.750000 0.000000 0.677739
#
# Coordination Sequence:
#
# PCOD8283143 Si02
#       8
#     8   8  16  16  16  16  16   8
#     4  12  26  44  70 106 138 180 248 286 354 424
#     4  12  24  44  73  94 139 186 232 296 354 406
#     4  11  24  43  71 104 135 182 241 292 338 434
#     4  12  23  44  73 101 139 188 231 287 360 426
#     4  12  26  44  73 104 138 184 243 289 358 420
#     4  10  23  44  66  99 141 180 220 286 359 424
#     4  12  26  46  69 102 142 182 234 302 350 422
#     4  10  25  42  69  94 148 174 228 288 357 402
#
# _framework density 22.064453
#
# number of rings (size 3 to 8) (size 9 to 14) (size 15 to 20)
#    0.000    0.615    5.385    2.077    4.308    2.462 
#    1.385    0.385    0.000    0.000    0.000    0.000 
#    0.000    0.000    0.000    0.000    0.000    0.000 
#
# Total GULP energy -644713.845507 kJ/mol
# GULP energy per Si atom -12398.343183 kJ/mol
# Density = 2.201423 g / cm^3
# Si number density = 22.064453 Si / 1000 Ang^3
#
#
#
# Elastic Constant Matrix: (Units=GPa)
#
#
# Indices 1 2 3 4 5 6 
#
# 1 77.5187 7.3669 25.7261 0.0000 0.0000 0.0000
# 2 7.3669 73.5821 21.7402 0.0000 0.0000 0.0000
# 3 25.7261 21.7402 117.8370 0.0000 0.0000 0.0000
# 4 0.0000 0.0000 0.0000 15.0292 0.0000 0.0000
# 5 0.0000 0.0000 0.0000 0.0000 35.8436 0.0000
# 6 0.0000 0.0000 0.0000 0.0000 0.0000 35.8743
#
#
#
# Elastic Compliance Matrix: (Units=1/GPa)
#
#
# Indices 1 2 3 4 5 6 
#
# 1 0.013927 -0.000525 -0.002944 0.000000 0.000000 0.000000
# 2 -0.000525 0.014394 -0.002541 0.000000 0.000000 0.000000
# 3 -0.002944 -0.002541 0.009598 0.000000 0.000000 0.000000
# 4 0.000000 0.000000 0.000000 0.066537 0.000000 0.000000
# 5 0.000000 0.000000 0.000000 0.000000 0.027899 0.000000
# 6 0.000000 0.000000 0.000000 0.000000 0.000000 0.027875
#
#
# Mechanical properties :
#
#
# Convention : Reuss Voigt Hill
#
# Bulk Modulus (GPa) = 38.61068 42.06715 40.33891
# Shear Modulus (GPa) = 27.64244 31.62305 29.63275
#
# Velocity S-wave (km/s) = 3.54334 3.78989 3.66868
# Velocity P-wave (km/s) = 5.85469 6.18530 6.02226
#
# Compressibility (1/GPa) = 0.02589957
#
# Stress axis : x y z
#
# Youngs Moduli (GPa) = 71.80349 69.47567 104.19093
#
# Poissons Ratio (x) = 0.03645 0.30671
# Poissons Ratio (y) = 0.03767 0.26475
# Poissons Ratio (z) = 0.21137 0.17654
#
# Static dielectric constant tensor:
#      x y z
#    x 4.131610 0.000000 0.000000 
#    y 0.000000 3.942310 0.000000 
#    z 0.000000 0.000000 3.927910 
# 
# 
# High freq. dielectric constant tensor:
#      x y z
#    x 1.874080 0.000000 0.000000 
#    y 0.000000 1.875660 0.000000 
#    z 0.000000 0.000000 1.870530 
# 
# From -- ./inp_files/51474.got.cif
#   From: 2010.03.12/outbox.cif.g09.slc.cpg/sg68_26_cif.got.tgz:51474.got - 2010.04.10 23:14:56.
