data_PCOD8283763
_publ_section_title
;
Structure prediction by ZEFSAII (Michael W. Deem and Ramdas Pophale) SiO2 
 PCOD8283763
Probable space group: F M M M
;
_chemical_formula_sum "Si O2"
_cell_formula_units_Z 160
_cell_length_a 19.016948
_cell_length_b 25.425955
_cell_length_c 18.654053
_cell_angle_alpha 90.000000
_cell_angle_beta 90.000000
_cell_angle_gamma 90.000000
_cell_volume 9019.683518
_symmetry_space_group_name_H-M "F M M M"
_symmetry_group_IT_number 69
_symmetry_cell_setting 'orthorhombic'
loop_
_space_group_symop_operation_xyz
x,y,z
-x,-y,z
x,-y,-z
-x,y,-z
-x,-y,-z
x,y,-z
-x,y,z
x,-y,z
x,1/2+y,1/2+z
-x,1/2-y,1/2+z
x,1/2-y,1/2-z
-x,1/2+y,1/2-z
-x,1/2-y,1/2-z
x,1/2+y,1/2-z
-x,1/2+y,1/2+z
x,1/2-y,1/2+z
1/2+x,y,1/2+z
1/2-x,-y,1/2+z
1/2+x,-y,1/2-z
1/2-x,y,1/2-z
1/2-x,-y,1/2-z
1/2+x,y,1/2-z
1/2-x,y,1/2+z
1/2+x,-y,1/2+z
1/2+x,1/2+y,z
1/2-x,1/2-y,z
1/2+x,1/2-y,-z
1/2-x,1/2+y,-z
1/2-x,1/2-y,-z
1/2+x,1/2+y,-z
1/2-x,1/2+y,z
1/2+x,1/2-y,z
loop_
_atom_site_type_symbol
_atom_site_label
_atom_site_fract_x
_atom_site_fract_y
_atom_site_fract_z
Si Si1 0.800960 0.701026 0.581756
Si Si2 0.772551 0.500000 0.667520
Si Si3 0.274861 0.889430 0.167323
Si Si4 0.420498 0.209350 0.689854
Si Si5 0.577231 0.000000 0.709765
Si Si6 0.077174 0.389439 0.215083
O O1 0.817040 0.686060 0.500000
O O2 0.750000 0.750000 0.587930
O O3 0.765509 0.652071 0.620087
O O4 0.874118 0.715729 0.619183
O O5 0.750000 0.500000 0.750000
O O6 0.741440 0.553171 0.633238
O O7 0.857402 0.500000 0.655163
O O8 0.250000 0.885457 0.250000
O O9 0.358763 0.878476 0.160594
O O10 0.500000 0.224475 0.668691
O O11 0.392438 0.250000 0.750000
O O12 0.415581 0.149574 0.717490
O O13 0.584639 0.949018 0.759144
O O14 0.500000 0.000000 0.671205
O O15 0.000000 0.380790 0.178573
#
# Coordination Sequence:
#
# PCOD8283763 Si02
#       6
#    32  16  32  32  16  32
#     4  11  24  37  52  77 106 137 176 217 263 319
#     4  10  16  28  47  78 103 132 173 216 263 308
#     4  11  18  32  55  76 103 139 172 218 261 307
#     4  10  20  34  54  79 103 134 176 215 257 313
#     4  10  16  24  40  70 110 132 156 212 266 302
#     4  10  18  28  47  78 104 130 170 212 258 305
#
# _framework density 17.738982
#
# number of rings (size 3 to 8) (size 9 to 14) (size 15 to 20)
#    0.000    1.600    6.000    1.200    0.000    0.400 
#    0.000    0.500    0.000    1.800    0.000    0.000 
#    0.000   15.200    0.000    0.000    0.000    0.000 
#
# Total GULP energy -495815.941497 kJ/mol
# GULP energy per Si atom -12395.398537 kJ/mol
# Density = 1.769861 g / cm^3
# Si number density = 17.738982 Si / 1000 Ang^3
#
#
#
# Elastic Constant Matrix: (Units=GPa)
#
#
# Indices 1 2 3 4 5 6 
#
# 1 152.0671 19.7576 51.4718 0.0000 0.0000 0.0000
# 2 19.7576 104.1448 49.6676 0.0000 0.0000 0.0000
# 3 51.4718 49.6676 84.7332 0.0000 0.0000 0.0000
# 4 0.0000 0.0000 0.0000 2.2054 0.0000 0.0000
# 5 0.0000 0.0000 0.0000 0.0000 14.3228 0.0000
# 6 0.0000 0.0000 0.0000 0.0000 0.0000 24.8119
#
#
#
# Elastic Compliance Matrix: (Units=1/GPa)
#
#
# Indices 1 2 3 4 5 6 
#
# 1 0.008378 0.001163 -0.005771 0.000000 0.000000 0.000000
# 2 0.001163 0.013489 -0.008613 0.000000 0.000000 0.000000
# 3 -0.005771 -0.008613 0.020356 0.000000 0.000000 0.000000
# 4 0.000000 0.000000 0.000000 0.453434 0.000000 0.000000
# 5 0.000000 0.000000 0.000000 0.000000 0.069819 0.000000
# 6 0.000000 0.000000 0.000000 0.000000 0.000000 0.040303
#
#
# Mechanical properties :
#
#
# Convention : Reuss Voigt Hill
#
# Bulk Modulus (GPa) = 63.36854 64.74881 64.05868
# Shear Modulus (GPa) = 7.84334 22.93787 15.39061
#
# Velocity S-wave (km/s) = 2.10502 3.59984 2.94873
# Velocity P-wave (km/s) = 6.45821 7.33884 6.91256
#
# Compressibility (1/GPa) = 0.01578070
#
# Stress axis : x y z
#
# Youngs Moduli (GPa) = 119.35485 74.13374 49.12506
#
# Poissons Ratio (x) = -0.08620 0.28351
# Poissons Ratio (y) = -0.13879 0.42312
# Poissons Ratio (z) = 0.68881 0.63853
#
# Static dielectric constant tensor:
#      x y z
#    x 3.860350 0.000000 0.000000 
#    y 0.000000 2.325030 0.000000 
#    z 0.000000 0.000000 2.803720 
# 
# 
# High freq. dielectric constant tensor:
#      x y z
#    x 1.713060 0.000000 0.000000 
#    y 0.000000 1.714080 0.000000 
#    z 0.000000 0.000000 1.606760 
# 
# From -- ./inp_files/24934.got.cif
#   From: 2010.03.12/outbox.cif.g09.slc.cpg/sg69_13_cif.got.tgz:24934.got - 2010.04.10 23:52:46.
