data_PCOD8283789
_publ_section_title
;
Structure prediction by ZEFSAII (Michael W. Deem and Ramdas Pophale) SiO2 
 PCOD8283789
Probable space group: F M M M
;
_chemical_formula_sum "Si O2"
_cell_formula_units_Z 112
_cell_length_a 28.076083
_cell_length_b 8.608648
_cell_length_c 30.983877
_cell_angle_alpha 90.000000
_cell_angle_beta 90.000000
_cell_angle_gamma 90.000000
_cell_volume 7488.713706
_symmetry_space_group_name_H-M "F M M M"
_symmetry_group_IT_number 69
_symmetry_cell_setting 'orthorhombic'
loop_
_space_group_symop_operation_xyz
x,y,z
-x,-y,z
x,-y,-z
-x,y,-z
-x,-y,-z
x,y,-z
-x,y,z
x,-y,z
x,1/2+y,1/2+z
-x,1/2-y,1/2+z
x,1/2-y,1/2-z
-x,1/2+y,1/2-z
-x,1/2-y,1/2-z
x,1/2+y,1/2-z
-x,1/2+y,1/2+z
x,1/2-y,1/2+z
1/2+x,y,1/2+z
1/2-x,-y,1/2+z
1/2+x,-y,1/2-z
1/2-x,y,1/2-z
1/2-x,-y,1/2-z
1/2+x,y,1/2-z
1/2-x,y,1/2+z
1/2+x,-y,1/2+z
1/2+x,1/2+y,z
1/2-x,1/2-y,z
1/2+x,1/2-y,-z
1/2-x,1/2+y,-z
1/2-x,1/2-y,-z
1/2+x,1/2+y,-z
1/2-x,1/2+y,z
1/2+x,1/2-y,z
loop_
_atom_site_type_symbol
_atom_site_label
_atom_site_fract_x
_atom_site_fract_y
_atom_site_fract_z
Si Si1 0.945765 0.315738 0.000000
Si Si2 0.196937 0.316243 0.293107
Si Si3 0.197924 0.681998 0.880454
Si Si4 0.865792 0.675765 0.452206
O O1 0.919197 0.247371 0.957284
O O2 0.942256 0.500000 0.000000
O O3 0.000000 0.257651 0.000000
O O4 0.196895 0.500000 0.291460
O O5 0.170705 0.250000 0.250000
O O6 0.250000 0.250000 0.293776
O O7 0.173294 0.256407 0.337588
O O8 0.202959 0.500000 0.873503
O O9 0.250000 0.750000 0.889742
O O10 0.164489 0.717080 0.920773
O O11 0.841543 0.677740 0.500000
O O12 0.868610 0.500000 0.434219
#
# Coordination Sequence:
#
# PCOD8283789 Si02
#       4
#    16  32  32  32
#     4   9  17  31  50  69  88 111 139 175 219 261
#     4  10  17  27  41  58  81 109 147 184 220 255
#     4  11  20  30  44  61  87 119 152 184 220 257
#     4   9  19  32  46  64  88 115 147 181 216 257
#
# _framework density 14.95584
#
# number of rings (size 3 to 8) (size 9 to 14) (size 15 to 20)
#    0.857    1.286    0.000    8.571    0.000    1.714 
#    0.000    0.000    0.000    0.000    0.000    0.000 
#    0.000    1.143    0.000    4.286    0.000    7.143 
#
# Total GULP energy -346937.801976 kJ/mol
# GULP energy per Si atom -12390.635785 kJ/mol
# Density = 1.492180 g / cm^3
# Si number density = 14.955840 Si / 1000 Ang^3
#
#
#
# Elastic Constant Matrix: (Units=GPa)
#
#
# Indices 1 2 3 4 5 6 
#
# 1 63.6598 27.6292 39.5901 0.0001 0.0000 -0.0001
# 2 27.6292 134.2908 39.7593 0.0001 0.0000 0.0001
# 3 39.5901 39.7593 95.9185 0.0000 0.0000 0.0000
# 4 0.0001 0.0001 0.0000 31.9458 0.0000 -0.0001
# 5 0.0000 0.0000 0.0000 0.0000 -0.8425 0.0000
# 6 -0.0001 0.0001 0.0000 -0.0001 0.0000 18.7294
#
#
#
# Elastic Compliance Matrix: (Units=1/GPa)
#
#
# Indices 1 2 3 4 5 6 
#
# 1 0.021621 -0.002059 -0.008071 0.000000 0.000000 0.000000
# 2 -0.002059 0.008684 -0.002750 0.000000 0.000000 0.000000
# 3 -0.008071 -0.002750 0.014897 0.000000 0.000000 0.000000
# 4 0.000000 0.000000 0.000000 0.031303 0.000000 0.000000
# 5 0.000000 0.000000 0.000000 0.000000 -1.186919 0.000002
# 6 0.000000 0.000000 0.000000 0.000000 0.000002 0.053392
#
#
# Mechanical properties :
#
#
# Convention : Reuss Voigt Hill
#
# Bulk Modulus (GPa) = 51.43223 56.42516 53.92869
# Shear Modulus (GPa) = -4.87909 22.42589 8.77340
#
# Velocity S-wave (km/s) = -1.80815 3.87651 2.42465
# Velocity P-wave (km/s) = 5.48679 7.60566 6.63140
#
# Compressibility (1/GPa) = 0.01944306
#
# Stress axis : x y z
#
# Youngs Moduli (GPa) = 46.25072 115.15037 67.12962
#
# Poissons Ratio (x) = 0.23709 0.54178
# Poissons Ratio (y) = 0.09523 0.18460
# Poissons Ratio (z) = 0.37328 0.31665
#
# Static dielectric constant tensor:
#      x y z
#    x 2.463120 0.000000 0.000000 
#    y 0.000000 2.999120 0.000000 
#    z 0.000000 0.000000 3.465770 
# 
# 
# High freq. dielectric constant tensor:
#      x y z
#    x 1.508800 0.000000 0.000000 
#    y 0.000000 1.599540 0.000000 
#    z 0.000000 0.000000 1.577310 
# 
# From -- ./inp_files/47330.got.cif
#   From: 2010.03.12/outbox.cif.g09.slc.cpg/sg69_24_cif.got.tgz:47330.got - 2010.04.10 23:52:46.
