data_PCOD8283461
_publ_section_title
;
Structure prediction by ZEFSAII (Michael W. Deem and Ramdas Pophale) SiO2 
 PCOD8283461
Probable space group: C C C A
;
_chemical_formula_sum "Si O2"
_cell_formula_units_Z 116
_cell_length_a 22.176721
_cell_length_b 8.649228
_cell_length_c 29.084799
_cell_angle_alpha 90.000000
_cell_angle_beta 90.000000
_cell_angle_gamma 90.000000
_cell_volume 5578.799395
_symmetry_space_group_name_H-M "C C C A"
_symmetry_group_IT_number 68
_space_group.IT_coordinate_system_code '2'
_symmetry_cell_setting 'orthorhombic'
loop_
_space_group_symop_operation_xyz
x,y,z
-x,1/2-y,z
x,1/2-y,1/2-z
-x,y,1/2-z
-x,-y,-z
x,1/2+y,-z
-x,1/2+y,1/2+z
x,-y,1/2+z
1/2+x,1/2+y,z
1/2-x,-y,z
1/2+x,-y,1/2-z
1/2-x,1/2+y,1/2-z
1/2-x,1/2-y,-z
1/2+x,y,-z
1/2-x,y,1/2+z
1/2+x,1/2-y,1/2+z
loop_
_atom_site_type_symbol
_atom_site_label
_atom_site_fract_x
_atom_site_fract_y
_atom_site_fract_z
Si Si1 0.822213 0.991464 0.530708
Si Si2 0.646366 0.204606 0.616282
Si Si3 0.500000 0.250000 0.750000
Si Si4 0.147615 0.329768 0.939103
Si Si5 0.572204 0.009292 0.370111
Si Si6 0.732080 0.666676 0.643095
Si Si7 0.380779 0.737632 0.802806
Si Si8 0.948334 0.532745 0.826914
O O1 0.852043 0.153350 0.544540
O O2 0.750000 0.000000 0.529764
O O3 0.844084 0.859541 0.565368
O O4 0.848649 0.947037 0.481377
O O5 0.610485 0.363948 0.613343
O O6 0.710362 0.224278 0.640766
O O7 0.611371 0.085019 0.647611
O O8 0.459419 0.141367 0.782635
O O9 0.086033 0.360454 0.909201
O O10 0.205497 0.365513 0.907538
O O11 0.593984 0.070999 0.319878
O O12 0.502720 0.962819 0.364012
O O13 0.750000 0.500000 0.665072
O O14 0.682961 0.763628 0.671936
O O15 0.365163 0.750000 0.750000
O O16 0.434487 0.858322 0.812398
#
# Coordination Sequence:
#
# PCOD8283461 Si02
#       8
#    16  16   4  16  16  16  16  16
#     4  12  24  37  67 109 142 183 235 285 340 432
#     4  12  23  42  67  97 140 175 229 282 350 412
#     4  12  24  48  70 104 128 176 254 292 338 416
#     4  11  23  40  67 104 140 182 231 284 346 403
#     4  11  23  46  68  95 135 185 228 292 344 409
#     4  11  22  43  68  97 142 182 218 285 355 414
#     4  11  25  43  68  99 134 178 232 285 354 422
#     4  12  26  44  71  99 130 181 235 289 347 409
#
# _framework density 20.793002999999999
#
# number of rings (size 3 to 8) (size 9 to 14) (size 15 to 20)
#    0.000    0.552    5.517    4.552    0.000    0.552 
#    3.724    0.690    0.000    3.310    0.000    0.000 
#    0.000    0.000    0.000    0.000    0.000    0.000 
#
# Total GULP energy -719190.029646 kJ/mol
# GULP energy per Si atom -12399.828097 kJ/mol
# Density = 2.074568 g / cm^3
# Si number density = 20.793003 Si / 1000 Ang^3
#
#
#
# Elastic Constant Matrix: (Units=GPa)
#
#
# Indices 1 2 3 4 5 6 
#
# 1 119.1535 36.9279 50.4137 0.0000 0.0000 0.0000
# 2 36.9279 108.8950 43.6763 0.0000 0.0000 0.0000
# 3 50.4137 43.6763 128.5349 0.0000 0.0000 0.0000
# 4 0.0000 0.0000 0.0000 29.4425 0.0000 0.0000
# 5 0.0000 0.0000 0.0000 0.0000 13.9989 0.0000
# 6 0.0000 0.0000 0.0000 0.0000 0.0000 41.4833
#
#
#
# Elastic Compliance Matrix: (Units=1/GPa)
#
#
# Indices 1 2 3 4 5 6 
#
# 1 0.010503 -0.002211 -0.003368 0.000000 0.000000 0.000000
# 2 -0.002211 0.011098 -0.002904 0.000000 0.000000 0.000000
# 3 -0.003368 -0.002904 0.010088 0.000000 0.000000 0.000000
# 4 0.000000 0.000000 0.000000 0.033965 0.000000 0.000000
# 5 0.000000 0.000000 0.000000 0.000000 0.071434 0.000000
# 6 0.000000 0.000000 0.000000 0.000000 0.000000 0.024106
#
#
# Mechanical properties :
#
#
# Convention : Reuss Voigt Hill
#
# Bulk Modulus (GPa) = 67.92294 68.73548 68.32921
# Shear Modulus (GPa) = 27.31259 32.02264 29.66762
#
# Velocity S-wave (km/s) = 3.62822 3.92863 3.78141
# Velocity P-wave (km/s) = 7.09148 7.32855 7.21099
#
# Compressibility (1/GPa) = 0.01472257
#
# Stress axis : x y z
#
# Youngs Moduli (GPa) = 95.21321 90.11004 99.12978
#
# Poissons Ratio (x) = 0.19921 0.33389
# Poissons Ratio (y) = 0.21049 0.28786
# Poissons Ratio (z) = 0.32069 0.26167
#
# Static dielectric constant tensor:
#      x y z
#    x 3.824020 0.000000 0.000000 
#    y 0.000000 3.982110 0.000000 
#    z 0.000000 0.000000 3.827900 
# 
# 
# High freq. dielectric constant tensor:
#      x y z
#    x 1.810320 0.000000 0.000000 
#    y 0.000000 1.828880 0.000000 
#    z 0.000000 0.000000 1.809130 
# 
# From -- ./inp_files/52213.got.cif
#   From: 2010.03.12/outbox.cif.g09.slc.cpg/sg68_27_cif.got.tgz:52213.got - 2010.04.10 23:14:56.
