data_PCOD8283194
_publ_section_title
;
Structure prediction by ZEFSAII (Michael W. Deem and Ramdas Pophale) SiO2 
 PCOD8283194
Probable space group: C C C A
;
_chemical_formula_sum "Si O2"
_cell_formula_units_Z 100
_cell_length_a 19.152848
_cell_length_b 27.047392
_cell_length_c 9.934919
_cell_angle_alpha 90.000000
_cell_angle_beta 90.000000
_cell_angle_gamma 90.000000
_cell_volume 5146.631669
_symmetry_space_group_name_H-M "C C C A"
_symmetry_group_IT_number 68
_space_group.IT_coordinate_system_code '2'
_symmetry_cell_setting 'orthorhombic'
loop_
_space_group_symop_operation_xyz
x,y,z
-x,1/2-y,z
x,1/2-y,1/2-z
-x,y,1/2-z
-x,-y,-z
x,1/2+y,-z
-x,1/2+y,1/2+z
x,-y,1/2+z
1/2+x,1/2+y,z
1/2-x,-y,z
1/2+x,-y,1/2-z
1/2-x,1/2+y,1/2-z
1/2-x,1/2-y,-z
1/2+x,y,-z
1/2-x,y,1/2+z
1/2+x,1/2-y,1/2+z
loop_
_atom_site_type_symbol
_atom_site_label
_atom_site_fract_x
_atom_site_fract_y
_atom_site_fract_z
Si Si1 0.791393 0.686869 0.879633
Si Si2 0.597449 0.615447 0.498779
Si Si3 0.000000 0.250000 0.750000
Si Si4 0.047101 0.168911 0.952613
Si Si5 0.824071 0.202729 0.416549
Si Si6 0.547011 0.982667 0.123934
Si Si7 0.918527 0.581030 0.282251
O O1 0.838491 0.643130 0.933770
O O2 0.785326 0.682820 0.717566
O O3 0.826964 0.738251 0.919711
O O4 0.715836 0.682941 0.950383
O O5 0.529751 0.651604 0.502012
O O6 0.587405 0.567052 0.409607
O O7 0.621034 0.597363 0.647110
O O8 0.045690 0.213892 0.844751
O O9 0.090846 0.123249 0.892434
O O10 0.094679 0.185731 0.078821
O O11 0.500000 0.968669 0.250000
O O12 0.602675 0.026743 0.160912
O O13 0.500000 0.000000 0.000000
O O14 0.000000 0.575669 0.250000
#
# Coordination Sequence:
#
# PCOD8283194 Si02
#       7
#    16  16   4  16  16  16  16
#     4  10  24  42  61  85 118 161 202 246 295 369
#     4  11  21  37  60  94 120 151 204 253 301 360
#     4  12  20  32  56  94 128 164 196 260 304 358
#     4  11  21  33  58  90 122 157 198 245 307 358
#     4  10  24  42  59  86 121 161 201 240 303 363
#     4  11  19  34  56  86 124 158 191 248 305 359
#     4   9  18  34  52  88 119 151 194 239 294 362
#
# _framework density 19.430184000000001
#
# number of rings (size 3 to 8) (size 9 to 14) (size 15 to 20)
#    0.000    1.600    7.200    0.960    4.480    1.280 
#    0.000    1.600    0.000    0.960    0.000    0.000 
#    0.000    0.000    0.000    0.000    0.000    0.000 
#
# Total GULP energy -619731.020966 kJ/mol
# GULP energy per Si atom -12394.620419 kJ/mol
# Density = 1.938596 g / cm^3
# Si number density = 19.430184 Si / 1000 Ang^3
#
#
#
# Elastic Constant Matrix: (Units=GPa)
#
#
# Indices 1 2 3 4 5 6 
#
# 1 41.3578 29.4155 16.8925 0.0000 0.0000 0.0000
# 2 29.4155 118.9186 21.9110 0.0000 0.0000 0.0000
# 3 16.8925 21.9110 84.1921 0.0000 0.0000 0.0000
# 4 0.0000 0.0000 0.0000 36.6270 0.0000 0.0000
# 5 0.0000 0.0000 0.0000 0.0000 28.7853 0.0000
# 6 0.0000 0.0000 0.0000 0.0000 0.0000 25.9073
#
#
#
# Elastic Compliance Matrix: (Units=1/GPa)
#
#
# Indices 1 2 3 4 5 6 
#
# 1 0.030827 -0.006812 -0.004412 0.000000 0.000000 0.000000
# 2 -0.006812 0.010338 -0.001324 0.000000 0.000000 0.000000
# 3 -0.004412 -0.001324 0.013107 0.000000 0.000000 0.000000
# 4 0.000000 0.000000 0.000000 0.027302 0.000000 0.000000
# 5 0.000000 0.000000 0.000000 0.000000 0.034740 0.000000
# 6 0.000000 0.000000 0.000000 0.000000 0.000000 0.038599
#
#
# Mechanical properties :
#
#
# Convention : Reuss Voigt Hill
#
# Bulk Modulus (GPa) = 34.27505 42.32293 38.29899
# Shear Modulus (GPa) = 26.35258 30.01390 28.18324
#
# Velocity S-wave (km/s) = 3.68675 3.93454 3.81266
# Velocity P-wave (km/s) = 5.98342 6.51691 6.25585
#
# Compressibility (1/GPa) = 0.02917574
#
# Stress axis : x y z
#
# Youngs Moduli (GPa) = 32.43960 96.72999 76.29302
#
# Poissons Ratio (x) = 0.65895 0.33662
# Poissons Ratio (y) = 0.22099 0.10099
# Poissons Ratio (z) = 0.14313 0.12804
#
# Static dielectric constant tensor:
#      x y z
#    x 3.085080 0.000000 0.000000 
#    y 0.000000 4.094760 0.000000 
#    z 0.000000 0.000000 3.805820 
# 
# 
# High freq. dielectric constant tensor:
#      x y z
#    x 1.703770 0.000000 0.000000 
#    y 0.000000 1.772990 0.000000 
#    z 0.000000 0.000000 1.765740 
# 
# From -- ./inp_files/7482.got.cif
#   From: 2010.03.12/outbox.cif.g09.slc.cpg/sg68_4_cif.got.tgz:7482.got - 2010.04.10 23:14:56.
