data_PCOD8283670
_publ_section_title
;
Structure prediction by ZEFSAII (Michael W. Deem and Ramdas Pophale) SiO2 
 PCOD8283670
Probable space group: C C C A
;
_chemical_formula_sum "Si O2"
_cell_formula_units_Z 72
_cell_length_a 20.209196
_cell_length_b 8.655444
_cell_length_c 18.701620
_cell_angle_alpha 90.000000
_cell_angle_beta 90.000000
_cell_angle_gamma 90.000000
_cell_volume 3271.279221
_symmetry_space_group_name_H-M "C C C A"
_symmetry_group_IT_number 68
_space_group.IT_coordinate_system_code '2'
_symmetry_cell_setting 'orthorhombic'
loop_
_space_group_symop_operation_xyz
x,y,z
-x,1/2-y,z
x,1/2-y,1/2-z
-x,y,1/2-z
-x,-y,-z
x,1/2+y,-z
-x,1/2+y,1/2+z
x,-y,1/2+z
1/2+x,1/2+y,z
1/2-x,-y,z
1/2+x,-y,1/2-z
1/2-x,1/2+y,1/2-z
1/2-x,1/2-y,-z
1/2+x,y,-z
1/2-x,y,1/2+z
1/2+x,1/2-y,1/2+z
loop_
_atom_site_type_symbol
_atom_site_label
_atom_site_fract_x
_atom_site_fract_y
_atom_site_fract_z
Si Si1 0.500000 0.750000 0.139097
Si Si2 0.076206 0.780290 0.071611
Si Si3 0.183887 0.097146 0.296222
Si Si4 0.108741 0.935546 0.931053
Si Si5 0.934548 0.519416 0.210410
O O1 0.464366 0.619436 0.092547
O O2 0.553586 0.658028 0.186100
O O3 0.114407 0.619053 0.074915
O O4 0.083980 0.866969 0.146474
O O5 0.000000 0.750000 0.050503
O O6 0.115764 0.881366 0.012817
O O7 0.194596 0.250000 0.250000
O O8 0.164660 0.137534 0.378785
O O9 0.250000 0.000000 0.293992
O O10 0.125414 0.987631 0.265989
O O11 0.000000 0.584132 0.250000
#
# Coordination Sequence:
#
# PCOD8283670 Si02
#       5
#     8  16  16  16  16
#     4  12  19  42  70 102 135 176 228 296 349 408
#     4  12  24  40  68 109 147 182 230 298 357 421
#     4  12  28  48  72 102 142 186 238 294 360 427
#     4  12  25  43  69 102 144 185 235 289 361 419
#     4  12  23  43  73 107 141 181 235 298 356 416
#
# _framework density 22.009739
#
# number of rings (size 3 to 8) (size 9 to 14) (size 15 to 20)
#    0.000    0.000    7.778    2.333    3.111    2.222 
#    0.000    2.222    0.000    0.000    0.000    0.000 
#    0.000    0.000    0.000    0.000    0.000    0.000 
#
# Total GULP energy -446510.221143 kJ/mol
# GULP energy per Si atom -12403.061698 kJ/mol
# Density = 2.195964 g / cm^3
# Si number density = 22.009739 Si / 1000 Ang^3
#
#
#
# Elastic Constant Matrix: (Units=GPa)
#
#
# Indices 1 2 3 4 5 6 
#
# 1 105.9015 16.2998 39.6922 0.0000 0.0000 0.0000
# 2 16.2998 121.1482 54.5519 0.0000 0.0000 0.0000
# 3 39.6922 54.5519 152.7493 0.0000 0.0000 0.0000
# 4 0.0000 0.0000 0.0000 39.6058 0.0000 0.0000
# 5 0.0000 0.0000 0.0000 0.0000 13.8865 0.0000
# 6 0.0000 0.0000 0.0000 0.0000 0.0000 24.8903
#
#
#
# Elastic Compliance Matrix: (Units=1/GPa)
#
#
# Indices 1 2 3 4 5 6 
#
# 1 0.010466 -0.000219 -0.002642 0.000000 0.000000 0.000000
# 2 -0.000219 0.009841 -0.003458 0.000000 0.000000 0.000000
# 3 -0.002642 -0.003458 0.008468 0.000000 0.000000 0.000000
# 4 0.000000 0.000000 0.000000 0.025249 0.000000 0.000000
# 5 0.000000 0.000000 0.000000 0.000000 0.072012 0.000000
# 6 0.000000 0.000000 0.000000 0.000000 0.000000 0.040176
#
#
# Mechanical properties :
#
#
# Convention : Reuss Voigt Hill
#
# Bulk Modulus (GPa) = 61.96082 66.76521 64.36302
# Shear Modulus (GPa) = 27.14026 33.62685 30.38356
#
# Velocity S-wave (km/s) = 3.51537 3.91297 3.71948
# Velocity P-wave (km/s) = 6.68504 7.12849 6.91032
#
# Compressibility (1/GPa) = 0.01613923
#
# Stress axis : x y z
#
# Youngs Moduli (GPa) = 95.54304 101.61864 118.09249
#
# Poissons Ratio (x) = 0.02222 0.31196
# Poissons Ratio (y) = 0.02090 0.40832
# Poissons Ratio (z) = 0.25239 0.35136
#
# Static dielectric constant tensor:
#      x y z
#    x 3.619860 0.000000 0.000000 
#    y 0.000000 4.008960 0.000000 
#    z 0.000000 0.000000 4.220110 
# 
# 
# High freq. dielectric constant tensor:
#      x y z
#    x 1.820920 0.000000 0.000000 
#    y 0.000000 1.877790 0.000000 
#    z 0.000000 0.000000 1.884810 
# 
# From -- ./inp_files/40107.got.cif
#   From: 2010.03.12/outbox.cif.g09.slc.cpg/sg68_21_cif.got.tgz:40107.got - 2010.04.10 23:14:56.
