data_PCOD8283538
_publ_section_title
;
Structure prediction by ZEFSAII (Michael W. Deem and Ramdas Pophale) SiO2 
 PCOD8283538
Probable space group: C C C A
;
_chemical_formula_sum "Si O2"
_cell_formula_units_Z 64
_cell_length_a 18.467967
_cell_length_b 18.876750
_cell_length_c 7.985630
_cell_angle_alpha 90.000000
_cell_angle_beta 90.000000
_cell_angle_gamma 90.000000
_cell_volume 2783.911968
_symmetry_space_group_name_H-M "C C C A"
_symmetry_group_IT_number 68
_space_group.IT_coordinate_system_code '2'
_symmetry_cell_setting 'orthorhombic'
loop_
_space_group_symop_operation_xyz
x,y,z
-x,1/2-y,z
x,1/2-y,1/2-z
-x,y,1/2-z
-x,-y,-z
x,1/2+y,-z
-x,1/2+y,1/2+z
x,-y,1/2+z
1/2+x,1/2+y,z
1/2-x,-y,z
1/2+x,-y,1/2-z
1/2-x,1/2+y,1/2-z
1/2-x,1/2-y,-z
1/2+x,y,-z
1/2-x,y,1/2+z
1/2+x,1/2-y,1/2+z
loop_
_atom_site_type_symbol
_atom_site_label
_atom_site_fract_x
_atom_site_fract_y
_atom_site_fract_z
Si Si1 0.306487 0.590995 0.575970
Si Si2 0.400933 0.282624 0.068024
Si Si3 0.964495 0.348422 0.429988
Si Si4 0.655909 0.554884 0.548160
O O1 0.333056 0.668206 0.515049
O O2 0.333048 0.580146 0.764085
O O3 0.341950 0.530475 0.458161
O O4 0.219662 0.587088 0.568113
O O5 0.388416 0.250000 0.250000
O O6 0.472794 0.332159 0.066074
O O7 0.409410 0.218939 0.933407
O O8 0.921423 0.419123 0.479789
O O9 0.000000 0.358502 0.250000
#
# Coordination Sequence:
#
# PCOD8283538 Si02
#       4
#    16  16  16  16
#     4  11  25  45  73  97 139 178 230 283 337 405
#     4  11  23  46  67  97 138 180 218 282 339 401
#     4  11  25  44  69 100 139 176 225 280 336 408
#     4  11  25  46  70 102 134 180 228 283 339 402
#
# _framework density 22.989232000000001
#
# number of rings (size 3 to 8) (size 9 to 14) (size 15 to 20)
#    0.000    1.000    2.500    6.000    7.000    2.000 
#    0.000    0.000    0.000    0.000    0.000    0.000 
#    0.000    0.000    0.000    0.000    0.000    0.000 
#
# Total GULP energy -396828.129053 kJ/mol
# GULP energy per Si atom -12400.879033 kJ/mol
# Density = 2.293691 g / cm^3
# Si number density = 22.989232 Si / 1000 Ang^3
#
#
#
# Elastic Constant Matrix: (Units=GPa)
#
#
# Indices 1 2 3 4 5 6 
#
# 1 45.1175 23.6382 -10.7448 0.0000 0.0000 0.0000
# 2 23.6382 65.7850 -11.8286 0.0000 0.0000 0.0000
# 3 -10.7448 -11.8286 48.0837 0.0000 0.0000 0.0000
# 4 0.0000 0.0000 0.0000 31.4680 0.0000 0.0000
# 5 0.0000 0.0000 0.0000 0.0000 33.9822 0.0000
# 6 0.0000 0.0000 0.0000 0.0000 0.0000 57.3609
#
#
#
# Elastic Compliance Matrix: (Units=1/GPa)
#
#
# Indices 1 2 3 4 5 6 
#
# 1 0.028007 -0.009352 0.003958 0.000000 0.000000 0.000000
# 2 -0.009352 0.019027 0.002591 0.000000 0.000000 0.000000
# 3 0.003958 0.002591 0.022319 0.000000 0.000000 0.000000
# 4 0.000000 0.000000 0.000000 0.031778 0.000000 0.000000
# 5 0.000000 0.000000 0.000000 0.000000 0.029427 0.000000
# 6 0.000000 0.000000 0.000000 0.000000 0.000000 0.017433
#
#
# Mechanical properties :
#
#
# Convention : Reuss Voigt Hill
#
# Bulk Modulus (GPa) = 15.68715 17.90177 16.79446
# Shear Modulus (GPa) = 28.59649 35.09032 31.84340
#
# Velocity S-wave (km/s) = 3.53073 3.91113 3.72579
# Velocity P-wave (km/s) = 4.84355 5.31035 5.08231
#
# Compressibility (1/GPa) = 0.06374644
#
# Stress axis : x y z
#
# Youngs Moduli (GPa) = 35.70591 52.55615 44.80522
#
# Poissons Ratio (x) = 0.49150 -0.17733
# Poissons Ratio (y) = 0.33392 -0.11609
# Poissons Ratio (z) = -0.14132 -0.13617
#
# Static dielectric constant tensor:
#      x y z
#    x 4.225690 0.000000 0.000000 
#    y 0.000000 4.527690 0.000000 
#    z 0.000000 0.000000 4.014710 
# 
# 
# High freq. dielectric constant tensor:
#      x y z
#    x 1.897350 0.000000 0.000000 
#    y 0.000000 1.908920 0.000000 
#    z 0.000000 0.000000 1.905040 
# 
# From -- ./inp_files/5830.got.cif
#   From: 2010.03.12/outbox.cif.g09.slc.cpg/sg68_3_cif.got.tgz:5830.got - 2010.04.10 23:14:56.
