data_PCOD8283278
_publ_section_title
;
Structure prediction by ZEFSAII (Michael W. Deem and Ramdas Pophale) SiO2 
 PCOD8283278
Probable space group: C C C A
;
_chemical_formula_sum "Si O2"
_cell_formula_units_Z 72
_cell_length_a 26.976279
_cell_length_b 20.097343
_cell_length_c 5.231533
_cell_angle_alpha 90.000000
_cell_angle_beta 90.000000
_cell_angle_gamma 90.000000
_cell_volume 2836.283630
_symmetry_space_group_name_H-M "C C C A"
_symmetry_group_IT_number 68
_space_group.IT_coordinate_system_code '2'
_symmetry_cell_setting 'orthorhombic'
loop_
_space_group_symop_operation_xyz
x,y,z
-x,1/2-y,z
x,1/2-y,1/2-z
-x,y,1/2-z
-x,-y,-z
x,1/2+y,-z
-x,1/2+y,1/2+z
x,-y,1/2+z
1/2+x,1/2+y,z
1/2-x,-y,z
1/2+x,-y,1/2-z
1/2-x,1/2+y,1/2-z
1/2-x,1/2-y,-z
1/2+x,y,-z
1/2-x,y,1/2+z
1/2+x,1/2-y,1/2+z
loop_
_atom_site_type_symbol
_atom_site_label
_atom_site_fract_x
_atom_site_fract_y
_atom_site_fract_z
Si Si1 0.000000 0.545559 0.750000
Si Si2 0.589855 0.250000 0.750000
Si Si3 0.283847 0.750000 0.750000
Si Si4 0.951252 0.856421 0.425064
Si Si5 0.729047 0.425928 0.575379
Si Si6 0.140901 0.644999 0.089820
O O1 0.000000 0.500000 0.500000
O O2 0.045080 0.596317 0.679766
O O3 0.555920 0.219467 0.522842
O O4 0.623467 0.309120 0.644037
O O5 0.250000 0.750000 0.500000
O O6 0.320292 0.813749 0.739673
O O7 0.904697 0.881087 0.258926
O O8 0.000000 0.862087 0.250000
O O9 0.750000 0.500000 0.619957
O O10 0.741471 0.389401 0.843170
O O11 0.670007 0.419858 0.523007
#
# Coordination Sequence:
#
# PCOD8283278 Si02
#       6
#     8   8   8  16  16  16
#     4  12  28  57  82 117 160 226 282 344 418 494
#     4  12  27  47  81 130 174 215 286 351 445 506
#     4  12  25  44  72 108 163 211 268 341 428 516
#     4  12  28  53  83 123 172 220 283 358 423 518
#     4  10  24  49  76 111 156 211 278 340 413 497
#     4  12  26  46  76 121 164 218 277 347 437 512
#
# _framework density 25.385332999999999
#
# number of rings (size 3 to 8) (size 9 to 14) (size 15 to 20)
#    0.000    0.444    3.333    3.333    3.111    6.667 
#    8.000    0.000    0.000    0.000    0.000    0.000 
#    0.000    0.000    0.000    0.000    0.000    0.000 
#
# Total GULP energy -446025.974882 kJ/mol
# GULP energy per Si atom -12389.610413 kJ/mol
# Density = 2.532756 g / cm^3
# Si number density = 25.385333 Si / 1000 Ang^3
#
#
#
# Elastic Constant Matrix: (Units=GPa)
#
#
# Indices 1 2 3 4 5 6 
#
# 1 154.7094 54.5897 51.9053 0.0000 0.0000 0.0000
# 2 54.5897 96.6180 24.8935 0.0000 0.0000 0.0000
# 3 51.9053 24.8935 167.2498 0.0000 0.0000 0.0000
# 4 0.0000 0.0000 0.0000 48.8879 0.0000 0.0000
# 5 0.0000 0.0000 0.0000 0.0000 44.0982 0.0000
# 6 0.0000 0.0000 0.0000 0.0000 0.0000 48.8008
#
#
#
# Elastic Compliance Matrix: (Units=1/GPa)
#
#
# Indices 1 2 3 4 5 6 
#
# 1 0.008698 -0.004387 -0.002047 0.000000 0.000000 0.000000
# 2 -0.004387 0.012976 -0.000570 0.000000 0.000000 0.000000
# 3 -0.002047 -0.000570 0.006699 0.000000 0.000000 0.000000
# 4 0.000000 0.000000 0.000000 0.020455 0.000000 0.000000
# 5 0.000000 0.000000 0.000000 0.000000 0.022677 0.000000
# 6 0.000000 0.000000 0.000000 0.000000 0.000000 0.020491
#
#
# Mechanical properties :
#
#
# Convention : Reuss Voigt Hill
#
# Bulk Modulus (GPa) = 69.60892 75.70601 72.65746
# Shear Modulus (GPa) = 45.12957 47.50328 46.31643
#
# Velocity S-wave (km/s) = 4.22095 4.33053 4.27609
# Velocity P-wave (km/s) = 7.15791 7.40892 7.28450
#
# Compressibility (1/GPa) = 0.01436597
#
# Stress axis : x y z
#
# Youngs Moduli (GPa) = 114.96313 77.06704 149.27597
#
# Poissons Ratio (x) = 0.33812 0.30549
# Poissons Ratio (y) = 0.50439 0.08504
# Poissons Ratio (z) = 0.23527 0.04391
#
# Static dielectric constant tensor:
#      x y z
#    x 4.774450 0.000000 0.000000 
#    y 0.000000 4.250990 0.000000 
#    z 0.000000 0.000000 4.778390 
# 
# 
# High freq. dielectric constant tensor:
#      x y z
#    x 2.007310 0.000000 0.000000 
#    y 0.000000 2.007250 0.000000 
#    z 0.000000 0.000000 2.040640 
# 
# From -- ./inp_files/2353.got.cif
#   From: 2010.03.12/outbox.cif.g09.slc.cpg/sg68_2_cif.got.tgz:2353.got - 2010.04.10 23:14:56.
