data_PCOD8283524
_publ_section_title
;
Structure prediction by ZEFSAII (Michael W. Deem and Ramdas Pophale) SiO2 
 PCOD8283524
Probable space group: C C C A
;
_chemical_formula_sum "Si O2"
_cell_formula_units_Z 68
_cell_length_a 15.794558
_cell_length_b 21.377900
_cell_length_c 9.237236
_cell_angle_alpha 90.000000
_cell_angle_beta 90.000000
_cell_angle_gamma 90.000000
_cell_volume 3118.994132
_symmetry_space_group_name_H-M "C C C A"
_symmetry_group_IT_number 68
_space_group.IT_coordinate_system_code '2'
_symmetry_cell_setting 'orthorhombic'
loop_
_space_group_symop_operation_xyz
x,y,z
-x,1/2-y,z
x,1/2-y,1/2-z
-x,y,1/2-z
-x,-y,-z
x,1/2+y,-z
-x,1/2+y,1/2+z
x,-y,1/2+z
1/2+x,1/2+y,z
1/2-x,-y,z
1/2+x,-y,1/2-z
1/2-x,1/2+y,1/2-z
1/2-x,1/2-y,-z
1/2+x,y,-z
1/2-x,y,1/2+z
1/2+x,1/2-y,1/2+z
loop_
_atom_site_type_symbol
_atom_site_label
_atom_site_fract_x
_atom_site_fract_y
_atom_site_fract_z
Si Si1 0.000000 0.250000 0.750000
Si Si2 0.643456 0.835312 0.631831
Si Si3 0.200648 0.686680 0.811808
Si Si4 0.905173 0.072434 0.239562
Si Si5 0.345349 0.974707 0.962465
O O1 0.944179 0.203096 0.649393
O O2 0.699987 0.818079 0.771575
O O3 0.690550 0.814867 0.484291
O O4 0.633320 0.910367 0.623014
O O5 0.160935 0.750000 0.750000
O O6 0.154043 0.632183 0.724599
O O7 0.870518 0.031041 0.371432
O O8 0.000000 0.097870 0.250000
O O9 0.904471 0.029110 0.099051
O O10 0.250000 0.000000 0.944335
#
# Coordination Sequence:
#
# PCOD8283524 Si02
#       5
#     4  16  16  16  16
#     4  12  28  48  70 108 142 180 236 288 364 400
#     4  11  26  45  73 103 139 183 232 287 346 423
#     4  11  24  46  70  98 137 186 229 282 349 416
#     4  11  25  42  65 103 138 179 231 288 342 411
#     4  11  23  44  70 100 135 188 227 282 354 415
#
# _framework density 21.8019
#
# number of rings (size 3 to 8) (size 9 to 14) (size 15 to 20)
#    0.000    0.941    3.529    2.118    4.941    4.235 
#    0.000    0.000    0.000    0.000    0.000    0.000 
#    0.000    0.000    0.000    0.000    0.000    0.000 
#
# Total GULP energy -421573.695968 kJ/mol
# GULP energy per Si atom -12399.226352 kJ/mol
# Density = 2.175228 g / cm^3
# Si number density = 21.801900 Si / 1000 Ang^3
#
#
#
# Elastic Constant Matrix: (Units=GPa)
#
#
# Indices 1 2 3 4 5 6 
#
# 1 115.5728 47.7890 17.2450 0.0000 0.0000 0.0000
# 2 47.7890 132.1521 43.3026 0.0000 0.0000 0.0000
# 3 17.2450 43.3026 70.8469 0.0000 0.0000 0.0000
# 4 0.0000 0.0000 0.0000 18.0551 0.0000 0.0000
# 5 0.0000 0.0000 0.0000 0.0000 20.4321 0.0000
# 6 0.0000 0.0000 0.0000 0.0000 0.0000 40.5696
#
#
#
# Elastic Compliance Matrix: (Units=1/GPa)
#
#
# Indices 1 2 3 4 5 6 
#
# 1 0.010178 -0.003587 -0.000285 0.000000 0.000000 0.000000
# 2 -0.003587 0.010726 -0.005683 0.000000 0.000000 0.000000
# 3 -0.000285 -0.005683 0.017658 0.000000 0.000000 0.000000
# 4 0.000000 0.000000 0.000000 0.055386 0.000000 0.000000
# 5 0.000000 0.000000 0.000000 0.000000 0.048943 0.000000
# 6 0.000000 0.000000 0.000000 0.000000 0.000000 0.024649
#
#
# Mechanical properties :
#
#
# Convention : Reuss Voigt Hill
#
# Bulk Modulus (GPa) = 51.40801 59.47168 55.43984
# Shear Modulus (GPa) = 25.88865 29.82704 27.85784
#
# Velocity S-wave (km/s) = 3.44968 3.70279 3.57847
# Velocity P-wave (km/s) = 6.28473 6.75413 6.52365
#
# Compressibility (1/GPa) = 0.01945222
#
# Stress axis : x y z
#
# Youngs Moduli (GPa) = 98.24693 93.22742 56.63223
#
# Poissons Ratio (x) = 0.33444 0.01613
# Poissons Ratio (y) = 0.35245 0.32184
# Poissons Ratio (z) = 0.02799 0.52981
#
# Static dielectric constant tensor:
#      x y z
#    x 3.851640 0.000000 0.000000 
#    y 0.000000 4.277910 0.000000 
#    z 0.000000 0.000000 3.825020 
# 
# 
# High freq. dielectric constant tensor:
#      x y z
#    x 1.851630 0.000000 0.000000 
#    y 0.000000 1.881700 0.000000 
#    z 0.000000 0.000000 1.852840 
# 
# From -- ./inp_files/5933.got.cif
#   From: 2010.03.12/outbox.cif.g09.slc.cpg/sg68_3_cif.got.tgz:5933.got - 2010.04.10 23:14:56.
