data_PCOD8283457
_publ_section_title
;
Structure prediction by ZEFSAII (Michael W. Deem and Ramdas Pophale) SiO2 
 PCOD8283457
Probable space group: C C C A
;
_chemical_formula_sum "Si O2"
_cell_formula_units_Z 68
_cell_length_a 8.580317
_cell_length_b 16.218925
_cell_length_c 21.924936
_cell_angle_alpha 90.000000
_cell_angle_beta 90.000000
_cell_angle_gamma 90.000000
_cell_volume 3051.151223
_symmetry_space_group_name_H-M "C C C A"
_symmetry_group_IT_number 68
_space_group.IT_coordinate_system_code '2'
_symmetry_cell_setting 'orthorhombic'
loop_
_space_group_symop_operation_xyz
x,y,z
-x,1/2-y,z
x,1/2-y,1/2-z
-x,y,1/2-z
-x,-y,-z
x,1/2+y,-z
-x,1/2+y,1/2+z
x,-y,1/2+z
1/2+x,1/2+y,z
1/2-x,-y,z
1/2+x,-y,1/2-z
1/2-x,1/2+y,1/2-z
1/2-x,1/2-y,-z
1/2+x,y,-z
1/2-x,y,1/2+z
1/2+x,1/2-y,1/2+z
loop_
_atom_site_type_symbol
_atom_site_label
_atom_site_fract_x
_atom_site_fract_y
_atom_site_fract_z
Si Si1 0.500000 0.750000 0.250000
Si Si2 0.540618 0.431102 0.316128
Si Si3 0.611559 0.889570 0.163964
Si Si4 0.434547 0.839560 0.044405
Si Si5 0.925995 0.838304 0.424654
O O1 0.600116 0.808866 0.206331
O O2 0.500000 0.392367 0.250000
O O3 0.530686 0.529782 0.307471
O O4 0.705729 0.403401 0.343301
O O5 0.418641 0.397528 0.365551
O O6 0.529337 0.879600 0.099194
O O7 0.500000 0.750000 0.031510
O O8 0.252732 0.831782 0.055684
O O9 0.475605 0.883160 0.979355
O O10 0.000000 0.750000 0.405827
#
# Coordination Sequence:
#
# PCOD8283457 Si02
#       5
#     4  16  16  16  16
#     4  12  24  44  74 100 126 192 224 268 340 408
#     4  11  26  44  65 102 144 176 222 284 344 405
#     4  11  25  43  71 100 137 177 228 281 340 409
#     4  11  22  42  69  98 134 180 237 285 337 410
#     4  11  24  41  68  99 137 183 230 286 346 408
#
# _framework density 22.286669
#
# number of rings (size 3 to 8) (size 9 to 14) (size 15 to 20)
#    0.000    0.941    2.353    5.647    3.294    2.353 
#    0.000    0.000    0.000    0.000    0.000    0.000 
#    0.000    0.000    0.000    0.000    0.000    0.000 
#
# Total GULP energy -421448.914768 kJ/mol
# GULP energy per Si atom -12395.556317 kJ/mol
# Density = 2.223594 g / cm^3
# Si number density = 22.286669 Si / 1000 Ang^3
#
#
#
# Elastic Constant Matrix: (Units=GPa)
#
#
# Indices 1 2 3 4 5 6 
#
# 1 120.0428 37.8283 66.7898 0.0000 0.0000 0.0000
# 2 37.8283 92.9521 44.9787 0.0000 0.0000 0.0000
# 3 66.7898 44.9787 173.8622 0.0000 0.0000 0.0000
# 4 0.0000 0.0000 0.0000 34.8606 0.0000 0.0000
# 5 0.0000 0.0000 0.0000 0.0000 35.4736 0.0000
# 6 0.0000 0.0000 0.0000 0.0000 0.0000 29.7180
#
#
#
# Elastic Compliance Matrix: (Units=1/GPa)
#
#
# Indices 1 2 3 4 5 6 
#
# 1 0.011212 -0.002833 -0.003574 0.000000 0.000000 0.000000
# 2 -0.002833 0.013014 -0.002278 0.000000 0.000000 0.000000
# 3 -0.003574 -0.002278 0.007714 0.000000 0.000000 0.000000
# 4 0.000000 0.000000 0.000000 0.028686 0.000000 0.000000
# 5 0.000000 0.000000 0.000000 0.000000 0.028190 0.000000
# 6 0.000000 0.000000 0.000000 0.000000 0.000000 0.033650
#
#
# Mechanical properties :
#
#
# Convention : Reuss Voigt Hill
#
# Bulk Modulus (GPa) = 68.64240 76.22784 72.43512
# Shear Modulus (GPa) = 34.55611 35.82779 35.19195
#
# Velocity S-wave (km/s) = 3.94195 4.01382 3.97805
# Velocity P-wave (km/s) = 7.18228 7.46717 7.32611
#
# Compressibility (1/GPa) = 0.01456825
#
# Stress axis : x y z
#
# Youngs Moduli (GPa) = 89.19214 76.84187 129.63357
#
# Poissons Ratio (x) = 0.21772 0.46331
# Poissons Ratio (y) = 0.25271 0.29534
# Poissons Ratio (z) = 0.31878 0.17507
#
# Static dielectric constant tensor:
#      x y z
#    x 3.939970 0.000000 0.000000 
#    y 0.000000 4.076440 0.000000 
#    z 0.000000 0.000000 4.415940 
# 
# 
# High freq. dielectric constant tensor:
#      x y z
#    x 1.879110 0.000000 0.000000 
#    y 0.000000 1.864810 0.000000 
#    z 0.000000 0.000000 1.902610 
# 
# From -- ./inp_files/35859.got.cif
#   From: 2010.03.12/outbox.cif.g09.slc.cpg/sg68_18_cif.got.tgz:35859.got - 2010.04.10 23:14:56.
