data_PCOD8283536
_publ_section_title
;
Structure prediction by ZEFSAII (Michael W. Deem and Ramdas Pophale) SiO2 
 PCOD8283536
Probable space group: C C C A
;
_chemical_formula_sum "Si O2"
_cell_formula_units_Z 72
_cell_length_a 18.036496
_cell_length_b 23.222921
_cell_length_c 8.427894
_cell_angle_alpha 90.000000
_cell_angle_beta 90.000000
_cell_angle_gamma 90.000000
_cell_volume 3530.108707
_symmetry_space_group_name_H-M "C C C A"
_symmetry_group_IT_number 68
_space_group.IT_coordinate_system_code '2'
_symmetry_cell_setting 'orthorhombic'
loop_
_space_group_symop_operation_xyz
x,y,z
-x,1/2-y,z
x,1/2-y,1/2-z
-x,y,1/2-z
-x,-y,-z
x,1/2+y,-z
-x,1/2+y,1/2+z
x,-y,1/2+z
1/2+x,1/2+y,z
1/2-x,-y,z
1/2+x,-y,1/2-z
1/2-x,1/2+y,1/2-z
1/2-x,1/2-y,-z
1/2+x,y,-z
1/2-x,y,1/2+z
1/2+x,1/2-y,1/2+z
loop_
_atom_site_type_symbol
_atom_site_label
_atom_site_fract_x
_atom_site_fract_y
_atom_site_fract_z
Si Si1 0.000000 0.594150 0.750000
Si Si2 0.654645 0.960586 0.208978
Si Si3 0.506798 0.687850 0.994347
Si Si4 0.199291 0.073667 0.647855
Si Si5 0.375683 0.187439 0.253578
O O1 0.072034 0.554459 0.764437
O O2 0.014239 0.634421 0.601265
O O3 0.711891 0.931993 0.334413
O O4 0.661041 0.029733 0.227090
O O5 0.673423 0.940477 0.030642
O O6 0.500000 0.750000 0.083275
O O7 0.446435 0.690160 0.857886
O O8 0.590202 0.676581 0.928683
O O9 0.180674 0.138463 0.698867
O O10 0.334524 0.250000 0.250000
#
# Coordination Sequence:
#
# PCOD8283536 Si02
#       5
#     8  16  16  16  16
#     4  12  23  38  62 104 119 164 216 268 302 384
#     4  11  26  40  68  89 132 165 209 258 332 360
#     4   9  19  36  60  92 131 168 200 261 319 369
#     4  11  23  46  61  93 126 171 206 265 316 387
#     4   9  19  39  66  88 123 171 213 253 314 380
#
# _framework density 20.395972
#
# number of rings (size 3 to 8) (size 9 to 14) (size 15 to 20)
#    0.000    1.778    2.222    4.333    6.222    2.667 
#    0.000    3.333    0.000    0.000    0.000    0.000 
#    0.000    0.000    0.000    0.000    0.000    0.000 
#
# Total GULP energy -446152.314271 kJ/mol
# GULP energy per Si atom -12393.119841 kJ/mol
# Density = 2.034955 g / cm^3
# Si number density = 20.395972 Si / 1000 Ang^3
#
#
#
# Elastic Constant Matrix: (Units=GPa)
#
#
# Indices 1 2 3 4 5 6 
#
# 1 125.7182 60.3042 18.5633 0.0000 0.0000 0.0000
# 2 60.3042 145.8359 24.9419 0.0000 0.0000 0.0000
# 3 18.5633 24.9419 61.1942 0.0000 0.0000 0.0000
# 4 0.0000 0.0000 0.0000 37.6090 0.0000 0.0000
# 5 0.0000 0.0000 0.0000 0.0000 17.9116 0.0000
# 6 0.0000 0.0000 0.0000 0.0000 0.0000 -34.0831
#
#
#
# Elastic Compliance Matrix: (Units=1/GPa)
#
#
# Indices 1 2 3 4 5 6 
#
# 1 0.010042 -0.003903 -0.001455 0.000000 0.000000 0.000000
# 2 -0.003903 0.008888 -0.002439 0.000000 0.000000 0.000000
# 3 -0.001455 -0.002439 0.017777 0.000000 0.000000 0.000000
# 4 0.000000 0.000000 0.000000 0.026589 0.000000 0.000000
# 5 0.000000 0.000000 0.000000 0.000000 0.055830 0.000000
# 6 0.000000 0.000000 0.000000 0.000000 0.000000 -0.029340
#
#
# Mechanical properties :
#
#
# Convention : Reuss Voigt Hill
#
# Bulk Modulus (GPa) = 47.36590 60.04077 53.70334
# Shear Modulus (GPa) = 44.47719 19.55008 32.01364
#
# Velocity S-wave (km/s) = 4.67485 3.09937 3.96612
# Velocity P-wave (km/s) = 7.23965 6.50458 6.88194
#
# Compressibility (1/GPa) = 0.02111223
#
# Stress axis : x y z
#
# Youngs Moduli (GPa) = 99.58648 112.50925 56.25321
#
# Poissons Ratio (x) = 0.43917 0.08186
# Poissons Ratio (y) = 0.38872 0.13718
# Poissons Ratio (z) = 0.14491 0.27436
#
# Static dielectric constant tensor:
#      x y z
#    x 3.486860 0.000000 0.000000 
#    y 0.000000 4.047790 0.000000 
#    z 0.000000 0.000000 3.889360 
# 
# 
# High freq. dielectric constant tensor:
#      x y z
#    x 1.779330 0.000000 0.000000 
#    y 0.000000 1.807770 0.000000 
#    z 0.000000 0.000000 1.793700 
# 
# From -- ./inp_files/6092.got.cif
#   From: 2010.03.12/outbox.cif.g09.slc.cpg/sg68_4_cif.got.tgz:6092.got - 2010.04.10 23:14:56.
