data_PCOD8283051
_publ_section_title
;
Structure prediction by ZEFSAII (Michael W. Deem and Ramdas Pophale) SiO2 
 PCOD8283051
Probable space group: C C C A
;
_chemical_formula_sum "Si O2"
_cell_formula_units_Z 64
_cell_length_a 7.503530
_cell_length_b 17.682695
_cell_length_c 23.006361
_cell_angle_alpha 90.000000
_cell_angle_beta 90.000000
_cell_angle_gamma 90.000000
_cell_volume 3052.544540
_symmetry_space_group_name_H-M "C C C A"
_symmetry_group_IT_number 68
_space_group.IT_coordinate_system_code '2'
_symmetry_cell_setting 'orthorhombic'
loop_
_space_group_symop_operation_xyz
x,y,z
-x,1/2-y,z
x,1/2-y,1/2-z
-x,y,1/2-z
-x,-y,-z
x,1/2+y,-z
-x,1/2+y,1/2+z
x,-y,1/2+z
1/2+x,1/2+y,z
1/2-x,-y,z
1/2+x,-y,1/2-z
1/2-x,1/2+y,1/2-z
1/2-x,1/2-y,-z
1/2+x,y,-z
1/2-x,y,1/2+z
1/2+x,1/2-y,1/2+z
loop_
_atom_site_type_symbol
_atom_site_label
_atom_site_fract_x
_atom_site_fract_y
_atom_site_fract_z
Si Si1 0.000000 0.750000 0.893086
Si Si2 0.250000 0.000000 0.662890
Si Si3 0.926208 0.089992 0.432941
Si Si4 0.250000 0.000000 0.967127
Si Si5 0.815457 0.710833 0.307304
Si Si6 0.500000 0.076972 0.250000
O O1 0.944638 0.819429 0.934423
O O2 0.834994 0.717462 0.856001
O O3 0.303802 0.070696 0.622379
O O4 0.088111 0.023372 0.702959
O O5 0.837971 0.065342 0.493486
O O6 0.109891 0.043000 0.426053
O O7 0.737370 0.750000 0.250000
O O8 0.000000 0.750000 0.328510
O O9 0.857427 0.625374 0.287375
#
# Coordination Sequence:
#
# PCOD8283051 Si02
#       6
#     8   8  16   8  16   8
#     4  12  23  36  70  96 122 168 222 261 338 390
#     4  11  24  37  64  96 130 175 216 253 322 402
#     4  10  23  42  65  95 120 172 214 269 334 384
#     4   9  22  47  66  84 134 157 216 287 324 384
#     4   9  20  39  55  87 133 171 205 266 310 379
#     4  10  23  38  58  93 136 174 218 256 314 391
#
# _framework density 20.966116
#
# number of rings (size 3 to 8) (size 9 to 14) (size 15 to 20)
#    0.000    2.250    0.000    3.375    7.000    1.000 
#    4.500    0.000    0.000    0.000    0.000    0.000 
#    0.000    0.000    0.000    0.000    0.000    0.000 
#
# Total GULP energy -396743.561356 kJ/mol
# GULP energy per Si atom -12398.236292 kJ/mol
# Density = 2.091840 g / cm^3
# Si number density = 20.966116 Si / 1000 Ang^3
#
#
#
# Elastic Constant Matrix: (Units=GPa)
#
#
# Indices 1 2 3 4 5 6 
#
# 1 71.5830 19.3310 27.5772 0.0000 0.0000 0.0000
# 2 19.3310 132.9029 40.8676 0.0000 0.0000 0.0000
# 3 27.5772 40.8676 66.0327 0.0000 0.0000 0.0000
# 4 0.0000 0.0000 0.0000 22.2288 0.0000 0.0000
# 5 0.0000 0.0000 0.0000 0.0000 27.8871 0.0000
# 6 0.0000 0.0000 0.0000 0.0000 0.0000 19.4471
#
#
#
# Elastic Compliance Matrix: (Units=1/GPa)
#
#
# Indices 1 2 3 4 5 6 
#
# 1 0.016662 -0.000350 -0.006741 0.000000 0.000000 0.000000
# 2 -0.000350 0.009300 -0.005610 0.000000 0.000000 0.000000
# 3 -0.006741 -0.005610 0.021431 0.000000 0.000000 0.000000
# 4 0.000000 0.000000 0.000000 0.044987 0.000000 0.000000
# 5 0.000000 0.000000 0.000000 0.000000 0.035859 0.000000
# 6 0.000000 0.000000 0.000000 0.000000 0.000000 0.051422
#
#
# Mechanical properties :
#
#
# Convention : Reuss Voigt Hill
#
# Bulk Modulus (GPa) = 45.47513 49.56337 47.51925
# Shear Modulus (GPa) = 23.54128 26.09546 24.81837
#
# Velocity S-wave (km/s) = 3.35449 3.53179 3.44428
# Velocity P-wave (km/s) = 6.06139 6.34999 6.20737
#
# Compressibility (1/GPa) = 0.02199004
#
# Stress axis : x y z
#
# Youngs Moduli (GPa) = 60.01836 107.52467 46.66101
#
# Poissons Ratio (x) = 0.03768 0.31456
# Poissons Ratio (y) = 0.02103 0.26175
# Poissons Ratio (z) = 0.40461 0.60316
#
# Static dielectric constant tensor:
#      x y z
#    x 3.888150 0.000000 0.000000 
#    y 0.000000 3.561600 0.000000 
#    z 0.000000 0.000000 3.499130 
# 
# 
# High freq. dielectric constant tensor:
#      x y z
#    x 1.825300 0.000000 0.000000 
#    y 0.000000 1.822090 0.000000 
#    z 0.000000 0.000000 1.805960 
# 
# From -- ./inp_files/32558.got.cif
#   From: 2010.03.12/outbox.cif.g09.slc.cpg/sg68_17_cif.got.tgz:32558.got - 2010.04.10 23:14:56.
