data_PCOD8283894
_publ_section_title
;
Structure prediction by ZEFSAII (Michael W. Deem and Ramdas Pophale) SiO2 
 PCOD8283894
Probable space group: F M M M
;
_chemical_formula_sum "Si O2"
_cell_formula_units_Z 208
_cell_length_a 28.401153
_cell_length_b 20.240907
_cell_length_c 20.444470
_cell_angle_alpha 90.000000
_cell_angle_beta 90.000000
_cell_angle_gamma 90.000000
_cell_volume 11752.812221
_symmetry_space_group_name_H-M "F M M M"
_symmetry_group_IT_number 69
_symmetry_cell_setting 'orthorhombic'
loop_
_space_group_symop_operation_xyz
x,y,z
-x,-y,z
x,-y,-z
-x,y,-z
-x,-y,-z
x,y,-z
-x,y,z
x,-y,z
x,1/2+y,1/2+z
-x,1/2-y,1/2+z
x,1/2-y,1/2-z
-x,1/2+y,1/2-z
-x,1/2-y,1/2-z
x,1/2+y,1/2-z
-x,1/2+y,1/2+z
x,1/2-y,1/2+z
1/2+x,y,1/2+z
1/2-x,-y,1/2+z
1/2+x,-y,1/2-z
1/2-x,y,1/2-z
1/2-x,-y,1/2-z
1/2+x,y,1/2-z
1/2-x,y,1/2+z
1/2+x,-y,1/2+z
1/2+x,1/2+y,z
1/2-x,1/2-y,z
1/2+x,1/2-y,-z
1/2-x,1/2+y,-z
1/2-x,1/2-y,-z
1/2+x,1/2+y,-z
1/2-x,1/2+y,z
1/2+x,1/2-y,z
loop_
_atom_site_type_symbol
_atom_site_label
_atom_site_fract_x
_atom_site_fract_y
_atom_site_fract_z
Si Si1 0.051762 0.000000 0.076374
Si Si2 0.553285 0.191390 0.202650
Si Si3 0.618336 0.884229 0.382943
Si Si4 0.621785 0.078170 0.763298
Si Si5 0.446909 0.731821 0.075474
Si Si6 0.777915 0.422071 0.188705
Si Si7 0.215811 0.076450 0.072322
O O1 0.079532 0.936180 0.097015
O O2 0.000000 0.000000 0.109799
O O3 0.045330 0.000000 0.000000
O O4 0.500000 0.179492 0.225745
O O5 0.574066 0.250000 0.250000
O O6 0.578753 0.121382 0.211026
O O7 0.555889 0.206629 0.125113
O O8 0.634364 0.897862 0.309209
O O9 0.593261 0.815348 0.396410
O O10 0.665931 0.886244 0.424943
O O11 0.666968 0.095389 0.808143
O O12 0.609362 0.000000 0.765088
O O13 0.500000 0.700985 0.079351
O O14 0.436220 0.752507 0.000000
O O15 0.771506 0.500000 0.190420
O O16 0.750000 0.390618 0.250000
O O17 0.754566 0.393927 0.122185
O O18 0.205146 0.000000 0.088191
O O19 0.237046 0.085677 0.000000
#
# Coordination Sequence:
#
# PCOD8283894 Si02
#       7
#    16  32  32  32  32  32  32
#     4  11  22  30  38  67 118 158 179 208 258 328
#     4  10  21  38  58  80 110 148 189 229 267 323
#     4  12  19  30  50  79 112 148 181 217 271 332
#     4  11  21  35  56  84 114 145 182 230 281 326
#     4  10  21  37  56  77 105 146 191 228 268 325
#     4   9  17  31  50  72 104 143 182 223 269 321
#     4  10  18  29  48  75 108 145 187 229 271 328
#
# _framework density 17.697892
#
# number of rings (size 3 to 8) (size 9 to 14) (size 15 to 20)
#    0.000    1.615    4.615    1.846    0.000    2.154 
#    0.000    0.769    0.000    4.615    0.000    4.308 
#    0.000    0.000    0.000    0.000    0.000    0.000 
#
# Total GULP energy -644507.296733 kJ/mol
# GULP energy per Si atom -12394.371091 kJ/mol
# Density = 1.765761 g / cm^3
# Si number density = 17.697892 Si / 1000 Ang^3
#
#
#
# Elastic Constant Matrix: (Units=GPa)
#
#
# Indices 1 2 3 4 5 6 
#
# 1 96.4826 32.9214 56.4579 0.0000 0.0000 0.0000
# 2 32.9214 52.4660 33.6131 0.0000 0.0000 0.0000
# 3 56.4579 33.6131 116.2817 0.0000 0.0000 0.0000
# 4 0.0000 0.0000 0.0000 -183.9060 0.0000 0.0000
# 5 0.0000 0.0000 0.0000 0.0000 27.9051 0.0000
# 6 0.0000 0.0000 0.0000 0.0000 0.0000 20.9569
#
#
#
# Elastic Compliance Matrix: (Units=1/GPa)
#
#
# Indices 1 2 3 4 5 6 
#
# 1 0.015968 -0.006201 -0.005961 0.000000 0.000000 0.000000
# 2 -0.006201 0.025800 -0.004447 0.000000 0.000000 0.000000
# 3 -0.005961 -0.004447 0.012779 0.000000 0.000000 0.000000
# 4 0.000000 0.000000 0.000000 -0.005438 0.000000 0.000000
# 5 0.000000 0.000000 0.000000 0.000000 0.035836 0.000000
# 6 0.000000 0.000000 0.000000 0.000000 0.000000 0.047717
#
#
# Mechanical properties :
#
#
# Convention : Reuss Voigt Hill
#
# Bulk Modulus (GPa) = 46.88177 56.80166 51.84172
# Shear Modulus (GPa) = 28.90329 -17.52626 5.68851
#
# Velocity S-wave (km/s) = 4.04561 -3.15032 1.79477
# Velocity P-wave (km/s) = 6.95486 4.35111 5.80096
#
# Compressibility (1/GPa) = 0.02133025
#
# Stress axis : x y z
#
# Youngs Moduli (GPa) = 62.62377 38.75940 78.25151
#
# Poissons Ratio (x) = 0.24035 0.46642
# Poissons Ratio (y) = 0.38834 0.34799
# Poissons Ratio (z) = 0.37327 0.17237
#
# Static dielectric constant tensor:
#      x y z
#    x 3.436170 0.000000 0.000000 
#    y 0.000000 3.089730 0.000000 
#    z 0.000000 0.000000 3.643240 
# 
# 
# High freq. dielectric constant tensor:
#      x y z
#    x 1.687400 0.000000 0.000000 
#    y 0.000000 1.638580 0.000000 
#    z 0.000000 0.000000 1.693240 
# 
# From -- ./inp_files/27015.got.cif
#   From: 2010.03.12/outbox.cif.g09.slc.cpg/sg69_14_cif.got.tgz:27015.got - 2010.04.10 23:52:46.
