data_PCOD8283347
_publ_section_title
;
Structure prediction by ZEFSAII (Michael W. Deem and Ramdas Pophale) SiO2 
 PCOD8283347
Probable space group: C C C A
;
_chemical_formula_sum "Si O2"
_cell_formula_units_Z 96
_cell_length_a 17.913920
_cell_length_b 16.714061
_cell_length_c 16.796714
_cell_angle_alpha 90.000000
_cell_angle_beta 90.000000
_cell_angle_gamma 90.000000
_cell_volume 5029.177232
_symmetry_space_group_name_H-M "C C C A"
_symmetry_group_IT_number 68
_space_group.IT_coordinate_system_code '2'
_symmetry_cell_setting 'orthorhombic'
loop_
_space_group_symop_operation_xyz
x,y,z
-x,1/2-y,z
x,1/2-y,1/2-z
-x,y,1/2-z
-x,-y,-z
x,1/2+y,-z
-x,1/2+y,1/2+z
x,-y,1/2+z
1/2+x,1/2+y,z
1/2-x,-y,z
1/2+x,-y,1/2-z
1/2-x,1/2+y,1/2-z
1/2-x,1/2-y,-z
1/2+x,y,-z
1/2-x,y,1/2+z
1/2+x,1/2-y,1/2+z
loop_
_atom_site_type_symbol
_atom_site_label
_atom_site_fract_x
_atom_site_fract_y
_atom_site_fract_z
Si Si1 0.714802 0.414713 0.545625
Si Si2 0.126196 0.370967 0.601001
Si Si3 0.067743 0.958416 0.610232
Si Si4 0.149306 0.811696 0.093073
Si Si5 0.472002 0.393316 0.490085
Si Si6 0.419804 0.913051 0.733034
O O1 0.750000 0.500000 0.564488
O O2 0.688359 0.411694 0.454168
O O3 0.642942 0.405931 0.603498
O O4 0.769914 0.341530 0.564151
O O5 0.151937 0.280340 0.616557
O O6 0.126244 0.418368 0.684924
O O7 0.044113 0.374754 0.563505
O O8 0.996111 0.903662 0.583499
O O9 0.069926 0.026977 0.541421
O O10 0.062828 0.997882 0.697514
O O11 0.088628 0.822832 0.021379
O O12 0.126016 0.861506 0.170468
O O13 0.500000 0.871492 0.750000
#
# Coordination Sequence:
#
# PCOD8283347 Si02
#       6
#    16  16  16  16  16  16
#     4  11  21  39  55  74 112 157 194 232 274 351
#     4  11  22  34  54  89 111 146 191 242 292 347
#     4   9  18  34  54  78 109 150 184 223 282 340
#     4  11  21  35  57  81 121 151 184 233 300 349
#     4   9  17  31  57  78 110 143 185 225 276 345
#     4  11  20  33  56  85 115 139 179 242 303 342
#
# _framework density 19.088609999999999
#
# number of rings (size 3 to 8) (size 9 to 14) (size 15 to 20)
#    0.000    1.667    6.667    1.500    0.000    0.667 
#    3.000    0.000    0.000    0.000    0.000    0.000 
#    0.000    0.333    0.000    0.000    0.000    0.000 
#
# Total GULP energy -594862.252506 kJ/mol
# GULP energy per Si atom -12392.963594 kJ/mol
# Density = 1.904516 g / cm^3
# Si number density = 19.088610 Si / 1000 Ang^3
#
#
#
# Elastic Constant Matrix: (Units=GPa)
#
#
# Indices 1 2 3 4 5 6 
#
# 1 97.8076 17.1372 36.2101 0.0000 0.0000 0.0000
# 2 17.1372 44.2941 33.9592 0.0000 0.0000 0.0000
# 3 36.2101 33.9592 99.7245 0.0000 0.0000 0.0000
# 4 0.0000 0.0000 0.0000 22.1728 0.0000 0.0000
# 5 0.0000 0.0000 0.0000 0.0000 27.1040 0.0000
# 6 0.0000 0.0000 0.0000 0.0000 0.0000 25.5686
#
#
#
# Elastic Compliance Matrix: (Units=1/GPa)
#
#
# Indices 1 2 3 4 5 6 
#
# 1 0.011911 -0.001749 -0.003729 0.000000 0.000000 0.000000
# 2 -0.001749 0.030810 -0.009857 0.000000 0.000000 0.000000
# 3 -0.003729 -0.009857 0.014738 0.000000 0.000000 0.000000
# 4 0.000000 0.000000 0.000000 0.045100 0.000000 0.000000
# 5 0.000000 0.000000 0.000000 0.000000 0.036895 0.000000
# 6 0.000000 0.000000 0.000000 0.000000 0.000000 0.039110
#
#
# Mechanical properties :
#
#
# Convention : Reuss Voigt Hill
#
# Bulk Modulus (GPa) = 37.32852 46.27102 41.79977
# Shear Modulus (GPa) = 22.91842 25.27040 24.09441
#
# Velocity S-wave (km/s) = 3.46877 3.64242 3.55666
# Velocity P-wave (km/s) = 5.97001 6.47938 6.22990
#
# Compressibility (1/GPa) = 0.02678917
#
# Stress axis : x y z
#
# Youngs Moduli (GPa) = 83.95383 32.45710 67.85088
#
# Poissons Ratio (x) = 0.05678 0.25304
# Poissons Ratio (y) = 0.14685 0.66877
# Poissons Ratio (z) = 0.31309 0.31991
#
# Static dielectric constant tensor:
#      x y z
#    x 3.674850 0.000000 0.000000 
#    y 0.000000 3.444630 0.000000 
#    z 0.000000 0.000000 3.529460 
# 
# 
# High freq. dielectric constant tensor:
#      x y z
#    x 1.745490 0.000000 0.000000 
#    y 0.000000 1.716410 0.000000 
#    z 0.000000 0.000000 1.720140 
# 
# From -- ./inp_files/32024.got.cif
#   From: 2010.03.12/outbox.cif.g09.slc.cpg/sg68_17_cif.got.tgz:32024.got - 2010.04.10 23:14:56.
