data_PCOD8283171
_publ_section_title
;
Structure prediction by ZEFSAII (Michael W. Deem and Ramdas Pophale) SiO2 
 PCOD8283171
Probable space group: C C C A
;
_chemical_formula_sum "Si O2"
_cell_formula_units_Z 80
_cell_length_a 25.133900
_cell_length_b 8.615179
_cell_length_c 16.307491
_cell_angle_alpha 90.000000
_cell_angle_beta 90.000000
_cell_angle_gamma 90.000000
_cell_volume 3531.110723
_symmetry_space_group_name_H-M "C C C A"
_symmetry_group_IT_number 68
_space_group.IT_coordinate_system_code '2'
_symmetry_cell_setting 'orthorhombic'
loop_
_space_group_symop_operation_xyz
x,y,z
-x,1/2-y,z
x,1/2-y,1/2-z
-x,y,1/2-z
-x,-y,-z
x,1/2+y,-z
-x,1/2+y,1/2+z
x,-y,1/2+z
1/2+x,1/2+y,z
1/2-x,-y,z
1/2+x,-y,1/2-z
1/2-x,1/2+y,1/2-z
1/2-x,1/2-y,-z
1/2+x,y,-z
1/2-x,y,1/2+z
1/2+x,1/2-y,1/2+z
loop_
_atom_site_type_symbol
_atom_site_label
_atom_site_fract_x
_atom_site_fract_y
_atom_site_fract_z
Si Si1 0.914088 0.452704 0.165170
Si Si2 0.401832 0.111583 0.991815
Si Si3 0.325055 0.250000 0.750000
Si Si4 0.655306 0.853988 0.587587
Si Si5 0.750000 0.000000 0.656756
Si Si6 0.500000 0.250000 0.597928
Si Si7 0.106361 0.750000 0.250000
O O1 0.905243 0.513126 0.073839
O O2 0.863881 0.342340 0.187374
O O3 0.926045 0.591786 0.230818
O O4 0.968683 0.358432 0.161265
O O5 0.360470 0.251862 0.008748
O O6 0.459995 0.165190 0.964577
O O7 0.378205 0.013175 0.916836
O O8 0.287974 0.385383 0.710141
O O9 0.643365 0.766936 0.671667
O O10 0.717346 0.892474 0.593426
#
# Coordination Sequence:
#
# PCOD8283171 Si02
#       7
#    16  16   8  16   8   8   8
#     4  11  25  47  75 104 151 190 245 306 362 449
#     4  11  25  46  73 104 149 189 247 301 361 442
#     4  12  27  49  72 111 147 197 242 315 362 450
#     4  11  24  47  71 105 146 192 244 308 356 441
#     4  12  26  44  76 104 148 196 244 300 384 424
#     4  12  24  47  76 107 142 204 232 304 384 427
#     4  10  23  48  69 105 151 186 242 310 360 434
#
# _framework density 22.655760000000001
#
# number of rings (size 3 to 8) (size 9 to 14) (size 15 to 20)
#    0.000    0.800    4.000    2.400    2.800    1.200 
#    0.000    1.000    0.000    0.000    0.000    0.000 
#    0.000    0.000    0.000    0.000    0.000    0.000 
#
# Total GULP energy -495606.928237 kJ/mol
# GULP energy per Si atom -12390.173206 kJ/mol
# Density = 2.260419 g / cm^3
# Si number density = 22.655760 Si / 1000 Ang^3
#
#
#
# Elastic Constant Matrix: (Units=GPa)
#
#
# Indices 1 2 3 4 5 6 
#
# 1 152.0540 71.5395 38.4216 0.0000 0.0000 0.0000
# 2 71.5395 142.6715 36.2859 0.0000 0.0000 0.0000
# 3 38.4216 36.2859 41.1460 0.0000 0.0000 0.0000
# 4 0.0000 0.0000 0.0000 53.0428 0.0000 0.0000
# 5 0.0000 0.0000 0.0000 0.0000 47.0744 0.0000
# 6 0.0000 0.0000 0.0000 0.0000 0.0000 29.5113
#
#
#
# Elastic Compliance Matrix: (Units=1/GPa)
#
#
# Indices 1 2 3 4 5 6 
#
# 1 0.009675 -0.003292 -0.006131 0.000000 0.000000 0.000000
# 2 -0.003292 0.010156 -0.005882 0.000000 0.000000 0.000000
# 3 -0.006131 -0.005882 0.035216 0.000000 0.000000 0.000000
# 4 0.000000 0.000000 0.000000 0.018853 0.000000 0.000000
# 5 0.000000 0.000000 0.000000 0.000000 0.021243 0.000000
# 6 0.000000 0.000000 0.000000 0.000000 0.000000 0.033885
#
#
# Mechanical properties :
#
#
# Convention : Reuss Voigt Hill
#
# Bulk Modulus (GPa) = 40.92273 69.81839 55.37056
# Shear Modulus (GPa) = 29.80034 38.56734 34.18384
#
# Velocity S-wave (km/s) = 3.63072 4.13039 3.88859
# Velocity P-wave (km/s) = 5.97312 7.32331 6.68240
#
# Compressibility (1/GPa) = 0.02443629
#
# Stress axis : x y z
#
# Youngs Moduli (GPa) = 103.36391 98.46617 28.39598
#
# Poissons Ratio (x) = 0.32413 0.17410
# Poissons Ratio (y) = 0.34025 0.16704
# Poissons Ratio (z) = 0.63372 0.57921
#
# Static dielectric constant tensor:
#      x y z
#    x 4.084800 0.000000 0.000000 
#    y 0.000000 5.026830 0.000000 
#    z 0.000000 0.000000 4.049590 
# 
# 
# High freq. dielectric constant tensor:
#      x y z
#    x 1.882610 0.000000 0.000000 
#    y 0.000000 1.923270 0.000000 
#    z 0.000000 0.000000 1.896350 
# 
# From -- ./inp_files/34023.got.cif
#   From: 2010.03.12/outbox.cif.g09.slc.cpg/sg68_18_cif.got.tgz:34023.got - 2010.04.10 23:14:56.
