data_PCOD8283766
_publ_section_title
;
Structure prediction by ZEFSAII (Michael W. Deem and Ramdas Pophale) SiO2 
 PCOD8283766
Probable space group: F M M M
;
_chemical_formula_sum "Si O2"
_cell_formula_units_Z 192
_cell_length_a 31.210023
_cell_length_b 18.189169
_cell_length_c 23.230200
_cell_angle_alpha 90.000000
_cell_angle_beta 90.000000
_cell_angle_gamma 90.000000
_cell_volume 13187.421750
_symmetry_space_group_name_H-M "F M M M"
_symmetry_group_IT_number 69
_symmetry_cell_setting 'orthorhombic'
loop_
_space_group_symop_operation_xyz
x,y,z
-x,-y,z
x,-y,-z
-x,y,-z
-x,-y,-z
x,y,-z
-x,y,z
x,-y,z
x,1/2+y,1/2+z
-x,1/2-y,1/2+z
x,1/2-y,1/2-z
-x,1/2+y,1/2-z
-x,1/2-y,1/2-z
x,1/2+y,1/2-z
-x,1/2+y,1/2+z
x,1/2-y,1/2+z
1/2+x,y,1/2+z
1/2-x,-y,1/2+z
1/2+x,-y,1/2-z
1/2-x,y,1/2-z
1/2-x,-y,1/2-z
1/2+x,y,1/2-z
1/2-x,y,1/2+z
1/2+x,-y,1/2+z
1/2+x,1/2+y,z
1/2-x,1/2-y,z
1/2+x,1/2-y,-z
1/2-x,1/2+y,-z
1/2-x,1/2-y,-z
1/2+x,1/2+y,-z
1/2-x,1/2+y,z
1/2+x,1/2-y,z
loop_
_atom_site_type_symbol
_atom_site_label
_atom_site_fract_x
_atom_site_fract_y
_atom_site_fract_z
Si Si1 0.091217 0.417510 0.752831
Si Si2 0.901266 0.914415 0.565097
Si Si3 0.116076 0.285852 0.687357
Si Si4 0.451250 0.326938 0.653105
Si Si5 0.667217 0.419390 0.342742
Si Si6 0.795149 0.229552 0.683554
O O1 0.076351 0.500000 0.735508
O O2 0.103524 0.371816 0.694853
O O3 0.054318 0.375703 0.788878
O O4 0.132515 0.420915 0.792656
O O5 0.896880 0.885441 0.500000
O O6 0.940488 0.873887 0.596451
O O7 0.856392 0.899138 0.597496
O O8 0.912524 0.000000 0.567183
O O9 0.119048 0.250000 0.750000
O O10 0.079168 0.244819 0.651762
O O11 0.162955 0.272505 0.657704
O O12 0.500000 0.299878 0.650216
O O13 0.689410 0.500000 0.347116
O O14 0.701693 0.357959 0.326879
O O15 0.791518 0.250000 0.750000
O O16 0.750000 0.250000 0.652796
#
# Coordination Sequence:
#
# PCOD8283766 Si02
#       6
#    32  32  32  32  32  32
#     4   9  16  26  40  56  82 112 139 168 197 231
#     4   9  17  28  43  61  82 109 137 168 205 240
#     4   9  15  28  39  56  82 109 140 167 197 238
#     4  10  18  27  41  58  80 112 141 165 200 243
#     4   9  15  27  42  58  82 112 139 163 198 244
#     4  10  16  26  42  62  81 110 138 167 203 237
#
# _framework density 14.559328000000001
#
# number of rings (size 3 to 8) (size 9 to 14) (size 15 to 20)
#    0.000    2.667    6.667    1.500    0.000    4.667 
#    0.000    3.333    0.000    0.500    0.000    0.000 
#    0.000    0.667    0.000    1.500    0.000    0.000 
#
# Total GULP energy -594735.293115 kJ/mol
# GULP energy per Si atom -12390.318607 kJ/mol
# Density = 1.452619 g / cm^3
# Si number density = 14.559328 Si / 1000 Ang^3
#
#
#
# Elastic Constant Matrix: (Units=GPa)
#
#
# Indices 1 2 3 4 5 6 
#
# 1 106.5228 44.6754 26.4048 0.0000 0.0000 0.0000
# 2 44.6754 89.4768 33.2305 0.0000 0.0000 0.0000
# 3 26.4048 33.2305 39.5733 0.0000 0.0000 0.0000
# 4 0.0000 0.0000 0.0000 12.3181 0.0000 0.0000
# 5 0.0000 0.0000 0.0000 0.0000 4.4636 0.0000
# 6 0.0000 0.0000 0.0000 0.0000 0.0000 15.8795
#
#
#
# Elastic Compliance Matrix: (Units=1/GPa)
#
#
# Indices 1 2 3 4 5 6 
#
# 1 0.012395 -0.004530 -0.004466 0.000000 0.000000 0.000000
# 2 -0.004530 0.017897 -0.012006 0.000000 0.000000 0.000000
# 3 -0.004466 -0.012006 0.038331 0.000000 0.000000 0.000000
# 4 0.000000 0.000000 0.000000 0.081182 0.000000 0.000000
# 5 0.000000 0.000000 0.000000 0.000000 0.224033 0.000000
# 6 0.000000 0.000000 0.000000 0.000000 0.000000 0.062974
#
#
# Mechanical properties :
#
#
# Convention : Reuss Voigt Hill
#
# Bulk Modulus (GPa) = 37.56774 49.35494 43.46134
# Shear Modulus (GPa) = 10.25247 15.28305 12.76776
#
# Velocity S-wave (km/s) = 2.65653 3.24344 2.96454
# Velocity P-wave (km/s) = 5.93875 6.92815 6.45244
#
# Compressibility (1/GPa) = 0.02661858
#
# Stress axis : x y z
#
# Youngs Moduli (GPa) = 80.68054 55.87676 26.08851
#
# Poissons Ratio (x) = 0.25311 0.11652
# Poissons Ratio (y) = 0.36547 0.31321
# Poissons Ratio (z) = 0.36035 0.67084
#
# Static dielectric constant tensor:
#      x y z
#    x 2.926140 0.000000 0.000000 
#    y 0.000000 3.333560 0.000000 
#    z 0.000000 0.000000 2.608480 
# 
# 
# High freq. dielectric constant tensor:
#      x y z
#    x 1.544750 0.000000 0.000000 
#    y 0.000000 1.555970 0.000000 
#    z 0.000000 0.000000 1.501560 
# 
# From -- ./inp_files/33528.got.cif
#   From: 2010.03.12/outbox.cif.g09.slc.cpg/sg69_17_cif.got.tgz:33528.got - 2010.04.10 23:52:46.
