data_PCOD8283402
_publ_section_title
;
Structure prediction by ZEFSAII (Michael W. Deem and Ramdas Pophale) SiO2 
 PCOD8283402
Probable space group: C C C A
;
_chemical_formula_sum "Si O2"
_cell_formula_units_Z 96
_cell_length_a 9.359905
_cell_length_b 27.664145
_cell_length_c 17.068950
_cell_angle_alpha 90.000000
_cell_angle_beta 90.000000
_cell_angle_gamma 90.000000
_cell_volume 4419.727558
_symmetry_space_group_name_H-M "C C C A"
_symmetry_group_IT_number 68
_space_group.IT_coordinate_system_code '2'
_symmetry_cell_setting 'orthorhombic'
loop_
_space_group_symop_operation_xyz
x,y,z
-x,1/2-y,z
x,1/2-y,1/2-z
-x,y,1/2-z
-x,-y,-z
x,1/2+y,-z
-x,1/2+y,1/2+z
x,-y,1/2+z
1/2+x,1/2+y,z
1/2-x,-y,z
1/2+x,-y,1/2-z
1/2-x,1/2+y,1/2-z
1/2-x,1/2-y,-z
1/2+x,y,-z
1/2-x,y,1/2+z
1/2+x,1/2-y,1/2+z
loop_
_atom_site_type_symbol
_atom_site_label
_atom_site_fract_x
_atom_site_fract_y
_atom_site_fract_z
Si Si1 0.655482 0.956849 0.254941
Si Si2 0.991013 0.693568 0.930838
Si Si3 0.743070 0.943638 0.079729
Si Si4 0.838951 0.301500 0.279640
Si Si5 0.771873 0.632933 0.657187
Si Si6 0.038985 0.891517 0.038345
O O1 0.500000 0.980360 0.250000
O O2 0.714693 0.937144 0.172042
O O3 0.639407 0.914597 0.319148
O O4 0.750000 0.000000 0.289139
O O5 0.851501 0.690265 0.873208
O O6 0.000000 0.750000 0.952232
O O7 0.135424 0.670680 0.893714
O O8 0.969080 0.664061 0.010049
O O9 0.887489 0.915678 0.056310
O O10 0.750000 0.000000 0.058042
O O11 0.613142 0.922067 0.030099
O O12 0.781901 0.250000 0.250000
O O13 0.733399 0.340371 0.239416
O O14 0.000000 0.309107 0.250000
O O15 0.630327 0.612510 0.617074
#
# Coordination Sequence:
#
# PCOD8283402 Si02
#       6
#    16  16  16  16  16  16
#     4  11  26  45  73 103 136 181 235 290 356 428
#     4  11  21  42  69 100 141 187 242 283 350 428
#     4  11  26  47  70  99 142 182 232 287 357 423
#     4   9  15  33  62  95 126 175 237 286 333 412
#     4  11  22  39  66 101 138 178 236 294 346 418
#     4  12  25  43  68 106 140 186 228 293 356 427
#
# _framework density 21.720794000000001
#
# number of rings (size 3 to 8) (size 9 to 14) (size 15 to 20)
#    0.000    1.167    5.000    4.000    4.667    1.333 
#    0.000    0.000    0.000    0.000    0.000    0.000 
#    0.000    0.000    0.000    0.000    0.000    0.000 
#
# Total GULP energy -594802.997751 kJ/mol
# GULP energy per Si atom -12391.729120 kJ/mol
# Density = 2.167136 g / cm^3
# Si number density = 21.720794 Si / 1000 Ang^3
#
#
#
# Elastic Constant Matrix: (Units=GPa)
#
#
# Indices 1 2 3 4 5 6 
#
# 1 85.3337 41.6261 18.9379 0.0000 0.0000 0.0000
# 2 41.6261 154.5961 38.7266 0.0000 0.0000 0.0000
# 3 18.9379 38.7266 55.9034 0.0000 0.0000 0.0000
# 4 0.0000 0.0000 0.0000 19.8592 0.0000 0.0000
# 5 0.0000 0.0000 0.0000 0.0000 17.5871 0.0000
# 6 0.0000 0.0000 0.0000 0.0000 0.0000 12.5883
#
#
#
# Elastic Compliance Matrix: (Units=1/GPa)
#
#
# Indices 1 2 3 4 5 6 
#
# 1 0.013782 -0.003075 -0.002539 0.000000 0.000000 0.000000
# 2 -0.003075 0.008513 -0.004855 0.000000 0.000000 0.000000
# 3 -0.002539 -0.004855 0.022112 0.000000 0.000000 0.000000
# 4 0.000000 0.000000 0.000000 0.050354 0.000000 0.000000
# 5 0.000000 0.000000 0.000000 0.000000 0.056860 0.000000
# 6 0.000000 0.000000 0.000000 0.000000 0.000000 0.079439
#
#
# Mechanical properties :
#
#
# Convention : Reuss Voigt Hill
#
# Bulk Modulus (GPa) = 42.61084 54.93494 48.77289
# Shear Modulus (GPa) = 19.24406 23.10976 21.17691
#
# Velocity S-wave (km/s) = 2.97976 3.26536 3.12582
# Velocity P-wave (km/s) = 5.61238 6.28992 5.96078
#
# Compressibility (1/GPa) = 0.02346821
#
# Stress axis : x y z
#
# Youngs Moduli (GPa) = 72.55795 117.47123 45.22519
#
# Poissons Ratio (x) = 0.36122 0.11481
# Poissons Ratio (y) = 0.22311 0.21959
# Poissons Ratio (z) = 0.18420 0.57037
#
# Static dielectric constant tensor:
#      x y z
#    x 3.595010 0.000000 0.000000 
#    y 0.000000 4.175590 0.000000 
#    z 0.000000 0.000000 4.295180 
# 
# 
# High freq. dielectric constant tensor:
#      x y z
#    x 1.820630 0.000000 0.000000 
#    y 0.000000 1.873900 0.000000 
#    z 0.000000 0.000000 1.854050 
# 
# From -- ./inp_files/36460.got.cif
#   From: 2010.03.12/outbox.cif.g09.slc.cpg/sg68_19_cif.got.tgz:36460.got - 2010.04.10 23:14:56.
