data_PCOD8283336
_publ_section_title
;
Structure prediction by ZEFSAII (Michael W. Deem and Ramdas Pophale) SiO2 
 PCOD8283336
Probable space group: C C C A
;
_chemical_formula_sum "Si O2"
_cell_formula_units_Z 128
_cell_length_a 16.975052
_cell_length_b 17.990334
_cell_length_c 24.571805
_cell_angle_alpha 90.000000
_cell_angle_beta 90.000000
_cell_angle_gamma 90.000000
_cell_volume 7503.906254
_symmetry_space_group_name_H-M "C C C A"
_symmetry_group_IT_number 68
_space_group.IT_coordinate_system_code '2'
_symmetry_cell_setting 'orthorhombic'
loop_
_space_group_symop_operation_xyz
x,y,z
-x,1/2-y,z
x,1/2-y,1/2-z
-x,y,1/2-z
-x,-y,-z
x,1/2+y,-z
-x,1/2+y,1/2+z
x,-y,1/2+z
1/2+x,1/2+y,z
1/2-x,-y,z
1/2+x,-y,1/2-z
1/2-x,1/2+y,1/2-z
1/2-x,1/2-y,-z
1/2+x,y,-z
1/2-x,y,1/2+z
1/2+x,1/2-y,1/2+z
loop_
_atom_site_type_symbol
_atom_site_label
_atom_site_fract_x
_atom_site_fract_y
_atom_site_fract_z
Si Si1 0.252780 0.734060 0.402649
Si Si2 0.871661 0.250208 0.189595
Si Si3 0.905126 0.927825 0.020592
Si Si4 0.998723 0.626906 0.688255
Si Si5 0.749162 0.917774 0.458459
Si Si6 0.363386 0.828353 0.475565
Si Si7 0.417925 0.728051 0.568567
Si Si8 0.474669 0.065364 0.923261
O O1 0.294872 0.754870 0.347226
O O2 0.268634 0.646733 0.414695
O O3 0.289221 0.783926 0.450936
O O4 0.159991 0.752621 0.396180
O O5 0.837658 0.250000 0.250000
O O6 0.925768 0.178803 0.181045
O O7 0.920443 0.325047 0.178259
O O8 0.929006 0.857943 0.056271
O O9 0.921590 0.995214 0.061615
O O10 0.813507 0.922154 0.007106
O O11 0.950280 0.933303 0.962967
O O12 0.000101 0.563893 0.640734
O O13 0.000000 0.592709 0.750000
O O14 0.832133 0.896878 0.487182
O O15 0.750000 0.000000 0.430319
O O16 0.413367 0.771858 0.511714
O O17 0.422589 0.859988 0.430552
O O18 0.500000 0.750000 0.599016
#
# Coordination Sequence:
#
# PCOD8283336 Si02
#       8
#    16  16  16  16  16  16  16  16
#     4  11  20  32  53  76  98 140 178 211 262 309
#     4   9  18  32  53  80 100 126 168 215 260 303
#     4  11  21  32  46  73 108 142 167 203 255 310
#     4   9  18  32  51  78 109 132 162 209 258 308
#     4  11  20  32  45  72 110 138 169 206 249 314
#     4  11  19  30  50  74 101 139 173 206 250 306
#     4  11  21  33  48  73 105 136 174 212 250 312
#     4  11  21  29  49  77 107 139 168 201 258 316
#
# _framework density 17.057782
#
# number of rings (size 3 to 8) (size 9 to 14) (size 15 to 20)
#    0.000    1.500    6.250    2.250    0.000    0.000 
#    0.000    0.000    0.000    0.375   13.000    0.000 
#    0.000    0.000    0.000    0.000    0.000    0.000 
#
# Total GULP energy -793250.874450 kJ/mol
# GULP energy per Si atom -12394.544913 kJ/mol
# Density = 1.701896 g / cm^3
# Si number density = 17.057782 Si / 1000 Ang^3
#
#
#
# Elastic Constant Matrix: (Units=GPa)
#
#
# Indices 1 2 3 4 5 6 
#
# 1 90.3782 16.5806 35.3710 0.0000 0.0000 0.0000
# 2 16.5806 74.3343 29.0740 0.0000 0.0000 0.0000
# 3 35.3710 29.0740 102.4143 0.0000 0.0000 0.0000
# 4 0.0000 0.0000 0.0000 22.0405 0.0000 0.0000
# 5 0.0000 0.0000 0.0000 0.0000 22.7833 0.0000
# 6 0.0000 0.0000 0.0000 0.0000 0.0000 19.4278
#
#
#
# Elastic Compliance Matrix: (Units=1/GPa)
#
#
# Indices 1 2 3 4 5 6 
#
# 1 0.012901 -0.001277 -0.004093 0.000000 0.000000 0.000000
# 2 -0.001277 0.015259 -0.003891 0.000000 0.000000 0.000000
# 3 -0.004093 -0.003891 0.012283 0.000000 0.000000 0.000000
# 4 0.000000 0.000000 0.000000 0.045371 0.000000 0.000000
# 5 0.000000 0.000000 0.000000 0.000000 0.043892 0.000000
# 6 0.000000 0.000000 0.000000 0.000000 0.000000 0.051473
#
#
# Mechanical properties :
#
#
# Convention : Reuss Voigt Hill
#
# Bulk Modulus (GPa) = 45.61823 47.68646 46.65234
# Shear Modulus (GPa) = 24.15380 25.25706 24.70543
#
# Velocity S-wave (km/s) = 3.76706 3.85213 3.80983
# Velocity P-wave (km/s) = 6.76183 6.91388 6.83828
#
# Compressibility (1/GPa) = 0.02192106
#
# Stress axis : x y z
#
# Youngs Moduli (GPa) = 77.51490 65.53345 81.41653
#
# Poissons Ratio (x) = 0.08366 0.33325
# Poissons Ratio (y) = 0.09896 0.31679
# Poissons Ratio (z) = 0.31728 0.25499
#
# Static dielectric constant tensor:
#      x y z
#    x 3.239160 0.000000 0.000000 
#    y 0.000000 3.249220 0.000000 
#    z 0.000000 0.000000 3.012150 
# 
# 
# High freq. dielectric constant tensor:
#      x y z
#    x 1.664860 0.000000 0.000000 
#    y 0.000000 1.654380 0.000000 
#    z 0.000000 0.000000 1.618590 
# 
# From -- ./inp_files/46200.got.cif
#   From: 2010.03.12/outbox.cif.g09.slc.cpg/sg68_24_cif.got.tgz:46200.got - 2010.04.10 23:14:56.
