data_PCOD8283842
_publ_section_title
;
Structure prediction by ZEFSAII (Michael W. Deem and Ramdas Pophale) SiO2 
 PCOD8283842
Probable space group: F M M M
;
_chemical_formula_sum "Si O2"
_cell_formula_units_Z 136
_cell_length_a 20.840743
_cell_length_b 29.473627
_cell_length_c 13.706618
_cell_angle_alpha 90.000000
_cell_angle_beta 90.000000
_cell_angle_gamma 90.000000
_cell_volume 8419.321434
_symmetry_space_group_name_H-M "F M M M"
_symmetry_group_IT_number 69
_symmetry_cell_setting 'orthorhombic'
loop_
_space_group_symop_operation_xyz
x,y,z
-x,-y,z
x,-y,-z
-x,y,-z
-x,-y,-z
x,y,-z
-x,y,z
x,-y,z
x,1/2+y,1/2+z
-x,1/2-y,1/2+z
x,1/2-y,1/2-z
-x,1/2+y,1/2-z
-x,1/2-y,1/2-z
x,1/2+y,1/2-z
-x,1/2+y,1/2+z
x,1/2-y,1/2+z
1/2+x,y,1/2+z
1/2-x,-y,1/2+z
1/2+x,-y,1/2-z
1/2-x,y,1/2-z
1/2-x,-y,1/2-z
1/2+x,y,1/2-z
1/2-x,y,1/2+z
1/2+x,-y,1/2+z
1/2+x,1/2+y,z
1/2-x,1/2-y,z
1/2+x,1/2-y,-z
1/2-x,1/2+y,-z
1/2-x,1/2-y,-z
1/2+x,1/2+y,-z
1/2-x,1/2+y,z
1/2+x,1/2-y,z
loop_
_atom_site_type_symbol
_atom_site_label
_atom_site_fract_x
_atom_site_fract_y
_atom_site_fract_z
Si Si1 0.750000 0.750000 0.250000
Si Si2 0.651216 0.051943 0.275485
Si Si3 0.808545 0.321418 0.611116
Si Si4 0.233414 0.087774 0.388314
Si Si5 0.927576 0.618720 0.387748
O O1 0.796070 0.720135 0.317468
O O2 0.709360 0.054935 0.353033
O O3 0.670298 0.077882 0.175529
O O4 0.588188 0.075442 0.320278
O O5 0.634968 0.000000 0.252663
O O6 0.806303 0.303831 0.500000
O O7 0.754980 0.360226 0.627023
O O8 0.879127 0.340417 0.636721
O O9 0.217262 0.077078 0.500000
O O10 0.918326 0.603723 0.500000
O O11 0.000000 0.635013 0.366824
#
# Coordination Sequence:
#
# PCOD8283842 Si02
#       5
#     8  32  32  32  32
#     4  12  18  28  50  74  98 112 130 182 236 270
#     4  10  18  26  42  70  94 115 152 194 227 264
#     4   9  18  30  46  69  92 117 148 179 220 275
#     4   9  17  30  45  63  93 127 151 179 227 277
#     4   9  18  33  49  63  87 123 155 185 224 268
#
# _framework density 16.153320000000001
#
# number of rings (size 3 to 8) (size 9 to 14) (size 15 to 20)
#    0.000    2.588    0.000    6.706    0.000    3.765 
#    0.000    1.765    0.000    0.706    0.000    1.647 
#    0.000    0.000    0.000    0.000    0.000    0.000 
#
# Total GULP energy -421577.542241 kJ/mol
# GULP energy per Si atom -12399.339478 kJ/mol
# Density = 1.611655 g / cm^3
# Si number density = 16.153320 Si / 1000 Ang^3
#
#
#
# Elastic Constant Matrix: (Units=GPa)
#
#
# Indices 1 2 3 4 5 6 
#
# 1 89.4064 49.0993 51.7656 0.0000 0.0000 0.0000
# 2 49.0993 98.7505 60.8039 0.0000 0.0000 0.0000
# 3 51.7656 60.8039 117.8085 0.0000 0.0000 0.0000
# 4 0.0000 0.0000 0.0000 21.2201 0.0000 0.0000
# 5 0.0000 0.0000 0.0000 0.0000 23.4178 0.0000
# 6 0.0000 0.0000 0.0000 0.0000 0.0000 12.2809
#
#
#
# Elastic Compliance Matrix: (Units=1/GPa)
#
#
# Indices 1 2 3 4 5 6 
#
# 1 0.016885 -0.005610 -0.004524 0.000000 0.000000 0.000000
# 2 -0.005610 0.016708 -0.006158 0.000000 0.000000 0.000000
# 3 -0.004524 -0.006158 0.013655 0.000000 0.000000 0.000000
# 4 0.000000 0.000000 0.000000 0.047125 0.000000 0.000000
# 5 0.000000 0.000000 0.000000 0.000000 0.042703 0.000000
# 6 0.000000 0.000000 0.000000 0.000000 0.000000 0.081427
#
#
# Mechanical properties :
#
#
# Convention : Reuss Voigt Hill
#
# Bulk Modulus (GPa) = 68.19793 69.92254 69.06023
# Shear Modulus (GPa) = 19.53325 21.00353 20.26839
#
# Velocity S-wave (km/s) = 3.48119 3.60982 3.54609
# Velocity P-wave (km/s) = 7.64650 7.79456 7.72089
#
# Compressibility (1/GPa) = 0.01466320
#
# Stress axis : x y z
#
# Youngs Moduli (GPa) = 59.22442 59.85328 73.23516
#
# Poissons Ratio (x) = 0.33576 0.33132
# Poissons Ratio (y) = 0.33223 0.45100
# Poissons Ratio (z) = 0.26793 0.36859
#
# Static dielectric constant tensor:
#      x y z
#    x 2.891500 0.000000 0.000000 
#    y 0.000000 2.924390 0.000000 
#    z 0.000000 0.000000 3.193020 
# 
# 
# High freq. dielectric constant tensor:
#      x y z
#    x 1.590010 0.000000 0.000000 
#    y 0.000000 1.608770 0.000000 
#    z 0.000000 0.000000 1.628320 
# 
# From -- ./inp_files/16745.got.cif
#   From: 2010.03.12/outbox.cif.g09.slc.cpg/sg69_9_cif.got.tgz:16745.got - 2010.04.10 23:52:46.
