data_PCOD8283237
_publ_section_title
;
Structure prediction by ZEFSAII (Michael W. Deem and Ramdas Pophale) SiO2 
 PCOD8283237
Probable space group: C C C A
;
_chemical_formula_sum "Si O2"
_cell_formula_units_Z 64
_cell_length_a 27.558569
_cell_length_b 11.033877
_cell_length_c 8.968265
_cell_angle_alpha 90.000000
_cell_angle_beta 90.000000
_cell_angle_gamma 90.000000
_cell_volume 2727.050835
_symmetry_space_group_name_H-M "C C C A"
_symmetry_group_IT_number 68
_space_group.IT_coordinate_system_code '2'
_symmetry_cell_setting 'orthorhombic'
loop_
_space_group_symop_operation_xyz
x,y,z
-x,1/2-y,z
x,1/2-y,1/2-z
-x,y,1/2-z
-x,-y,-z
x,1/2+y,-z
-x,1/2+y,1/2+z
x,-y,1/2+z
1/2+x,1/2+y,z
1/2-x,-y,z
1/2+x,-y,1/2-z
1/2-x,1/2+y,1/2-z
1/2-x,1/2-y,-z
1/2+x,y,-z
1/2-x,y,1/2+z
1/2+x,1/2-y,1/2+z
loop_
_atom_site_type_symbol
_atom_site_label
_atom_site_fract_x
_atom_site_fract_y
_atom_site_fract_z
Si Si1 0.690941 0.750000 0.750000
Si Si2 0.331994 0.750000 0.250000
Si Si3 0.518275 0.619315 0.918096
Si Si4 0.129591 0.607769 0.010231
Si Si5 0.206558 0.588496 0.504324
O O1 0.658685 0.688782 0.875404
O O2 0.720611 0.649912 0.654855
O O3 0.367567 0.662749 0.343692
O O4 0.294838 0.817178 0.360504
O O5 0.500000 0.750000 0.985655
O O6 0.500000 0.611897 0.750000
O O7 0.575728 0.606966 0.927911
O O8 0.500000 0.500000 0.000000
O O9 0.153587 0.474751 0.998365
O O10 0.250000 0.500000 0.544310
#
# Coordination Sequence:
#
# PCOD8283237 Si02
#       5
#     8   8  16  16  16
#     4  10  24  45  73  98 152 188 249 308 377 450
#     4  10  26  45  73 106 152 190 253 310 389 450
#     4  11  28  48  76 113 154 200 261 321 392 464
#     4  11  25  44  75 104 149 196 247 316 382 463
#     4  11  26  46  73 110 147 203 254 312 387 465
#
# _framework density 23.468575999999999
#
# number of rings (size 3 to 8) (size 9 to 14) (size 15 to 20)
#    0.000    1.250    0.000    3.000   14.000   10.500 
#    0.000    3.750    0.000    0.000    0.000    0.000 
#    0.000    0.000    0.000    0.000    0.000    0.000 
#
# Total GULP energy -396704.423353 kJ/mol
# GULP energy per Si atom -12397.013230 kJ/mol
# Density = 2.341516 g / cm^3
# Si number density = 23.468576 Si / 1000 Ang^3
#
#
#
# Elastic Constant Matrix: (Units=GPa)
#
#
# Indices 1 2 3 4 5 6 
#
# 1 128.8606 42.6353 34.6559 0.0000 0.0000 0.0000
# 2 42.6353 152.5882 51.1586 0.0000 0.0000 0.0000
# 3 34.6559 51.1586 140.8717 0.0000 0.0000 0.0000
# 4 0.0000 0.0000 0.0000 33.0353 0.0000 0.0000
# 5 0.0000 0.0000 0.0000 0.0000 22.1963 0.0000
# 6 0.0000 0.0000 0.0000 0.0000 0.0000 49.4241
#
#
#
# Elastic Compliance Matrix: (Units=1/GPa)
#
#
# Indices 1 2 3 4 5 6 
#
# 1 0.008803 -0.001974 -0.001449 0.000000 0.000000 0.000000
# 2 -0.001974 0.007905 -0.002385 0.000000 0.000000 0.000000
# 3 -0.001449 -0.002385 0.008321 0.000000 0.000000 0.000000
# 4 0.000000 0.000000 0.000000 0.030271 0.000000 0.000000
# 5 0.000000 0.000000 0.000000 0.000000 0.045053 0.000000
# 6 0.000000 0.000000 0.000000 0.000000 0.000000 0.020233
#
#
# Mechanical properties :
#
#
# Convention : Reuss Voigt Hill
#
# Bulk Modulus (GPa) = 74.55201 75.46890 75.01045
# Shear Modulus (GPa) = 36.58390 40.52251 38.55321
#
# Velocity S-wave (km/s) = 3.95251 4.15983 4.05749
# Velocity P-wave (km/s) = 7.25710 7.43636 7.34728
#
# Compressibility (1/GPa) = 0.01341345
#
# Stress axis : x y z
#
# Youngs Moduli (GPa) = 113.59664 126.50562 120.17451
#
# Poissons Ratio (x) = 0.24972 0.17411
# Poissons Ratio (y) = 0.22424 0.28662
# Poissons Ratio (z) = 0.16458 0.30172
#
# Static dielectric constant tensor:
#      x y z
#    x 4.188040 0.000000 0.000000 
#    y 0.000000 5.092730 0.000000 
#    z 0.000000 0.000000 3.300390 
# 
# 
# High freq. dielectric constant tensor:
#      x y z
#    x 1.921200 0.000000 0.000000 
#    y 0.000000 1.951830 0.000000 
#    z 0.000000 0.000000 1.948210 
# 
# From -- ./inp_files/9383.got.cif
#   From: 2010.03.12/outbox.cif.g09.slc.cpg/sg68_5_cif.got.tgz:9383.got - 2010.04.10 23:14:56.
