data_PCOD8283202
_publ_section_title
;
Structure prediction by ZEFSAII (Michael W. Deem and Ramdas Pophale) SiO2 
 PCOD8283202
Probable space group: C C C A
;
_chemical_formula_sum "Si O2"
_cell_formula_units_Z 56
_cell_length_a 5.649157
_cell_length_b 14.917695
_cell_length_c 28.234702
_cell_angle_alpha 90.000000
_cell_angle_beta 90.000000
_cell_angle_gamma 90.000000
_cell_volume 2379.406133
_symmetry_space_group_name_H-M "C C C A"
_symmetry_group_IT_number 68
_space_group.IT_coordinate_system_code '2'
_symmetry_cell_setting 'orthorhombic'
loop_
_space_group_symop_operation_xyz
x,y,z
-x,1/2-y,z
x,1/2-y,1/2-z
-x,y,1/2-z
-x,-y,-z
x,1/2+y,-z
-x,1/2+y,1/2+z
x,-y,1/2+z
1/2+x,1/2+y,z
1/2-x,-y,z
1/2+x,-y,1/2-z
1/2-x,1/2+y,1/2-z
1/2-x,1/2-y,-z
1/2+x,y,-z
1/2-x,y,1/2+z
1/2+x,1/2-y,1/2+z
loop_
_atom_site_type_symbol
_atom_site_label
_atom_site_fract_x
_atom_site_fract_y
_atom_site_fract_z
Si Si1 0.835377 0.899599 0.706774
Si Si2 0.000000 0.750000 0.317972
Si Si3 0.122729 0.839861 0.619715
Si Si4 0.274414 0.601186 0.481439
O O1 0.643436 0.820989 0.713489
O O2 0.000000 0.874070 0.750000
O O3 0.950841 0.895034 0.654640
O O4 0.750000 0.000000 0.714587
O O5 0.148838 0.684802 0.350967
O O6 0.198613 0.899276 0.575179
O O7 0.000000 0.750000 0.600249
O O8 0.250000 0.500000 0.500471
O O9 0.517513 0.646179 0.503819
#
# Coordination Sequence:
#
# PCOD8283202 Si02
#       4
#    16   8  16  16
#     4  11  28  47  73 109 141 195 247 300 378 452
#     4  10  26  49  70 102 148 184 242 312 365 450
#     4  10  25  45  70 103 138 191 237 304 373 434
#     4  10  24  42  69 105 143 190 246 305 371 443
#
# _framework density 23.535284000000001
#
# number of rings (size 3 to 8) (size 9 to 14) (size 15 to 20)
#    0.000    1.714    0.000    0.000   16.000    8.571 
#    0.000    0.000    0.000    0.000    0.000    0.000 
#    0.000    0.000    0.000    0.000    0.000    0.000 
#
# Total GULP energy -346991.613249 kJ/mol
# GULP energy per Si atom -12392.557616 kJ/mol
# Density = 2.348172 g / cm^3
# Si number density = 23.535284 Si / 1000 Ang^3
#
#
#
# Elastic Constant Matrix: (Units=GPa)
#
#
# Indices 1 2 3 4 5 6 
#
# 1 188.6221 54.9857 63.5744 0.0000 0.0000 0.0000
# 2 54.9857 100.3598 44.7432 0.0000 0.0000 0.0000
# 3 63.5744 44.7432 127.6362 0.0000 0.0000 0.0000
# 4 0.0000 0.0000 0.0000 68.3463 0.0000 0.0000
# 5 0.0000 0.0000 0.0000 0.0000 36.8902 0.0000
# 6 0.0000 0.0000 0.0000 0.0000 0.0000 21.9149
#
#
#
# Elastic Compliance Matrix: (Units=1/GPa)
#
#
# Indices 1 2 3 4 5 6 
#
# 1 0.006929 -0.002676 -0.002513 0.000000 0.000000 0.000000
# 2 -0.002676 0.012843 -0.003169 0.000000 0.000000 0.000000
# 3 -0.002513 -0.003169 0.010198 0.000000 0.000000 0.000000
# 4 0.000000 0.000000 0.000000 0.014631 0.000000 0.000000
# 5 0.000000 0.000000 0.000000 0.000000 0.027107 0.000000
# 6 0.000000 0.000000 0.000000 0.000000 0.000000 0.045631
#
#
# Mechanical properties :
#
#
# Convention : Reuss Voigt Hill
#
# Bulk Modulus (GPa) = 75.45553 82.58053 79.01803
# Shear Modulus (GPa) = 36.10799 42.31793 39.21296
#
# Velocity S-wave (km/s) = 3.92114 4.24496 4.08626
# Velocity P-wave (km/s) = 7.25470 7.69353 7.47733
#
# Compressibility (1/GPa) = 0.01325284
#
# Stress axis : x y z
#
# Youngs Moduli (GPa) = 144.32844 77.86249 98.06225
#
# Poissons Ratio (x) = 0.20834 0.24644
# Poissons Ratio (y) = 0.38618 0.31081
# Poissons Ratio (z) = 0.36272 0.24678
#
# Static dielectric constant tensor:
#      x y z
#    x 4.790120 0.000000 0.000000 
#    y 0.000000 3.948990 0.000000 
#    z 0.000000 0.000000 3.984830 
# 
# 
# High freq. dielectric constant tensor:
#      x y z
#    x 1.951840 0.000000 0.000000 
#    y 0.000000 1.921970 0.000000 
#    z 0.000000 0.000000 1.935830 
# 
# From -- ./inp_files/47998.got.cif
#   From: 2010.03.12/outbox.cif.g09.slc.cpg/sg68_24_cif.got.tgz:47998.got - 2010.04.10 23:14:56.
