data_PCOD8283980
_publ_section_title
;
Structure prediction by ZEFSAII (Michael W. Deem and Ramdas Pophale) SiO2 
 PCOD8283980
Probable space group: F M M M
;
_chemical_formula_sum "Si O2"
_cell_formula_units_Z 208
_cell_length_a 24.444853
_cell_length_b 18.629316
_cell_length_c 26.803694
_cell_angle_alpha 90.000000
_cell_angle_beta 90.000000
_cell_angle_gamma 90.000000
_cell_volume 12206.158096
_symmetry_space_group_name_H-M "F M M M"
_symmetry_group_IT_number 69
_symmetry_cell_setting 'orthorhombic'
loop_
_space_group_symop_operation_xyz
x,y,z
-x,-y,z
x,-y,-z
-x,y,-z
-x,-y,-z
x,y,-z
-x,y,z
x,-y,z
x,1/2+y,1/2+z
-x,1/2-y,1/2+z
x,1/2-y,1/2-z
-x,1/2+y,1/2-z
-x,1/2-y,1/2-z
x,1/2+y,1/2-z
-x,1/2+y,1/2+z
x,1/2-y,1/2+z
1/2+x,y,1/2+z
1/2-x,-y,1/2+z
1/2+x,-y,1/2-z
1/2-x,y,1/2-z
1/2-x,-y,1/2-z
1/2+x,y,1/2-z
1/2-x,y,1/2+z
1/2+x,-y,1/2+z
1/2+x,1/2+y,z
1/2-x,1/2-y,z
1/2+x,1/2-y,-z
1/2-x,1/2+y,-z
1/2-x,1/2-y,-z
1/2+x,1/2+y,-z
1/2-x,1/2+y,z
1/2+x,1/2-y,z
loop_
_atom_site_type_symbol
_atom_site_label
_atom_site_fract_x
_atom_site_fract_y
_atom_site_fract_z
Si Si1 0.856925 0.837873 0.699579
Si Si2 0.935134 0.665633 0.598600
Si Si3 0.935673 0.920161 0.635757
Si Si4 0.146887 0.328962 0.684983
Si Si5 0.749383 0.418397 0.309290
Si Si6 0.935689 0.814446 0.554361
Si Si7 0.435193 0.580569 0.000000
O O1 0.913350 0.867060 0.677701
O O2 0.844957 0.756396 0.683955
O O3 0.865385 0.850755 0.758280
O O4 0.808385 0.884429 0.674745
O O5 0.902046 0.644073 0.648660
O O6 0.916931 0.746904 0.587148
O O7 0.915528 0.619226 0.550795
O O8 0.000000 0.656583 0.608944
O O9 0.919670 0.888218 0.581693
O O10 0.000000 0.921480 0.643225
O O11 0.910874 0.000000 0.639871
O O12 0.202093 0.369744 0.667810
O O13 0.754818 0.500000 0.329123
O O14 0.750000 0.415713 0.250000
O O15 0.907211 0.813888 0.500000
O O16 0.000000 0.807645 0.547092
O O17 0.411631 0.500000 0.000000
O O18 0.500000 0.581329 0.000000
#
# Coordination Sequence:
#
# PCOD8283980 Si02
#       7
#    32  32  32  32  32  32  16
#     4  10  19  33  50  73 104 136 167 206 253 298
#     4  10  18  31  50  75 105 136 168 207 256 300
#     4  10  20  32  48  74 106 136 166 201 250 310
#     4  10  20  31  51  77 100 130 174 214 243 296
#     4   9  18  33  51  70  95 128 168 212 253 292
#     4   9  16  29  49  71  97 130 168 207 247 294
#     4   9  18  32  50  72 100 135 173 213 256 300
#
# _framework density 17.040579000000001
#
# number of rings (size 3 to 8) (size 9 to 14) (size 15 to 20)
#    0.000    2.385    2.308    0.923    0.000    4.000 
#    0.000    3.077    0.000    1.846    2.000    2.154 
#    0.000    0.000    0.000    0.000    0.000    0.000 
#
# Total GULP energy -644511.115791 kJ/mol
# GULP energy per Si atom -12394.444534 kJ/mol
# Density = 1.700179 g / cm^3
# Si number density = 17.040579 Si / 1000 Ang^3
#
#
#
# Elastic Constant Matrix: (Units=GPa)
#
#
# Indices 1 2 3 4 5 6 
#
# 1 58.9676 37.9053 47.4808 0.0000 0.0000 0.0000
# 2 37.9053 119.4953 40.6269 0.0000 0.0000 0.0000
# 3 47.4808 40.6269 88.8715 0.0000 0.0000 0.0000
# 4 0.0000 0.0000 0.0000 -18.2460 0.0000 0.0000
# 5 0.0000 0.0000 0.0000 0.0000 9.3901 0.0000
# 6 0.0000 0.0000 0.0000 0.0000 0.0000 25.9225
#
#
#
# Elastic Compliance Matrix: (Units=1/GPa)
#
#
# Indices 1 2 3 4 5 6 
#
# 1 0.032258 -0.005178 -0.014867 0.000000 0.000000 0.000000
# 2 -0.005178 0.010740 -0.002143 0.000000 0.000000 0.000000
# 3 -0.014867 -0.002143 0.020175 0.000000 0.000000 0.000000
# 4 0.000000 0.000000 0.000000 -0.054806 0.000000 0.000000
# 5 0.000000 0.000000 0.000000 0.000000 0.106495 0.000000
# 6 0.000000 0.000000 0.000000 0.000000 0.000000 0.038576
#
#
# Mechanical properties :
#
#
# Convention : Reuss Voigt Hill
#
# Bulk Modulus (GPa) = 53.20290 57.70670 55.45480
# Shear Modulus (GPa) = 24.50017 12.83475 18.66746
#
# Velocity S-wave (km/s) = 3.79589 2.74740 3.31338
# Velocity P-wave (km/s) = 7.10639 6.63341 6.87397
#
# Compressibility (1/GPa) = 0.01879597
#
# Stress axis : x y z
#
# Youngs Moduli (GPa) = 31.00003 93.11259 49.56641
#
# Poissons Ratio (x) = 0.48213 0.73692
# Poissons Ratio (y) = 0.16052 0.10623
# Poissons Ratio (z) = 0.46088 0.19956
#
# Static dielectric constant tensor:
#      x y z
#    x 2.974960 0.000000 0.000000 
#    y 0.000000 3.416650 0.000000 
#    z 0.000000 0.000000 3.143380 
# 
# 
# High freq. dielectric constant tensor:
#      x y z
#    x 1.627090 0.000000 0.000000 
#    y 0.000000 1.669310 0.000000 
#    z 0.000000 0.000000 1.643090 
# 
# From -- ./inp_files/43269.got.cif
#   From: 2010.03.12/outbox.cif.g09.slc.cpg/sg69_22_cif.got.tgz:43269.got - 2010.04.10 23:52:46.
