data_PCOD8283360
_publ_section_title
;
Structure prediction by ZEFSAII (Michael W. Deem and Ramdas Pophale) SiO2 
 PCOD8283360
Probable space group: C C C A
;
_chemical_formula_sum "Si O2"
_cell_formula_units_Z 72
_cell_length_a 13.765507
_cell_length_b 19.835531
_cell_length_c 12.524064
_cell_angle_alpha 90.000000
_cell_angle_beta 90.000000
_cell_angle_gamma 90.000000
_cell_volume 3419.647343
_symmetry_space_group_name_H-M "C C C A"
_symmetry_group_IT_number 68
_space_group.IT_coordinate_system_code '2'
_symmetry_cell_setting 'orthorhombic'
loop_
_space_group_symop_operation_xyz
x,y,z
-x,1/2-y,z
x,1/2-y,1/2-z
-x,y,1/2-z
-x,-y,-z
x,1/2+y,-z
-x,1/2+y,1/2+z
x,-y,1/2+z
1/2+x,1/2+y,z
1/2-x,-y,z
1/2+x,-y,1/2-z
1/2-x,1/2+y,1/2-z
1/2-x,1/2-y,-z
1/2+x,y,-z
1/2-x,y,1/2+z
1/2+x,1/2-y,1/2+z
loop_
_atom_site_type_symbol
_atom_site_label
_atom_site_fract_x
_atom_site_fract_y
_atom_site_fract_z
Si Si1 0.634301 0.377035 0.676610
Si Si2 0.553974 0.321093 0.889340
Si Si3 0.611808 0.023602 0.263574
Si Si4 0.179324 0.381658 0.938125
Si Si5 0.750000 0.500000 0.415257
O O1 0.623894 0.335621 0.787651
O O2 0.533286 0.375568 0.611038
O O3 0.663830 0.455378 0.692186
O O4 0.722310 0.345947 0.605957
O O5 0.500000 0.250000 0.878493
O O6 0.615032 0.326278 0.998813
O O7 0.500000 0.005476 0.250000
O O8 0.619443 0.088865 0.338400
O O9 0.666038 0.038043 0.152305
O O10 0.198659 0.443092 0.016616
#
# Coordination Sequence:
#
# PCOD8283360 Si02
#       5
#    16  16  16  16   8
#     4  11  20  41  65  95 129 169 219 278 333 395
#     4  11  25  44  65  92 128 185 232 265 323 415
#     4  12  22  36  61 100 133 167 204 281 348 397
#     4  12  23  38  67 100 131 170 222 277 348 409
#     4  12  20  38  60 104 138 158 212 270 354 422
#
# _framework density 21.054804000000001
#
# number of rings (size 3 to 8) (size 9 to 14) (size 15 to 20)
#    0.000    0.444    8.889    1.333    3.111    2.667 
#    0.000    0.000    0.000    0.000    0.000    0.000 
#    0.000    0.000    0.000    0.000    0.000    0.000 
#
# Total GULP energy -446378.695355 kJ/mol
# GULP energy per Si atom -12399.408204 kJ/mol
# Density = 2.100688 g / cm^3
# Si number density = 21.054804 Si / 1000 Ang^3
#
#
#
# Elastic Constant Matrix: (Units=GPa)
#
#
# Indices 1 2 3 4 5 6 
#
# 1 100.2049 23.8513 62.2063 0.0000 0.0000 0.0000
# 2 23.8513 55.6065 34.1587 0.0000 0.0000 0.0000
# 3 62.2063 34.1587 115.6971 0.0000 0.0000 0.0000
# 4 0.0000 0.0000 0.0000 24.0799 0.0000 0.0000
# 5 0.0000 0.0000 0.0000 0.0000 44.4554 0.0000
# 6 0.0000 0.0000 0.0000 0.0000 0.0000 25.2378
#
#
#
# Elastic Compliance Matrix: (Units=1/GPa)
#
#
# Indices 1 2 3 4 5 6 
#
# 1 0.015129 -0.001823 -0.007596 0.000000 0.000000 0.000000
# 2 -0.001823 0.022187 -0.005570 0.000000 0.000000 0.000000
# 3 -0.007596 -0.005570 0.014372 0.000000 0.000000 0.000000
# 4 0.000000 0.000000 0.000000 0.041528 0.000000 0.000000
# 5 0.000000 0.000000 0.000000 0.000000 0.022494 0.000000
# 6 0.000000 0.000000 0.000000 0.000000 0.000000 0.039623
#
#
# Mechanical properties :
#
#
# Convention : Reuss Voigt Hill
#
# Bulk Modulus (GPa) = 46.06340 56.88235 51.47287
# Shear Modulus (GPa) = 25.96725 28.84078 27.40401
#
# Velocity S-wave (km/s) = 3.51567 3.70509 3.61162
# Velocity P-wave (km/s) = 6.19720 6.73636 6.47240
#
# Compressibility (1/GPa) = 0.02170921
#
# Stress axis : x y z
#
# Youngs Moduli (GPa) = 66.09770 45.07071 69.57930
#
# Poissons Ratio (x) = 0.08217 0.52854
# Poissons Ratio (y) = 0.12050 0.38759
# Poissons Ratio (z) = 0.50209 0.25106
#
# Static dielectric constant tensor:
#      x y z
#    x 4.037510 0.000000 0.000000 
#    y 0.000000 3.496270 0.000000 
#    z 0.000000 0.000000 3.917430 
# 
# 
# High freq. dielectric constant tensor:
#      x y z
#    x 1.839070 0.000000 0.000000 
#    y 0.000000 1.789760 0.000000 
#    z 0.000000 0.000000 1.825200 
# 
# From -- ./inp_files/13101.got.cif
#   From: 2010.03.12/outbox.cif.g09.slc.cpg/sg68_7_cif.got.tgz:13101.got - 2010.04.10 23:14:56.
