data_PCOD8283197
_publ_section_title
;
Structure prediction by ZEFSAII (Michael W. Deem and Ramdas Pophale) SiO2 
 PCOD8283197
Probable space group: C C C A
;
_chemical_formula_sum "Si O2"
_cell_formula_units_Z 96
_cell_length_a 8.519807
_cell_length_b 19.009404
_cell_length_c 26.725663
_cell_angle_alpha 90.000000
_cell_angle_beta 90.000000
_cell_angle_gamma 90.000000
_cell_volume 4328.393591
_symmetry_space_group_name_H-M "C C C A"
_symmetry_group_IT_number 68
_space_group.IT_coordinate_system_code '2'
_symmetry_cell_setting 'orthorhombic'
loop_
_space_group_symop_operation_xyz
x,y,z
-x,1/2-y,z
x,1/2-y,1/2-z
-x,y,1/2-z
-x,-y,-z
x,1/2+y,-z
-x,1/2+y,1/2+z
x,-y,1/2+z
1/2+x,1/2+y,z
1/2-x,-y,z
1/2+x,-y,1/2-z
1/2-x,1/2+y,1/2-z
1/2-x,1/2-y,-z
1/2+x,y,-z
1/2-x,y,1/2+z
1/2+x,1/2-y,1/2+z
loop_
_atom_site_type_symbol
_atom_site_label
_atom_site_fract_x
_atom_site_fract_y
_atom_site_fract_z
Si Si1 0.824809 0.070334 0.230233
Si Si2 0.761046 0.920124 0.537311
Si Si3 0.936219 0.670284 0.537398
Si Si4 0.326926 0.731197 0.365211
Si Si5 0.817016 0.371120 0.862151
Si Si6 0.396127 0.846642 0.704428
O O1 0.812869 0.121184 0.182307
O O2 0.710349 0.089804 0.275971
O O3 0.000000 0.063464 0.250000
O O4 0.750000 0.000000 0.207886
O O5 0.677092 0.859614 0.504924
O O6 0.684837 0.927021 0.592800
O O7 0.936228 0.891269 0.543132
O O8 0.750000 0.000000 0.514488
O O9 0.840835 0.674234 0.590066
O O10 0.000000 0.750000 0.525239
O O11 0.500000 0.750000 0.345358
O O12 0.233831 0.797819 0.388090
O O13 0.223954 0.710083 0.317218
O O14 0.991941 0.373482 0.839833
O O15 0.500000 0.814558 0.750000
#
# Coordination Sequence:
#
# PCOD8283197 Si02
#       6
#    16  16  16  16  16  16
#     4  11  23  42  66  94 137 184 232 290 361 435
#     4  12  26  46  72 105 145 183 239 300 366 430
#     4  11  25  46  72 104 140 191 237 293 364 434
#     4  11  22  43  67  98 138 177 241 289 358 419
#     4  11  23  41  67  98 136 181 231 297 349 433
#     4  10  24  42  65 101 132 179 235 290 356 421
#
# _framework density 22.179130000000001
#
# number of rings (size 3 to 8) (size 9 to 14) (size 15 to 20)
#    0.000    1.000    3.333    4.500    2.333    4.667 
#    0.000    4.167    0.000    0.000    0.000    0.000 
#    0.000    0.000    0.000    0.000    0.000    0.000 
#
# Total GULP energy -594829.320327 kJ/mol
# GULP energy per Si atom -12392.277507 kJ/mol
# Density = 2.212865 g / cm^3
# Si number density = 22.179130 Si / 1000 Ang^3
#
#
#
# Elastic Constant Matrix: (Units=GPa)
#
#
# Indices 1 2 3 4 5 6 
#
# 1 138.2274 34.9533 72.0981 0.0000 0.0000 0.0000
# 2 34.9533 106.0493 29.3103 0.0000 0.0000 0.0000
# 3 72.0981 29.3103 110.1476 0.0000 0.0000 0.0000
# 4 0.0000 0.0000 0.0000 57.8192 0.0000 0.0000
# 5 0.0000 0.0000 0.0000 0.0000 29.2828 0.0000
# 6 0.0000 0.0000 0.0000 0.0000 0.0000 41.5384
#
#
#
# Elastic Compliance Matrix: (Units=1/GPa)
#
#
# Indices 1 2 3 4 5 6 
#
# 1 0.011299 -0.001813 -0.006913 0.000000 0.000000 0.000000
# 2 -0.001813 0.010469 -0.001599 0.000000 0.000000 0.000000
# 3 -0.006913 -0.001599 0.014029 0.000000 0.000000 0.000000
# 4 0.000000 0.000000 0.000000 0.017295 0.000000 0.000000
# 5 0.000000 0.000000 0.000000 0.000000 0.034150 0.000000
# 6 0.000000 0.000000 0.000000 0.000000 0.000000 0.024074
#
#
# Mechanical properties :
#
#
# Convention : Reuss Voigt Hill
#
# Bulk Modulus (GPa) = 66.02245 69.68308 67.85276
# Shear Modulus (GPa) = 36.49204 40.26561 38.37882
#
# Velocity S-wave (km/s) = 4.06067 4.26546 4.16432
# Velocity P-wave (km/s) = 7.19846 7.46628 7.33359
#
# Compressibility (1/GPa) = 0.01514636
#
# Stress axis : x y z
#
# Youngs Moduli (GPa) = 88.50445 95.51869 71.27936
#
# Poissons Ratio (x) = 0.17321 0.49277
# Poissons Ratio (y) = 0.16049 0.11397
# Poissons Ratio (z) = 0.61185 0.15272
#
# Static dielectric constant tensor:
#      x y z
#    x 4.298790 0.000000 0.000000 
#    y 0.000000 4.343030 0.000000 
#    z 0.000000 0.000000 4.024830 
# 
# 
# High freq. dielectric constant tensor:
#      x y z
#    x 1.879800 0.000000 0.000000 
#    y 0.000000 1.868220 0.000000 
#    z 0.000000 0.000000 1.873390 
# 
# From -- ./inp_files/49306.got.cif
#   From: 2010.03.12/outbox.cif.g09.slc.cpg/sg68_25_cif.got.tgz:49306.got - 2010.04.10 23:14:56.
