data_PCOD8283384
_publ_section_title
;
Structure prediction by ZEFSAII (Michael W. Deem and Ramdas Pophale) SiO2 
 PCOD8283384
Probable space group: C C C A
;
_chemical_formula_sum "Si O2"
_cell_formula_units_Z 128
_cell_length_a 21.850339
_cell_length_b 11.935397
_cell_length_c 23.724011
_cell_angle_alpha 90.000000
_cell_angle_beta 90.000000
_cell_angle_gamma 90.000000
_cell_volume 6187.043440
_symmetry_space_group_name_H-M "C C C A"
_symmetry_group_IT_number 68
_space_group.IT_coordinate_system_code '2'
_symmetry_cell_setting 'orthorhombic'
loop_
_space_group_symop_operation_xyz
x,y,z
-x,1/2-y,z
x,1/2-y,1/2-z
-x,y,1/2-z
-x,-y,-z
x,1/2+y,-z
-x,1/2+y,1/2+z
x,-y,1/2+z
1/2+x,1/2+y,z
1/2-x,-y,z
1/2+x,-y,1/2-z
1/2-x,1/2+y,1/2-z
1/2-x,1/2-y,-z
1/2+x,y,-z
1/2-x,y,1/2+z
1/2+x,1/2-y,1/2+z
loop_
_atom_site_type_symbol
_atom_site_label
_atom_site_fract_x
_atom_site_fract_y
_atom_site_fract_z
Si Si1 0.181002 0.043774 0.261742
Si Si2 0.897058 0.985893 0.553978
Si Si3 0.322282 0.814221 0.906911
Si Si4 0.877450 0.412637 0.568583
Si Si5 0.599914 0.159289 0.201306
Si Si6 0.502856 0.373772 0.388669
Si Si7 0.808226 0.921423 0.861524
Si Si8 0.690570 0.834003 0.126005
O O1 0.161434 0.089192 0.200390
O O2 0.179514 0.141589 0.308237
O O3 0.250000 0.000000 0.262133
O O4 0.129666 0.952676 0.275079
O O5 0.856125 0.097642 0.552896
O O6 0.962855 0.027700 0.576751
O O7 0.906082 0.932594 0.492876
O O8 0.865544 0.890632 0.592756
O O9 0.328641 0.690514 0.934558
O O10 0.354797 0.796283 0.846849
O O11 0.256469 0.873146 0.897751
O O12 0.846115 0.525294 0.588259
O O13 0.931176 0.400586 0.615026
O O14 0.593100 0.250000 0.250000
O O15 0.533291 0.134954 0.173586
O O16 0.500000 0.250000 0.418279
O O17 0.799483 0.797269 0.884075
O O18 0.750000 0.000000 0.853194
#
# Coordination Sequence:
#
# PCOD8283384 Si02
#       8
#    16  16  16  16  16  16  16  16
#     4  11  21  38  66  97 139 177 216 267 335 417
#     4  11  25  42  70  96 128 183 222 280 348 394
#     4  11  22  42  65 101 136 169 224 280 332 410
#     4  12  25  46  65  96 138 168 232 291 332 405
#     4  11  22  38  68 101 132 170 221 280 343 390
#     4  11  23  45  68  96 129 170 231 286 335 402
#     4  11  26  40  62 100 134 180 219 273 341 402
#     4  12  22  43  66  97 139 179 225 268 339 421
#
# _framework density 20.688393999999999
#
# number of rings (size 3 to 8) (size 9 to 14) (size 15 to 20)
#    0.000    0.750    7.500    1.875    3.500    1.750 
#    0.000    0.625    0.000    0.000    3.250    0.000 
#    0.000    0.000    0.000    0.000    0.000    0.000 
#
# Total GULP energy -792907.713000 kJ/mol
# GULP energy per Si atom -12389.183016 kJ/mol
# Density = 2.064131 g / cm^3
# Si number density = 20.688394 Si / 1000 Ang^3
#
#
#
# Elastic Constant Matrix: (Units=GPa)
#
#
# Indices 1 2 3 4 5 6 
#
# 1 68.2197 26.5530 22.6270 0.0000 0.0000 0.0000
# 2 26.5530 98.8642 22.5143 0.0000 0.0000 0.0000
# 3 22.6270 22.5143 74.8241 0.0000 0.0000 0.0000
# 4 0.0000 0.0000 0.0000 32.2364 0.0000 0.0000
# 5 0.0000 0.0000 0.0000 0.0000 18.1328 0.0000
# 6 0.0000 0.0000 0.0000 0.0000 0.0000 37.4942
#
#
#
# Elastic Compliance Matrix: (Units=1/GPa)
#
#
# Indices 1 2 3 4 5 6 
#
# 1 0.017500 -0.003752 -0.004163 0.000000 0.000000 0.000000
# 2 -0.003752 0.011663 -0.002375 0.000000 0.000000 0.000000
# 3 -0.004163 -0.002375 0.015338 0.000000 0.000000 0.000000
# 4 0.000000 0.000000 0.000000 0.031021 0.000000 0.000000
# 5 0.000000 0.000000 0.000000 0.000000 0.055149 0.000000
# 6 0.000000 0.000000 0.000000 0.000000 0.000000 0.026671
#
#
# Mechanical properties :
#
#
# Convention : Reuss Voigt Hill
#
# Bulk Modulus (GPa) = 41.80333 42.81072 42.30702
# Shear Modulus (GPa) = 26.89687 28.92026 27.90857
#
# Velocity S-wave (km/s) = 3.60959 3.74290 3.67685
# Velocity P-wave (km/s) = 6.13370 6.27831 6.20642
#
# Compressibility (1/GPa) = 0.02392154
#
# Stress axis : x y z
#
# Youngs Moduli (GPa) = 57.14388 85.73810 65.19687
#
# Poissons Ratio (x) = 0.32169 0.27141
# Poissons Ratio (y) = 0.21441 0.15483
# Poissons Ratio (z) = 0.23789 0.20362
#
# Static dielectric constant tensor:
#      x y z
#    x 3.894640 0.000000 0.000000 
#    y 0.000000 3.860060 0.000000 
#    z 0.000000 0.000000 3.770340 
# 
# 
# High freq. dielectric constant tensor:
#      x y z
#    x 1.799200 0.000000 0.000000 
#    y 0.000000 1.814460 0.000000 
#    z 0.000000 0.000000 1.806650 
# 
# From -- ./inp_files/44739.got.cif
#   From: 2010.03.12/outbox.cif.g09.slc.cpg/sg68_23_cif.got.tgz:44739.got - 2010.04.10 23:14:56.
