data_PCOD8283696
_publ_section_title
;
Structure prediction by ZEFSAII (Michael W. Deem and Ramdas Pophale) SiO2 
 PCOD8283696
Probable space group: C C C A
;
_chemical_formula_sum "Si O2"
_cell_formula_units_Z 68
_cell_length_a 19.010534
_cell_length_b 5.087522
_cell_length_c 29.725448
_cell_angle_alpha 90.000000
_cell_angle_beta 90.000000
_cell_angle_gamma 90.000000
_cell_volume 2874.941587
_symmetry_space_group_name_H-M "C C C A"
_symmetry_group_IT_number 68
_space_group.IT_coordinate_system_code '2'
_symmetry_cell_setting 'orthorhombic'
loop_
_space_group_symop_operation_xyz
x,y,z
-x,1/2-y,z
x,1/2-y,1/2-z
-x,y,1/2-z
-x,-y,-z
x,1/2+y,-z
-x,1/2+y,1/2+z
x,-y,1/2+z
1/2+x,1/2+y,z
1/2-x,-y,z
1/2+x,-y,1/2-z
1/2-x,1/2+y,1/2-z
1/2-x,1/2-y,-z
1/2+x,y,-z
1/2-x,y,1/2+z
1/2+x,1/2-y,1/2+z
loop_
_atom_site_type_symbol
_atom_site_label
_atom_site_fract_x
_atom_site_fract_y
_atom_site_fract_z
Si Si1 0.610820 0.605289 0.294948
Si Si2 0.000000 0.250000 0.578729
Si Si3 0.500000 0.750000 0.750000
Si Si4 0.000000 0.750000 0.860138
Si Si5 0.250000 0.500000 0.659225
Si Si6 0.750000 0.000000 0.898950
Si Si7 0.359535 0.171696 0.028862
O O1 0.636134 0.750000 0.250000
O O2 0.547870 0.409854 0.284015
O O3 0.571950 0.799432 0.330903
O O4 0.679482 0.446386 0.311908
O O5 0.061006 0.162105 0.545026
O O6 0.018697 0.498437 0.609433
O O7 0.272770 0.244215 0.631488
O O8 0.813756 0.107449 0.927992
O O9 0.342248 0.460363 0.009920
#
# Coordination Sequence:
#
# PCOD8283696 Si02
#       7
#    16   8   4   8   8   8  16
#     4  12  27  46  72 106 139 197 244 297 359 431
#     4  12  25  41  69 104 143 178 241 290 367 409
#     4  12  24  48  72 102 142 184 252 284 360 434
#     4  12  23  45  68 100 142 192 229 305 350 437
#     4  12  30  46  76 104 154 180 248 308 360 416
#     4  12  26  50  68 110 138 196 232 298 368 432
#     4  12  24  44  72 102 141 187 236 292 352 438
#
# _framework density 23.652652
#
# number of rings (size 3 to 8) (size 9 to 14) (size 15 to 20)
#    0.000    0.000    2.353    7.765    4.941    0.000 
#    0.000    0.000    0.000    0.000    0.000    0.000 
#    0.000    0.000    0.000    0.000    0.000    0.000 
#
# Total GULP energy -421662.686486 kJ/mol
# GULP energy per Si atom -12401.843720 kJ/mol
# Density = 2.359882 g / cm^3
# Si number density = 23.652652 Si / 1000 Ang^3
#
#
#
# Elastic Constant Matrix: (Units=GPa)
#
#
# Indices 1 2 3 4 5 6 
#
# 1 158.2447 35.5625 38.9189 0.0000 0.0000 0.0000
# 2 35.5625 125.3139 48.1826 0.0000 0.0000 0.0000
# 3 38.9189 48.1826 94.8431 0.0000 0.0000 0.0000
# 4 0.0000 0.0000 0.0000 21.1120 0.0000 0.0000
# 5 0.0000 0.0000 0.0000 0.0000 -162.9822 0.0000
# 6 0.0000 0.0000 0.0000 0.0000 0.0000 28.7496
#
#
#
# Elastic Compliance Matrix: (Units=1/GPa)
#
#
# Indices 1 2 3 4 5 6 
#
# 1 0.007153 -0.001120 -0.002366 0.000000 0.000000 0.000000
# 2 -0.001120 0.010093 -0.004668 0.000000 0.000000 0.000000
# 3 -0.002366 -0.004668 0.013886 0.000000 0.000000 0.000000
# 4 0.000000 0.000000 0.000000 0.047366 0.000000 0.000000
# 5 0.000000 0.000000 0.000000 0.000000 -0.006136 0.000000
# 6 0.000000 0.000000 0.000000 0.000000 0.000000 0.034783
#
#
# Mechanical properties :
#
#
# Convention : Reuss Voigt Hill
#
# Bulk Modulus (GPa) = 67.45987 69.30331 68.38159
# Shear Modulus (GPa) = 38.94254 -5.57493 16.68381
#
# Velocity S-wave (km/s) = 4.06203 -1.53692 2.65876
# Velocity P-wave (km/s) = 7.11218 5.12002 6.19668
#
# Compressibility (1/GPa) = 0.01482363
#
# Stress axis : x y z
#
# Youngs Moduli (GPa) = 139.80148 99.08340 72.01537
#
# Poissons Ratio (x) = 0.11099 0.17040
# Poissons Ratio (y) = 0.15660 0.33614
# Poissons Ratio (z) = 0.33079 0.46248
#
# Static dielectric constant tensor:
#      x y z
#    x 4.501050 0.000000 0.000000 
#    y 0.000000 5.599780 0.000000 
#    z 0.000000 0.000000 4.667070 
# 
# 
# High freq. dielectric constant tensor:
#      x y z
#    x 1.948330 0.000000 0.000000 
#    y 0.000000 1.937130 0.000000 
#    z 0.000000 0.000000 1.954550 
# 
# From -- ./inp_files/51660.got.cif
#   From: 2010.03.12/outbox.cif.g09.slc.cpg/sg68_26_cif.got.tgz:51660.got - 2010.04.10 23:14:56.
