data_PCOD8283315
_publ_section_title
;
Structure prediction by ZEFSAII (Michael W. Deem and Ramdas Pophale) SiO2 
 PCOD8283315
Probable space group: C C C A
;
_chemical_formula_sum "Si O2"
_cell_formula_units_Z 60
_cell_length_a 30.129501
_cell_length_b 5.536878
_cell_length_c 16.402914
_cell_angle_alpha 90.000000
_cell_angle_beta 90.000000
_cell_angle_gamma 90.000000
_cell_volume 2736.389412
_symmetry_space_group_name_H-M "C C C A"
_symmetry_group_IT_number 68
_space_group.IT_coordinate_system_code '2'
_symmetry_cell_setting 'orthorhombic'
loop_
_space_group_symop_operation_xyz
x,y,z
-x,1/2-y,z
x,1/2-y,1/2-z
-x,y,1/2-z
-x,-y,-z
x,1/2+y,-z
-x,1/2+y,1/2+z
x,-y,1/2+z
1/2+x,1/2+y,z
1/2-x,-y,z
1/2+x,-y,1/2-z
1/2-x,1/2+y,1/2-z
1/2-x,1/2-y,-z
1/2+x,y,-z
1/2-x,y,1/2+z
1/2+x,1/2-y,1/2+z
loop_
_atom_site_type_symbol
_atom_site_label
_atom_site_fract_x
_atom_site_fract_y
_atom_site_fract_z
Si Si1 0.705374 0.386017 0.666132
Si Si2 0.500000 0.250000 0.250000
Si Si3 0.927863 0.567515 0.819429
Si Si4 0.865780 0.203432 0.049734
Si Si5 0.853554 0.750000 0.250000
O O1 0.718058 0.250000 0.750000
O O2 0.750000 0.500000 0.626373
O O3 0.678502 0.206051 0.606643
O O4 0.674373 0.614145 0.682190
O O5 0.470038 0.389983 0.182761
O O6 0.941329 0.750000 0.750000
O O7 0.914011 0.703013 0.903102
O O8 0.882312 0.435444 0.800638
O O9 0.864342 0.454303 0.000284
#
# Coordination Sequence:
#
# PCOD8283315 Si02
#       5
#    16   4  16  16   8
#     4  12  24  40  70 102 138 190 256 309 343 407
#     4  10  26  40  80 110 132 164 256 312 354 410
#     4  11  22  44  74 101 134 183 241 299 353 432
#     4  12  27  45  70 103 151 198 232 283 369 444
#     4  11  18  39  70  98 130 178 248 303 344 405
#
# _framework density 21.926704000000001
#
# number of rings (size 3 to 8) (size 9 to 14) (size 15 to 20)
#    0.000    0.533    6.667    2.000    3.733    1.067 
#    0.000    1.333    0.000    0.000    0.000    0.000 
#    0.000    0.000    0.000    0.000    0.000    0.000 
#
# Total GULP energy -371678.484105 kJ/mol
# GULP energy per Si atom -12389.282803 kJ/mol
# Density = 2.187680 g / cm^3
# Si number density = 21.926704 Si / 1000 Ang^3
#
#
#
# Elastic Constant Matrix: (Units=GPa)
#
#
# Indices 1 2 3 4 5 6 
#
# 1 160.1035 57.0225 50.7474 0.0000 0.0000 0.0000
# 2 57.0225 137.6904 53.1588 0.0000 0.0000 0.0000
# 3 50.7474 53.1588 100.2842 0.0000 0.0000 0.0000
# 4 0.0000 0.0000 0.0000 43.9699 0.0000 0.0000
# 5 0.0000 0.0000 0.0000 0.0000 6.4451 0.0000
# 6 0.0000 0.0000 0.0000 0.0000 0.0000 50.3705
#
#
#
# Elastic Compliance Matrix: (Units=1/GPa)
#
#
# Indices 1 2 3 4 5 6 
#
# 1 0.007928 -0.002181 -0.002856 0.000000 0.000000 0.000000
# 2 -0.002181 0.009731 -0.004055 0.000000 0.000000 0.000000
# 3 -0.002856 -0.004055 0.013566 0.000000 0.000000 0.000000
# 4 0.000000 0.000000 0.000000 0.022743 0.000000 0.000000
# 5 0.000000 0.000000 0.000000 0.000000 0.155156 0.000000
# 6 0.000000 0.000000 0.000000 0.000000 0.000000 0.019853
#
#
# Mechanical properties :
#
#
# Convention : Reuss Voigt Hill
#
# Bulk Modulus (GPa) = 76.67187 79.99283 78.33235
# Shear Modulus (GPa) = 19.88013 35.96706 27.92360
#
# Velocity S-wave (km/s) = 3.01435 4.05449 3.57248
# Velocity P-wave (km/s) = 6.86719 7.64720 7.26767
#
# Compressibility (1/GPa) = 0.01304259
#
# Stress axis : x y z
#
# Youngs Moduli (GPa) = 126.13809 102.76196 73.71240
#
# Poissons Ratio (x) = 0.22408 0.21051
# Poissons Ratio (y) = 0.27506 0.29889
# Poissons Ratio (z) = 0.36023 0.41669
#
# Static dielectric constant tensor:
#      x y z
#    x 4.060670 0.000000 0.000000 
#    y 0.000000 4.253570 0.000000 
#    z 0.000000 0.000000 3.912460 
# 
# 
# High freq. dielectric constant tensor:
#      x y z
#    x 1.864860 0.000000 0.000000 
#    y 0.000000 1.887900 0.000000 
#    z 0.000000 0.000000 1.834370 
# 
# From -- ./inp_files/33870.got.cif
#   From: 2010.03.12/outbox.cif.g09.slc.cpg/sg68_17_cif.got.tgz:33870.got - 2010.04.10 23:14:56.
