data_PCOD8283783
_publ_section_title
;
Structure prediction by ZEFSAII (Michael W. Deem and Ramdas Pophale) SiO2 
 PCOD8283783
Probable space group: F M M M
;
_chemical_formula_sum "Si O2"
_cell_formula_units_Z 128
_cell_length_a 30.518811
_cell_length_b 25.758081
_cell_length_c 9.441639
_cell_angle_alpha 90.000000
_cell_angle_beta 90.000000
_cell_angle_gamma 90.000000
_cell_volume 7422.129122
_symmetry_space_group_name_H-M "F M M M"
_symmetry_group_IT_number 69
_symmetry_cell_setting 'orthorhombic'
loop_
_space_group_symop_operation_xyz
x,y,z
-x,-y,z
x,-y,-z
-x,y,-z
-x,-y,-z
x,y,-z
-x,y,z
x,-y,z
x,1/2+y,1/2+z
-x,1/2-y,1/2+z
x,1/2-y,1/2-z
-x,1/2+y,1/2-z
-x,1/2-y,1/2-z
x,1/2+y,1/2-z
-x,1/2+y,1/2+z
x,1/2-y,1/2+z
1/2+x,y,1/2+z
1/2-x,-y,1/2+z
1/2+x,-y,1/2-z
1/2-x,y,1/2-z
1/2-x,-y,1/2-z
1/2+x,y,1/2-z
1/2-x,y,1/2+z
1/2+x,-y,1/2+z
1/2+x,1/2+y,z
1/2-x,1/2-y,z
1/2+x,1/2-y,-z
1/2-x,1/2+y,-z
1/2-x,1/2-y,-z
1/2+x,1/2+y,-z
1/2-x,1/2+y,z
1/2+x,1/2-y,z
loop_
_atom_site_type_symbol
_atom_site_label
_atom_site_fract_x
_atom_site_fract_y
_atom_site_fract_z
Si Si1 0.594851 0.661064 0.000000
Si Si2 0.250000 0.330067 0.750000
Si Si3 0.551496 0.057128 0.000000
Si Si4 0.696747 0.278710 0.500000
Si Si5 0.448265 0.356467 0.712807
Si Si6 0.305273 0.845038 0.500000
Si Si7 0.597071 0.215697 0.000000
O O1 0.568854 0.637575 0.130317
O O2 0.644183 0.638567 0.000000
O O3 0.592549 0.722819 0.000000
O O4 0.280548 0.296423 0.645554
O O5 0.219003 0.364851 0.644707
O O6 0.565783 0.090041 0.863036
O O7 0.500000 0.049554 0.000000
O O8 0.574106 0.000000 0.000000
O O9 0.698650 0.217085 0.500000
O O10 0.647726 0.300815 0.500000
O O11 0.500000 0.347285 0.706394
O O12 0.425788 0.306842 0.639733
#
# Coordination Sequence:
#
# PCOD8283783 Si02
#       7
#    16  16  16  16  32  16  16
#     4  11  21  30  42  66  99 128 155 192 229 258
#     4  10  17  26  40  56  76 110 159 198 223 262
#     4   8  16  34  55  69  84 111 149 190 234 285
#     4  10  17  26  39  56  79 113 156 195 227 258
#     4  10  20  32  47  67  90 123 162 193 225 264
#     4  10  18  27  39  56  82 118 153 187 226 260
#     4  10  20  31  43  61  92 134 168 188 215 260
#
# _framework density 17.245725
#
# number of rings (size 3 to 8) (size 9 to 14) (size 15 to 20)
#    0.000    2.125    0.000    6.750    0.000    7.000 
#    0.000    0.625    0.000    3.000    0.000    0.000 
#    0.000    0.000    0.000  254.250    0.000   28.250 
#
# Total GULP energy -396611.020269 kJ/mol
# GULP energy per Si atom -12394.094383 kJ/mol
# Density = 1.720647 g / cm^3
# Si number density = 17.245725 Si / 1000 Ang^3
#
#
#
# Elastic Constant Matrix: (Units=GPa)
#
#
# Indices 1 2 3 4 5 6 
#
# 1 124.0011 29.6406 60.2426 -0.0001 -0.0010 -0.0006
# 2 29.6406 62.0944 33.8178 0.0002 0.0023 0.0000
# 3 60.2426 33.8178 159.8605 0.0012 0.0033 0.0003
# 4 -0.0001 0.0002 0.0012 2.0559 0.0024 -0.0005
# 5 -0.0010 0.0023 0.0033 0.0024 23.8304 0.0010
# 6 -0.0006 0.0000 0.0003 -0.0005 0.0010 3.6416
#
#
#
# Elastic Compliance Matrix: (Units=1/GPa)
#
#
# Indices 1 2 3 4 5 6 
#
# 1 0.010406 -0.003200 -0.003244 0.000003 0.000001 0.000002
# 2 -0.003200 0.019186 -0.002853 0.000000 -0.000002 0.000000
# 3 -0.003244 -0.002853 0.008082 -0.000005 -0.000001 -0.000001
# 4 0.000003 0.000000 -0.000005 0.486413 -0.000049 0.000061
# 5 0.000001 -0.000002 -0.000001 -0.000049 0.041963 -0.000012
# 6 0.000002 0.000000 -0.000001 0.000061 -0.000012 0.274606
#
#
# Mechanical properties :
#
#
# Convention : Reuss Voigt Hill
#
# Bulk Modulus (GPa) = 52.41499 65.92866 59.17182
# Shear Modulus (GPa) = 5.77628 20.72258 13.24943
#
# Velocity S-wave (km/s) = 1.83212 3.47018 2.77478
# Velocity P-wave (km/s) = 5.91055 7.37348 6.68217
#
# Compressibility (1/GPa) = 0.01907851
#
# Stress axis : x y z
#
# Youngs Moduli (GPa) = 96.10263 52.12206 123.73903
#
# Poissons Ratio (x) = 0.16680 0.40145
# Poissons Ratio (y) = 0.30754 0.35299
# Poissons Ratio (z) = 0.31179 0.14869
#
# Static dielectric constant tensor:
#      x y z
#    x 3.569880 0.000000 0.000000 
#    y 0.000000 2.840140 0.000000 
#    z 0.000000 0.000000 3.582970 
# 
# 
# High freq. dielectric constant tensor:
#      x y z
#    x 1.677340 0.000000 0.000000 
#    y 0.000000 1.594170 0.000000 
#    z 0.000000 0.000000 1.688640 
# 
# From -- ./inp_files/5517.got.cif
#   From: 2010.03.12/outbox.cif.g09.slc.cpg/sg69_3_cif.got.tgz:5517.got - 2010.04.10 23:52:46.
