data_PCOD8283919
_publ_section_title
;
Structure prediction by ZEFSAII (Michael W. Deem and Ramdas Pophale) SiO2 
 PCOD8283919
Probable space group: F M M M
;
_chemical_formula_sum "Si O2"
_cell_formula_units_Z 112
_cell_length_a 24.465410
_cell_length_b 28.782644
_cell_length_c 8.634170
_cell_angle_alpha 90.000000
_cell_angle_beta 90.000000
_cell_angle_gamma 90.000000
_cell_volume 6080.002805
_symmetry_space_group_name_H-M "F M M M"
_symmetry_group_IT_number 69
_symmetry_cell_setting 'orthorhombic'
loop_
_space_group_symop_operation_xyz
x,y,z
-x,-y,z
x,-y,-z
-x,y,-z
-x,-y,-z
x,y,-z
-x,y,z
x,-y,z
x,1/2+y,1/2+z
-x,1/2-y,1/2+z
x,1/2-y,1/2-z
-x,1/2+y,1/2-z
-x,1/2-y,1/2-z
x,1/2+y,1/2-z
-x,1/2+y,1/2+z
x,1/2-y,1/2+z
1/2+x,y,1/2+z
1/2-x,-y,1/2+z
1/2+x,-y,1/2-z
1/2-x,y,1/2-z
1/2-x,-y,1/2-z
1/2+x,y,1/2-z
1/2-x,y,1/2+z
1/2+x,-y,1/2+z
1/2+x,1/2+y,z
1/2-x,1/2-y,z
1/2+x,1/2-y,-z
1/2-x,1/2+y,-z
1/2-x,1/2-y,-z
1/2+x,1/2+y,-z
1/2-x,1/2+y,z
1/2+x,1/2-y,z
loop_
_atom_site_type_symbol
_atom_site_label
_atom_site_fract_x
_atom_site_fract_y
_atom_site_fract_z
Si Si1 0.189619 0.000000 0.184077
Si Si2 0.190284 0.905451 0.317404
Si Si3 0.000000 0.300579 0.319346
Si Si4 0.000000 0.554316 0.816414
Si Si5 0.085251 0.623983 0.683652
O O1 0.250000 0.000000 0.250000
O O2 0.163417 0.046790 0.251201
O O3 0.188350 0.000000 0.000000
O O4 0.196007 0.907625 0.500000
O O5 0.250000 0.893685 0.250000
O O6 0.145053 0.868610 0.261443
O O7 0.000000 0.250000 0.250000
O O8 0.946807 0.329485 0.267226
O O9 0.000000 0.294337 0.500000
O O10 0.054000 0.578572 0.747263
O O11 0.000000 0.500000 0.768514
O O12 0.000000 0.560337 0.000000
O O13 0.090604 0.618869 0.500000
#
# Coordination Sequence:
#
# PCOD8283919 Si02
#       5
#    16  32  16  16  32
#     4  10  18  30  46  67  98 141 186 226 261 304
#     4  11  21  34  52  76 108 146 187 229 270 318
#     4   9  20  38  62  86 109 136 173 222 275 333
#     4  10  21  35  51  75 108 144 184 227 270 318
#     4  10  21  37  55  80 110 143 183 223 272 328
#
# _framework density 18.421044999999999
#
# number of rings (size 3 to 8) (size 9 to 14) (size 15 to 20)
#    0.000    1.857    0.000    7.714    2.000    4.571 
#    0.000    0.000    0.000    0.857    0.000    6.000 
#    0.000    0.000    0.000    0.000    0.000    0.000 
#
# Total GULP energy -347071.608638 kJ/mol
# GULP energy per Si atom -12395.414594 kJ/mol
# Density = 1.837912 g / cm^3
# Si number density = 18.421045 Si / 1000 Ang^3
#
#
#
# Elastic Constant Matrix: (Units=GPa)
#
#
# Indices 1 2 3 4 5 6 
#
# 1 148.3351 60.8095 59.7087 0.0050 -0.0078 -0.0022
# 2 60.8095 117.6602 46.9038 0.0023 -0.0036 0.0012
# 3 59.7087 46.9038 141.3059 0.0148 -0.0220 -0.0030
# 4 0.0050 0.0023 0.0148 28.6715 -0.0076 0.0025
# 5 -0.0078 -0.0036 -0.0220 -0.0076 34.6766 0.0025
# 6 -0.0022 0.0012 -0.0030 0.0025 0.0025 13.7732
#
#
#
# Elastic Compliance Matrix: (Units=1/GPa)
#
#
# Indices 1 2 3 4 5 6 
#
# 1 0.009377 -0.003765 -0.002712 0.000000 0.000000 0.000001
# 2 -0.003765 0.011307 -0.002162 0.000001 -0.000001 -0.000002
# 3 -0.002712 -0.002162 0.008941 -0.000004 0.000005 0.000002
# 4 0.000000 0.000001 -0.000004 0.034878 0.000008 -0.000006
# 5 0.000000 -0.000001 0.000005 0.000008 0.028838 -0.000005
# 6 0.000001 -0.000002 0.000002 -0.000006 -0.000005 0.072605
#
#
# Mechanical properties :
#
#
# Convention : Reuss Voigt Hill
#
# Bulk Modulus (GPa) = 81.00360 82.46059 81.73210
# Shear Modulus (GPa) = 26.68964 31.41621 29.05292
#
# Velocity S-wave (km/s) = 3.81053 4.13419 3.97565
# Velocity P-wave (km/s) = 7.96423 8.22498 8.09566
#
# Compressibility (1/GPa) = 0.01234513
#
# Stress axis : x y z
#
# Youngs Moduli (GPa) = 106.64727 88.44277 111.84788
#
# Poissons Ratio (x) = 0.33297 0.30338
# Poissons Ratio (y) = 0.40151 0.24184
# Poissons Ratio (z) = 0.28928 0.19123
#
# Static dielectric constant tensor:
#      x y z
#    x 3.567090 -0.000030 0.000010 
#    y -0.000030 3.899090 -0.000010 
#    z 0.000010 -0.000010 3.447850 
# 
# 
# High freq. dielectric constant tensor:
#      x y z
#    x 1.722760 0.000000 0.000000 
#    y 0.000000 1.678860 0.000000 
#    z 0.000000 0.000000 1.731350 
# 
# From -- ./inp_files/4041.got.cif
#   From: 2010.03.12/outbox.cif.g09.slc.cpg/sg69_3_cif.got.tgz:4041.got - 2010.04.10 23:52:46.
