data_PCOD8283407
_publ_section_title
;
Structure prediction by ZEFSAII (Michael W. Deem and Ramdas Pophale) SiO2 
 PCOD8283407
Probable space group: C C C A
;
_chemical_formula_sum "Si O2"
_cell_formula_units_Z 96
_cell_length_a 14.955898
_cell_length_b 21.132682
_cell_length_c 13.208984
_cell_angle_alpha 90.000000
_cell_angle_beta 90.000000
_cell_angle_gamma 90.000000
_cell_volume 4174.808188
_symmetry_space_group_name_H-M "C C C A"
_symmetry_group_IT_number 68
_space_group.IT_coordinate_system_code '2'
_symmetry_cell_setting 'orthorhombic'
loop_
_space_group_symop_operation_xyz
x,y,z
-x,1/2-y,z
x,1/2-y,1/2-z
-x,y,1/2-z
-x,-y,-z
x,1/2+y,-z
-x,1/2+y,1/2+z
x,-y,1/2+z
1/2+x,1/2+y,z
1/2-x,-y,z
1/2+x,-y,1/2-z
1/2-x,1/2+y,1/2-z
1/2-x,1/2-y,-z
1/2+x,y,-z
1/2-x,y,1/2+z
1/2+x,1/2-y,1/2+z
loop_
_atom_site_type_symbol
_atom_site_label
_atom_site_fract_x
_atom_site_fract_y
_atom_site_fract_z
Si Si1 0.106688 0.624956 0.007213
Si Si2 0.169741 0.047980 0.661613
Si Si3 0.735978 0.195693 0.604777
Si Si4 0.090668 0.889958 0.981543
Si Si5 0.781394 0.667043 0.667981
Si Si6 0.642604 0.004044 0.128122
O O1 0.164698 0.667487 0.085692
O O2 0.110485 0.552560 0.042303
O O3 0.140177 0.630038 0.891138
O O4 0.002779 0.645667 0.001467
O O5 0.105791 0.055119 0.565659
O O6 0.198751 0.120402 0.679502
O O7 0.114370 0.026704 0.759865
O O8 0.250000 0.000000 0.635550
O O9 0.667820 0.163485 0.524650
O O10 0.740617 0.271981 0.595522
O O11 0.694840 0.184712 0.716953
O O12 0.097282 0.934662 0.882047
O O13 0.750000 0.000000 0.123969
#
# Coordination Sequence:
#
# PCOD8283407 Si02
#       6
#    16  16  16  16  16  16
#     4  12  24  42  69 102 135 181 235 284 358 417
#     4  11  22  41  71  99 137 188 229 285 353 412
#     4  11  24  46  68 100 141 179 241 285 349 421
#     4  12  25  41  70 102 143 180 230 293 346 422
#     4  11  23  44  74  95 135 191 226 293 351 413
#     4  11  21  43  68  98 140 182 233 287 343 425
#
# _framework density 22.995069000000001
#
# number of rings (size 3 to 8) (size 9 to 14) (size 15 to 20)
#    0.000    0.667    5.000    3.500    0.000    2.000 
#    0.000    5.000    0.000    2.000    0.000    0.000 
#    0.000    0.000    0.000    0.000    0.000    0.000 
#
# Total GULP energy -594921.412342 kJ/mol
# GULP energy per Si atom -12394.196090 kJ/mol
# Density = 2.294273 g / cm^3
# Si number density = 22.995069 Si / 1000 Ang^3
#
#
#
# Elastic Constant Matrix: (Units=GPa)
#
#
# Indices 1 2 3 4 5 6 
#
# 1 123.9158 39.5465 46.3494 0.0000 0.0000 0.0000
# 2 39.5465 119.3105 44.9975 0.0000 0.0000 0.0000
# 3 46.3494 44.9975 107.6251 0.0000 0.0000 0.0000
# 4 0.0000 0.0000 0.0000 46.8814 0.0000 0.0000
# 5 0.0000 0.0000 0.0000 0.0000 4.6306 0.0000
# 6 0.0000 0.0000 0.0000 0.0000 0.0000 15.3170
#
#
#
# Elastic Compliance Matrix: (Units=1/GPa)
#
#
# Indices 1 2 3 4 5 6 
#
# 1 0.010009 -0.002009 -0.003471 0.000000 0.000000 0.000000
# 2 -0.002009 0.010354 -0.003464 0.000000 0.000000 0.000000
# 3 -0.003471 -0.003464 0.012234 0.000000 0.000000 0.000000
# 4 0.000000 0.000000 0.000000 0.021330 0.000000 0.000000
# 5 0.000000 0.000000 0.000000 0.000000 0.215955 0.000000
# 6 0.000000 0.000000 0.000000 0.000000 0.000000 0.065287
#
#
# Mechanical properties :
#
#
# Convention : Reuss Voigt Hill
#
# Bulk Modulus (GPa) = 67.97662 68.07092 68.02377
# Shear Modulus (GPa) = 13.96807 28.02967 20.99887
#
# Velocity S-wave (km/s) = 2.46730 3.49512 3.02518
# Velocity P-wave (km/s) = 6.14348 6.77898 6.46904
#
# Compressibility (1/GPa) = 0.01471094
#
# Stress axis : x y z
#
# Youngs Moduli (GPa) = 99.90780 96.58455 81.73698
#
# Poissons Ratio (x) = 0.19401 0.28369
# Poissons Ratio (y) = 0.20068 0.28312
# Poissons Ratio (z) = 0.34675 0.33454
#
# Static dielectric constant tensor:
#      x y z
#    x 3.701440 0.000000 0.000000 
#    y 0.000000 4.368300 0.000000 
#    z 0.000000 0.000000 4.564460 
# 
# 
# High freq. dielectric constant tensor:
#      x y z
#    x 1.862660 0.000000 0.000000 
#    y 0.000000 1.921360 0.000000 
#    z 0.000000 0.000000 1.931030 
# 
# From -- ./inp_files/22387.got.cif
#   From: 2010.03.12/outbox.cif.g09.slc.cpg/sg68_12_cif.got.tgz:22387.got - 2010.04.10 23:14:56.
