data_PCOD8283737
_publ_section_title
;
Structure prediction by ZEFSAII (Michael W. Deem and Ramdas Pophale) SiO2 
 PCOD8283737
Probable space group: C C C A
;
_chemical_formula_sum "Si O2"
_cell_formula_units_Z 68
_cell_length_a 19.019716
_cell_length_b 7.610162
_cell_length_c 20.250482
_cell_angle_alpha 90.000000
_cell_angle_beta 90.000000
_cell_angle_gamma 90.000000
_cell_volume 2931.117945
_symmetry_space_group_name_H-M "C C C A"
_symmetry_group_IT_number 68
_space_group.IT_coordinate_system_code '2'
_symmetry_cell_setting 'orthorhombic'
loop_
_space_group_symop_operation_xyz
x,y,z
-x,1/2-y,z
x,1/2-y,1/2-z
-x,y,1/2-z
-x,-y,-z
x,1/2+y,-z
-x,1/2+y,1/2+z
x,-y,1/2+z
1/2+x,1/2+y,z
1/2-x,-y,z
1/2+x,-y,1/2-z
1/2-x,1/2+y,1/2-z
1/2-x,1/2-y,-z
1/2+x,y,-z
1/2-x,y,1/2+z
1/2+x,1/2-y,1/2+z
loop_
_atom_site_type_symbol
_atom_site_label
_atom_site_fract_x
_atom_site_fract_y
_atom_site_fract_z
Si Si1 0.430420 0.957825 0.957098
Si Si2 0.132486 0.816015 0.578488
Si Si3 0.500000 0.750000 0.750000
Si Si4 0.247700 0.206980 0.825231
Si Si5 0.906290 0.339835 0.641833
O O1 0.444275 0.809108 0.902567
O O2 0.407727 0.131853 0.918385
O O3 0.364794 0.880195 0.001529
O O4 0.500000 0.000000 0.000000
O O5 0.204849 0.801135 0.618793
O O6 0.086530 0.971111 0.609207
O O7 0.450123 0.874215 0.707503
O O8 0.272584 0.250000 0.750000
O O9 0.171654 0.284099 0.838433
O O10 0.250000 0.000000 0.836819
#
# Coordination Sequence:
#
# PCOD8283737 Si02
#       5
#    16  16   4  16  16
#     4  12  26  47  74 113 157 202 254 314 384 459
#     4  12  26  47  79 110 152 202 251 320 385 456
#     4  12  28  48  78 112 152 206 252 312 390 464
#     4  12  26  51  77 111 154 200 262 327 389 463
#     4  12  26  50  77 111 157 200 256 320 386 466
#
# _framework density 23.199339999999999
#
# number of rings (size 3 to 8) (size 9 to 14) (size 15 to 20)
#    0.000    0.000    5.882    4.235    0.000    0.941 
#    4.235    1.176    0.000    0.000    0.000    0.000 
#    0.000    0.000    0.000    0.000    0.000    0.000 
#
# Total GULP energy -421343.172287 kJ/mol
# GULP energy per Si atom -12392.446244 kJ/mol
# Density = 2.314654 g / cm^3
# Si number density = 23.199340 Si / 1000 Ang^3
#
#
#
# Elastic Constant Matrix: (Units=GPa)
#
#
# Indices 1 2 3 4 5 6 
#
# 1 124.7109 50.1219 60.9569 0.0000 0.0000 0.0000
# 2 50.1219 190.1885 59.5431 0.0000 0.0000 0.0000
# 3 60.9569 59.5431 131.6971 0.0000 0.0000 0.0000
# 4 0.0000 0.0000 0.0000 34.6123 0.0000 0.0000
# 5 0.0000 0.0000 0.0000 0.0000 44.6526 0.0000
# 6 0.0000 0.0000 0.0000 0.0000 0.0000 20.7453
#
#
#
# Elastic Compliance Matrix: (Units=1/GPa)
#
#
# Indices 1 2 3 4 5 6 
#
# 1 0.010709 -0.001480 -0.004288 0.000000 0.000000 0.000000
# 2 -0.001480 0.006329 -0.002177 0.000000 0.000000 0.000000
# 3 -0.004288 -0.002177 0.010562 0.000000 0.000000 0.000000
# 4 0.000000 0.000000 0.000000 0.028891 0.000000 0.000000
# 5 0.000000 0.000000 0.000000 0.000000 0.022395 0.000000
# 6 0.000000 0.000000 0.000000 0.000000 0.000000 0.048204
#
#
# Mechanical properties :
#
#
# Convention : Reuss Voigt Hill
#
# Bulk Modulus (GPa) = 85.38346 87.53781 86.46063
# Shear Modulus (GPa) = 34.04069 38.40035 36.22052
#
# Velocity S-wave (km/s) = 3.83471 4.07287 3.95558
# Velocity P-wave (km/s) = 7.51604 7.74161 7.62966
#
# Compressibility (1/GPa) = 0.01171187
#
# Stress axis : x y z
#
# Youngs Moduli (GPa) = 93.37870 157.99260 94.68001
#
# Poissons Ratio (x) = 0.23381 0.40596
# Poissons Ratio (y) = 0.13819 0.20609
# Poissons Ratio (z) = 0.40038 0.34390
#
# Static dielectric constant tensor:
#      x y z
#    x 4.275930 0.000000 0.000000 
#    y 0.000000 4.433790 0.000000 
#    z 0.000000 0.000000 4.841490 
# 
# 
# High freq. dielectric constant tensor:
#      x y z
#    x 1.917530 0.000000 0.000000 
#    y 0.000000 1.933270 0.000000 
#    z 0.000000 0.000000 1.931680 
# 
# From -- ./inp_files/39204.got.cif
#   From: 2010.03.12/outbox.cif.g09.slc.cpg/sg68_20_cif.got.tgz:39204.got - 2010.04.10 23:14:56.
