data_PCOD8283957
_publ_section_title
;
Structure prediction by ZEFSAII (Michael W. Deem and Ramdas Pophale) SiO2 
 PCOD8283957
Probable space group: F M M M
;
_chemical_formula_sum "Si O2"
_cell_formula_units_Z 160
_cell_length_a 18.839501
_cell_length_b 25.289193
_cell_length_c 18.575774
_cell_angle_alpha 90.000000
_cell_angle_beta 90.000000
_cell_angle_gamma 90.000000
_cell_volume 8850.163316
_symmetry_space_group_name_H-M "F M M M"
_symmetry_group_IT_number 69
_symmetry_cell_setting 'orthorhombic'
loop_
_space_group_symop_operation_xyz
x,y,z
-x,-y,z
x,-y,-z
-x,y,-z
-x,-y,-z
x,y,-z
-x,y,z
x,-y,z
x,1/2+y,1/2+z
-x,1/2-y,1/2+z
x,1/2-y,1/2-z
-x,1/2+y,1/2-z
-x,1/2-y,1/2-z
x,1/2+y,1/2-z
-x,1/2+y,1/2+z
x,1/2-y,1/2+z
1/2+x,y,1/2+z
1/2-x,-y,1/2+z
1/2+x,-y,1/2-z
1/2-x,y,1/2-z
1/2-x,-y,1/2-z
1/2+x,y,1/2-z
1/2-x,y,1/2+z
1/2+x,-y,1/2+z
1/2+x,1/2+y,z
1/2-x,1/2-y,z
1/2+x,1/2-y,-z
1/2-x,1/2+y,-z
1/2-x,1/2-y,-z
1/2+x,1/2+y,-z
1/2-x,1/2+y,z
1/2+x,1/2-y,z
loop_
_atom_site_type_symbol
_atom_site_label
_atom_site_fract_x
_atom_site_fract_y
_atom_site_fract_z
Si Si1 0.421637 0.692360 0.217350
Si Si2 0.082470 0.000000 0.796509
Si Si3 0.080043 0.408214 0.188818
Si Si4 0.772683 0.308874 0.668414
Si Si5 0.695534 0.500000 0.083180
Si Si6 0.795207 0.097653 0.584121
O O1 0.500000 0.686116 0.180860
O O2 0.411708 0.750000 0.250000
O O3 0.413882 0.651414 0.282716
O O4 0.358237 0.684077 0.160219
O O5 0.103842 0.052033 0.751884
O O6 0.124089 0.000000 0.871132
O O7 0.000000 0.000000 0.816808
O O8 0.129748 0.415885 0.120176
O O9 0.000000 0.421554 0.164093
O O10 0.750000 0.322757 0.750000
O O11 0.750000 0.250000 0.647208
O O12 0.735636 0.347517 0.612754
O O13 0.740744 0.551417 0.103136
O O14 0.673162 0.500000 0.000000
O O15 0.809292 0.102702 0.500000
#
# Coordination Sequence:
#
# PCOD8283957 Si02
#       6
#    32  16  32  32  16  32
#     4  10  18  30  51  79 108 136 173 223 272 318
#     4  10  21  36  58  84 106 138 184 226 267 323
#     4  10  20  34  53  80 107 138 181 224 268 320
#     4  11  19  34  56  82 108 141 184 228 273 324
#     4  10  23  38  54  80 112 144 179 223 273 321
#     4  11  23  37  54  79 111 146 183 224 274 328
#
# _framework density 18.078762000000001
#
# number of rings (size 3 to 8) (size 9 to 14) (size 15 to 20)
#    0.000    1.600    4.000    1.800    0.000    1.800 
#    0.000    0.000    0.000    5.400    0.000    0.000 
#    0.000    0.000    0.000    0.000    0.000    0.000 
#
# Total GULP energy -496053.217393 kJ/mol
# GULP energy per Si atom -12401.330435 kJ/mol
# Density = 1.803761 g / cm^3
# Si number density = 18.078762 Si / 1000 Ang^3
#
#
#
# Elastic Constant Matrix: (Units=GPa)
#
#
# Indices 1 2 3 4 5 6 
#
# 1 146.4825 36.3159 68.2537 0.0000 0.0000 0.0000
# 2 36.3159 110.0467 53.6110 0.0000 0.0000 0.0000
# 3 68.2537 53.6110 89.1655 0.0000 0.0000 0.0000
# 4 0.0000 0.0000 0.0000 23.1716 0.0000 0.0000
# 5 0.0000 0.0000 0.0000 0.0000 28.3286 0.0000
# 6 0.0000 0.0000 0.0000 0.0000 0.0000 14.8479
#
#
#
# Elastic Compliance Matrix: (Units=1/GPa)
#
#
# Indices 1 2 3 4 5 6 
#
# 1 0.010644 0.000646 -0.008536 0.000000 0.000000 0.000000
# 2 0.000646 0.012891 -0.008245 0.000000 0.000000 0.000000
# 3 -0.008536 -0.008245 0.022706 0.000000 0.000000 0.000000
# 4 0.000000 0.000000 0.000000 0.043156 0.000000 0.000000
# 5 0.000000 0.000000 0.000000 0.000000 0.035300 0.000000
# 6 0.000000 0.000000 0.000000 0.000000 0.000000 0.067350
#
#
# Mechanical properties :
#
#
# Convention : Reuss Voigt Hill
#
# Bulk Modulus (GPa) = 71.57710 73.56176 72.56943
# Shear Modulus (GPa) = 21.83654 25.77056 23.80355
#
# Velocity S-wave (km/s) = 3.47919 3.77962 3.63251
# Velocity P-wave (km/s) = 7.47111 7.73468 7.60404
#
# Compressibility (1/GPa) = 0.01397095
#
# Stress axis : x y z
#
# Youngs Moduli (GPa) = 93.94968 77.57633 44.04035
#
# Poissons Ratio (x) = -0.05011 0.37593
# Poissons Ratio (y) = -0.06068 0.36311
# Poissons Ratio (z) = 0.80196 0.63961
#
# Static dielectric constant tensor:
#      x y z
#    x 3.712420 0.000000 0.000000 
#    y 0.000000 3.561930 0.000000 
#    z 0.000000 0.000000 2.955600 
# 
# 
# High freq. dielectric constant tensor:
#      x y z
#    x 1.719940 0.000000 0.000000 
#    y 0.000000 1.723040 0.000000 
#    z 0.000000 0.000000 1.656460 
# 
# From -- ./inp_files/23178.got.cif
#   From: 2010.03.12/outbox.cif.g09.slc.cpg/sg69_12_cif.got.tgz:23178.got - 2010.04.10 23:52:46.
