data_PCOD8283477
_publ_section_title
;
Structure prediction by ZEFSAII (Michael W. Deem and Ramdas Pophale) SiO2 
 PCOD8283477
Probable space group: C C C A
;
_chemical_formula_sum "Si O2"
_cell_formula_units_Z 104
_cell_length_a 27.725310
_cell_length_b 20.701969
_cell_length_c 9.207794
_cell_angle_alpha 90.000000
_cell_angle_beta 90.000000
_cell_angle_gamma 90.000000
_cell_volume 5284.983785
_symmetry_space_group_name_H-M "C C C A"
_symmetry_group_IT_number 68
_space_group.IT_coordinate_system_code '2'
_symmetry_cell_setting 'orthorhombic'
loop_
_space_group_symop_operation_xyz
x,y,z
-x,1/2-y,z
x,1/2-y,1/2-z
-x,y,1/2-z
-x,-y,-z
x,1/2+y,-z
-x,1/2+y,1/2+z
x,-y,1/2+z
1/2+x,1/2+y,z
1/2-x,-y,z
1/2+x,-y,1/2-z
1/2-x,1/2+y,1/2-z
1/2-x,1/2-y,-z
1/2+x,y,-z
1/2-x,y,1/2+z
1/2+x,1/2-y,1/2+z
loop_
_atom_site_type_symbol
_atom_site_label
_atom_site_fract_x
_atom_site_fract_y
_atom_site_fract_z
Si Si1 0.554605 0.357499 0.240403
Si Si2 0.445423 0.249812 0.482331
Si Si3 0.147766 0.071398 0.753605
Si Si4 0.806791 0.487987 0.484557
Si Si5 0.877357 0.750000 0.750000
Si Si6 0.213959 0.682202 0.327663
Si Si7 0.801786 0.149206 0.146356
O O1 0.500000 0.384225 0.250000
O O2 0.563176 0.307056 0.368693
O O3 0.564690 0.319829 0.089479
O O4 0.589810 0.419808 0.253577
O O5 0.500000 0.250000 0.540782
O O6 0.409786 0.234763 0.612313
O O7 0.166982 0.018824 0.638932
O O8 0.166871 0.142481 0.715924
O O9 0.167611 0.048756 0.909256
O O10 0.750000 0.500000 0.507272
O O11 0.816712 0.423347 0.392350
O O12 0.845902 0.686806 0.781824
O O13 0.209642 0.750000 0.250000
O O14 0.217052 0.687629 0.502788
O O15 0.260634 0.644776 0.268591
#
# Coordination Sequence:
#
# PCOD8283477 Si02
#       7
#    16  16  16  16   8  16  16
#     4   9  20  41  65  92 116 155 207 255 309 375
#     4   9  19  37  63  90 123 158 197 249 312 376
#     4  11  24  38  65  84 121 163 208 253 301 361
#     4  11  23  42  58  87 119 170 215 249 293 369
#     4  12  23  36  56  96 130 154 201 254 320 354
#     4  11  23  39  57  86 123 158 203 245 311 352
#     4  11  25  37  57  86 124 162 202 256 290 369
#
# _framework density 19.678395999999999
#
# number of rings (size 3 to 8) (size 9 to 14) (size 15 to 20)
#    0.000    1.538    2.308    3.923    6.462    1.231 
#    0.000    0.769    0.000    1.846    0.000    0.000 
#    0.000    0.000    0.000    0.000    0.000    0.000 
#
# Total GULP energy -644870.245001 kJ/mol
# GULP energy per Si atom -12401.350865 kJ/mol
# Density = 1.963361 g / cm^3
# Si number density = 19.678396 Si / 1000 Ang^3
#
#
#
# Elastic Constant Matrix: (Units=GPa)
#
#
# Indices 1 2 3 4 5 6 
#
# 1 131.5915 26.3931 42.7820 0.0000 0.0000 0.0000
# 2 26.3931 41.4165 3.6601 0.0000 0.0000 0.0000
# 3 42.7820 3.6601 75.0388 0.0000 0.0000 0.0000
# 4 0.0000 0.0000 0.0000 23.3226 0.0000 0.0000
# 5 0.0000 0.0000 0.0000 0.0000 35.0016 0.0000
# 6 0.0000 0.0000 0.0000 0.0000 0.0000 22.2875
#
#
#
# Elastic Compliance Matrix: (Units=1/GPa)
#
#
# Indices 1 2 3 4 5 6 
#
# 1 0.010767 -0.006346 -0.005829 0.000000 0.000000 0.000000
# 2 -0.006346 0.027990 0.002253 0.000000 0.000000 0.000000
# 3 -0.005829 0.002253 0.016540 0.000000 0.000000 0.000000
# 4 0.000000 0.000000 0.000000 0.042877 0.000000 0.000000
# 5 0.000000 0.000000 0.000000 0.000000 0.028570 0.000000
# 6 0.000000 0.000000 0.000000 0.000000 0.000000 0.044868
#
#
# Mechanical properties :
#
#
# Convention : Reuss Voigt Hill
#
# Bulk Modulus (GPa) = 28.20697 43.74637 35.97667
# Shear Modulus (GPa) = 24.59716 27.80310 26.20013
#
# Velocity S-wave (km/s) = 3.53931 3.76290 3.65282
# Velocity P-wave (km/s) = 5.57381 6.41546 6.00939
#
# Compressibility (1/GPa) = 0.03545222
#
# Stress axis : x y z
#
# Youngs Moduli (GPa) = 92.87349 35.72678 60.45957
#
# Poissons Ratio (x) = 0.22674 0.35243
# Poissons Ratio (y) = 0.58942 -0.13622
# Poissons Ratio (z) = 0.54138 -0.08049
#
# Static dielectric constant tensor:
#      x y z
#    x 3.701660 0.000000 0.000000 
#    y 0.000000 3.384490 0.000000 
#    z 0.000000 0.000000 3.775050 
# 
# 
# High freq. dielectric constant tensor:
#      x y z
#    x 1.768050 0.000000 0.000000 
#    y 0.000000 1.749910 0.000000 
#    z 0.000000 0.000000 1.774640 
# 
# From -- ./inp_files/9118.got.cif
#   From: 2010.03.12/outbox.cif.g09.slc.cpg/sg68_5_cif.got.tgz:9118.got - 2010.04.10 23:14:56.
