data_PCOD8283293
_publ_section_title
;
Structure prediction by ZEFSAII (Michael W. Deem and Ramdas Pophale) SiO2 
 PCOD8283293
Probable space group: C C C A
;
_chemical_formula_sum "Si O2"
_cell_formula_units_Z 64
_cell_length_a 11.012641
_cell_length_b 27.816325
_cell_length_c 8.948126
_cell_angle_alpha 90.000000
_cell_angle_beta 90.000000
_cell_angle_gamma 90.000000
_cell_volume 2741.090186
_symmetry_space_group_name_H-M "C C C A"
_symmetry_group_IT_number 68
_space_group.IT_coordinate_system_code '2'
_symmetry_cell_setting 'orthorhombic'
loop_
_space_group_symop_operation_xyz
x,y,z
-x,1/2-y,z
x,1/2-y,1/2-z
-x,y,1/2-z
-x,-y,-z
x,1/2+y,-z
-x,1/2+y,1/2+z
x,-y,1/2+z
1/2+x,1/2+y,z
1/2-x,-y,z
1/2+x,-y,1/2-z
1/2-x,1/2+y,1/2-z
1/2-x,1/2-y,-z
1/2+x,y,-z
1/2-x,y,1/2+z
1/2+x,1/2-y,1/2+z
loop_
_atom_site_type_symbol
_atom_site_label
_atom_site_fract_x
_atom_site_fract_y
_atom_site_fract_z
Si Si1 0.872743 0.267979 0.918973
Si Si2 0.912221 0.544253 0.980047
Si Si3 0.393702 0.120595 0.473826
Si Si4 0.259114 0.428279 0.778635
O O1 0.863311 0.250000 0.750000
O O2 0.890662 0.324710 0.925684
O O3 0.000000 0.250000 0.993074
O O4 0.750000 0.250000 0.000000
O O5 0.806405 0.537488 0.101639
O O6 0.973108 0.596955 0.005094
O O7 0.860027 0.541133 0.811493
O O8 0.000000 0.500000 0.000000
O O9 0.322094 0.115127 0.629831
O O10 0.334581 0.091758 0.339503
#
# Coordination Sequence:
#
# PCOD8283293 Si02
#       4
#    16  16  16  16
#     4  11  27  47  75 110 152 196 261 316 392 459
#     4  11  26  46  72 108 145 196 250 305 378 456
#     4  11  24  44  73 102 144 193 242 312 373 451
#     4  10  25  44  73 100 148 185 246 302 374 440
#
# _framework density 23.348375999999998
#
# number of rings (size 3 to 8) (size 9 to 14) (size 15 to 20)
#    0.000    1.250    0.000    3.000   14.000   10.500 
#    4.500    3.750    0.000    0.000    0.000    0.000 
#    0.000    0.000    0.000    0.000    0.000    0.000 
#
# Total GULP energy -396681.633919 kJ/mol
# GULP energy per Si atom -12396.301060 kJ/mol
# Density = 2.329523 g / cm^3
# Si number density = 23.348376 Si / 1000 Ang^3
#
#
#
# Elastic Constant Matrix: (Units=GPa)
#
#
# Indices 1 2 3 4 5 6 
#
# 1 160.1140 60.1862 63.3259 0.0000 0.0000 0.0000
# 2 60.1862 158.2474 50.9957 0.0000 0.0000 0.0000
# 3 63.3259 50.9957 156.0579 0.0000 0.0000 0.0000
# 4 0.0000 0.0000 0.0000 30.0330 0.0000 0.0000
# 5 0.0000 0.0000 0.0000 0.0000 35.0902 0.0000
# 6 0.0000 0.0000 0.0000 0.0000 0.0000 36.1941
#
#
#
# Elastic Compliance Matrix: (Units=1/GPa)
#
#
# Indices 1 2 3 4 5 6 
#
# 1 0.008104 -0.002260 -0.002550 0.000000 0.000000 0.000000
# 2 -0.002260 0.007693 -0.001597 0.000000 0.000000 0.000000
# 3 -0.002550 -0.001597 0.007964 0.000000 0.000000 0.000000
# 4 0.000000 0.000000 0.000000 0.033297 0.000000 0.000000
# 5 0.000000 0.000000 0.000000 0.000000 0.028498 0.000000
# 6 0.000000 0.000000 0.000000 0.000000 0.000000 0.027629
#
#
# Mechanical properties :
#
#
# Convention : Reuss Voigt Hill
#
# Bulk Modulus (GPa) = 91.34391 91.49278 91.41835
# Shear Modulus (GPa) = 38.56597 40.25755 39.41176
#
# Velocity S-wave (km/s) = 4.06860 4.15687 4.11297
# Velocity P-wave (km/s) = 7.82805 7.89369 7.86094
#
# Compressibility (1/GPa) = 0.01094764
#
# Stress axis : x y z
#
# Youngs Moduli (GPa) = 123.40126 129.97998 125.56039
#
# Poissons Ratio (x) = 0.29381 0.32014
# Poissons Ratio (y) = 0.27894 0.20049
# Poissons Ratio (z) = 0.31463 0.20755
#
# Static dielectric constant tensor:
#      x y z
#    x 5.489820 0.000000 0.000000 
#    y 0.000000 4.133520 0.000000 
#    z 0.000000 0.000000 4.031110 
# 
# 
# High freq. dielectric constant tensor:
#      x y z
#    x 1.946780 0.000000 0.000000 
#    y 0.000000 1.917040 0.000000 
#    z 0.000000 0.000000 1.941810 
# 
# From -- ./inp_files/4080.got.cif
#   From: 2010.03.12/outbox.cif.g09.slc.cpg/sg68_3_cif.got.tgz:4080.got - 2010.04.10 23:14:56.
