data_PCOD8283177
_publ_section_title
;
Structure prediction by ZEFSAII (Michael W. Deem and Ramdas Pophale) SiO2 
 PCOD8283177
Probable space group: C C C A
;
_chemical_formula_sum "Si O2"
_cell_formula_units_Z 104
_cell_length_a 18.528668
_cell_length_b 30.003408
_cell_length_c 9.101434
_cell_angle_alpha 90.000000
_cell_angle_beta 90.000000
_cell_angle_gamma 90.000000
_cell_volume 5059.698184
_symmetry_space_group_name_H-M "C C C A"
_symmetry_group_IT_number 68
_space_group.IT_coordinate_system_code '2'
_symmetry_cell_setting 'orthorhombic'
loop_
_space_group_symop_operation_xyz
x,y,z
-x,1/2-y,z
x,1/2-y,1/2-z
-x,y,1/2-z
-x,-y,-z
x,1/2+y,-z
-x,1/2+y,1/2+z
x,-y,1/2+z
1/2+x,1/2+y,z
1/2-x,-y,z
1/2+x,-y,1/2-z
1/2-x,1/2+y,1/2-z
1/2-x,1/2-y,-z
1/2+x,y,-z
1/2-x,y,1/2+z
1/2+x,1/2-y,1/2+z
loop_
_atom_site_type_symbol
_atom_site_label
_atom_site_fract_x
_atom_site_fract_y
_atom_site_fract_z
Si Si1 0.839120 0.076809 0.442930
Si Si2 0.699938 0.408410 0.886642
Si Si3 0.000000 0.503870 0.250000
Si Si4 0.903715 0.826796 0.602987
Si Si5 0.085500 0.755350 0.413248
Si Si6 0.564073 0.840211 0.431242
Si Si7 0.098981 0.020803 0.501224
O O1 0.782779 0.093991 0.564547
O O2 0.802784 0.076548 0.282529
O O3 0.906034 0.110301 0.446637
O O4 0.870218 0.028895 0.484988
O O5 0.660807 0.361779 0.917672
O O6 0.664738 0.445585 0.991502
O O7 0.050897 0.533526 0.355896
O O8 0.949888 0.473151 0.354528
O O9 0.879199 0.781216 0.522239
O O10 0.919291 0.818400 0.773451
O O11 0.978777 0.844810 0.533842
O O12 0.116978 0.750000 0.250000
O O13 0.103803 0.805950 0.459055
O O14 0.000000 0.750000 0.420098
#
# Coordination Sequence:
#
# PCOD8283177 Si02
#       7
#    16  16   8  16  16  16  16
#     4  11  25  41  59  85 121 161 202 242 291 353
#     4  11  25  41  59  85 121 161 202 242 291 353
#     4  10  24  38  66  94 116 148 202 250 294 348
#     4   9  19  36  61  84 112 151 195 240 291 349
#     4   9  17  33  54  89 120 143 179 241 300 349
#     4   9  19  36  61  84 112 151 195 240 291 349
#     4  11  23  42  62  90 124 154 196 244 302 344
#
# _framework density 20.554587000000001
#
# number of rings (size 3 to 8) (size 9 to 14) (size 15 to 20)
#    0.000    2.000    1.538    0.923    6.462    4.308 
#    0.000    0.769    0.000    0.000    0.000    0.000 
#    0.000    0.000    0.000    0.000    0.000    0.000 
#
# Total GULP energy -644760.020875 kJ/mol
# GULP energy per Si atom -12399.231171 kJ/mol
# Density = 2.050780 g / cm^3
# Si number density = 20.554587 Si / 1000 Ang^3
#
#
#
# Elastic Constant Matrix: (Units=GPa)
#
#
# Indices 1 2 3 4 5 6 
#
# 1 62.2311 7.5341 19.9146 0.0000 0.0000 0.0000
# 2 7.5341 73.7560 19.7615 0.0000 0.0000 0.0000
# 3 19.9146 19.7615 87.5569 0.0000 0.0000 0.0000
# 4 0.0000 0.0000 0.0000 27.3039 0.0000 0.0000
# 5 0.0000 0.0000 0.0000 0.0000 31.4756 0.0000
# 6 0.0000 0.0000 0.0000 0.0000 0.0000 15.5310
#
#
#
# Elastic Compliance Matrix: (Units=1/GPa)
#
#
# Indices 1 2 3 4 5 6 
#
# 1 0.017371 -0.000762 -0.003779 0.000000 0.000000 0.000000
# 2 -0.000762 0.014464 -0.003091 0.000000 0.000000 0.000000
# 3 -0.003779 -0.003091 0.012978 0.000000 0.000000 0.000000
# 4 0.000000 0.000000 0.000000 0.036625 0.000000 0.000000
# 5 0.000000 0.000000 0.000000 0.000000 0.031771 0.000000
# 6 0.000000 0.000000 0.000000 0.000000 0.000000 0.064387
#
#
# Mechanical properties :
#
#
# Convention : Reuss Voigt Hill
#
# Bulk Modulus (GPa) = 33.84205 35.32939 34.58572
# Shear Modulus (GPa) = 24.66577 26.61769 25.64173
#
# Velocity S-wave (km/s) = 3.46788 3.60248 3.53582
# Velocity P-wave (km/s) = 5.70396 5.87616 5.79070
#
# Compressibility (1/GPa) = 0.02954904
#
# Stress axis : x y z
#
# Youngs Moduli (GPa) = 57.56827 69.13577 77.05133
#
# Poissons Ratio (x) = 0.05267 0.29117
# Poissons Ratio (y) = 0.04386 0.23819
# Poissons Ratio (z) = 0.21755 0.21372
#
# Static dielectric constant tensor:
#      x y z
#    x 3.589590 0.000000 0.000000 
#    y 0.000000 3.537030 0.000000 
#    z 0.000000 0.000000 3.912040 
# 
# 
# High freq. dielectric constant tensor:
#      x y z
#    x 1.785290 0.000000 0.000000 
#    y 0.000000 1.795410 0.000000 
#    z 0.000000 0.000000 1.811000 
# 
# From -- ./inp_files/7376.got.cif
#   From: 2010.03.12/outbox.cif.g09.slc.cpg/sg68_4_cif.got.tgz:7376.got - 2010.04.10 23:14:56.
