data_PCOD8283577
_publ_section_title
;
Structure prediction by ZEFSAII (Michael W. Deem and Ramdas Pophale) SiO2 
 PCOD8283577
Probable space group: C C C A
;
_chemical_formula_sum "Si O2"
_cell_formula_units_Z 64
_cell_length_a 10.661916
_cell_length_b 15.995677
_cell_length_c 15.457473
_cell_angle_alpha 90.000000
_cell_angle_beta 90.000000
_cell_angle_gamma 90.000000
_cell_volume 2636.188002
_symmetry_space_group_name_H-M "C C C A"
_symmetry_group_IT_number 68
_space_group.IT_coordinate_system_code '2'
_symmetry_cell_setting 'orthorhombic'
loop_
_space_group_symop_operation_xyz
x,y,z
-x,1/2-y,z
x,1/2-y,1/2-z
-x,y,1/2-z
-x,-y,-z
x,1/2+y,-z
-x,1/2+y,1/2+z
x,-y,1/2+z
1/2+x,1/2+y,z
1/2-x,-y,z
1/2+x,-y,1/2-z
1/2-x,1/2+y,1/2-z
1/2-x,1/2-y,-z
1/2+x,y,-z
1/2-x,y,1/2+z
1/2+x,1/2-y,1/2+z
loop_
_atom_site_type_symbol
_atom_site_label
_atom_site_fract_x
_atom_site_fract_y
_atom_site_fract_z
Si Si1 0.498208 0.956431 0.655646
Si Si2 0.500000 0.250000 0.977185
Si Si3 0.924495 0.635554 0.835801
Si Si4 0.250000 0.500000 0.441753
Si Si5 0.188335 0.150908 0.935260
O O1 0.500000 0.913865 0.750000
O O2 0.555336 0.889364 0.591400
O O3 0.589739 0.036292 0.664000
O O4 0.366687 0.991782 0.622628
O O5 0.502451 0.167237 0.918077
O O6 0.365796 0.259695 0.027696
O O7 0.781278 0.669388 0.853444
O O8 0.000000 0.667554 0.750000
O O9 0.250377 0.414937 0.498149
#
# Coordination Sequence:
#
# PCOD8283577 Si02
#       5
#    16   8  16   8  16
#     4  11  25  41  70 104 136 187 240 302 357 425
#     4  12  25  44  67 106 144 192 234 294 369 430
#     4  11  24  43  70 103 142 189 238 293 363 435
#     4  12  22  42  72 102 144 182 246 300 354 436
#     4  12  24  45  72 104 143 183 245 299 362 430
#
# _framework density 24.277477999999999
#
# number of rings (size 3 to 8) (size 9 to 14) (size 15 to 20)
#    0.000    0.500    5.000    3.375    7.000    0.000 
#    0.000    3.125    0.000    0.000    0.000    0.000 
#    0.000    0.000    0.000    0.000    0.000    0.000 
#
# Total GULP energy -396443.413050 kJ/mol
# GULP energy per Si atom -12388.856658 kJ/mol
# Density = 2.422222 g / cm^3
# Si number density = 24.277478 Si / 1000 Ang^3
#
#
#
# Elastic Constant Matrix: (Units=GPa)
#
#
# Indices 1 2 3 4 5 6 
#
# 1 154.1718 4.3471 64.6501 0.0000 0.0000 0.0000
# 2 4.3471 43.4137 27.0137 0.0000 0.0000 0.0000
# 3 64.6501 27.0137 136.6303 0.0000 0.0000 0.0000
# 4 0.0000 0.0000 0.0000 -1.2742 0.0000 0.0000
# 5 0.0000 0.0000 0.0000 0.0000 50.2919 0.0000
# 6 0.0000 0.0000 0.0000 0.0000 0.0000 32.6740
#
#
#
# Elastic Compliance Matrix: (Units=1/GPa)
#
#
# Indices 1 2 3 4 5 6 
#
# 1 0.008216 0.001820 -0.004248 0.000000 0.000000 0.000000
# 2 0.001820 0.026669 -0.006134 0.000000 0.000000 0.000000
# 3 -0.004248 -0.006134 0.010542 0.000000 0.000000 0.000000
# 4 0.000000 0.000000 0.000000 -0.784820 0.000000 0.000000
# 5 0.000000 0.000000 0.000000 0.000000 0.019884 0.000000
# 6 0.000000 0.000000 0.000000 0.000000 0.000000 0.030605
#
#
# Mechanical properties :
#
#
# Convention : Reuss Voigt Hill
#
# Bulk Modulus (GPa) = 35.33091 58.47084 46.90087
# Shear Modulus (GPa) = -7.54891 32.21866 12.33487
#
# Velocity S-wave (km/s) = -1.76527 3.64689 2.25651
# Velocity P-wave (km/s) = 3.22950 6.47069 5.11368
#
# Compressibility (1/GPa) = 0.02830383
#
# Stress axis : x y z
#
# Youngs Moduli (GPa) = 121.71211 37.49697 94.86165
#
# Poissons Ratio (x) = -0.06826 0.40293
# Poissons Ratio (y) = -0.22155 0.58189
# Poissons Ratio (z) = 0.51698 0.23001
#
# Static dielectric constant tensor:
#      x y z
#    x 4.334330 0.000000 0.000000 
#    y 0.000000 4.346450 0.000000 
#    z 0.000000 0.000000 4.458310 
# 
# 
# High freq. dielectric constant tensor:
#      x y z
#    x 1.976330 0.000000 0.000000 
#    y 0.000000 1.955750 0.000000 
#    z 0.000000 0.000000 1.958970 
# 
# From -- ./inp_files/20486.got.cif
#   From: 2010.03.12/outbox.cif.g09.slc.cpg/sg68_11_cif.got.tgz:20486.got - 2010.04.10 23:14:56.
