data_PCOD8283126
_publ_section_title
;
Structure prediction by ZEFSAII (Michael W. Deem and Ramdas Pophale) SiO2 
 PCOD8283126
Probable space group: C C C A
;
_chemical_formula_sum "Si O2"
_cell_formula_units_Z 88
_cell_length_a 28.225175
_cell_length_b 10.459453
_cell_length_c 13.669909
_cell_angle_alpha 90.000000
_cell_angle_beta 90.000000
_cell_angle_gamma 90.000000
_cell_volume 4035.629049
_symmetry_space_group_name_H-M "C C C A"
_symmetry_group_IT_number 68
_space_group.IT_coordinate_system_code '2'
_symmetry_cell_setting 'orthorhombic'
loop_
_space_group_symop_operation_xyz
x,y,z
-x,1/2-y,z
x,1/2-y,1/2-z
-x,y,1/2-z
-x,-y,-z
x,1/2+y,-z
-x,1/2+y,1/2+z
x,-y,1/2+z
1/2+x,1/2+y,z
1/2-x,-y,z
1/2+x,-y,1/2-z
1/2-x,1/2+y,1/2-z
1/2-x,1/2-y,-z
1/2+x,y,-z
1/2-x,y,1/2+z
1/2+x,1/2-y,1/2+z
loop_
_atom_site_type_symbol
_atom_site_label
_atom_site_fract_x
_atom_site_fract_y
_atom_site_fract_z
Si Si1 0.469239 0.126665 0.982167
Si Si2 0.904694 0.616250 0.798021
Si Si3 0.693790 0.189882 0.349933
Si Si4 0.750000 0.500000 0.037508
Si Si5 0.655364 0.059080 0.063385
Si Si6 0.105211 0.531276 0.384181
O O1 0.500000 0.250000 0.000214
O O2 0.448261 0.132786 0.872374
O O3 0.428505 0.136380 0.065451
O O4 0.500000 0.000000 0.000000
O O5 0.886273 0.750000 0.750000
O O6 0.863203 0.535366 0.851435
O O7 0.923052 0.537396 0.703296
O O8 0.712327 0.250000 0.250000
O O9 0.665174 0.295528 0.410021
O O10 0.653687 0.082690 0.335678
O O11 0.741205 0.128087 0.397459
O O12 0.705103 0.501409 0.968171
O O13 0.618781 0.065936 0.972527
#
# Coordination Sequence:
#
# PCOD8283126 Si02
#       6
#    16  16  16   8  16  16
#     4  11  26  44  70 104 142 178 229 292 352 416
#     4  11  24  44  71 100 134 184 233 280 344 426
#     4  11  22  43  66  98 136 178 233 276 338 418
#     4  10  24  42  64 102 136 176 218 294 338 394
#     4  10  23  43  67  96 136 180 223 277 344 405
#     4  10  24  41  69  95 134 182 225 277 344 409
#
# _framework density 21.805771
#
# number of rings (size 3 to 8) (size 9 to 14) (size 15 to 20)
#    0.000    1.455    1.818    1.636   12.727    3.273 
#    0.000    0.909    0.000    0.000    0.000    0.000 
#    0.000    0.000    0.000    0.000    0.000    0.000 
#
# Total GULP energy -545246.852990 kJ/mol
# GULP energy per Si atom -12391.973932 kJ/mol
# Density = 2.175614 g / cm^3
# Si number density = 21.805771 Si / 1000 Ang^3
#
#
#
# Elastic Constant Matrix: (Units=GPa)
#
#
# Indices 1 2 3 4 5 6 
#
# 1 93.1879 40.4694 50.8141 0.0000 0.0000 0.0000
# 2 40.4694 129.7555 57.5992 0.0000 0.0000 0.0000
# 3 50.8141 57.5992 151.3282 0.0000 0.0000 0.0000
# 4 0.0000 0.0000 0.0000 27.3052 0.0000 0.0000
# 5 0.0000 0.0000 0.0000 0.0000 21.7307 0.0000
# 6 0.0000 0.0000 0.0000 0.0000 0.0000 44.1953
#
#
#
# Elastic Compliance Matrix: (Units=1/GPa)
#
#
# Indices 1 2 3 4 5 6 
#
# 1 0.013892 -0.002722 -0.003629 0.000000 0.000000 0.000000
# 2 -0.002722 0.009807 -0.002819 0.000000 0.000000 0.000000
# 3 -0.003629 -0.002819 0.008900 0.000000 0.000000 0.000000
# 4 0.000000 0.000000 0.000000 0.036623 0.000000 0.000000
# 5 0.000000 0.000000 0.000000 0.000000 0.046018 0.000000
# 6 0.000000 0.000000 0.000000 0.000000 0.000000 0.022627
#
#
# Mechanical properties :
#
#
# Convention : Reuss Voigt Hill
#
# Bulk Modulus (GPa) = 70.12847 74.67077 72.39962
# Shear Modulus (GPa) = 31.06401 33.67216 32.36809
#
# Velocity S-wave (km/s) = 3.77845 3.93388 3.85695
# Velocity P-wave (km/s) = 7.16002 7.41295 7.28758
#
# Compressibility (1/GPa) = 0.01425954
#
# Stress axis : x y z
#
# Youngs Moduli (GPa) = 71.98532 101.96771 112.36569
#
# Poissons Ratio (x) = 0.27755 0.40773
# Poissons Ratio (y) = 0.19594 0.31674
# Poissons Ratio (z) = 0.26121 0.28743
#
# Static dielectric constant tensor:
#      x y z
#    x 3.896280 0.000000 0.000000 
#    y 0.000000 4.898840 0.000000 
#    z 0.000000 0.000000 4.165910 
# 
# 
# High freq. dielectric constant tensor:
#      x y z
#    x 1.847930 0.000000 0.000000 
#    y 0.000000 1.858850 0.000000 
#    z 0.000000 0.000000 1.872020 
# 
# From -- ./inp_files/26346.got.cif
#   From: 2010.03.12/outbox.cif.g09.slc.cpg/sg68_14_cif.got.tgz:26346.got - 2010.04.10 23:14:56.
