data_PCOD8283876
_publ_section_title
;
Structure prediction by ZEFSAII (Michael W. Deem and Ramdas Pophale) SiO2 
 PCOD8283876
Probable space group: F M M M
;
_chemical_formula_sum "Si O2"
_cell_formula_units_Z 144
_cell_length_a 29.494232
_cell_length_b 13.989416
_cell_length_c 20.765208
_cell_angle_alpha 90.000000
_cell_angle_beta 90.000000
_cell_angle_gamma 90.000000
_cell_volume 8567.871860
_symmetry_space_group_name_H-M "F M M M"
_symmetry_group_IT_number 69
_symmetry_cell_setting 'orthorhombic'
loop_
_space_group_symop_operation_xyz
x,y,z
-x,-y,z
x,-y,-z
-x,y,-z
-x,-y,-z
x,y,-z
-x,y,z
x,-y,z
x,1/2+y,1/2+z
-x,1/2-y,1/2+z
x,1/2-y,1/2-z
-x,1/2+y,1/2-z
-x,1/2-y,1/2-z
x,1/2+y,1/2-z
-x,1/2+y,1/2+z
x,1/2-y,1/2+z
1/2+x,y,1/2+z
1/2-x,-y,1/2+z
1/2+x,-y,1/2-z
1/2-x,y,1/2-z
1/2-x,-y,1/2-z
1/2+x,y,1/2-z
1/2-x,y,1/2+z
1/2+x,-y,1/2+z
1/2+x,1/2+y,z
1/2-x,1/2-y,z
1/2+x,1/2-y,-z
1/2-x,1/2+y,-z
1/2-x,1/2-y,-z
1/2+x,1/2+y,-z
1/2-x,1/2+y,z
1/2+x,1/2-y,z
loop_
_atom_site_type_symbol
_atom_site_label
_atom_site_fract_x
_atom_site_fract_y
_atom_site_fract_z
Si Si1 0.824742 0.755641 0.673411
Si Si2 0.747088 0.395026 0.173684
Si Si3 0.500000 0.389737 0.576056
Si Si4 0.551558 0.607021 0.774039
Si Si5 0.923398 0.715451 0.847802
O O1 0.834671 0.750000 0.750000
O O2 0.792650 0.842312 0.651166
O O3 0.798841 0.658817 0.652397
O O4 0.871049 0.767669 0.632281
O O5 0.745810 0.500000 0.142620
O O6 0.750000 0.398542 0.250000
O O7 0.500000 0.500000 0.600491
O O8 0.500000 0.385755 0.500000
O O9 0.454219 0.336380 0.599104
O O10 0.500000 0.604617 0.749907
O O11 0.568082 0.500000 0.793319
O O12 0.580201 0.647435 0.714762
O O13 0.555725 0.679537 0.833856
#
# Coordination Sequence:
#
# PCOD8283876 Si02
#       5
#    32  32  16  32  32
#     4   9  16  26  40  65  96 128 161 190 226 285
#     4   8  15  26  38  58  95 133 160 187 225 275
#     4  11  24  39  53  69  93 127 163 200 246 295
#     4  10  18  28  46  71  97 124 157 197 243 289
#     4  11  18  32  48  70 100 128 161 200 240 281
#
# _framework density 16.806972999999999
#
# number of rings (size 3 to 8) (size 9 to 14) (size 15 to 20)
#    0.000    2.333    4.444    2.667    0.000    2.667 
#    0.000    0.000    0.000    1.333    0.000    3.111 
#    0.000    1.778    0.000    0.000    0.000    0.000 
#
# Total GULP energy -446088.392599 kJ/mol
# GULP energy per Si atom -12391.344239 kJ/mol
# Density = 1.676872 g / cm^3
# Si number density = 16.806973 Si / 1000 Ang^3
#
#
#
# Elastic Constant Matrix: (Units=GPa)
#
#
# Indices 1 2 3 4 5 6 
#
# 1 143.6685 58.9548 18.9209 0.0000 0.0000 0.0000
# 2 58.9548 166.3321 24.6997 0.0000 0.0000 0.0000
# 3 18.9209 24.6997 28.6265 0.0000 0.0000 0.0000
# 4 0.0000 0.0000 0.0000 13.3818 0.0000 0.0000
# 5 0.0000 0.0000 0.0000 0.0000 7.4416 0.0000
# 6 0.0000 0.0000 0.0000 0.0000 0.0000 9.8824
#
#
#
# Elastic Compliance Matrix: (Units=1/GPa)
#
#
# Indices 1 2 3 4 5 6 
#
# 1 0.008429 -0.002478 -0.003434 0.000000 0.000000 0.000000
# 2 -0.002478 0.007624 -0.004940 0.000000 0.000000 0.000000
# 3 -0.003434 -0.004940 0.041465 0.000000 0.000000 0.000000
# 4 0.000000 0.000000 0.000000 0.074728 0.000000 0.000000
# 5 0.000000 0.000000 0.000000 0.000000 0.134380 0.000000
# 6 0.000000 0.000000 0.000000 0.000000 0.000000 0.101190
#
#
# Mechanical properties :
#
#
# Convention : Reuss Voigt Hill
#
# Bulk Modulus (GPa) = 27.92157 60.41979 44.17068
# Shear Modulus (GPa) = 12.45459 21.87793 17.16626
#
# Velocity S-wave (km/s) = 2.72515 3.61185 3.19937
# Velocity P-wave (km/s) = 5.15278 7.30898 6.32346
#
# Compressibility (1/GPa) = 0.03581460
#
# Stress axis : x y z
#
# Youngs Moduli (GPa) = 118.63149 131.16555 24.11684
#
# Poissons Ratio (x) = 0.32501 0.08281
# Poissons Ratio (y) = 0.29395 0.11915
# Poissons Ratio (z) = 0.40733 0.64801
#
# Static dielectric constant tensor:
#      x y z
#    x 3.267820 0.000000 0.000000 
#    y 0.000000 3.737170 0.000000 
#    z 0.000000 0.000000 2.421840 
# 
# 
# High freq. dielectric constant tensor:
#      x y z
#    x 1.660320 0.000000 0.000000 
#    y 0.000000 1.666020 0.000000 
#    z 0.000000 0.000000 1.555170 
# 
# From -- ./inp_files/27367.got.cif
#   From: 2010.03.12/outbox.cif.g09.slc.cpg/sg69_14_cif.got.tgz:27367.got - 2010.04.10 23:52:46.
