data_PCOD8283786
_publ_section_title
;
Structure prediction by ZEFSAII (Michael W. Deem and Ramdas Pophale) SiO2 
 PCOD8283786
Probable space group: F M M M
;
_chemical_formula_sum "Si O2"
_cell_formula_units_Z 208
_cell_length_a 28.866784
_cell_length_b 22.250769
_cell_length_c 20.618832
_cell_angle_alpha 90.000000
_cell_angle_beta 90.000000
_cell_angle_gamma 90.000000
_cell_volume 13243.643684
_symmetry_space_group_name_H-M "F M M M"
_symmetry_group_IT_number 69
_symmetry_cell_setting 'orthorhombic'
loop_
_space_group_symop_operation_xyz
x,y,z
-x,-y,z
x,-y,-z
-x,y,-z
-x,-y,-z
x,y,-z
-x,y,z
x,-y,z
x,1/2+y,1/2+z
-x,1/2-y,1/2+z
x,1/2-y,1/2-z
-x,1/2+y,1/2-z
-x,1/2-y,1/2-z
x,1/2+y,1/2-z
-x,1/2+y,1/2+z
x,1/2-y,1/2+z
1/2+x,y,1/2+z
1/2-x,-y,1/2+z
1/2+x,-y,1/2-z
1/2-x,y,1/2-z
1/2-x,-y,1/2-z
1/2+x,y,1/2-z
1/2-x,y,1/2+z
1/2+x,-y,1/2+z
1/2+x,1/2+y,z
1/2-x,1/2-y,z
1/2+x,1/2-y,-z
1/2-x,1/2+y,-z
1/2-x,1/2-y,-z
1/2+x,1/2+y,-z
1/2-x,1/2+y,z
1/2+x,1/2-y,z
loop_
_atom_site_type_symbol
_atom_site_label
_atom_site_fract_x
_atom_site_fract_y
_atom_site_fract_z
Si Si1 0.885563 0.104964 0.370053
Si Si2 0.051346 0.163430 0.803175
Si Si3 0.773470 0.429268 0.685996
Si Si4 0.051842 0.707940 0.156742
Si Si5 0.374988 0.570463 0.222634
Si Si6 0.791658 0.929576 0.573166
Si Si7 0.945621 0.500000 0.924414
O O1 0.909209 0.170102 0.381152
O O2 0.869906 0.091035 0.296802
O O3 0.840097 0.103831 0.414367
O O4 0.924314 0.058125 0.391322
O O5 0.066514 0.221909 0.844790
O O6 0.050805 0.182162 0.728810
O O7 0.085517 0.107626 0.814977
O O8 0.000000 0.142624 0.824327
O O9 0.766113 0.500000 0.688620
O O10 0.750000 0.400280 0.750000
O O11 0.827643 0.413536 0.685107
O O12 0.748257 0.404553 0.621216
O O13 0.000000 0.700569 0.126765
O O14 0.386817 0.500000 0.218931
O O15 0.775153 0.916406 0.500000
O O16 0.800953 0.000000 0.584563
O O17 0.000000 0.500000 0.910673
O O18 0.933578 0.500000 0.000000
#
# Coordination Sequence:
#
# PCOD8283786 Si02
#       7
#    32  32  32  32  32  32  16
#     4  11  17  27  42  62  86 123 165 196 226 266
#     4   8  15  27  41  61  88 116 147 187 231 275
#     4   9  16  27  42  62  91 121 153 191 234 283
#     4   8  15  27  41  57  82 119 158 190 222 263
#     4  10  17  26  43  68  92 117 150 190 243 286
#     4  10  18  28  43  64  92 124 158 193 228 273
#     4  11  22  30  36  57  98 136 163 196 230 262
#
# _framework density 15.705647000000001
#
# number of rings (size 3 to 8) (size 9 to 14) (size 15 to 20)
#    0.000    2.538    3.077    1.846    0.000    0.923 
#    0.000    0.000    0.000    0.923    0.000    3.231 
#    0.000    3.077    0.000    6.000    0.000    0.000 
#
# Total GULP energy -644546.770278 kJ/mol
# GULP energy per Si atom -12395.130198 kJ/mol
# Density = 1.566990 g / cm^3
# Si number density = 15.705647 Si / 1000 Ang^3
#
#
#
# Elastic Constant Matrix: (Units=GPa)
#
#
# Indices 1 2 3 4 5 6 
#
# 1 106.3281 48.2337 46.7179 0.0000 0.0000 0.0000
# 2 48.2337 67.9389 21.4332 0.0000 0.0000 0.0000
# 3 46.7179 21.4332 69.3880 0.0000 0.0000 0.0000
# 4 0.0000 0.0000 0.0000 5.6807 0.0000 0.0000
# 5 0.0000 0.0000 0.0000 0.0000 18.7762 0.0000
# 6 0.0000 0.0000 0.0000 0.0000 0.0000 -13.2687
#
#
#
# Elastic Compliance Matrix: (Units=1/GPa)
#
#
# Indices 1 2 3 4 5 6 
#
# 1 0.017781 -0.009802 -0.008944 0.000000 0.000000 0.000000
# 2 -0.009802 0.021712 -0.000107 0.000000 0.000000 0.000000
# 3 -0.008944 -0.000107 0.020467 0.000000 0.000000 0.000000
# 4 0.000000 0.000000 0.000000 0.176034 0.000000 0.000000
# 5 0.000000 0.000000 0.000000 0.000000 0.053259 0.000000
# 6 0.000000 0.000000 0.000000 0.000000 0.000000 -0.075365
#
#
# Mechanical properties :
#
#
# Convention : Reuss Voigt Hill
#
# Bulk Modulus (GPa) = 44.93677 52.93607 48.93642
# Shear Modulus (GPa) = 19.30413 10.72232 15.01323
#
# Velocity S-wave (km/s) = 3.50968 2.61570 3.09514
# Velocity P-wave (km/s) = 6.71549 6.54987 6.63320
#
# Compressibility (1/GPa) = 0.02225349
#
# Stress axis : x y z
#
# Youngs Moduli (GPa) = 56.23911 46.05745 48.86010
#
# Poissons Ratio (x) = 0.45147 0.43701
# Poissons Ratio (y) = 0.55127 0.00522
# Poissons Ratio (z) = 0.50300 0.00492
#
# Static dielectric constant tensor:
#      x y z
#    x 3.174540 0.000000 0.000000 
#    y 0.000000 2.882280 0.000000 
#    z 0.000000 0.000000 2.812560 
# 
# 
# High freq. dielectric constant tensor:
#      x y z
#    x 1.611830 0.000000 0.000000 
#    y 0.000000 1.573660 0.000000 
#    z 0.000000 0.000000 1.567250 
# 
# From -- ./inp_files/34064.got.cif
#   From: 2010.03.12/outbox.cif.g09.slc.cpg/sg69_18_cif.got.tgz:34064.got - 2010.04.10 23:52:46.
