data_PCOD8283617
_publ_section_title
;
Structure prediction by ZEFSAII (Michael W. Deem and Ramdas Pophale) SiO2 
 PCOD8283617
Probable space group: C C C A
;
_chemical_formula_sum "Si O2"
_cell_formula_units_Z 64
_cell_length_a 18.355491
_cell_length_b 7.258245
_cell_length_c 19.276956
_cell_angle_alpha 90.000000
_cell_angle_beta 90.000000
_cell_angle_gamma 90.000000
_cell_volume 2568.242839
_symmetry_space_group_name_H-M "C C C A"
_symmetry_group_IT_number 68
_space_group.IT_coordinate_system_code '2'
_symmetry_cell_setting 'orthorhombic'
loop_
_space_group_symop_operation_xyz
x,y,z
-x,1/2-y,z
x,1/2-y,1/2-z
-x,y,1/2-z
-x,-y,-z
x,1/2+y,-z
-x,1/2+y,1/2+z
x,-y,1/2+z
1/2+x,1/2+y,z
1/2-x,-y,z
1/2+x,-y,1/2-z
1/2-x,1/2+y,1/2-z
1/2-x,1/2-y,-z
1/2+x,y,-z
1/2-x,y,1/2+z
1/2+x,1/2-y,1/2+z
loop_
_atom_site_type_symbol
_atom_site_label
_atom_site_fract_x
_atom_site_fract_y
_atom_site_fract_z
Si Si1 0.924281 0.794903 0.440752
Si Si2 0.459431 0.557774 0.315376
Si Si3 0.802098 0.160375 0.317524
Si Si4 0.168991 0.453540 0.063346
O O1 0.870753 0.891895 0.493780
O O2 0.000000 0.750000 0.481213
O O3 0.955722 0.926964 0.381373
O O4 0.121642 0.874756 0.407243
O O5 0.500000 0.750000 0.334796
O O6 0.500000 0.463595 0.250000
O O7 0.377369 0.582381 0.288652
O O8 0.762318 0.250000 0.250000
O O9 0.823498 0.299481 0.378442
O O10 0.750000 0.000000 0.347739
O O11 0.250000 0.500000 0.038914
#
# Coordination Sequence:
#
# PCOD8283617 Si02
#       4
#    16  16  16  16
#     4  12  27  47  78 112 161 208 269 329 413 489
#     4  11  24  50  80 112 157 212 269 338 406 487
#     4  12  26  50  81 114 160 208 271 340 416 491
#     4  12  27  50  76 118 156 210 267 339 414 490
#
# _framework density 24.91976
#
# number of rings (size 3 to 8) (size 9 to 14) (size 15 to 20)
#    0.000    0.250    2.500    6.750    0.000    4.500 
#    0.000    0.000    0.000    0.000    0.000    0.000 
#    0.000    0.000    0.000    0.000    0.000    0.000 
#
# Total GULP energy -396649.085000 kJ/mol
# GULP energy per Si atom -12395.283906 kJ/mol
# Density = 2.486304 g / cm^3
# Si number density = 24.919760 Si / 1000 Ang^3
#
#
#
# Elastic Constant Matrix: (Units=GPa)
#
#
# Indices 1 2 3 4 5 6 
#
# 1 214.9376 72.1640 65.5220 0.0000 0.0000 0.0000
# 2 72.1640 132.3759 70.4337 0.0000 0.0000 0.0000
# 3 65.5220 70.4337 168.0599 0.0000 0.0000 0.0000
# 4 0.0000 0.0000 0.0000 9.9545 0.0000 0.0000
# 5 0.0000 0.0000 0.0000 0.0000 6.1664 0.0000
# 6 0.0000 0.0000 0.0000 0.0000 0.0000 60.4408
#
#
#
# Elastic Compliance Matrix: (Units=1/GPa)
#
#
# Indices 1 2 3 4 5 6 
#
# 1 0.005884 -0.002557 -0.001222 0.000000 0.000000 0.000000
# 2 -0.002557 0.010834 -0.003543 0.000000 0.000000 0.000000
# 3 -0.001222 -0.003543 0.007912 0.000000 0.000000 0.000000
# 4 0.000000 0.000000 0.000000 0.100457 0.000000 0.000000
# 5 0.000000 0.000000 0.000000 0.000000 0.162170 0.000000
# 6 0.000000 0.000000 0.000000 0.000000 0.000000 0.016545
#
#
# Mechanical properties :
#
#
# Convention : Reuss Voigt Hill
#
# Bulk Modulus (GPa) = 100.16426 103.51255 101.83840
# Shear Modulus (GPa) = 15.53883 35.79590 25.66737
#
# Velocity S-wave (km/s) = 2.49982 3.79416 3.21284
# Velocity P-wave (km/s) = 6.97238 7.79889 7.39719
#
# Compressibility (1/GPa) = 0.00998360
#
# Stress axis : x y z
#
# Youngs Moduli (GPa) = 169.96314 92.30541 126.39379
#
# Poissons Ratio (x) = 0.23604 0.15447
# Poissons Ratio (y) = 0.43462 0.44786
# Poissons Ratio (z) = 0.20772 0.32707
#
# Static dielectric constant tensor:
#      x y z
#    x 6.524370 0.000000 0.000000 
#    y 0.000000 4.148610 0.000000 
#    z 0.000000 0.000000 4.200260 
# 
# 
# High freq. dielectric constant tensor:
#      x y z
#    x 2.025370 0.000000 0.000000 
#    y 0.000000 1.995520 0.000000 
#    z 0.000000 0.000000 1.990400 
# 
# From -- ./inp_files/39121.got.cif
#   From: 2010.03.12/outbox.cif.g09.slc.cpg/sg68_20_cif.got.tgz:39121.got - 2010.04.10 23:14:56.
