data_PCOD8283652
_publ_section_title
;
Structure prediction by ZEFSAII (Michael W. Deem and Ramdas Pophale) SiO2 
 PCOD8283652
Probable space group: C C C A
;
_chemical_formula_sum "Si O2"
_cell_formula_units_Z 64
_cell_length_a 18.298018
_cell_length_b 10.218463
_cell_length_c 15.082289
_cell_angle_alpha 90.000000
_cell_angle_beta 90.000000
_cell_angle_gamma 90.000000
_cell_volume 2820.050500
_symmetry_space_group_name_H-M "C C C A"
_symmetry_group_IT_number 68
_space_group.IT_coordinate_system_code '2'
_symmetry_cell_setting 'orthorhombic'
loop_
_space_group_symop_operation_xyz
x,y,z
-x,1/2-y,z
x,1/2-y,1/2-z
-x,y,1/2-z
-x,-y,-z
x,1/2+y,-z
-x,1/2+y,1/2+z
x,-y,1/2+z
1/2+x,1/2+y,z
1/2-x,-y,z
1/2+x,-y,1/2-z
1/2-x,1/2+y,1/2-z
1/2-x,1/2-y,-z
1/2+x,y,-z
1/2-x,y,1/2+z
1/2+x,1/2-y,1/2+z
loop_
_atom_site_type_symbol
_atom_site_label
_atom_site_fract_x
_atom_site_fract_y
_atom_site_fract_z
Si Si1 0.743904 0.140140 0.398413
Si Si2 0.500000 0.750000 0.559587
Si Si3 0.137465 0.673325 0.554459
Si Si4 0.058782 0.972895 0.316807
Si Si5 0.346204 0.750000 0.750000
O O1 0.825952 0.195614 0.406492
O O2 0.700838 0.113137 0.491120
O O3 0.701031 0.244570 0.339037
O O4 0.750000 0.000000 0.349953
O O5 0.431678 0.780997 0.499507
O O6 0.484416 0.620451 0.615691
O O7 0.110558 0.575597 0.631920
O O8 0.106968 0.881473 0.253479
O O9 0.000000 0.042656 0.250000
#
# Coordination Sequence:
#
# PCOD8283652 Si02
#       5
#    16   8  16  16   8
#     4  11  26  47  70 104 141 192 249 310 372 443
#     4  12  21  48  67 104 144 198 240 304 381 443
#     4  11  26  44  76 102 143 192 251 305 369 456
#     4  12  23  44  74 108 146 191 244 304 374 444
#     4  12  25  46  70 101 148 192 236 304 380 433
#
# _framework density 22.694628000000002
#
# number of rings (size 3 to 8) (size 9 to 14) (size 15 to 20)
#    0.000    0.500    5.000    2.250    7.000    2.000 
#    0.000    0.000    0.000    0.000    0.000    0.000 
#    0.000    0.000    0.000    0.000    0.000    0.000 
#
# Total GULP energy -396717.928837 kJ/mol
# GULP energy per Si atom -12397.435276 kJ/mol
# Density = 2.264297 g / cm^3
# Si number density = 22.694628 Si / 1000 Ang^3
#
#
#
# Elastic Constant Matrix: (Units=GPa)
#
#
# Indices 1 2 3 4 5 6 
#
# 1 124.2573 61.4239 22.9750 0.0000 0.0000 0.0000
# 2 61.4239 114.9331 43.1179 0.0000 0.0000 0.0000
# 3 22.9750 43.1179 61.6724 0.0000 0.0000 0.0000
# 4 0.0000 0.0000 0.0000 33.5089 0.0000 0.0000
# 5 0.0000 0.0000 0.0000 0.0000 29.0146 0.0000
# 6 0.0000 0.0000 0.0000 0.0000 0.0000 41.8868
#
#
#
# Elastic Compliance Matrix: (Units=1/GPa)
#
#
# Indices 1 2 3 4 5 6 
#
# 1 0.010937 -0.005851 0.000016 0.000000 0.000000 0.000000
# 2 -0.005851 0.014925 -0.008255 0.000000 0.000000 0.000000
# 3 0.000016 -0.008255 0.021980 0.000000 0.000000 0.000000
# 4 0.000000 0.000000 0.000000 0.029843 0.000000 0.000000
# 5 0.000000 0.000000 0.000000 0.000000 0.034465 0.000000
# 6 0.000000 0.000000 0.000000 0.000000 0.000000 0.023874
#
#
# Mechanical properties :
#
#
# Convention : Reuss Voigt Hill
#
# Bulk Modulus (GPa) = 50.85813 61.76627 56.31220
# Shear Modulus (GPa) = 29.28134 32.43847 30.85990
#
# Velocity S-wave (km/s) = 3.59588 3.78477 3.69153
# Velocity P-wave (km/s) = 6.30070 6.80989 6.56024
#
# Compressibility (1/GPa) = 0.01966254
#
# Stress axis : x y z
#
# Youngs Moduli (GPa) = 91.43032 67.00303 45.49640
#
# Poissons Ratio (x) = 0.39206 -0.00075
# Poissons Ratio (y) = 0.53500 0.37556
# Poissons Ratio (z) = -0.00151 0.55309
#
# Static dielectric constant tensor:
#      x y z
#    x 3.971090 0.000000 0.000000 
#    y 0.000000 3.908870 0.000000 
#    z 0.000000 0.000000 4.240620 
# 
# 
# High freq. dielectric constant tensor:
#      x y z
#    x 1.917480 0.000000 0.000000 
#    y 0.000000 1.882120 0.000000 
#    z 0.000000 0.000000 1.897630 
# 
# From -- ./inp_files/23205.got.cif
#   From: 2010.03.12/outbox.cif.g09.slc.cpg/sg68_12_cif.got.tgz:23205.got - 2010.04.10 23:14:56.
