data_PCOD8283854
_publ_section_title
;
Structure prediction by ZEFSAII (Michael W. Deem and Ramdas Pophale) SiO2 
 PCOD8283854
Probable space group: F M M M
;
_chemical_formula_sum "Si O2"
_cell_formula_units_Z 160
_cell_length_a 17.485456
_cell_length_b 14.689995
_cell_length_c 33.120691
_cell_angle_alpha 90.000000
_cell_angle_beta 90.000000
_cell_angle_gamma 90.000000
_cell_volume 8507.422462
_symmetry_space_group_name_H-M "F M M M"
_symmetry_group_IT_number 69
_symmetry_cell_setting 'orthorhombic'
loop_
_space_group_symop_operation_xyz
x,y,z
-x,-y,z
x,-y,-z
-x,y,-z
-x,-y,-z
x,y,-z
-x,y,z
x,-y,z
x,1/2+y,1/2+z
-x,1/2-y,1/2+z
x,1/2-y,1/2-z
-x,1/2+y,1/2-z
-x,1/2-y,1/2-z
x,1/2+y,1/2-z
-x,1/2+y,1/2+z
x,1/2-y,1/2+z
1/2+x,y,1/2+z
1/2-x,-y,1/2+z
1/2+x,-y,1/2-z
1/2-x,y,1/2-z
1/2-x,-y,1/2-z
1/2+x,y,1/2-z
1/2-x,y,1/2+z
1/2+x,-y,1/2+z
1/2+x,1/2+y,z
1/2-x,1/2-y,z
1/2+x,1/2-y,-z
1/2-x,1/2+y,-z
1/2-x,1/2-y,-z
1/2+x,1/2+y,-z
1/2-x,1/2+y,z
1/2+x,1/2-y,z
loop_
_atom_site_type_symbol
_atom_site_label
_atom_site_fract_x
_atom_site_fract_y
_atom_site_fract_z
Si Si1 0.408989 0.102467 0.748403
Si Si2 0.590750 0.247289 0.187694
Si Si3 0.912973 0.268964 0.902813
Si Si4 0.709562 0.153098 0.955722
Si Si5 0.630802 0.900808 0.453206
O O1 0.500000 0.096566 0.747829
O O2 0.381567 0.156674 0.788520
O O3 0.379427 0.160532 0.709701
O O4 0.374054 0.000000 0.747784
O O5 0.500000 0.250481 0.187851
O O6 0.621454 0.244395 0.142013
O O7 0.861455 0.345586 0.924793
O O8 0.911745 0.172515 0.925720
O O9 0.000000 0.304878 0.901587
O O10 0.750000 0.250000 0.957169
O O11 0.778754 0.087358 0.942295
O O12 0.677510 0.126068 0.000000
O O13 0.622116 0.870286 0.500000
O O14 0.592890 0.000000 0.446041
#
# Coordination Sequence:
#
# PCOD8283854 Si02
#       5
#    32  32  32  32  32
#     4   8  13  24  41  56  79 121 160 184 216 270
#     4   8  15  25  37  61  93 119 148 186 228 278
#     4  10  18  27  43  70 100 120 140 184 241 283
#     4   8  15  29  46  61  82 119 161 187 207 253
#     4   9  18  32  48  65  88 122 161 194 224 268
#
# _framework density 18.807106999999998
#
# number of rings (size 3 to 8) (size 9 to 14) (size 15 to 20)
#    0.000    3.400    0.000    3.000    0.000    2.800 
#    0.000    4.000    0.000    1.800    0.000   28.000 
#    0.000   20.800    0.000    0.000    0.000    0.000 
#
# Total GULP energy -495542.170694 kJ/mol
# GULP energy per Si atom -12388.554267 kJ/mol
# Density = 1.876430 g / cm^3
# Si number density = 18.807107 Si / 1000 Ang^3
#
#
#
# Elastic Constant Matrix: (Units=GPa)
#
#
# Indices 1 2 3 4 5 6 
#
# 1 40.4568 1.5464 26.2604 0.0000 0.0000 0.0000
# 2 1.5464 83.5649 27.2959 0.0000 0.0000 0.0000
# 3 26.2604 27.2959 125.9579 0.0000 0.0000 0.0000
# 4 0.0000 0.0000 0.0000 16.1290 0.0000 0.0000
# 5 0.0000 0.0000 0.0000 0.0000 -0.3512 0.0000
# 6 0.0000 0.0000 0.0000 0.0000 0.0000 10.7762
#
#
#
# Elastic Compliance Matrix: (Units=1/GPa)
#
#
# Indices 1 2 3 4 5 6 
#
# 1 0.028768 0.001535 -0.006330 0.000000 0.000000 0.000000
# 2 0.001535 0.012960 -0.003129 0.000000 0.000000 0.000000
# 3 -0.006330 -0.003129 0.009937 0.000000 0.000000 0.000000
# 4 0.000000 0.000000 0.000000 0.062000 0.000000 0.000000
# 5 0.000000 0.000000 0.000000 0.000000 -2.847698 0.000000
# 6 0.000000 0.000000 0.000000 0.000000 0.000000 0.092797
#
#
# Mechanical properties :
#
#
# Convention : Reuss Voigt Hill
#
# Bulk Modulus (GPa) = 27.91896 40.02055 33.96976
# Shear Modulus (GPa) = -1.91318 18.30261 8.19471
#
# Velocity S-wave (km/s) = -1.00969 3.12296 2.08967
# Velocity P-wave (km/s) = 3.67666 5.85914 4.89118
#
# Compressibility (1/GPa) = 0.03581795
#
# Stress axis : x y z
#
# Youngs Moduli (GPa) = 34.76068 77.15873 100.63413
#
# Poissons Ratio (x) = -0.11847 0.63706
# Poissons Ratio (y) = -0.05337 0.31485
# Poissons Ratio (z) = 0.22005 0.24141
#
# Static dielectric constant tensor:
#      x y z
#    x 3.172550 0.000000 0.000000 
#    y 0.000000 3.911450 0.000000 
#    z 0.000000 0.000000 3.673620 
# 
# 
# High freq. dielectric constant tensor:
#      x y z
#    x 1.685600 0.000000 0.000000 
#    y 0.000000 1.717070 0.000000 
#    z 0.000000 0.000000 1.726970 
# 
# From -- ./inp_files/46791.got.cif
#   From: 2010.03.12/outbox.cif.g09.slc.cpg/sg69_24_cif.got.tgz:46791.got - 2010.04.10 23:52:46.
